H1.sdf
 OpenBabel12212109553D

194215  0  0  0  0  0  0  0  0999 V2000
   -0.6493    1.1618    1.0630 C   0  0  0  0  0  0  0  0  0  0  0  0
    0.2902    0.9589    0.0403 C   0  0  0  0  0  0  0  0  0  0  0  0
    0.4053   -0.3811   -0.4462 C   0  0  0  0  0  0  0  0  0  0  0  0
   -0.1438   -1.2918    0.4145 C   0  0  0  0  0  0  0  0  0  0  0  0
   -0.9146   -0.4381    1.7354 S   0  0  0  0  0  0  0  0  0  0  0  0
   -0.1917   -2.7661    0.2411 C   0  0  0  0  0  0  0  0  0  0  0  0
    0.1714   -3.6285    1.2747 C   0  0  0  0  0  0  0  0  0  0  0  0
   -0.0180   -4.9959    1.1360 C   0  0  0  0  0  0  0  0  0  0  0  0
   -0.6764   -5.4683    0.0018 C   0  0  0  0  0  0  0  0  0  0  0  0
   -1.0623   -4.6459   -1.0695 C   0  0  0  0  0  0  0  0  0  0  0  0
   -0.6052   -3.3404   -0.9920 C   0  0  0  0  0  0  0  0  0  0  0  0
   -1.8812   -5.5090   -2.0581 C   0  0  0  0  0  0  0  0  0  0  0  0
   -1.9118   -6.8694   -1.3801 C   0  0  0  0  0  0  0  0  0  0  0  0
   -1.0947   -6.8152   -0.2262 C   0  0  0  0  0  0  0  0  0  0  0  0
   -0.8094   -7.9039    0.5965 C   0  0  0  0  0  0  0  0  0  0  0  0
   -1.3628   -9.1036    0.2681 C   0  0  0  0  0  0  0  0  0  0  0  0
   -2.2806   -9.1417   -0.7784 C   0  0  0  0  0  0  0  0  0  0  0  0
   -2.6246   -8.0212   -1.5518 C   0  0  0  0  0  0  0  0  0  0  0  0
   -2.7422  -10.4351   -1.1444 C   0  0  0  0  0  0  0  0  0  0  0  0
   -1.9379  -11.5328   -1.2535 C   0  0  0  0  0  0  0  0  0  0  0  0
   -2.6269  -12.5082   -1.9506 C   0  0  0  0  0  0  0  0  0  0  0  0
   -3.9133  -12.1549   -2.3047 C   0  0  0  0  0  0  0  0  0  0  0  0
   -4.3654  -10.7186   -1.5317 S   0  0  0  0  0  0  0  0  0  0  0  0
   -4.7479  -12.7485   -3.2655 C   0  0  0  0  0  0  0  0  0  0  0  0
   -4.3111  -14.4703   -3.8503 N   0  0  0  0  0  0  0  0  0  0  0  0
   -5.6915  -14.9126   -5.3513 C   0  0  0  0  0  0  0  0  0  0  0  0
   -6.7853  -13.3241   -5.3973 C   0  0  0  0  0  0  0  0  0  0  0  0
   -6.1195  -12.1078   -4.0803 C   0  0  0  0  0  0  0  0  0  0  0  0
   -7.9875  -13.0938   -5.8063 C   0  0  0  0  0  0  0  0  0  0  0  0
   -8.2416  -11.8144   -5.3703 N   0  0  0  0  0  0  0  0  0  0  0  0
   -7.2718  -11.1203   -4.4397 C   0  0  0  0  0  0  0  0  0  0  0  0
   -2.9569  -15.3456   -3.2777 C   0  0  0  0  0  0  0  0  0  0  0  0
   -3.1726  -16.6761   -2.5316 C   0  0  0  0  0  0  0  0  0  0  0  0
   -6.0276  -15.8646   -6.0801 O   0  0  0  0  0  0  0  0  0  0  0  0
   -7.3702   -9.9749   -4.0346 O   0  0  0  0  0  0  0  0  0  0  0  0
   -9.4237  -11.1602   -5.8192 C   0  0  0  0  0  0  0  0  0  0  0  0
  -10.5295  -11.4508   -4.8375 C   0  0  0  0  0  0  0  0  0  0  0  0
   -8.6836  -14.1333   -6.5165 C   0  0  0  0  0  0  0  0  0  0  0  0
   -8.3911  -14.3778   -8.2154 S   0  0  0  0  0  0  0  0  0  0  0  0
   -9.4705  -15.7034   -8.3191 C   0  0  0  0  0  0  0  0  0  0  0  0
   -9.9199  -16.0895   -7.0799 C   0  0  0  0  0  0  0  0  0  0  0  0
   -9.3892  -15.2482   -6.0426 C   0  0  0  0  0  0  0  0  0  0  0  0
   -1.2257    2.4395    1.5269 C   0  0  0  0  0  0  0  0  0  0  0  0
   -2.5003    2.7526    2.1378 N   0  0  0  0  0  0  0  0  0  0  0  0
   -2.6580    4.1532    2.3239 C   0  0  0  0  0  0  0  0  0  0  0  0
   -1.5145    4.6961    1.6280 C   0  0  0  0  0  0  0  0  0  0  0  0
   -0.6384    3.6301    1.2232 C   0  0  0  0  0  0  0  0  0  0  0  0
   -1.1634    5.8518    1.0698 C   0  0  0  0  0  0  0  0  0  0  0  0
    0.0198    5.6642    0.3683 N   0  0  0  0  0  0  0  0  0  0  0  0
    0.4721    4.3208    0.4896 C   0  0  0  0  0  0  0  0  0  0  0  0
   -3.6365    1.9699    2.5933 C   0  0  0  0  0  0  0  0  0  0  0  0
   -4.9703    2.1495    1.8249 C   0  0  0  0  0  0  0  0  0  0  0  0
   -3.5297    4.7879    2.8833 O   0  0  0  0  0  0  0  0  0  0  0  0
    1.4769    3.8284    0.0164 O   0  0  0  0  0  0  0  0  0  0  0  0
    0.6190    6.5869   -0.5826 C   0  0  0  0  0  0  0  0  0  0  0  0
    1.6564    7.5237    0.0127 C   0  0  0  0  0  0  0  0  0  0  0  0
   -2.0335    6.9703    1.0352 C   0  0  0  0  0  0  0  0  0  0  0  0
   -3.2015    7.1053   -0.2340 S   0  0  0  0  0  0  0  0  0  0  0  0
   -3.8451    8.5550    0.4000 C   0  0  0  0  0  0  0  0  0  0  0  0
   -3.2506    8.9017    1.5906 C   0  0  0  0  0  0  0  0  0  0  0  0
   -2.2266    7.9785    1.9659 C   0  0  0  0  0  0  0  0  0  0  0  0
   -0.1601    2.1027   -3.5698 C   0  0  0  0  0  0  0  0  0  0  0  0
   -1.0309    1.8155   -2.5117 C   0  0  0  0  0  0  0  0  0  0  0  0
   -1.6917    0.5303   -2.5798 C   0  0  0  0  0  0  0  0  0  0  0  0
   -1.5966   -0.0591   -3.8159 C   0  0  0  0  0  0  0  0  0  0  0  0
   -0.5195    0.8989   -4.8072 S   0  0  0  0  0  0  0  0  0  0  0  0
   -2.2288   -1.3455   -4.2514 C   0  0  0  0  0  0  0  0  0  0  0  0
   -2.7894   -1.4929   -5.5205 C   0  0  0  0  0  0  0  0  0  0  0  0
   -3.3334   -2.7192   -5.9220 C   0  0  0  0  0  0  0  0  0  0  0  0
   -3.1864   -3.8399   -5.0991 C   0  0  0  0  0  0  0  0  0  0  0  0
   -2.6004   -3.7453   -3.8317 C   0  0  0  0  0  0  0  0  0  0  0  0
   -2.3419   -2.4565   -3.3730 C   0  0  0  0  0  0  0  0  0  0  0  0
   -2.4700   -5.1677   -3.2611 C   0  0  0  0  0  0  0  0  0  0  0  0
   -3.0973   -6.0798   -4.3639 C   0  0  0  0  0  0  0  0  0  0  0  0
   -3.5637   -5.2072   -5.3771 C   0  0  0  0  0  0  0  0  0  0  0  0
   -4.2420   -5.6638   -6.5028 C   0  0  0  0  0  0  0  0  0  0  0  0
   -4.4682   -7.0286   -6.6452 C   0  0  0  0  0  0  0  0  0  0  0  0
   -3.9416   -7.9672   -5.7332 C   0  0  0  0  0  0  0  0  0  0  0  0
   -3.1931   -7.4592   -4.6341 C   0  0  0  0  0  0  0  0  0  0  0  0
   -4.2238   -9.4216   -5.9828 C   0  0  0  0  0  0  0  0  0  0  0  0
   -5.1728   -9.9462   -6.8460 C   0  0  0  0  0  0  0  0  0  0  0  0
   -5.2264  -11.3734   -6.8695 C   0  0  0  0  0  0  0  0  0  0  0  0
   -4.5116  -11.9632   -5.8288 C   0  0  0  0  0  0  0  0  0  0  0  0
   -3.3754  -10.7370   -5.2456 S   0  0  0  0  0  0  0  0  0  0  0  0
   -4.8213  -13.3831   -5.1609 C   0  0  0  0  0  0  0  0  0  0  0  0
   -3.7984  -14.6784   -5.7314 N   0  0  0  0  0  0  0  0  0  0  0  0
   -4.2430  -16.2595   -4.9536 C   0  0  0  0  0  0  0  0  0  0  0  0
   -5.6682  -15.9154   -3.6131 C   0  0  0  0  0  0  0  0  0  0  0  0
   -5.9907  -14.1112   -3.8159 C   0  0  0  0  0  0  0  0  0  0  0  0
   -6.4904  -16.1380   -2.5620 C   0  0  0  0  0  0  0  0  0  0  0  0
   -7.2773  -15.0741   -2.0741 N   0  0  0  0  0  0  0  0  0  0  0  0
   -7.0861  -13.8696   -2.6916 C   0  0  0  0  0  0  0  0  0  0  0  0
   -2.5821  -14.3164   -6.4153 C   0  0  0  0  0  0  0  0  0  0  0  0
   -2.6004  -15.0929   -7.6777 C   0  0  0  0  0  0  0  0  0  0  0  0
   -3.7130  -17.3288   -5.2264 O   0  0  0  0  0  0  0  0  0  0  0  0
   -7.6205  -12.8265   -2.3495 O   0  0  0  0  0  0  0  0  0  0  0  0
   -8.3151  -15.0315   -1.0515 C   0  0  0  0  0  0  0  0  0  0  0  0
   -7.9026  -14.4331    0.2973 C   0  0  0  0  0  0  0  0  0  0  0  0
   -6.4053  -17.3307   -1.8691 C   0  0  0  0  0  0  0  0  0  0  0  0
   -7.1691  -18.6983   -2.5168 S   0  0  0  0  0  0  0  0  0  0  0  0
   -6.4017  -19.6841   -1.3673 C   0  0  0  0  0  0  0  0  0  0  0  0
   -5.5901  -18.9830   -0.5047 C   0  0  0  0  0  0  0  0  0  0  0  0
   -5.6665  -17.5910   -0.7346 C   0  0  0  0  0  0  0  0  0  0  0  0
    0.9063    3.1158   -3.7024 C   0  0  0  0  0  0  0  0  0  0  0  0
    0.7848    4.5030   -4.0987 N   0  0  0  0  0  0  0  0  0  0  0  0
    2.0767    5.1299   -4.1414 C   0  0  0  0  0  0  0  0  0  0  0  0
    2.9686    4.0697   -3.7824 C   0  0  0  0  0  0  0  0  0  0  0  0
    2.2307    2.8690   -3.4819 C   0  0  0  0  0  0  0  0  0  0  0  0
    4.2781    3.8732   -3.8983 C   0  0  0  0  0  0  0  0  0  0  0  0
    4.5291    2.5563   -3.5627 N   0  0  0  0  0  0  0  0  0  0  0  0
    3.3189    1.8748   -3.1884 C   0  0  0  0  0  0  0  0  0  0  0  0
    0.0086    5.1584   -5.1193 C   0  0  0  0  0  0  0  0  0  0  0  0
   -1.4632    5.0045   -5.3388 C   0  0  0  0  0  0  0  0  0  0  0  0
    2.4064    6.2141   -4.5867 O   0  0  0  0  0  0  0  0  0  0  0  0
    3.1796    0.7315   -2.8008 O   0  0  0  0  0  0  0  0  0  0  0  0
    5.8205    1.9043   -3.6732 C   0  0  0  0  0  0  0  0  0  0  0  0
    6.6751    2.0494   -2.4258 C   0  0  0  0  0  0  0  0  0  0  0  0
    5.1419    4.8426   -4.4935 C   0  0  0  0  0  0  0  0  0  0  0  0
    5.8032    6.1379   -3.5598 S   0  0  0  0  0  0  0  0  0  0  0  0
    6.2749    7.0190   -4.9523 C   0  0  0  0  0  0  0  0  0  0  0  0
    6.0646    6.3009   -6.1057 C   0  0  0  0  0  0  0  0  0  0  0  0
    5.4459    5.0380   -5.8380 C   0  0  0  0  0  0  0  0  0  0  0  0
    0.7521    1.7528   -0.5269 H   0  0  0  0  0  0  0  0  0  0  0  0
    0.8618   -0.6510   -1.3963 H   0  0  0  0  0  0  0  0  0  0  0  0
    0.6309   -3.2494    2.1810 H   0  0  0  0  0  0  0  0  0  0  0  0
    0.2829   -5.6693    1.9322 H   0  0  0  0  0  0  0  0  0  0  0  0
   -0.5307   -2.7408   -1.8828 H   0  0  0  0  0  0  0  0  0  0  0  0
   -0.1703   -7.8463    1.4667 H   0  0  0  0  0  0  0  0  0  0  0  0
   -1.1153  -10.0037    0.8267 H   0  0  0  0  0  0  0  0  0  0  0  0
   -3.4379   -8.0956   -2.2578 H   0  0  0  0  0  0  0  0  0  0  0  0
   -0.8750  -11.5900   -1.0396 H   0  0  0  0  0  0  0  0  0  0  0  0
   -2.0240  -13.2960   -2.3125 H   0  0  0  0  0  0  0  0  0  0  0  0
   -2.3684  -14.8231   -2.5724 H   0  0  0  0  0  0  0  0  0  0  0  0
   -2.2713  -15.5307   -4.1126 H   0  0  0  0  0  0  0  0  0  0  0  0
   -3.5869  -16.4261   -1.5653 H   0  0  0  0  0  0  0  0  0  0  0  0
   -2.2203  -17.1937   -2.3792 H   0  0  0  0  0  0  0  0  0  0  0  0
   -3.8094  -17.4299   -2.9982 H   0  0  0  0  0  0  0  0  0  0  0  0
   -9.6713  -11.5301   -6.8239 H   0  0  0  0  0  0  0  0  0  0  0  0
   -9.1920  -10.0992   -5.8993 H   0  0  0  0  0  0  0  0  0  0  0  0
  -10.8537  -12.4963   -4.9130 H   0  0  0  0  0  0  0  0  0  0  0  0
  -11.3759  -10.7989   -5.0405 H   0  0  0  0  0  0  0  0  0  0  0  0
  -10.1822  -11.3007   -3.8094 H   0  0  0  0  0  0  0  0  0  0  0  0
   -9.7010  -16.1584   -9.2759 H   0  0  0  0  0  0  0  0  0  0  0  0
  -10.5778  -16.9420   -6.9279 H   0  0  0  0  0  0  0  0  0  0  0  0
   -9.5543  -15.4691   -4.9932 H   0  0  0  0  0  0  0  0  0  0  0  0
   -3.8639    2.3436    3.6042 H   0  0  0  0  0  0  0  0  0  0  0  0
   -3.3899    0.9169    2.6862 H   0  0  0  0  0  0  0  0  0  0  0  0
   -5.2062    3.1845    1.5425 H   0  0  0  0  0  0  0  0  0  0  0  0
   -5.8051    1.8147    2.4594 H   0  0  0  0  0  0  0  0  0  0  0  0
   -5.0003    1.5405    0.9175 H   0  0  0  0  0  0  0  0  0  0  0  0
   -0.1624    7.1622   -1.0901 H   0  0  0  0  0  0  0  0  0  0  0  0
    1.1100    5.9861   -1.3564 H   0  0  0  0  0  0  0  0  0  0  0  0
    1.1782    8.3789    0.5004 H   0  0  0  0  0  0  0  0  0  0  0  0
    2.2990    7.9192   -0.7837 H   0  0  0  0  0  0  0  0  0  0  0  0
    2.2940    7.0203    0.7446 H   0  0  0  0  0  0  0  0  0  0  0  0
   -4.6425    9.0725   -0.1175 H   0  0  0  0  0  0  0  0  0  0  0  0
   -3.5435    9.7695    2.1702 H   0  0  0  0  0  0  0  0  0  0  0  0
   -1.6669    8.0501    2.8906 H   0  0  0  0  0  0  0  0  0  0  0  0
   -1.0981    2.4010   -1.6061 H   0  0  0  0  0  0  0  0  0  0  0  0
   -2.2198    0.0533   -1.7556 H   0  0  0  0  0  0  0  0  0  0  0  0
   -2.8567   -0.6404   -6.1896 H   0  0  0  0  0  0  0  0  0  0  0  0
   -3.8234   -2.7921   -6.8880 H   0  0  0  0  0  0  0  0  0  0  0  0
   -2.2678   -2.2915   -2.3108 H   0  0  0  0  0  0  0  0  0  0  0  0
   -4.5963   -4.9823   -7.2707 H   0  0  0  0  0  0  0  0  0  0  0  0
   -5.0332   -7.3442   -7.5188 H   0  0  0  0  0  0  0  0  0  0  0  0
   -2.6560   -8.1713   -4.0281 H   0  0  0  0  0  0  0  0  0  0  0  0
   -5.8598   -9.3386   -7.4228 H   0  0  0  0  0  0  0  0  0  0  0  0
   -5.9701  -11.9024   -7.4481 H   0  0  0  0  0  0  0  0  0  0  0  0
   -1.7181  -14.4834   -5.7697 H   0  0  0  0  0  0  0  0  0  0  0  0
   -2.5802  -13.2449   -6.6389 H   0  0  0  0  0  0  0  0  0  0  0  0
   -2.6207  -16.1544   -7.4281 H   0  0  0  0  0  0  0  0  0  0  0  0
   -1.7398  -14.8533   -8.2946 H   0  0  0  0  0  0  0  0  0  0  0  0
   -3.5256  -14.8471   -8.2125 H   0  0  0  0  0  0  0  0  0  0  0  0
   -8.8001  -15.9995   -0.9538 H   0  0  0  0  0  0  0  0  0  0  0  0
   -9.1028  -14.3499   -1.4241 H   0  0  0  0  0  0  0  0  0  0  0  0
   -7.1694  -15.0640    0.8007 H   0  0  0  0  0  0  0  0  0  0  0  0
   -8.7858  -14.3417    0.9433 H   0  0  0  0  0  0  0  0  0  0  0  0
   -7.4781  -13.4229    0.2152 H   0  0  0  0  0  0  0  0  0  0  0  0
   -6.5824  -20.7410   -1.4188 H   0  0  0  0  0  0  0  0  0  0  0  0
   -4.9693  -19.4394    0.2519 H   0  0  0  0  0  0  0  0  0  0  0  0
   -5.0977  -16.8361   -0.1942 H   0  0  0  0  0  0  0  0  0  0  0  0
    0.5336    4.9621   -6.0659 H   0  0  0  0  0  0  0  0  0  0  0  0
    0.1454    6.2418   -4.9530 H   0  0  0  0  0  0  0  0  0  0  0  0
   -1.8824    4.0872   -4.9433 H   0  0  0  0  0  0  0  0  0  0  0  0
   -1.6308    5.0509   -6.4237 H   0  0  0  0  0  0  0  0  0  0  0  0
   -1.9906    5.8743   -4.9283 H   0  0  0  0  0  0  0  0  0  0  0  0
    6.3599    2.3027   -4.5418 H   0  0  0  0  0  0  0  0  0  0  0  0
    5.6443    0.8417   -3.8683 H   0  0  0  0  0  0  0  0  0  0  0  0
    7.0992    3.0565   -2.3533 H   0  0  0  0  0  0  0  0  0  0  0  0
    7.5100    1.3407   -2.4581 H   0  0  0  0  0  0  0  0  0  0  0  0
    6.0951    1.8594   -1.5184 H   0  0  0  0  0  0  0  0  0  0  0  0
    6.6802    8.0201   -4.8647 H   0  0  0  0  0  0  0  0  0  0  0  0
    6.2970    6.6833   -7.0946 H   0  0  0  0  0  0  0  0  0  0  0  0
    5.1404    4.3587   -6.6246 H   0  0  0  0  0  0  0  0  0  0  0  0
  1  2  2  0  0  0  0
  1  5  1  0  0  0  0
  1 43  1  0  0  0  0
  2  3  1  0  0  0  0
  2123  1  0  0  0  0
  3  4  2  0  0  0  0
  3124  1  0  0  0  0
  4  5  1  0  0  0  0
  4  6  1  0  0  0  0
  6  7  1  0  0  0  0
  6 11  2  0  0  0  0
  7  8  2  0  0  0  0
  7125  1  0  0  0  0
  8  9  1  0  0  0  0
  8126  1  0  0  0  0
  9 10  2  0  0  0  0
  9 14  1  0  0  0  0
 10 11  1  0  0  0  0
 10 12  1  0  0  0  0
 11127  1  0  0  0  0
 12 13  1  0  0  0  0
 12 73  2  0  0  0  0
 13 14  2  0  0  0  0
 13 18  1  0  0  0  0
 14 15  1  0  0  0  0
 15 16  2  0  0  0  0
 15128  1  0  0  0  0
 16 17  1  0  0  0  0
 16129  1  0  0  0  0
 17 18  2  0  0  0  0
 17 19  1  0  0  0  0
 18130  1  0  0  0  0
 19 20  2  0  0  0  0
 19 23  1  0  0  0  0
 20 21  1  0  0  0  0
 20131  1  0  0  0  0
 21 22  2  0  0  0  0
 21132  1  0  0  0  0
 22 23  1  0  0  0  0
 22 24  1  0  0  0  0
 24 25  1  0  0  0  0
 25 26  1  0  0  0  0
 25 32  1  0  0  0  0
 26 27  1  0  0  0  0
 26 34  2  0  0  0  0
 27 28  1  0  0  0  0
 27 29  2  0  0  0  0
 28 24  2  0  0  0  0
 29 30  1  0  0  0  0
 29 38  1  0  0  0  0
 30 31  1  0  0  0  0
 30 36  1  0  0  0  0
 31 28  1  0  0  0  0
 31 35  2  0  0  0  0
 32 33  1  0  0  0  0
 32133  1  0  0  0  0
 32134  1  0  0  0  0
 33135  1  0  0  0  0
 33136  1  0  0  0  0
 33137  1  0  0  0  0
 36 37  1  0  0  0  0
 36138  1  0  0  0  0
 36139  1  0  0  0  0
 37140  1  0  0  0  0
 37141  1  0  0  0  0
 37142  1  0  0  0  0
 38 39  1  0  0  0  0
 39 40  1  0  0  0  0
 40 41  2  0  0  0  0
 40143  1  0  0  0  0
 41 42  1  0  0  0  0
 41144  1  0  0  0  0
 42 38  2  0  0  0  0
 42145  1  0  0  0  0
 43 44  1  0  0  0  0
 44 45  1  0  0  0  0
 44 51  1  0  0  0  0
 45 46  1  0  0  0  0
 45 53  2  0  0  0  0
 46 47  1  0  0  0  0
 46 48  2  0  0  0  0
 47 43  2  0  0  0  0
 48 49  1  0  0  0  0
 48 57  1  0  0  0  0
 49 50  1  0  0  0  0
 49 55  1  0  0  0  0
 50 47  1  0  0  0  0
 50 54  2  0  0  0  0
 51 52  1  0  0  0  0
 51146  1  0  0  0  0
 51147  1  0  0  0  0
 52148  1  0  0  0  0
 52149  1  0  0  0  0
 52150  1  0  0  0  0
 55 56  1  0  0  0  0
 55151  1  0  0  0  0
 55152  1  0  0  0  0
 56153  1  0  0  0  0
 56154  1  0  0  0  0
 56155  1  0  0  0  0
 57 58  1  0  0  0  0
 58 59  1  0  0  0  0
 59 60  2  0  0  0  0
 59156  1  0  0  0  0
 60 61  1  0  0  0  0
 60157  1  0  0  0  0
 61 57  2  0  0  0  0
 61158  1  0  0  0  0
 62 63  2  0  0  0  0
 62 66  1  0  0  0  0
 62104  1  0  0  0  0
 63 64  1  0  0  0  0
 63159  1  0  0  0  0
 64 65  2  0  0  0  0
 64160  1  0  0  0  0
 65 66  1  0  0  0  0
 65 67  1  0  0  0  0
 67 68  1  0  0  0  0
 67 72  2  0  0  0  0
 68 69  2  0  0  0  0
 68161  1  0  0  0  0
 69 70  1  0  0  0  0
 69162  1  0  0  0  0
 70 71  2  0  0  0  0
 70 75  1  0  0  0  0
 71 72  1  0  0  0  0
 71 73  1  0  0  0  0
 72163  1  0  0  0  0
 73 74  1  0  0  0  0
 74 75  2  0  0  0  0
 74 79  1  0  0  0  0
 75 76  1  0  0  0  0
 76 77  2  0  0  0  0
 76164  1  0  0  0  0
 77 78  1  0  0  0  0
 77165  1  0  0  0  0
 78 79  2  0  0  0  0
 78 80  1  0  0  0  0
 79166  1  0  0  0  0
 80 81  2  0  0  0  0
 80 84  1  0  0  0  0
 81 82  1  0  0  0  0
 81167  1  0  0  0  0
 82 83  2  0  0  0  0
 82168  1  0  0  0  0
 83 84  1  0  0  0  0
 83 85  1  0  0  0  0
 85 86  1  0  0  0  0
 86 87  1  0  0  0  0
 86 93  1  0  0  0  0
 87 88  1  0  0  0  0
 87 95  2  0  0  0  0
 88 89  1  0  0  0  0
 88 90  2  0  0  0  0
 89 85  2  0  0  0  0
 90 91  1  0  0  0  0
 90 99  1  0  0  0  0
 91 92  1  0  0  0  0
 91 97  1  0  0  0  0
 92 89  1  0  0  0  0
 92 96  2  0  0  0  0
 93 94  1  0  0  0  0
 93169  1  0  0  0  0
 93170  1  0  0  0  0
 94171  1  0  0  0  0
 94172  1  0  0  0  0
 94173  1  0  0  0  0
 97 98  1  0  0  0  0
 97174  1  0  0  0  0
 97175  1  0  0  0  0
 98176  1  0  0  0  0
 98177  1  0  0  0  0
 98178  1  0  0  0  0
 99100  1  0  0  0  0
100101  1  0  0  0  0
101102  2  0  0  0  0
101179  1  0  0  0  0
102103  1  0  0  0  0
102180  1  0  0  0  0
103 99  2  0  0  0  0
103181  1  0  0  0  0
104105  1  0  0  0  0
105106  1  0  0  0  0
105112  1  0  0  0  0
106107  1  0  0  0  0
106114  2  0  0  0  0
107108  1  0  0  0  0
107109  2  0  0  0  0
108104  2  0  0  0  0
109110  1  0  0  0  0
109118  1  0  0  0  0
110111  1  0  0  0  0
110116  1  0  0  0  0
111108  1  0  0  0  0
111115  2  0  0  0  0
112113  1  0  0  0  0
112182  1  0  0  0  0
112183  1  0  0  0  0
113184  1  0  0  0  0
113185  1  0  0  0  0
113186  1  0  0  0  0
116117  1  0  0  0  0
116187  1  0  0  0  0
116188  1  0  0  0  0
117189  1  0  0  0  0
117190  1  0  0  0  0
117191  1  0  0  0  0
118119  1  0  0  0  0
119120  1  0  0  0  0
120121  2  0  0  0  0
120192  1  0  0  0  0
121122  1  0  0  0  0
121193  1  0  0  0  0
122118  2  0  0  0  0
122194  1  0  0  0  0
M  END
