IDT-FBTR.sdf
 OpenBabel12212109553D

166182  0  0  0  0  0  0  0  0999 V2000
    2.8367   -1.0967   -0.2745 C   0  0  0  0  0  0  0  0  0  0  0  0
    2.9194   -0.4624    1.0002 C   0  0  0  0  0  0  0  0  0  0  0  0
    2.0570    0.6479    1.0999 C   0  0  0  0  0  0  0  0  0  0  0  0
    0.8886    0.7201    0.2949 C   0  0  0  0  0  0  0  0  0  0  0  0
    0.5857   -0.4076   -0.4570 C   0  0  0  0  0  0  0  0  0  0  0  0
    1.5527   -1.2887   -0.8189 C   0  0  0  0  0  0  0  0  0  0  0  0
    3.9296   -2.1843   -0.3909 C   0  0  0  0  0  0  0  0  0  0  0  0
    3.4046   -2.7795    0.8779 C   0  0  0  0  0  0  0  0  0  0  0  0
    3.0720   -1.7623    1.7838 C   0  0  0  0  0  0  0  0  0  0  0  0
    2.4175   -3.7200    1.2527 C   0  0  0  0  0  0  0  0  0  0  0  0
    2.7638   -4.0479    2.5441 C   0  0  0  0  0  0  0  0  0  0  0  0
    3.6924   -2.6112    3.1369 S   0  0  0  0  0  0  0  0  0  0  0  0
   -0.2620    1.7902    0.0944 C   0  0  0  0  0  0  0  0  0  0  0  0
   -1.3795    0.7599   -0.2215 C   0  0  0  0  0  0  0  0  0  0  0  0
   -0.8106   -0.4070   -0.6639 C   0  0  0  0  0  0  0  0  0  0  0  0
   -2.8063    0.6157   -0.2579 C   0  0  0  0  0  0  0  0  0  0  0  0
   -3.1638   -0.7014   -0.6023 C   0  0  0  0  0  0  0  0  0  0  0  0
   -1.8161   -1.5711   -1.2535 S   0  0  0  0  0  0  0  0  0  0  0  0
    2.4151   -5.2312    3.3213 C   0  0  0  0  0  0  0  0  0  0  0  0
   -4.3294   -1.5263   -0.3001 C   0  0  0  0  0  0  0  0  0  0  0  0
   -0.4483    2.6546    1.3252 C   0  0  0  0  0  0  0  0  0  0  0  0
   -0.2621    2.6080   -1.2430 C   0  0  0  0  0  0  0  0  0  0  0  0
    3.7823   -3.1139   -1.5489 C   0  0  0  0  0  0  0  0  0  0  0  0
    5.3714   -1.6367   -0.1149 C   0  0  0  0  0  0  0  0  0  0  0  0
    2.3853   -5.2776    4.7186 C   0  0  0  0  0  0  0  0  0  0  0  0
    2.2080   -6.4822    5.4391 C   0  0  0  0  0  0  0  0  0  0  0  0
    2.0215   -7.7629    4.8597 C   0  0  0  0  0  0  0  0  0  0  0  0
    2.0211   -7.7634    3.4283 C   0  0  0  0  0  0  0  0  0  0  0  0
    2.1946   -6.4762    2.6456 C   0  0  0  0  0  0  0  0  0  0  0  0
   -4.8322   -2.5451   -1.1315 C   0  0  0  0  0  0  0  0  0  0  0  0
   -5.7072   -3.5547   -0.6650 C   0  0  0  0  0  0  0  0  0  0  0  0
   -6.1838   -3.6746    0.6588 C   0  0  0  0  0  0  0  0  0  0  0  0
   -5.6691   -2.6833    1.5576 C   0  0  0  0  0  0  0  0  0  0  0  0
   -4.7368   -1.5885    1.0609 C   0  0  0  0  0  0  0  0  0  0  0  0
    1.9252   -8.8378    2.6170 N   0  0  0  0  0  0  0  0  0  0  0  0
    2.1245   -8.3084    1.0639 S   0  0  0  0  0  0  0  0  0  0  0  0
    2.1775   -6.6839    1.3161 N   0  0  0  0  0  0  0  0  0  0  0  0
   -5.8663   -2.5956    2.8884 N   0  0  0  0  0  0  0  0  0  0  0  0
   -4.9011   -1.3788    3.4585 S   0  0  0  0  0  0  0  0  0  0  0  0
   -4.3191   -0.7698    2.0455 N   0  0  0  0  0  0  0  0  0  0  0  0
    3.7751   -2.5399   -2.8278 C   0  0  0  0  0  0  0  0  0  0  0  0
    3.3466   -3.2815   -3.9136 C   0  0  0  0  0  0  0  0  0  0  0  0
    2.9108   -4.5983   -3.7351 C   0  0  0  0  0  0  0  0  0  0  0  0
    3.0326   -5.2078   -2.4865 C   0  0  0  0  0  0  0  0  0  0  0  0
    3.5180   -4.4832   -1.4162 C   0  0  0  0  0  0  0  0  0  0  0  0
    6.4337   -2.3883    0.4384 C   0  0  0  0  0  0  0  0  0  0  0  0
    7.5982   -1.7585    0.9286 C   0  0  0  0  0  0  0  0  0  0  0  0
    7.7423   -0.3690    0.8750 C   0  0  0  0  0  0  0  0  0  0  0  0
    6.7721    0.3645    0.1943 C   0  0  0  0  0  0  0  0  0  0  0  0
    5.6271   -0.2624   -0.3132 C   0  0  0  0  0  0  0  0  0  0  0  0
    0.3496    3.8250    1.4136 C   0  0  0  0  0  0  0  0  0  0  0  0
    0.3318    4.6576    2.5278 C   0  0  0  0  0  0  0  0  0  0  0  0
   -0.4883    4.3440    3.6087 C   0  0  0  0  0  0  0  0  0  0  0  0
   -1.3310    3.2250    3.5141 C   0  0  0  0  0  0  0  0  0  0  0  0
   -1.2960    2.3736    2.3995 C   0  0  0  0  0  0  0  0  0  0  0  0
    0.7122    2.4580   -2.2460 C   0  0  0  0  0  0  0  0  0  0  0  0
    0.7172    3.2652   -3.3954 C   0  0  0  0  0  0  0  0  0  0  0  0
   -0.2394    4.2678   -3.5775 C   0  0  0  0  0  0  0  0  0  0  0  0
   -1.2717    4.3678   -2.6415 C   0  0  0  0  0  0  0  0  0  0  0  0
   -1.2876    3.5486   -1.5033 C   0  0  0  0  0  0  0  0  0  0  0  0
   -0.3980    5.1716    4.8650 C   0  0  0  0  0  0  0  0  0  0  0  0
   -0.1137    5.2466   -4.7208 C   0  0  0  0  0  0  0  0  0  0  0  0
    8.8988    0.2946    1.5817 C   0  0  0  0  0  0  0  0  0  0  0  0
    2.2774   -5.3276   -4.8807 C   0  0  0  0  0  0  0  0  0  0  0  0
    3.2779   -6.0825   -5.7337 C   0  0  0  0  0  0  0  0  0  0  0  0
   10.1390    0.4182    0.7161 C   0  0  0  0  0  0  0  0  0  0  0  0
   -1.3157    6.3816    4.8764 C   0  0  0  0  0  0  0  0  0  0  0  0
   -0.7865    4.8093   -6.0119 C   0  0  0  0  0  0  0  0  0  0  0  0
    1.9577   -9.0013    5.6528 C   0  0  0  0  0  0  0  0  0  0  0  0
   -7.0679   -4.7623    1.1208 C   0  0  0  0  0  0  0  0  0  0  0  0
    2.3380   -6.3855    6.7709 F   0  0  0  0  0  0  0  0  0  0  0  0
   -6.0729   -4.4733   -1.5777 F   0  0  0  0  0  0  0  0  0  0  0  0
    1.6240  -11.1123    8.9709 C   0  0  0  0  0  0  0  0  0  0  0  0
    2.6037  -11.0575    9.9002 C   0  0  0  0  0  0  0  0  0  0  0  0
    4.2053  -10.6232    9.4639 S   0  0  0  0  0  0  0  0  0  0  0  0
    4.4681   -9.9391   11.0378 C   0  0  0  0  0  0  0  0  0  0  0  0
    3.7478  -10.6723   11.9876 N   0  0  0  0  0  0  0  0  0  0  0  0
    2.6060  -11.3258   11.4105 C   0  0  0  0  0  0  0  0  0  0  0  0
    5.2977   -8.8932   11.0838 C   0  0  0  0  0  0  0  0  0  0  0  0
    4.0001  -10.7564   13.4488 C   0  0  0  0  0  0  0  0  0  0  0  0
    4.8635  -11.9489   13.8844 C   0  0  0  0  0  0  0  0  0  0  0  0
    1.7535  -11.9552   12.0168 O   0  0  0  0  0  0  0  0  0  0  0  0
    6.0276   -8.3475   12.2025 C   0  0  0  0  0  0  0  0  0  0  0  0
    5.7185   -8.1096    9.8512 C   0  0  0  0  0  0  0  0  0  0  0  0
    6.0676   -7.4595    8.8287 N   0  0  0  0  0  0  0  0  0  0  0  0
    6.7647   -7.8382   12.9044 N   0  0  0  0  0  0  0  0  0  0  0  0
   -7.9653   -8.5169    1.7197 C   0  0  0  0  0  0  0  0  0  0  0  0
   -7.1405   -9.2471    2.4901 C   0  0  0  0  0  0  0  0  0  0  0  0
   -6.1281   -8.6113    3.7152 S   0  0  0  0  0  0  0  0  0  0  0  0
   -4.8478   -9.7524    3.2858 C   0  0  0  0  0  0  0  0  0  0  0  0
   -5.4583  -10.9224    2.7547 N   0  0  0  0  0  0  0  0  0  0  0  0
   -6.7906  -10.6965    2.2892 C   0  0  0  0  0  0  0  0  0  0  0  0
   -3.5574   -9.3972    3.5802 C   0  0  0  0  0  0  0  0  0  0  0  0
   -4.9331  -12.2925    2.6730 C   0  0  0  0  0  0  0  0  0  0  0  0
   -4.3143  -12.7696    1.3616 C   0  0  0  0  0  0  0  0  0  0  0  0
   -7.5087  -11.5232    1.7438 O   0  0  0  0  0  0  0  0  0  0  0  0
   -2.4628  -10.3498    3.7176 C   0  0  0  0  0  0  0  0  0  0  0  0
   -3.2698   -8.0017    3.9039 C   0  0  0  0  0  0  0  0  0  0  0  0
   -1.6603  -11.1235    3.9267 N   0  0  0  0  0  0  0  0  0  0  0  0
   -3.1089   -6.8333    4.1221 N   0  0  0  0  0  0  0  0  0  0  0  0
    2.3876  -10.2766    5.3453 C   0  0  0  0  0  0  0  0  0  0  0  0
    2.2602  -11.1868    6.4535 C   0  0  0  0  0  0  0  0  0  0  0  0
    1.7780  -10.5986    7.6150 C   0  0  0  0  0  0  0  0  0  0  0  0
    1.1790   -9.0252    7.1942 S   0  0  0  0  0  0  0  0  0  0  0  0
   -8.0468   -4.7640    2.0961 C   0  0  0  0  0  0  0  0  0  0  0  0
   -8.4850   -6.0916    2.4330 C   0  0  0  0  0  0  0  0  0  0  0  0
   -7.8976   -7.0784    1.6631 C   0  0  0  0  0  0  0  0  0  0  0  0
   -6.9961   -6.3263    0.3974 S   0  0  0  0  0  0  0  0  0  0  0  0
    2.4917    1.5929    1.4282 H   0  0  0  0  0  0  0  0  0  0  0  0
    1.2856   -2.2058   -1.3373 H   0  0  0  0  0  0  0  0  0  0  0  0
    1.6689   -4.1910    0.6233 H   0  0  0  0  0  0  0  0  0  0  0  0
   -3.5171    1.3574    0.0852 H   0  0  0  0  0  0  0  0  0  0  0  0
    2.5748   -4.3758    5.2958 H   0  0  0  0  0  0  0  0  0  0  0  0
   -4.5032   -2.6227   -2.1669 H   0  0  0  0  0  0  0  0  0  0  0  0
    4.0282   -1.4884   -2.9532 H   0  0  0  0  0  0  0  0  0  0  0  0
    3.3040   -2.8039   -4.8860 H   0  0  0  0  0  0  0  0  0  0  0  0
    2.7190   -6.2302   -2.3031 H   0  0  0  0  0  0  0  0  0  0  0  0
    3.5882   -4.9876   -0.4599 H   0  0  0  0  0  0  0  0  0  0  0  0
    6.3812   -3.4633    0.5606 H   0  0  0  0  0  0  0  0  0  0  0  0
    8.3668   -2.3583    1.4108 H   0  0  0  0  0  0  0  0  0  0  0  0
    6.8523    1.4436    0.0899 H   0  0  0  0  0  0  0  0  0  0  0  0
    4.8879    0.3771   -0.7902 H   0  0  0  0  0  0  0  0  0  0  0  0
    1.0079    4.1038    0.5886 H   0  0  0  0  0  0  0  0  0  0  0  0
    0.9723    5.5369    2.5497 H   0  0  0  0  0  0  0  0  0  0  0  0
   -2.0181    2.9806    4.3209 H   0  0  0  0  0  0  0  0  0  0  0  0
   -1.9291    1.4918    2.4006 H   0  0  0  0  0  0  0  0  0  0  0  0
    1.4921    1.7043   -2.1677 H   0  0  0  0  0  0  0  0  0  0  0  0
    1.4924    3.1148   -4.1444 H   0  0  0  0  0  0  0  0  0  0  0  0
   -2.0698    5.0954   -2.7653 H   0  0  0  0  0  0  0  0  0  0  0  0
   -2.1193    3.6709   -0.8109 H   0  0  0  0  0  0  0  0  0  0  0  0
    0.6404    5.5033    4.9988 H   0  0  0  0  0  0  0  0  0  0  0  0
   -0.6253    4.5330    5.7243 H   0  0  0  0  0  0  0  0  0  0  0  0
    0.9502    5.4352   -4.9137 H   0  0  0  0  0  0  0  0  0  0  0  0
   -0.5364    6.2093   -4.4079 H   0  0  0  0  0  0  0  0  0  0  0  0
    9.1415   -0.2772    2.4864 H   0  0  0  0  0  0  0  0  0  0  0  0
    8.5909    1.2890    1.9258 H   0  0  0  0  0  0  0  0  0  0  0  0
    1.7348   -4.6031   -5.4958 H   0  0  0  0  0  0  0  0  0  0  0  0
    1.5286   -6.0234   -4.4859 H   0  0  0  0  0  0  0  0  0  0  0  0
    4.0231   -5.4078   -6.1681 H   0  0  0  0  0  0  0  0  0  0  0  0
    2.7591   -6.5892   -6.5518 H   0  0  0  0  0  0  0  0  0  0  0  0
    3.8061   -6.8397   -5.1439 H   0  0  0  0  0  0  0  0  0  0  0  0
   10.4918   -0.5648    0.3868 H   0  0  0  0  0  0  0  0  0  0  0  0
   10.9474    0.8998    1.2753 H   0  0  0  0  0  0  0  0  0  0  0  0
    9.9332    1.0238   -0.1730 H   0  0  0  0  0  0  0  0  0  0  0  0
   -1.0652    7.0824    4.0735 H   0  0  0  0  0  0  0  0  0  0  0  0
   -1.2248    6.9130    5.8296 H   0  0  0  0  0  0  0  0  0  0  0  0
   -2.3603    6.0785    4.7557 H   0  0  0  0  0  0  0  0  0  0  0  0
   -0.3395    3.8923   -6.4065 H   0  0  0  0  0  0  0  0  0  0  0  0
   -0.6797    5.5907   -6.7736 H   0  0  0  0  0  0  0  0  0  0  0  0
   -1.8559    4.6350   -5.8586 H   0  0  0  0  0  0  0  0  0  0  0  0
    0.6456  -11.4857    9.2370 H   0  0  0  0  0  0  0  0  0  0  0  0
    3.0340  -10.8666   13.9600 H   0  0  0  0  0  0  0  0  0  0  0  0
    4.4623   -9.8356   13.8191 H   0  0  0  0  0  0  0  0  0  0  0  0
    4.4524  -12.8999   13.5275 H   0  0  0  0  0  0  0  0  0  0  0  0
    4.9247  -12.0219   14.9768 H   0  0  0  0  0  0  0  0  0  0  0  0
    5.8907  -11.8394   13.5209 H   0  0  0  0  0  0  0  0  0  0  0  0
   -8.5961   -9.0035    0.9855 H   0  0  0  0  0  0  0  0  0  0  0  0
   -5.7799  -12.9727    2.8632 H   0  0  0  0  0  0  0  0  0  0  0  0
   -4.2158  -12.4593    3.4771 H   0  0  0  0  0  0  0  0  0  0  0  0
   -5.0381  -12.7838    0.5376 H   0  0  0  0  0  0  0  0  0  0  0  0
   -3.9471  -13.8008    1.4568 H   0  0  0  0  0  0  0  0  0  0  0  0
   -3.4480  -12.1549    1.1010 H   0  0  0  0  0  0  0  0  0  0  0  0
    2.7928  -10.5545    4.3725 H   0  0  0  0  0  0  0  0  0  0  0  0
    2.5463  -12.2263    6.3886 H   0  0  0  0  0  0  0  0  0  0  0  0
   -8.3763   -3.8672    2.6204 H   0  0  0  0  0  0  0  0  0  0  0  0
   -9.1683   -6.3051    3.2418 H   0  0  0  0  0  0  0  0  0  0  0  0
  1  2  1  0  0  0  0
  1  7  1  0  0  0  0
  2  3  2  0  0  0  0
  3  4  1  0  0  0  0
  3109  1  0  0  0  0
  4  5  2  0  0  0  0
  4 13  1  0  0  0  0
  5  6  1  0  0  0  0
  6  1  2  0  0  0  0
  6110  1  0  0  0  0
  7  8  1  0  0  0  0
  7 23  1  0  0  0  0
  7 24  1  0  0  0  0
  8  9  2  0  0  0  0
  8 10  1  0  0  0  0
  9  2  1  0  0  0  0
 10 11  2  0  0  0  0
 10111  1  0  0  0  0
 11 12  1  0  0  0  0
 11 19  1  0  0  0  0
 12  9  1  0  0  0  0
 13 14  1  0  0  0  0
 13 21  1  0  0  0  0
 13 22  1  0  0  0  0
 14 15  2  0  0  0  0
 14 16  1  0  0  0  0
 15  5  1  0  0  0  0
 16 17  2  0  0  0  0
 16112  1  0  0  0  0
 17 18  1  0  0  0  0
 17 20  1  0  0  0  0
 18 15  1  0  0  0  0
 19 25  2  0  0  0  0
 20 30  2  0  0  0  0
 21 51  2  0  0  0  0
 22 56  2  0  0  0  0
 23 41  2  0  0  0  0
 24 46  2  0  0  0  0
 25 26  1  0  0  0  0
 25113  1  0  0  0  0
 26 27  2  0  0  0  0
 26 71  1  0  0  0  0
 27 28  1  0  0  0  0
 27 69  1  0  0  0  0
 28 29  1  0  0  0  0
 28 35  2  0  0  0  0
 29 19  1  0  0  0  0
 30 31  1  0  0  0  0
 30114  1  0  0  0  0
 31 32  2  0  0  0  0
 31 72  1  0  0  0  0
 32 33  1  0  0  0  0
 32 70  1  0  0  0  0
 33 34  1  0  0  0  0
 33 38  2  0  0  0  0
 34 20  1  0  0  0  0
 35 36  1  0  0  0  0
 36 37  1  0  0  0  0
 37 29  2  0  0  0  0
 38 39  1  0  0  0  0
 39 40  1  0  0  0  0
 40 34  2  0  0  0  0
 41 42  1  0  0  0  0
 41115  1  0  0  0  0
 42 43  2  0  0  0  0
 42116  1  0  0  0  0
 43 44  1  0  0  0  0
 43 64  1  0  0  0  0
 44 45  2  0  0  0  0
 44117  1  0  0  0  0
 45 23  1  0  0  0  0
 45118  1  0  0  0  0
 46 47  1  0  0  0  0
 46119  1  0  0  0  0
 47 48  2  0  0  0  0
 47120  1  0  0  0  0
 48 49  1  0  0  0  0
 48 63  1  0  0  0  0
 49 50  2  0  0  0  0
 49121  1  0  0  0  0
 50 24  1  0  0  0  0
 50122  1  0  0  0  0
 51 52  1  0  0  0  0
 51123  1  0  0  0  0
 52 53  2  0  0  0  0
 52124  1  0  0  0  0
 53 54  1  0  0  0  0
 53 61  1  0  0  0  0
 54 55  2  0  0  0  0
 54125  1  0  0  0  0
 55 21  1  0  0  0  0
 55126  1  0  0  0  0
 56 57  1  0  0  0  0
 56127  1  0  0  0  0
 57 58  2  0  0  0  0
 57128  1  0  0  0  0
 58 59  1  0  0  0  0
 58 62  1  0  0  0  0
 59 60  2  0  0  0  0
 59129  1  0  0  0  0
 60 22  1  0  0  0  0
 60130  1  0  0  0  0
 61 67  1  0  0  0  0
 61131  1  0  0  0  0
 61132  1  0  0  0  0
 62 68  1  0  0  0  0
 62133  1  0  0  0  0
 62134  1  0  0  0  0
 63 66  1  0  0  0  0
 63135  1  0  0  0  0
 63136  1  0  0  0  0
 64 65  1  0  0  0  0
 64137  1  0  0  0  0
 64138  1  0  0  0  0
 65139  1  0  0  0  0
 65140  1  0  0  0  0
 65141  1  0  0  0  0
 66142  1  0  0  0  0
 66143  1  0  0  0  0
 66144  1  0  0  0  0
 67145  1  0  0  0  0
 67146  1  0  0  0  0
 67147  1  0  0  0  0
 68148  1  0  0  0  0
 68149  1  0  0  0  0
 68150  1  0  0  0  0
 69101  2  0  0  0  0
 70105  2  0  0  0  0
 73 74  2  0  0  0  0
 73151  1  0  0  0  0
 74 75  1  0  0  0  0
 75 76  1  0  0  0  0
 76 77  1  0  0  0  0
 76 79  2  0  0  0  0
 77 78  1  0  0  0  0
 77 80  1  0  0  0  0
 78 74  1  0  0  0  0
 78 82  2  0  0  0  0
 79 83  1  0  0  0  0
 79 84  1  0  0  0  0
 80 81  1  0  0  0  0
 80152  1  0  0  0  0
 80153  1  0  0  0  0
 81154  1  0  0  0  0
 81155  1  0  0  0  0
 81156  1  0  0  0  0
 83 86  3  0  0  0  0
 84 85  3  0  0  0  0
 87 88  2  0  0  0  0
 87157  1  0  0  0  0
 88 89  1  0  0  0  0
 89 90  1  0  0  0  0
 90 91  1  0  0  0  0
 90 93  2  0  0  0  0
 91 92  1  0  0  0  0
 91 94  1  0  0  0  0
 92 88  1  0  0  0  0
 92 96  2  0  0  0  0
 93 97  1  0  0  0  0
 93 98  1  0  0  0  0
 94 95  1  0  0  0  0
 94158  1  0  0  0  0
 94159  1  0  0  0  0
 95160  1  0  0  0  0
 95161  1  0  0  0  0
 95162  1  0  0  0  0
 97 99  3  0  0  0  0
 98100  3  0  0  0  0
101102  1  0  0  0  0
101163  1  0  0  0  0
102103  2  0  0  0  0
102164  1  0  0  0  0
103104  1  0  0  0  0
103 73  1  0  0  0  0
104 69  1  0  0  0  0
105106  1  0  0  0  0
105165  1  0  0  0  0
106107  2  0  0  0  0
106166  1  0  0  0  0
107108  1  0  0  0  0
107 87  1  0  0  0  0
108 70  1  0  0  0  0
M  END
