PJ1-H.sdf
 OpenBabel12212110043D

206231  0  0  0  0  0  0  0  0999 V2000
    2.5959   30.5190  -10.1934 C   0  0  0  0  0  0  0  0  0  0  0  0
    1.6344   29.9629   -9.7079 O   0  0  0  0  0  0  0  0  0  0  0  0
    2.5003   31.7842  -10.8964 C   0  0  0  0  0  0  0  0  0  0  0  0
    1.3022   32.4277  -11.1425 C   0  0  0  0  0  0  0  0  0  0  0  0
    1.3624   33.6655  -11.7569 C   0  0  0  0  0  0  0  0  0  0  0  0
    2.6022   34.2247  -12.1290 C   0  0  0  0  0  0  0  0  0  0  0  0
    3.7995   33.5061  -11.8940 C   0  0  0  0  0  0  0  0  0  0  0  0
    3.7599   32.2726  -11.2557 C   0  0  0  0  0  0  0  0  0  0  0  0
    4.7987   31.2806  -10.8257 C   0  0  0  0  0  0  0  0  0  0  0  0
    6.1401   31.4963  -10.8827 C   0  0  0  0  0  0  0  0  0  0  0  0
    6.7478   32.7310  -11.3051 C   0  0  0  0  0  0  0  0  0  0  0  0
    7.2407   33.7366  -11.6255 N   0  0  0  0  0  0  0  0  0  0  0  0
    7.0877   30.5073  -10.4556 C   0  0  0  0  0  0  0  0  0  0  0  0
    7.8638   29.7151  -10.1205 N   0  0  0  0  0  0  0  0  0  0  0  0
    4.0433   30.1365  -10.2029 C   0  0  0  0  0  0  0  0  0  0  0  0
    4.4400   28.9726   -9.6630 C   0  0  0  0  0  0  0  0  0  0  0  0
    3.6639   28.2064   -8.7251 C   0  0  0  0  0  0  0  0  0  0  0  0
    2.3636   27.0467   -9.1300 S   0  0  0  0  0  0  0  0  0  0  0  0
    2.2941   26.6605   -7.4660 C   0  0  0  0  0  0  0  0  0  0  0  0
    3.5356   26.8860   -6.9426 C   0  0  0  0  0  0  0  0  0  0  0  0
    3.8909   28.1997   -7.3424 C   0  0  0  0  0  0  0  0  0  0  0  0
    4.6356   29.1885   -6.5140 C   0  0  0  0  0  0  0  0  0  0  0  0
    3.8426   30.4801   -6.2454 C   0  0  0  0  0  0  0  0  0  0  0  0
    3.9395   25.3934   -6.1880 S   0  0  0  0  0  0  0  0  0  0  0  0
    2.3441   24.6225   -6.4763 C   0  0  0  0  0  0  0  0  0  0  0  0
    1.5301   25.6832   -6.7707 C   0  0  0  0  0  0  0  0  0  0  0  0
    0.9108   25.9683   -5.4434 N   0  0  0  0  0  0  0  0  0  0  0  0
    1.0593   27.3753   -5.0883 C   0  0  0  0  0  0  0  0  0  0  0  0
    0.3652   28.2688   -4.0966 C   0  0  0  0  0  0  0  0  0  0  0  0
    0.8766   24.6698   -4.7191 C   0  0  0  0  0  0  0  0  0  0  0  0
    1.4510   23.8556   -5.7253 C   0  0  0  0  0  0  0  0  0  0  0  0
    1.8389   22.5009   -5.6174 C   0  0  0  0  0  0  0  0  0  0  0  0
    2.2970   21.7588   -6.6182 N   0  0  0  0  0  0  0  0  0  0  0  0
    2.5679   20.2658   -5.8650 S   0  0  0  0  0  0  0  0  0  0  0  0
    2.1608   20.6443   -4.2654 N   0  0  0  0  0  0  0  0  0  0  0  0
    1.7627   21.9062   -4.3667 C   0  0  0  0  0  0  0  0  0  0  0  0
    1.1817   22.6676   -3.3444 C   0  0  0  0  0  0  0  0  0  0  0  0
    0.5719   23.9286   -3.4501 C   0  0  0  0  0  0  0  0  0  0  0  0
   -0.1107   23.9529   -2.1360 N   0  0  0  0  0  0  0  0  0  0  0  0
   -0.6389   25.1314   -1.4629 C   0  0  0  0  0  0  0  0  0  0  0  0
    0.3640   25.8815   -0.5747 C   0  0  0  0  0  0  0  0  0  0  0  0
    0.1030   22.6595   -1.5312 C   0  0  0  0  0  0  0  0  0  0  0  0
    1.2569   22.2138   -2.0482 C   0  0  0  0  0  0  0  0  0  0  0  0
    2.1056   21.5106   -0.7508 S   0  0  0  0  0  0  0  0  0  0  0  0
    0.6877   21.2505    0.3540 C   0  0  0  0  0  0  0  0  0  0  0  0
   -0.3770   21.7366   -0.4838 C   0  0  0  0  0  0  0  0  0  0  0  0
   -0.9267   20.0145   -1.1699 S   0  0  0  0  0  0  0  0  0  0  0  0
    0.2624   19.0956   -0.0193 C   0  0  0  0  0  0  0  0  0  0  0  0
    0.2390   20.0247    1.0422 C   0  0  0  0  0  0  0  0  0  0  0  0
   -0.4947   19.8421    2.3472 C   0  0  0  0  0  0  0  0  0  0  0  0
    0.3572   19.8888    3.6157 C   0  0  0  0  0  0  0  0  0  0  0  0
    1.4224   18.2900   -0.4362 C   0  0  0  0  0  0  0  0  0  0  0  0
    1.5739   17.0189   -0.8681 C   0  0  0  0  0  0  0  0  0  0  0  0
    2.8461   16.1847   -1.0301 C   0  0  0  0  0  0  0  0  0  0  0  0
    4.1286   16.5806   -1.2650 C   0  0  0  0  0  0  0  0  0  0  0  0
    5.2377   15.7007   -1.5621 C   0  0  0  0  0  0  0  0  0  0  0  0
    6.1236   14.9679   -1.7897 N   0  0  0  0  0  0  0  0  0  0  0  0
    4.5461   17.9385   -1.2344 C   0  0  0  0  0  0  0  0  0  0  0  0
    4.9463   19.0296   -1.1445 N   0  0  0  0  0  0  0  0  0  0  0  0
    2.4395   14.7403   -0.9256 C   0  0  0  0  0  0  0  0  0  0  0  0
    3.1469   13.5332   -0.7399 C   0  0  0  0  0  0  0  0  0  0  0  0
    2.4668   12.3103   -0.4904 C   0  0  0  0  0  0  0  0  0  0  0  0
    1.0597   12.3542   -0.4198 C   0  0  0  0  0  0  0  0  0  0  0  0
    0.3429   13.5411   -0.6354 C   0  0  0  0  0  0  0  0  0  0  0  0
    1.0436   14.7058   -0.8961 C   0  0  0  0  0  0  0  0  0  0  0  0
    0.4475   16.0524   -1.0413 C   0  0  0  0  0  0  0  0  0  0  0  0
   -0.7200   16.2814   -1.2723 O   0  0  0  0  0  0  0  0  0  0  0  0
    2.6630   35.5812  -12.6882 C   0  0  0  0  0  0  0  0  0  0  0  0
    3.5958   36.5714  -12.4365 C   0  0  0  0  0  0  0  0  0  0  0  0
    3.2731   37.8018  -13.0768 C   0  0  0  0  0  0  0  0  0  0  0  0
    2.1450   37.6952  -13.8561 C   0  0  0  0  0  0  0  0  0  0  0  0
    1.4705   36.1297  -13.7966 S   0  0  0  0  0  0  0  0  0  0  0  0
    3.0919    2.8826    0.8230 C   0  0  0  0  0  0  0  0  0  0  0  0
    2.7248    2.0930   -0.0214 O   0  0  0  0  0  0  0  0  0  0  0  0
    3.3922    4.3109    0.5615 C   0  0  0  0  0  0  0  0  0  0  0  0
    3.6682    4.8503   -0.6843 C   0  0  0  0  0  0  0  0  0  0  0  0
    3.8801    6.2305   -0.7975 C   0  0  0  0  0  0  0  0  0  0  0  0
    3.7322    7.1009    0.3023 C   0  0  0  0  0  0  0  0  0  0  0  0
    3.5011    6.5028    1.5749 C   0  0  0  0  0  0  0  0  0  0  0  0
    3.3987    5.0838    1.7222 C   0  0  0  0  0  0  0  0  0  0  0  0
    3.2995    4.0945    2.8777 C   0  0  0  0  0  0  0  0  0  0  0  0
    3.1296    4.5008    4.1666 C   0  0  0  0  0  0  0  0  0  0  0  0
    3.0899    5.8803    4.5866 C   0  0  0  0  0  0  0  0  0  0  0  0
    3.0609    6.9907    4.9461 N   0  0  0  0  0  0  0  0  0  0  0  0
    2.9237    3.5891    5.2298 C   0  0  0  0  0  0  0  0  0  0  0  0
    2.7496    2.8820    6.1313 N   0  0  0  0  0  0  0  0  0  0  0  0
    3.2782    2.6504    2.2923 C   0  0  0  0  0  0  0  0  0  0  0  0
    3.5161    1.3902    2.7863 C   0  0  0  0  0  0  0  0  0  0  0  0
    3.2487    0.0361    2.1737 C   0  0  0  0  0  0  0  0  0  0  0  0
    4.5271   -1.2782    1.8318 S   0  0  0  0  0  0  0  0  0  0  0  0
    3.2724   -2.3894    1.2867 C   0  0  0  0  0  0  0  0  0  0  0  0
    2.2066   -2.0417    2.0605 C   0  0  0  0  0  0  0  0  0  0  0  0
    2.0259   -0.6220    1.9109 C   0  0  0  0  0  0  0  0  0  0  0  0
    0.7035   -0.0785    1.5433 C   0  0  0  0  0  0  0  0  0  0  0  0
    0.1100    0.8855    2.5317 C   0  0  0  0  0  0  0  0  0  0  0  0
    1.6938   -3.5315    2.7893 S   0  0  0  0  0  0  0  0  0  0  0  0
    2.9542   -4.5971    2.0727 C   0  0  0  0  0  0  0  0  0  0  0  0
    3.3312   -3.8138    0.9959 C   0  0  0  0  0  0  0  0  0  0  0  0
    2.5880   -4.4789   -0.0945 N   0  0  0  0  0  0  0  0  0  0  0  0
    2.0196   -3.6810   -1.1638 C   0  0  0  0  0  0  0  0  0  0  0  0
    0.6537   -3.0665   -0.8426 C   0  0  0  0  0  0  0  0  0  0  0  0
    2.6137   -5.9291    0.1489 C   0  0  0  0  0  0  0  0  0  0  0  0
    3.0420   -5.8878    1.4913 C   0  0  0  0  0  0  0  0  0  0  0  0
    4.0274   -6.8120    1.9482 C   0  0  0  0  0  0  0  0  0  0  0  0
    4.8283   -6.6314    2.9903 N   0  0  0  0  0  0  0  0  0  0  0  0
    5.8923   -7.9476    2.8931 S   0  0  0  0  0  0  0  0  0  0  0  0
    5.1798   -8.8209    1.6375 N   0  0  0  0  0  0  0  0  0  0  0  0
    4.2607   -7.9745    1.1905 C   0  0  0  0  0  0  0  0  0  0  0  0
    3.4723   -8.1980    0.0504 C   0  0  0  0  0  0  0  0  0  0  0  0
    2.5281   -7.3057   -0.4781 C   0  0  0  0  0  0  0  0  0  0  0  0
    1.8945   -8.1975   -1.4748 N   0  0  0  0  0  0  0  0  0  0  0  0
    1.2674   -7.9467   -2.7692 C   0  0  0  0  0  0  0  0  0  0  0  0
    0.6887   -6.6011   -3.1541 C   0  0  0  0  0  0  0  0  0  0  0  0
    2.5139   -9.4882   -1.3363 C   0  0  0  0  0  0  0  0  0  0  0  0
    3.6877   -9.3471   -0.6970 C   0  0  0  0  0  0  0  0  0  0  0  0
    4.6313  -10.7147   -1.1114 S   0  0  0  0  0  0  0  0  0  0  0  0
    3.3050  -11.7895   -1.5617 C   0  0  0  0  0  0  0  0  0  0  0  0
    2.1926  -10.8770   -1.5504 C   0  0  0  0  0  0  0  0  0  0  0  0
    0.9028  -11.6417   -0.6860 S   0  0  0  0  0  0  0  0  0  0  0  0
    2.2528  -12.7271    0.1377 C   0  0  0  0  0  0  0  0  0  0  0  0
    2.8940  -13.1127   -1.0539 C   0  0  0  0  0  0  0  0  0  0  0  0
    2.6140  -14.3907   -1.8194 C   0  0  0  0  0  0  0  0  0  0  0  0
    3.7654  -15.3907   -1.9734 C   0  0  0  0  0  0  0  0  0  0  0  0
    2.8362  -12.3352    1.4224 C   0  0  0  0  0  0  0  0  0  0  0  0
    2.0953  -11.8696    2.4384 C   0  0  0  0  0  0  0  0  0  0  0  0
    2.3626  -10.7633    3.3924 C   0  0  0  0  0  0  0  0  0  0  0  0
    3.4412  -10.5395    4.1786 C   0  0  0  0  0  0  0  0  0  0  0  0
    3.4734   -9.5069    5.1625 C   0  0  0  0  0  0  0  0  0  0  0  0
    3.4449   -8.6630    5.9756 N   0  0  0  0  0  0  0  0  0  0  0  0
    4.6336  -11.3294    4.1173 C   0  0  0  0  0  0  0  0  0  0  0  0
    5.6352  -11.9143    4.0819 N   0  0  0  0  0  0  0  0  0  0  0  0
    1.1220   -9.9138    3.3219 C   0  0  0  0  0  0  0  0  0  0  0  0
    0.8347   -8.5959    3.6332 C   0  0  0  0  0  0  0  0  0  0  0  0
   -0.3551   -8.0283    3.1368 C   0  0  0  0  0  0  0  0  0  0  0  0
   -1.2273   -8.7491    2.3040 C   0  0  0  0  0  0  0  0  0  0  0  0
   -0.9819  -10.0829    2.0388 C   0  0  0  0  0  0  0  0  0  0  0  0
    0.1535  -10.6312    2.6031 C   0  0  0  0  0  0  0  0  0  0  0  0
    0.6212  -11.9793    2.3414 C   0  0  0  0  0  0  0  0  0  0  0  0
   -0.0507  -12.9641    2.1278 O   0  0  0  0  0  0  0  0  0  0  0  0
    3.8189    8.5764    0.0299 C   0  0  0  0  0  0  0  0  0  0  0  0
    4.6897    9.2395   -0.8254 C   0  0  0  0  0  0  0  0  0  0  0  0
    4.3475   10.6146   -1.0522 C   0  0  0  0  0  0  0  0  0  0  0  0
    3.2047   11.0109   -0.3781 C   0  0  0  0  0  0  0  0  0  0  0  0
    2.6647    9.7076    0.6408 S   0  0  0  0  0  0  0  0  0  0  0  0
    0.3577   31.9822  -10.8454 H   0  0  0  0  0  0  0  0  0  0  0  0
    0.4306   34.2032  -11.9179 H   0  0  0  0  0  0  0  0  0  0  0  0
    4.7292   33.9566  -12.2218 H   0  0  0  0  0  0  0  0  0  0  0  0
    5.4829   28.6745   -9.6835 H   0  0  0  0  0  0  0  0  0  0  0  0
    5.5676   29.4624   -7.0169 H   0  0  0  0  0  0  0  0  0  0  0  0
    4.8949   28.7497   -5.5461 H   0  0  0  0  0  0  0  0  0  0  0  0
    3.5308   30.9858   -7.1670 H   0  0  0  0  0  0  0  0  0  0  0  0
    4.4631   31.1883   -5.6831 H   0  0  0  0  0  0  0  0  0  0  0  0
    2.9388   30.2956   -5.6521 H   0  0  0  0  0  0  0  0  0  0  0  0
    0.8296   27.8943   -6.0360 H   0  0  0  0  0  0  0  0  0  0  0  0
    2.1311   27.5163   -4.9046 H   0  0  0  0  0  0  0  0  0  0  0  0
   -0.5695   27.8870   -3.7077 H   0  0  0  0  0  0  0  0  0  0  0  0
    0.1722   29.2339   -4.6009 H   0  0  0  0  0  0  0  0  0  0  0  0
    1.0641   28.5314   -3.2942 H   0  0  0  0  0  0  0  0  0  0  0  0
   -1.5016   24.8284   -0.8599 H   0  0  0  0  0  0  0  0  0  0  0  0
   -0.9950   25.8162   -2.2386 H   0  0  0  0  0  0  0  0  0  0  0  0
    0.6589   25.2918    0.3006 H   0  0  0  0  0  0  0  0  0  0  0  0
   -0.0789   26.8141   -0.1983 H   0  0  0  0  0  0  0  0  0  0  0  0
    1.2746   26.1527   -1.1197 H   0  0  0  0  0  0  0  0  0  0  0  0
   -0.9585   18.8419    2.3453 H   0  0  0  0  0  0  0  0  0  0  0  0
   -1.3232   20.5514    2.4364 H   0  0  0  0  0  0  0  0  0  0  0  0
    1.1824   19.1683    3.5876 H   0  0  0  0  0  0  0  0  0  0  0  0
   -0.2559   19.6332    4.4926 H   0  0  0  0  0  0  0  0  0  0  0  0
    0.7726   20.8850    3.7886 H   0  0  0  0  0  0  0  0  0  0  0  0
    2.3474   18.7926   -0.1754 H   0  0  0  0  0  0  0  0  0  0  0  0
    4.2322   13.5032   -0.7419 H   0  0  0  0  0  0  0  0  0  0  0  0
    0.4927   11.4520   -0.2019 H   0  0  0  0  0  0  0  0  0  0  0  0
   -0.7400   13.5623   -0.5626 H   0  0  0  0  0  0  0  0  0  0  0  0
    4.4509   36.4377  -11.7838 H   0  0  0  0  0  0  0  0  0  0  0  0
    3.8428   38.7163  -12.9712 H   0  0  0  0  0  0  0  0  0  0  0  0
    1.6802   38.4612  -14.4604 H   0  0  0  0  0  0  0  0  0  0  0  0
    3.7377    4.2063   -1.5554 H   0  0  0  0  0  0  0  0  0  0  0  0
    4.1296    6.6314   -1.7792 H   0  0  0  0  0  0  0  0  0  0  0  0
    3.4184    7.1843    2.4175 H   0  0  0  0  0  0  0  0  0  0  0  0
    3.8310    1.3134    3.8283 H   0  0  0  0  0  0  0  0  0  0  0  0
    0.0027   -0.9067    1.3879 H   0  0  0  0  0  0  0  0  0  0  0  0
    0.8026    0.4039    0.5610 H   0  0  0  0  0  0  0  0  0  0  0  0
    0.1010    0.4542    3.5354 H   0  0  0  0  0  0  0  0  0  0  0  0
   -0.9138    1.1208    2.2310 H   0  0  0  0  0  0  0  0  0  0  0  0
    0.6675    1.8232    2.5599 H   0  0  0  0  0  0  0  0  0  0  0  0
    1.9877   -4.2827   -2.0650 H   0  0  0  0  0  0  0  0  0  0  0  0
    2.7230   -2.8578   -1.3505 H   0  0  0  0  0  0  0  0  0  0  0  0
    0.1262   -3.5630   -0.0222 H   0  0  0  0  0  0  0  0  0  0  0  0
    0.0099   -3.0789   -1.7268 H   0  0  0  0  0  0  0  0  0  0  0  0
    0.7612   -2.0079   -0.5759 H   0  0  0  0  0  0  0  0  0  0  0  0
    0.4899   -8.7111   -2.9067 H   0  0  0  0  0  0  0  0  0  0  0  0
    2.0491   -8.1771   -3.5107 H   0  0  0  0  0  0  0  0  0  0  0  0
    0.0151   -6.1978   -2.3977 H   0  0  0  0  0  0  0  0  0  0  0  0
    0.1197   -6.7094   -4.0902 H   0  0  0  0  0  0  0  0  0  0  0  0
    1.4829   -5.8839   -3.3719 H   0  0  0  0  0  0  0  0  0  0  0  0
    2.2022  -14.1681   -2.8078 H   0  0  0  0  0  0  0  0  0  0  0  0
    1.8272  -14.9429   -1.2804 H   0  0  0  0  0  0  0  0  0  0  0  0
    4.5775  -14.9944   -2.5888 H   0  0  0  0  0  0  0  0  0  0  0  0
    3.4017  -16.3039   -2.4702 H   0  0  0  0  0  0  0  0  0  0  0  0
    4.1823  -15.7087   -1.0108 H   0  0  0  0  0  0  0  0  0  0  0  0
    3.9219  -12.2358    1.4373 H   0  0  0  0  0  0  0  0  0  0  0  0
    1.4985   -7.9597    4.2077 H   0  0  0  0  0  0  0  0  0  0  0  0
   -0.5901   -6.9912    3.3687 H   0  0  0  0  0  0  0  0  0  0  0  0
   -2.0904   -8.2650    1.8565 H   0  0  0  0  0  0  0  0  0  0  0  0
   -1.5969  -10.6682    1.3626 H   0  0  0  0  0  0  0  0  0  0  0  0
    5.5095    8.7487   -1.3377 H   0  0  0  0  0  0  0  0  0  0  0  0
    4.8816   11.2532   -1.7490 H   0  0  0  0  0  0  0  0  0  0  0  0
  1  2  2  0  0  0  0
  1  3  1  0  0  0  0
  1 15  1  0  0  0  0
  3  4  2  0  0  0  0
  3  8  1  0  0  0  0
  4  5  1  0  0  0  0
  4145  1  0  0  0  0
  5  6  2  0  0  0  0
  5146  1  0  0  0  0
  6  7  1  0  0  0  0
  6 68  1  0  0  0  0
  7  8  2  0  0  0  0
  7147  1  0  0  0  0
  8  9  1  0  0  0  0
  9 10  2  0  0  0  0
  9 15  1  0  0  0  0
 10 11  1  0  0  0  0
 10 13  1  0  0  0  0
 11 12  3  0  0  0  0
 13 14  3  0  0  0  0
 15 16  2  0  0  0  0
 16 17  1  0  0  0  0
 16148  1  0  0  0  0
 17 18  1  0  0  0  0
 17 21  2  0  0  0  0
 18 19  1  0  0  0  0
 19 20  2  0  0  0  0
 19 26  1  0  0  0  0
 20 21  1  0  0  0  0
 20 24  1  0  0  0  0
 21 22  1  0  0  0  0
 22 23  1  0  0  0  0
 22149  1  0  0  0  0
 22150  1  0  0  0  0
 23151  1  0  0  0  0
 23152  1  0  0  0  0
 23153  1  0  0  0  0
 24 25  1  0  0  0  0
 25 26  2  0  0  0  0
 25 31  1  0  0  0  0
 26 27  1  0  0  0  0
 27 28  1  0  0  0  0
 27 30  1  0  0  0  0
 28 29  1  0  0  0  0
 28154  1  0  0  0  0
 28155  1  0  0  0  0
 29156  1  0  0  0  0
 29157  1  0  0  0  0
 29158  1  0  0  0  0
 30 31  2  0  0  0  0
 30 38  1  0  0  0  0
 31 32  1  0  0  0  0
 32 33  2  0  0  0  0
 32 36  1  0  0  0  0
 33 34  1  0  0  0  0
 34 35  1  0  0  0  0
 35 36  2  0  0  0  0
 36 37  1  0  0  0  0
 37 38  2  0  0  0  0
 37 43  1  0  0  0  0
 38 39  1  0  0  0  0
 39 40  1  0  0  0  0
 39 42  1  0  0  0  0
 40 41  1  0  0  0  0
 40159  1  0  0  0  0
 40160  1  0  0  0  0
 41161  1  0  0  0  0
 41162  1  0  0  0  0
 41163  1  0  0  0  0
 42 43  2  0  0  0  0
 42 46  1  0  0  0  0
 43 44  1  0  0  0  0
 44 45  1  0  0  0  0
 45 46  2  0  0  0  0
 45 49  1  0  0  0  0
 46 47  1  0  0  0  0
 47 48  1  0  0  0  0
 48 49  2  0  0  0  0
 48 52  1  0  0  0  0
 49 50  1  0  0  0  0
 50 51  1  0  0  0  0
 50164  1  0  0  0  0
 50165  1  0  0  0  0
 51166  1  0  0  0  0
 51167  1  0  0  0  0
 51168  1  0  0  0  0
 52 53  2  0  0  0  0
 52169  1  0  0  0  0
 53 54  1  0  0  0  0
 53 66  1  0  0  0  0
 54 55  2  0  0  0  0
 54 60  1  0  0  0  0
 55 56  1  0  0  0  0
 55 58  1  0  0  0  0
 56 57  3  0  0  0  0
 58 59  3  0  0  0  0
 60 61  1  0  0  0  0
 60 65  2  0  0  0  0
 61 62  2  0  0  0  0
 61170  1  0  0  0  0
 62 63  1  0  0  0  0
 63 64  2  0  0  0  0
 63171  1  0  0  0  0
 64 65  1  0  0  0  0
 64172  1  0  0  0  0
 65 66  1  0  0  0  0
 66 67  2  0  0  0  0
 68 69  2  0  0  0  0
 69 70  1  0  0  0  0
 69173  1  0  0  0  0
 70 71  2  0  0  0  0
 70174  1  0  0  0  0
 71 72  1  0  0  0  0
 71175  1  0  0  0  0
 72 68  1  0  0  0  0
 73 74  2  0  0  0  0
 73 75  1  0  0  0  0
 73 87  1  0  0  0  0
 75 76  2  0  0  0  0
 75 80  1  0  0  0  0
 76 77  1  0  0  0  0
 76176  1  0  0  0  0
 77 78  2  0  0  0  0
 77177  1  0  0  0  0
 78 79  1  0  0  0  0
 78140  1  0  0  0  0
 79 80  2  0  0  0  0
 79178  1  0  0  0  0
 80 81  1  0  0  0  0
 81 82  2  0  0  0  0
 81 87  1  0  0  0  0
 82 83  1  0  0  0  0
 82 85  1  0  0  0  0
 83 84  3  0  0  0  0
 85 86  3  0  0  0  0
 87 88  2  0  0  0  0
 88 89  1  0  0  0  0
 88179  1  0  0  0  0
 89 90  1  0  0  0  0
 89 93  2  0  0  0  0
 90 91  1  0  0  0  0
 91 92  2  0  0  0  0
 91 98  1  0  0  0  0
 92 93  1  0  0  0  0
 92 96  1  0  0  0  0
 93 94  1  0  0  0  0
 94 95  1  0  0  0  0
 94180  1  0  0  0  0
 94181  1  0  0  0  0
 95182  1  0  0  0  0
 95183  1  0  0  0  0
 95184  1  0  0  0  0
 96 97  1  0  0  0  0
 97 98  2  0  0  0  0
 97103  1  0  0  0  0
 98 99  1  0  0  0  0
 99100  1  0  0  0  0
 99102  1  0  0  0  0
100101  1  0  0  0  0
100185  1  0  0  0  0
100186  1  0  0  0  0
101187  1  0  0  0  0
101188  1  0  0  0  0
101189  1  0  0  0  0
102103  2  0  0  0  0
102110  1  0  0  0  0
103104  1  0  0  0  0
104105  2  0  0  0  0
104108  1  0  0  0  0
105106  1  0  0  0  0
106107  1  0  0  0  0
107108  2  0  0  0  0
108109  1  0  0  0  0
109110  2  0  0  0  0
109115  1  0  0  0  0
110111  1  0  0  0  0
111112  1  0  0  0  0
111114  1  0  0  0  0
112113  1  0  0  0  0
112190  1  0  0  0  0
112191  1  0  0  0  0
113192  1  0  0  0  0
113193  1  0  0  0  0
113194  1  0  0  0  0
114115  2  0  0  0  0
114118  1  0  0  0  0
115116  1  0  0  0  0
116117  1  0  0  0  0
117118  2  0  0  0  0
117121  1  0  0  0  0
118119  1  0  0  0  0
119120  1  0  0  0  0
120121  2  0  0  0  0
120124  1  0  0  0  0
121122  1  0  0  0  0
122123  1  0  0  0  0
122195  1  0  0  0  0
122196  1  0  0  0  0
123197  1  0  0  0  0
123198  1  0  0  0  0
123199  1  0  0  0  0
124125  2  0  0  0  0
124200  1  0  0  0  0
125126  1  0  0  0  0
125138  1  0  0  0  0
126127  2  0  0  0  0
126132  1  0  0  0  0
127128  1  0  0  0  0
127130  1  0  0  0  0
128129  3  0  0  0  0
130131  3  0  0  0  0
132133  1  0  0  0  0
132137  2  0  0  0  0
133134  2  0  0  0  0
133201  1  0  0  0  0
134135  1  0  0  0  0
134202  1  0  0  0  0
135136  2  0  0  0  0
135203  1  0  0  0  0
136137  1  0  0  0  0
136204  1  0  0  0  0
137138  1  0  0  0  0
138139  2  0  0  0  0
140141  2  0  0  0  0
141142  1  0  0  0  0
141205  1  0  0  0  0
142143  2  0  0  0  0
142206  1  0  0  0  0
143144  1  0  0  0  0
143 62  1  0  0  0  0
144140  1  0  0  0  0
M  END
