PY5-PZ.sdf
 OpenBabel12212110073D

260289  0  0  0  0  0  0  0  0999 V2000
   -2.7300    1.8971    1.3608 C   0  0  0  0  0  0  0  0  0  0  0  0
   -3.4555    2.6467    0.7517 O   0  0  0  0  0  0  0  0  0  0  0  0
   -3.2452    0.7185    2.0392 C   0  0  0  0  0  0  0  0  0  0  0  0
   -4.5923    0.4342    2.1593 C   0  0  0  0  0  0  0  0  0  0  0  0
   -4.9635   -0.8519    2.5614 C   0  0  0  0  0  0  0  0  0  0  0  0
   -4.0022   -1.8010    2.9576 C   0  0  0  0  0  0  0  0  0  0  0  0
   -2.6516   -1.3932    2.9629 C   0  0  0  0  0  0  0  0  0  0  0  0
   -2.2500   -0.1830    2.3719 C   0  0  0  0  0  0  0  0  0  0  0  0
   -0.9223    0.3563    1.8624 C   0  0  0  0  0  0  0  0  0  0  0  0
    0.1439   -0.5014    1.8235 C   0  0  0  0  0  0  0  0  0  0  0  0
    0.0913   -1.8837    2.1566 C   0  0  0  0  0  0  0  0  0  0  0  0
    0.0588   -3.0504    2.4083 N   0  0  0  0  0  0  0  0  0  0  0  0
    1.4626   -0.2125    1.3926 C   0  0  0  0  0  0  0  0  0  0  0  0
    2.5845   -0.2049    1.0970 N   0  0  0  0  0  0  0  0  0  0  0  0
   -1.2233    1.8110    1.3442 C   0  0  0  0  0  0  0  0  0  0  0  0
   -0.5532    2.8770    0.8118 C   0  0  0  0  0  0  0  0  0  0  0  0
   -1.0245    4.2687    0.4411 C   0  0  0  0  0  0  0  0  0  0  0  0
   -2.3470    5.2864    1.2935 S   0  0  0  0  0  0  0  0  0  0  0  0
   -2.0894    6.5980    0.1719 C   0  0  0  0  0  0  0  0  0  0  0  0
   -0.7675    6.4889   -0.1344 C   0  0  0  0  0  0  0  0  0  0  0  0
   -0.5285    5.1478   -0.5533 C   0  0  0  0  0  0  0  0  0  0  0  0
    0.0927    4.8974   -1.8771 C   0  0  0  0  0  0  0  0  0  0  0  0
    1.5139    5.3964   -2.0088 C   0  0  0  0  0  0  0  0  0  0  0  0
   -0.0713    7.9685    0.4225 S   0  0  0  0  0  0  0  0  0  0  0  0
   -1.6004    8.7347    0.8980 C   0  0  0  0  0  0  0  0  0  0  0  0
   -2.5298    7.9775    0.2418 C   0  0  0  0  0  0  0  0  0  0  0  0
   -2.8001    8.8210   -0.9671 N   0  0  0  0  0  0  0  0  0  0  0  0
   -2.8207    8.0195   -2.1767 C   0  0  0  0  0  0  0  0  0  0  0  0
   -3.3349    8.2245   -3.5812 C   0  0  0  0  0  0  0  0  0  0  0  0
   -2.6078   10.2361   -0.5547 C   0  0  0  0  0  0  0  0  0  0  0  0
   -2.1837    9.9914    0.7670 C   0  0  0  0  0  0  0  0  0  0  0  0
   -1.8780   10.9205    1.7796 C   0  0  0  0  0  0  0  0  0  0  0  0
   -1.5174   10.6093    3.0168 N   0  0  0  0  0  0  0  0  0  0  0  0
   -1.3675   12.1196    3.7512 S   0  0  0  0  0  0  0  0  0  0  0  0
   -1.7330   13.1362    2.4430 N   0  0  0  0  0  0  0  0  0  0  0  0
   -2.0589   12.2652    1.4929 C   0  0  0  0  0  0  0  0  0  0  0  0
   -2.4866   12.5838    0.1914 C   0  0  0  0  0  0  0  0  0  0  0  0
   -2.6638   11.7066   -0.8942 C   0  0  0  0  0  0  0  0  0  0  0  0
   -2.8436   12.7086   -1.9557 N   0  0  0  0  0  0  0  0  0  0  0  0
   -3.2699   12.4660   -3.3272 C   0  0  0  0  0  0  0  0  0  0  0  0
   -4.7804   12.6254   -3.4993 C   0  0  0  0  0  0  0  0  0  0  0  0
   -3.0001   13.9895   -1.3362 C   0  0  0  0  0  0  0  0  0  0  0  0
   -3.0610   13.8269   -0.0007 C   0  0  0  0  0  0  0  0  0  0  0  0
   -3.7765   15.2432    0.6329 S   0  0  0  0  0  0  0  0  0  0  0  0
   -3.3693   16.3119   -0.7157 C   0  0  0  0  0  0  0  0  0  0  0  0
   -2.7954   15.3817   -1.6500 C   0  0  0  0  0  0  0  0  0  0  0  0
   -1.2153   15.9824   -2.0551 S   0  0  0  0  0  0  0  0  0  0  0  0
   -1.3342   17.1143   -0.5005 C   0  0  0  0  0  0  0  0  0  0  0  0
   -2.6346   17.5844   -0.7537 C   0  0  0  0  0  0  0  0  0  0  0  0
   -2.9659   18.8322   -1.5360 C   0  0  0  0  0  0  0  0  0  0  0  0
   -3.7232   19.9221   -0.7748 C   0  0  0  0  0  0  0  0  0  0  0  0
   -0.7007   16.7497    0.7715 C   0  0  0  0  0  0  0  0  0  0  0  0
    0.5289   16.2206    0.8534 C   0  0  0  0  0  0  0  0  0  0  0  0
    1.1059   15.1403    1.6847 C   0  0  0  0  0  0  0  0  0  0  0  0
    1.0645   14.9747    3.0810 C   0  0  0  0  0  0  0  0  0  0  0  0
    1.8047   13.9773    3.7590 C   0  0  0  0  0  0  0  0  0  0  0  0
    2.4168   13.1642    4.3361 N   0  0  0  0  0  0  0  0  0  0  0  0
    0.2621   15.8214    3.8974 C   0  0  0  0  0  0  0  0  0  0  0  0
   -0.4132   16.4730    4.5801 N   0  0  0  0  0  0  0  0  0  0  0  0
    1.7298   14.2138    0.7439 C   0  0  0  0  0  0  0  0  0  0  0  0
    2.1465   12.9035    0.8071 C   0  0  0  0  0  0  0  0  0  0  0  0
    2.4894   12.2323   -0.3887 C   0  0  0  0  0  0  0  0  0  0  0  0
    2.1931   12.8247   -1.6339 C   0  0  0  0  0  0  0  0  0  0  0  0
    1.8724   14.1616   -1.7139 C   0  0  0  0  0  0  0  0  0  0  0  0
    1.7297   14.8235   -0.5161 C   0  0  0  0  0  0  0  0  0  0  0  0
    1.3366   16.2085   -0.3886 C   0  0  0  0  0  0  0  0  0  0  0  0
    1.6445   17.1276   -1.1145 O   0  0  0  0  0  0  0  0  0  0  0  0
   -4.3707   -3.2229    3.2456 C   0  0  0  0  0  0  0  0  0  0  0  0
   -5.1549   -4.1092    2.5064 C   0  0  0  0  0  0  0  0  0  0  0  0
   -5.3118   -5.3807    3.1901 C   0  0  0  0  0  0  0  0  0  0  0  0
   -4.5959   -5.4873    4.3729 C   0  0  0  0  0  0  0  0  0  0  0  0
   -3.7000   -4.0320    4.6154 S   0  0  0  0  0  0  0  0  0  0  0  0
   -4.8876   -9.1787    8.7239 C   0  0  0  0  0  0  0  0  0  0  0  0
   -6.0014   -9.9233    9.1020 C   0  0  0  0  0  0  0  0  0  0  0  0
   -5.9040  -10.5185   10.4128 C   0  0  0  0  0  0  0  0  0  0  0  0
   -4.6636  -10.2609   10.9598 C   0  0  0  0  0  0  0  0  0  0  0  0
   -3.6786   -9.3050    9.9451 S   0  0  0  0  0  0  0  0  0  0  0  0
   -7.0035  -11.2715   11.1155 C   0  0  0  0  0  0  0  0  0  0  0  0
   -6.9709  -12.7724   10.8729 C   0  0  0  0  0  0  0  0  0  0  0  0
   -5.7572   -3.8415    1.1474 C   0  0  0  0  0  0  0  0  0  0  0  0
   -4.8595   -4.3457    0.0246 C   0  0  0  0  0  0  0  0  0  0  0  0
   -4.5596   -6.5781    5.3878 C   0  0  0  0  0  0  0  0  0  0  0  0
   -3.5485   -6.5554    6.2903 N   0  0  0  0  0  0  0  0  0  0  0  0
   -3.6339   -7.4415    7.3323 C   0  0  0  0  0  0  0  0  0  0  0  0
   -4.6854   -8.3405    7.5133 C   0  0  0  0  0  0  0  0  0  0  0  0
   -5.6627   -8.4147    6.5727 N   0  0  0  0  0  0  0  0  0  0  0  0
   -5.5674   -7.5339    5.5239 C   0  0  0  0  0  0  0  0  0  0  0  0
    4.7444    1.5432   11.2605 C   0  0  0  0  0  0  0  0  0  0  0  0
    4.0470    2.2230   11.9859 O   0  0  0  0  0  0  0  0  0  0  0  0
    4.9620    1.8309    9.8471 C   0  0  0  0  0  0  0  0  0  0  0  0
    4.4247    2.9775    9.3046 C   0  0  0  0  0  0  0  0  0  0  0  0
    4.4086    3.1064    7.9274 C   0  0  0  0  0  0  0  0  0  0  0  0
    4.8963    2.1114    7.0296 C   0  0  0  0  0  0  0  0  0  0  0  0
    5.5055    0.9425    7.6847 C   0  0  0  0  0  0  0  0  0  0  0  0
    5.5543    0.7769    9.1218 C   0  0  0  0  0  0  0  0  0  0  0  0
    6.0269   -0.2152   10.2421 C   0  0  0  0  0  0  0  0  0  0  0  0
    7.0183   -1.1728   10.3566 C   0  0  0  0  0  0  0  0  0  0  0  0
    7.4055   -2.0549    9.3088 C   0  0  0  0  0  0  0  0  0  0  0  0
    7.7158   -2.9557    8.6346 N   0  0  0  0  0  0  0  0  0  0  0  0
    7.6610   -1.4698   11.5971 C   0  0  0  0  0  0  0  0  0  0  0  0
    8.2190   -1.6929   12.5912 N   0  0  0  0  0  0  0  0  0  0  0  0
    5.3235    0.2061   11.5022 C   0  0  0  0  0  0  0  0  0  0  0  0
    4.9221   -0.5261   12.5668 C   0  0  0  0  0  0  0  0  0  0  0  0
    4.4844    0.0434   13.8167 C   0  0  0  0  0  0  0  0  0  0  0  0
    2.9157   -0.3049   14.5776 S   0  0  0  0  0  0  0  0  0  0  0  0
    3.4671    0.5286   15.9519 C   0  0  0  0  0  0  0  0  0  0  0  0
    4.8228    0.6457   15.9672 C   0  0  0  0  0  0  0  0  0  0  0  0
    5.2079    0.9242   14.6325 C   0  0  0  0  0  0  0  0  0  0  0  0
    6.2441    1.8987   14.2107 C   0  0  0  0  0  0  0  0  0  0  0  0
    6.8811    2.7297   15.2988 C   0  0  0  0  0  0  0  0  0  0  0  0
    5.2198    0.5021   17.6297 S   0  0  0  0  0  0  0  0  0  0  0  0
    3.5467    0.3960   18.1989 C   0  0  0  0  0  0  0  0  0  0  0  0
    2.8144    0.8875   17.1550 C   0  0  0  0  0  0  0  0  0  0  0  0
    2.5973    2.2978   17.5732 N   0  0  0  0  0  0  0  0  0  0  0  0
    2.8043    3.2102   16.4613 C   0  0  0  0  0  0  0  0  0  0  0  0
    2.3257    4.5968   16.1094 C   0  0  0  0  0  0  0  0  0  0  0  0
    2.5205    2.2790   19.0560 C   0  0  0  0  0  0  0  0  0  0  0  0
    2.7928    0.9107   19.2371 C   0  0  0  0  0  0  0  0  0  0  0  0
    2.7177    0.1246   20.3966 C   0  0  0  0  0  0  0  0  0  0  0  0
    2.9093   -1.1863   20.4460 N   0  0  0  0  0  0  0  0  0  0  0  0
    2.5020   -1.5538   22.0416 S   0  0  0  0  0  0  0  0  0  0  0  0
    2.2078    0.0049   22.6470 N   0  0  0  0  0  0  0  0  0  0  0  0
    2.2924    0.7548   21.5538 C   0  0  0  0  0  0  0  0  0  0  0  0
    2.0794    2.1467   21.4695 C   0  0  0  0  0  0  0  0  0  0  0  0
    2.2955    2.9905   20.3623 C   0  0  0  0  0  0  0  0  0  0  0  0
    2.1838    4.2946   21.0408 N   0  0  0  0  0  0  0  0  0  0  0  0
    1.9106    5.5754   20.3997 C   0  0  0  0  0  0  0  0  0  0  0  0
    3.0940    6.4212   19.9604 C   0  0  0  0  0  0  0  0  0  0  0  0
    1.6929    4.0468   22.3671 C   0  0  0  0  0  0  0  0  0  0  0  0
    1.3761    2.7424   22.4977 C   0  0  0  0  0  0  0  0  0  0  0  0
    0.3764    2.6080   23.8785 S   0  0  0  0  0  0  0  0  0  0  0  0
    0.9413    4.0703   24.6834 C   0  0  0  0  0  0  0  0  0  0  0  0
    1.7863    4.6435   23.6724 C   0  0  0  0  0  0  0  0  0  0  0  0
    3.3091    5.0179   24.4008 S   0  0  0  0  0  0  0  0  0  0  0  0
    2.8222    3.7855   25.7954 C   0  0  0  0  0  0  0  0  0  0  0  0
    1.5259    4.2942   26.0132 C   0  0  0  0  0  0  0  0  0  0  0  0
    1.1613    5.3719   27.0094 C   0  0  0  0  0  0  0  0  0  0  0  0
    0.1765    4.9826   28.1157 C   0  0  0  0  0  0  0  0  0  0  0  0
    3.2812    2.3931   25.7588 C   0  0  0  0  0  0  0  0  0  0  0  0
    4.5292    2.0484   25.3983 C   0  0  0  0  0  0  0  0  0  0  0  0
    5.0493    0.8830   24.6222 C   0  0  0  0  0  0  0  0  0  0  0  0
    4.8139   -0.4450   24.7758 C   0  0  0  0  0  0  0  0  0  0  0  0
    5.5375   -1.4648   24.0303 C   0  0  0  0  0  0  0  0  0  0  0  0
    6.0656   -2.2703   23.3940 N   0  0  0  0  0  0  0  0  0  0  0  0
    3.8063   -0.9315   25.6619 C   0  0  0  0  0  0  0  0  0  0  0  0
    2.9574   -1.3510   26.3245 N   0  0  0  0  0  0  0  0  0  0  0  0
    5.9547    1.5071   23.5982 C   0  0  0  0  0  0  0  0  0  0  0  0
    6.4419    1.1016   22.3671 C   0  0  0  0  0  0  0  0  0  0  0  0
    7.0148    2.0643   21.5129 C   0  0  0  0  0  0  0  0  0  0  0  0
    7.0678    3.4247   21.8653 C   0  0  0  0  0  0  0  0  0  0  0  0
    6.6350    3.8321   23.1152 C   0  0  0  0  0  0  0  0  0  0  0  0
    6.1399    2.8514   23.9547 C   0  0  0  0  0  0  0  0  0  0  0  0
    5.5437    3.1102   25.2554 C   0  0  0  0  0  0  0  0  0  0  0  0
    5.8552    3.9688   26.0520 O   0  0  0  0  0  0  0  0  0  0  0  0
    4.6869    2.4214    5.4919 C   0  0  0  0  0  0  0  0  0  0  0  0
    4.7739    1.7864    4.2302 C   0  0  0  0  0  0  0  0  0  0  0  0
    4.5234    2.7140    3.1126 C   0  0  0  0  0  0  0  0  0  0  0  0
    4.2368    4.0028    3.4539 C   0  0  0  0  0  0  0  0  0  0  0  0
    4.1033    4.0978    5.1334 S   0  0  0  0  0  0  0  0  0  0  0  0
    3.9202    8.6607    0.2764 C   0  0  0  0  0  0  0  0  0  0  0  0
    4.4264    9.0516   -0.9488 C   0  0  0  0  0  0  0  0  0  0  0  0
    4.1279   10.4282   -1.2715 C   0  0  0  0  0  0  0  0  0  0  0  0
    3.2049   10.9507   -0.3701 C   0  0  0  0  0  0  0  0  0  0  0  0
    3.0789    9.9560    1.0027 S   0  0  0  0  0  0  0  0  0  0  0  0
    4.7704   11.1701   -2.4191 C   0  0  0  0  0  0  0  0  0  0  0  0
    6.2730   11.2955   -2.2257 C   0  0  0  0  0  0  0  0  0  0  0  0
    5.1527    0.4176    3.7252 C   0  0  0  0  0  0  0  0  0  0  0  0
    4.8976   -0.8211    4.5271 C   0  0  0  0  0  0  0  0  0  0  0  0
    4.0875    5.1729    2.5775 C   0  0  0  0  0  0  0  0  0  0  0  0
    4.9904    5.2688    1.5587 N   0  0  0  0  0  0  0  0  0  0  0  0
    4.9372    6.4093    0.8084 C   0  0  0  0  0  0  0  0  0  0  0  0
    4.0015    7.4066    1.0279 C   0  0  0  0  0  0  0  0  0  0  0  0
    3.0755    7.2706    2.0100 N   0  0  0  0  0  0  0  0  0  0  0  0
    3.1363    6.1593    2.7730 C   0  0  0  0  0  0  0  0  0  0  0  0
   -5.3247    1.1739    1.8478 H   0  0  0  0  0  0  0  0  0  0  0  0
   -6.0190   -1.1063    2.5247 H   0  0  0  0  0  0  0  0  0  0  0  0
   -1.9467   -2.0996    3.3825 H   0  0  0  0  0  0  0  0  0  0  0  0
    0.5084    2.7421    0.5960 H   0  0  0  0  0  0  0  0  0  0  0  0
   -0.5187    5.4102   -2.6390 H   0  0  0  0  0  0  0  0  0  0  0  0
    0.0284    3.8341   -2.1238 H   0  0  0  0  0  0  0  0  0  0  0  0
    1.5451    6.4907   -2.0689 H   0  0  0  0  0  0  0  0  0  0  0  0
    1.9556    5.0064   -2.9302 H   0  0  0  0  0  0  0  0  0  0  0  0
    2.1226    5.0810   -1.1584 H   0  0  0  0  0  0  0  0  0  0  0  0
   -3.3947    7.1300   -1.8657 H   0  0  0  0  0  0  0  0  0  0  0  0
   -1.7810    7.6928   -2.3005 H   0  0  0  0  0  0  0  0  0  0  0  0
   -4.1423    8.9402   -3.6890 H   0  0  0  0  0  0  0  0  0  0  0  0
   -3.7048    7.2413   -3.9312 H   0  0  0  0  0  0  0  0  0  0  0  0
   -2.5040    8.4445   -4.2597 H   0  0  0  0  0  0  0  0  0  0  0  0
   -2.9626   11.4542   -3.6047 H   0  0  0  0  0  0  0  0  0  0  0  0
   -2.7441   13.1725   -3.9821 H   0  0  0  0  0  0  0  0  0  0  0  0
   -5.3251   11.9721   -2.8098 H   0  0  0  0  0  0  0  0  0  0  0  0
   -5.0886   12.3762   -4.5203 H   0  0  0  0  0  0  0  0  0  0  0  0
   -5.1031   13.6548   -3.3021 H   0  0  0  0  0  0  0  0  0  0  0  0
   -3.5118   18.5844   -2.4507 H   0  0  0  0  0  0  0  0  0  0  0  0
   -2.0214   19.2984   -1.8573 H   0  0  0  0  0  0  0  0  0  0  0  0
   -4.7175   19.5898   -0.4640 H   0  0  0  0  0  0  0  0  0  0  0  0
   -3.8577   20.8027   -1.4196 H   0  0  0  0  0  0  0  0  0  0  0  0
   -3.1806   20.2636    0.1145 H   0  0  0  0  0  0  0  0  0  0  0  0
   -1.3523   16.7501    1.6433 H   0  0  0  0  0  0  0  0  0  0  0  0
    2.2100   12.3863    1.7561 H   0  0  0  0  0  0  0  0  0  0  0  0
    2.2706   12.2560   -2.5575 H   0  0  0  0  0  0  0  0  0  0  0  0
    1.6976   14.6598   -2.6610 H   0  0  0  0  0  0  0  0  0  0  0  0
   -5.9318   -6.1795    2.7969 H   0  0  0  0  0  0  0  0  0  0  0  0
   -6.8861   -9.9965    8.4794 H   0  0  0  0  0  0  0  0  0  0  0  0
   -4.2937  -10.5768   11.9275 H   0  0  0  0  0  0  0  0  0  0  0  0
   -7.9761  -10.8761   10.7990 H   0  0  0  0  0  0  0  0  0  0  0  0
   -6.9365  -11.0891   12.1966 H   0  0  0  0  0  0  0  0  0  0  0  0
   -7.0699  -13.0053    9.8081 H   0  0  0  0  0  0  0  0  0  0  0  0
   -7.7978  -13.2582   11.4035 H   0  0  0  0  0  0  0  0  0  0  0  0
   -6.0365  -13.2155   11.2333 H   0  0  0  0  0  0  0  0  0  0  0  0
   -5.9336   -2.7741    0.9950 H   0  0  0  0  0  0  0  0  0  0  0  0
   -6.7412   -4.3205    1.0732 H   0  0  0  0  0  0  0  0  0  0  0  0
   -3.8323   -3.9834    0.1418 H   0  0  0  0  0  0  0  0  0  0  0  0
   -5.2314   -4.0044   -0.9469 H   0  0  0  0  0  0  0  0  0  0  0  0
   -4.8301   -5.4403    0.0102 H   0  0  0  0  0  0  0  0  0  0  0  0
   -2.8182   -7.3594    8.0428 H   0  0  0  0  0  0  0  0  0  0  0  0
   -6.3813   -7.6086    4.8111 H   0  0  0  0  0  0  0  0  0  0  0  0
    3.9486    3.7224    9.9390 H   0  0  0  0  0  0  0  0  0  0  0  0
    3.9291    4.0252    7.5974 H   0  0  0  0  0  0  0  0  0  0  0  0
    5.9001    0.1504    7.0648 H   0  0  0  0  0  0  0  0  0  0  0  0
    5.1172   -1.5971   12.6023 H   0  0  0  0  0  0  0  0  0  0  0  0
    5.7375    2.6284   13.5658 H   0  0  0  0  0  0  0  0  0  0  0  0
    7.0072    1.4145   13.5971 H   0  0  0  0  0  0  0  0  0  0  0  0
    6.1299    3.2466   15.9046 H   0  0  0  0  0  0  0  0  0  0  0  0
    7.5138    3.4967   14.8423 H   0  0  0  0  0  0  0  0  0  0  0  0
    7.4962    2.1078   15.9507 H   0  0  0  0  0  0  0  0  0  0  0  0
    2.3644    2.6535   15.6154 H   0  0  0  0  0  0  0  0  0  0  0  0
    3.8866    3.2099   16.2933 H   0  0  0  0  0  0  0  0  0  0  0  0
    1.3346    4.8454   16.4747 H   0  0  0  0  0  0  0  0  0  0  0  0
    2.2848    4.6415   15.0019 H   0  0  0  0  0  0  0  0  0  0  0  0
    3.0701    5.3487   16.3796 H   0  0  0  0  0  0  0  0  0  0  0  0
    1.3103    6.1728   21.1007 H   0  0  0  0  0  0  0  0  0  0  0  0
    1.2661    5.3630   19.5410 H   0  0  0  0  0  0  0  0  0  0  0  0
    3.7153    6.7313   20.8065 H   0  0  0  0  0  0  0  0  0  0  0  0
    2.7249    7.3375   19.4779 H   0  0  0  0  0  0  0  0  0  0  0  0
    3.7209    5.8962   19.2360 H   0  0  0  0  0  0  0  0  0  0  0  0
    0.7844    6.2608   26.4951 H   0  0  0  0  0  0  0  0  0  0  0  0
    2.0806    5.6819   27.5291 H   0  0  0  0  0  0  0  0  0  0  0  0
   -0.8131    4.7360   27.7208 H   0  0  0  0  0  0  0  0  0  0  0  0
    0.0474    5.8254   28.8113 H   0  0  0  0  0  0  0  0  0  0  0  0
    0.5303    4.1351   28.7141 H   0  0  0  0  0  0  0  0  0  0  0  0
    2.5016    1.6389   25.8492 H   0  0  0  0  0  0  0  0  0  0  0  0
    6.3609    0.0808   21.9995 H   0  0  0  0  0  0  0  0  0  0  0  0
    7.3914    1.7600   20.5370 H   0  0  0  0  0  0  0  0  0  0  0  0
    7.4332    4.1625   21.1566 H   0  0  0  0  0  0  0  0  0  0  0  0
    6.6096    4.8775   23.4109 H   0  0  0  0  0  0  0  0  0  0  0  0
    4.6090    2.4222    2.0679 H   0  0  0  0  0  0  0  0  0  0  0  0
    5.0266    8.4141   -1.5862 H   0  0  0  0  0  0  0  0  0  0  0  0
    4.4057   12.1963   -2.4967 H   0  0  0  0  0  0  0  0  0  0  0  0
    4.5322   10.6807   -3.3697 H   0  0  0  0  0  0  0  0  0  0  0  0
    6.5020   11.7020   -1.2337 H   0  0  0  0  0  0  0  0  0  0  0  0
    6.6982   11.9706   -2.9745 H   0  0  0  0  0  0  0  0  0  0  0  0
    6.7623   10.3224   -2.3174 H   0  0  0  0  0  0  0  0  0  0  0  0
    6.1969    0.4563    3.3932 H   0  0  0  0  0  0  0  0  0  0  0  0
    4.5749    0.2634    2.8002 H   0  0  0  0  0  0  0  0  0  0  0  0
    5.4999   -0.8501    5.4265 H   0  0  0  0  0  0  0  0  0  0  0  0
    5.1970   -1.6869    3.9230 H   0  0  0  0  0  0  0  0  0  0  0  0
    3.8402   -0.9374    4.7759 H   0  0  0  0  0  0  0  0  0  0  0  0
    5.6994    6.4985    0.0411 H   0  0  0  0  0  0  0  0  0  0  0  0
    2.3839    6.1102    3.5503 H   0  0  0  0  0  0  0  0  0  0  0  0
  1  2  2  0  0  0  0
  1  3  1  0  0  0  0
  1 15  1  0  0  0  0
  3  4  2  0  0  0  0
  3  8  1  0  0  0  0
  4  5  1  0  0  0  0
  4175  1  0  0  0  0
  5  6  2  0  0  0  0
  5176  1  0  0  0  0
  6  7  1  0  0  0  0
  6 68  1  0  0  0  0
  7  8  2  0  0  0  0
  7177  1  0  0  0  0
  8  9  1  0  0  0  0
  9 10  2  0  0  0  0
  9 15  1  0  0  0  0
 10 11  1  0  0  0  0
 10 13  1  0  0  0  0
 11 12  3  0  0  0  0
 13 14  3  0  0  0  0
 15 16  2  0  0  0  0
 16 17  1  0  0  0  0
 16178  1  0  0  0  0
 17 18  1  0  0  0  0
 17 21  2  0  0  0  0
 18 19  1  0  0  0  0
 19 20  2  0  0  0  0
 19 26  1  0  0  0  0
 20 21  1  0  0  0  0
 20 24  1  0  0  0  0
 21 22  1  0  0  0  0
 22 23  1  0  0  0  0
 22179  1  0  0  0  0
 22180  1  0  0  0  0
 23181  1  0  0  0  0
 23182  1  0  0  0  0
 23183  1  0  0  0  0
 24 25  1  0  0  0  0
 25 26  2  0  0  0  0
 25 31  1  0  0  0  0
 26 27  1  0  0  0  0
 27 28  1  0  0  0  0
 27 30  1  0  0  0  0
 28 29  1  0  0  0  0
 28184  1  0  0  0  0
 28185  1  0  0  0  0
 29186  1  0  0  0  0
 29187  1  0  0  0  0
 29188  1  0  0  0  0
 30 31  2  0  0  0  0
 30 38  1  0  0  0  0
 31 32  1  0  0  0  0
 32 33  2  0  0  0  0
 32 36  1  0  0  0  0
 33 34  1  0  0  0  0
 34 35  1  0  0  0  0
 35 36  2  0  0  0  0
 36 37  1  0  0  0  0
 37 38  2  0  0  0  0
 37 43  1  0  0  0  0
 38 39  1  0  0  0  0
 39 40  1  0  0  0  0
 39 42  1  0  0  0  0
 40 41  1  0  0  0  0
 40189  1  0  0  0  0
 40190  1  0  0  0  0
 41191  1  0  0  0  0
 41192  1  0  0  0  0
 41193  1  0  0  0  0
 42 43  2  0  0  0  0
 42 46  1  0  0  0  0
 43 44  1  0  0  0  0
 44 45  1  0  0  0  0
 45 46  2  0  0  0  0
 45 49  1  0  0  0  0
 46 47  1  0  0  0  0
 47 48  1  0  0  0  0
 48 49  2  0  0  0  0
 48 52  1  0  0  0  0
 49 50  1  0  0  0  0
 50 51  1  0  0  0  0
 50194  1  0  0  0  0
 50195  1  0  0  0  0
 51196  1  0  0  0  0
 51197  1  0  0  0  0
 51198  1  0  0  0  0
 52 53  2  0  0  0  0
 52199  1  0  0  0  0
 53 54  1  0  0  0  0
 53 66  1  0  0  0  0
 54 55  2  0  0  0  0
 54 60  1  0  0  0  0
 55 56  1  0  0  0  0
 55 58  1  0  0  0  0
 56 57  3  0  0  0  0
 58 59  3  0  0  0  0
 60 61  1  0  0  0  0
 60 65  2  0  0  0  0
 61 62  2  0  0  0  0
 61200  1  0  0  0  0
 62 63  1  0  0  0  0
 62163  1  0  0  0  0
 63 64  2  0  0  0  0
 63201  1  0  0  0  0
 64 65  1  0  0  0  0
 64202  1  0  0  0  0
 65 66  1  0  0  0  0
 66 67  2  0  0  0  0
 68 69  2  0  0  0  0
 69 70  1  0  0  0  0
 69 80  1  0  0  0  0
 70 71  2  0  0  0  0
 70203  1  0  0  0  0
 71 72  1  0  0  0  0
 71 82  1  0  0  0  0
 72 68  1  0  0  0  0
 73 74  2  0  0  0  0
 74 75  1  0  0  0  0
 74204  1  0  0  0  0
 75 76  2  0  0  0  0
 75 78  1  0  0  0  0
 76 77  1  0  0  0  0
 76205  1  0  0  0  0
 77 73  1  0  0  0  0
 78 79  1  0  0  0  0
 78206  1  0  0  0  0
 78207  1  0  0  0  0
 79208  1  0  0  0  0
 79209  1  0  0  0  0
 79210  1  0  0  0  0
 80 81  1  0  0  0  0
 80211  1  0  0  0  0
 80212  1  0  0  0  0
 81213  1  0  0  0  0
 81214  1  0  0  0  0
 81215  1  0  0  0  0
 82 83  2  0  0  0  0
 83 84  1  0  0  0  0
 84 85  2  0  0  0  0
 84216  1  0  0  0  0
 85 86  1  0  0  0  0
 85 73  1  0  0  0  0
 86 87  2  0  0  0  0
 87 82  1  0  0  0  0
 87217  1  0  0  0  0
 88 89  2  0  0  0  0
 88 90  1  0  0  0  0
 88102  1  0  0  0  0
 90 91  2  0  0  0  0
 90 95  1  0  0  0  0
 91 92  1  0  0  0  0
 91218  1  0  0  0  0
 92 93  2  0  0  0  0
 92219  1  0  0  0  0
 93 94  1  0  0  0  0
 93155  1  0  0  0  0
 94 95  2  0  0  0  0
 94220  1  0  0  0  0
 95 96  1  0  0  0  0
 96 97  2  0  0  0  0
 96102  1  0  0  0  0
 97 98  1  0  0  0  0
 97100  1  0  0  0  0
 98 99  3  0  0  0  0
100101  3  0  0  0  0
102103  2  0  0  0  0
103104  1  0  0  0  0
103221  1  0  0  0  0
104105  1  0  0  0  0
104108  2  0  0  0  0
105106  1  0  0  0  0
106107  2  0  0  0  0
106113  1  0  0  0  0
107108  1  0  0  0  0
107111  1  0  0  0  0
108109  1  0  0  0  0
109110  1  0  0  0  0
109222  1  0  0  0  0
109223  1  0  0  0  0
110224  1  0  0  0  0
110225  1  0  0  0  0
110226  1  0  0  0  0
111112  1  0  0  0  0
112113  2  0  0  0  0
112118  1  0  0  0  0
113114  1  0  0  0  0
114115  1  0  0  0  0
114117  1  0  0  0  0
115116  1  0  0  0  0
115227  1  0  0  0  0
115228  1  0  0  0  0
116229  1  0  0  0  0
116230  1  0  0  0  0
116231  1  0  0  0  0
117118  2  0  0  0  0
117125  1  0  0  0  0
118119  1  0  0  0  0
119120  2  0  0  0  0
119123  1  0  0  0  0
120121  1  0  0  0  0
121122  1  0  0  0  0
122123  2  0  0  0  0
123124  1  0  0  0  0
124125  2  0  0  0  0
124130  1  0  0  0  0
125126  1  0  0  0  0
126127  1  0  0  0  0
126129  1  0  0  0  0
127128  1  0  0  0  0
127232  1  0  0  0  0
127233  1  0  0  0  0
128234  1  0  0  0  0
128235  1  0  0  0  0
128236  1  0  0  0  0
129130  2  0  0  0  0
129133  1  0  0  0  0
130131  1  0  0  0  0
131132  1  0  0  0  0
132133  2  0  0  0  0
132136  1  0  0  0  0
133134  1  0  0  0  0
134135  1  0  0  0  0
135136  2  0  0  0  0
135139  1  0  0  0  0
136137  1  0  0  0  0
137138  1  0  0  0  0
137237  1  0  0  0  0
137238  1  0  0  0  0
138239  1  0  0  0  0
138240  1  0  0  0  0
138241  1  0  0  0  0
139140  2  0  0  0  0
139242  1  0  0  0  0
140141  1  0  0  0  0
140153  1  0  0  0  0
141142  2  0  0  0  0
141147  1  0  0  0  0
142143  1  0  0  0  0
142145  1  0  0  0  0
143144  3  0  0  0  0
145146  3  0  0  0  0
147148  1  0  0  0  0
147152  2  0  0  0  0
148149  2  0  0  0  0
148243  1  0  0  0  0
149150  1  0  0  0  0
149244  1  0  0  0  0
150151  2  0  0  0  0
150245  1  0  0  0  0
151152  1  0  0  0  0
151246  1  0  0  0  0
152153  1  0  0  0  0
153154  2  0  0  0  0
155156  2  0  0  0  0
156157  1  0  0  0  0
156167  1  0  0  0  0
157158  2  0  0  0  0
157247  1  0  0  0  0
158159  1  0  0  0  0
158169  1  0  0  0  0
159155  1  0  0  0  0
160161  2  0  0  0  0
161162  1  0  0  0  0
161248  1  0  0  0  0
162163  2  0  0  0  0
162165  1  0  0  0  0
163164  1  0  0  0  0
164160  1  0  0  0  0
165166  1  0  0  0  0
165249  1  0  0  0  0
165250  1  0  0  0  0
166251  1  0  0  0  0
166252  1  0  0  0  0
166253  1  0  0  0  0
167168  1  0  0  0  0
167254  1  0  0  0  0
167255  1  0  0  0  0
168256  1  0  0  0  0
168257  1  0  0  0  0
168258  1  0  0  0  0
169170  2  0  0  0  0
170171  1  0  0  0  0
171172  2  0  0  0  0
171259  1  0  0  0  0
172173  1  0  0  0  0
172160  1  0  0  0  0
173174  2  0  0  0  0
174169  1  0  0  0  0
174260  1  0  0  0  0
M  END
