PYTT-1_dimer.sdf
 OpenBabel12212110073D

194219  0  0  0  0  0  0  0  0999 V2000
   12.1019   -4.4259   13.9531 C   0  0  0  0  0  0  0  0  0  0  0  0
   12.5371   -4.3698   12.8211 O   0  0  0  0  0  0  0  0  0  0  0  0
   12.1244   -3.4020   14.9704 C   0  0  0  0  0  0  0  0  0  0  0  0
   11.7160   -3.7527   16.2237 C   0  0  0  0  0  0  0  0  0  0  0  0
   11.2988   -5.1556   16.2735 C   0  0  0  0  0  0  0  0  0  0  0  0
   10.9091   -5.7556   17.4777 C   0  0  0  0  0  0  0  0  0  0  0  0
   10.8288   -5.0962   18.8449 C   0  0  0  0  0  0  0  0  0  0  0  0
   10.7622   -4.5492   19.9791 N   0  0  0  0  0  0  0  0  0  0  0  0
   10.5646   -7.1469   17.4198 C   0  0  0  0  0  0  0  0  0  0  0  0
   10.3000   -8.2677   17.3340 N   0  0  0  0  0  0  0  0  0  0  0  0
   11.4985   -5.6559   14.6505 C   0  0  0  0  0  0  0  0  0  0  0  0
   11.3287   -6.7839   13.8654 C   0  0  0  0  0  0  0  0  0  0  0  0
   11.6246   -7.1624   12.3602 C   0  0  0  0  0  0  0  0  0  0  0  0
   10.9963   -6.3348   10.7341 S   0  0  0  0  0  0  0  0  0  0  0  0
   11.5649   -7.6440    9.6541 C   0  0  0  0  0  0  0  0  0  0  0  0
   11.8551   -8.6800   10.5426 C   0  0  0  0  0  0  0  0  0  0  0  0
   12.2053   -8.3707   11.9020 C   0  0  0  0  0  0  0  0  0  0  0  0
   12.9051   -9.4744   12.6579 C   0  0  0  0  0  0  0  0  0  0  0  0
   12.0249  -10.6136   13.1640 C   0  0  0  0  0  0  0  0  0  0  0  0
   11.4917  -10.1545    9.7470 S   0  0  0  0  0  0  0  0  0  0  0  0
   10.6564   -9.4687    8.4458 C   0  0  0  0  0  0  0  0  0  0  0  0
   10.9788   -8.1489    8.3365 C   0  0  0  0  0  0  0  0  0  0  0  0
   11.1284   -7.9865    6.8607 N   0  0  0  0  0  0  0  0  0  0  0  0
   11.4466   -6.7774    6.1055 C   0  0  0  0  0  0  0  0  0  0  0  0
   10.7736   -9.3046    6.2359 C   0  0  0  0  0  0  0  0  0  0  0  0
   10.0208   -9.8258    7.2749 C   0  0  0  0  0  0  0  0  0  0  0  0
    9.4878  -11.1173    7.3185 C   0  0  0  0  0  0  0  0  0  0  0  0
    8.5248  -11.4429    8.1667 N   0  0  0  0  0  0  0  0  0  0  0  0
    8.0949  -12.9927    7.6576 S   0  0  0  0  0  0  0  0  0  0  0  0
    9.2150  -13.2234    6.4090 N   0  0  0  0  0  0  0  0  0  0  0  0
    9.8294  -12.0551    6.3485 C   0  0  0  0  0  0  0  0  0  0  0  0
   10.6444  -11.6147    5.2694 C   0  0  0  0  0  0  0  0  0  0  0  0
   10.8256  -10.2108    5.0762 C   0  0  0  0  0  0  0  0  0  0  0  0
   10.9739  -10.2417    3.6501 N   0  0  0  0  0  0  0  0  0  0  0  0
   12.4007  -10.5898    3.1359 C   0  0  0  0  0  0  0  0  0  0  0  0
   13.5465   -9.6073    2.8737 C   0  0  0  0  0  0  0  0  0  0  0  0
   10.0097  -11.3361    3.2650 C   0  0  0  0  0  0  0  0  0  0  0  0
   10.5076  -12.3517    4.0556 C   0  0  0  0  0  0  0  0  0  0  0  0
    9.9785  -13.7657    3.2259 S   0  0  0  0  0  0  0  0  0  0  0  0
    8.3757  -13.1073    2.9781 C   0  0  0  0  0  0  0  0  0  0  0  0
    8.5313  -11.7407    3.2403 C   0  0  0  0  0  0  0  0  0  0  0  0
    7.0283  -11.1238    3.8391 S   0  0  0  0  0  0  0  0  0  0  0  0
    6.0852  -12.7965    3.6032 C   0  0  0  0  0  0  0  0  0  0  0  0
    7.0173  -13.6261    2.9179 C   0  0  0  0  0  0  0  0  0  0  0  0
    6.8055  -15.0229    2.3987 C   0  0  0  0  0  0  0  0  0  0  0  0
    7.1933  -16.1415    3.3552 C   0  0  0  0  0  0  0  0  0  0  0  0
    4.7192  -13.1898    4.3124 C   0  0  0  0  0  0  0  0  0  0  0  0
    3.4128  -13.3179    3.8514 C   0  0  0  0  0  0  0  0  0  0  0  0
    1.8519  -13.7953    4.4295 C   0  0  0  0  0  0  0  0  0  0  0  0
    1.2994  -14.4418    5.5601 C   0  0  0  0  0  0  0  0  0  0  0  0
   -0.1566  -14.7156    5.8996 C   0  0  0  0  0  0  0  0  0  0  0  0
   -1.3646  -14.9428    6.1813 N   0  0  0  0  0  0  0  0  0  0  0  0
    2.3930  -14.8123    6.5487 C   0  0  0  0  0  0  0  0  0  0  0  0
    3.3001  -15.1196    7.3689 N   0  0  0  0  0  0  0  0  0  0  0  0
    0.9949  -13.4148    3.3214 C   0  0  0  0  0  0  0  0  0  0  0  0
    1.7024  -12.9108    2.2646 C   0  0  0  0  0  0  0  0  0  0  0  0
    3.1277  -12.8234    2.4187 C   0  0  0  0  0  0  0  0  0  0  0  0
    3.9436  -12.4321    1.6024 O   0  0  0  0  0  0  0  0  0  0  0  0
   10.2205   -5.9225    5.7686 C   0  0  0  0  0  0  0  0  0  0  0  0
    0.7431  -12.4571    0.9603 S   0  0  0  0  0  0  0  0  0  0  0  0
   -0.6931  -12.9276    1.8002 C   0  0  0  0  0  0  0  0  0  0  0  0
   -0.3898  -13.4432    3.0547 C   0  0  0  0  0  0  0  0  0  0  0  0
   11.8411   -2.6475   17.1126 C   0  0  0  0  0  0  0  0  0  0  0  0
   12.3560   -1.5071   16.4845 C   0  0  0  0  0  0  0  0  0  0  0  0
   12.6594   -1.8300   14.8096 S   0  0  0  0  0  0  0  0  0  0  0  0
   12.6592   -0.2072   17.0649 C   0  0  0  0  0  0  0  0  0  0  0  0
   12.5160    0.0933   18.7549 S   0  0  0  0  0  0  0  0  0  0  0  0
   13.0983    1.6931   18.6095 C   0  0  0  0  0  0  0  0  0  0  0  0
   13.3557    2.0270   17.3013 C   0  0  0  0  0  0  0  0  0  0  0  0
   13.0951    0.9389   16.4152 C   0  0  0  0  0  0  0  0  0  0  0  0
   -9.7189  -13.2400    1.1179 C   0  0  0  0  0  0  0  0  0  0  0  0
  -10.3728  -12.2140    1.1217 O   0  0  0  0  0  0  0  0  0  0  0  0
   -8.2913  -13.3604    1.0349 C   0  0  0  0  0  0  0  0  0  0  0  0
   -7.7707  -14.6217    1.1124 C   0  0  0  0  0  0  0  0  0  0  0  0
   -8.8024  -15.6279    1.2713 C   0  0  0  0  0  0  0  0  0  0  0  0
   -8.4610  -16.9806    1.4693 C   0  0  0  0  0  0  0  0  0  0  0  0
   -7.1842  -17.5822    1.5004 C   0  0  0  0  0  0  0  0  0  0  0  0
   -6.1435  -18.0947    1.5164 N   0  0  0  0  0  0  0  0  0  0  0  0
   -9.7000  -17.8522    1.5934 C   0  0  0  0  0  0  0  0  0  0  0  0
  -10.7279  -18.5753    1.6963 N   0  0  0  0  0  0  0  0  0  0  0  0
  -10.2399  -14.6776    1.2021 C   0  0  0  0  0  0  0  0  0  0  0  0
  -11.5978  -14.8866    1.1823 C   0  0  0  0  0  0  0  0  0  0  0  0
  -12.9523  -14.0556    1.2231 C   0  0  0  0  0  0  0  0  0  0  0  0
  -13.4689  -12.2481    0.7164 S   0  0  0  0  0  0  0  0  0  0  0  0
  -15.0911  -12.3729    1.3579 C   0  0  0  0  0  0  0  0  0  0  0  0
  -15.2345  -13.6748    1.8248 C   0  0  0  0  0  0  0  0  0  0  0  0
  -14.1924  -14.6237    1.5970 C   0  0  0  0  0  0  0  0  0  0  0  0
  -14.5363  -16.0434    1.9682 C   0  0  0  0  0  0  0  0  0  0  0  0
  -14.4234  -16.3400    3.4591 C   0  0  0  0  0  0  0  0  0  0  0  0
  -16.6749  -13.7412    2.7458 S   0  0  0  0  0  0  0  0  0  0  0  0
  -16.8546  -12.0780    2.8313 C   0  0  0  0  0  0  0  0  0  0  0  0
  -16.2962  -11.5108    1.6993 C   0  0  0  0  0  0  0  0  0  0  0  0
  -17.0697  -10.2535    1.5544 N   0  0  0  0  0  0  0  0  0  0  0  0
  -17.1891   -9.4199    0.3516 C   0  0  0  0  0  0  0  0  0  0  0  0
  -18.0810  -10.2729    2.6812 C   0  0  0  0  0  0  0  0  0  0  0  0
  -17.3295  -11.0283    3.5474 C   0  0  0  0  0  0  0  0  0  0  0  0
  -17.6600  -11.3902    4.8574 C   0  0  0  0  0  0  0  0  0  0  0  0
  -16.7320  -11.7600    5.7316 N   0  0  0  0  0  0  0  0  0  0  0  0
  -17.5971  -11.7797    7.1788 S   0  0  0  0  0  0  0  0  0  0  0  0
  -19.1537  -11.4345    6.6153 N   0  0  0  0  0  0  0  0  0  0  0  0
  -18.9511  -11.1800    5.3319 C   0  0  0  0  0  0  0  0  0  0  0  0
  -19.8432  -10.5047    4.4681 C   0  0  0  0  0  0  0  0  0  0  0  0
  -19.3287   -9.8437    3.3069 C   0  0  0  0  0  0  0  0  0  0  0  0
  -20.3151   -8.8257    3.2485 N   0  0  0  0  0  0  0  0  0  0  0  0
  -21.6611   -9.1689    2.5316 C   0  0  0  0  0  0  0  0  0  0  0  0
  -22.2736  -10.6210    2.6238 C   0  0  0  0  0  0  0  0  0  0  0  0
  -20.4979   -8.4969    4.6630 C   0  0  0  0  0  0  0  0  0  0  0  0
  -20.8576   -9.7395    5.1339 C   0  0  0  0  0  0  0  0  0  0  0  0
  -21.6857   -9.3428    6.5879 S   0  0  0  0  0  0  0  0  0  0  0  0
  -20.4017   -8.2435    7.0331 C   0  0  0  0  0  0  0  0  0  0  0  0
  -19.7248   -7.9858    5.8489 C   0  0  0  0  0  0  0  0  0  0  0  0
  -18.1127   -7.5000    6.2047 S   0  0  0  0  0  0  0  0  0  0  0  0
  -18.3335   -7.6347    8.0765 C   0  0  0  0  0  0  0  0  0  0  0  0
  -19.7385   -7.8438    8.2461 C   0  0  0  0  0  0  0  0  0  0  0  0
  -20.5384   -7.9235    9.5189 C   0  0  0  0  0  0  0  0  0  0  0  0
  -20.7087   -9.3322   10.0716 C   0  0  0  0  0  0  0  0  0  0  0  0
  -17.3072   -7.5431    9.2660 C   0  0  0  0  0  0  0  0  0  0  0  0
  -15.9432   -7.4469    9.4464 C   0  0  0  0  0  0  0  0  0  0  0  0
  -14.8827   -7.3917   10.7859 C   0  0  0  0  0  0  0  0  0  0  0  0
  -14.9426   -7.5950   12.1708 C   0  0  0  0  0  0  0  0  0  0  0  0
  -13.8927   -7.5625   13.1185 C   0  0  0  0  0  0  0  0  0  0  0  0
  -13.0537   -7.5430   13.9201 N   0  0  0  0  0  0  0  0  0  0  0  0
  -16.3354   -7.9100   12.6915 C   0  0  0  0  0  0  0  0  0  0  0  0
  -17.4909   -8.1713   13.1236 N   0  0  0  0  0  0  0  0  0  0  0  0
  -13.5978   -7.1332   10.1607 C   0  0  0  0  0  0  0  0  0  0  0  0
  -13.6929   -7.1342    8.7971 C   0  0  0  0  0  0  0  0  0  0  0  0
  -15.0021   -7.3089    8.2401 C   0  0  0  0  0  0  0  0  0  0  0  0
  -15.2926   -7.3221    7.0604 O   0  0  0  0  0  0  0  0  0  0  0  0
  -16.9067   -7.9292    0.5552 C   0  0  0  0  0  0  0  0  0  0  0  0
  -12.2267   -6.9303    8.0086 S   0  0  0  0  0  0  0  0  0  0  0  0
  -11.4116   -6.7761    9.5189 C   0  0  0  0  0  0  0  0  0  0  0  0
  -12.2767   -6.8746   10.5948 C   0  0  0  0  0  0  0  0  0  0  0  0
   -6.3634  -14.6126    1.0310 C   0  0  0  0  0  0  0  0  0  0  0  0
   -5.8638  -13.3235    0.8996 C   0  0  0  0  0  0  0  0  0  0  0  0
   -7.1394  -12.1573    0.8446 S   0  0  0  0  0  0  0  0  0  0  0  0
   -4.4744  -12.9377    0.8415 C   0  0  0  0  0  0  0  0  0  0  0  0
   -3.2874  -13.8325    1.7017 S   0  0  0  0  0  0  0  0  0  0  0  0
   -2.0162  -12.7680    1.2459 C   0  0  0  0  0  0  0  0  0  0  0  0
   -2.4831  -11.8031    0.3807 C   0  0  0  0  0  0  0  0  0  0  0  0
   -3.8943  -11.8874    0.1644 C   0  0  0  0  0  0  0  0  0  0  0  0
   10.9923   -7.6698   14.4061 H   0  0  0  0  0  0  0  0  0  0  0  0
   13.4798   -9.0539   13.4866 H   0  0  0  0  0  0  0  0  0  0  0  0
   13.6525   -9.9205   11.9816 H   0  0  0  0  0  0  0  0  0  0  0  0
   11.3230  -10.2703   13.9265 H   0  0  0  0  0  0  0  0  0  0  0  0
   12.6548  -11.3972   13.6013 H   0  0  0  0  0  0  0  0  0  0  0  0
   11.4420  -11.0962   12.3736 H   0  0  0  0  0  0  0  0  0  0  0  0
   11.9192   -7.0803    5.1606 H   0  0  0  0  0  0  0  0  0  0  0  0
   12.1790   -6.1852    6.6628 H   0  0  0  0  0  0  0  0  0  0  0  0
   12.2598  -11.1774    2.2156 H   0  0  0  0  0  0  0  0  0  0  0  0
   12.8229  -11.2911    3.8773 H   0  0  0  0  0  0  0  0  0  0  0  0
   13.3176   -8.8609    2.1136 H   0  0  0  0  0  0  0  0  0  0  0  0
   14.4119  -10.1824    2.4852 H   0  0  0  0  0  0  0  0  0  0  0  0
   13.9142   -9.1286    3.7851 H   0  0  0  0  0  0  0  0  0  0  0  0
    7.3745  -15.1517    1.4660 H   0  0  0  0  0  0  0  0  0  0  0  0
    5.7531  -15.1448    2.1199 H   0  0  0  0  0  0  0  0  0  0  0  0
    8.2634  -16.1405    3.5831 H   0  0  0  0  0  0  0  0  0  0  0  0
    6.9662  -17.1141    2.9036 H   0  0  0  0  0  0  0  0  0  0  0  0
    6.6469  -16.0661    4.2989 H   0  0  0  0  0  0  0  0  0  0  0  0
    4.9208  -13.5161    5.3309 H   0  0  0  0  0  0  0  0  0  0  0  0
    9.4951   -6.4796    5.1646 H   0  0  0  0  0  0  0  0  0  0  0  0
   10.5033   -5.0320    5.1902 H   0  0  0  0  0  0  0  0  0  0  0  0
    9.7109   -5.5790    6.6739 H   0  0  0  0  0  0  0  0  0  0  0  0
   -1.1690  -13.7869    3.7220 H   0  0  0  0  0  0  0  0  0  0  0  0
   11.5961   -2.6468   18.1667 H   0  0  0  0  0  0  0  0  0  0  0  0
   13.2207    2.3149   19.4866 H   0  0  0  0  0  0  0  0  0  0  0  0
   13.7227    2.9988   16.9922 H   0  0  0  0  0  0  0  0  0  0  0  0
   13.2450    1.0058   15.3444 H   0  0  0  0  0  0  0  0  0  0  0  0
  -11.8566  -15.9470    1.2319 H   0  0  0  0  0  0  0  0  0  0  0  0
  -13.9344  -16.7502    1.3930 H   0  0  0  0  0  0  0  0  0  0  0  0
  -15.5743  -16.2446    1.6609 H   0  0  0  0  0  0  0  0  0  0  0  0
  -13.3902  -16.2500    3.8024 H   0  0  0  0  0  0  0  0  0  0  0  0
  -14.7747  -17.3566    3.6618 H   0  0  0  0  0  0  0  0  0  0  0  0
  -15.0309  -15.6664    4.0731 H   0  0  0  0  0  0  0  0  0  0  0  0
  -18.2104   -9.5301   -0.0356 H   0  0  0  0  0  0  0  0  0  0  0  0
  -16.5103   -9.8143   -0.4098 H   0  0  0  0  0  0  0  0  0  0  0  0
  -21.5319   -8.9024    1.4796 H   0  0  0  0  0  0  0  0  0  0  0  0
  -22.4137   -8.4917    2.9664 H   0  0  0  0  0  0  0  0  0  0  0  0
  -21.5937  -11.3955    2.2540 H   0  0  0  0  0  0  0  0  0  0  0  0
  -23.2008  -10.7066    2.0347 H   0  0  0  0  0  0  0  0  0  0  0  0
  -22.5788  -10.9077    3.6400 H   0  0  0  0  0  0  0  0  0  0  0  0
  -21.5365   -7.4960    9.3426 H   0  0  0  0  0  0  0  0  0  0  0  0
  -20.0834   -7.2861   10.2829 H   0  0  0  0  0  0  0  0  0  0  0  0
  -21.2669   -9.9806    9.3895 H   0  0  0  0  0  0  0  0  0  0  0  0
  -21.2723   -9.2995   11.0099 H   0  0  0  0  0  0  0  0  0  0  0  0
  -19.7418   -9.8048   10.2635 H   0  0  0  0  0  0  0  0  0  0  0  0
  -17.8560   -7.6125   10.2043 H   0  0  0  0  0  0  0  0  0  0  0  0
  -17.6367   -7.4657    1.2278 H   0  0  0  0  0  0  0  0  0  0  0  0
  -16.9640   -7.3833   -0.3987 H   0  0  0  0  0  0  0  0  0  0  0  0
  -15.9074   -7.7627    0.9668 H   0  0  0  0  0  0  0  0  0  0  0  0
  -10.3423   -6.6145    9.5503 H   0  0  0  0  0  0  0  0  0  0  0  0
  -11.9204   -6.7735   11.6122 H   0  0  0  0  0  0  0  0  0  0  0  0
   -5.7056  -15.4698    1.0706 H   0  0  0  0  0  0  0  0  0  0  0  0
   -1.8587  -11.0286   -0.0463 H   0  0  0  0  0  0  0  0  0  0  0  0
   -4.4518  -11.1937   -0.4573 H   0  0  0  0  0  0  0  0  0  0  0  0
  1  2  2  0  0  0  0
  1  3  1  0  0  0  0
  1 11  1  0  0  0  0
  3  4  2  0  0  0  0
  4  5  1  0  0  0  0
  4 63  1  0  0  0  0
  5  6  2  0  0  0  0
  5 11  1  0  0  0  0
  6  7  1  0  0  0  0
  6  9  1  0  0  0  0
  7  8  3  0  0  0  0
  9 10  3  0  0  0  0
 11 12  2  0  0  0  0
 12 13  1  0  0  0  0
 12141  1  0  0  0  0
 13 14  1  0  0  0  0
 13 17  2  0  0  0  0
 14 15  1  0  0  0  0
 15 16  2  0  0  0  0
 15 22  1  0  0  0  0
 16 17  1  0  0  0  0
 16 20  1  0  0  0  0
 17 18  1  0  0  0  0
 18 19  1  0  0  0  0
 18142  1  0  0  0  0
 18143  1  0  0  0  0
 19144  1  0  0  0  0
 19145  1  0  0  0  0
 19146  1  0  0  0  0
 20 21  1  0  0  0  0
 21 22  2  0  0  0  0
 21 26  1  0  0  0  0
 22 23  1  0  0  0  0
 23 24  1  0  0  0  0
 23 25  1  0  0  0  0
 24 59  1  0  0  0  0
 24147  1  0  0  0  0
 24148  1  0  0  0  0
 25 26  2  0  0  0  0
 25 33  1  0  0  0  0
 26 27  1  0  0  0  0
 27 28  2  0  0  0  0
 27 31  1  0  0  0  0
 28 29  1  0  0  0  0
 29 30  1  0  0  0  0
 30 31  2  0  0  0  0
 31 32  1  0  0  0  0
 32 33  2  0  0  0  0
 32 38  1  0  0  0  0
 33 34  1  0  0  0  0
 34 35  1  0  0  0  0
 34 37  1  0  0  0  0
 35 36  1  0  0  0  0
 35149  1  0  0  0  0
 35150  1  0  0  0  0
 36151  1  0  0  0  0
 36152  1  0  0  0  0
 36153  1  0  0  0  0
 37 38  2  0  0  0  0
 37 41  1  0  0  0  0
 38 39  1  0  0  0  0
 39 40  1  0  0  0  0
 40 41  2  0  0  0  0
 40 44  1  0  0  0  0
 41 42  1  0  0  0  0
 42 43  1  0  0  0  0
 43 44  2  0  0  0  0
 43 47  1  0  0  0  0
 44 45  1  0  0  0  0
 45 46  1  0  0  0  0
 45154  1  0  0  0  0
 45155  1  0  0  0  0
 46156  1  0  0  0  0
 46157  1  0  0  0  0
 46158  1  0  0  0  0
 47 48  2  0  0  0  0
 47159  1  0  0  0  0
 48 49  1  0  0  0  0
 48 57  1  0  0  0  0
 49 50  2  0  0  0  0
 49 55  1  0  0  0  0
 50 51  1  0  0  0  0
 50 53  1  0  0  0  0
 51 52  3  0  0  0  0
 53 54  3  0  0  0  0
 55 56  2  0  0  0  0
 56 57  1  0  0  0  0
 56 60  1  0  0  0  0
 57 58  2  0  0  0  0
 59160  1  0  0  0  0
 59161  1  0  0  0  0
 59162  1  0  0  0  0
 60 61  1  0  0  0  0
 61 62  2  0  0  0  0
 61138  1  0  0  0  0
 62 55  1  0  0  0  0
 62163  1  0  0  0  0
 63 64  2  0  0  0  0
 63164  1  0  0  0  0
 64 65  1  0  0  0  0
 64 66  1  0  0  0  0
 65  3  1  0  0  0  0
 66 67  1  0  0  0  0
 67 68  1  0  0  0  0
 68 69  2  0  0  0  0
 68165  1  0  0  0  0
 69 70  1  0  0  0  0
 69166  1  0  0  0  0
 70 66  2  0  0  0  0
 70167  1  0  0  0  0
 71 72  2  0  0  0  0
 71 73  1  0  0  0  0
 71 81  1  0  0  0  0
 73 74  2  0  0  0  0
 74 75  1  0  0  0  0
 74133  1  0  0  0  0
 75 76  2  0  0  0  0
 75 81  1  0  0  0  0
 76 77  1  0  0  0  0
 76 79  1  0  0  0  0
 77 78  3  0  0  0  0
 79 80  3  0  0  0  0
 81 82  2  0  0  0  0
 82 83  1  0  0  0  0
 82168  1  0  0  0  0
 83 84  1  0  0  0  0
 83 87  2  0  0  0  0
 84 85  1  0  0  0  0
 85 86  2  0  0  0  0
 85 92  1  0  0  0  0
 86 87  1  0  0  0  0
 86 90  1  0  0  0  0
 87 88  1  0  0  0  0
 88 89  1  0  0  0  0
 88169  1  0  0  0  0
 88170  1  0  0  0  0
 89171  1  0  0  0  0
 89172  1  0  0  0  0
 89173  1  0  0  0  0
 90 91  1  0  0  0  0
 91 92  2  0  0  0  0
 91 96  1  0  0  0  0
 92 93  1  0  0  0  0
 93 94  1  0  0  0  0
 93 95  1  0  0  0  0
 94129  1  0  0  0  0
 94174  1  0  0  0  0
 94175  1  0  0  0  0
 95 96  2  0  0  0  0
 95103  1  0  0  0  0
 96 97  1  0  0  0  0
 97 98  2  0  0  0  0
 97101  1  0  0  0  0
 98 99  1  0  0  0  0
 99100  1  0  0  0  0
100101  2  0  0  0  0
101102  1  0  0  0  0
102103  2  0  0  0  0
102108  1  0  0  0  0
103104  1  0  0  0  0
104105  1  0  0  0  0
104107  1  0  0  0  0
105106  1  0  0  0  0
105176  1  0  0  0  0
105177  1  0  0  0  0
106178  1  0  0  0  0
106179  1  0  0  0  0
106180  1  0  0  0  0
107108  2  0  0  0  0
107111  1  0  0  0  0
108109  1  0  0  0  0
109110  1  0  0  0  0
110111  2  0  0  0  0
110114  1  0  0  0  0
111112  1  0  0  0  0
112113  1  0  0  0  0
113114  2  0  0  0  0
113117  1  0  0  0  0
114115  1  0  0  0  0
115116  1  0  0  0  0
115181  1  0  0  0  0
115182  1  0  0  0  0
116183  1  0  0  0  0
116184  1  0  0  0  0
116185  1  0  0  0  0
117118  2  0  0  0  0
117186  1  0  0  0  0
118119  1  0  0  0  0
118127  1  0  0  0  0
119120  2  0  0  0  0
119125  1  0  0  0  0
120121  1  0  0  0  0
120123  1  0  0  0  0
121122  3  0  0  0  0
123124  3  0  0  0  0
125126  2  0  0  0  0
126127  1  0  0  0  0
126130  1  0  0  0  0
127128  2  0  0  0  0
129187  1  0  0  0  0
129188  1  0  0  0  0
129189  1  0  0  0  0
130131  1  0  0  0  0
131132  2  0  0  0  0
131190  1  0  0  0  0
132125  1  0  0  0  0
132191  1  0  0  0  0
133134  2  0  0  0  0
133192  1  0  0  0  0
134135  1  0  0  0  0
134136  1  0  0  0  0
135 73  1  0  0  0  0
136137  1  0  0  0  0
137138  1  0  0  0  0
138139  2  0  0  0  0
139140  1  0  0  0  0
139193  1  0  0  0  0
140136  2  0  0  0  0
140194  1  0  0  0  0
M  END
