Qx3.sdf
 OpenBabel12212110083D

198216  0  0  0  0  0  0  0  0999 V2000
    3.1951   -0.8026   -0.5058 C   0  0  0  0  0  0  0  0  0  0  0  0
    3.0072   -0.1399    0.7598 C   0  0  0  0  0  0  0  0  0  0  0  0
    2.2182    1.0043    0.8452 C   0  0  0  0  0  0  0  0  0  0  0  0
    1.1349    1.0091   -0.0182 C   0  0  0  0  0  0  0  0  0  0  0  0
    1.0758    0.0070   -1.0108 C   0  0  0  0  0  0  0  0  0  0  0  0
    2.1448   -0.7147   -1.4022 C   0  0  0  0  0  0  0  0  0  0  0  0
    3.9870   -2.1563   -0.3574 C   0  0  0  0  0  0  0  0  0  0  0  0
    3.1709   -2.4947    0.9294 C   0  0  0  0  0  0  0  0  0  0  0  0
    2.8024   -1.3457    1.6230 C   0  0  0  0  0  0  0  0  0  0  0  0
    2.2387   -3.5359    1.3160 C   0  0  0  0  0  0  0  0  0  0  0  0
    1.6494   -3.3356    2.5704 C   0  0  0  0  0  0  0  0  0  0  0  0
    1.8054   -1.6300    2.9534 S   0  0  0  0  0  0  0  0  0  0  0  0
   -0.2861    1.6352    0.0962 C   0  0  0  0  0  0  0  0  0  0  0  0
   -0.9778    0.2063   -0.0930 C   0  0  0  0  0  0  0  0  0  0  0  0
   -0.2265   -0.5904   -0.9086 C   0  0  0  0  0  0  0  0  0  0  0  0
   -1.9263   -0.7031    0.5001 C   0  0  0  0  0  0  0  0  0  0  0  0
   -2.0872   -1.9966   -0.1324 C   0  0  0  0  0  0  0  0  0  0  0  0
   -0.6987   -2.1953   -1.1401 S   0  0  0  0  0  0  0  0  0  0  0  0
    0.9792   -4.3828    3.4903 C   0  0  0  0  0  0  0  0  0  0  0  0
   -3.2858   -3.0574   -0.1736 C   0  0  0  0  0  0  0  0  0  0  0  0
    3.7785   -3.1950   -1.4868 C   0  0  0  0  0  0  0  0  0  0  0  0
    5.4754   -1.7840   -0.0582 C   0  0  0  0  0  0  0  0  0  0  0  0
    0.5386   -5.6073    2.9655 C   0  0  0  0  0  0  0  0  0  0  0  0
    0.1772   -6.6726    3.8110 C   0  0  0  0  0  0  0  0  0  0  0  0
    0.3316   -6.5695    5.1664 C   0  0  0  0  0  0  0  0  0  0  0  0
    1.3023   -5.6165    5.4836 C   0  0  0  0  0  0  0  0  0  0  0  0
    1.1944   -4.3631    4.8567 C   0  0  0  0  0  0  0  0  0  0  0  0
   -3.4801   -4.0626   -1.1368 C   0  0  0  0  0  0  0  0  0  0  0  0
   -4.7936   -4.6417   -1.3848 C   0  0  0  0  0  0  0  0  0  0  0  0
   -5.9849   -4.1357   -0.7988 C   0  0  0  0  0  0  0  0  0  0  0  0
   -5.7433   -2.9750   -0.0567 C   0  0  0  0  0  0  0  0  0  0  0  0
   -4.4567   -2.7437    0.4858 C   0  0  0  0  0  0  0  0  0  0  0  0
   -0.4426   -7.5846    6.0068 C   0  0  0  0  0  0  0  0  0  0  0  0
   -1.7781   -7.4503    6.2772 C   0  0  0  0  0  0  0  0  0  0  0  0
   -7.3969   -4.6046   -1.2347 C   0  0  0  0  0  0  0  0  0  0  0  0
   -8.5478   -4.8074   -0.5117 C   0  0  0  0  0  0  0  0  0  0  0  0
   -8.6366   -4.6547    0.9553 C   0  0  0  0  0  0  0  0  0  0  0  0
   -9.9727   -4.7120    1.4197 N   0  0  0  0  0  0  0  0  0  0  0  0
  -10.9806   -5.1769    0.5139 C   0  0  0  0  0  0  0  0  0  0  0  0
  -10.1462   -5.3322   -1.0970 S   0  0  0  0  0  0  0  0  0  0  0  0
   -2.4596   -6.1395    6.3176 C   0  0  0  0  0  0  0  0  0  0  0  0
   -3.8523   -6.2767    6.1691 N   0  0  0  0  0  0  0  0  0  0  0  0
   -4.4012   -7.5890    6.2865 C   0  0  0  0  0  0  0  0  0  0  0  0
   -2.9922   -8.7064    6.5308 S   0  0  0  0  0  0  0  0  0  0  0  0
   -4.6451   -5.0539    6.0258 C   0  0  0  0  0  0  0  0  0  0  0  0
   -1.8332   -5.1062    6.5069 O   0  0  0  0  0  0  0  0  0  0  0  0
   -5.7416   -7.9947    6.2500 C   0  0  0  0  0  0  0  0  0  0  0  0
   -7.6375   -4.5310    1.6372 O   0  0  0  0  0  0  0  0  0  0  0  0
  -10.2271   -4.3379    2.8149 C   0  0  0  0  0  0  0  0  0  0  0  0
  -12.3372   -5.4775    0.7629 C   0  0  0  0  0  0  0  0  0  0  0  0
   -3.9554   -3.7843    5.5350 C   0  0  0  0  0  0  0  0  0  0  0  0
   -9.1130   -3.7193    3.6540 C   0  0  0  0  0  0  0  0  0  0  0  0
    2.6241   -5.9126    5.6697 N   0  0  0  0  0  0  0  0  0  0  0  0
    3.6188   -5.0001    5.2168 C   0  0  0  0  0  0  0  0  0  0  0  0
    3.2670   -3.6607    5.4221 C   0  0  0  0  0  0  0  0  0  0  0  0
    1.9456   -3.3971    5.3548 N   0  0  0  0  0  0  0  0  0  0  0  0
    4.2300   -5.5394    3.8417 C   0  0  0  0  0  0  0  0  0  0  0  0
    3.9913   -2.4725    6.0026 C   0  0  0  0  0  0  0  0  0  0  0  0
    5.2933   -2.0575    5.7030 C   0  0  0  0  0  0  0  0  0  0  0  0
    5.8116   -0.8411    6.2149 C   0  0  0  0  0  0  0  0  0  0  0  0
    5.0519   -0.0105    7.0434 C   0  0  0  0  0  0  0  0  0  0  0  0
    3.7637   -0.3881    7.3675 C   0  0  0  0  0  0  0  0  0  0  0  0
    3.2571   -1.5900    6.8565 C   0  0  0  0  0  0  0  0  0  0  0  0
    3.8146   -6.8103    3.3319 C   0  0  0  0  0  0  0  0  0  0  0  0
    4.2710   -7.3990    2.1340 C   0  0  0  0  0  0  0  0  0  0  0  0
    5.2419   -6.7625    1.3874 C   0  0  0  0  0  0  0  0  0  0  0  0
    5.6443   -5.4921    1.7949 C   0  0  0  0  0  0  0  0  0  0  0  0
    5.1223   -4.8707    2.9681 C   0  0  0  0  0  0  0  0  0  0  0  0
   -6.5040   -1.8465   -0.1696 N   0  0  0  0  0  0  0  0  0  0  0  0
   -5.7520   -0.6852   -0.2067 C   0  0  0  0  0  0  0  0  0  0  0  0
   -4.9456   -0.6284    0.9494 C   0  0  0  0  0  0  0  0  0  0  0  0
   -4.3420   -1.7667    1.3209 N   0  0  0  0  0  0  0  0  0  0  0  0
   -5.1843   -0.7241   -1.7729 C   0  0  0  0  0  0  0  0  0  0  0  0
   -4.7334    0.3375    2.0923 C   0  0  0  0  0  0  0  0  0  0  0  0
   -4.9880    1.6995    2.0664 C   0  0  0  0  0  0  0  0  0  0  0  0
   -4.6045    2.5279    3.1449 C   0  0  0  0  0  0  0  0  0  0  0  0
   -3.9564    2.0242    4.2800 C   0  0  0  0  0  0  0  0  0  0  0  0
   -3.6777    0.6786    4.3568 C   0  0  0  0  0  0  0  0  0  0  0  0
   -4.0730   -0.1377    3.2953 C   0  0  0  0  0  0  0  0  0  0  0  0
   -6.0727   -1.2398   -2.7567 C   0  0  0  0  0  0  0  0  0  0  0  0
   -5.6425   -1.9159   -3.9263 C   0  0  0  0  0  0  0  0  0  0  0  0
   -4.2985   -2.0390   -4.2241 C   0  0  0  0  0  0  0  0  0  0  0  0
   -3.3999   -1.3589   -3.4222 C   0  0  0  0  0  0  0  0  0  0  0  0
   -3.8516   -0.6855   -2.2375 C   0  0  0  0  0  0  0  0  0  0  0  0
   -0.6252    2.3962    1.3745 C   0  0  0  0  0  0  0  0  0  0  0  0
   -6.1402   -9.4566    6.3706 C   0  0  0  0  0  0  0  0  0  0  0  0
   -6.8073   -6.9311    6.0422 C   0  0  0  0  0  0  0  0  0  0  0  0
  -13.2268   -5.9500   -0.2286 C   0  0  0  0  0  0  0  0  0  0  0  0
  -12.8170   -5.2043    2.1790 C   0  0  0  0  0  0  0  0  0  0  0  0
  -13.2150   -4.9778    3.3539 N   0  0  0  0  0  0  0  0  0  0  0  0
  -13.9566   -6.3378   -1.0311 N   0  0  0  0  0  0  0  0  0  0  0  0
   -6.4709  -10.6693    6.4706 N   0  0  0  0  0  0  0  0  0  0  0  0
   -7.6914   -6.0486    5.8697 N   0  0  0  0  0  0  0  0  0  0  0  0
   -0.4793    2.4605   -1.2471 C   0  0  0  0  0  0  0  0  0  0  0  0
    3.3985   -2.8313   -2.7965 C   0  0  0  0  0  0  0  0  0  0  0  0
    2.8184   -3.7407   -3.6725 C   0  0  0  0  0  0  0  0  0  0  0  0
    2.9300   -5.0957   -3.4134 C   0  0  0  0  0  0  0  0  0  0  0  0
    3.6763   -5.4893   -2.3016 C   0  0  0  0  0  0  0  0  0  0  0  0
    4.0606   -4.5482   -1.3342 C   0  0  0  0  0  0  0  0  0  0  0  0
    5.9078   -1.0919    1.0942 C   0  0  0  0  0  0  0  0  0  0  0  0
    7.0757   -0.3139    1.0864 C   0  0  0  0  0  0  0  0  0  0  0  0
    7.8876   -0.2625   -0.0463 C   0  0  0  0  0  0  0  0  0  0  0  0
    7.5783   -1.0949   -1.1210 C   0  0  0  0  0  0  0  0  0  0  0  0
    6.3905   -1.8339   -1.1294 C   0  0  0  0  0  0  0  0  0  0  0  0
   -1.2966    3.6381    1.3133 C   0  0  0  0  0  0  0  0  0  0  0  0
   -1.3720    4.5064    2.4143 C   0  0  0  0  0  0  0  0  0  0  0  0
   -0.7677    4.1733    3.6263 C   0  0  0  0  0  0  0  0  0  0  0  0
   -0.1620    2.9198    3.7339 C   0  0  0  0  0  0  0  0  0  0  0  0
   -0.1225    2.0389    2.6375 C   0  0  0  0  0  0  0  0  0  0  0  0
   -1.5945    2.3174   -2.0812 C   0  0  0  0  0  0  0  0  0  0  0  0
   -1.6020    2.8280   -3.3883 C   0  0  0  0  0  0  0  0  0  0  0  0
   -0.5180    3.5589   -3.8867 C   0  0  0  0  0  0  0  0  0  0  0  0
    0.5243    3.8651   -3.0115 C   0  0  0  0  0  0  0  0  0  0  0  0
    0.5441    3.3275   -1.7131 C   0  0  0  0  0  0  0  0  0  0  0  0
    2.3025   -6.0852   -4.3525 C   0  0  0  0  0  0  0  0  0  0  0  0
    3.0660   -6.1686   -5.6626 C   0  0  0  0  0  0  0  0  0  0  0  0
    9.0315    0.7141   -0.1389 C   0  0  0  0  0  0  0  0  0  0  0  0
   10.3166    0.1803    0.4639 C   0  0  0  0  0  0  0  0  0  0  0  0
   -0.7718    5.1440    4.7813 C   0  0  0  0  0  0  0  0  0  0  0  0
   -1.9987    4.9962    5.6658 C   0  0  0  0  0  0  0  0  0  0  0  0
   -0.4622    3.9521   -5.3436 C   0  0  0  0  0  0  0  0  0  0  0  0
   -1.1846    5.2493   -5.6639 C   0  0  0  0  0  0  0  0  0  0  0  0
    2.3034    1.6708    1.6936 H   0  0  0  0  0  0  0  0  0  0  0  0
    1.8506   -1.5391   -2.0288 H   0  0  0  0  0  0  0  0  0  0  0  0
    2.0258   -4.4102    0.7189 H   0  0  0  0  0  0  0  0  0  0  0  0
   -2.5163   -0.3403    1.3122 H   0  0  0  0  0  0  0  0  0  0  0  0
    0.5573   -5.7839    1.8959 H   0  0  0  0  0  0  0  0  0  0  0  0
   -0.1568   -7.6172    3.3863 H   0  0  0  0  0  0  0  0  0  0  0  0
   -2.6609   -4.3552   -1.7910 H   0  0  0  0  0  0  0  0  0  0  0  0
   -4.8652   -5.4032   -2.1615 H   0  0  0  0  0  0  0  0  0  0  0  0
    0.0322   -8.5635    6.0732 H   0  0  0  0  0  0  0  0  0  0  0  0
   -7.4384   -4.8023   -2.3047 H   0  0  0  0  0  0  0  0  0  0  0  0
   -5.1360   -4.8597    6.9856 H   0  0  0  0  0  0  0  0  0  0  0  0
   -5.3786   -5.2489    5.2457 H   0  0  0  0  0  0  0  0  0  0  0  0
  -10.5551   -5.2419    3.3345 H   0  0  0  0  0  0  0  0  0  0  0  0
  -11.0182   -3.5814    2.7913 H   0  0  0  0  0  0  0  0  0  0  0  0
   -3.2923   -3.3527    6.2896 H   0  0  0  0  0  0  0  0  0  0  0  0
   -4.7095   -3.0236    5.3119 H   0  0  0  0  0  0  0  0  0  0  0  0
   -3.3843   -3.9763    4.6204 H   0  0  0  0  0  0  0  0  0  0  0  0
   -8.3108   -4.4382    3.8358 H   0  0  0  0  0  0  0  0  0  0  0  0
   -9.5055   -3.4283    4.6332 H   0  0  0  0  0  0  0  0  0  0  0  0
   -8.6927   -2.8266    3.1801 H   0  0  0  0  0  0  0  0  0  0  0  0
    5.9247   -2.6348    5.0367 H   0  0  0  0  0  0  0  0  0  0  0  0
    6.8186   -0.5244    5.9514 H   0  0  0  0  0  0  0  0  0  0  0  0
    5.4542    0.9268    7.4242 H   0  0  0  0  0  0  0  0  0  0  0  0
    3.1395    0.2441    7.9969 H   0  0  0  0  0  0  0  0  0  0  0  0
    2.2236   -1.8270    7.1162 H   0  0  0  0  0  0  0  0  0  0  0  0
    3.0505   -7.3752    3.8661 H   0  0  0  0  0  0  0  0  0  0  0  0
    3.8609   -8.3582    1.8082 H   0  0  0  0  0  0  0  0  0  0  0  0
    5.6283   -7.2308    0.4831 H   0  0  0  0  0  0  0  0  0  0  0  0
    6.3562   -4.9616    1.1607 H   0  0  0  0  0  0  0  0  0  0  0  0
    5.4154   -3.8398    3.1344 H   0  0  0  0  0  0  0  0  0  0  0  0
   -5.4449    2.1577    1.1952 H   0  0  0  0  0  0  0  0  0  0  0  0
   -4.7878    3.5972    3.0948 H   0  0  0  0  0  0  0  0  0  0  0  0
   -3.6566    2.6785    5.0917 H   0  0  0  0  0  0  0  0  0  0  0  0
   -3.1396    0.2588    5.2059 H   0  0  0  0  0  0  0  0  0  0  0  0
   -3.7839   -1.1866    3.3953 H   0  0  0  0  0  0  0  0  0  0  0  0
   -7.1303   -1.2691   -2.5349 H   0  0  0  0  0  0  0  0  0  0  0  0
   -6.3767   -2.4050   -4.5574 H   0  0  0  0  0  0  0  0  0  0  0  0
   -3.9602   -2.6512   -5.0630 H   0  0  0  0  0  0  0  0  0  0  0  0
   -2.3393   -1.4349   -3.6563 H   0  0  0  0  0  0  0  0  0  0  0  0
   -3.0703   -0.2355   -1.6555 H   0  0  0  0  0  0  0  0  0  0  0  0
    3.4184   -1.7941   -3.1311 H   0  0  0  0  0  0  0  0  0  0  0  0
    2.2809   -3.3750   -4.5455 H   0  0  0  0  0  0  0  0  0  0  0  0
    3.9354   -6.5341   -2.1581 H   0  0  0  0  0  0  0  0  0  0  0  0
    4.5921   -4.8828   -0.4580 H   0  0  0  0  0  0  0  0  0  0  0  0
    5.2956   -1.0211    1.9896 H   0  0  0  0  0  0  0  0  0  0  0  0
    7.2970    0.3161    1.9468 H   0  0  0  0  0  0  0  0  0  0  0  0
    8.2123   -1.1112   -2.0041 H   0  0  0  0  0  0  0  0  0  0  0  0
    6.1539   -2.3731   -2.0438 H   0  0  0  0  0  0  0  0  0  0  0  0
   -1.7290    3.9952    0.3804 H   0  0  0  0  0  0  0  0  0  0  0  0
   -1.8730    5.4654    2.2985 H   0  0  0  0  0  0  0  0  0  0  0  0
    0.3195    2.6232    4.6642 H   0  0  0  0  0  0  0  0  0  0  0  0
    0.3891    1.0911    2.7810 H   0  0  0  0  0  0  0  0  0  0  0  0
   -2.4537    1.7560   -1.7444 H   0  0  0  0  0  0  0  0  0  0  0  0
   -2.4494    2.6026   -4.0333 H   0  0  0  0  0  0  0  0  0  0  0  0
    1.3634    4.4766   -3.3499 H   0  0  0  0  0  0  0  0  0  0  0  0
    1.4064    3.5498   -1.0864 H   0  0  0  0  0  0  0  0  0  0  0  0
    1.2640   -5.7839   -4.5467 H   0  0  0  0  0  0  0  0  0  0  0  0
    2.2495   -7.0717   -3.8791 H   0  0  0  0  0  0  0  0  0  0  0  0
    3.0865   -5.2007   -6.1761 H   0  0  0  0  0  0  0  0  0  0  0  0
    2.5929   -6.8933   -6.3308 H   0  0  0  0  0  0  0  0  0  0  0  0
    4.1019   -6.4773   -5.4900 H   0  0  0  0  0  0  0  0  0  0  0  0
    8.7490    1.6515    0.3573 H   0  0  0  0  0  0  0  0  0  0  0  0
    9.2017    0.9802   -1.1904 H   0  0  0  0  0  0  0  0  0  0  0  0
   10.1878   -0.0588    1.5241 H   0  0  0  0  0  0  0  0  0  0  0  0
   11.1096    0.9305    0.3784 H   0  0  0  0  0  0  0  0  0  0  0  0
   10.6481   -0.7256   -0.0533 H   0  0  0  0  0  0  0  0  0  0  0  0
   -0.7215    6.1712    4.3979 H   0  0  0  0  0  0  0  0  0  0  0  0
    0.1338    5.0071    5.3854 H   0  0  0  0  0  0  0  0  0  0  0  0
   -2.9211    5.1532    5.0964 H   0  0  0  0  0  0  0  0  0  0  0  0
   -1.9748    5.7301    6.4778 H   0  0  0  0  0  0  0  0  0  0  0  0
   -2.0387    4.0001    6.1174 H   0  0  0  0  0  0  0  0  0  0  0  0
   -0.8892    3.1405   -5.9487 H   0  0  0  0  0  0  0  0  0  0  0  0
    0.5846    4.0326   -5.6638 H   0  0  0  0  0  0  0  0  0  0  0  0
   -2.2445    5.1955   -5.3962 H   0  0  0  0  0  0  0  0  0  0  0  0
   -1.1195    5.4577   -6.7381 H   0  0  0  0  0  0  0  0  0  0  0  0
   -0.7378    6.0933   -5.1294 H   0  0  0  0  0  0  0  0  0  0  0  0
  1  2  1  0  0  0  0
  1  7  1  0  0  0  0
  2  3  2  0  0  0  0
  3  4  1  0  0  0  0
  3123  1  0  0  0  0
  4  5  2  0  0  0  0
  4 13  1  0  0  0  0
  5  6  1  0  0  0  0
  6  1  2  0  0  0  0
  6124  1  0  0  0  0
  7  8  1  0  0  0  0
  7 21  1  0  0  0  0
  7 22  1  0  0  0  0
  8  9  2  0  0  0  0
  8 10  1  0  0  0  0
  9  2  1  0  0  0  0
 10 11  2  0  0  0  0
 10125  1  0  0  0  0
 11 12  1  0  0  0  0
 11 19  1  0  0  0  0
 12  9  1  0  0  0  0
 13 14  1  0  0  0  0
 13 85  1  0  0  0  0
 13 94  1  0  0  0  0
 14 15  2  0  0  0  0
 14 16  1  0  0  0  0
 15  5  1  0  0  0  0
 16 17  2  0  0  0  0
 16126  1  0  0  0  0
 17 18  1  0  0  0  0
 17 20  1  0  0  0  0
 18 15  1  0  0  0  0
 19 23  2  0  0  0  0
 20 28  2  0  0  0  0
 21 95  2  0  0  0  0
 22100  2  0  0  0  0
 23 24  1  0  0  0  0
 23127  1  0  0  0  0
 24 25  2  0  0  0  0
 24128  1  0  0  0  0
 25 26  1  0  0  0  0
 25 33  1  0  0  0  0
 26 27  2  0  0  0  0
 26 53  1  0  0  0  0
 27 19  1  0  0  0  0
 28 29  1  0  0  0  0
 28129  1  0  0  0  0
 29 30  2  0  0  0  0
 29130  1  0  0  0  0
 30 31  1  0  0  0  0
 30 35  1  0  0  0  0
 31 32  2  0  0  0  0
 31 69  1  0  0  0  0
 32 20  1  0  0  0  0
 33 34  2  0  0  0  0
 33131  1  0  0  0  0
 34 41  1  0  0  0  0
 35 36  2  0  0  0  0
 35132  1  0  0  0  0
 36 37  1  0  0  0  0
 37 38  1  0  0  0  0
 37 48  2  0  0  0  0
 38 39  1  0  0  0  0
 38 49  1  0  0  0  0
 39 40  1  0  0  0  0
 39 50  2  0  0  0  0
 40 36  1  0  0  0  0
 41 42  1  0  0  0  0
 41 46  2  0  0  0  0
 42 43  1  0  0  0  0
 42 45  1  0  0  0  0
 43 44  1  0  0  0  0
 43 47  2  0  0  0  0
 44 34  1  0  0  0  0
 45 51  1  0  0  0  0
 45133  1  0  0  0  0
 45134  1  0  0  0  0
 47 86  1  0  0  0  0
 47 87  1  0  0  0  0
 49 52  1  0  0  0  0
 49135  1  0  0  0  0
 49136  1  0  0  0  0
 50 88  1  0  0  0  0
 50 89  1  0  0  0  0
 51137  1  0  0  0  0
 51138  1  0  0  0  0
 51139  1  0  0  0  0
 52140  1  0  0  0  0
 52141  1  0  0  0  0
 52142  1  0  0  0  0
 53 54  2  0  0  0  0
 54 55  1  0  0  0  0
 54 57  1  0  0  0  0
 55 56  2  0  0  0  0
 55 58  1  0  0  0  0
 56 27  1  0  0  0  0
 57 64  2  0  0  0  0
 58 59  2  0  0  0  0
 59 60  1  0  0  0  0
 59143  1  0  0  0  0
 60 61  2  0  0  0  0
 60144  1  0  0  0  0
 61 62  1  0  0  0  0
 61145  1  0  0  0  0
 62 63  2  0  0  0  0
 62146  1  0  0  0  0
 63 58  1  0  0  0  0
 63147  1  0  0  0  0
 64 65  1  0  0  0  0
 64148  1  0  0  0  0
 65 66  2  0  0  0  0
 65149  1  0  0  0  0
 66 67  1  0  0  0  0
 66150  1  0  0  0  0
 67 68  2  0  0  0  0
 67151  1  0  0  0  0
 68 57  1  0  0  0  0
 68152  1  0  0  0  0
 69 70  2  0  0  0  0
 70 71  1  0  0  0  0
 70 73  1  0  0  0  0
 71 72  2  0  0  0  0
 71 74  1  0  0  0  0
 72 32  1  0  0  0  0
 73 80  2  0  0  0  0
 74 75  2  0  0  0  0
 75 76  1  0  0  0  0
 75153  1  0  0  0  0
 76 77  2  0  0  0  0
 76154  1  0  0  0  0
 77 78  1  0  0  0  0
 77155  1  0  0  0  0
 78 79  2  0  0  0  0
 78156  1  0  0  0  0
 79 74  1  0  0  0  0
 79157  1  0  0  0  0
 80 81  1  0  0  0  0
 80158  1  0  0  0  0
 81 82  2  0  0  0  0
 81159  1  0  0  0  0
 82 83  1  0  0  0  0
 82160  1  0  0  0  0
 83 84  2  0  0  0  0
 83161  1  0  0  0  0
 84 73  1  0  0  0  0
 84162  1  0  0  0  0
 85105  2  0  0  0  0
 86 92  3  0  0  0  0
 87 93  3  0  0  0  0
 88 91  3  0  0  0  0
 89 90  3  0  0  0  0
 94110  2  0  0  0  0
 95 96  1  0  0  0  0
 95163  1  0  0  0  0
 96 97  2  0  0  0  0
 96164  1  0  0  0  0
 97 98  1  0  0  0  0
 97115  1  0  0  0  0
 98 99  2  0  0  0  0
 98165  1  0  0  0  0
 99 21  1  0  0  0  0
 99166  1  0  0  0  0
100101  1  0  0  0  0
100167  1  0  0  0  0
101102  2  0  0  0  0
101168  1  0  0  0  0
102103  1  0  0  0  0
102117  1  0  0  0  0
103104  2  0  0  0  0
103169  1  0  0  0  0
104 22  1  0  0  0  0
104170  1  0  0  0  0
105106  1  0  0  0  0
105171  1  0  0  0  0
106107  2  0  0  0  0
106172  1  0  0  0  0
107108  1  0  0  0  0
107119  1  0  0  0  0
108109  2  0  0  0  0
108173  1  0  0  0  0
109 85  1  0  0  0  0
109174  1  0  0  0  0
110111  1  0  0  0  0
110175  1  0  0  0  0
111112  2  0  0  0  0
111176  1  0  0  0  0
112113  1  0  0  0  0
112121  1  0  0  0  0
113114  2  0  0  0  0
113177  1  0  0  0  0
114 94  1  0  0  0  0
114178  1  0  0  0  0
115116  1  0  0  0  0
115179  1  0  0  0  0
115180  1  0  0  0  0
116181  1  0  0  0  0
116182  1  0  0  0  0
116183  1  0  0  0  0
117118  1  0  0  0  0
117184  1  0  0  0  0
117185  1  0  0  0  0
118186  1  0  0  0  0
118187  1  0  0  0  0
118188  1  0  0  0  0
119120  1  0  0  0  0
119189  1  0  0  0  0
119190  1  0  0  0  0
120191  1  0  0  0  0
120192  1  0  0  0  0
120193  1  0  0  0  0
121122  1  0  0  0  0
121194  1  0  0  0  0
121195  1  0  0  0  0
122196  1  0  0  0  0
122197  1  0  0  0  0
122198  1  0  0  0  0
M  END
