TPD3.sdf
 OpenBabel12212110083D

164178  0  0  0  0  0  0  0  0999 V2000
    2.8518   -1.1405   -0.0947 C   0  0  0  0  0  0  0  0  0  0  0  0
    2.7803   -0.4387    1.1482 C   0  0  0  0  0  0  0  0  0  0  0  0
    1.9470    0.6832    1.2329 C   0  0  0  0  0  0  0  0  0  0  0  0
    0.9012    0.7615    0.2963 C   0  0  0  0  0  0  0  0  0  0  0  0
    0.6756   -0.3909   -0.4743 C   0  0  0  0  0  0  0  0  0  0  0  0
    1.6554   -1.2841   -0.7867 C   0  0  0  0  0  0  0  0  0  0  0  0
    3.9550   -2.2414   -0.0801 C   0  0  0  0  0  0  0  0  0  0  0  0
    3.4517   -2.6710    1.3125 C   0  0  0  0  0  0  0  0  0  0  0  0
    3.0165   -1.5914    2.0899 C   0  0  0  0  0  0  0  0  0  0  0  0
    2.7090   -3.7992    1.7435 C   0  0  0  0  0  0  0  0  0  0  0  0
    2.1969   -3.7903    3.0301 C   0  0  0  0  0  0  0  0  0  0  0  0
    2.2868   -2.1149    3.5568 S   0  0  0  0  0  0  0  0  0  0  0  0
   -0.3510    1.7122    0.1583 C   0  0  0  0  0  0  0  0  0  0  0  0
   -1.3863    0.5552   -0.0197 C   0  0  0  0  0  0  0  0  0  0  0  0
   -0.7380   -0.5653   -0.4848 C   0  0  0  0  0  0  0  0  0  0  0  0
   -2.7720    0.2206    0.1969 C   0  0  0  0  0  0  0  0  0  0  0  0
   -3.0075   -1.1705    0.0928 C   0  0  0  0  0  0  0  0  0  0  0  0
   -1.6086   -1.9675   -0.5515 S   0  0  0  0  0  0  0  0  0  0  0  0
   -4.1405   -1.9699    0.5031 C   0  0  0  0  0  0  0  0  0  0  0  0
   -0.4973    2.6044    1.3804 C   0  0  0  0  0  0  0  0  0  0  0  0
   -0.4450    2.5118   -1.1879 C   0  0  0  0  0  0  0  0  0  0  0  0
    3.8243   -3.1954   -1.2685 C   0  0  0  0  0  0  0  0  0  0  0  0
    5.3758   -1.6790    0.1352 C   0  0  0  0  0  0  0  0  0  0  0  0
    0.5155   -6.8406    5.2235 C   0  0  0  0  0  0  0  0  0  0  0  0
   -0.0065   -7.6878    6.3071 C   0  0  0  0  0  0  0  0  0  0  0  0
   -1.3021   -7.7108    6.7222 C   0  0  0  0  0  0  0  0  0  0  0  0
   -6.1371   -5.2329    1.4425 C   0  0  0  0  0  0  0  0  0  0  0  0
   -6.8191   -5.8145    2.4488 C   0  0  0  0  0  0  0  0  0  0  0  0
   -7.1362   -5.1628    3.7256 C   0  0  0  0  0  0  0  0  0  0  0  0
   -7.8140   -6.0325    4.5885 N   0  0  0  0  0  0  0  0  0  0  0  0
   -7.8338   -7.3849    4.1914 C   0  0  0  0  0  0  0  0  0  0  0  0
   -7.1356   -7.5272    2.5614 S   0  0  0  0  0  0  0  0  0  0  0  0
   -2.2686   -6.6814    6.3361 C   0  0  0  0  0  0  0  0  0  0  0  0
   -3.5775   -7.1742    6.4313 N   0  0  0  0  0  0  0  0  0  0  0  0
   -3.8126   -8.2626    7.2855 C   0  0  0  0  0  0  0  0  0  0  0  0
   -2.1686   -8.9391    7.6594 S   0  0  0  0  0  0  0  0  0  0  0  0
   -4.5523   -6.5133    5.6039 C   0  0  0  0  0  0  0  0  0  0  0  0
   -1.9372   -5.5671    5.9622 O   0  0  0  0  0  0  0  0  0  0  0  0
   -5.0095   -8.6908    7.8559 C   0  0  0  0  0  0  0  0  0  0  0  0
   -4.9846   -9.6662    9.0214 C   0  0  0  0  0  0  0  0  0  0  0  0
   -6.1691   -7.8907    7.9506 C   0  0  0  0  0  0  0  0  0  0  0  0
    3.8573   -2.6195   -2.5633 C   0  0  0  0  0  0  0  0  0  0  0  0
    3.4210   -3.3153   -3.6940 C   0  0  0  0  0  0  0  0  0  0  0  0
    2.9521   -4.6213   -3.5714 C   0  0  0  0  0  0  0  0  0  0  0  0
    3.0702   -5.2545   -2.3330 C   0  0  0  0  0  0  0  0  0  0  0  0
    3.5550   -4.5637   -1.2135 C   0  0  0  0  0  0  0  0  0  0  0  0
    6.3800   -2.4339    0.7626 C   0  0  0  0  0  0  0  0  0  0  0  0
    7.5740   -1.8289    1.1767 C   0  0  0  0  0  0  0  0  0  0  0  0
    7.7963   -0.4629    0.9622 C   0  0  0  0  0  0  0  0  0  0  0  0
    6.8687    0.2588    0.2099 C   0  0  0  0  0  0  0  0  0  0  0  0
    5.6860   -0.3475   -0.2165 C   0  0  0  0  0  0  0  0  0  0  0  0
    0.2549    3.8089    1.4023 C   0  0  0  0  0  0  0  0  0  0  0  0
    0.2809    4.6498    2.5136 C   0  0  0  0  0  0  0  0  0  0  0  0
   -0.4278    4.2982    3.6589 C   0  0  0  0  0  0  0  0  0  0  0  0
   -1.2015    3.1291    3.6437 C   0  0  0  0  0  0  0  0  0  0  0  0
   -1.2270    2.2828    2.5257 C   0  0  0  0  0  0  0  0  0  0  0  0
    0.5206    2.4323   -2.2124 C   0  0  0  0  0  0  0  0  0  0  0  0
    0.5072    3.3154   -3.3085 C   0  0  0  0  0  0  0  0  0  0  0  0
   -0.4573    4.3227   -3.4079 C   0  0  0  0  0  0  0  0  0  0  0  0
   -1.4716    4.3602   -2.4478 C   0  0  0  0  0  0  0  0  0  0  0  0
   -1.4732    3.4642   -1.3666 C   0  0  0  0  0  0  0  0  0  0  0  0
   -6.6866   -4.0669    4.0094 O   0  0  0  0  0  0  0  0  0  0  0  0
   -7.9994   -5.5654    5.9633 C   0  0  0  0  0  0  0  0  0  0  0  0
   -8.2719   -8.4944    4.8688 C   0  0  0  0  0  0  0  0  0  0  0  0
   -7.9342   -9.8436    4.4438 C   0  0  0  0  0  0  0  0  0  0  0  0
   -9.0887   -8.4426    6.0309 C   0  0  0  0  0  0  0  0  0  0  0  0
   -4.9639  -10.4755    9.9882 N   0  0  0  0  0  0  0  0  0  0  0  0
   -7.1101   -7.2841    8.2232 N   0  0  0  0  0  0  0  0  0  0  0  0
   -9.7993   -8.4832    6.9656 N   0  0  0  0  0  0  0  0  0  0  0  0
   -7.6161  -10.9317    4.1657 N   0  0  0  0  0  0  0  0  0  0  0  0
   -0.3269    5.1449    4.9010 C   0  0  0  0  0  0  0  0  0  0  0  0
   -0.3688    5.3851   -4.4795 C   0  0  0  0  0  0  0  0  0  0  0  0
    8.9863    0.2353    1.5684 C   0  0  0  0  0  0  0  0  0  0  0  0
    2.3362   -5.3302   -4.7476 C   0  0  0  0  0  0  0  0  0  0  0  0
    3.3662   -6.0897   -5.5637 C   0  0  0  0  0  0  0  0  0  0  0  0
   10.2018    0.2340    0.6605 C   0  0  0  0  0  0  0  0  0  0  0  0
   -1.3436    6.2723    4.9319 C   0  0  0  0  0  0  0  0  0  0  0  0
   -1.1067    5.0456   -5.7640 C   0  0  0  0  0  0  0  0  0  0  0  0
   -8.0986   -4.0619    6.2131 C   0  0  0  0  0  0  0  0  0  0  0  0
   -3.9766   -6.0579    4.2596 C   0  0  0  0  0  0  0  0  0  0  0  0
    0.5305   -7.1118    3.8752 C   0  0  0  0  0  0  0  0  0  0  0  0
    1.0398   -6.1063    3.0087 C   0  0  0  0  0  0  0  0  0  0  0  0
    1.5292   -4.9743    3.6536 C   0  0  0  0  0  0  0  0  0  0  0  0
    1.3113   -5.2601    5.3934 S   0  0  0  0  0  0  0  0  0  0  0  0
   -3.9249   -3.6377    1.0749 S   0  0  0  0  0  0  0  0  0  0  0  0
   -5.6254   -3.8802    1.3951 C   0  0  0  0  0  0  0  0  0  0  0  0
   -6.1329   -2.5904    1.4807 C   0  0  0  0  0  0  0  0  0  0  0  0
   -5.4785   -1.7366    0.5830 C   0  0  0  0  0  0  0  0  0  0  0  0
    0.0789   -8.2307    3.0613 C   0  0  0  0  0  0  0  0  0  0  0  0
    0.1035   -7.7607    1.7630 N   0  0  0  0  0  0  0  0  0  0  0  0
    0.8610   -6.6087    1.6507 C   0  0  0  0  0  0  0  0  0  0  0  0
   -0.2813   -8.6302    0.6575 C   0  0  0  0  0  0  0  0  0  0  0  0
   -0.5315   -8.0308   -0.7190 C   0  0  0  0  0  0  0  0  0  0  0  0
   -7.4072   -1.9868    1.7624 C   0  0  0  0  0  0  0  0  0  0  0  0
   -7.6555   -1.1834    0.6686 N   0  0  0  0  0  0  0  0  0  0  0  0
   -6.4867   -0.8515   -0.0081 C   0  0  0  0  0  0  0  0  0  0  0  0
   -8.9159   -1.5409    0.0526 C   0  0  0  0  0  0  0  0  0  0  0  0
   -9.3430   -0.9375   -1.2647 C   0  0  0  0  0  0  0  0  0  0  0  0
    1.3464   -6.1794    0.6127 O   0  0  0  0  0  0  0  0  0  0  0  0
   -0.1871   -9.3404    3.4672 O   0  0  0  0  0  0  0  0  0  0  0  0
   -8.0550   -2.0320    2.7912 O   0  0  0  0  0  0  0  0  0  0  0  0
   -6.3327   -0.1407   -0.9805 O   0  0  0  0  0  0  0  0  0  0  0  0
    2.0845    1.4201    2.0138 H   0  0  0  0  0  0  0  0  0  0  0  0
    1.4198   -2.1839   -1.3455 H   0  0  0  0  0  0  0  0  0  0  0  0
    2.4350   -4.5560    1.0563 H   0  0  0  0  0  0  0  0  0  0  0  0
   -3.5254    0.9274    0.5326 H   0  0  0  0  0  0  0  0  0  0  0  0
    0.6557   -8.4935    6.6228 H   0  0  0  0  0  0  0  0  0  0  0  0
   -5.8399   -5.8615    0.6098 H   0  0  0  0  0  0  0  0  0  0  0  0
   -4.9566   -5.6645    6.1580 H   0  0  0  0  0  0  0  0  0  0  0  0
   -5.3383   -7.2399    5.3917 H   0  0  0  0  0  0  0  0  0  0  0  0
    4.1335   -1.5727   -2.6872 H   0  0  0  0  0  0  0  0  0  0  0  0
    3.3929   -2.8061   -4.6544 H   0  0  0  0  0  0  0  0  0  0  0  0
    2.7429   -6.2851   -2.2086 H   0  0  0  0  0  0  0  0  0  0  0  0
    3.6473   -5.1300   -0.2966 H   0  0  0  0  0  0  0  0  0  0  0  0
    6.2128   -3.4825    0.9994 H   0  0  0  0  0  0  0  0  0  0  0  0
    8.3060   -2.4210    1.7215 H   0  0  0  0  0  0  0  0  0  0  0  0
    7.0292    1.3140   -0.0006 H   0  0  0  0  0  0  0  0  0  0  0  0
    4.9701    0.2676   -0.7584 H   0  0  0  0  0  0  0  0  0  0  0  0
    0.8574    4.0989    0.5399 H   0  0  0  0  0  0  0  0  0  0  0  0
    0.8803    5.5573    2.4837 H   0  0  0  0  0  0  0  0  0  0  0  0
   -1.7712    2.8452    4.5271 H   0  0  0  0  0  0  0  0  0  0  0  0
   -1.7963    1.3603    2.5874 H   0  0  0  0  0  0  0  0  0  0  0  0
    1.3320    1.7099   -2.1680 H   0  0  0  0  0  0  0  0  0  0  0  0
    1.2912    3.2381   -4.0597 H   0  0  0  0  0  0  0  0  0  0  0  0
   -2.2466    5.1221   -2.5017 H   0  0  0  0  0  0  0  0  0  0  0  0
   -2.2544    3.5689   -0.6157 H   0  0  0  0  0  0  0  0  0  0  0  0
   -7.1069   -5.8792    6.4913 H   0  0  0  0  0  0  0  0  0  0  0  0
   -8.8856   -6.0235    6.3901 H   0  0  0  0  0  0  0  0  0  0  0  0
    0.6859    5.5612    4.9749 H   0  0  0  0  0  0  0  0  0  0  0  0
   -0.4523    4.5078    5.7846 H   0  0  0  0  0  0  0  0  0  0  0  0
    0.6865    5.5807   -4.7098 H   0  0  0  0  0  0  0  0  0  0  0  0
   -0.7586    6.3311   -4.0815 H   0  0  0  0  0  0  0  0  0  0  0  0
    9.2358   -0.2375    2.5263 H   0  0  0  0  0  0  0  0  0  0  0  0
    8.7135    1.2702    1.8139 H   0  0  0  0  0  0  0  0  0  0  0  0
    1.8219   -4.6006   -5.3861 H   0  0  0  0  0  0  0  0  0  0  0  0
    1.5571   -6.0184   -4.3961 H   0  0  0  0  0  0  0  0  0  0  0  0
    4.1353   -5.4162   -5.9558 H   0  0  0  0  0  0  0  0  0  0  0  0
    2.8832   -6.5852   -6.4117 H   0  0  0  0  0  0  0  0  0  0  0  0
    3.8629   -6.8555   -4.9590 H   0  0  0  0  0  0  0  0  0  0  0  0
   10.5148   -0.7863    0.4184 H   0  0  0  0  0  0  0  0  0  0  0  0
   11.0379    0.7388    1.1558 H   0  0  0  0  0  0  0  0  0  0  0  0
    9.9967    0.7598   -0.2777 H   0  0  0  0  0  0  0  0  0  0  0  0
   -1.1878    6.9725    4.1042 H   0  0  0  0  0  0  0  0  0  0  0  0
   -1.2515    6.8316    5.8686 H   0  0  0  0  0  0  0  0  0  0  0  0
   -2.3663    5.8884    4.8634 H   0  0  0  0  0  0  0  0  0  0  0  0
   -0.7022    4.1423   -6.2309 H   0  0  0  0  0  0  0  0  0  0  0  0
   -1.0038    5.8687   -6.4812 H   0  0  0  0  0  0  0  0  0  0  0  0
   -2.1749    4.8908   -5.5834 H   0  0  0  0  0  0  0  0  0  0  0  0
   -7.1021   -3.6023    6.2077 H   0  0  0  0  0  0  0  0  0  0  0  0
   -8.5056   -3.8686    7.2084 H   0  0  0  0  0  0  0  0  0  0  0  0
   -8.7250   -3.5726    5.4651 H   0  0  0  0  0  0  0  0  0  0  0  0
   -3.3288   -5.1829    4.3433 H   0  0  0  0  0  0  0  0  0  0  0  0
   -4.7528   -5.7204    3.6059 H   0  0  0  0  0  0  0  0  0  0  0  0
   -3.4361   -6.8594    3.7466 H   0  0  0  0  0  0  0  0  0  0  0  0
    0.4833   -9.4323    0.5908 H   0  0  0  0  0  0  0  0  0  0  0  0
   -1.2111   -9.1196    0.9781 H   0  0  0  0  0  0  0  0  0  0  0  0
   -0.2464   -8.7530   -1.4892 H   0  0  0  0  0  0  0  0  0  0  0  0
    0.0028   -7.1045   -0.9390 H   0  0  0  0  0  0  0  0  0  0  0  0
   -1.5999   -7.8257   -0.8608 H   0  0  0  0  0  0  0  0  0  0  0  0
   -9.7012   -1.3799    0.8040 H   0  0  0  0  0  0  0  0  0  0  0  0
   -8.8719   -2.6301   -0.0969 H   0  0  0  0  0  0  0  0  0  0  0  0
   -9.2773    0.1512   -1.2637 H   0  0  0  0  0  0  0  0  0  0  0  0
  -10.3835   -1.2255   -1.4489 H   0  0  0  0  0  0  0  0  0  0  0  0
   -8.7500   -1.3399   -2.0887 H   0  0  0  0  0  0  0  0  0  0  0  0
  1  2  1  0  0  0  0
  1  7  1  0  0  0  0
  2  3  2  0  0  0  0
  3  4  1  0  0  0  0
  3103  1  0  0  0  0
  4  5  2  0  0  0  0
  4 13  1  0  0  0  0
  5  6  1  0  0  0  0
  6  1  2  0  0  0  0
  6104  1  0  0  0  0
  7  8  1  0  0  0  0
  7 22  1  0  0  0  0
  7 23  1  0  0  0  0
  8  9  2  0  0  0  0
  8 10  1  0  0  0  0
  9  2  1  0  0  0  0
 10 11  2  0  0  0  0
 10105  1  0  0  0  0
 11 12  1  0  0  0  0
 12  9  1  0  0  0  0
 13 14  1  0  0  0  0
 13 20  1  0  0  0  0
 13 21  1  0  0  0  0
 14 15  2  0  0  0  0
 14 16  1  0  0  0  0
 15  5  1  0  0  0  0
 16 17  2  0  0  0  0
 16106  1  0  0  0  0
 17 18  1  0  0  0  0
 17 19  1  0  0  0  0
 18 15  1  0  0  0  0
 19 85  1  0  0  0  0
 20 52  2  0  0  0  0
 21 57  2  0  0  0  0
 22 42  2  0  0  0  0
 23 47  2  0  0  0  0
 24 25  1  0  0  0  0
 24 81  2  0  0  0  0
 25 26  2  0  0  0  0
 25107  1  0  0  0  0
 26 33  1  0  0  0  0
 27 28  2  0  0  0  0
 27108  1  0  0  0  0
 28 29  1  0  0  0  0
 29 30  1  0  0  0  0
 29 62  2  0  0  0  0
 30 31  1  0  0  0  0
 30 63  1  0  0  0  0
 31 32  1  0  0  0  0
 31 64  2  0  0  0  0
 32 28  1  0  0  0  0
 33 34  1  0  0  0  0
 33 38  2  0  0  0  0
 34 35  1  0  0  0  0
 34 37  1  0  0  0  0
 35 36  1  0  0  0  0
 35 39  2  0  0  0  0
 36 26  1  0  0  0  0
 37 80  1  0  0  0  0
 37109  1  0  0  0  0
 37110  1  0  0  0  0
 39 40  1  0  0  0  0
 39 41  1  0  0  0  0
 40 67  3  0  0  0  0
 41 68  3  0  0  0  0
 42 43  1  0  0  0  0
 42111  1  0  0  0  0
 43 44  2  0  0  0  0
 43112  1  0  0  0  0
 44 45  1  0  0  0  0
 44 74  1  0  0  0  0
 45 46  2  0  0  0  0
 45113  1  0  0  0  0
 46 22  1  0  0  0  0
 46114  1  0  0  0  0
 47 48  1  0  0  0  0
 47115  1  0  0  0  0
 48 49  2  0  0  0  0
 48116  1  0  0  0  0
 49 50  1  0  0  0  0
 49 73  1  0  0  0  0
 50 51  2  0  0  0  0
 50117  1  0  0  0  0
 51 23  1  0  0  0  0
 51118  1  0  0  0  0
 52 53  1  0  0  0  0
 52119  1  0  0  0  0
 53 54  2  0  0  0  0
 53120  1  0  0  0  0
 54 55  1  0  0  0  0
 54 71  1  0  0  0  0
 55 56  2  0  0  0  0
 55121  1  0  0  0  0
 56 20  1  0  0  0  0
 56122  1  0  0  0  0
 57 58  1  0  0  0  0
 57123  1  0  0  0  0
 58 59  2  0  0  0  0
 58124  1  0  0  0  0
 59 60  1  0  0  0  0
 59 72  1  0  0  0  0
 60 61  2  0  0  0  0
 60125  1  0  0  0  0
 61 21  1  0  0  0  0
 61126  1  0  0  0  0
 63 79  1  0  0  0  0
 63127  1  0  0  0  0
 63128  1  0  0  0  0
 64 65  1  0  0  0  0
 64 66  1  0  0  0  0
 65 70  3  0  0  0  0
 66 69  3  0  0  0  0
 71 77  1  0  0  0  0
 71129  1  0  0  0  0
 71130  1  0  0  0  0
 72 78  1  0  0  0  0
 72131  1  0  0  0  0
 72132  1  0  0  0  0
 73 76  1  0  0  0  0
 73133  1  0  0  0  0
 73134  1  0  0  0  0
 74 75  1  0  0  0  0
 74135  1  0  0  0  0
 74136  1  0  0  0  0
 75137  1  0  0  0  0
 75138  1  0  0  0  0
 75139  1  0  0  0  0
 76140  1  0  0  0  0
 76141  1  0  0  0  0
 76142  1  0  0  0  0
 77143  1  0  0  0  0
 77144  1  0  0  0  0
 77145  1  0  0  0  0
 78146  1  0  0  0  0
 78147  1  0  0  0  0
 78148  1  0  0  0  0
 79149  1  0  0  0  0
 79150  1  0  0  0  0
 79151  1  0  0  0  0
 80152  1  0  0  0  0
 80153  1  0  0  0  0
 80154  1  0  0  0  0
 81 82  1  0  0  0  0
 81 89  1  0  0  0  0
 82 83  2  0  0  0  0
 83 84  1  0  0  0  0
 83 11  1  0  0  0  0
 84 24  1  0  0  0  0
 85 86  1  0  0  0  0
 86 87  2  0  0  0  0
 86 27  1  0  0  0  0
 87 88  1  0  0  0  0
 87 94  1  0  0  0  0
 88 19  2  0  0  0  0
 89 90  1  0  0  0  0
 89100  2  0  0  0  0
 90 91  1  0  0  0  0
 90 92  1  0  0  0  0
 91 82  1  0  0  0  0
 91 99  2  0  0  0  0
 92 93  1  0  0  0  0
 92155  1  0  0  0  0
 92156  1  0  0  0  0
 93157  1  0  0  0  0
 93158  1  0  0  0  0
 93159  1  0  0  0  0
 94 95  1  0  0  0  0
 94101  2  0  0  0  0
 95 96  1  0  0  0  0
 95 97  1  0  0  0  0
 96 88  1  0  0  0  0
 96102  2  0  0  0  0
 97 98  1  0  0  0  0
 97160  1  0  0  0  0
 97161  1  0  0  0  0
 98162  1  0  0  0  0
 98163  1  0  0  0  0
 98164  1  0  0  0  0
M  END
