120
p-DOC6-2F.sdf
C         -4.46143       -9.50145        5.22331
O         -3.27918       -9.76526        5.31104
C         -5.45937      -10.50209        4.93377
C         -5.26315      -11.83875        4.59706
C         -6.36730      -12.58088        4.15690
C         -7.63303      -11.97418        4.06163
C         -7.81036      -10.64305        4.46459
C         -6.70018       -9.92119        4.92753
C         -6.59241       -8.51138        5.37103
C         -7.62359       -7.79547        5.92294
C         -7.49578       -6.42273        6.31041
N         -7.34620       -5.31658        6.60869
C         -8.87844       -8.45466        6.24924
N         -9.83083       -9.07904        6.46576
C         -5.12961       -8.16641        5.16237
F         -8.68362      -12.66856        3.56033
C         -4.58506       -6.94633        4.83040
F         -6.20165      -13.86934        3.77313
C          1.85359        0.05437       18.31434
O          1.95707        0.80728       17.35903
C          1.22352        0.37539       19.60451
C          0.65811        1.57683       20.03883
C          0.29889        1.69318       21.39338
C          0.49520        0.61395       22.27927
C          0.98658       -0.61387       21.80623
C          1.33808       -0.71570       20.45738
C          1.88923       -1.85534       19.70395
C          1.71834       -3.20008       19.95362
C          2.16304       -4.23088       19.03671
N          2.54120       -5.01361       18.27058
C          0.95500       -3.72569       21.05438
N          0.36002       -4.24600       21.89941
C          2.52616       -1.24445       18.50004
F          0.22363        0.76488       23.59952
C          3.51517       -1.87321       17.83901
F         -0.19561        2.86668       21.85996
C          4.35777       -1.66668       16.64847
S          4.82865       -3.12635       15.92767
C          5.53309       -2.35294       14.67443
C          5.50666       -1.00466       14.74231
C          4.79802       -0.55501       15.87760
C          5.74922       -2.71412       13.34830
C          5.85106       -1.64573       12.56994
C          6.11512       -0.44518       13.44420
S          5.33615       -4.00160       12.49548
C          5.05407       -3.19872       11.03630
C          5.46501       -1.88428       11.23753
C          4.36748       -3.74353        9.80309
C          4.41057       -5.08672        9.43025
C          3.71394       -5.51074        8.24031
C          2.98030       -4.57170        7.43450
C          2.99244       -3.21379        7.82956
C          3.68231       -2.85149        8.99267
C          2.22122       -4.99205        6.19419
S          1.58911       -6.55804        6.00976
C          0.67396       -6.16104        4.68435
C          0.87382       -4.87701        4.26276
C          1.73997       -4.17156        5.12597
C         -0.65801       -6.54231        4.32517
C         -1.22589       -5.52248        3.64207
C         -0.15193       -4.52877        3.17942
S         -1.79758       -7.54278        5.00362
C         -3.13967       -6.65985        4.45568
C         -2.63362       -5.55495        3.69774
O          5.18364       -5.86369       10.24523
C          0.37416       -5.06459        1.78578
C          1.46690       -4.24902        1.08813
C          7.68215       -0.35440       13.65169
C          8.19609        0.81154       14.50785
O          2.34772       -2.26881        7.08329
C          2.69272       -0.92924        6.93097
C          2.00268        0.00742        7.92858
C          5.87859       -7.00113        9.94722
C          6.60935       -7.59534       11.13146
C          5.47476        0.83483       12.86415
C          3.94691        0.81925       12.71154
C         -0.61934       -3.04143        3.12451
C         -1.09297       -2.41763        4.44536
H         -4.27502      -12.27717        4.62556
H         -8.78281      -10.18787        4.35344
H         -5.27909       -6.12231        4.71562
H          0.54249        2.41683       19.36634
H          1.14222       -1.43877       22.48852
H          3.81921       -2.78042       18.31323
H          4.58670        0.48487       16.08871
H          5.40250       -1.13971       10.48408
H          3.75718       -6.54420        7.92370
H          3.70706       -1.84881        9.31371
H          1.92438       -3.10951        5.03816
H         -3.21694       -4.77543        3.24676
H          0.76217       -6.10392        1.90448
H         -0.45483       -5.11643        1.05182
H          2.36435       -4.02255        1.69287
H          1.75478       -4.67523        0.12499
H          1.05162       -3.35581        0.66456
H          8.05619       -1.29915       14.12094
H          8.20483       -0.25025       12.68145
H          7.74632        0.89417       15.51874
H          9.29134        0.79855       14.58406
H          8.10061        1.74807       13.97185
H          3.79543       -0.81357        6.96771
H          2.36831       -0.58998        5.91993
H          2.24219       -0.19541        8.99537
H          2.32402        1.04185        7.71668
H          0.90849        0.02424        7.77354
H          5.11541       -7.73925        9.81146
H          6.64750       -6.77101        9.15763
H          5.88576       -7.93248       11.90514
H          7.18936       -8.48643       10.79013
H          7.29995       -6.85084       11.54513
H          5.76802        1.69738       13.49418
H          5.85799        0.99678       11.83828
H          3.37714        0.72915       13.62090
H          3.57234        1.79442       12.38363
H          3.59761        0.02249       12.03860
H          0.19290       -2.40867        2.70182
H         -1.50071       -2.96653        2.46228
H         -0.37139       -2.27417        5.21805
H         -1.34621       -1.36341        4.33472
H         -1.92595       -2.96196        4.89881
