134
P-IDTzR.sdf
C          2.76622       -1.29731       -0.66286
C          2.83498       -0.57708        0.52853
C          1.92356        0.41944        0.86812
C          0.87666        0.66802       -0.03970
C          0.80586       -0.06570       -1.22684
C          1.74282       -1.03713       -1.58439
C          3.87549       -2.34328       -0.75735
C          4.54103       -2.09070        0.58314
C          3.95232       -1.07518        1.26258
C          5.61180       -2.64676        1.26500
C          5.81714       -2.00441        2.49689
S          4.69161       -0.75143        2.73149
C         -0.26670        1.69590        0.05371
C         -1.00128        1.33669       -1.23223
C         -0.36503        0.35787       -1.91923
C         -2.17750        1.76234       -1.85289
C         -2.42356        1.02985       -3.02289
S         -1.17419       -0.09022       -3.30977
C          6.82191       -2.42263        3.47098
C         -3.63048        1.13916       -3.84433
C         -1.10100        1.47304        1.33725
C          0.23331        3.14171       -0.05786
C          3.33430       -3.79080       -0.83414
C          4.82874       -1.97097       -1.91453
C          1.95527       -4.09753       -0.85464
C          1.50915       -5.41296       -0.97432
C          2.42147       -6.46919       -1.07696
C          3.79430       -6.18878       -1.02622
C          4.24458       -4.86983       -0.89938
C          5.60579       -0.79256       -1.82863
C          6.49977       -0.43753       -2.84463
C          6.62475       -1.22797       -3.99722
C          5.84003       -2.38602       -4.10539
C          4.96637       -2.75956       -3.07803
C         -0.53010        1.73372        2.60162
C         -1.24852        1.52173        3.78310
C         -2.57282        1.06473        3.74169
C         -3.16141        0.81684        2.49415
C         -2.43922        1.01142        1.31171
C          1.60077        3.44898       -0.23874
C          2.03305        4.76324       -0.38023
C          1.11588        5.82622       -0.34513
C         -0.24497        5.53235       -0.15842
C         -0.68170        4.20960       -0.01933
C         -3.34997        0.82574        5.01592
C          1.53010        7.27536       -0.50975
C          7.56709       -0.80794       -5.10648
C          1.92604       -7.88625       -1.23565
C          8.51219       -1.92180       -5.56212
C          1.11085       -8.05816       -2.51974
C         -3.48780        2.09557        5.85424
C          3.02832        7.50654       -0.72855
S         -3.98298        0.16926       -5.17171
C         -5.52228        0.81423       -5.37539
C         -5.69149        1.81926       -4.41766
N         -4.64512        1.98296       -3.56754
S          7.62837       -3.87099        3.35395
C          8.39469       -3.72291        4.83273
C          8.04430       -2.47572        5.35576
N          7.14383       -1.77007        4.61026
C         -6.43287        0.36405       -6.45565
C          9.31664       -4.69874        5.46440
C          9.44447       -6.02241        5.19111
C          8.64919       -6.88738        4.28158
N          9.11424       -8.14747        4.15689
C         10.25176       -8.37007        4.98152
S         10.72279       -6.98132        6.01898
O          7.62370       -6.54107        3.72367
C          8.46969       -9.14671        3.29699
C          8.52737       -8.73608        1.82093
S         10.95541       -9.62285        5.06404
C         -7.77966        0.45046       -6.52246
C         -8.73940        0.91447       -5.49965
N        -10.01843        0.97505       -5.92847
C        -10.14444        0.54233       -7.27910
S         -8.63308       -0.08372       -8.01545
S        -11.40690        0.40596       -7.95754
C        -11.11983        1.43313       -5.08609
C        -11.51694        2.85572       -5.46634
O         -8.43501        1.19583       -4.35349
H          2.03905        0.95088        1.79601
H          1.65963       -1.59051       -2.51115
H          6.20257       -3.47279        0.89659
H         -2.84015        2.51844       -1.45387
H          1.19147       -3.34378       -0.78398
H          0.44451       -5.60366       -0.99552
H          4.52222       -6.98771       -1.09648
H          5.31184       -4.68899       -0.88554
H          5.53421       -0.14389       -0.96551
H          7.08046        0.47015       -2.73504
H          5.90553       -3.01400       -4.98324
H          4.39383       -3.66312       -3.21849
H          0.47594        2.10770        2.68733
H         -0.76686        1.71839        4.73239
H         -4.18275        0.46329        2.43187
H         -2.95001        0.78973        0.38986
H          2.36109        2.68653       -0.29518
H          3.09139        4.92597       -0.52539
H         -0.97428        6.33245       -0.12844
H         -1.73855        4.01916        0.11504
H         -4.37214        0.45454        4.78281
H         -2.83415        0.04671        5.61698
H          0.98973        7.69566       -1.38529
H          1.22166        7.83594        0.39842
H          6.96656       -0.49182       -5.98479
H          8.17698        0.06379       -4.77902
H          2.78114       -8.59564       -1.27432
H          1.29540       -8.15228       -0.36105
H          7.93790       -2.75942       -6.01125
H          9.18950       -1.52869       -6.35040
H          9.12275       -2.30524       -4.71904
H          1.73112       -7.81194       -3.40798
H          0.76776       -9.11059       -2.60562
H          0.21331       -7.40435       -2.51491
H         -4.01205        2.88595        5.27696
H         -4.07558        1.87214        6.76992
H         -2.49220        2.47208        6.16926
H          3.36966        6.99396       -1.65405
H          3.22652        8.59252       -0.84131
H          3.61118        7.13456        0.14129
H         -6.54942        2.46347       -4.34308
H          8.41894       -2.10255        6.30012
H         -5.93677       -0.10571       -7.30010
H          9.96513       -4.29051        6.23429
H          8.96339      -10.13532        3.38326
H          7.40946       -9.27544        3.60522
H          9.58322       -8.62055        1.49785
H          8.04445       -9.51760        1.19728
H          7.99171       -7.78225        1.63659
H        -11.97745        0.72984       -5.15800
H        -10.81778        1.46179       -4.01687
H        -11.84577        2.91501       -6.52298
H        -12.33996        3.20381       -4.80816
H        -10.64301        3.52887       -5.32287
