162
p-INPOIC.sdf
C          1.05707        0.95659       -0.53251
C          1.50011        1.25558        0.74194
C          1.74179        2.60039        1.42772
C          2.75302        2.32179        2.48265
C          2.86910        0.94224        2.64832
C          2.11468        0.24405        1.61455
O          2.08784       -0.96735        1.45256
C          0.94258        3.72193        1.55276
C          1.46881        5.04381        1.85041
N          1.79094        6.13080        2.07991
C         -0.52046        3.67142        1.31617
N         -1.66445        3.65397        1.13607
C          3.36899        3.18692        3.39778
C          4.09087        2.64683        4.46969
C          4.18958        1.25450        4.63489
C          3.58303        0.38873        3.71365
C          3.34567       17.20132      -11.98228
C          3.45682       17.59977      -13.28479
C          4.21537       18.74019      -13.92744
C          4.34075       18.34725      -15.36356
C          3.46052       17.31883      -15.62236
C          2.79768       16.93258      -14.42112
C          5.16236       18.81969      -16.39729
C          5.05852       18.22659      -17.67037
C          4.12095       17.20346      -17.90971
C          3.30652       16.74609      -16.87464
O          1.82060       16.20008      -14.38624
C          4.59051       19.93494      -13.39833
C          5.10032       20.99765      -14.25180
C          4.27813       20.29574      -12.04206
N          4.04649       20.64333      -10.95358
N          5.50405       21.80550      -14.98117
C          0.69439        1.95559       -1.60981
S          0.76457        1.83969       -3.31212
C          0.21792        3.44530       -3.56549
C         -0.04802        4.04190       -2.41120
C          0.29566        3.22635       -1.38219
C         -0.01309        4.40405       -4.51251
C         -0.46858        5.56247       -3.88825
N         -0.53293        5.32740       -2.52000
S          0.18280        4.53486       -6.17119
C         -0.32853        6.15652       -6.11349
C         -0.68483        6.63836       -4.84858
C         -0.32980        7.20125       -7.11445
C         -0.71974        8.36489       -6.48054
C         -1.10198        8.16700       -5.00529
C          0.04562        7.19338       -8.47856
C          0.19379        8.46659       -9.12962
C         -0.15046        9.59207       -8.43321
C         -0.71202        9.56832       -7.18588
C          0.72613        8.89850      -10.52110
C          0.80991       10.48136      -10.35278
C          0.25508       10.75854       -9.13033
C          1.26163       11.74883      -10.91986
C          1.09520       12.77432      -10.01089
S          0.34427       12.35841       -8.58365
N          1.86387       12.26562      -12.06079
C          2.10001       13.59760      -11.74274
C          1.64980       13.90722      -10.51471
C          2.71643       14.70719      -12.36798
C          2.70901       15.88393      -11.57870
S          1.97311       15.50991      -10.08255
C         -2.64140        8.39136       -4.92827
C         -0.23647        9.17715       -4.16706
C          2.11406        8.28263      -10.73343
C         -0.31926        8.46456      -11.56181
C         -0.27321       10.57362       -4.32486
C          0.51909       11.42250       -3.57744
C          1.45182       10.93977       -2.65966
C          1.54594        9.57957       -2.50795
C          0.67899        8.77890       -3.19290
C         -3.44916        8.04918       -6.02964
C         -4.81990        8.13839       -6.00780
C         -5.49759        8.62625       -4.88381
C         -4.71627        9.09338       -3.81488
C         -3.31717        8.97988       -3.83815
C          2.29141        6.90850      -10.72829
C          3.48447        6.32183      -11.00321
C          4.63499        7.05770      -11.27869
C          4.52714        8.45518      -11.18368
C          3.27095        9.03909      -10.89590
C         -0.94369        9.43869      -12.32403
C         -1.90118        9.12363      -13.24198
C         -2.32714        7.81616      -13.49034
C         -1.77415        6.83674      -12.65906
C         -0.77632        7.13548      -11.74230
F          4.85256        0.74739        5.70328
F          4.01779       16.63738      -19.13591
C         -0.99195        6.16163       -1.37199
C         -2.17295        6.98620       -1.75413
C          2.16723       11.60589      -13.34917
C          3.54153       10.98909      -13.40341
O          2.21081       11.76947       -1.90406
C          2.11368       13.15613       -1.95347
O         -6.86631        8.66042       -4.86586
C         -7.67623        8.57418       -3.72849
O          5.81150        6.44223      -11.60417
C          6.01620        5.05889      -11.69572
O         -3.23607        7.49862      -14.46741
C         -3.77099        8.39169      -15.40258
F          4.65951        3.47927        5.37595
F          5.87435       18.63375      -18.67165
C          1.07748       13.69718       -0.97271
C         -8.64740        7.38751       -3.82836
C          5.75057        4.47933      -13.09647
C         -4.56871        9.52533      -14.76157
H          1.07707       -0.09020       -0.83719
H          3.27965        4.25665        3.33691
H          3.63838       -0.68408        3.84953
H          3.81281       17.78884      -11.19899
H          5.89598       19.59136      -16.23662
H          2.59694       15.94238      -17.02792
H          0.32930        3.51345       -0.55624
H          0.29259        6.24927       -8.92787
H         -1.02553       10.49725       -6.79698
H          3.20117       14.72675      -13.31670
H         -0.89634       11.10789       -4.97797
H          0.36460       12.46259       -3.74448
H          2.24962        9.07050       -1.85273
H          0.80708        7.85687       -2.85395
H         -3.05403        7.70974       -6.96232
H         -5.28465        7.79617       -6.91242
H         -5.18145        9.56331       -2.96273
H         -2.78425        9.35944       -2.98395
H          1.54377        6.19646      -10.51669
H          3.40698        5.26517      -10.98662
H          5.38453        9.10086      -11.33306
H          3.19493       10.10851      -10.85214
H         -0.70670       10.48108      -12.23719
H         -2.23955        9.98165      -13.69488
H         -2.07155        5.81832      -12.65274
H         -0.42743        6.27500      -11.20634
H         -1.43397        5.53277       -0.57147
H         -0.20656        6.84062       -0.98932
H         -2.80576        6.47203       -2.41949
H         -2.73261        7.57321       -1.00273
H         -1.88264        7.58123       -2.53208
H          1.45786       10.77789      -13.55090
H          2.13166       12.35844      -14.16760
H          3.57605       10.16524      -12.76242
H          3.74799       10.51433      -14.37639
H          4.31421       11.74173      -13.18791
H          3.09270       13.62163       -1.76076
H          1.82603       13.50234       -2.95768
H         -7.08648        8.44056       -2.80318
H         -8.27276        9.49750       -3.60316
H          7.06439        4.82602      -11.42500
H          5.38032        4.50837      -10.98054
H         -2.97058        8.86356      -16.00043
H         -4.45425        7.86672      -16.10808
H          1.35749       13.49712        0.08001
H          1.01446       14.80040       -1.08527
H          0.07841       13.25935       -1.18584
H         -8.10637        6.42439       -3.96761
H         -9.24990        7.28622       -2.90200
H         -9.38122        7.55657       -4.64189
H          6.32007        5.00463      -13.89111
H          6.04426        3.41339      -13.13966
H          4.67390        4.44087      -13.33659
H         -3.98955       10.24958      -14.22431
H         -5.00307       10.18939      -15.49355
H         -5.42535        9.17967      -14.18646
