159
p-IO1.sdf
C         -1.38683       -0.30194        5.23459
O         -1.63262        0.72619        4.63438
C         -2.41702       -1.05741        5.84978
C         -3.70417       -0.60547        6.09379
C         -4.60207       -1.47505        6.69246
C         -4.19230       -2.77192        7.03905
C         -2.87747       -3.20578        6.76913
C         -1.97561       -2.31834        6.14922
C         -0.55604       -2.44881        5.66813
C          0.09403       -3.62558        5.50954
C          1.41774       -3.75544        4.92586
N          2.46206       -3.97823        4.47283
C         -0.56031       -4.88618        5.81771
N         -1.01520       -5.93013        6.03862
C         -0.11175       -1.04963        5.29140
F         -5.86307       -1.05952        6.93403
F         -5.07430       -3.61150        7.62793
C         -8.49046        2.68711        6.60866
O         -7.63678        2.60323        5.76208
C         -8.96745        1.51417        7.22556
C         -8.53526        0.23965        6.90899
C         -9.12704       -0.83493        7.54528
C        -10.11551       -0.61508        8.51737
C        -10.53488        0.70005        8.82778
C         -9.94901        1.78919        8.13848
C        -10.23919        3.26784        8.06766
C        -11.36714        3.84265        8.56597
C        -11.75671        5.17795        8.19579
N        -12.05419        6.24815        7.89008
C        -12.33044        3.12580        9.37143
N        -13.14033        2.60906       10.01802
C         -9.17464        3.87734        7.14794
F         -8.75392       -2.08579        7.19265
F        -10.68961       -1.68125        9.12634
C          1.14675       -0.56540        5.03402
C          1.51054        0.88825        4.73546
C          2.58427        1.25874        3.97608
C          2.82968        2.63165        3.73924
C          1.87619        3.45885        4.41391
S          0.80900        2.35580        5.19375
C          1.75915        4.98572        4.43496
S          1.12740        6.05738        5.63798
C          1.41275        7.49002        4.75004
C          1.88950        7.14903        3.52180
C          2.06144        5.80560        3.34718
C          0.75951        8.78617        4.59412
C          0.74157        8.93529        3.20240
C          1.98896        8.32388        2.58100
C         -0.14385        9.44303        5.45512
C         -1.21447       10.17681        4.83117
C         -1.44862        9.72690        3.54969
C         -0.54074        9.16526        2.69439
C         -2.52564       10.96520        5.24493
C         -3.38924        9.91593        4.68734
C         -2.82734        9.42171        3.57999
C         -4.51686        9.25867        5.13629
C         -4.76963        8.07214        4.43017
S         -3.61220        8.04926        3.17753
C         -5.80053        7.02202        4.80973
S         -6.85347        7.16017        6.15526
C         -7.71327        5.70254        6.00195
C         -7.16623        5.10055        4.86256
C         -6.10996        5.77624        4.20583
C         -8.84853        5.19814        6.90319
O          3.89362        3.03415        2.95009
C          4.80880        2.13469        2.35066
C          4.86831        2.12552        0.82426
C          3.26510        9.18321        3.05307
C          1.88484        8.08734        1.01340
C         -2.70360       11.24559        6.77874
C         -2.85710       12.22388        4.26056
C         -5.47050        5.13981        2.96296
C         -3.99423        4.84509        3.12193
C          4.01571        8.86804        4.24101
C          5.10108        9.64092        4.68331
C          5.52615       10.75084        3.95163
C          4.80761       11.08966        2.81205
C          3.70649       10.35682        2.39226
C          1.09660        8.93593        0.17975
C          0.92345        8.74979       -1.17180
C          1.60334        7.74582       -1.82198
C          2.44305        6.91045       -1.07346
C          2.55726        7.05322        0.31641
C         -3.35537       12.41017        7.23725
C         -3.42101       12.77975        8.55861
C         -2.90408       11.96157        9.53901
C         -2.33356       10.74245        9.16100
C         -2.22870       10.39039        7.80688
C         -4.19659       12.67487        3.98937
C         -4.47118       13.74730        3.11571
C         -3.43698       14.42970        2.47384
C         -2.14308       14.00724        2.68657
C         -1.86429       12.94011        3.52476
C          1.40655        7.57722       -3.29492
C          6.70298       11.59554        4.38926
C         -3.03865       12.38398       10.96338
C         -3.67739       15.57758        1.54045
C          7.44903       12.21076        3.19873
C          1.79969        8.83987       -4.06402
C         -4.34708       11.86679       11.55607
C         -3.68292       16.91540        2.27718
H         -3.99302        0.40363        5.82028
H         -2.60922       -4.20442        7.05164
H         -7.77598        0.09311        6.15081
H        -11.31386        0.81179        9.56001
H          1.98928       -1.26794        5.08494
H          3.14089        0.49231        3.57124
H          2.33162        5.50082        2.40826
H         -0.06932        9.24358        6.50878
H         -0.91140        8.84362        1.73314
H         -5.02335        9.63314        5.98410
H         -7.52049        4.20240        4.43095
H         -9.40206        5.95537        7.45505
H          5.81272        2.19880        2.78766
H          4.58177        1.13895        2.55765
H          5.45671        3.00111        0.53988
H          5.41448        1.24483        0.41347
H          3.88706        2.03724        0.31807
H         -5.91453        4.13401        2.77517
H         -5.61388        5.77879        2.07449
H         -3.90801        4.17785        3.97786
H         -3.45984        4.37236        2.27960
H         -3.43394        5.73448        3.23884
H          3.78211        8.03795        4.88525
H          5.60494        9.36752        5.60232
H          5.07606       11.94074        2.21538
H          3.25100       10.78661        1.53595
H          0.54810        9.78157        0.48613
H          0.24541        9.41937       -1.69391
H          3.00766        6.12746       -1.54792
H          3.18120        6.32425        0.78541
H         -3.86587       13.10189        6.63447
H         -3.89991       13.72457        8.78139
H         -1.96167       10.05950        9.90509
H         -1.77652        9.44328        7.62465
H         -5.07471       12.22843        4.41947
H         -5.49577       14.04503        2.94581
H         -1.30637       14.49793        2.20692
H         -0.82385       12.76241        3.52812
H          2.01435        6.72055       -3.63819
H          0.33354        7.35457       -3.49234
H          6.34541       12.41911        5.04321
H          7.41485       10.97794        4.97727
H         -2.17392       11.99891       11.53550
H         -3.03226       13.49846       11.01028
H         -2.87122       15.58956        0.77073
H         -4.64385       15.42369        1.02334
H          6.79735       12.90258        2.62625
H          8.29841       12.81637        3.55375
H          7.81745       11.41165        2.52139
H          2.86756        9.08445       -3.89753
H          1.64990        8.67208       -5.14731
H          1.17348        9.70569       -3.75210
H         -4.36574       10.75653       11.54056
H         -4.43820       12.20792       12.60728
H         -5.21989       12.25462       10.98432
H         -2.69946       17.12681        2.74824
H         -3.87968       17.73198        1.55293
H         -4.47252       16.91800        3.05817
