128
PBI.sdf
C          2.53512       -0.73377        1.81906
C          1.66987       -1.43551        2.87318
C          0.80613       -2.50036        2.20223
C         -0.08932       -1.94664        1.05017
C          0.75948       -1.10695        0.06601
C          1.62699       -0.05483        0.79045
N         -0.87059       -3.01418        0.32022
C         -2.11930       -2.70084       -0.20107
C         -2.90319       -3.67854       -0.86140
C         -2.43413       -4.99704       -1.00619
C         -1.15842       -5.29254       -0.53634
C         -0.38755       -4.30624        0.11171
O          0.72959       -4.61912        0.47222
O         -2.55977       -1.56715       -0.08466
C         -3.23686       -6.00823       -1.61670
C         -2.69091       -7.32953       -1.79974
C         -1.29600       -7.58228       -1.40677
C         -0.62852       -6.56488       -0.73174
C         -4.14577       -3.34909       -1.39340
C         -4.95428       -4.31005       -1.96425
C         -4.57227       -5.66026       -2.04683
C         -5.46402       -6.63796       -2.58275
C         -4.90632       -7.95270       -2.78566
C         -3.55541       -8.29202       -2.40626
C         -5.70439       -8.95613       -3.41421
C         -5.19354      -10.22525       -3.71374
C         -3.91284      -10.53798       -3.29344
C         -3.13100       -9.61730       -2.63593
C         -6.87925       -6.40259       -2.94028
C         -7.55138       -7.45300       -3.53018
C         -7.00532       -8.68922       -3.79137
C         -7.78835       -9.65405       -4.44963
N         -7.30411      -10.92799       -4.73511
C         -5.97412      -11.17885       -4.41281
O         -5.45203      -12.23038       -4.74695
C         -8.12103      -12.00824       -5.41929
C         -9.60758      -11.65720       -5.72818
C        -10.46776      -11.58335       -4.43194
C        -10.49472      -12.93576       -3.72219
C         -9.07741      -13.42356       -3.39550
C         -8.17261      -13.38292       -4.66005
O         -8.89889       -9.31290       -4.80464
O         -0.59924       -8.76193       -1.66353
C          0.75196       -9.02856       -1.90766
C          1.74406       -8.02066       -2.01164
C          3.06688       -8.30443       -2.32369
C          3.47697       -9.60140       -2.58677
C          2.54502      -10.64463       -2.48647
C          1.19556      -10.36633       -2.14300
C          4.86241       -9.80040       -3.07708
C          5.93262      -10.02963       -2.29408
C          7.27878      -10.16814       -2.90453
C          5.78462      -10.16817       -0.86059
N          5.64014      -10.27459        0.28161
C          8.11270       -9.05270       -3.10884
C          9.38334       -9.21372       -3.67884
C          9.84178      -10.48870       -4.06328
C          8.99932      -11.59689       -3.85962
C          7.73352      -11.43611       -3.28520
N         11.13296      -10.65622       -4.65262
O         11.85499       -9.71791       -4.81085
O         11.53977      -11.84562       -5.04411
O         -7.58901       -5.21105       -2.77806
C         -8.93915       -4.85114       -2.92644
C        -10.04904       -5.74752       -2.86298
C        -11.36273       -5.31786       -3.00354
C        -11.67656       -3.97330       -3.16947
C        -10.61593       -3.05607       -3.26607
C         -9.27241       -3.48574       -3.13997
C        -13.13426       -3.63693       -3.17430
C        -13.72266       -2.46396       -2.82120
C        -15.20942       -2.32395       -2.80645
C        -12.96980       -1.30851       -2.38175
N        -12.41964       -0.35565       -2.02290
C        -15.82187       -1.42168       -1.91365
C        -17.20475       -1.25937       -1.89906
C        -18.01695       -1.98275       -2.78861
C        -17.41024       -2.88527       -3.67923
C        -16.02634       -3.06166       -3.68196
N        -19.43083       -1.80112       -2.79396
O        -19.94695       -1.03318       -2.03883
O        -20.18472       -2.46489       -3.64430
H          3.19158        0.01271        2.31335
H          3.19232       -1.47054        1.29994
H          2.33341       -1.94186        3.60996
H          1.03992       -0.69647        3.40885
H          1.57681       -3.18324        1.82772
H          0.17739       -3.02137        2.95629
H         -0.80347       -1.24936        1.55204
H          1.43760       -1.78623       -0.48884
H          0.10163       -0.58517       -0.66336
H          0.99092        0.69814        1.30803
H          2.25595        0.47969        0.04640
H          0.34591       -6.75913       -0.33517
H         -4.51356       -2.33410       -1.36630
H         -5.87067       -3.93519       -2.35617
H         -3.50504      -11.52214       -3.45229
H         -2.19606      -10.02277       -2.34168
H         -8.53617       -7.32297       -3.85599
H         -7.61749      -12.19959       -6.39550
H         -9.67827      -10.74225       -6.35109
H        -10.04720      -12.44628       -6.37369
H        -10.10447      -10.84341       -3.69416
H        -11.50221      -11.28774       -4.70078
H        -11.08383      -12.84728       -2.78070
H        -10.99765      -13.66693       -4.38765
H         -9.14194      -14.47815       -3.03098
H         -8.68648      -12.82171       -2.54778
H         -8.61709      -14.11237       -5.37335
H         -7.16471      -13.77931       -4.43654
H          1.56177       -6.97661       -1.90850
H          3.77003       -7.48482       -2.39790
H          2.86606      -11.65990       -2.70458
H          0.50536      -11.20268       -2.10872
H          5.00218       -9.69646       -4.15234
H          7.79111       -8.05681       -2.82963
H         10.00864       -8.34067       -3.82441
H          9.32021      -12.59068       -4.14354
H          7.10286      -12.30268       -3.13662
H        -10.00594       -6.80047       -2.67326
H        -12.15027       -6.06044       -2.93265
H        -10.81873       -2.01174       -3.44757
H         -8.49892       -2.73078       -3.20376
H        -13.78979       -4.47858       -3.38587
H        -15.23442       -0.84675       -1.20809
H        -17.63487       -0.55981       -1.19357
H        -18.00295       -3.45223       -4.38419
H        -15.60094       -3.75077       -4.39873
