250
PF3-DTCO.sdf
C         24.08675        6.30370        3.63584
C         23.93322        7.61173        3.15129
C         24.78393        8.60907        3.75757
C         25.79928        8.12442        4.66568
C         25.93013        6.74449        4.95244
C         25.01954        5.85530        4.51337
C         26.87993        8.73956        5.44186
C         27.65112        7.72956        5.93206
C         27.11196        6.35412        5.78887
C         23.15505        5.46759        3.08953
C         22.44992        6.09568        2.13542
C         23.10699        7.46735        1.78371
S         27.43209       10.22356        6.12509
C         28.66650        9.42998        7.03521
C         28.67419        8.15410        6.67984
S         22.64049        3.97221        3.65529
C         21.31892        4.15542        2.66821
C         21.29876        5.30401        1.93961
C         31.50455        8.24893        9.38314
C         31.75833        6.99895        9.95538
C         30.94136        5.72818        9.81841
C         31.54202        4.65623       10.46879
C         32.72930        5.02850       11.02546
C         33.00007        6.50257       10.72827
C         31.03314        3.35174       10.45988
C         31.76808        2.35512       11.07305
C         32.97263        2.68631       11.69747
C         33.45951        4.01032       11.68057
O         29.95959        5.45362        9.16780
C         34.20162        7.12931       10.95445
C         34.43427        8.53482       10.68554
C         35.35986        6.35285       11.37511
N         36.33421        5.82049       11.71117
N         34.66852        9.65276       10.48813
C         18.00936        3.03943        1.21586
C         16.81516        3.63001        0.85876
C         16.52230        5.07846        0.82248
C         15.19160        5.31828        0.48448
C         14.52683        4.15767        0.22631
C         15.49030        3.00139        0.42347
C         14.64828        6.58695        0.40841
C         13.32294        6.72656        0.04417
C         12.57702        5.55674       -0.23594
C         13.17171        4.26925       -0.15181
O         17.25941        6.02366        0.96912
C         15.19561        1.68753        0.21515
C         13.90541        1.24177       -0.25886
C         16.12418        0.60079        0.40430
N         12.89419        0.82196       -0.63714
N         16.80505       -0.32751        0.52985
C         29.59313        9.67154        8.09048
C         30.38478        8.53151        8.41226
S         29.83845        7.36696        7.41087
C         20.27075        3.29177        2.53002
C         19.27458        3.75382        1.65094
S         19.83546        5.27039        1.12473
C         26.65388        5.86360        7.21424
C         28.09599        5.32028        5.09963
C         24.41680        7.46205        0.82065
C         21.99021        8.24819        0.93544
C         20.62004        8.53620        1.60615
C         25.72102        6.71200        1.23723
C         27.59302        3.88157        4.92351
C         25.57232        6.69101        7.90656
C         12.74333        8.08344       -0.03718
S         11.15172        8.39838       -0.46578
C         11.31148       10.05116       -0.29958
C         12.58148       10.42663        0.07633
C         13.40107        9.29506        0.23712
C         10.28986       11.02734       -0.43819
C         10.59172       12.35353       -0.28894
O         11.85976       12.77431       -0.01988
C         12.94391       11.92516        0.28783
S          8.66157       10.77494       -0.67365
C          8.30741       12.41803       -0.56356
C          9.47093       13.16835       -0.37714
C         13.28798       12.17558        1.78937
C         14.16288       12.31021       -0.61870
C         13.94067       12.19484       -2.14174
C         14.45819       11.34126        2.34229
C         -3.31977       21.81067       -3.21048
C         -4.34345       21.73646       -2.25496
C         -4.39431       20.48741       -1.50281
C         -3.28006       19.55219       -1.66703
C         -2.20928       19.87728       -2.52769
C         -2.28907       20.93825       -3.37746
C         -2.86395       18.21818       -1.11977
C         -1.55083       17.99907       -1.44478
C         -1.02541       18.93637       -2.47145
C         -3.47379       22.92211       -3.99889
C         -4.44164       23.70676       -3.51442
C         -4.87592       23.27382       -2.05209
S         -3.47115       16.70446       -0.54170
C         -1.95338       15.87122       -0.77524
C         -1.02541       16.78511       -1.08258
S         -2.86783       23.23744       -5.53943
C         -3.99629       24.44881       -5.68761
C         -4.78653       24.59007       -4.58488
C          0.90437       13.38677       -1.74701
C          2.26894       13.31229       -1.50795
C          3.05657       14.25871       -0.70027
C          4.40546       13.90409       -0.62797
C          4.62665       12.74845       -1.30592
C          3.32077       12.28431       -1.91720
C          5.36971       14.61623        0.07528
C          6.65671       14.13024        0.09471
C          6.95188       12.94377       -0.59561
C          5.93830       12.24559       -1.29679
O          2.67740       15.16869       -0.01928
C          3.18824       11.16358       -2.66595
C          1.94833       10.74346       -3.28553
C          4.31586       10.29048       -2.91357
N          5.18607        9.55945       -3.14136
N          0.98925       10.35276       -3.80700
C         -5.77163       27.29185       -7.50069
C         -6.82892       28.11928       -7.23885
C         -7.62560       28.08135       -6.01032
C         -8.74310       28.87842       -6.13375
C         -8.71002       29.61842       -7.27914
C         -7.49153       29.22852       -8.06659
C         -9.72934       28.91790       -5.17453
C        -10.79407       29.78498       -5.34908
C        -10.79433       30.59131       -6.52207
C         -9.75874       30.52220       -7.48247
O         -7.39271       27.59828       -4.93625
C         -7.12082       29.77154       -9.26050
C         -7.86580       30.86366       -9.87219
C         -5.97414       29.30167       -9.98908
N         -8.49126       31.73410      -10.31861
N         -5.06087       28.96090      -10.61253
C         -1.42995       14.53818       -0.93213
C         -0.02971       14.51167       -1.27640
S          0.45626       16.10824       -1.27122
C         -4.20351       25.29590       -6.75960
C         -5.27676       26.18811       -6.56298
S         -5.85170       25.77871       -5.00462
C         -0.93065       18.13371       -3.82795
C          0.36160       19.59856       -2.09227
C         -3.91238       23.50595       -0.75615
C         -5.96855       24.44455       -1.82036
C         -5.58733       25.97238       -1.84697
C         -4.30810       23.08960        0.69699
C          0.96010       20.58210       -3.11568
C         -2.22995       17.55311       -4.37375
C        -11.85597       29.83367       -4.28810
S        -11.86821       28.89730       -2.85846
C        -13.32672       29.49007       -2.22554
C        -13.80104       30.48507       -3.08299
C        -13.00128       30.64931       -4.25829
C        -14.03405       29.23120       -0.93826
C        -15.13550       30.00076       -0.61470
O        -15.65123       30.89107       -1.49493
C        -15.06141       31.31979       -2.69478
S        -13.68816       28.26085        0.40392
C        -14.87122       28.91729        1.43968
C        -15.59981       29.85579        0.71429
C        -14.67307       32.80761       -2.43663
C        -16.10908       31.30444       -3.82716
C        -16.73716       29.96819       -4.13110
C        -15.89698       33.67553       -2.09294
H         24.76801        9.65029        3.47353
H         25.06549        4.81871        4.78059
H         32.16523        9.09881        9.53875
H         30.10443        3.10830        9.94770
H         31.41956        1.33039       11.04415
H         33.54847        1.90518       12.16771
H         34.40380        4.16101       12.15260
H         18.08296        1.95921        1.20272
H         15.26673        7.44629        0.64486
H         11.54290        5.64684       -0.53075
H         12.56359        3.41503       -0.38469
H         29.63318       10.59939        8.58698
H         20.38235        2.41169        3.10902
H         26.23153        4.84582        7.15437
H         27.50867        5.84899        7.91570
H         28.36302        5.65635        4.08089
H         29.03091        5.21768        5.68605
H         24.17964        7.06329       -0.18381
H         24.76322        8.51049        0.62598
H         22.33297        9.23523        0.59223
H         21.74145        7.67509        0.00020
H         20.33108        7.88732        2.38183
H         20.56478        9.42792        2.20333
H         19.78028        8.57494        0.89191
H         25.60974        5.62850        1.24000
H         26.46894        6.76979        0.46043
H         26.24896        7.09012        2.14425
H         26.72762        3.76127        4.29801
H         28.29783        3.21781        4.44746
H         27.49023        3.35089        5.80806
H         24.62259        6.46217        7.51400
H         25.33449        6.40078        8.91541
H         25.77577        7.75030        7.97686
H         14.43544        9.34703        0.53556
H          9.49438       14.24462       -0.27001
H         13.53037       13.24926        1.94399
H         12.39834       11.93430        2.41194
H         14.46224       13.36363       -0.42360
H         15.02951       11.66400       -0.36319
H         13.19568       12.92977       -2.51069
H         14.88812       12.43383       -2.67288
H         13.63843       11.17111       -2.44812
H         15.41223       11.58246        1.83016
H         14.58951       11.55497        3.42218
H         14.26870       10.25498        2.27053
H         -5.14642       20.30097       -0.74937
H         -1.53279       21.14537       -4.11464
H          0.43524       12.60306       -2.33828
H          5.11946       15.52925        0.60399
H          7.40339       14.67830        0.65517
H          6.20964       11.34409       -1.79921
H         -5.27505       27.40486       -8.45446
H         -9.63895       28.26348       -4.31007
H        -11.58558       31.28089       -6.71392
H         -9.82557       31.17112       -8.33352
H         -2.05084       13.66658       -0.91089
H         -3.52710       25.17609       -7.57455
H         -0.59033       18.77482       -4.64842
H         -0.24966       17.27257       -3.71358
H          0.28622       20.15144       -1.13309
H          1.12880       18.80630       -1.96871
H         -2.92721       23.00165       -0.90581
H         -3.68878       24.57355       -0.61884
H         -6.72185       24.38496       -2.63665
H         -6.53130       24.30514       -0.88308
H         -4.76337       26.19162       -1.19832
H         -5.21456       26.44125       -2.77160
H         -6.46725       26.57431       -1.50820
H         -4.41496       22.00020        0.85107
H         -3.52431       23.42826        1.41185
H         -5.20095       23.60614        1.07436
H          0.35032       21.47876       -3.24676
H          1.91886       21.01016       -2.79439
H          1.19332       20.09612       -4.07129
H         -2.85432       18.33263       -4.81570
H         -2.11294       16.83217       -5.18093
H         -2.73604       16.99010       -3.61006
H        -13.25000       31.34911       -5.05073
H        -15.01237       28.69276        2.50025
H        -16.39837       30.44796        1.16582
H        -13.99167       32.85106       -1.55793
H        -14.16443       33.26683       -3.31164
H        -16.97924       31.92429       -3.55596
H        -15.64179       31.74007       -4.73552
H        -17.28911       29.60228       -3.23786
H        -17.46587       30.13969       -4.95403
H        -15.96981       29.24170       -4.44841
H        -16.43411       33.16562       -1.27378
H        -15.61180       34.69563       -1.77778
H        -16.59801       33.82754       -2.94174
