248
PF3-DTC.sdf
C         12.35161        6.62590      -12.67158
C         12.08523        7.98276      -12.49387
C         11.59762        8.70643      -13.64295
C         11.38562        7.94290      -14.84608
C         11.72733        6.57602      -14.89864
C         12.23062        5.91984      -13.82703
C         10.73715        8.19772      -16.14927
C         10.78784        7.03677      -16.87276
C         11.37594        5.87900      -16.17255
C         12.74688        6.02351      -11.49905
C         12.80389        6.90809      -10.48691
C         12.24468        8.29462      -10.95055
S          9.76334        9.32904      -17.01028
C          9.45827        8.22402      -18.30667
C         10.14027        7.08491      -18.06321
S         13.22983        4.42754      -11.21313
C         13.69322        4.88629       -9.68982
C         13.42612        6.21242       -9.43851
C          8.18241        6.35037      -21.36569
C          8.75575        5.50010      -22.28404
C         10.17911        5.07436      -22.31022
C         10.43040        4.30819      -23.48884
C          9.28339        4.17906      -24.24347
C          8.14671        4.87842      -23.53602
C         11.66206        3.78316      -23.86706
C         11.74846        3.09124      -25.07018
C         10.60359        2.93375      -25.86715
C          9.36289        3.46915      -25.46067
O         11.08275        5.41629      -21.57066
C          6.84560        4.89902      -23.93325
C          5.78883        5.50086      -23.15247
C          6.41267        4.25825      -25.14860
N          6.00397        3.76049      -26.10820
N          4.89358        5.96085      -22.58007
C         15.17969        4.47352       -6.28517
C         14.95368        5.05730       -5.07165
C         14.00239        6.15606       -4.81249
C         14.06014        6.53500       -3.46695
C         14.93178        5.74959       -2.76163
C         15.50254        4.73066       -3.70694
C         13.30240        7.55272       -2.92961
C         13.44366        7.84209       -1.58961
C         14.35525        7.08272       -0.81274
C         15.09410        6.02213       -1.38949
O         13.15283        6.62954       -5.53641
C         16.32218        3.74572       -3.35609
C         16.74760        3.56426       -1.96544
C         16.92058        2.74239       -4.26090
N         17.19041        3.26810       -0.92933
N         17.35871        1.98052       -5.03039
C          8.65749        8.13180      -19.47293
C          8.85638        6.88454      -20.14017
S          9.90529        5.94156      -19.21812
C         14.31734        4.14539       -8.69105
C         14.55834        4.93373       -7.56525
S         14.03507        6.50830       -7.94468
C         12.58753        5.21606      -16.90018
C         10.24688        4.80604      -15.93034
C         10.77130        8.61917      -10.46351
C         13.20625        9.45932      -10.46276
C         13.38567        9.57693       -8.91499
C          9.61679        7.71368      -10.98012
C          9.03813        5.27584      -15.08983
C         13.79837        6.12458      -17.12450
C         12.61435        8.90360       -1.00834
S         13.10429        9.82093        0.32857
C         11.61825       10.55596        0.40694
C         10.72026       10.13542       -0.52499
C         11.28642        9.21159       -1.39835
C         10.98195       11.39718        1.32958
C          9.66780       11.47071        1.01994
C          9.32091       10.72538       -0.26376
S         11.39319       12.15589        2.74763
C          9.75990       12.56155        3.03334
C          8.93415       12.13072        1.98971
C          8.83681       11.69182       -1.39024
C          8.29387        9.60477        0.08818
C          7.80823        8.70927       -1.06288
C          7.56123       12.49657       -1.07191
C          1.38722       19.02799       13.85359
C          1.83396       18.74071       15.13510
C          3.09678       18.03874       15.23157
C          3.77939       17.72998       13.99420
C          3.17669       18.03745       12.75772
C          1.99242       18.68434       12.69014
C          5.11765       17.21580       13.61080
C          5.17590       17.19732       12.24141
C          3.98386       17.71015       11.53968
C          0.22844       19.77085       13.86272
C         -0.20459       20.01417       15.11604
C          0.79764       19.39312       16.14643
S          6.69228       16.84118       14.20994
C          7.37465       16.68320       12.62427
C          6.38725       16.85788       11.72442
S         -0.66023       20.37935       12.56273
C         -1.75940       20.96713       13.65272
C         -1.41589       20.71833       14.96563
C          9.60581       16.39182        9.51561
C          9.43429       15.78107        8.29593
C          8.24396       14.96992        7.89485
C          8.47265       14.35617        6.62964
C          9.73353       14.66238        6.17656
C         10.40393       15.65887        7.12076
C          7.58910       13.51630        5.94702
C          7.99394       12.95434        4.74271
C          9.28877       13.19732        4.26636
C         10.15261       14.02917        4.98766
O          7.28336       14.65725        8.57366
C         11.61140       16.30170        6.87049
C         12.26274       17.31509        7.79742
C         12.33316       15.84939        5.61157
N         12.93191       15.47416        4.56719
N         12.80308       18.15578        8.56639
C         -5.06442       22.33644       14.60733
C         -5.99525       22.02835       15.55045
C         -5.79764       21.04514       16.62891
C         -6.90583       21.07901       17.50465
C         -7.89505       21.90850       17.02595
C         -7.42245       22.53702       15.72878
C         -6.98519       20.37689       18.68807
C         -8.12999       20.49742       19.47198
C         -9.18743       21.31362       19.00611
C         -9.07718       22.02223       17.78667
O         -4.91547       20.21433       16.74104
C         -8.13140       23.39108       14.93077
C         -9.47772       23.80813       15.23370
C         -7.60892       24.02340       13.74006
N        -10.54122       24.19725       15.46870
N         -7.26485       24.55789       12.77112
C          8.64427       16.51655       12.00708
C          8.53893       16.48682       10.57826
S          6.92690       16.76853       10.17343
C         -2.95987       21.59968       13.40013
C         -3.66256       21.81043       14.58144
S         -2.65080       21.33102       15.90075
C          3.33644       16.60984       10.62289
C          4.39315       19.00776       10.75074
C          1.53325       20.51707       16.95912
C          0.05751       18.37194       17.08235
C         -1.11051       18.94495       17.92544
C          2.55650       20.06083       18.02939
C          4.94634       20.17159       11.60744
C          2.09510       17.02055        9.80561
C         -8.18092       19.77336       20.75862
S         -6.87803       18.84691       21.37253
C         -7.72508       18.43283       22.73403
C         -8.98314       18.95339       22.76117
C         -9.26720       19.74173       21.64952
C         -7.49820       17.66116       23.90115
C         -8.62109       17.68238       24.65548
C         -9.73847       18.49697       24.00873
S         -6.27301       16.75454       24.58452
C         -7.23182       16.35960       25.93698
C         -8.50196       16.94280       25.82893
C        -10.18692       19.66351       24.93995
C        -10.88093       17.49802       23.62783
C        -12.14682       18.05521       22.96192
C         -9.08204       20.68571       25.27561
H         11.31563        9.75001      -13.59334
H         12.45267        4.86268      -13.86591
H          7.17181        6.69433      -21.49822
H         12.53584        3.91979      -23.24126
H         12.70360        2.68647      -25.37975
H         10.68693        2.39903      -26.80293
H          8.51969        3.32375      -26.10897
H         15.82614        3.61179       -6.37156
H         12.62739        8.12048       -3.56107
H         14.45930        7.28224        0.24403
H         15.75045        5.45190       -0.75813
H          7.97289        8.90090      -19.80595
H         14.54528        3.09434       -8.80411
H         12.94361        4.34370      -16.30674
H         12.25336        4.82574      -17.88501
H          9.85631        4.45573      -16.90834
H         10.66189        3.91851      -15.41029
H         10.71972        8.61120       -9.36258
H         10.50068        9.65050      -10.80245
H         14.22998        9.35893      -10.87951
H         12.79733       10.43577      -10.79680
H         12.45851        9.41464       -8.32275
H         14.16197        8.88995       -8.56862
H         13.81077       10.55195       -8.59882
H          9.77109        6.64927      -10.71909
H          8.65402        8.03782      -10.52550
H          9.45942        7.78925      -12.08094
H          8.54723        6.17599      -15.51587
H          8.26937        4.47436      -15.04713
H          9.35132        5.48316      -14.04452
H         14.24327        6.42187      -16.15178
H         14.57663        5.56864      -17.69368
H         13.51648        7.02648      -17.70385
H         10.74323        8.71408       -2.18955
H          7.86399       12.26031        1.96317
H          9.63794       12.43275       -1.60432
H          8.66085       11.11361       -2.32097
H          8.74323        8.95012        0.86829
H          7.38783       10.07059        0.52966
H          8.62807        8.16409       -1.56608
H          7.12088        7.93889       -0.65024
H          7.23658        9.29498       -1.81226
H          7.71315       13.15980       -0.19566
H          7.30380       13.14992       -1.93334
H          6.68508       11.84244       -0.89082
H          3.55111       17.80190       16.18242
H          1.56925       18.98423       11.75025
H         10.56144       16.83552        9.75020
H          6.60685       13.29670        6.34109
H          7.31803       12.29388        4.21555
H         11.10657       14.13593        4.55989
H         -5.32125       22.99253       13.78957
H         -6.14286       19.76310       18.98361
H        -10.09037       21.41670       19.58697
H         -9.90279       22.64169       17.48728
H          9.56897       16.43983       12.55971
H         -3.30691       21.80604       12.39458
H          4.08354       16.25596        9.88126
H          3.04950       15.73861       11.25247
H          5.17143       18.74608       10.00986
H          3.53416       19.41426       10.18619
H          2.08973       21.15493       16.23718
H          0.79488       21.16539       17.47066
H         -0.36981       17.53852       16.48559
H          0.79216       17.93552       17.78685
H         -0.84064       19.87782       18.46439
H         -2.00949       19.12115       17.30372
H         -1.43980       18.20518       18.68691
H          3.37315       19.44550       17.60943
H          3.03807       20.95212       18.48867
H          2.08308       19.50425       18.86404
H          5.75439       19.85251       12.30105
H          5.36858       20.96352       10.95374
H          4.12824       20.65104       12.18315
H          2.34428       17.78422        9.04199
H          1.70153       16.14741        9.24504
H          1.26320       17.37356       10.43844
H        -10.20286       20.25124       21.49392
H         -6.90260       15.74139       26.75956
H         -9.28730       16.83105       26.56261
H        -11.02984       20.22819       24.48733
H        -10.54355       19.21953       25.89384
H        -10.43965       16.76564       22.91449
H        -11.21139       16.92670       24.52196
H        -11.91502       18.74480       22.12784
H        -12.73420       17.20488       22.54470
H        -12.80550       18.55304       23.70312
H         -8.82973       21.30776       24.39068
H         -9.43739       21.38101       26.06714
H         -8.16046       20.18762       25.64390
