147
PMI-F-PMI.sdf
N         -4.29960        0.55137       -0.24135
C         -3.58984        1.45008       -1.04512
C         -2.17343        1.44255       -1.09430
C         -1.45605        0.40681       -0.48214
C         -2.16476       -0.55523        0.24218
C         -3.55703       -0.41940        0.42473
O         -4.08867       -1.16293        1.22123
O         -4.17798        2.25255       -1.75161
C         -0.03287        0.33550       -0.58957
C          0.65501       -0.78095       -0.04816
C         -0.10091       -1.77060        0.62141
C         -1.47079       -1.64087        0.78961
C         -1.46274        2.45149       -1.75656
C         -0.07311        2.43796       -1.80100
C          0.67622        1.37377       -1.24267
C          2.09954        1.31166       -1.32560
C          2.80103        0.17985       -0.80681
C          2.07398       -0.87237       -0.18201
C          4.23010        0.09390       -0.91681
C          4.93163       -1.04239       -0.38515
C          4.16623       -2.06798        0.18441
C          2.78881       -1.98946        0.28679
C          2.85141        2.34883       -1.92592
C          4.22112        2.25201       -2.06162
C          4.89795        1.14278       -1.59005
C         -5.78777        0.63284       -0.10570
C         -6.63103       -0.56563       -0.05101
C         -8.02712       -0.43659        0.03887
C         -8.64697        0.78821        0.04713
C         -7.89708        1.93817       -0.00236
C         -6.48888        1.91475       -0.03786
C         -6.20383       -2.03036       -0.17017
C         -6.45993       -2.82110        1.13636
C         -5.85303        3.31100        0.01454
C         -6.33589        4.19901        1.16605
C          6.43648       -1.22218       -0.33168
C          7.30577       -0.11884       -0.16623
C          8.68179       -0.31674       -0.10760
C          9.21315       -1.58485       -0.14217
C          8.40522       -2.70811       -0.27494
C          7.01886       -2.52296       -0.37710
C          9.75459        0.74360       -0.00184
C         10.98922       -0.14100        0.02881
C         10.64901       -1.47841       -0.02234
C         12.32737        0.23899        0.08448
C         13.35038       -0.74362        0.13594
C         12.95692       -2.11132        0.15135
C         11.60827       -2.48148        0.04930
C          9.72992        1.68338       -1.24320
C          9.54021        1.53320        1.32625
C         10.52854        2.66579        1.61920
C          9.89016        0.96308       -2.58774
N         23.80247        2.26547        0.52320
C         23.59603        1.02324       -0.07220
C         22.29544        0.51039       -0.28207
C         21.17682        1.20185        0.20615
C         21.37575        2.43799        0.83787
C         22.67667        2.98266        0.93455
O         22.79995        4.11529        1.37781
O         24.54430        0.33193       -0.39195
C         19.86082        0.65663        0.06271
C         18.74837        1.34121        0.61907
C         18.99146        2.57029        1.28058
C         20.26815        3.11247        1.36621
C         22.09874       -0.69702       -0.96194
C         20.82322       -1.21210       -1.15400
C         19.67495       -0.56495       -0.63740
C         18.35997       -1.09368       -0.80772
C         17.23971       -0.42344       -0.22951
C         17.43878        0.78600        0.49315
C         15.91132       -0.95850       -0.39197
C         14.79197       -0.29199        0.20442
C         15.04226        0.88795        0.91924
C         16.31181        1.41233        1.05715
C         18.12302       -2.27553       -1.54771
C         16.84285       -2.75929       -1.74059
C         15.75513       -2.11229       -1.18724
C         25.16349        2.82089        0.72978
C         26.17560        2.80863       -0.32359
C         27.43298        3.39651       -0.07147
C         27.73040        3.99828        1.13089
C         26.79848        4.02421        2.14210
C         25.53409        3.43154        1.99577
C         25.94530        2.23310       -1.72906
C         26.79914        2.80966       -2.87034
C         24.65951        3.47545        3.25277
C         25.32843        2.88219        4.49612
H          0.32498       -2.65553        1.05853
H         -1.99285       -2.42270        1.32893
H         -1.98002        3.28364       -2.21903
H          0.37444        3.27375       -2.30828
H          4.62319       -2.94896        0.60945
H          2.32924       -2.83922        0.75123
H          2.42026        3.24797       -2.32275
H          4.77289        3.04974       -2.54563
H          5.94895        1.14287       -1.79917
H         -8.66788       -1.31062        0.06591
H         -9.72739        0.84693        0.09120
H         -8.44700        2.86786        0.00506
H         -6.80006       -2.50503       -0.97977
H         -5.16419       -2.16549       -0.51131
H         -7.52507       -2.78428        1.44237
H         -6.17913       -3.88527        0.99518
H         -5.87670       -2.43294        1.99522
H         -4.76204        3.28446        0.16429
H         -6.09869        3.83818       -0.93590
H         -6.07675        3.74132        2.14117
H         -5.83742        5.18948        1.08487
H         -7.42551        4.39535        1.12819
H          6.95195        0.88979       -0.05063
H          8.83210       -3.70197       -0.31099
H          6.41345       -3.40986       -0.50020
H         12.56032        1.29089        0.06068
H         13.67396       -2.91038        0.25934
H         11.32229       -3.52544        0.04110
H          8.76709        2.24003       -1.26022
H         10.55384        2.42275       -1.17333
H          8.53154        1.99932        1.30656
H          9.56432        0.82111        2.18097
H         10.49047        3.44506        0.83078
H         10.24583        3.15093        2.57688
H         11.56103        2.29197        1.73588
H          9.07493        0.22712       -2.74690
H          9.85211        1.70829       -3.41034
H         10.86937        0.44234       -2.63870
H         18.21748        3.16158        1.73716
H         20.38498        4.06098        1.87692
H         22.93697       -1.24854       -1.37003
H         20.78611       -2.13483       -1.70393
H         14.24436        1.42785        1.41176
H         16.36113        2.31968        1.63135
H         18.89783       -2.84840       -2.02333
H         16.68925       -3.65010       -2.33802
H         14.80525       -2.54307       -1.43097
H         28.22094        3.41528       -0.80542
H         28.70354        4.44798        1.28354
H         27.08923        4.50736        3.06424
H         26.19260        1.15271       -1.72352
H         24.88762        2.39786       -2.02153
H         27.87849        2.58521       -2.73781
H         26.50580        2.32756       -3.82701
H         26.64608        3.90475       -2.96004
H         24.41095        4.53813        3.47177
H         23.72704        2.89677        3.15124
H         26.25178        3.42745        4.77627
H         24.63065        2.96807        5.35672
H         25.56901        1.81260        4.33063
