208
PT-IDTTIC.sdf
C          2.95133        3.05068        0.07911
C          3.20950        2.51289        1.34666
C          2.10543        1.79268        1.96478
C          0.87128        1.65268        1.22520
C          0.71607        2.28277        0.00371
C          1.76624        2.95556       -0.59178
C         -0.42746        0.95896        1.48897
C         -1.39811        1.61762        0.80206
C         -0.66281        2.08425       -0.54635
C          4.07452        3.69940       -0.45216
C          5.13254        3.54828        0.37579
C          4.80837        2.57147        1.60888
S         -0.91949       -0.66005        1.23912
C         -2.52141       -0.27031        0.69196
C         -2.70734        1.02598        0.94557
S          4.30596        4.69210       -1.82624
C          5.86339        5.06356       -1.32254
C          6.14815        4.43338       -0.12642
C         -5.27347        0.44488       -2.02862
C         -4.98735       -0.09321       -3.27874
C         -3.97667       -1.09948       -3.45008
C         -3.60295       -1.26008       -4.85277
C         -4.59725       -0.68530       -5.60987
C         -5.56565        0.03822       -4.68449
C         -2.51773       -1.96431       -5.43826
C         -2.48624       -2.13008       -6.82833
C         -3.53203       -1.62844       -7.60528
C         -4.57704       -0.90186       -7.00872
O         -4.06582       -2.07702       -2.72883
C         -6.72478        0.62571       -5.05676
C         -7.59623        1.25211       -4.09785
C         -7.15967        0.62254       -6.43807
N         -7.46270        0.59257       -7.55664
N         -8.26913        1.74749       -3.29729
C          9.36347        6.46772       -1.38928
C         10.58883        6.05305       -0.93290
C         10.91875        4.83434       -0.11759
C         12.35387        4.73364        0.02866
C         12.93490        5.81937       -0.59558
C         11.92105        6.70574       -1.23253
C         13.12211        3.73415        0.65960
C         14.51313        3.86336        0.64310
C         15.09312        4.98738        0.03342
C         14.30875        5.95044       -0.57576
O         10.15961        3.97906        0.29760
C         12.18344        7.85177       -1.95301
C         11.18525        8.67403       -2.56469
C         13.52130        8.35148       -2.21656
N         10.44135        9.38814       -3.08743
N         14.61032        8.70829       -2.39830
C         16.52100        5.16280       -0.00043
C         17.21249        6.37140       -0.01771
C         18.57269        6.18740       -0.04024
C         18.89798        4.84591       -0.07819
S         17.55691        3.87475       -0.05562
C         -3.28998       -0.51530       -0.49413
C         -4.45275        0.22339       -0.72481
S         -4.25686        1.45079        0.36152
C          6.89316        5.84084       -1.89906
C          8.04318        5.84734       -1.09212
S          7.67713        4.95305        0.29326
C         -1.29554        3.41157       -1.03487
C         -0.45615        1.01972       -1.80740
C          5.02643        0.97369        1.55185
C          5.91855        3.02083        2.65275
C          6.04593        2.35233        4.02972
C          6.43093        0.33711        1.32503
C          0.38492       -0.28442       -1.65752
C         -1.19941        4.55830       -0.06200
C         33.86276        1.07205        4.21442
C         34.37683        0.17873        3.27008
C         33.57350        0.03178        2.05826
C         32.38644        0.83219        1.90446
C         31.95482        1.60843        2.94918
C         32.69756        1.76553        4.09897
C         31.37685        0.99521        0.80450
C         30.19263        1.16240        1.43899
C         30.62374        2.18303        2.65770
C         34.68049        1.20798        5.32832
C         35.81396        0.49742        5.16708
C         35.89563       -0.19036        3.68417
S         31.26060        2.28010       -0.35261
C         29.52358        2.37623       -0.28935
C         29.11023        1.40066        0.50518
S         34.44936        2.01653        6.81954
C         35.87282        1.37357        7.41646
C         36.45387        0.54246        6.46868
C         26.23891        4.08100        0.76942
C         24.87352        4.15239        0.62261
C         24.17938        3.32503       -0.32243
C         22.76337        3.41748       -0.20746
C         22.52213        4.55209        0.51171
C         23.79393        5.08254        1.11993
C         21.74462        2.63709       -0.81862
C         20.45136        3.09433       -0.73791
C         20.21322        4.31432       -0.10091
C         21.23358        5.02966        0.52764
O         24.63767        3.23882       -1.43742
C         23.91998        6.19552        1.88852
C         25.18411        6.61127        2.41111
C         22.80550        7.07351        2.14484
N         21.86885        7.73401        2.31232
N         26.22483        6.90832        2.81316
C         38.78284        0.72006        9.74690
C         39.53370       -0.37512       10.05468
C         39.37602       -1.75849        9.51013
C         40.35452       -2.61872       10.09357
C         41.11870       -1.89760       10.97811
C         40.68449       -0.46670       11.03100
C         40.56038       -3.98116        9.84387
C         41.59715       -4.62928       10.52567
C         42.39143       -3.90632       11.43717
C         42.14033       -2.55027       11.65515
O         38.55055       -2.17666        8.72325
C         41.25346        0.50571       11.81487
C         40.80857        1.87676       11.89019
C         42.35374        0.25115       12.71450
N         40.49898        2.98623       11.99448
N         43.23478        0.09738       13.45111
C         43.50160       -4.52734       12.16947
C         44.64065       -3.85936       12.61787
C         45.54188       -4.69510       13.27023
C         45.11558       -6.01347       13.34131
S         43.61389       -6.14679       12.59572
C         28.52689        3.38347       -0.21219
C         27.20472        3.06993        0.09262
S         27.38508        1.52110        0.65559
C         36.56466        1.55707        8.63750
C         37.71583        0.75197        8.69545
S         37.78797       -0.11241        7.22816
C         29.71036        1.95283        3.86085
C         30.92969        3.78753        2.37157
C         36.53123        0.49405        2.32473
C         37.02089       -1.30718        3.96173
C         36.77243       -2.36901        5.04059
C         36.55597       -0.26966        0.90523
C         31.34266        4.83489        3.46524
C         28.34185        2.20968        3.46424
H          2.18713        1.30833        2.92258
H          1.73086        3.38754       -1.56869
H         -6.10346        1.13056       -1.94405
H         -1.70276       -2.40450       -4.87696
H         -1.67568       -2.68032       -7.30279
H         -3.53703       -1.80824       -8.67455
H         -5.34059       -0.55809       -7.66427
H          9.30434        7.30309       -2.05619
H         12.68186        2.87329        1.14720
H         15.13902        3.11372        1.11888
H         14.80424        6.75580       -1.04428
H         16.77073        7.35419        0.01604
H         19.28413        7.00346       -0.04224
H         -2.72337       -0.43015       -1.37553
H          6.82520        6.30723       -2.86986
H         -0.76036        3.78248       -1.91823
H         -2.37390        3.25470       -1.21617
H         -1.38977        0.67769       -2.26626
H          0.09015        1.46470       -2.65067
H          4.65173        0.49730        2.50634
H          4.36457        0.50172        0.79287
H          6.92511        2.83345        2.16154
H          5.89393        4.10011        2.84021
H          5.08365        2.06713        4.47567
H          6.72843        1.50385        4.01575
H          6.60654        2.99214        4.73428
H          7.01221        0.18639        2.25467
H          6.29249       -0.67643        0.88667
H          7.12319        0.83908        0.62755
H          0.05664       -0.86801       -0.83494
H          0.32514       -1.02372       -2.47452
H          1.47413       -0.14805       -1.74262
H         -0.22471        4.84053        0.14511
H         -1.62566        5.51517       -0.29965
H         -1.62110        4.31192        0.86257
H         33.83952       -0.58788        1.23098
H         32.41881        2.40525        4.91716
H         26.70328        4.82962        1.38627
H         21.85179        1.71086       -1.37347
H         19.65931        2.52779       -1.22787
H         21.00394        5.93802        1.00555
H         38.97715        1.65481       10.25593
H         39.94054       -4.52683        9.14018
H         41.78654       -5.67862       10.33964
H         42.75969       -2.04997       12.34913
H         44.82965       -2.80145       12.47317
H         46.47770       -4.34179       13.68081
H         45.65979       -6.82309       13.80036
H         28.79171        4.11051        0.47795
H         36.24984        2.24126        9.41279
H         29.68879        0.88453        4.17110
H         29.90585        2.66213        4.68639
H         31.76298        3.87724        1.64586
H         30.08348        4.31908        1.95581
H         36.02297        1.45073        2.06787
H         37.58089        0.78435        2.48137
H         37.32938       -1.85177        3.05878
H         37.98393       -0.79239        4.28993
H         36.16318       -1.98306        5.84670
H         36.36366       -3.30444        4.65028
H         37.68550       -2.72863        5.53823
H         35.60103       -0.32448        0.36807
H         37.26965        0.24968        0.23923
H         36.96687       -1.27340        0.72431
H         32.18469        4.52061        4.11422
H         31.66808        5.81366        3.03663
H         30.46629        5.26323        3.98633
H         28.10725        1.38786        2.82552
H         27.64013        1.97736        4.24265
H         28.33180        3.24607        3.07744
