98
PTIC-4Cl.sdf
C         -0.63786       -1.53450       -1.14806
C         -0.05246       -0.84414        0.01865
S         -1.15810       -1.19404        1.36431
C         -2.19502       -2.30202        0.56448
C         -1.79469       -2.33825       -0.73884
N         -2.18468       -3.49910       -1.30818
C         -3.23249       -3.37929       -2.40434
C         -2.52952       -4.30119       -0.23577
C         -2.85157       -3.55714        0.87715
C         -3.47825       -4.28255        1.94075
N         -4.10245       -3.68976        2.98122
S         -4.69195       -4.99065        3.82430
N         -4.11335       -6.32521        3.02482
C         -3.48052       -5.76503        1.96712
C         -2.56074       -6.42430        1.10656
C         -2.02641       -5.65976        0.08167
N         -0.77398       -6.22063       -0.20129
C          0.43528       -5.34313       -0.27580
C          0.54245       -4.60946        1.03416
C         -0.69199       -7.49562        0.34400
C         -1.81861       -7.66571        1.14631
S         -1.64240       -9.14699        2.02375
C         -0.12636       -9.59968        1.32864
C          0.30343       -8.62249        0.43087
C         -4.57018       -4.07865       -2.02721
C          1.79268       -0.54373        2.53594
O          2.17025       -1.70103        2.69533
C          2.31225        0.27445        3.57492
C          1.82556        0.26546        4.86772
C          2.58076        0.84306        5.87100
C          3.84783        1.38514        5.55325
Cl         4.87001        1.96096        6.86305
C          4.31468        1.40247        4.19918
C          3.49154        0.84605        3.17593
C          3.57997        0.60088        1.66675
C          4.69465        0.71406        0.89460
C          4.64788        0.31300       -0.48731
N          4.63900       -0.00341       -1.59738
C          5.98747        1.02245        1.48718
N          7.04401        1.25809        1.90214
C          2.19421        0.01791        1.28498
C          1.40378       -0.16028        0.12689
C          4.02256      -13.34422        1.32551
C          4.25731      -14.01492        2.48728
C          4.98761      -15.29432        2.91024
C          6.13047      -15.94236        2.50560
C          6.59554      -17.10441        3.24202
N          7.01713      -18.03367        3.79045
C          7.03560      -15.51866        1.47350
N          7.85512      -15.30251        0.68537
C          4.18236      -15.73047        4.10236
C          4.00055      -16.97081        4.74030
C          3.14355      -17.03445        5.86169
Cl         2.83127      -18.58668        6.61653
C          2.52458      -15.86080        6.35669
C          2.72077      -14.64770        5.70930
C          3.50965      -14.63403        4.58731
C          3.67906      -13.53238        3.72519
O          3.37373      -12.38070        3.98822
N          1.54310       -9.04990       -0.09446
C          1.82859      -10.26124        0.50140
C          0.86522      -10.62034        1.38085
C          2.50078       -8.48940       -1.07063
C          3.79565       -8.22990       -0.35434
C          2.94677      -11.17756        0.35990
C          2.91154      -12.25660        1.22955
S          1.37957      -12.09946        2.06999
C          0.10268       -1.78128       -2.53182
C         -0.54359       -1.15304       -3.75254
Cl         1.94495        0.75158        7.51352
Cl         1.45260      -15.87241        7.74284
H         -3.56346       -2.33907       -2.65966
H         -2.80219       -3.74242       -3.35607
H          1.39165       -5.82766       -0.15052
H          0.40813       -4.55259       -1.00621
H          0.47724       -5.34131        1.82039
H          1.38645       -3.93548        1.31491
H         -0.35952       -4.06935        1.04375
H         -4.99994       -3.60935       -1.10539
H         -5.32093       -3.97118       -2.83472
H         -4.38131       -5.15086       -1.80504
H          0.89496       -0.24169        5.09078
H          5.30123        1.79676        4.00137
H          1.86260        0.20619       -0.78763
H          4.52983      -13.65470        0.41103
H          4.45182      -17.87941        4.36893
H          2.23623      -13.73406        6.02775
H          2.73064       -9.22412       -1.87717
H          2.15566       -7.52697       -1.47504
H          4.15590       -9.14888        0.10378
H          4.69224       -7.85188       -0.87536
H          3.44097       -7.47709        0.34565
H          3.80952      -11.09630       -0.28697
H          1.13196       -1.37874       -2.58890
H          0.10191       -2.87339       -2.77006
H         -0.59933       -0.08611       -3.50289
H         -0.35911       -1.11992       -4.85234
H         -1.33798       -1.85852       -3.93632
