94
PTICO.sdf
C         -0.29960       -3.85843        1.42992
O         -0.42421       -2.68093        1.15886
C         -1.23345       -4.82798        0.98804
C         -2.51199       -4.56884        0.52129
C         -3.28710       -5.64993        0.11904
C         -2.75910       -6.95415        0.17452
C         -1.45024       -7.18033        0.64408
C         -0.68582       -6.08820        1.06675
C          0.70965       -5.98908        1.60741
C          1.66484       -6.97875        1.59290
C          2.99749       -6.71523        2.02751
N          4.06102       -6.45609        2.39428
C          1.45975       -8.29023        1.00362
N          1.22477       -9.31659        0.51792
C          0.86688       -4.52575        2.03218
C          1.85178       -3.90952        2.77433
C          1.89513       -2.43640        3.18237
C          2.46112       -1.30367        2.55489
C          2.19967       -0.06649        3.23639
C          1.42834       -0.15027        4.40964
S          1.18314       -1.81813        4.58053
C         -0.47908        2.77285        7.29858
C         -1.11723        3.86917        8.22625
C         -2.29883        3.78811        8.96645
C         -2.72135        4.92491        9.67394
C         -1.84847        6.03520        9.52247
S         -0.55323        5.46261        8.55539
C         -1.92759        7.42157       10.12870
C         -3.05619        8.14328       10.48890
C         -4.51406        7.78807       10.35684
C         -5.16424        7.43718        9.19229
C         -6.47293        6.78473        9.22929
N         -7.50467        6.26969        9.34387
C         -4.60680        7.65051        7.86816
N         -4.13237        7.83340        6.82490
C         -4.94152        7.76329       11.82561
C         -5.96351        7.07306       12.52980
C         -5.88175        6.94323       13.94984
C         -4.97743        7.72388       14.66343
C         -4.05571        8.53016       13.97237
C         -4.00141        8.46982       12.56993
C         -2.94939        8.98317       11.68400
O         -1.95878        9.59331       12.05258
F         -5.01462        7.69245       16.02325
F         -6.64174        6.04108       14.64946
C          0.28178        3.21972        6.20370
C          0.90390        2.37872        5.20475
C          0.82754        0.95547        5.33572
C          0.09469        0.51276        6.43575
C         -0.58889        1.32944        7.39212
O         -1.30097        0.69900        8.38707
C         -1.04211       -0.58726        8.92260
C         -1.74703       -1.69895        8.16725
O          1.54250        2.94717        4.13810
C          1.66133        4.32195        3.90364
C          0.49678        4.88030        3.07073
F         -4.54767       -5.43223       -0.32125
F         -3.51905       -8.00007       -0.22197
O         -3.86704        4.85697       10.43045
C         -4.96235        4.03250       10.11803
O          3.13255       -1.31289        1.37344
C          2.88306       -2.23851        0.37959
C         -4.99970        2.61333       10.69483
C          3.78690       -2.00277       -0.80841
H         -2.89410       -3.55352        0.49015
H         -1.06944       -8.18282        0.68458
H          2.65118       -4.51899        3.15166
H          2.53588        0.86073        2.81910
H         -2.91881        2.94627        9.02660
H         -0.96174        7.73811       10.54681
H         -6.73195        6.54081       12.02121
H         -3.34573        9.12494       14.51150
H          0.32692        4.27237        6.14310
H          0.07655       -0.53811        6.51318
H          0.03192       -0.82472        9.07509
H         -1.44814       -0.67290        9.95524
H         -1.54920       -1.88830        7.09047
H         -1.55867       -2.65717        8.71000
H         -2.79170       -1.37969        8.19367
H          1.64205        4.91113        4.82739
H          2.65547        4.54086        3.46498
H         -0.45250        4.87330        3.63968
H          0.68150        5.93456        2.78214
H          0.31775        4.31951        2.15558
H         -5.88314        4.61903       10.24537
H         -4.87224        3.75165        9.09735
H          3.07176       -3.26330        0.74782
H          1.82085       -2.15331        0.04634
H         -5.71805        2.71109       11.50289
H         -5.69598        1.80258       10.38326
H         -4.16659        2.05077       10.22318
H          4.84163       -2.07317       -0.47535
H          3.57031       -2.77705       -1.57475
H          3.60980       -1.00272       -1.25096
