104
Py-2F.sdf
C         -0.48054       -0.83907        0.26781
C         -0.78306       -2.29093        0.18242
C          0.75408       -0.25018        0.45818
C          0.74864        1.09151        0.58062
C         -0.53345        1.65253        0.44539
S         -1.57133        0.43383        0.16383
C         -0.93690        3.05000        0.59536
C         -2.16139        3.67292        0.46364
C         -2.30098        5.11346        0.81924
C         -3.77621        5.32391        0.94602
C         -4.46428        4.25571        0.45778
C         -3.59159        3.26435        0.08627
C         -4.52974        6.37207        1.40661
C         -5.94094        6.28658        1.35739
C         -6.59688        5.16390        0.82358
C         -5.84809        4.13241        0.36239
O         -4.08812        2.27838       -0.42055
C         -1.32549        6.07538        0.93115
C         -1.61043        7.40388        1.37110
C          0.07722        5.92657        0.58592
N          1.20583        5.86946        0.32702
N         -1.78534        8.49107        1.71943
C         -5.72523       -7.90275        0.05556
C         -6.98093       -8.53000        0.04847
C         -6.93972       -9.92014        0.08452
C         -5.63706      -10.43438        0.14677
S         -4.63371       -9.17955        0.11169
C         -5.23397      -11.84477        0.17799
C         -3.98328      -12.40069        0.24883
C         -3.79023      -13.87395        0.20183
C         -2.35934      -14.11255       -0.07292
C         -1.67583      -12.92609        0.07093
C         -2.59075      -11.84825        0.29725
C         -1.64185      -15.29475       -0.20930
C         -0.24421      -15.24937       -0.18050
C          0.43549      -14.02846       -0.03274
C         -0.28777      -12.84634        0.08224
O         -2.20136      -10.72170        0.54702
C         -4.65697      -14.84206        0.59967
C         -4.48061      -16.23263        0.27433
C         -5.77874      -14.52254        1.45651
N         -6.66447      -14.23431        2.14151
N         -4.38763      -17.36387        0.04375
F         -6.67043        7.29358        1.83869
F          0.44573      -16.40632       -0.23783
F         -7.94156        5.03830        0.76058
F          1.78688      -13.99264        0.04341
C          2.08445        1.74340        0.88027
C          2.25221        1.93437        2.34101
C         -8.22990      -10.70261        0.06898
C         -8.72405      -10.94592        1.49657
C         -2.10777       -2.76430        0.00723
C         -2.40314       -4.11318        0.06616
C         -1.35391       -5.02269        0.18788
C          0.01513       -4.61792        0.27614
C          0.26279       -3.23224        0.31444
C         -3.18748       -1.96403       -0.26561
C         -4.45215       -2.37124       -0.31485
C         -4.83368       -3.66539       -0.12552
C         -3.77985       -4.57277       -0.00247
C         -4.07253       -5.93621        0.04397
C         -2.99215       -6.76205        0.11264
C         -1.74133       -6.32776        0.19825
C         -6.19022       -4.08165       -0.10245
C         -6.44447       -5.47542       -0.04368
C         -5.40143       -6.42529        0.00709
C          1.21334       -5.60952        0.37263
C          2.31515       -5.57932       -0.71775
C         -7.37780       -3.09119       -0.11252
C         -7.47428       -2.09701        1.06623
H          1.72217       -0.63121        0.55925
H         -0.09823        3.62021        0.94965
H         -4.04560        7.21810        1.81067
H         -6.34242        3.24496       -0.04109
H         -7.95587       -8.08389        0.00185
H         -6.07895      -12.51454        0.06230
H         -2.11573      -16.24618       -0.27428
H          0.21606      -11.89828        0.23017
H          2.95629        1.10653        0.65172
H          2.12925        2.74358        0.41540
H          2.22699        1.10244        3.08262
H          3.14644        2.58623        2.50819
H          1.28819        2.37309        2.47419
H         -9.00149      -10.13866       -0.48759
H         -8.10125      -11.65481       -0.49505
H         -8.93743      -10.02168        2.07137
H         -9.62008      -11.61540        1.48742
H         -7.90119      -11.37646        2.07619
H          1.28072       -2.87946        0.42741
H         -3.19258       -0.98884       -0.51314
H         -5.05240       -1.57639       -0.56407
H         -2.96672       -7.77864        0.10448
H         -1.14900       -7.13337        0.28490
H         -7.46673       -5.82577       -0.02428
H          1.75446       -5.43001        1.32008
H          0.83388       -6.64133        0.37541
H          2.82090       -4.57889       -0.74085
H          3.13067       -6.30176       -0.55076
H          1.91321       -5.92050       -1.70128
H         -7.37015       -2.49751       -1.04449
H         -8.33464       -3.65259       -0.06777
H         -6.75368       -1.30187        1.06803
H         -8.31688       -1.40982        0.97104
H         -7.55410       -2.60147        2.04561
