104
Py-2H.sdf
C         -0.09993       -1.15855       -0.09345
C         -0.63677       -2.54273       -0.09217
C          1.09636       -0.78502       -0.66070
C          1.35270        0.58885       -0.66891
C          0.33251        1.35721        0.00390
S         -0.78486        0.22924        0.51834
C          0.13627        2.85327        0.21542
C         -0.50577        3.43675        1.28079
C         -0.60149        4.81666        1.76724
C         -0.88078        4.69868        3.26395
C         -1.16232        3.39356        3.54255
C         -1.27809        2.75149        2.25499
C         -0.84688        5.61830        4.32622
C         -1.03623        5.15505        5.64720
C         -1.22438        3.78607        5.91979
C         -1.30280        2.87924        4.85543
O         -2.28063        2.15612        1.90681
C         -0.48749        5.95122        1.05896
C         -0.84243        7.18169        1.71998
C         -0.00740        5.97806       -0.32233
N          0.37867        5.94558       -1.41761
N         -1.12659        8.17112        2.24787
C         -6.11449       -7.66422        0.03238
C         -5.46380       -8.76180        0.56529
C         -6.13721       -9.97646        0.49937
C         -7.43974       -9.83643       -0.10421
S         -7.61679       -8.20098       -0.46858
C         -8.56532      -10.82492       -0.31538
C         -9.77918      -10.58871       -0.90745
C        -10.84608      -11.44924       -1.40772
C        -11.63345      -10.59558       -2.38639
C        -11.20917       -9.31487       -2.26875
C        -10.33335       -9.34955       -1.12121
C        -12.62076      -10.90904       -3.32019
C        -13.11269       -9.89775       -4.16448
C        -12.62305       -8.58127       -4.07203
C        -11.65862       -8.26447       -3.10393
O        -10.44087       -8.62240       -0.16553
C        -11.10463      -12.71782       -1.05577
C        -12.29077      -13.38956       -1.48991
C        -10.30483      -13.48055       -0.13771
N         -9.60440      -14.02104        0.60625
N        -13.22434      -14.00146       -1.79320
C          2.62433        0.99012       -1.39178
C          3.86882        1.02644       -0.48497
C         -5.37478      -11.14520        1.12116
C         -5.64279      -11.37917        2.60226
C         -2.02441       -2.86672       -0.09093
C         -2.42367       -4.22574       -0.09297
C         -1.43527       -5.24668       -0.12728
C         -0.05907       -4.91674       -0.10781
C          0.30899       -3.57647       -0.09676
C         -3.03337       -1.88861       -0.13928
C         -4.37474       -2.21062       -0.10523
C         -4.80148       -3.54014       -0.04967
C         -3.81570       -4.56567       -0.07172
C         -4.21226       -5.92664       -0.08663
C         -3.19338       -6.89745       -0.21456
C         -1.85185       -6.57238       -0.20900
C         -6.18168       -3.86520        0.00242
C         -6.55181       -5.21857        0.01835
C         -5.60286       -6.25874       -0.02314
C          1.05692       -5.94960       -0.05113
C          1.45730       -6.30416        1.37583
C         -7.28454       -2.80509        0.10407
C         -7.65783       -2.44473        1.54165
H          1.76314       -1.48606       -1.13264
H          0.62516        3.48706       -0.48080
H         -0.65255        6.66178        4.16972
H         -1.00506        5.85100        6.46930
H         -1.32103        3.43379        6.94790
H         -1.44302        1.81634        5.07507
H         -4.51233       -8.70873        1.06122
H         -8.35402      -11.82442       -0.03964
H        -12.99605      -11.90826       -3.43357
H        -13.85868      -10.13815       -4.90799
H        -12.99262       -7.81520       -4.74155
H        -11.27200       -7.25087       -3.03098
H          2.69348        0.48896       -2.39087
H          2.59810        2.04704       -1.69744
H          3.97742        0.31578        0.30568
H          4.79001        1.01668       -1.10328
H          3.81834        1.61203        0.43077
H         -5.21959      -12.02059        0.47051
H         -4.29964      -10.96865        1.15856
H         -6.59832      -11.26747        3.03764
H         -5.28822      -12.36932        2.90210
H         -5.57963      -10.55091        3.20665
H          1.36564       -3.34127       -0.07273
H         -2.84441       -0.84460       -0.22099
H         -5.05980       -1.37861       -0.14035
H         -3.36856       -7.93928       -0.35184
H         -1.15129       -7.39059       -0.29325
H         -7.60443       -5.46384        0.08632
H          0.73158       -6.88021       -0.56703
H          1.93707       -5.61498       -0.63566
H          0.59314       -6.73766        1.92303
H          2.27000       -7.06184        1.34648
H          1.82601       -5.40764        1.91496
H         -6.97066       -1.87808       -0.42259
H         -8.19868       -3.12367       -0.43741
H         -6.78344       -2.02384        2.08025
H         -8.45948       -1.67220        1.53534
H         -8.04405       -3.33311        2.08245
