266
PY5-BT.sdf
C        -17.88620        1.09020       -8.15311
O        -18.20543        1.91483       -7.32616
C        -18.79379        0.10000       -8.57016
C        -20.10069        0.03920       -8.15902
C        -20.86761       -1.02711       -8.56435
C        -20.33304       -2.06094       -9.34825
C        -18.97839       -1.92881       -9.81429
C        -18.21410       -0.79997       -9.42364
C        -16.82671       -0.29730       -9.74977
C        -16.02266       -0.78219      -10.72655
C        -14.72261       -0.23919      -11.03723
N        -13.67570        0.12116      -11.36951
C        -16.37388       -1.92186      -11.54873
N        -16.64596       -2.81088      -12.23929
C        -16.59986        0.90220       -8.83289
C        -15.50692        1.70517       -8.69748
C        -15.40947        2.93124       -7.81829
S        -16.23174        3.29629       -6.33008
C        -15.71397        4.86510       -6.16166
C        -14.86749        5.09797       -7.23367
C        -14.60776        4.04853       -8.11930
C        -13.56328        4.17880       -9.21270
C        -14.05018        4.77792      -10.52187
S        -14.28578        6.66901       -7.25926
C        -15.12295        6.98635       -5.83517
C        -15.81305        5.97826       -5.29116
N        -16.36969        6.36270       -4.08130
C        -17.30732        5.55228       -3.28514
C        -18.36497        6.44612       -2.63709
C        -15.91817        7.67766       -3.87996
C        -15.24560        8.05934       -5.06005
C        -14.73727        9.30604       -5.34066
N        -14.05984        9.62225       -6.47350
S        -13.67682       11.20422       -6.21504
N        -14.33755       11.51832       -4.72927
C        -14.90604       10.32776       -4.40418
C        -15.46037       10.00066       -3.16512
C        -15.87524        8.68870       -2.79536
N        -15.93671        8.66653       -1.38527
C        -16.17894        7.61339       -0.35094
C        -17.40031        7.94363        0.58579
C        -15.46291        9.91030       -1.04673
C        -15.42335       10.77604       -2.05959
S        -14.79301       12.31147       -1.74936
C        -14.09853       11.67801       -0.35029
C        -14.53024       10.39847       -0.10821
S        -13.22881        9.62023        0.56555
C        -12.04590       10.90644        0.33203
C        -12.81655       12.08056        0.05947
C        -12.46316       13.54913       -0.12900
C        -11.02039       13.94847       -0.07556
C        -10.48997       10.74335        0.22066
C         -9.88234        9.52271       -0.01086
C         -8.44692        8.96617       -0.09088
C         -7.18830        9.50272        0.00581
C         -6.84895       10.98435        0.00616
N         -6.56743       12.21349        0.00645
C         -6.07496        8.46805       -0.01274
N         -5.15135        7.60971       -0.02813
C         -8.62974        7.46061       -0.20534
C         -7.78569        6.35628       -0.49180
C         -8.22775        5.04171       -0.29902
C         -9.51738        4.84836        0.19191
C        -10.39697        5.91254        0.26852
C         -9.92584        7.17642        0.00336
C        -10.68833        8.33448       -0.21048
O        -11.61376        8.27794       -1.00775
C        -21.18967       -3.24127       -9.70233
C        -22.32185       -3.84327       -9.04387
C        -22.80769       -4.95626       -9.76688
C        -22.13712       -5.22445      -10.95994
S        -20.90783       -4.10107      -11.12176
C        -23.27415       -9.40761      -14.90749
C        -23.05075       -9.31453      -16.28480
C        -23.40187      -10.47531      -16.99416
C        -23.90804      -11.48946      -16.19254
S        -23.91590      -10.94288      -14.61170
C        -23.22353      -10.62121      -18.47670
C        -24.45668      -10.15069      -19.23863
C        -22.98234       -3.41132       -7.71601
C        -24.20151       -4.23191       -7.21172
C        -22.43484       -6.30471      -11.93988
C        -23.00533       -7.52797      -11.55210
C        -23.27290       -8.55102      -12.51195
C        -22.99252       -8.35615      -13.88063
C        -22.42086       -7.12110      -14.25402
C        -22.13746       -6.12486      -13.30525
N        -23.30079       -7.84381      -10.26465
S        -23.89134       -9.37751      -10.38840
N        -23.79906       -9.69520      -12.00288
C          7.01276       -0.94215       -5.71138
O          7.98382       -0.29494       -5.34813
C          5.85029       -0.98851       -4.91326
C          5.77420       -1.40611       -3.60187
C          4.54549       -1.35359       -2.97259
C          3.42214       -0.78961       -3.61089
C          3.55796       -0.33212       -4.96327
C          4.79057       -0.52748       -5.64079
C          5.27224       -0.37965       -7.07993
C          4.61118        0.22922       -8.08890
C          5.19166        0.36943       -9.40102
N          5.73577        0.43226      -10.41926
C          3.34105        0.86807       -7.85971
N          2.32494        1.39944       -7.73188
C          6.63959       -1.04066       -7.09513
C          7.43013       -1.69827       -8.04101
C          8.75656       -2.42961       -7.66034
S          9.34232       -2.46198       -6.04220
C         10.66283       -3.36512       -6.20404
C         10.73314       -3.72652       -7.52684
C          9.70931       -3.24517       -8.40634
C          9.66273       -3.67623       -9.88614
C         11.02423       -3.93969      -10.59161
S         12.10181       -4.70765       -7.71851
C         12.52145       -4.57926       -6.11290
C         11.68398       -3.85444       -5.38264
N         12.06119       -3.78673       -4.06709
C         11.28190       -2.96553       -3.09756
C         11.92825       -1.54666       -2.92281
C         13.26900       -4.52811       -4.02804
C         13.52032       -4.99553       -5.34352
C         14.59434       -5.78179       -5.73421
N         14.72475       -6.39579       -6.93832
S         16.14761       -7.21877       -6.75423
N         16.64834       -6.77965       -5.24094
C         15.63520       -5.97593       -4.82475
C         15.48669       -5.49030       -3.53184
C         14.26529       -5.00378       -3.04863
N         14.35227       -5.19265       -1.67818
C         13.52058       -4.80152       -0.53260
C         13.18737       -3.34284       -0.63683
C         15.51096       -5.89458       -1.48574
C         16.35413       -5.61985       -2.46987
S         17.81656       -6.39951       -2.48811
C         16.98071       -7.66811       -1.82071
C         15.72435       -7.33583       -1.38355
S         14.88281       -8.83619       -1.39791
C         16.22444       -9.85554       -1.93901
C         17.34851       -8.97941       -2.02660
C         18.74227       -9.22470       -2.55101
C         19.64177       -9.82886       -1.45092
C         16.10659      -11.27548       -2.56859
C         17.11304      -12.08375       -3.07665
C         17.00943      -13.21846       -3.98328
C         16.53620      -14.42778       -3.64311
C         16.94931      -15.57243       -4.42202
N         17.25263      -16.53100       -5.01465
C         15.79405      -14.66268       -2.43889
N         15.21037      -14.67127       -1.44483
C         18.03429      -12.93293       -5.02880
C         18.19875      -13.30787       -6.36392
C         19.33810      -12.83076       -7.05149
C         20.30875      -12.04865       -6.38622
C         20.14034      -11.72044       -5.03789
C         18.97986      -12.15501       -4.41148
C         18.54746      -11.92275       -3.05835
O         19.22363      -12.37519       -2.15054
C          2.11770       -0.69271       -2.88722
C          1.56138       -1.53116       -1.88022
C          0.27834       -1.12024       -1.48190
C         -0.16501        0.04173       -2.09903
S          1.01429        0.54474       -3.18474
C         -5.31886        2.50142       -1.13240
C         -6.51523        1.82621       -1.28453
C         -7.65462        2.57970       -0.99748
C         -7.33104        3.90616       -0.61545
S         -5.65142        4.07176       -0.67161
C         -9.01303        1.96518       -1.29713
C         -9.61308        1.10706       -0.18025
C          2.14315       -2.81741       -1.32271
C          2.89996       -2.63680       -0.00614
C         -1.46360        0.70323       -1.85568
C         -1.63201        2.09081       -2.01212
C         -2.89124        2.70033       -1.75471
C         -3.99329        1.91888       -1.38079
C         -3.81706        0.53158       -1.23771
C         -2.57284       -0.06215       -1.45027
N         -0.63696        2.94121       -2.37544
S         -1.39151        4.40957       -2.37056
N         -2.93765        4.04736       -1.92506
H        -20.51760        0.81605       -7.53061
H        -21.88023       -1.00662       -8.25447
H        -18.53939       -2.69758      -10.42738
H        -14.66158        1.50723       -9.33166
H        -12.75868        4.84211       -8.81805
H        -13.06506        3.20508       -9.39232
H        -14.52111        5.76901      -10.35198
H        -13.17451        4.91850      -11.19534
H        -14.75655        4.08586      -11.01907
H        -17.87085        4.85714       -3.95979
H        -16.77672        4.95614       -2.51827
H        -18.86701        7.12641       -3.34324
H        -19.09465        5.86957       -2.02735
H        -17.87863        7.15754       -2.00714
H        -16.33896        6.62503       -0.80420
H        -15.30021        7.48458        0.30366
H        -18.31849        8.30903        0.06302
H        -17.72530        7.04649        1.16456
H        -17.12410        8.68855        1.36193
H        -12.87209       13.94648       -1.07366
H        -12.98845       14.09081        0.69860
H        -10.51207       13.47507       -0.93748
H        -10.94377       15.05162       -0.19791
H        -10.60701       13.67747        0.91543
H         -9.83930       11.60534        0.29093
H         -6.81325        6.44213       -0.89917
H         -9.87141        3.88445        0.45776
H        -11.42448        5.76026        0.54227
H        -23.65574       -5.53685       -9.44183
H        -22.64123       -8.44674      -16.78062
H        -24.23621      -12.46493      -16.52315
H        -22.33588      -10.03739      -18.80180
H        -23.02947      -11.68780      -18.72084
H        -24.65574       -9.07748      -19.03368
H        -24.28479      -10.27969      -20.32847
H        -25.34378      -10.75250      -18.94655
H        -22.23585       -3.44213       -6.89370
H        -23.36364       -2.38277       -7.82979
H        -23.89136       -5.21646       -6.80279
H        -24.69480       -3.69644       -6.37048
H        -24.99442       -4.37344       -7.97985
H        -22.18285       -6.90888      -15.28631
H        -21.70550       -5.19512      -13.65577
H          6.63875       -1.80987       -3.08824
H          4.52064       -1.72281       -1.97616
H          2.70423        0.08696       -5.46647
H          7.05123       -1.79363       -9.05940
H          9.14292       -4.65704       -9.91274
H          9.07934       -2.96773      -10.50810
H         11.63199       -4.70593      -10.10164
H         10.87278       -4.41333      -11.58144
H         11.64106       -3.02580      -10.71931
H         11.04979       -3.53082       -2.16879
H         10.24285       -2.81473       -3.42473
H         12.98230       -1.52221       -2.56560
H         11.96187       -1.03431       -3.90219
H         11.35494       -0.91674       -2.20662
H         12.60710       -5.41831       -0.48700
H         14.10447       -4.84927        0.41371
H         12.93773       -3.35353       -1.63047
H         12.34044       -3.01851        0.01213
H         13.99739       -2.59679       -0.71395
H         18.61706       -9.67267       -3.54323
H         19.32083       -8.34130       -2.86002
H         19.12623      -10.59876       -0.84037
H         20.57260      -10.23595       -1.91235
H         19.93352       -9.07362       -0.70314
H         15.09139      -11.60550       -2.80851
H         17.45817      -13.91165       -6.86699
H         19.47567      -13.06364       -8.09717
H         21.18498      -11.69129       -6.91160
H         20.86722      -11.11643       -4.50491
H         -0.30657       -1.65785       -0.74669
H         -6.57247        0.81324       -1.65276
H         -9.73552        2.72877       -1.64377
H         -8.86733        1.27109       -2.15909
H         -9.85187        1.70178        0.72253
H        -10.56896        0.66255       -0.53098
H         -8.94173        0.26088        0.07233
H          1.32527       -3.55708       -1.15101
H          2.81381       -3.28524       -2.06360
H          2.21538       -2.35291        0.81678
H          3.39484       -3.60091        0.24341
H          3.68872       -1.86476       -0.07500
H         -4.64016       -0.10431       -0.93398
H         -2.49625       -1.13406       -1.32076
