256
PY5-BTZ.sdf
C        -13.87006       12.09399       14.09531
O        -14.28670       11.61522       13.06027
C        -14.74518       12.46791       15.13897
C        -16.09692       12.67015       14.96444
C        -16.86759       12.96737       16.05963
C        -16.27635       13.07262       17.33218
C        -14.86763       12.87565       17.49174
C        -14.08894       12.55219       16.34308
C        -12.62716       12.19960       16.08288
C        -11.67858       11.96251       17.04562
C        -10.35136       11.54927       16.68433
N         -9.26086       11.21446       16.49908
C        -11.99809       12.05543       18.45699
N        -12.12449       12.07933       19.59763
C        -12.49050       12.08202       14.54753
C        -11.43307       11.91397       13.66649
C        -11.57726       11.89091       12.12625
S        -12.77278       12.79043       11.18106
C        -12.40737       12.20352        9.64726
C        -11.32625       11.34988        9.89455
C        -10.79208       11.15856       11.17151
C         -9.59921       10.16070       11.32775
C         -8.28521       10.49650       10.55129
S        -10.83310       10.56508        8.55123
C        -11.99371       11.32223        7.65658
C        -12.78757       12.21741        8.23753
N        -13.66449       12.73734        7.26147
C        -14.76197       13.68470        7.57776
C        -14.28426       15.12628        7.56566
C        -13.35983       12.02144        6.06068
C        -12.33910       11.11789        6.42079
C        -11.76407       10.12503        5.65387
N        -10.73271        9.32581        6.03443
S        -10.51896        8.35914        4.72308
N        -11.69380        8.88752        3.70047
C        -12.28355        9.88041        4.41708
C        -13.22863       10.74705        3.94112
C        -13.70317       11.91675        4.59338
N        -14.26383       12.68867        3.55181
C        -14.72566       14.09879        3.53964
C        -14.58176       14.75672        2.15938
C        -14.06297       11.90775        2.40862
C        -13.63642       10.70406        2.69678
S        -13.36031        9.64528        1.44292
C        -13.68125       10.83179        0.31951
C        -13.83591       12.04668        1.01114
S        -12.47348       12.92909        0.46405
C        -11.79900       11.73137       -0.57143
C        -12.87675       10.85139       -0.81847
C        -13.68828       11.35341       -2.04331
C        -15.19529       11.60896       -1.80739
C        -10.33154       11.23506       -0.28710
C         -9.84620        9.94056       -0.50344
C         -8.52025        9.13397       -0.20412
C         -7.18830        9.50272        0.00581
C         -6.84895       10.98435        0.00616
N         -6.56743       12.21349        0.00645
C         -6.07496        8.46805       -0.01274
N         -5.15135        7.60971       -0.02813
C         -8.92970        7.70199       -0.38738
C         -8.26331        6.49689       -0.14911
C         -8.89323        5.28886       -0.47974
C        -10.18862        5.27437       -1.02184
C        -10.83797        6.46758       -1.26267
C        -10.18302        7.64329       -0.93981
C        -10.67885        8.93641       -1.17620
O        -11.52659        9.13535       -2.02468
C        -17.16407       13.39694       18.45340
C        -18.53124       13.12539       18.50958
C        -19.13447       13.58227       19.67306
C        -18.24570       14.21841       20.53236
S        -16.70097       14.17276       19.86036
C        -18.57835       14.82302       21.83021
C        -17.62230       14.92399       22.83946
C        -17.90348       15.45874       24.05942
C        -19.16660       15.97470       24.38793
C        -20.15639       15.90364       23.37050
C        -19.86854       15.32703       22.11603
N        -16.34188       14.51128       22.83651
N        -15.87632       14.80729       24.04341
N        -16.79397       15.37746       24.81158
F        -21.40830       16.38699       23.56672
F        -20.84940       15.30688       21.17817
C        -14.52378       14.50481       24.49246
C        -13.58885       15.66268       24.17396
C        -19.45200       16.56447       25.72369
C        -18.56449       16.67754       26.79563
C        -19.11731       17.27811       27.92501
C        -20.44129       17.64747       27.76703
S        -20.92421       17.22480       26.21850
C         -9.89602      -11.43363        1.91605
O         -9.09092      -12.30084        2.20821
C         -9.44847      -10.21145        1.41430
C         -8.30455      -10.06378        0.65817
C         -7.85428       -8.79581        0.42187
C         -8.55162       -7.70032        0.95370
C         -9.77756       -7.87299        1.65643
C        -10.23198       -9.18556        1.88579
C        -11.40663       -9.79605        2.62488
C        -12.39110       -9.14469        3.30377
C        -13.46419       -9.81792        3.99678
N        -14.35650      -10.27056        4.58158
C        -12.37809       -7.71398        3.46858
N        -12.29001       -6.56353        3.55018
C        -11.20584      -11.29708        2.51553
C        -11.90206      -12.39227        2.93479
C        -11.43900      -13.80634        2.60865
S        -10.50049      -14.30312        1.19214
C        -10.39197      -15.93397        1.52031
C        -11.10408      -16.06438        2.72099
C        -11.72256      -14.97708        3.34487
C        -12.53472      -15.18726        4.65477
C        -14.03808      -14.87035        4.63514
S        -11.23768      -17.61101        3.21485
C        -10.50881      -18.10210        1.81106
C        -10.00164      -17.21315        0.96337
N         -9.46753      -17.87831       -0.16216
C         -8.95250      -17.23667       -1.38877
C        -10.07902      -16.44131       -2.04358
C         -9.87767      -19.22333       -0.00030
C        -10.60054      -19.24350        1.20641
C        -11.49680      -20.20180        1.62308
N        -12.25874      -20.15707        2.74731
S        -13.26974      -21.43734        2.55055
N        -12.79799      -22.03890        1.09465
C        -11.79877      -21.19061        0.73816
C        -11.02171      -21.30445       -0.38123
C         -9.91437      -20.51412       -0.76112
N         -9.26185      -21.27167       -1.76876
C         -7.96727      -21.07780       -2.49281
C         -6.74200      -21.78588       -1.87725
C        -10.09760      -22.38608       -1.92871
C        -11.19389      -22.25438       -1.23813
S        -12.39403      -23.35921       -1.48591
C        -11.45198      -24.27980       -2.52431
C        -10.13403      -23.72526       -2.41435
S         -9.50238      -24.79952       -1.27018
C        -10.86428      -25.88081       -1.06579
C        -11.62486      -25.64923       -2.22234
C        -11.13157      -26.50621       -3.40616
C         -9.65524      -26.31953       -3.83497
C        -11.58901      -26.23732        0.28782
C        -11.04685      -26.20809        1.56254
C        -11.56891      -26.49869        2.98667
C        -12.84789      -26.62338        3.43057
C        -13.11954      -26.80802        4.82774
N        -13.39098      -26.95951        5.93554
C        -13.99084      -26.60456        2.55220
N        -14.97245      -26.60529        1.95472
C        -10.34458      -26.47301        3.88862
C        -10.08905      -26.67951        5.26826
C         -8.77460      -26.47116        5.76350
C         -7.73371      -26.08521        4.90427
C         -7.99821      -25.89360        3.56781
C         -9.28908      -26.08491        3.12227
C         -9.68229      -25.80237        1.82338
O         -9.00257      -25.04729        1.18576
C         -7.94023       -6.40184        0.80380
C         -6.57474       -6.18077        0.69135
C         -6.25684       -4.84961        0.58370
C         -7.37515       -4.02425        0.60115
S         -8.75545       -4.96056        0.79935
C         -7.38613       -2.57099        0.46439
C         -8.58720       -1.85352        0.49230
C         -8.62227       -0.50698        0.35472
C         -7.45677        0.25043        0.17199
C         -6.23089       -0.45072        0.14500
C         -6.19632       -1.83077        0.28631
N         -9.84826       -2.29787        0.64659
N        -10.61459       -1.21732        0.60430
N         -9.90660       -0.10875        0.42822
F         -5.03579        0.15784       -0.02554
F         -4.97173       -2.40125        0.23569
C        -12.06558       -1.24651        0.75049
C        -12.73559       -0.67963       -0.49464
C         -7.51359        1.70069        0.00209
C         -6.43763        2.56740       -0.16796
C         -6.81844        3.88136       -0.32487
C         -8.19035        4.04332       -0.29224
S         -8.93746        2.57655       -0.06789
H        -16.54178       12.59422       13.98296
H        -17.92450       13.12979       15.88790
H        -14.44133       12.94549       18.48317
H        -10.42848       11.80739       14.05990
H         -9.36061        9.97128       12.38853
H         -9.88047        9.17271       10.89088
H         -7.79514       11.42768       10.89177
H         -7.55861        9.65926       10.67677
H         -8.40912       10.57148        9.44959
H        -15.13847       13.47694        8.61178
H        -15.63210       13.56962        6.89501
H        -13.41807       15.21215        8.24941
H        -14.01486       15.40880        6.52915
H        -15.07431       15.82896        7.92139
H        -15.80282       14.15509        3.81943
H        -14.10952       14.70871        4.22329
H        -15.18642       14.24322        1.37452
H        -14.86775       15.82607        2.15673
H        -13.51021       14.73259        1.91558
H        -13.25901       12.29708       -2.44999
H        -13.61668       10.59883       -2.85670
H        -15.34671       12.38308       -1.02717
H        -15.68670       11.97661       -2.72717
H        -15.69509       10.66902       -1.48438
H         -9.68231       11.93639        0.22582
H         -7.29234        6.44411        0.29433
H        -10.68246        4.35225       -1.29701
H        -11.82665        6.48485       -1.69930
H        -19.08619       12.59159       17.74812
H        -20.18371       13.41960       19.87517
H        -14.52352       14.32790       25.59062
H        -14.16597       13.58051       23.99113
H        -13.91839       16.57842       24.71011
H        -12.56005       15.40613       24.50298
H        -13.57944       15.86129       23.08153
H        -17.54102       16.34770       26.80020
H        -18.55633       17.43634       28.83467
H        -21.05528       18.12547       28.51457
H         -7.75306      -10.91839        0.28942
H         -6.94286       -8.68104       -0.15185
H        -10.28531       -7.01152        2.05798
H        -12.81509      -12.27215        3.50417
H        -12.51515      -16.25837        4.96626
H        -12.05669      -14.63941        5.48664
H        -14.59846      -15.56651        3.97363
H        -14.45107      -15.02111        5.66192
H        -14.24700      -13.82491        4.35249
H         -8.09364      -16.56006       -1.17331
H         -8.64284      -17.99242       -2.13705
H        -10.40838      -15.62409       -1.37202
H         -9.77438      -15.99132       -3.01371
H        -10.91976      -17.14256       -2.23104
H         -8.06808      -21.48172       -3.52920
H         -7.71815      -20.00647       -2.59749
H         -6.89043      -22.88345       -1.80357
H         -5.84546      -21.61996       -2.52713
H         -6.48254      -21.36509       -0.88509
H        -11.26983      -27.57868       -3.15527
H        -11.75590      -26.28478       -4.29883
H         -8.95998      -26.57071       -3.00760
H         -9.38237      -26.98557       -4.66440
H         -9.46857      -25.28320       -4.18925
H        -12.64038      -26.54579        0.20943
H        -10.84355      -26.96704        5.97648
H         -8.54875      -26.59203        6.81113
H         -6.72716      -25.91129        5.25478
H         -7.22841      -25.58039        2.86976
H         -5.81087       -6.94618        0.71036
H         -5.22939       -4.55217        0.49641
H        -12.40938       -2.29325        0.90440
H        -12.35699       -0.64659        1.63906
H        -12.46110       -1.28769       -1.38249
H        -13.83863       -0.69979       -0.36986
H        -12.41352        0.37072       -0.65803
H         -5.39844        2.30656       -0.19872
H         -6.10305        4.67198       -0.49714
