194
PYTT-3_dimer.sdf
C         11.52743        3.91782      -17.32549
O         12.62747        3.90960      -17.85979
C         10.57136        2.79852      -17.35025
C          9.56086        3.07114      -16.45726
C          9.62282        4.46395      -15.99020
C          8.47435        5.11111      -15.54692
C          7.24116        4.39624      -15.29725
N          6.21436        3.90970      -15.07144
C          8.24668        6.50167      -15.25865
N          7.88368        7.56622      -14.98422
C         11.07516        4.84912      -16.23522
C         11.95335        5.68025      -15.56500
C         11.76008        6.42484      -14.26088
S         12.67723        7.81062      -13.74070
C         11.93015        7.98097      -12.22003
C         11.02418        6.96120      -12.12040
C         10.93495        6.06826      -13.16869
C         10.11685        4.84046      -12.90969
C         10.95623        3.74139      -12.27103
S         10.15416        6.94673      -10.66916
C         10.99962        8.28196      -10.16972
C         11.92641        8.73847      -11.02231
N         12.60341        9.79341      -10.48286
C         13.59654       10.50864      -11.30408
C         12.04610        9.96126       -9.18471
C         10.98718        9.02987       -9.06738
C         10.12972        8.87854       -7.97760
N          9.17796        7.91718       -7.86027
S          8.55484        8.21819       -6.35769
N          9.42341        9.52337       -5.83916
C         10.25241        9.74701       -6.89082
C         11.30854       10.62766       -6.88950
C         12.28174       10.71692       -7.93102
N         13.36479       11.38204       -7.37060
C         14.71830       11.67512       -7.83049
C         14.68275       13.00124       -8.55390
C         13.00253       11.59711       -6.07414
C         11.73752       11.31518       -5.81264
S         11.27621       11.47839       -4.19435
C         12.88126       11.80754       -3.74921
C         13.68082       11.69834       -4.86815
S         14.99078       10.72241       -4.43891
C         14.44668       10.43768       -2.81738
C         13.47001       11.45061       -2.52962
C         14.32099       12.71168       -2.13557
C         13.72916       13.63658       -1.06437
C         14.39671        8.96119       -2.32937
C         13.56824        8.38402       -1.37363
C         12.60768        9.04336       -0.47762
C         12.80254       10.21301        0.07022
C         11.74543       11.01658        0.63397
N         10.86408       11.62416        1.07347
C         14.21630       10.77049        0.10026
N         15.38913       11.23296        0.12519
C         11.46479        8.16698       -0.32863
C         11.83399        6.90607       -0.72843
C         13.21958        6.95315       -1.28159
O         13.83628        6.03797       -1.79944
C         14.98137        9.87204      -11.24676
C         10.82227        5.96662       -0.53573
S          9.48192        6.78098        0.10530
C         10.18336        8.30791        0.18159
C          8.64554        2.04880      -16.25656
S          9.05966        0.81716      -17.29016
C         10.38303        1.57607      -18.01253
C         10.95170        1.02260      -19.24460
S         11.75459        1.87641      -20.44914
C         11.68775        0.63666      -21.59594
C         11.05735       -0.46385      -21.03467
C         10.64274       -0.24857      -19.72405
C         14.67270        1.53094       -1.60958
O         14.73966        2.41569       -0.77332
C         13.44045        0.87814       -2.12846
C         13.76524       -0.19484       -2.91526
C         15.19221       -0.07779       -3.15461
C         15.64023       -0.10197       -4.40599
C         14.99445       -0.88998       -5.44640
N         14.43494       -1.54677       -6.22197
C         16.64533        0.88024       -4.84034
N         17.42833        1.68347       -5.05388
C         15.77404        0.66893       -2.04358
C         17.00919        0.48302       -1.47141
C         17.93041       -0.69123       -1.78811
S         19.68307       -0.75349       -1.69332
C         19.90807       -2.39725       -2.15361
C         18.59874       -2.83045       -2.32646
C         17.51417       -2.01026       -2.10452
C         16.13201       -2.70264       -2.08790
C         15.71448       -3.06403       -0.66558
S         18.45718       -4.39723       -2.75293
C         20.06623       -4.56303       -2.72285
C         20.82868       -3.52178       -2.39220
N         22.16455       -3.97164       -2.37675
C         23.31514       -3.14742       -1.95128
C         22.10818       -5.36930       -2.69299
C         20.74319       -5.64876       -2.89845
C         20.14036       -6.86609       -3.18771
N         18.82183       -7.07392       -3.45250
S         18.74523       -8.70262       -3.67480
N         20.30140       -9.16394       -3.41596
C         20.91515       -7.97812       -3.16405
C         22.24771       -7.81351       -2.96714
C         22.97634       -6.59835       -2.85059
N         24.32905       -7.00893       -2.90348
C         25.59545       -6.25557       -2.83506
C         26.08568       -5.81624       -4.20727
C         24.27414       -8.40451       -2.97394
C         23.05544       -8.82301       -2.85978
S         22.86219      -10.44567       -2.60549
C         24.53069      -10.71779       -2.57806
C         25.07633       -9.56621       -3.17789
S         25.23097      -10.17197       -4.77681
C         25.03875      -11.87971       -4.50260
C         24.87768      -11.96823       -3.10209
C         26.04858      -12.58512       -2.35674
C         27.30923      -11.73764       -2.58766
C         24.92064      -13.13097       -5.41011
C         24.42551      -13.24593       -6.69900
C         23.88516      -12.18478       -7.59838
C         24.38899      -11.01142       -7.90452
C         23.73966      -10.04632       -8.78003
N         23.13266       -9.32507       -9.53625
C         25.75488      -10.64293       -7.58422
N         26.82653      -10.30175       -7.29189
C         22.75364      -12.82133       -8.30566
C         22.91409      -14.18775       -8.28680
C         23.99798      -14.53336       -7.35498
O         24.28481      -15.67072       -7.01065
C         22.92493       -2.12730       -0.86228
C         22.02160      -14.89624       -9.08733
S         20.95222      -13.74309       -9.72188
C         21.66072      -12.37020       -9.03115
C         12.70387       -0.95035       -3.39851
S         11.30295       -0.20216       -2.82178
C         12.08008        1.07571       -2.02622
C         11.43066        2.24278       -1.47888
S         12.17573        3.72941       -1.39574
C         10.84787        4.54399       -0.82481
C          9.79144        3.65220       -0.67462
C         10.11627        2.35478       -1.07237
H         12.97426        5.74158      -15.95399
H          9.20926        5.13240      -12.34598
H          9.75051        4.35154      -13.74940
H         11.46351        4.08380      -11.35050
H         10.30804        2.87404      -12.02018
H         11.72242        3.40411      -13.00618
H         13.56331       11.59141      -11.10157
H         13.28158       10.46770      -12.38318
H         15.39813       11.85721       -6.96128
H         15.13009       10.85280       -8.42798
H         14.36590       13.79079       -7.83205
H         15.68227       13.26425       -8.95700
H         13.93899       12.93013       -9.36393
H         15.36189       12.44001       -1.85404
H         14.49937       13.40182       -2.98529
H         13.54262       13.16343       -0.08419
H         14.45272       14.46504       -0.88649
H         12.78725       14.08289       -1.43521
H         14.94802        8.25920       -2.94927
H         15.20282        9.55947      -10.21515
H         15.04595        8.96541      -11.88779
H         15.74466       10.59632      -11.60940
H          9.71345        9.20426        0.55612
H          7.79507        2.01707      -15.60438
H         12.04367        0.68987      -22.61479
H         10.86584       -1.38757      -21.56573
H         10.08664       -0.99010      -19.16264
H         17.30484        1.14332       -0.66077
H         15.33440       -2.26557       -2.64531
H         16.13067       -3.65669       -2.64380
H         15.57360       -2.14103       -0.07950
H         14.77090       -3.65652       -0.68588
H         16.48871       -3.68582       -0.15949
H         23.71470       -2.57287       -2.81272
H         24.11531       -3.79232       -1.54263
H         25.51421       -5.39994       -2.14005
H         26.39023       -6.91321       -2.40565
H         25.34612       -5.14021       -4.67658
H         27.05622       -5.27766       -4.10580
H         26.25365       -6.70616       -4.85127
H         25.84446      -12.57442       -1.25774
H         26.24733      -13.62004       -2.68473
H         27.14041      -10.70696       -2.20636
H         28.20454      -12.10869       -2.06230
H         27.52410      -11.73909       -3.67754
H         25.02695      -14.09123       -4.89768
H         22.24206       -1.37059       -1.28502
H         22.42529       -2.62056       -0.00075
H         23.80648       -1.56124       -0.49386
H         21.98028      -15.96377       -9.26081
H         21.32338      -11.34882       -9.13430
H         12.74589       -1.81262       -4.04906
H          8.81398        3.92664       -0.30593
H          9.42412        1.52672       -1.05589
