194
PYTT-1_dimer.sdf
C         20.10563      -11.85155       14.99918
O         20.17075      -12.21848       13.85180
C         21.11514      -12.17457       15.90372
C         20.97429      -11.57535       17.09193
C         19.67367      -10.84245       17.10800
C         19.16898      -10.26789       18.20581
C         19.84019      -10.29438       19.49671
N         20.39706      -10.33457       20.50345
C         17.87893       -9.60912       18.26215
N         16.86056       -9.06256       18.41029
C         19.13010      -10.97067       15.66949
C         18.02761      -10.41404       15.08475
C         17.53684      -10.56697       13.63594
S         18.18769      -11.53498       12.32883
C         17.07617      -11.21158       11.13339
C         16.17544      -10.36720       11.76308
C         16.40077       -9.92710       13.07358
C         15.45590       -8.84210       13.60281
C         16.00865       -7.81613       14.58173
S         14.89927       -9.95416       10.78842
C         15.57359      -10.82183        9.54244
C         16.74126      -11.43034        9.74972
N         17.18164      -12.02365        8.56107
C         18.41898      -12.84121        8.49528
C         16.18230      -11.69519        7.60298
C         15.16242      -11.02375        8.31423
C         13.94902      -10.57111        7.82780
N         13.05602       -9.82077        8.52526
S         11.87440       -9.54814        7.40937
N         12.42292      -10.36562        6.08434
C         13.60230      -10.87637        6.52605
C         14.56534      -11.45175        5.72802
C         15.89863      -11.72097        6.13590
N         16.63542      -11.73732        4.94162
C         18.06245      -11.83088        4.62671
C         18.23157      -12.59803        3.29861
C         15.70873      -11.39981        3.97879
C         14.46195      -11.52886        4.40217
S         13.21913      -11.27107        3.29885
C         14.36308      -10.61214        2.26472
C         15.63652      -10.68621        2.75606
S         16.55087       -9.51155        1.93859
C         15.18644       -8.84863        1.05817
C         14.09474       -9.78323        1.19282
C         12.69152       -9.84604        0.55417
C         12.60967      -10.65672       -0.73146
C         15.12394       -7.43504        0.42201
C         13.93709       -6.71478        0.37913
C         13.41488       -5.44361       -0.17744
C         13.97565       -4.26904       -0.20417
C         13.01888       -3.08822       -0.17811
N         12.22517       -2.10864       -0.15649
C         15.47656       -4.03060       -0.23237
N         16.72170       -3.83280       -0.25576
C         11.95768       -5.65457       -0.35978
C         11.61167       -6.67060        0.41241
C         12.77496       -7.09835        1.14905
O         12.78174       -7.46928        2.30693
C         18.15047      -14.31760        8.91193
S          9.98904       -7.03918        0.29826
C          9.70638       -5.79969       -0.83781
C         10.89071       -5.08581       -1.07844
C         22.07652      -11.82915       17.91881
C         22.97573      -12.69697       17.27549
S         22.45811      -13.11713       15.73044
C         24.23386      -13.20065       17.78786
S         25.22904      -12.42007       18.88614
C         26.41739      -13.61118       18.87277
C         26.02376      -14.64313       18.03072
C         24.80387      -14.40664       17.40662
C          3.68004       -2.27999       -6.53472
O          3.52287       -1.08970       -6.31656
C          4.38445       -3.12159       -5.61625
C          3.63273       -4.18170       -5.24641
C          2.37091       -4.15526       -6.06226
C          1.24183       -4.85280       -5.84401
C          1.11969       -5.71710       -4.68034
N          0.98382       -6.41272       -3.76253
C          0.08937       -4.59208       -6.65146
N         -0.88901       -4.44642       -7.24128
C          2.62502       -3.08479       -7.11046
C          2.10777       -2.84515       -8.35458
C          2.68557       -1.79307       -9.30090
S          2.19105       -0.12587       -9.47609
C          3.29034        0.36071      -10.71026
C          4.01949       -0.80491      -10.92997
C          3.73131       -1.98806      -10.24372
C          4.57563       -3.20783      -10.63902
C          4.32787       -4.54287       -9.95426
S          5.21605       -0.62922      -12.05533
C          4.77824        0.94566      -12.30106
C          3.75281        1.44237      -11.60430
N          3.55408        2.78242      -12.01517
C          2.54245        3.70298      -11.44866
C          4.54610        3.04178      -13.01321
C          5.30600        1.85043      -13.08867
C          6.43604        1.61459      -13.85008
N          7.09365        0.43057      -13.95613
S          8.33533        0.79978      -14.97490
N          8.10105        2.40448      -15.26081
C          6.98018        2.66176      -14.53721
C          6.28754        3.83372      -14.56263
C          5.02266        4.10867      -13.98714
N          4.65192        5.35076      -14.57199
C          3.49075        6.24920      -14.36874
C          2.67822        6.53146      -15.65116
C          5.71187        5.67183      -15.44212
C          6.71126        4.88469      -15.20723
S          8.16927        5.41766      -15.75951
C          7.50054        6.80357      -16.47496
C          6.12568        6.55337      -16.52491
S          6.05597        5.97005      -18.16538
C          7.67021        6.38209      -18.75230
C          8.23743        7.06785      -17.63120
C          9.54990        7.79902      -17.37542
C          9.43560        9.27256      -17.80618
C          8.40684        5.94188      -20.08262
C          7.87073        5.07065      -21.02929
C          8.28866        4.38254      -22.34825
C          9.11649        4.83695      -23.32254
C          9.18861        4.18610      -24.61877
N          9.17647        3.59338      -25.61552
C          9.84099        6.06653      -23.16965
N         10.47283        7.03576      -23.18345
C          7.37946        3.18657      -22.46533
C          6.41831        3.34407      -21.53876
C          6.52098        4.61137      -20.88749
O          5.62024        5.42175      -21.01821
C          1.76042        3.04791      -10.28679
S          5.26495        2.14263      -21.54879
C          6.02142        1.31677      -22.81458
C          7.16057        2.02615      -23.24849
C          4.23990       -4.92656       -4.21645
C          5.51175       -4.40227       -3.89288
S          5.84389       -3.02237       -4.81758
C          6.43997       -4.91002       -2.87316
S          8.11692       -4.70265       -2.88562
C          8.39505       -5.54138       -1.45102
C          7.17401       -5.95471       -0.93006
C          6.08027       -5.59879       -1.72456
H         17.43737       -9.80630       15.73990
H         15.23138       -8.18512       12.72550
H         14.47588       -9.26043       13.90516
H         16.94934       -7.37219       14.18725
H         15.26766       -6.99709       14.70546
H         16.14213       -8.23590       15.58461
H         18.94709      -12.79414        7.52677
H         19.13141      -12.42695        9.25138
H         18.52801      -10.83590        4.47561
H         18.56225      -12.43594        5.40159
H         18.08412      -11.95028        2.40462
H         19.25111      -13.02385        3.22736
H         17.45162      -13.38885        3.23159
H         11.90712      -10.15316        1.27519
H         12.35649       -8.96498        0.08753
H         12.69913      -11.73715       -0.55396
H         11.60524      -10.46622       -1.19099
H         13.38235      -10.32259       -1.46200
H         16.03375       -7.00902        0.00205
H         19.08274      -14.79581        9.31677
H         17.69099      -14.97479        8.14410
H         17.36597      -14.35651        9.67908
H         10.95150       -4.22131       -1.73171
H         22.23424      -11.44771       18.91596
H         27.33414      -13.58050       19.43836
H         26.60043      -15.54251       17.86902
H         24.33985      -15.10516       16.71752
H          1.37652       -3.54084       -8.75240
H          4.44686       -3.38119      -11.73737
H          5.64902       -2.93601      -10.50641
H          3.33002       -4.93852      -10.22701
H          5.10899       -5.25945      -10.30409
H          4.41423       -4.47303       -8.85660
H          3.03763        4.62386      -11.05956
H          1.82082        4.00846      -12.23256
H          2.83988        5.93205      -13.52668
H          3.91239        7.23516      -14.05375
H          1.94300        5.74688      -15.91478
H          2.08747        7.46966      -15.52536
H          3.35751        6.65435      -16.51668
H          9.70869        7.86097      -16.26478
H         10.44173        7.30391      -17.78699
H          8.50290        9.76207      -17.42482
H         10.28736        9.87229      -17.41103
H          9.44957        9.32840      -18.90696
H          9.45527        6.22767      -20.20666
H          1.27175        2.13108      -10.66106
H          2.41989        2.74355       -9.43975
H          0.97025        3.71106       -9.87917
H          5.62804        0.39672      -23.23072
H          7.75096        1.68604      -24.09006
H          3.82070       -5.80154       -3.73853
H          7.07131       -6.47452        0.01314
H          5.05569       -5.80782       -1.44969
