124
QCIC1.sdf
C         10.93913       -6.31605        3.16431
C         12.11274       -6.94879        2.70023
C         12.72482       -6.53629        1.49887
C         12.18319       -5.48250        0.76431
C         11.05053       -4.85759        1.25878
C         10.41366       -5.24964        2.42102
C         10.39063       -3.71829        0.70520
C          9.45778       -3.21182        1.72035
C          9.22801       -4.36670        2.63402
C          8.98145       -1.95069        1.82773
C          9.45185       -0.83416        0.97774
C         10.74035       -0.72230        0.42390
C         10.93483        0.47619       -0.21612
C          9.83431        1.24561       -0.19373
S          8.55714        0.57814        0.66493
C         12.12749        1.13866       -0.88006
C         11.46760        2.53941       -1.08291
C         10.14841        2.47554       -0.80046
C         11.80823        3.84899       -1.45252
C         10.70899        4.77944       -1.44349
S          9.32666        3.86652       -1.16990
C         10.69598        6.29080       -1.71029
C         12.43738        0.45874       -2.26603
C         13.34265        1.15767        0.10903
C         13.87580       -0.19252        0.63691
C         12.75667       -1.04168       -2.24913
O         10.59020       -3.27901       -0.41588
C          8.14357       -4.58749        3.43163
C          7.99417       -5.77961        4.22850
C          7.00851       -3.70461        3.47757
N          6.08188       -3.01742        3.53685
N          7.81921       -6.71539        4.88638
C         11.67544       10.56016       -3.29457
S         13.36755       10.90161       -3.63014
C         13.28173       12.34849       -4.25119
C         12.00556       12.71772       -4.35298
C         11.07403       11.74662       -3.86887
C         14.20068       13.39765       -4.41132
C         13.46941       14.48958       -4.64951
C         11.97863       14.16289       -4.80181
S         15.84577       13.68609       -4.14236
C         15.58529       15.35906       -4.32383
C         14.24268       15.62387       -4.63062
C         16.52383       16.48502       -4.30778
C         17.80215       16.40504       -4.70395
C         18.25368       17.47576       -5.62092
C         19.42351       18.11075       -5.02190
C         19.81683       17.38027       -3.91354
C         18.87921       16.26456       -3.70279
C         20.08958       19.27874       -5.39648
C         21.17331       19.70796       -4.62786
C         21.59126       18.96132       -3.51034
C         20.91094       17.78414       -3.14375
O         18.86274       15.53784       -2.72116
C         17.65517       17.73605       -6.81206
C         18.03829       18.79180       -7.70787
C         16.52241       16.91064       -7.24114
C         11.51446       14.32525       -6.28236
C         11.13692       14.96085       -3.77195
C         11.47227       14.66709       -2.29609
C         12.23531       13.41532       -7.30797
N         18.29760       19.62295       -8.46940
N         15.63141       16.22648       -7.52687
C          9.51055        7.16917       -1.63639
C          9.76922        8.56061       -2.13897
C         11.11642        9.14548       -2.59463
C         12.14676        8.21329       -2.43830
C         11.95272        6.87850       -2.06536
N         13.41855        8.58402       -2.70124
C         14.50693        7.82574       -2.68202
C         14.31784        6.52418       -2.36047
N         13.07013        6.12144       -2.06817
O          8.20131        6.68643       -1.15351
O          8.62948        9.25255       -2.21166
F         12.66538       -7.95659        3.41684
F         13.85170       -7.14303        1.05339
F         22.63962       19.39645       -2.77076
F         21.80543       20.86052       -4.95939
C          8.33917       10.31091       -3.01563
C          8.40847       10.01444       -4.46876
C          6.86770        6.99170       -0.52533
C          6.55820        8.25640        0.39538
H         10.49131       -6.63863        4.09123
H         12.64639       -5.13391       -0.15058
H          8.31221       -1.67848        2.63904
H         11.52926       -1.43380        0.52654
H         12.80721        4.07954       -1.67190
H         11.55838        0.57013       -2.94659
H         13.30252        0.95246       -2.74150
H         14.19963        1.66984       -0.36799
H         13.05256        1.72978        1.01391
H         14.27449       -0.85195       -0.08319
H         14.70068       -0.03923        1.33038
H         13.19768       -0.74479        1.27413
H         11.92745       -1.67152       -1.93110
H         12.98319       -1.44827       -3.23844
H         13.62099       -1.25908       -1.71000
H         10.07433       12.01269       -3.94445
H         13.86813       16.61180       -4.80746
H         15.98019       17.35885       -4.65464
H         19.77441       19.87555       -6.23588
H         21.21460       17.22333       -2.27082
H         10.44282       14.06186       -6.35569
H         11.65134       15.38122       -6.59539
H         11.26863       16.04091       -3.96614
H         10.06320       14.70219       -3.88931
H         12.51377       14.85780       -2.03422
H         10.90716       15.32900       -1.63486
H         11.22801       13.62798       -2.01250
H         12.11126       12.33485       -7.06294
H         11.84849       13.60712       -8.32129
H         13.30193       13.63418       -7.44189
H         15.47597        8.24249       -2.92062
H         15.13392        5.83476       -2.32007
H          7.28578       10.55403       -2.85291
H          9.01727       11.05256       -2.79931
H          7.77317        9.19980       -4.54449
H          7.98545       10.80415       -5.13076
H          9.30935        9.51653       -4.77833
H          5.93775        6.81160       -1.12421
H          6.59660        6.14963        0.17247
H          7.16229        9.10375        0.10408
H          5.61322        8.87062        0.44098
H          6.51551        7.94051        1.47111
