122
QOC6-4H.sdf
C         -8.99456        1.52883        2.81208
C        -10.22832        1.15382        3.39575
C        -10.56288       -0.19663        3.55671
C         -9.66765       -1.17237        3.15528
C         -8.46251       -0.77969        2.58814
C         -8.08902        0.52283        2.38423
C         -7.45765       -1.67921        2.15995
C         -6.33673       -0.95422        1.52576
C         -6.71761        0.53242        1.72367
C         -5.23130       -1.54666        0.93934
C         -4.95629       -3.06157        0.76071
C         -5.76305       -4.27384        0.58176
C         -4.98924       -5.49714        0.34195
C         -3.70682       -5.11704        0.38472
S         -3.37556       -3.54926        0.66383
C         -4.95612       -7.07063       -0.05039
C         -3.39706       -7.27649       -0.04677
C         -2.81472       -6.09565        0.14976
C         -2.36685       -8.23607       -0.13208
C         -1.06852       -7.63327       -0.04136
S         -1.18956       -5.98173        0.14436
C          0.27378       -8.24802       -0.00714
C         -5.57233       -7.17021       -1.50402
C         -5.62210       -8.20808        0.87150
C         -5.06922       -8.43183        2.29976
C         -4.85310       -6.40959       -2.63956
O         -7.56006       -2.86297        2.39635
C         -6.02330        1.67451        1.41762
C         -6.55802        2.99240        1.69945
C         -4.71845        1.69330        0.81751
N         -3.67059        1.78137        0.33781
N         -6.90923        4.08068        1.89029
C          4.22013       -9.93970        0.13003
S          4.67017      -11.40993       -0.59544
C          6.17915      -11.34777        0.08776
C          6.39304      -10.22599        0.83882
C          5.27966       -9.41496        0.88886
C          6.97825      -12.38557        0.61888
C          7.66091      -11.86280        1.66443
C          7.64504      -10.33751        1.68535
S          6.70918      -14.03289        0.76103
C          7.42907      -14.10564        2.29860
C          7.93586      -12.82286        2.62317
C          7.39981      -15.32826        3.17394
C          7.40697      -15.28583        4.54196
C          7.44326      -16.40024        5.58317
C          7.39172      -15.69255        6.92196
C          7.33602      -14.34036        6.70702
C          7.27868      -14.05070        5.34349
C          7.35795      -16.13263        8.26164
C          7.26539      -15.17549        9.30004
C          7.21882      -13.80169        9.01334
C          7.25791      -13.37958        7.69992
O          6.86474      -12.96483        4.99318
C          7.49434      -17.74590        5.40507
C          7.44555      -18.63507        6.54253
C          7.49499      -18.35247        4.08349
C          8.86480       -9.78031        0.86825
C          7.53478       -9.72906        3.13111
C          7.51447       -8.19911        3.15465
C         10.26705      -10.19263        1.36719
N          7.40806      -19.46040        7.35264
N          7.49427      -18.87048        3.04627
C          1.42469       -7.42512        0.07803
C          2.68899       -7.98185        0.13020
C          2.85697       -9.37933        0.09680
C          1.70623      -10.21763        0.04067
C          0.42765       -9.64267       -0.00991
N          1.79770      -11.57880        0.06967
C          0.72560      -12.41837        0.02792
C         -0.59338      -11.81737       -0.00593
N         -0.65750      -10.45960       -0.02393
F          1.35492       -6.06584        0.08026
F          3.74741       -7.12854        0.15448
C         -1.93967      -12.57151       -0.00593
C         -2.84521      -12.29542       -1.17295
C          1.06787      -13.92375        0.07802
C          2.31798      -14.40256        0.82759
H         -8.80640        2.58068        2.72006
H        -10.93579        1.90195        3.72567
H        -11.50617       -0.49478        3.99439
H         -9.90205       -2.22468        3.27612
H         -4.44881       -0.87574        0.53523
H         -6.83024       -4.22981        0.55168
H         -2.52878       -9.29207       -0.22354
H         -5.59618       -8.22816       -1.82875
H         -6.61928       -6.79876       -1.48383
H         -6.70450       -8.00517        0.99674
H         -5.58953       -9.21265        0.36184
H         -4.88285       -7.48635        2.84729
H         -5.74930       -9.07347        2.90775
H         -4.15545       -9.03963        2.29542
H         -3.95121       -6.97408       -2.94215
H         -5.45427       -6.41185       -3.57364
H         -4.63060       -5.35236       -2.37190
H          5.20923       -8.57595        1.55571
H          8.40382      -12.54520        3.54163
H          7.34167      -16.27913        2.65668
H          7.37808      -17.16859        8.53679
H          7.21927      -15.48730       10.33089
H          7.13716      -13.05709        9.79184
H          7.21094      -12.32606        7.44140
H          8.79963      -10.08092       -0.20153
H          8.83695       -8.67301        0.90406
H          6.59323      -10.07795        3.60891
H          8.39141      -10.04320        3.76640
H          6.93682       -7.83660        2.28878
H          7.23302       -7.79762        4.15072
H          8.50514       -7.75045        3.02404
H         10.54782      -11.20512        1.01666
H         11.05310       -9.57866        0.88483
H         10.37023      -10.08486        2.46955
H         -1.77450      -13.65164       -0.05989
H         -2.53666      -12.34508        0.89370
H         -2.25977      -12.61262       -2.05246
H         -3.73912      -12.88828       -1.33619
H         -3.20431      -11.23546       -1.10638
H          0.21665      -14.55544        0.25595
H          1.33542      -14.33404       -0.84231
H          2.26499      -14.30029        1.89300
H          2.52133      -15.49688        0.73698
H          3.22074      -13.87076        0.52266
