198
Qx3.sdf
C          2.86369       -1.19833       -0.64281
C          2.95074       -0.69577        0.66663
C          2.10083        0.31341        1.18232
C          1.00487        0.72630        0.38812
C          0.78247        0.02340       -0.80101
C          1.71378       -0.85454       -1.39557
C          4.02604       -2.20658       -0.93954
C          4.41439       -2.48048        0.53421
C          3.89019       -1.54406        1.36677
C          5.16010       -3.46463        1.23372
C          5.12363       -3.32400        2.63399
S          4.26351       -1.88459        2.97997
C         -0.16917        1.72645        0.68986
C         -1.22748        1.04571       -0.22007
C         -0.61508        0.20409       -1.10825
C         -2.64256        1.04368       -0.36342
C         -3.10047        0.12225       -1.35129
S         -1.72303       -0.61955       -2.05203
C          5.67576       -4.33301        3.62963
C         -4.52326       -0.26535       -1.72672
C          3.61191       -3.51276       -1.72260
C          5.21006       -1.40916       -1.63364
C          5.65816       -5.70452        3.29914
C          6.13502       -6.68169        4.19158
C          6.66657       -6.35227        5.47445
C          6.73736       -4.93966        5.79573
C          6.21601       -3.96917        4.89372
C         -4.71517       -1.56130       -2.24949
C         -5.96704       -2.03638       -2.62508
C         -7.12601       -1.25953       -2.50938
C         -6.96537        0.08542       -1.99019
C         -5.68071        0.56466       -1.58723
C          7.11837       -7.54928        6.34854
C          7.18828       -7.72074        7.71918
C         -8.46699       -1.83966       -2.96161
C         -8.93896       -3.14272       -2.98098
C         -8.40834       -4.38710       -2.54346
N         -9.22493       -5.51663       -2.70146
C        -10.42582       -5.19741       -3.27843
S        -10.47744       -3.52629       -3.56915
C          6.78796       -6.86506        8.75134
N          7.01638       -7.27779       10.05517
C          7.50058       -8.55946       10.11573
S          7.72768       -9.12520        8.52345
C          6.65878       -6.41346       11.20170
O          6.19383       -5.83631        8.53654
C          7.71076       -9.26527       11.26982
O         -7.31555       -4.48761       -2.01481
C         -8.74984       -6.86165       -2.27889
C        -11.48794       -6.03008       -3.57212
C          5.22911       -6.64166       11.60532
C         -9.09484       -7.18850       -0.81783
N          7.34135       -4.46659        6.93536
C          7.42503       -3.14511        7.32647
C          6.79904       -2.17539        6.41762
N          6.27180       -2.66004        5.25214
C          8.14487       -2.85456        8.68691
C          6.54462       -0.67716        6.61056
C          6.44183        0.21228        5.49185
C          6.18275        1.58130        5.64663
C          5.98090        2.11475        6.91126
C          6.01997        1.26615        8.02119
C          6.29529       -0.11015        7.87513
C          8.82447       -1.65955        8.98925
C          9.36527       -1.39103       10.26911
C          9.27474       -2.31945       11.30116
C          8.73125       -3.55767       11.01541
C          8.21893       -3.81523        9.72397
N         -8.03343        0.92527       -1.83222
C         -7.97828        2.19218       -1.28959
C         -6.62227        2.69433       -0.84879
N         -5.57932        1.82800       -1.07496
C         -9.37094        2.88913       -1.19164
C         -6.14127        4.05957       -0.17682
C         -6.87373        4.88344        0.74747
C         -6.49497        6.15224        1.14157
C         -5.27021        6.65063        0.78501
C         -4.40556        5.84546        0.04941
C         -4.82195        4.57352       -0.42749
C        -10.63414        2.39170       -1.61594
C        -11.83266        3.14011       -1.35995
C        -11.78735        4.36496       -0.66689
C        -10.56291        4.85519       -0.29965
C         -9.45114        4.11736       -0.62811
C         -0.54715        1.74026        2.24298
C          8.22568      -10.62465       11.22709
C          7.53668       -8.72885       12.60158
C        -12.72177       -5.53370       -4.12073
C        -11.60181       -7.43215       -3.31263
N        -11.62599       -8.59686       -3.14451
N        -13.75974       -5.17182       -4.56143
N          8.49833      -11.73779       11.25924
N          7.40182       -8.26352       13.66157
C          0.16122        3.14220       -0.02853
C          3.04784       -3.45818       -3.01095
C          2.74479       -4.61430       -3.72730
C          3.00360       -5.89788       -3.22244
C          3.54463       -5.99082       -1.94312
C          3.80919       -4.82956       -1.21448
C          6.49928       -1.31692       -1.02821
C          7.55117       -0.58064       -1.59797
C          7.37149        0.10293       -2.80405
C          6.11848        0.04047       -3.42405
C          5.05681       -0.69484       -2.85668
C         -0.43772        2.88620        3.05725
C         -0.96110        3.05643        4.30067
C         -1.48306        1.99016        4.96668
C         -1.43926        0.72891        4.32329
C         -1.00802        0.61015        2.96206
C          0.45184        3.20636       -1.42809
C          0.84395        4.40952       -2.06660
C          1.02885        5.58205       -1.31974
C          0.68158        5.56374       -0.00618
C          0.18434        4.43956        0.57209
C          2.69253       -7.15255       -4.01982
C          2.05921       -6.84754       -5.38167
C          8.49161        0.92061       -3.41977
C          9.36273        0.08903       -4.35949
C         -1.95337        2.25829        6.37768
C         -3.39948        1.85985        6.63262
C          1.55209        6.88239       -1.85689
C          0.56003        8.02822       -1.62693
H          2.23808        0.68167        2.18824
H          1.47753       -1.30393       -2.34649
H          5.68454       -4.28268        0.77021
H         -3.29712        1.61475        0.27157
H          5.23483       -6.03960        2.35175
H          6.05729       -7.71480        3.85479
H         -3.88933       -2.25365       -2.36284
H         -5.98957       -3.02295       -3.04764
H          7.40092       -8.43717        5.77569
H         -9.17619       -1.09421       -3.31831
H          7.44911       -6.40049       11.98025
H          6.61263       -5.36051       10.94034
H         -9.13757       -7.66383       -2.92778
H         -7.64756       -6.92944       -2.41756
H          5.09247       -7.65810       12.00572
H          4.93951       -5.87453       12.35369
H          4.59885       -6.50819       10.69777
H        -10.19207       -7.26900       -0.68193
H         -8.62535       -8.16171       -0.53972
H         -8.71646       -6.41794       -0.11787
H          6.56942       -0.10250        4.47009
H          6.13608        2.22671        4.77390
H          5.77892        3.17913        7.01798
H          5.82729        1.67834        9.00062
H          6.27214       -0.73469        8.75144
H          8.98005       -0.93262        8.22706
H          9.86435       -0.45524       10.46026
H          9.67227       -2.10057       12.29290
H          8.71976       -4.31561       11.79613
H          7.88199       -4.77533        9.54408
H         -7.80645        4.63388        1.21405
H         -7.18038        6.73378        1.74764
H         -4.99481        7.63690        1.13625
H         -3.41517        6.23113       -0.15370
H         -4.08716        4.02549       -1.00072
H        -10.70184        1.45362       -2.14228
H        -12.79848        2.78554       -1.67700
H        -12.66230        4.96369       -0.43489
H        -10.43454        5.80559        0.21789
H         -8.60040        4.51093       -0.50081
H          2.81749       -2.53719       -3.50732
H          2.30925       -4.47637       -4.69620
H          3.76474       -6.95585       -1.48699
H          4.17183       -5.04178       -0.25848
H          6.72394       -1.80586       -0.09542
H          8.50782       -0.53823       -1.08668
H          5.96506        0.57529       -4.35444
H          4.12154       -0.66417       -3.39113
H          0.09071        3.71446        2.87705
H         -0.90679        4.05174        4.74669
H         -1.75584       -0.14349        4.86713
H         -1.02276       -0.35723        2.48274
H          0.37307        2.33946       -2.05954
H          1.03330        4.41612       -3.12771
H          0.77470        6.44986        0.61890
H         -0.14371        4.77945        1.47239
H          3.62668       -7.73739       -4.17958
H          1.97847       -7.78391       -3.44803
H          2.74914       -6.22666       -5.99776
H          1.84001       -7.77731       -5.93401
H          1.10280       -6.29621       -5.22980
H          8.06165        1.76272       -4.00538
H          9.12456        1.37530       -2.62556
H          8.74882       -0.33174       -5.18444
H         10.14929        0.73542       -4.80787
H          9.85698       -0.73774       -3.80816
H         -1.27877        1.72044        7.06751
H         -1.87327        3.34893        6.62060
H         -3.53023        0.77787        6.43410
H         -3.64479        2.06963        7.69589
H         -4.10451        2.45151        6.01138
H          2.49243        7.13862       -1.31361
H          1.77652        6.78331       -2.93294
H          0.34480        8.18274       -0.54600
H          0.99825        8.97219       -2.00245
H         -0.39400        7.81696       -2.14910
