158
Qx3b.sdf
C          2.63718       -1.54548       -0.63962
C          2.83878       -1.07409        0.66098
C          2.06263       -0.06118        1.22807
C          0.96245        0.36886        0.47015
C          0.67807       -0.22803       -0.75803
C          1.52382       -1.13446       -1.37832
C          3.63952       -2.61897       -1.01579
C          4.24524       -2.84964        0.35587
C          3.82316       -1.93065        1.25562
C          5.05154       -3.83947        0.90714
C          5.18579       -3.69862        2.31144
S          4.36574       -2.28276        2.80010
C         -0.11581        1.37502        0.83841
C         -1.18698        0.93443       -0.14166
C         -0.66823        0.11642       -1.08436
C         -2.57643        1.01654       -0.18610
C         -3.11572        0.18308       -1.19001
S         -1.84027       -0.57990       -2.03990
C          5.88147       -4.68512        3.20330
C         -4.55602       -0.19314       -1.33320
C          2.93916       -3.88365       -1.58727
C          4.71763       -2.07275       -1.99825
C          6.82881       -5.50984        2.60508
C          7.52617       -6.44980        3.33043
C          7.36542       -6.61132        4.71543
C          6.34179       -5.82191        5.35778
C          5.61197       -4.87633        4.59354
C         -4.86126       -1.41521       -1.96533
C         -6.17018       -1.88761       -2.03876
C         -7.24113       -1.16359       -1.49147
C         -6.95461        0.10830       -0.92311
C         -5.62691        0.57893       -0.81750
C          8.19935       -7.67057        5.40489
C          9.44450       -8.15403        5.05239
C         -8.60242       -1.80356       -1.61492
C         -9.71702       -1.73225       -0.83603
C         -9.97152       -1.12858        0.40781
N        -11.27808       -1.21760        0.87918
C        -12.07753       -1.94566        0.02968
S        -11.15060       -2.48690       -1.27894
C         10.38914       -7.74835        4.07032
N         11.54031       -8.51909        3.95532
C         11.57582       -9.52987        4.88463
S         10.16197       -9.46832        5.82572
C         12.52026       -8.24891        2.87532
O         10.24889       -6.75853        3.37712
C         12.55885      -10.45869        5.07521
O         -9.10047       -0.60200        1.07273
C        -11.67235       -0.57747        2.15376
C        -13.41125       -2.21303        0.13841
C         13.58895       -7.23545        3.27502
C        -11.99840       -1.59415        3.25498
N          6.04144       -5.92920        6.69401
C          5.05410       -5.20525        7.34199
C          4.22694       -4.32655        6.50925
N          4.60119       -4.20756        5.19884
C          4.97335       -5.42386        8.86000
C          2.94963       -3.52632        6.84010
C          2.24802       -3.54866        8.06531
C          1.13148       -2.74151        8.30617
C          0.61069       -1.93641        7.30311
C          1.19910       -1.95311        6.04650
C          2.34838       -2.72443        5.82100
C          4.60643       -4.41412        9.78630
C          4.50118       -4.66909       11.16413
C          4.82516       -5.92143       11.67358
C          5.26943       -6.91706       10.80675
C          5.34539       -6.67570        9.42047
N         -7.94646        0.91781       -0.49289
C         -7.76142        2.13374        0.08892
C         -6.40650        2.61805        0.20931
N         -5.41242        1.80006       -0.24920
C         -9.02220        2.78661        0.59279
C         -5.97742        3.98659        0.70405
C         -4.68861        4.20433        1.26107
C         -4.30212        5.47493        1.72318
C         -5.18056        6.55288        1.62873
C         -6.43165        6.37153        1.04823
C         -6.81607        5.11349        0.57834
C         -9.04170        3.63215        1.72033
C        -10.22179        4.25550        2.13627
C        -11.41678        4.02339        1.45792
C        -11.44009        3.14109        0.37887
C        -10.25869        2.51874       -0.04668
C          1.92801       -4.54814       -0.65253
C          4.17700       -1.53232       -3.33105
C         -0.53156        1.28976        2.33288
C          0.41685        2.80296        0.50858
C          0.79148        3.02216       -0.97281
C         -1.05705       -0.07037        2.79371
C         12.44817      -11.45079        6.12109
C         13.81495      -10.49880        4.36182
C        -14.07402       -3.02348       -0.85944
C        -14.29224       -1.66011        1.13812
N        -15.01169       -1.23355        1.93979
N        -14.61656       -3.67718       -1.64563
N         12.37265      -12.25989        6.94551
N         14.82266      -10.55458        3.79309
H          2.23998        0.29612        2.23365
H          1.27308       -1.57551       -2.33268
H          5.42333       -4.66497        0.31973
H         -3.14179        1.53174        0.56449
H          2.39993       -3.61207       -2.51857
H          3.70821       -4.63807       -1.85645
H          5.26814       -1.23355       -1.51543
H          5.45258       -2.87838       -2.21000
H          7.05229       -5.43966        1.55035
H          8.17468       -7.07518        2.75029
H         -4.08266       -2.04805       -2.37446
H         -6.33901       -2.85333       -2.50532
H          7.72827       -8.13177        6.26828
H         -8.70043       -2.45328       -2.48381
H         12.96104       -9.18217        2.48226
H         11.98673       -7.85060        1.98470
H        -10.83692        0.03481        2.55860
H        -12.50731        0.13156        1.97730
H         14.19074       -7.60514        4.12918
H         14.26852       -7.06920        2.40954
H         13.12234       -6.26359        3.53934
H        -11.11933       -2.23727        3.45621
H        -12.26645       -1.04363        4.18218
H        -12.83792       -2.26595        3.01663
H          2.50367       -4.18169        8.86788
H          0.66116       -2.75556        9.28030
H         -0.26300       -1.32498        7.49525
H          0.76503       -1.36148        5.24742
H          2.74341       -2.68523        4.82576
H          4.38460       -3.41043        9.45952
H          4.17093       -3.89125       11.84420
H          4.74796       -6.11232       12.74081
H          5.54649       -7.88124       11.21791
H          5.68127       -7.48695        8.79053
H         -3.97481        3.40350        1.36621
H         -3.32231        5.63149        2.16117
H         -4.89070        7.53253        1.99167
H         -7.10931        7.20973        0.95551
H         -7.77860        5.03734        0.10412
H         -8.14401        3.81810        2.28841
H        -10.20717        4.92311        2.98741
H        -12.32590        4.51848        1.77730
H        -12.37588        2.94883       -0.13262
H        -10.31729        1.84707       -0.89476
H          1.13204       -3.83721       -0.34926
H          1.45313       -5.39740       -1.18825
H          2.43594       -4.94476        0.24980
H          3.52765       -0.64713       -3.16472
H          5.02508       -1.20356       -3.96838
H          3.61156       -2.30238       -3.89122
H          0.35274        1.54514        2.95783
H         -1.31263        2.05238        2.54326
H         -0.34116        3.56806        0.77800
H          1.32813        2.98609        1.12046
H         -0.11186        2.95769       -1.61682
H          1.24040        4.02689       -1.10911
H          1.53534        2.27770       -1.32715
H         -0.31228       -0.87162        2.61167
H         -1.25811       -0.02613        3.88610
H         -2.00484       -0.31880        2.27539
