138
SCH3-2F.sdf
C          5.16645        4.96782        1.16442
O          4.09878        5.49641        1.26661
C          6.31590        5.69089        0.62882
C          6.44490        6.67596       -0.38989
C          7.66219        7.18657       -0.77369
C          8.76150        6.83576       -0.05258
C          8.64827        5.88631        1.00170
C          7.40385        5.26275        1.30901
C          6.98751        4.12969        2.25065
C          7.77024        3.59217        3.20316
C          7.37721        2.45267        3.99786
N          7.00694        1.53606        4.60103
C          9.02752        4.19249        3.54637
N         10.05005        4.60920        3.88910
C          5.53730        3.80352        1.94363
F          9.91711        7.43710       -0.41243
C          4.65205        2.77224        2.29485
F          7.76671        8.02636       -1.84968
C         -9.21424       11.24735        4.45929
O         -8.41953       10.93989        5.31586
C        -10.43528       11.80878        4.86291
C        -11.09859       11.60315        6.07668
C        -12.34901       12.14638        6.23064
C        -12.85479       12.98685        5.23524
C        -12.08232       13.29543        4.08480
C        -10.85651       12.65960        3.89316
C         -9.76708       12.77180        2.85761
C         -9.49048       13.89048        2.14098
C         -8.32152       14.07078        1.29946
N         -7.37962       14.18781        0.63384
C        -10.30095       15.05253        2.30216
N        -10.92301       16.01957        2.39342
C         -8.90004       11.58281        3.05626
F        -14.09117       13.49498        5.39874
C         -7.96833       11.05864        2.19568
F        -13.07602       11.80676        7.32478
C         -0.48977        4.24716        1.44426
C          0.69077        3.36316        1.52659
C          0.82602        2.10244        2.04749
C          2.17757        1.68165        2.25275
C          3.14247        2.67440        1.92662
S          2.21056        3.85274        1.17868
C          2.44279        0.34836        2.88921
C          2.49785       -0.76293        1.82847
C         -1.89469        4.06983        1.40808
C         -2.56395        5.29921        1.50792
C         -1.80067        6.41039        1.48255
S         -0.22249        5.87265        1.53673
S         -4.14150        5.74457        1.61739
C         -3.87814        7.41652        1.66955
C         -2.47268        7.65920        1.42480
N         -2.56876        2.84591        1.12326
C         -3.91244        2.50067        1.62807
C         -2.34727        2.26271       -0.15199
C         -4.84358        1.67303        0.88928
C         -6.06759        1.28744        1.32872
C         -6.51477        1.76455        2.52877
C         -5.67339        2.60158        3.29834
C         -4.37622        2.94200        2.85921
C         -2.53820        0.89877       -0.18851
C         -3.04694        0.32878       -1.33830
C         -3.19216        1.08911       -2.55282
C         -2.71575        2.40864       -2.55292
C         -2.33725        3.02343       -1.34690
N         -1.80521        8.93967        1.25019
C         -0.40242        9.08111        0.86279
C         -2.54985       10.03227        0.78292
C         -2.30808       11.29056        1.29995
C         -2.80702       12.39548        0.71519
C         -3.57550       12.28115       -0.43272
C         -3.95887       11.01145       -0.90697
C         -3.42294        9.88256       -0.30607
C          0.21661        8.14836        0.02867
C          1.55288        8.20964       -0.29422
C          2.33940        9.26599        0.14010
C          1.75216       10.27776        0.88370
C          0.40925       10.19370        1.21833
C         -5.09036        8.23762        1.97425
S         -5.59172        9.78169        1.53399
C         -7.05498        9.85977        2.33129
C         -7.14583        8.63643        3.02302
C         -6.09375        7.75287        2.80670
C         -8.23405        8.20639        3.90007
C         -9.34812        7.48166        3.14155
S         -8.20175        1.34485        2.98729
S         -3.77236        0.45359       -4.18387
S         -3.92343       13.76868       -1.31957
S          4.08156        9.30961       -0.26095
C         -7.84592       -0.20831        3.86566
C         -5.59293        0.64107       -4.50170
C         -2.43411       13.52730       -2.33849
C          3.84988       10.21748       -1.81791
H          5.70439        7.09258       -0.97804
H          9.53292        5.63217        1.51180
H          5.01455        1.96366        2.92135
H        -10.71467       11.00540        6.88888
H        -12.44566       13.97066        3.34819
H         -7.86331       11.55864        1.23526
H         -0.02482        1.53559        2.36414
H          3.38225        0.38784        3.46558
H          1.62484        0.10245        3.60362
H          3.28263       -0.55615        1.06900
H          2.73315       -1.73255        2.31727
H          1.52373       -0.87156        1.30021
H         -4.72475        1.26705       -0.06950
H         -6.67106        0.63074        0.70187
H         -6.00575        2.99864        4.23838
H         -3.73367        3.56113        3.46153
H         -2.61742        0.34209        0.75777
H         -3.38336       -0.66456       -1.08424
H         -2.69792        2.96355       -3.48974
H         -2.13099        4.08523       -1.35338
H         -1.70541       11.47147        2.14934
H         -2.52115       13.31494        1.18596
H         -4.60855       10.85105       -1.75334
H         -3.67374        8.90966       -0.70869
H         -0.30519        7.30850       -0.38353
H          1.93519        7.39797       -0.87957
H          2.33189       11.12327        1.23079
H          0.10826       11.01774        1.78040
H         -6.08529        6.78026        3.29158
H         -7.89704        7.64257        4.78631
H         -8.42105        9.05573        4.45008
H         -8.97646        6.48825        2.83748
H        -10.22943        7.36773        3.80861
H         -9.64531        7.92778        2.16924
H         -7.44713       -0.98864        3.18282
H         -7.18013       -0.01233        4.72990
H         -8.81155       -0.58400        4.26968
H         -6.05848        0.52639       -3.52298
H         -6.30458        1.38914       -4.94276
H         -5.66338       -0.11225       -5.33152
H         -1.49538       13.74801       -1.74870
H         -2.40311       12.51430       -2.77870
H         -2.66815       14.12149       -3.23622
H          3.11756        9.73196       -2.48315
H          3.58074       11.26941       -1.60248
H          4.78618       10.17356       -2.39984
