138
SeTIC.sdf
C          1.32726        0.41905        0.91151
C          2.43223       -0.44736        1.08292
C          3.68374        0.02123        0.69103
C          3.76974        1.37569        0.32792
C          2.65245        2.22752        0.14911
C          1.37418        1.66616        0.33178
C          5.05240       -0.73044        0.56440
C          5.88581        0.54630        0.34668
C          5.14272        1.67656        0.14283
C         -0.07499        2.15550       -0.03770
C         -0.82812        0.83826        0.32936
C         -0.01119        0.11926        1.17486
C          5.53036       -1.52876        1.84264
C          5.23789       -1.57299       -0.80782
C         -0.60206        3.24358        0.99215
C         -0.16653        2.58779       -1.56221
C         -1.82604       -0.08761       -0.02346
C         -1.77100       -1.12886        0.82146
Se        -0.55770       -1.27020        2.11195
S         -2.99336       -0.52526       -1.21693
C         -3.24411       -2.12380       -0.60554
C         -2.52324       -2.15925        0.54248
C          7.22041        0.84034        0.19369
C          7.45397        2.12590       -0.18156
Se         6.00391        3.21274       -0.32735
S          8.67662       -0.00467        0.28701
C          9.61385        1.29050       -0.17798
C          8.78418        2.39674       -0.43151
C          6.32545       -2.68340        1.75568
C          7.02513       -3.25626        2.75252
C          6.90505       -2.75627        4.01195
C          5.95502       -1.74610        4.23588
C          5.28429       -1.12911        3.16005
C          5.19238       -0.93983       -2.07487
C          5.44705       -1.59117       -3.27621
C          5.79054       -2.93440       -3.28189
C          5.78381       -3.61035       -2.10517
C          5.48938       -2.97452       -0.94288
C          0.11954        3.72881        2.11454
C         -0.33040        4.62731        3.02276
C         -1.57034        5.19003        2.87994
C         -2.34885        4.79843        1.78436
C         -1.88244        3.84314        0.86147
C          0.92021        2.53599       -2.45992
C          0.77772        2.95272       -3.80860
C         -0.45626        3.42283       -4.29886
C         -1.50615        3.47488       -3.44693
C         -1.34524        3.07912       -2.17211
C         -3.80699       -3.37151       -1.25648
C         -3.63385       -3.54903       -2.60636
C         -4.37746       -4.38417       -3.58259
C         -4.31125       -3.61372       -4.85867
C         -3.23803       -2.77541       -4.79758
C         -2.67753       -2.84662       -3.50316
C         -5.09412       -3.65195       -6.01883
C         -4.70717       -2.85877       -7.11447
C         -3.54626       -2.06339       -7.04549
C         -2.80054       -2.01422       -5.86708
O         -1.48413       -2.66125       -3.32447
C         -4.80036       -5.65899       -3.48504
C         -5.09484       -6.36689       -4.71544
C         -4.68285       -6.41352       -2.26855
N         -5.33240       -6.95043       -5.68696
N         -4.55595       -6.93425       -1.24463
C          7.80245       -3.28958        5.07129
C          9.14172       -3.73127        4.46055
C          6.14985       -3.69672       -4.49959
C          7.13322       -4.81487       -4.16543
C         -2.04237        6.19354        3.89425
C         -3.00118        7.22849        3.29856
C         -0.69906        3.90171       -5.69675
C         -1.13727        2.76620       -6.61344
C         11.07969        1.19524       -0.27729
C         11.90147        2.24375       -0.07014
C         13.39546        2.32511       -0.21424
C         13.70811        3.79095       -0.13576
C         12.56937        4.47950        0.23012
C         11.48353        3.57679        0.39812
C         14.89209        4.51485       -0.35515
C         14.87394        5.91327       -0.20491
C         13.69441        6.57948        0.16763
C         12.52815        5.85486        0.39693
O         10.44578        3.87918        0.96404
C         14.30274        1.30312       -0.32698
C         15.71243        1.54968       -0.37933
C         13.95376       -0.09434       -0.34904
N         13.63325       -1.20629       -0.36311
N         16.84516        1.77501       -0.41944
H          2.29346       -1.46005        1.43580
H          2.79930        3.23708       -0.19499
H         -2.29232       -2.86075        1.20312
H          9.10340        3.36328       -0.78690
H          6.54462       -3.20608        0.95791
H          7.69737       -4.06411        2.45440
H          5.78601       -1.39093        5.22576
H          4.62529       -0.32685        3.37272
H          4.98561        0.05810       -2.21788
H          5.39821       -1.03627       -4.19234
H          6.02424       -4.66322       -2.03279
H          5.52007       -3.72464       -0.24977
H          1.02184        3.55733        2.42411
H          0.34211        4.87551        3.84740
H         -3.32375        5.22487        1.64213
H         -2.54952        3.60655        0.05348
H          1.87560        2.18950       -2.14036
H          1.62289        2.92020       -4.46672
H         -2.49824        3.83381       -3.74878
H         -2.21000        3.20480       -1.82264
H         -4.49645       -3.99562       -0.67212
H         -5.98473       -4.26050       -6.08233
H         -5.29405       -2.87066       -8.02118
H         -3.23274       -1.47647       -7.89523
H         -1.91813       -1.39195       -5.77650
H          7.97723       -2.48033        5.80200
H          7.32691       -4.15808        5.57446
H          9.62516       -2.88459        3.92179
H          9.82606       -4.08372        5.24245
H          8.99344       -4.56770        3.74127
H          5.22651       -4.14064       -4.93716
H          6.59188       -2.99966       -5.22954
H          6.70609       -5.53273       -3.43258
H          7.36971       -5.37338       -5.08459
H          8.06438       -4.38113       -3.74677
H         -2.54669        5.65378        4.71902
H         -1.16563        6.73287        4.31544
H         -3.91504        6.73720        2.89948
H         -3.31105        7.94419        4.08239
H         -2.50512        7.79889        2.48203
H         -1.50699        4.67354       -5.69579
H          0.22212        4.37841       -6.07343
H         -2.09560        2.32012       -6.26552
H         -1.29245        3.16521       -7.63503
H         -0.35657        1.97954       -6.64544
H         11.46391        0.22216       -0.54764
H         15.81314        4.05032       -0.65105
H         15.77270        6.48509       -0.38020
H         13.67814        7.65393        0.27517
H         11.60588        6.34663        0.67930
