153
SF-OR.sdf
C          2.19558        1.55144        2.71102
C          1.56743        2.35416        3.67692
C          0.64378        3.27034        3.13040
C          0.56988        3.22404        1.74127
S          1.64120        2.05082        1.20800
C         -0.30433        4.01266        0.84567
C          0.00027        4.07554       -0.53747
C         -0.82007        4.77581       -1.42461
C         -1.96214        5.38330       -0.92172
C         -2.28833        5.33290        0.42282
C         -1.46098        4.66615        1.33313
C         -3.61384        6.01357        0.66203
C         -3.63580        7.14629        1.65234
C         -4.62980        5.06872        1.26765
C         -3.94815        6.50723       -0.72425
C         -2.97958        6.12761       -1.62771
C         -3.05666        6.46874       -2.97552
C         -4.14682        7.23692       -3.40702
C         -5.13678        7.66708       -2.48907
C         -5.03274        7.28615       -1.13124
C         -6.24786        8.54072       -2.93016
C         -6.67265        8.77717       -4.23337
C         -7.73804        9.69491       -4.33330
C         -8.14206       10.21363       -3.08627
S         -7.19289        9.47317       -1.90878
C         -9.19576       11.24371       -2.84865
C         -9.50655       11.82631       -1.66651
S         -8.72967       11.49796       -0.07450
C         -9.78471       12.76933        0.61437
N        -10.68017       13.39312       -0.29711
C        -10.54170       12.86935       -1.55090
S         -9.68793       13.12187        2.00747
C        -11.60803       14.45783        0.12387
C        -12.51160       15.04258       -0.96185
O        -11.19534       13.24288       -2.50820
C          3.13323        0.42497        2.97253
C          3.90127       -0.20332        2.05344
C          4.78934       -1.33033        2.38463
N          5.57337       -1.74654        1.36205
C          5.34838       -0.97252        0.18626
S          4.03835        0.23903        0.31071
S          6.19424       -1.01589       -0.97746
C          6.55529       -2.82366        1.48510
C          6.22793       -3.99486        0.55646
O          4.83300       -1.83715        3.49728
C          1.84275        2.28870        5.15753
C          3.29346        2.68089        5.46037
C         -8.34390       10.04042       -5.67567
C         -7.32349       10.65783       -6.62840
C         -5.02995        3.80386        0.82325
C         -6.01073        3.09251        1.55767
C         -6.56905        3.68191        2.71810
C         -6.13742        4.93840        3.16121
C         -5.16209        5.60268        2.42247
C         -4.54635        6.88750        2.66050
C         -4.78292        7.79216        3.68520
C         -4.09858        9.00928        3.66042
C         -3.18297        9.31507        2.61874
C         -2.93869        8.35546        1.61053
C         -1.88973       13.06478        3.02413
C         -1.29750       12.51342        1.86680
C         -1.67422       11.17079        1.63041
C         -2.54541       10.65132        2.58261
S         -2.83555       11.85580        3.69857
C         -1.73854       14.45065        3.57138
C         -2.32610       14.93124        4.70166
C         -2.10633       16.29817        5.21615
N         -2.64765       16.54087        6.43907
C         -3.34051       15.39561        6.93121
S         -3.41526       14.01172        5.80875
S         -3.87542       15.27649        8.26092
C         -2.44149       17.79522        7.17183
C         -3.74541       18.47746        7.60116
O         -1.43099       17.12579        4.62005
C         -0.36865       13.23165        0.91695
C          0.99381       12.54242        0.83444
C         -6.49219       -0.64169        0.25648
C         -7.59818       -0.30023        1.05349
C         -7.54092        1.01501        1.55425
C         -6.41355        1.72617        1.14836
S         -5.50864        0.72322        0.15761
C         -6.23904       -1.96813       -0.37519
C         -5.16873       -2.30951       -1.12811
C         -4.99543       -3.65762       -1.69396
N         -3.89890       -3.80127       -2.47009
C         -3.15439       -2.59139       -2.56063
S         -3.79426       -1.23220       -1.58790
S         -1.92381       -2.46014       -3.29604
C         -3.56193       -5.04171       -3.15835
C         -4.03613       -4.98083       -4.60596
O         -5.79022       -4.56864       -1.50615
C         -8.75210       -1.21248        1.38924
C         -9.94909       -0.90653        0.49250
H          0.06450        3.95604        3.73489
H          0.87857        3.58717       -0.93807
H         -0.57760        4.82266       -2.47801
H         -1.74209        4.61941        2.37679
H         -2.28662        6.16691       -3.67325
H         -4.18965        7.52231       -4.44894
H         -5.76709        7.59483       -0.39872
H         -6.23635        8.29481       -5.09695
H         -9.75268       11.58543       -3.70986
H        -12.26584       14.05775        0.92627
H        -11.01299       15.29595        0.54705
H        -13.17658       14.25852       -1.38104
H        -13.15351       15.83159       -0.51684
H        -11.90409       15.51178       -1.76438
H          3.19479        0.07719        3.99878
H          7.56857       -2.42981        1.25770
H          6.57716       -3.22358        2.52194
H          6.24858       -3.69415       -0.50927
H          6.98325       -4.79673        0.69402
H          5.22292       -4.40235        0.79338
H          1.18653        3.01004        5.69211
H          1.62734        1.27125        5.54441
H          3.50459        3.70254        5.07651
H          3.46630        2.67153        6.55627
H          4.01626        1.98078        4.99631
H         -8.74409        9.10868       -6.12990
H         -9.18740       10.74729       -5.58214
H         -6.48456        9.95672       -6.82050
H         -7.81612       10.88006       -7.59903
H         -6.92369       11.60326       -6.20554
H         -4.58274        3.38808       -0.07028
H         -7.31081        3.16055        3.30741
H         -6.54944        5.37331        4.06228
H         -5.49574        7.57719        4.47055
H         -4.31112        9.71792        4.44909
H         -2.26021        8.54549        0.79105
H         -1.32520       10.61014        0.77417
H         -1.09213       15.12878        3.02815
H         -1.83082       17.59444        8.07709
H         -1.88113       18.52132        6.54439
H         -4.29288       17.88656        8.36042
H         -3.50217       19.44907        8.08174
H         -4.40905       18.65865        6.73204
H         -0.83102       13.23917       -0.09376
H         -0.20398       14.28247        1.21992
H          0.89062       11.49389        0.48275
H          1.64180       13.08333        0.11275
H          1.48704       12.54414        1.82932
H         -8.30461        1.42117        2.20396
H         -6.97811       -2.74155       -0.20952
H         -2.46802       -5.22983       -3.09593
H         -4.06199       -5.90884       -2.67557
H         -3.56995       -4.12944       -5.14246
H         -3.77649       -5.92576       -5.12635
H         -5.14104       -4.85678       -4.62500
H         -8.48873       -2.27761        1.25153
H         -9.02319       -1.08875        2.46008
H         -9.67727       -1.09059       -0.57050
H        -10.79658       -1.57400        0.75564
H        -10.27350        0.14915        0.60543
