142
SIDIC.sdf
C          5.63447       -1.00127       -2.02352
C          4.82498       -1.69057       -1.09958
C          3.90494       -2.58780       -1.68261
C          3.87436       -2.73427       -3.07347
C          4.63466       -1.99357       -3.97720
C          5.54422       -1.07113       -3.43756
C          3.11386       -3.68643       -3.79347
C          3.29406       -3.56575       -5.11661
C          4.30836       -2.42481       -5.44281
C          6.55373       -0.26079       -1.28170
C          6.43255       -0.46814        0.05656
C          5.29114       -1.45947        0.42149
S          2.06174       -4.92110       -3.36931
C          1.72636       -5.41178       -4.95374
C          2.49490       -4.51105       -5.80373
S          7.60875        0.93380       -1.73280
C          7.87604        1.33777       -0.12058
C          7.20449        0.47411        0.75681
C          3.62312       -1.25407       -6.25577
C          5.57652       -3.00289       -6.19784
C          6.46090       -4.08139       -5.51421
C          3.00040       -1.61208       -7.61776
C          5.67886       -2.91279        0.89242
C          4.53116       -0.74626        1.67003
C          6.56701       -3.01899        2.16878
C          3.30700       -1.29729        2.44834
C          0.65728       -6.49856       -5.27667
C          0.37010       -6.90952       -6.55097
C          1.22938       -6.47886       -7.61480
C          0.46225       -5.48092       -8.27412
C         -0.88251       -5.71486       -8.07504
C         -1.02747       -6.85982       -7.13485
C          0.95432       -4.31699       -8.81159
C          0.04153       -3.29722       -9.07058
C         -1.34321       -3.53644       -8.95725
C         -1.82652       -4.78150       -8.51688
O          2.43455       -6.65468       -7.68463
C         -2.20103       -7.51019       -6.88048
C         -2.40194       -8.55450       -5.90899
C         -3.37797       -7.27918       -7.69439
N         -4.33616       -7.11740       -8.32761
N         -2.66211       -9.40061       -5.16220
C          9.37088        5.83155        2.20687
C          8.50352        6.75471        1.59032
C          8.19745        7.92628        2.26131
C          8.93015        8.23043        3.38741
C          9.94874        7.43707        3.91597
C         10.13968        6.14306        3.36225
C          8.92538        9.49359        3.99857
C          9.99875        9.62090        4.78738
C         10.68239        8.24602        5.01633
C          9.19343        4.61455        1.45699
C          8.40309        4.85909        0.38249
C          7.97737        6.26483        0.22716
S          8.22590       10.92892        3.53096
C          9.44514       11.86562        4.24775
C         10.31840       10.99240        4.95546
S          9.42358        2.95733        1.65802
C          8.47020        2.60801        0.27610
C          8.05792        3.76281       -0.34755
C         10.38467        7.69293        6.45107
C         12.23094        8.33283        4.74773
C         12.65648        8.75248        3.32909
C          8.90261        7.45454        6.78660
C          8.74195        6.81046       -1.06756
C          6.39741        6.40135        0.09553
C         10.29854        6.81877       -1.11567
C          5.51718        5.89331        1.26677
C          9.48065       13.36820        3.99500
C          9.95551       14.34894        4.84793
C          8.73110       14.70806        5.60026
C          8.81035       13.84259        6.78673
C         10.10638       13.40789        6.94471
C         10.90581       14.06715        5.96889
C          7.81083       13.35595        7.60656
C          8.17296       12.42331        8.59740
C          9.51655       12.01896        8.75899
C         10.49067       12.50964        7.91523
O          7.67890       15.11469        5.12221
C         12.12311       14.59549        6.32300
C         12.83012       15.60332        5.58327
C         12.74167       14.27074        7.60247
N         13.18123       13.96912        8.63269
N         13.46205       16.41485        5.05348
F          0.50478       -2.05523       -9.34665
F         -2.21792       -2.52612       -9.16823
F          9.88463       11.13224        9.70923
F          7.21504       11.87529        9.36953
H          3.26019       -3.24688       -1.16176
H          6.20582       -0.47593       -4.05418
H          2.50729       -4.44980       -6.85615
H          7.17078        0.66097        1.81416
H          2.81150       -0.78949       -5.64942
H          4.37737       -0.47473       -6.47632
H          5.21979       -3.47892       -7.13221
H          6.26827       -2.17811       -6.47559
H          5.88831       -4.94870       -5.13904
H          7.22239       -4.45977       -6.22013
H          7.12329       -3.70292       -4.73432
H          2.06313       -2.13720       -7.51394
H          2.64266       -0.71121       -8.14349
H          3.68404       -2.17662       -8.28067
H          4.73230       -3.46970        1.10974
H          6.18651       -3.49501        0.09424
H          5.28011       -0.63217        2.49405
H          4.23739        0.28657        1.40685
H          6.36396       -2.31113        2.96468
H          6.49676       -4.01977        2.63360
H          7.62523       -2.84310        2.01766
H          2.36934       -1.37022        1.86357
H          3.49017       -2.21639        3.00730
H          3.09134       -0.60215        3.29180
H         -0.06285       -6.67627       -4.48516
H          2.02162       -4.16451       -8.85644
H         -2.88709       -4.90071       -8.38391
H          7.47069        8.63339        1.92752
H         10.86870        5.43735        3.74082
H         11.20072       11.33577        5.43656
H          7.41980        3.79800       -1.20308
H         10.91567        6.73010        6.61246
H         10.75203        8.42167        7.19836
H         12.67385        9.08241        5.43361
H         12.71988        7.35457        4.95544
H         12.13127        9.65324        2.96761
H         13.74160        8.88180        3.25309
H         12.56808        7.96711        2.59059
H          8.52469        6.52548        6.36146
H          8.77617        7.22370        7.85093
H          8.25448        8.31012        6.51249
H          8.44130        6.19952       -1.95386
H          8.44541        7.85363       -1.27128
H          6.12336        7.47113       -0.03925
H          6.04724        5.85220       -0.80633
H         10.77396        5.81361       -1.10800
H         10.61253        7.28230       -2.08092
H         10.74592        7.44436       -0.31830
H          5.68642        6.41946        2.21687
H          4.44828        6.11046        1.07857
H          5.58860        4.80494        1.41868
H          8.65034       13.65101        3.33933
H          6.78472       13.64930        7.45239
H         11.51082       12.16244        7.98409
