191
P104.sdf
C         12.76170        4.97860       11.09818
S         11.98665        4.67295        9.61576
C         11.73013        6.33185        9.35468
C         12.26511        7.13869       10.32761
C         12.89636        6.33304       11.33772
C         11.14137        6.91381        8.23392
C         10.76853        8.25962        8.19003
C         11.06755        9.11606        9.39582
C         12.12842        8.54039       10.10608
S         10.87826        6.01864        6.83333
C         10.23489        7.35471        6.01367
C         10.24842        8.49363        6.83248
C         10.70797       10.44962       10.01687
C         11.67559       11.22573       10.70117
C         12.91406       10.78423       10.29334
C         13.12186        9.42371       10.51574
N         12.03126       11.66978       12.12746
C         13.56517       11.72333       12.06427
N         13.85232       11.76668       10.67339
O         14.35586       11.80102       12.99062
C         11.86138       12.83093       12.99884
C         10.69807       13.73817       13.29759
C         13.40506       13.06170        9.98288
C         14.37559       14.21320        9.88035
C          9.79945        7.13527        4.65071
C          9.43823        5.93138        4.05906
C          9.02386        6.07494        2.69857
C          9.09336        7.37835        2.29963
S          9.69271        8.40829        3.53723
C          8.74577        7.96003        1.00401
C          7.59706        7.47029        0.28618
C          7.27186        8.11726       -1.05333
C          8.07367        9.18555       -1.53348
C          9.16292        9.60424       -0.75549
C          9.48522        9.02056        0.46899
N          6.75970        6.50292        0.59257
S          5.62469        6.40014       -0.60337
N          6.17823        7.61541       -1.60720
C          7.75350        9.81971       -2.77958
S          7.93910       11.50624       -2.84154
C          7.35281       11.57073       -4.42606
C          7.08281       10.32355       -4.94158
C          7.29860        9.30705       -3.97749
C          7.16887       12.84362       -5.01330
S          7.29920       13.08027       -6.68030
C          6.81627       14.68917       -6.51745
C          6.62743       15.08843       -5.23997
C          6.88154       14.01181       -4.34768
C          6.69832       15.61387       -7.52576
C          6.07958       16.86351       -7.36696
C          5.55996       17.24209       -5.96630
C          6.25993       16.42760       -5.04859
S          7.36929       15.26489       -9.02195
C          6.92126       16.76737       -9.64171
C          6.20610       17.51226       -8.69040
C          4.64630       18.18415       -5.14229
C          4.91472       18.37268       -3.78520
C          6.27455       18.27022       -3.66640
C          6.70477       16.98638       -3.86930
N          4.55299       18.77231       -2.40839
C          5.84133       18.77183       -1.66371
N          6.76892       19.10916       -2.66763
O          6.05095       18.64029       -0.47218
C          3.59172       19.21588       -1.44922
C          2.23625       19.85065       -1.57642
C          6.46919       20.55406       -3.02691
C          7.09930       21.13010       -4.28795
C          7.24332       16.94392      -11.04606
C          8.26075       16.34446      -11.77950
C          8.05959       16.44465      -13.17930
C          6.90868       17.13953      -13.46947
S          6.17684       17.77977      -12.05357
C          6.28814       17.43300      -14.74238
C          7.07815       17.74364      -15.88669
C          6.40581       18.21805      -17.14512
C          4.99194       18.36416      -17.16950
C          4.26744       17.97333      -16.02591
C          4.88733       17.49978      -14.87515
N          8.41801       17.69497      -16.00500
S          8.78690       18.13836      -17.55543
N          7.27547       18.46293      -18.14214
C          4.32799       18.87665      -18.34017
S          2.86535       18.13947      -18.79298
C          2.71671       19.13682      -20.14845
C          3.73342       20.06487      -20.23566
C          4.68120       19.90019      -19.19248
C          1.64243       18.91969      -21.04841
S          0.98475       20.19727      -21.93531
C          0.07159       19.11710      -22.86280
C          0.15033       17.81876      -22.44872
C          1.01737       17.71837      -21.32851
C         -0.78189       19.46134      -23.89695
C         -1.33290       18.51695      -24.76117
C         -1.00229       17.04323      -24.51841
C         -0.63255       16.89629      -23.17254
S         -1.22047       21.06714      -24.12910
C         -2.28445       20.66532      -25.38488
C         -2.22160       19.28788      -25.65799
C         -1.02861       15.65856      -25.15155
C         -1.30079       14.50154      -24.37500
C         -1.90398       14.91757      -23.21465
C         -1.14746       15.81151      -22.48367
N         -0.63705       13.21788      -23.86667
C         -1.36259       12.99367      -22.53276
N         -2.52428       13.80441      -22.62529
O         -1.07434       12.21767      -21.63487
C         -0.48718       11.81104      -24.22084
C         -0.19288       11.08510      -25.50524
C         -3.53792       13.31317      -23.65297
C         -4.65889       12.42416      -23.19238
C         -2.97506       21.79753      -25.99267
C         -3.26943       23.01847      -25.42467
C         -3.66178       24.00240      -26.41442
C         -3.65692       23.47162      -27.68056
S         -3.35584       21.77115      -27.64732
C         -3.87835       24.11982      -28.97985
C         -4.81001       25.15087      -29.15227
C         -5.04818       25.76686      -30.52842
C         -4.31451       25.29163      -31.67339
C         -3.37615       24.27492      -31.41425
C         -3.15692       23.72726      -30.13521
N         -5.61359       25.73075      -28.20399
S         -6.50794       26.87646      -28.95179
N         -5.97367       26.74261      -30.52388
C         -4.56021       25.82099      -33.02104
S         -3.26530       25.92921      -34.15150
C         -4.27954       26.55241      -35.37178
C         -5.57578       26.69774      -34.93903
C         -5.73799       26.27121      -33.58890
H         13.09170        4.15105       11.70965
H         13.34812        6.72323       12.23671
H          9.95360        9.46716        6.46230
H          9.88422       10.98852        9.53857
H         14.03090        9.07336       10.99296
H         12.65396       13.56310       12.75173
H         12.17373       12.45502       13.99013
H         10.44207       14.37741       12.45257
H         11.05350       14.43346       14.08652
H          9.83425       13.22748       13.71235
H         12.52613       13.49044       10.48290
H         13.08394       12.80877        8.96413
H         14.56873       14.67162       10.85336
H         13.90676       14.98530        9.25010
H         15.30865       13.91281        9.40590
H          9.43586        4.97241        4.55743
H          8.67166        5.25979        2.07691
H          9.78940       10.43131       -1.08406
H         10.35345        9.42005        0.98992
H          6.70362       10.14551       -5.94062
H          7.10952        8.25374       -4.14568
H          6.75407       14.07556       -3.26708
H          5.85149       18.51426       -8.89961
H          3.84809       18.71215       -5.65410
H          7.37920       16.49295       -3.18157
H          4.13151       20.04783       -0.94853
H          3.53863       18.45679       -0.65379
H          2.23562       20.73641       -2.21167
H          1.97634       20.21472       -0.56153
H          1.46040       19.14095       -1.84983
H          6.69690       21.17467       -2.14636
H          5.39605       20.72150       -3.17166
H          8.10065       21.51925       -4.07020
H          6.48633       21.96251       -4.63869
H          7.15953       20.40822       -5.10307
H          9.07673       15.75806      -11.35513
H          8.69492       15.98512      -13.93292
H          3.18008       18.05392      -16.00969
H          4.24053       17.21250      -14.04459
H          3.82755       20.79562      -21.02997
H          5.58124       20.49501      -19.08503
H          1.27657       16.77915      -20.85117
H         -2.84706       18.83142      -26.41073
H         -1.25793       15.62144      -26.21909
H         -0.98148       15.66207      -21.42275
H         -1.38860       11.27524      -23.86518
H          0.30014       11.45590      -23.52970
H         -1.03437       11.11477      -26.19757
H         -0.08641       10.01475      -25.22953
H          0.74464       11.37195      -25.97156
H         -3.03787       12.75394      -24.45995
H         -3.99373       14.19539      -24.12872
H         -4.29593       11.43042      -22.92282
H         -5.35253       12.30150      -24.03659
H         -5.20552       12.87115      -22.36290
H         -3.14053       23.29101      -24.38985
H         -3.86347       25.04765      -26.18744
H         -2.79185       23.86058      -32.23481
H         -2.38768       22.95030      -30.05872
H         -3.87338       26.78913      -36.34515
H         -6.37315       27.08909      -35.55812
H         -6.68474       26.29288      -33.06303
