167
P1_mishra.sdf
C         -2.81052        6.48374        6.15751
C         -2.17245        7.70785        6.44411
C         -0.77285        7.87856        6.22072
C         -0.01235        6.80149        5.69697
C         -0.65505        5.60309        5.40023
C         -2.03385        5.43565        5.60033
C         -4.21309        6.54352        6.53026
C         -4.62400        7.76291        6.98860
S         -3.34298        8.84293        7.06050
C          1.40248        6.71780        5.38967
C          1.80627        5.50396        4.86305
S          0.46542        4.44303        4.78169
O         -0.01143        9.02891        6.47147
O         -2.53423        4.16199        5.28283
C          3.12635        5.09599        4.40772
C          3.51383        3.85977        3.91733
C          4.88387        3.81314        3.52620
C          5.54463        5.01147        3.71969
S          4.46962        6.17186        4.40084
C          6.93965        5.36148        3.42688
C          7.71713        6.21813        4.23438
C          9.06958        6.53700        3.96843
C          9.79840        6.01979        2.87512
C          9.07187        5.15190        2.00564
C          7.61210        4.81430        2.28759
N          9.53248        4.54128        0.89964
S          8.28815        3.66265        0.26263
N          7.09415        3.98898        1.35646
C         11.20910        6.32654        2.62274
C         11.88062        6.46733        1.42311
C         13.26456        6.74922        1.59141
C         13.62674        6.85440        2.91994
S         12.29088        6.54141        3.94099
C         -3.86982        4.09149        4.79059
C         -4.02170        2.92409        3.83401
C         -0.64466       10.19911        6.96875
C          0.35728       11.32584        7.14344
C         16.65289        8.02542        4.84909
C         17.39828        7.58066        3.73948
C         18.80772        7.76859        3.67048
C         19.47777        8.39922        4.74871
C         18.74278        8.80547        5.85637
C         17.34921        8.61819        5.93746
C         15.23788        7.80664        4.62660
C         14.92708        7.18142        3.44559
S         16.33603        6.82409        2.60004
C         20.88290        8.70619        4.91980
C         21.19380        9.27688        6.13738
S         19.76812        9.52919        7.04632
O         19.65928        7.39720        2.62171
O         16.73856        9.11413        7.09267
C         22.49865        9.62710        6.66147
C         22.87756        9.69776        7.98943
C         24.24907       10.04345        8.15999
C         24.91032       10.23779        6.96158
S         23.82999        9.99940        5.64317
C         26.31529       10.58658        6.72611
C         26.74662       11.44077        5.68502
C         28.09841       11.79996        5.47066
C         29.16671       11.35527        6.28054
C         28.80635       10.48249        7.35156
C         27.35117       10.08953        7.57841
N         29.63369        9.92983        8.25887
S         28.71129        9.00559        9.26984
N         27.21051        9.25726        8.62819
C         30.56245       11.75237        6.07448
C         31.72677       11.03301        6.27131
C         32.90205       11.78675        5.98544
C         32.61782       13.07061        5.56393
S         30.92686       13.33972        5.53588
C         15.57978        8.43354        7.56871
C         15.47753        8.55178        9.07810
C         19.12193        6.75138        1.47261
C         20.21257        6.43966        0.46255
C         35.60003       15.33744        5.13337
C         34.78952       16.08390        4.25450
C         35.26729       17.27486        3.63914
C         36.59053       17.71178        3.90624
C         37.39328       16.95507        4.75036
C         36.93415       15.76932        5.35497
C         34.85053       14.22818        5.68961
C         33.57124       14.09269        5.21226
S         33.24835       15.30546        4.09362
C         37.30646       18.87412        3.41765
C         38.61479       18.96735        3.85326
S         38.95592       17.67354        4.92209
O         34.56331       18.11610        2.76623
O         37.83969       15.13244        6.20824
C         39.62543       19.95524        3.50631
C         40.92304       20.04451        3.97976
C         41.66483       21.11263        3.39303
C         40.93298       21.83815        2.47245
S         39.33517       21.20824        2.36324
C         41.34957       22.98383        1.64943
C         40.49962       24.06251        1.32116
C         40.90275       25.17792        0.54636
C         42.20459       25.34694        0.02283
C         43.11766       24.28582        0.30491
C         42.68118       23.07976        1.13615
N         44.40495       24.19977       -0.07947
S         45.00276       22.77607        0.50518
N         43.67601       22.18575        1.29165
C         42.62374       26.52414       -0.75013
C         43.52101       26.62346       -1.80134
C         43.68135       27.95767       -2.27921
C         42.89722       28.84799       -1.58530
S         41.98731       28.07925       -0.36363
C         37.77494       13.71095        6.29492
C         39.14793       13.13264        6.58852
C         33.22493       17.79424        2.40434
C         32.65245       18.83372        1.45900
H         -4.91893        5.73482        6.44697
H         -5.61929        8.05456        7.29248
H          2.07568        7.55185        5.54904
H          2.84784        3.01020        3.82425
H          5.35576        2.92989        3.11095
H          7.27041        6.66268        5.12428
H          9.55967        7.22638        4.65845
H         11.40517        6.37195        0.45208
H         13.95069        6.89285        0.76577
H         -4.16453        5.00609        4.26467
H         -4.53219        3.89945        5.63836
H         -3.37297        3.04649        2.96175
H         -5.06015        2.85292        3.49330
H         -3.74899        1.98149        4.31903
H         -1.07211        9.99724        7.95573
H         -1.39629       10.54649        6.25318
H          1.14684       11.04256        7.84506
H         -0.15037       12.21736        7.52928
H          0.83241       11.57889        6.19159
H         14.45645        8.11613        5.30215
H         21.62661        8.46113        4.17050
H         22.21029        9.49043        8.81730
H         24.72637       10.13394        9.12918
H         26.00727       11.86721        5.00705
H         28.30596       12.46007        4.62680
H         31.74603       10.00600        6.61626
H         33.90626       11.39340        6.08221
H         15.59135        7.36983        7.30767
H         14.69821        8.92776        7.14975
H         16.34054        8.08867        9.56454
H         14.56642        8.05739        9.43148
H         15.44693        9.60087        9.38758
H         18.40619        7.41220        0.97462
H         18.67489        5.79578        1.76082
H         20.70918        7.35583        0.12899
H         19.77827        5.93849       -0.40611
H         20.97464        5.78810        0.90101
H         35.23027       13.54017        6.42801
H         36.85006       19.59017        2.74436
H         41.34847       19.36571        4.70906
H         42.70010       21.32312        3.63605
H         39.47201       24.06252        1.68800
H         40.14835       25.94221        0.35196
H         44.05326       25.77495       -2.21536
H         44.34089       28.24600       -3.08853
H         42.81808       29.91637       -1.73263
H         37.40214       13.25858        5.36982
H         37.13250       13.44990        7.14105
H         39.85006       13.36669        5.78389
H         39.08097       12.04445        6.69416
H         39.55692       13.54753        7.51531
H         32.58953       17.79000        3.29518
H         33.20620       16.83695        1.87456
H         32.64072       19.82277        1.92567
H         31.62624       18.56232        1.18818
H         33.24917       18.90283        0.54500
