88
P1_yang.sdf
C          0.36982        1.34351        0.04873
C          1.56152        0.66039        0.00789
C          1.57795       -0.72516       -0.02457
C          0.38356       -1.45908        0.01344
C         -0.84130       -0.75703        0.14433
C         -0.83242        0.65992        0.09921
N         -2.02864       -1.37954        0.30785
C         -3.19346       -0.66521        0.28721
C         -3.15931        0.72058        0.09339
N         -1.96715        1.38081        0.07305
F          2.71402        1.34988       -0.03782
F          2.76658       -1.34101       -0.12705
C          1.43581       -3.82053        0.26824
C          1.16316       -5.17100       -0.09947
C         -0.00822       -5.32253       -0.80229
S         -0.72937       -3.79098       -1.05583
C          0.45280       -2.93810       -0.14464
C         -4.41276       -1.50160        0.37839
C         -4.44459       -2.74625       -0.27101
C         -5.60123       -3.53413       -0.35666
C         -6.77943       -3.08133        0.24898
C         -6.75766       -1.86073        0.93067
C         -5.59016       -1.09495        1.01846
C         -4.32435        1.58159       -0.21606
C         -4.42397        2.87454        0.31670
C         -5.51962        3.70231        0.03310
C         -6.54939        3.26399       -0.80495
C         -6.44780        1.99286       -1.38659
C         -5.35215        1.17354       -1.08607
O         -7.67348        3.98945       -1.07824
C         -7.75010        5.33237       -0.61388
C         -9.03635        5.91706       -1.16744
O         -7.35159        1.40348       -2.23768
C         -7.99341        2.27874       -3.16416
C         -8.28035        1.51030       -4.44171
O         -8.01055       -3.68979        0.26488
C         -8.12086       -4.99223       -0.30608
C         -9.54688       -5.48381       -0.14214
O         -5.64580       -4.69475       -1.07561
C         -4.44477       -5.37531       -1.37482
C         -3.90761       -6.06268       -0.13463
C         -0.66297       -6.56365       -1.26489
C         -0.53788       -7.73865       -0.50801
C         -1.25620       -8.89874       -0.83823
C         -2.13992       -8.92383       -1.92637
C         -2.25285       -7.75543       -2.69502
C         -1.51012       -6.60146       -2.38420
C         -2.92436      -10.12570       -2.27396
S         -3.36574      -11.28476       -1.07789
C         -4.10055      -12.31230       -2.22542
C         -4.07170      -11.77316       -3.48956
C         -3.41434      -10.50853       -3.51256
H          0.36965        2.43506        0.02731
H          2.32837       -3.51776        0.80471
H          1.81234       -5.99749        0.15979
H         -3.52966       -3.06679       -0.75378
H         -7.67506       -1.48151        1.37571
H         -5.63907       -0.14572        1.54672
H         -3.63933        3.25010        0.97281
H         -5.53609        4.68522        0.49279
H         -5.32642        0.19117       -1.55515
H         -6.89980        5.91927       -0.98059
H         -7.78144        5.35216        0.48084
H         -9.03652        5.87522       -2.26212
H         -9.16536        6.95551       -0.85162
H         -9.89848        5.33203       -0.82963
H         -7.35956        3.13530       -3.42207
H         -8.93957        2.62308       -2.73374
H         -7.34550        1.18732       -4.91178
H         -8.82763        2.13920       -5.14980
H         -8.86703        0.60880       -4.23836
H         -7.45301       -5.69226        0.20866
H         -7.90978       -4.95574       -1.38023
H         -9.82949       -5.50951        0.91264
H         -9.65076       -6.48842       -0.56504
H        -10.24228       -4.81258       -0.65399
H         -3.71375       -4.71361       -1.87218
H         -4.69076       -6.12776       -2.13251
H         -3.68059       -5.35630        0.66608
H         -3.00364       -6.60810       -0.33432
H         -4.63299       -6.78936        0.24244
H          0.07117       -7.75578        0.39298
H         -1.12726       -9.77346       -0.20471
H         -2.97464       -7.69818       -3.50787
H         -1.68552       -5.70718       -2.97929
H         -4.52265      -13.25931       -1.91796
H         -4.49083      -12.26433       -4.35873
H         -3.27552       -9.92504       -4.41418
