86
P3HT.sdf
C         -2.37263        0.33130        1.83795
C         -2.57310        0.24268        3.22196
C         -1.33352       -0.04343        3.90326
C         -0.26388       -0.19844        3.05496
S         -0.72950        0.00778        1.43867
C         -3.87806        0.48294        3.95053
C         -4.04997       -0.27567        5.25999
C         -3.31366        0.70929        0.78623
C         -3.47018        0.21043       -0.50728
C         -4.54388        0.88830       -1.19806
C         -5.17981        1.85626       -0.44665
S         -4.39550        2.02185        1.06059
C         -2.70685       -0.91253       -1.16515
C         -1.53035       -0.43413       -2.00783
C         -9.13562        4.22621       -3.06061
C         -9.75391        3.49555       -4.07933
C        -10.50323        4.36864       -4.95674
C        -10.42336        5.71374       -4.62967
S         -9.45405        5.90922       -3.24155
C         -9.66665        2.01454       -4.37878
C        -10.23990        1.09204       -3.31679
C        -13.12207        8.78629       -8.00415
C        -14.21121        8.16321       -8.62662
C        -14.63699        8.91111       -9.78477
C        -13.91363       10.06016       -9.99392
S        -12.71600       10.25255       -8.81055
C        -14.83594        6.84640       -8.21877
C        -16.31218        6.68623       -8.55735
C         -8.23407        3.79335       -1.99816
C         -8.11007        4.24086       -0.67993
C         -7.01856        3.56802       -0.01328
C         -6.32566        2.67232       -0.80418
S         -7.01109        2.63548       -2.36420
C         -8.89105        5.31822        0.04086
C        -10.37035        5.03525        0.24034
C        -12.31034        8.32906       -6.88318
C        -11.75863        9.04633       -5.81628
C        -11.01892        8.17517       -4.93481
C        -11.01913        6.84556       -5.31258
S        -11.84257        6.67271       -6.79898
C        -11.89802       10.51908       -5.52803
C        -10.73737       11.35407       -6.05758
C        -14.05360       11.06464      -11.08399
C          1.15816       -0.48799        3.38910
H         -1.22985       -0.11940        4.97902
H         -4.71952        0.20178        3.30823
H         -3.95997        1.55728        4.15733
H         -4.04007       -1.35742        5.09289
H         -5.00891       -0.01176        5.71901
H         -3.26656       -0.03199        5.98403
H         -4.83939        0.63444       -2.21069
H         -3.38984       -1.46870       -1.82099
H         -2.36879       -1.63477       -0.41529
H         -1.87238        0.12068       -2.88733
H         -0.94569       -1.29184       -2.35730
H         -0.85880        0.22569       -1.45170
H        -11.05120        4.00682       -5.81616
H         -8.62917        1.74210       -4.59961
H        -10.21407        1.81474       -5.31061
H         -9.65498        1.11229       -2.39343
H        -10.23527        0.06014       -3.68306
H        -11.27322        1.35828       -3.07000
H        -15.43649        8.60650      -10.44925
H        -14.74065        6.70899       -7.13642
H        -14.27738        6.03882       -8.70883
H        -16.91873        7.43548       -8.03861
H        -16.65912        5.69443       -8.24803
H        -16.50090        6.77470       -9.63154
H         -6.74656        3.77623        1.01575
H         -8.75165        6.28011       -0.46377
H         -8.45187        5.45924        1.03882
H        -10.91858        5.02360       -0.70506
H        -10.81409        5.81780        0.86603
H        -10.53132        4.07374        0.73804
H        -10.52416        8.53335       -4.03815
H        -11.94448       10.66327       -4.43890
H        -12.84792       10.90283       -5.91469
H         -9.80757       11.12545       -5.52293
H        -10.94744       12.42166       -5.92396
H        -10.54484       11.17812       -7.11978
H        -14.78742       10.73619      -11.82727
H        -13.09979       11.21213      -11.60202
H        -14.38592       12.02829      -10.68462
H          1.31330       -0.49177        4.47293
H          1.82067        0.27193        2.96092
H          1.45634       -1.46798        3.00233
