88
P4_yang.sdf
C          0.36535        1.34675        0.02699
C          1.56742        0.66583       -0.01151
C          1.59028       -0.71740       -0.03559
C          0.39980       -1.46015        0.01139
C         -0.83412       -0.76638        0.08812
C         -0.83018        0.65038        0.06259
N         -2.03468       -1.39203        0.17792
C         -3.18781       -0.66487        0.19270
C         -3.15101        0.72424        0.03883
N         -1.95730        1.38085        0.03029
F          2.71377        1.35641       -0.05064
F          2.78068       -1.33348       -0.10835
C          1.32898       -3.69355       -0.90578
C          1.12860       -5.10167       -0.75599
C          0.16123       -5.42024        0.18525
S         -0.43487       -3.97074        0.89785
C          0.49607       -2.93885       -0.09845
C         -4.41533       -1.49302        0.30318
C         -4.49329       -2.70342       -0.40943
C         -5.67421       -3.45783       -0.48830
C         -6.80034       -3.04771        0.24193
C         -6.72316       -1.87140        0.99766
C         -5.54889       -1.10764        1.03456
C         -4.30966        1.59993       -0.24902
C         -4.41132        2.88305        0.30975
C         -5.50644        3.71639        0.03623
C         -6.52984        3.29443       -0.81782
C         -6.41589        2.03965       -1.43136
C         -5.32353        1.21335       -1.14111
O         -7.66246        4.01422       -1.07363
C         -7.74275        5.35193       -0.59431
C         -9.03428        5.94490       -1.12836
O         -7.31054        1.47193       -2.30372
C         -7.92160        2.36482       -3.23468
C         -8.17802        1.60302       -4.52252
O         -8.03080       -3.65885        0.31041
C         -8.14948       -4.97550       -0.22772
C         -9.55073       -5.50067        0.02064
O         -5.80711       -4.53401       -1.32210
C         -4.65867       -5.19623       -1.83114
C         -4.04716       -6.05484       -0.75178
C         -0.36644       -6.75518        0.57570
C          0.34844       -7.93215        0.32130
C         -0.20005       -9.20526        0.55682
C         -1.51050       -9.36900        1.01754
C         -2.21535       -8.20169        1.29643
C         -1.63139       -6.93764        1.14826
C         -2.13473      -10.68150        1.24796
S         -1.27999      -11.89750        2.11149
C         -2.59685      -12.98118        2.04456
C         -3.67814      -12.44258        1.38799
C         -3.41361      -11.11558        0.93232
F         -2.35611       -5.89147        1.56463
F          0.56907      -10.27535        0.30139
F          1.60525       -7.87227       -0.14732
F         -3.49361       -8.26295        1.70511
H          0.36703        2.43321        0.01682
H          2.05120       -3.26295       -1.59134
H          1.67466       -5.83577       -1.33758
H         -3.59989       -3.01600       -0.94076
H         -7.59989       -1.52885        1.54406
H         -5.55587       -0.18733        1.61609
H         -3.62818        3.24802        0.97372
H         -5.53067        4.68803        0.51834
H         -5.28132        0.24783       -1.64256
H         -6.89683        5.94430       -0.96076
H         -7.76543        5.36256        0.50114
H         -9.04216        5.92349       -2.22350
H         -9.15983        6.97766       -0.79275
H         -9.89503        5.35469       -0.79511
H         -7.27768        3.22147       -3.46651
H         -8.87681        2.71064       -2.82572
H         -7.23326        1.25928       -4.95694
H         -8.68829        2.23921       -5.25118
H         -8.78813        0.71334       -4.33681
H         -7.42859       -5.64995        0.25070
H         -8.01326       -4.95489       -1.31330
H         -9.77880       -5.52614        1.08999
H         -9.65455       -6.50990       -0.39044
H        -10.29022       -4.85113       -0.45837
H         -3.93897       -4.50634       -2.28093
H         -4.99794       -5.84996       -2.64070
H         -3.86455       -5.44704        0.13402
H         -3.11408       -6.49431       -1.10423
H         -4.72925       -6.85258       -0.44407
H         -2.51464      -13.95811        2.50047
H         -4.61708      -12.96791        1.25597
H         -4.14376      -10.50848        0.40919
