170
P5T-2F.sdf
C         -6.90949        0.81569       -7.13669
C         -7.54061       -0.18729       -6.42558
C         -6.71528       -1.33215       -6.22385
C         -5.48530       -1.22212       -6.83764
S         -5.38930        0.27323       -7.69212
C         -4.42676       -2.21186       -6.89872
S         -4.77425       -3.89817       -6.88746
C         -3.13376       -4.37432       -7.20088
C         -2.36342       -3.23111       -7.39463
C         -3.05892       -2.03738       -6.91787
C         -0.97138       -3.11014       -7.87824
C         -0.21976       -2.15955       -7.04869
C         -0.92180       -1.15081       -6.29524
C         -2.31491       -0.83336       -6.55942
C          1.14380       -1.95925       -6.91045
S          1.47301       -1.03281       -5.48587
C         -0.18166       -0.68854       -5.22891
O         -2.74960        0.30339       -6.45838
O         -0.55246       -3.64687       -8.89332
C         -0.67024       -0.06068       -3.95315
C         -0.67792        1.45477       -3.95527
C          2.30127       -2.40821       -7.75338
C          2.93273       -3.70141       -7.27545
C         -2.77689       -5.79275       -7.18142
C         -3.62310       -6.87478       -7.36308
C         -2.97014       -8.13941       -7.23931
C         -1.62687       -8.03226       -6.93490
S         -1.19546       -6.36421       -6.79674
C         -0.66627       -9.11636       -6.77515
S         -1.14732      -10.78925       -6.88294
C          0.44228      -11.37619       -6.63762
C          1.29702      -10.32270       -6.45419
C          0.68423       -9.04459       -6.50597
C         -7.41793        2.13927       -7.41972
C         -6.70673        3.31135       -7.61814
C         -7.56535        4.42631       -7.77505
C         -8.89597        4.11076       -7.72558
S         -9.11696        2.43342       -7.50143
F         -7.13135        5.64698       -7.93459
F          2.57494      -10.45342       -6.22222
C          0.65961      -16.68014       -6.00592
C         -0.51518      -17.22301       -5.52046
C         -0.39897      -18.60909       -5.17220
C          0.85086      -19.13395       -5.44283
S          1.82519      -17.92217       -6.19013
C          1.30935      -20.50916       -5.25986
S          0.21566      -21.83446       -5.37511
C          1.44636      -23.05843       -5.23549
C          2.69153      -22.44095       -5.15419
C          2.55736      -20.99781       -4.91833
C          4.04631      -23.05571       -5.18386
C          4.94212      -22.40733       -4.20789
C          4.63386      -21.08904       -3.72001
C          3.67323      -20.22623       -4.37845
C          6.18191      -22.78373       -3.71138
S          6.55063      -21.88309       -2.27679
C          5.23141      -20.82819       -2.50449
O          3.83326      -19.01841       -4.43997
O          4.38394      -23.92743       -5.97237
C          4.81092      -19.84222       -1.44854
C          5.49496      -18.49316       -1.53889
C          7.19440      -23.78468       -4.18743
C          7.07860      -25.13578       -3.51088
C          1.04696      -24.47039       -5.19412
C         -0.13710      -25.02085       -5.66162
C         -0.22772      -26.43539       -5.47655
C          0.87397      -26.97524       -4.84074
S          1.98456      -25.70970       -4.44185
C          1.12434      -28.38441       -4.54881
S         -0.01448      -29.62822       -4.95928
C          1.00763      -30.90844       -4.43133
C          2.16505      -30.36949       -3.91558
C          2.23874      -28.95406       -3.96041
C          0.91665      -15.28933       -6.35479
C          2.10237      -14.75741       -6.87655
C          1.99889      -13.33968       -7.03647
C          0.80810      -12.79582       -6.65370
S         -0.24829      -14.04601       -6.12187
F          3.00341      -12.64756       -7.51671
F          3.13623      -31.08857       -3.41803
C         -1.38508      -35.67825       -4.62169
C         -2.76408      -35.61242       -4.54670
C         -3.38752      -36.89314       -4.42395
C         -2.48730      -37.93985       -4.46557
S         -0.90066      -37.32097       -4.72366
C         -2.77638      -39.36637       -4.41860
S         -4.25166      -39.98457       -5.04571
C         -3.81701      -41.65008       -4.81741
C         -2.52353      -41.72393       -4.30813
C         -2.05760      -40.40702       -3.86147
C         -1.65886      -42.91834       -4.09805
C         -0.91235      -42.81570       -2.82867
C         -0.72937      -41.52920       -2.21014
C         -0.94090      -40.28949       -2.93210
C         -0.17865      -43.75145       -2.11266
S          0.08879      -43.18887       -0.49305
C         -0.48539      -41.62692       -0.85812
O         -0.23637      -39.31140       -2.74411
O         -1.52994      -43.82074       -4.91354
C         -0.72843      -40.59535        0.20936
C          0.46839      -39.72317        0.52962
C          0.39493      -45.08819       -2.48747
C         -0.48745      -46.25979       -2.10611
C         -4.80248      -42.68211       -5.13456
C         -5.90107      -42.56609       -5.97295
C         -6.65947      -43.76877       -6.08512
C         -6.16638      -44.79359       -5.30053
S         -4.80380      -44.24026       -4.40244
C         -6.66839      -46.15551       -5.21747
S         -8.04940      -46.66125       -6.13368
C         -7.93432      -48.27359       -5.58596
C         -6.89528      -48.41367       -4.70790
C         -6.17079      -47.21856       -4.48030
C         -0.43114      -34.58004       -4.64470
C          0.94561      -34.64786       -4.75805
C          1.55242      -33.36911       -4.70092
C          0.67598      -32.31629       -4.55285
S         -0.93009      -32.93025       -4.49641
F          2.84867      -33.22520       -4.78821
F         -6.59239      -49.55037       -4.14171
H         -8.54313       -0.09517       -6.03103
H         -7.02832       -2.19719       -5.65169
H         -0.06322       -0.41805       -3.11061
H         -1.68943       -0.41726       -3.74679
H          0.33706        1.85476       -4.02921
H         -1.11575        1.82205       -3.01983
H         -1.27023        1.85714       -4.78172
H          3.06869       -1.62189       -7.75541
H          1.98514       -2.51205       -8.79799
H          3.36798       -3.58619       -6.27717
H          3.73901       -3.99352       -7.95684
H          2.20051       -4.51232       -7.24004
H         -4.67927       -6.78580       -7.58750
H         -3.48052       -9.08551       -7.37807
H          1.23041       -8.10426       -6.37096
H         -5.62570        3.38057       -7.60972
H         -9.74325        4.77559       -7.80722
H         -1.43091      -16.65891       -5.38740
H         -1.21041      -19.18282       -4.74616
H          4.98540      -20.27111       -0.45393
H          3.72397      -19.69204       -1.51306
H          6.56294      -18.57765       -1.32049
H          5.05601      -17.80695       -0.80472
H          5.37997      -18.04123       -2.52782
H          8.20252      -23.38724       -3.99722
H          7.12751      -23.90091       -5.27451
H          7.25490      -25.06042       -2.43238
H          7.82944      -25.82009       -3.92065
H          6.08959      -25.57414       -3.66840
H         -0.91871      -24.44950       -6.14783
H         -1.06877      -27.02475       -5.82292
H          3.09250      -28.39564       -3.60024
H          2.97793      -15.31182       -7.12246
H         -3.31864      -34.68357       -4.55093
H         -4.45594      -37.02522       -4.31547
H         -1.07753      -41.08609        1.12606
H         -1.55903      -39.94854       -0.10819
H          1.26236      -40.30367        1.00758
H          0.16957      -38.92873        1.22329
H          0.88043      -39.24699       -0.36424
H          1.36611      -45.21008       -1.98456
H          0.61786      -45.11718       -3.55962
H         -0.63985      -46.31163       -1.02255
H         -0.01329      -47.19732       -2.41705
H         -1.46556      -46.19107       -2.58897
H         -6.15596      -41.66785       -6.52272
H         -7.52019      -43.86876       -6.73685
H         -8.62367      -49.03198       -5.92945
H         -5.31304      -47.15800       -3.82439
H          1.50790      -35.56722       -4.86497
