191
p_chen.sdf
C         11.53278        4.08623       11.15929
S         10.73629        4.04138        9.65487
C         11.31081        5.58296        9.24437
C         12.13315        6.13846       10.19820
C         12.28968        5.21922       11.27474
C         11.11207        6.25492        8.03682
C         11.42589        7.60077        7.85137
C         12.04316        8.33950        9.02028
C         12.67210        7.41468        9.84860
S         10.55356        5.41375        6.69146
C         10.66705        6.78284        5.70267
C         11.14141        7.88682        6.43573
C         12.32843        9.75289        9.50942
C         13.52623       10.00594       10.20807
C         14.41956        8.99505        9.93430
C         13.94943        7.74038       10.28075
N         14.03785       10.43446       11.56913
C         15.41831        9.78354       11.62780
N         15.70651        9.44974       10.27895
O         16.16439        9.67391       12.58730
C         14.34200       11.63686       12.32319
C         13.61204       12.93442       12.52438
C         15.96755       10.67792        9.41354
C         17.38972       11.13678        9.22809
C         10.23672        6.61984        4.32949
C          9.87355        5.44196        3.66910
C          9.37627        5.66727        2.35489
C          9.40319        7.00538        2.03146
S         10.00309        7.96178        3.31788
C          9.00714        7.64922        0.80174
C          7.83669        7.22028        0.08265
C          7.44380        7.92917       -1.18233
C          8.20691        9.02226       -1.65145
C          9.34439        9.38174       -0.90739
C          9.71331        8.72512        0.25743
F         10.13134       10.39176       -1.31387
F         10.85333        9.15506        0.84846
N          7.02070        6.20042        0.38167
S          5.84065        6.16017       -0.78503
N          6.32126        7.42415       -1.73399
C          7.80427        9.70410       -2.83904
S          7.82816       11.42121       -2.75689
C          7.38545       11.55166       -4.37946
C          7.16460       10.32390       -4.97434
C          7.38615        9.26013       -4.06329
C          7.25524       12.84968       -4.93647
S          7.44507       13.07377       -6.59960
C          6.91910       14.67269       -6.45402
C          6.73060       15.09553       -5.17564
C          7.00576       14.03604       -4.27316
C          6.77176       15.56132       -7.49847
C          6.08774       16.76796       -7.36322
C          5.57488       17.14316       -5.98216
C          6.34192       16.44311       -5.03530
S          7.47422       15.21631       -8.97326
C          6.90180       16.65982       -9.62342
C          6.15934       17.39294       -8.68970
C          4.62889       18.06341       -5.24787
C          4.98357       18.55600       -3.96999
C          6.34182       18.42826       -3.79843
C          6.80293       17.14077       -3.93373
N          4.52642       18.52947       -2.52594
C          5.83208       18.71913       -1.76458
N          6.72421       19.26153       -2.72738
O          6.04448       18.54339       -0.57599
C          3.64826       19.22854       -1.60525
C          2.30253       19.87661       -1.76259
C          6.35593       20.67472       -3.16863
C          6.97539       21.84162       -2.44834
C          7.17673       16.80878      -11.02567
C          8.24480       16.32101      -11.77297
C          8.04325       16.46254      -13.17253
C          6.84600       17.08186      -13.44638
S          5.95836       17.40768      -12.01958
C          6.25685       17.47520      -14.70670
C          6.44126       16.70735      -15.89514
C          5.81327       17.16974      -17.18156
C          5.04973       18.36361      -17.20004
C          4.88707       19.05498      -15.99580
C          5.47352       18.63927      -14.81664
F          4.16651       20.18835      -15.94418
F          5.28557       19.44140      -13.75500
N          7.13587       15.56548      -16.05064
S          7.00271       15.11641      -17.63989
N          6.06614       16.34860      -18.21605
C          4.48770       18.83825      -18.43310
S          2.88886       19.38810      -18.40416
C          2.95405       19.79324      -20.03900
C          4.16554       19.48916      -20.61773
C          5.05888       18.92051      -19.67776
C          1.79414       20.34307      -20.66537
S          1.92681       21.31026      -22.03078
C          0.28239       21.27067      -22.27713
C         -0.42512       20.67178      -21.26034
C          0.48181       20.19447      -20.26916
C         -0.40842       21.83727      -23.33471
C         -1.73111       21.55915      -23.62372
C         -2.48719       20.63944      -22.64613
C         -1.80843       20.67683      -21.40800
S          0.39185       22.90496      -24.36299
C         -0.98779       23.11366      -25.32577
C         -2.05848       22.35991      -24.81941
C         -3.73943       19.79765      -22.46464
C         -4.35676       19.70410      -21.20397
C         -3.93757       20.75792      -20.43386
C         -2.58636       20.77650      -20.25698
N         -4.75121       18.72036      -20.11940
C         -4.80072       19.61542      -18.87321
N         -4.85094       20.92914      -19.38818
O         -4.90255       19.27761      -17.70307
C         -5.80062       17.79335      -19.74289
C         -6.57714       16.74698      -20.48952
C         -6.18732       21.23803      -20.04353
C         -7.22887       21.92850      -19.20674
C         -0.82103       24.01722      -26.44039
C          0.37641       24.29079      -27.11452
C          0.20777       25.18410      -28.21337
C         -1.09008       25.61740      -28.32757
S         -2.05631       25.00986      -27.02808
C         -1.69369       26.46894      -29.34541
C         -0.98558       27.52213      -29.98462
C         -1.67484       28.40629      -31.03733
C         -3.05621       28.18277      -31.39344
C         -3.65935       27.07961      -30.75684
C         -3.02268       26.27272      -29.80131
F         -4.91569       26.73249      -31.07861
F         -3.73991       25.24387      -29.32373
N          0.28457       27.89832      -29.78104
S          0.61131       29.17343      -30.79957
N         -0.86161       29.35153      -31.53607
C         -3.74363       29.03358      -32.36330
S         -5.41140       29.41104      -32.13319
C         -5.49229       30.30065      -33.57512
C         -4.25997       30.38459      -34.19974
C         -3.26048       29.65968      -33.49791
H         11.42021        3.27315       11.85475
H         12.86051        5.45720       12.18019
H         11.34978        8.83935        5.96644
H         11.85294       10.57072        8.97718
H         14.56420        7.04535       10.84392
H         15.35521       11.96619       12.02635
H         14.49323       11.26291       13.35306
H         13.61670       13.55415       11.62821
H         14.20201       13.49965       13.27461
H         12.61749       12.81656       12.94560
H         15.43502       11.55559        9.81372
H         15.54348       10.49582        8.41439
H         17.82708       11.48689       10.16485
H         17.37833       11.98987        8.53269
H         18.00313       10.35210        8.78825
H          9.92325        4.45314        4.09573
H          9.01541        4.88272        1.69204
H          6.84046       10.18881       -5.99900
H          7.27179        8.20945       -4.31265
H          6.87868       14.11374       -3.20289
H          5.74295       18.36491       -8.92168
H          3.87449       18.58838       -5.82801
H          7.48713       16.71118       -3.21229
H          4.23456       20.05777       -1.16314
H          3.53566       18.52811       -0.75862
H          2.34002       20.75555       -2.40626
H          2.03627       20.26272       -0.75724
H          1.51313       19.18585       -2.04305
H          5.26834       20.83884       -3.08718
H          6.60102       20.77519       -4.23492
H          6.60965       21.92280       -1.42276
H          6.67184       22.75605       -2.97724
H          8.06327       21.78449       -2.46352
H          9.11477       15.82199      -11.35878
H          8.73922       16.11438      -13.93441
H          4.40601       19.64745      -21.66210
H          6.06923       18.59708      -19.91211
H          0.16478       19.64326      -19.38925
H         -3.05781       22.42466      -25.23318
H         -4.32425       19.57232      -23.37011
H         -2.14527       20.88832      -19.26511
H         -6.59960       18.38455      -19.25558
H         -5.35705       17.22879      -18.90023
H         -7.28657       17.18285      -21.19162
H         -7.19964       16.23376      -19.72735
H         -5.95735       15.97811      -20.94103
H         -6.66451       20.31780      -20.42028
H         -6.00021       21.87184      -20.92311
H         -7.59670       21.27808      -18.41308
H         -8.07603       22.17167      -19.86112
H         -6.84250       22.85912      -18.78627
H          1.33748       23.85376      -26.86401
H          1.01819       25.47601      -28.88157
H         -6.42836       30.73989      -33.89955
H         -4.10844       30.93275      -35.11554
H         -2.23231       29.59587      -33.82949
