224
P_T4-iI-M_.sdf
C          2.33621      -11.76503       -6.66089
C          3.57573      -11.09477       -6.17986
C          4.31902      -11.40949       -5.05984
C          5.48397      -10.58388       -4.84365
C          5.61656       -9.62509       -5.85294
S          4.30121       -9.76049       -6.98133
C          6.41433      -10.75389       -3.66217
C          6.05264      -11.86404       -2.68671
C          6.65914       -8.60392       -6.03751
S          8.29609       -8.83462       -5.54215
C          8.82938       -7.28227       -6.05328
C          7.77022       -6.60891       -6.63773
C          6.54221       -7.35681       -6.62978
C         10.20813       -6.83154       -5.86217
C         11.23574       -7.46123       -5.17925
C         12.45612       -6.70231       -5.15523
C         12.36059       -5.49073       -5.81755
S         10.79133       -5.35272       -6.52431
C         -6.92513      -17.31966      -10.17929
S         -7.56510      -18.65067       -9.29520
C         -8.82698      -18.90121      -10.41361
C         -8.78748      -18.01106      -11.46927
C         -7.68255      -17.10215      -11.32044
C         -9.76617      -17.99099      -12.60929
C         -9.32620      -18.86870      -13.77176
C          1.43093      -12.34861       -5.74986
C          0.27044      -13.05749       -6.16152
C         -0.02999      -13.20733       -7.50613
C          0.88320      -12.62249       -8.39829
C          2.03736      -11.91591       -8.01492
C         -1.11857      -13.87320       -8.33063
C         -0.68552      -13.59700       -9.77511
N          0.48593      -12.85688       -9.71356
C          1.24038      -12.41020      -10.85946
O         -1.22019      -13.94782      -10.80830
C         -2.25484      -14.56162       -8.01638
C         -2.67980      -14.85473       -6.57100
N         -3.87638      -15.55517       -6.63684
C         -4.27465      -15.76452       -7.95513
C         -3.34805      -15.20033       -8.84448
O         -2.11268      -14.55910       -5.53708
C         -4.61902      -16.04519       -5.49848
C         -5.43592      -16.44469       -8.34619
C         -5.71921      -16.60289       -9.70437
C         -4.81053      -16.03679      -10.61399
C         -3.64500      -15.34706      -10.19199
C         26.57094       -0.39758       -7.52949
C         28.01902       -0.07130       -7.64834
C         29.08001       -0.95624       -7.67326
C         30.38529       -0.34560       -7.75719
C         30.28333        1.04431       -7.85697
S         28.61943        1.53340       -7.75491
C         31.66901       -1.14637       -7.76854
C         31.61931       -2.46996       -7.01879
C         31.35057        2.04054       -8.01362
S         32.79111        1.73189       -8.91390
C         33.52285        3.24377       -8.53262
C         32.61623        4.02202       -7.83226
C         31.38884        3.33782       -7.53093
C         34.88596        3.57512       -8.94894
C         35.80519        2.77554       -9.60677
C         37.04535        3.44235       -9.88880
C         37.07034        4.76149       -9.46747
S         35.60293        5.10574       -8.62519
C         15.61246       -3.27607       -6.30218
S         15.06513       -4.89432       -6.09644
C         13.39284       -4.45730       -5.96756
C         13.25015       -3.06880       -6.02083
C         14.52687       -2.42188       -6.23845
C         11.94284       -2.31449       -5.90735
C         12.04663       -0.90169       -5.35358
C         26.15632       -1.52690       -6.79670
C         24.79738       -1.91822       -6.68792
C         23.79325       -1.19799       -7.31465
C         24.22046       -0.07603       -8.04255
C         25.56363        0.33549       -8.16080
C         22.28113       -1.27943       -7.42846
C         21.92798       -0.09087       -8.33158
N         23.12348        0.55712       -8.63258
C         23.25332        1.71804       -9.48268
O         20.83320        0.24030       -8.74568
C         21.34256       -2.12917       -6.90737
C         21.71987       -3.34952       -6.06720
N         20.53727       -3.94099       -5.64733
C         19.42190       -3.28540       -6.16381
C         19.82495       -2.18578       -6.93824
O         22.82460       -3.78897       -5.81859
C         20.45885       -5.13188       -4.83470
C         18.08697       -3.66790       -5.94147
C         17.04999       -2.93520       -6.51883
C         17.43206       -1.82144       -7.29769
C         18.79311       -1.44978       -7.50621
C         51.36043        9.22621      -12.11198
C         52.79374        9.45872      -12.43911
C         53.81283        8.52733      -12.47479
C         55.10863        9.04979      -12.83740
C         55.04065       10.42314      -13.09079
S         53.42592       11.00317      -12.84063
C         56.36075        8.19950      -12.91184
C         56.18225        6.72706      -12.57283
C         56.10473       11.34375      -13.50176
S         57.41193       10.85493      -14.51270
C         58.19690       12.37573      -14.45928
C         57.43077       13.27698      -13.74604
C         56.23761       12.69130      -13.20664
C         59.47845       12.59252      -15.10308
C         60.01306       11.91874      -16.19033
C         61.31427       12.37914      -16.55269
C         61.74384       13.39261      -15.72697
S         60.58340       13.78564      -14.53700
C         40.39506        6.83646      -10.08575
S         39.80015        5.25391       -9.77641
C         38.13949        5.75068       -9.67130
C         38.03889        7.13407       -9.84371
C         39.33764        7.72643      -10.07660
C         36.74611        7.92118       -9.83019
C         36.86627        9.40868      -10.11820
C         50.97819        8.20530      -11.21753
C         49.61976        7.89800      -10.93049
C         48.58850        8.60376      -11.53074
C         48.98962        9.62141      -12.41252
C         50.32587        9.94487      -12.71044
C         47.06871        8.58266      -11.51365
C         46.68985        9.71040      -12.47935
N         47.87332       10.25284      -12.95758
C         47.96291       11.33388      -13.90976
O         45.57929       10.09276      -12.79647
C         46.13423        7.81891      -10.86596
C         46.51310        6.69466       -9.89572
N         45.32612        6.14717       -9.42595
C         44.20994        6.77102       -9.98247
C         44.61402        7.79118      -10.85946
O         47.62170        6.31661       -9.57075
C         45.23404        5.05061       -8.49173
C         42.87055        6.43025       -9.71038
C         41.83608        7.12509      -10.33923
C         42.22343        8.15715      -11.21870
C         43.58390        8.48443      -11.47660
H          4.03856      -12.22795       -4.40796
H          6.45809       -9.80666       -3.11053
H          7.41900      -10.98123       -4.03118
H          5.06302      -11.70689       -2.24651
H          6.78358      -11.90005       -1.87277
H          6.06079      -12.84026       -3.18388
H          7.85087       -5.61214       -7.05534
H          5.61473       -6.97251       -7.03823
H         11.13270       -8.42504       -4.69413
H         13.35251       -7.03989       -4.64786
H         -9.54313      -19.69460      -10.24901
H         -7.46489      -16.31176      -12.02921
H         -9.89653      -16.96098      -12.96252
H        -10.74989      -18.32665      -12.25774
H         -8.35598      -18.54789      -14.16567
H        -10.05722      -18.81657      -14.58533
H         -9.23500      -19.91639      -13.46554
H          1.60992      -12.26539       -4.67812
H         -0.34153      -13.46765       -5.37182
H          2.70749      -11.51497       -8.76803
H          0.74891      -12.69851      -11.79203
H          2.23836      -12.86068      -10.83378
H          1.33040      -11.31982      -10.82852
H         -4.12548      -15.77911       -4.56115
H         -4.69764      -17.13632       -5.55820
H         -5.62364      -15.60872       -5.50538
H         -6.11242      -16.84249       -7.59699
H         -4.98177      -16.13577      -11.68549
H         -3.02020      -14.95858      -10.98187
H         28.92712       -2.02793       -7.62856
H         32.47222       -0.56294       -7.30694
H         31.94766       -1.33805       -8.81184
H         31.35685       -2.31615       -5.96700
H         32.59981       -2.95601       -7.05712
H         30.89410       -3.16110       -7.45854
H         32.81666        5.03865       -7.51481
H         30.58617        3.78730       -6.95786
H         35.60927        1.75026       -9.89729
H         37.86390        2.96800      -10.41726
H         14.64088       -1.34852       -6.33049
H         11.26137       -2.85651       -5.24280
H         11.48018       -2.27411       -6.90103
H         12.48997       -0.90334       -4.35261
H         11.04848       -0.45652       -5.28235
H         12.64882       -0.25512       -5.99858
H         26.89323       -2.14093       -6.27977
H         24.61155       -2.80117       -6.09665
H         25.81898        1.20604       -8.75578
H         22.27919        2.04846       -9.85027
H         23.88859        1.47054      -10.34020
H         23.71382        2.53311       -8.91447
H         21.45572       -5.48222       -4.55786
H         19.94841       -5.92082       -5.39553
H         19.89789       -4.90594       -3.92221
H         17.86575       -4.52127       -5.30924
H         16.66678       -1.21054       -7.77635
H         18.96721       -0.57653       -8.11945
H         53.63246        7.48204      -12.25513
H         57.11503        8.62309      -12.23688
H         56.75727        8.23599      -13.93118
H         55.80726        6.59155      -11.55376
H         57.14076        6.20459      -12.65375
H         55.48332        6.24815      -13.26728
H         57.70659       14.31601      -13.60574
H         55.52737       13.24706      -12.60710
H         59.49654       11.12586      -16.71752
H         61.90208       11.98479      -17.37254
H         62.68939       13.92231      -15.76669
H         39.48786        8.78636      -10.24369
H         36.28667        7.82578       -8.84058
H         36.06149        7.48428      -10.56796
H         37.49848        9.90413       -9.37386
H         35.87735        9.87692      -10.07933
H         37.28850        9.59121      -11.11125
H         51.74201        7.61254      -10.71439
H         49.45253        7.08936      -10.23411
H         50.55158       10.73115      -13.42329
H         46.97039       11.69195      -14.19341
H         48.48086       10.98109      -14.80788
H         48.52472       12.16248      -13.46617
H         46.22564        4.71147       -8.18308
H         44.70698        4.21636       -8.96634
H         44.67964        5.37581       -7.60518
H         42.64179        5.64014       -9.00279
H         41.46311        8.73618      -11.74242
H         43.75358        9.29150      -12.17417
