224
PB2T.sdf
C         -6.43469       -5.30506        9.19158
C         -7.22082       -6.33691        8.60900
C         -7.55081       -6.32601        7.23166
C         -7.13428       -5.27112        6.39045
C         -6.36739       -4.24189        6.96541
C         -6.01830       -4.23502        8.31943
C         -7.34037       -5.02653        4.98536
C         -6.84881       -3.83215        4.51620
S         -5.97812       -3.07089        5.73985
C         -6.24602       -5.53918       10.58948
C         -6.80099       -6.69585       11.06104
S         -7.67305       -7.46971        9.84520
C         -5.25102       -3.08168        8.87775
C         -8.41148       -7.39770        6.63219
C         -7.04467       -3.26423        3.19913
C         -5.33578       -1.74345        8.52874
C         -4.43646       -0.89851        9.23611
C         -3.71650       -1.59585       10.17467
S         -4.00818       -3.27012       10.05679
C         -9.36463       -7.29031        5.63184
C         -9.93810       -8.53049        5.24710
C         -9.47810       -9.56818        6.02062
S         -8.24054       -9.05362        7.06864
S         -8.53171       -3.56686        2.37673
C         -8.09734       -2.61835        1.02483
C         -6.86103       -2.04726        1.22622
C         -6.21840       -2.44019        2.44774
C         -2.72940       -1.06164       11.16418
C         -3.39682       -0.61704       12.45859
C         -9.89095      -11.00508        5.98855
C        -11.08891      -11.27506        6.88796
C         -4.85944       -2.04684        2.80299
O         -4.07669       -2.77606        3.40429
O         -4.53853       -0.79680        2.35547
C         -3.22486       -0.35195        2.72414
C         -3.23216        0.18629        4.14429
C         -8.94722       -2.46890       -0.13985
S         -9.89339       -3.79587       -0.70977
C        -10.56378       -2.89791       -1.99413
C        -10.02553       -1.63020       -2.03010
C         -9.08461       -1.36615       -0.97533
C         -8.45324       -0.06304       -0.79173
O         -8.16767        0.41690        0.29678
O         -8.31976        0.60080       -1.97907
C         -8.26573        2.02809       -1.86508
C         -9.69929        2.53034       -1.84484
C        -12.94472       -4.94916       -4.08450
C        -13.61347       -3.73459       -4.31532
C        -14.78522       -3.67849       -5.10726
C        -15.33095       -4.86482       -5.66456
C        -14.69013       -6.07793       -5.40585
C        -13.50109       -6.13555       -4.63899
C        -16.47858       -5.08047       -6.52115
C        -16.71343       -6.38340       -6.88338
S        -15.57398       -7.37776       -6.13934
C        -11.74933       -4.71962       -3.29335
C        -11.58106       -3.42947       -2.86110
S        -12.80887       -2.44791       -3.47700
C        -12.81876       -7.44798       -4.46688
C        -15.52694       -2.40741       -5.35116
C        -17.72642       -6.85682       -7.80421
C        -12.72057       -8.50260       -5.36557
C        -11.99776       -9.62142       -4.87239
C        -11.48513       -9.38652       -3.61963
S        -12.05065       -7.90547       -2.99351
C        -16.89586       -2.22197       -5.48114
C        -17.27917       -0.89264       -5.79533
C        -16.20186       -0.04129       -5.79322
S        -14.73983       -0.89361       -5.59851
S        -18.25517       -5.80361       -9.06845
C        -19.29817       -6.97381       -9.75329
C        -19.21470       -8.14476       -9.04296
C        -18.36644       -8.08782       -7.88488
C        -10.60437      -10.27239       -2.79650
C         -9.12798      -10.05845       -3.10145
C        -16.19970        1.44145       -5.98135
C        -16.39996        2.18258       -4.66695
C        -18.23054       -9.18462       -6.93681
O        -18.09000       -9.01785       -5.72801
O        -18.32197      -10.40685       -7.52993
C        -18.14800      -11.51993       -6.63687
C        -16.67099      -11.77232       -6.39802
C        -20.11360       -6.71023      -10.92030
S        -20.83839       -5.16457      -11.14979
C        -21.58026       -5.62192      -12.61065
C        -21.32786       -6.94220      -12.89426
C        -20.48698       -7.59391      -11.92594
C        -20.03636       -8.97517      -12.07299
O        -18.95196       -9.39054      -11.68673
O        -20.92919       -9.72191      -12.78892
C        -20.36178      -10.84479      -13.47403
C        -19.84662      -10.33849      -14.80987
C        -23.04132       -2.72310      -14.54938
C        -23.88376       -3.68276      -15.13482
C        -24.81589       -3.33151      -16.14700
C        -24.92508       -1.98434      -16.58168
C        -24.08932       -1.02965      -15.99826
C        -23.14897       -1.37971      -14.99839
C        -25.78013       -1.35798      -17.57094
C        -25.66756        0.00789      -17.66571
S        -24.40491        0.53079      -16.68315
C        -22.20708       -3.34069      -13.53295
C        -22.34532       -4.69832      -13.42310
S        -23.60770       -5.23051      -14.40129
C        -22.32109       -0.30465      -14.38818
C        -25.73486       -4.33380      -16.75398
C        -26.49476        0.90397      -18.44574
C        -22.66667        1.01199      -14.11001
C        -21.60867        1.78793      -13.56848
C        -20.48012        1.03380      -13.35774
S        -20.66381       -0.54044      -13.98237
C        -27.04578       -4.17284      -17.18778
C        -27.60424       -5.33008      -17.79685
C        -26.74470       -6.40001      -17.74496
S        -25.23246       -5.94552      -17.11342
S        -28.15974        0.50776      -18.66819
C        -28.48393        1.91946      -19.57050
C        -27.35068        2.70009      -19.65036
C        -26.18348        2.11482      -19.05146
C        -19.18578        1.45749      -12.74115
C        -19.19471        1.30700      -11.22611
C        -26.97473       -7.80248      -18.21104
C        -27.61468       -8.66671      -17.13401
C        -24.86441        2.71717      -19.12499
O        -23.82664        2.07441      -19.22697
O        -24.91124        4.08717      -19.11253
C        -23.62650        4.72299      -19.13157
C        -23.03044        4.73823      -17.73415
C        -29.78366        2.21069      -20.13651
S        -30.76717        0.93299      -20.75941
C        -32.02191        1.99423      -21.19201
C        -31.69689        3.29894      -20.92003
C        -30.39312        3.44864      -20.32221
C        -29.85920        4.73923      -19.89108
O        -29.13231        4.89184      -18.91688
O        -30.35661        5.76957      -20.63723
C        -30.36106        7.03903      -19.97393
C        -31.64444        7.11430      -19.16580
H         -7.87851       -5.68623        4.32219
H         -5.69458       -4.89953       11.26828
H         -6.76182       -7.09331       12.06243
H         -6.00587       -1.35584        7.77253
H         -4.35062        0.16604        9.06750
H         -9.64147       -6.35920        5.15654
H        -10.67228       -8.63916        4.45905
H         -6.38487       -1.39411        0.50510
H         -2.20701       -0.20774       10.71729
H         -1.96542       -1.81512       11.38853
H         -4.14274        0.16434       12.27698
H         -2.64821       -0.21436       13.14846
H         -3.90014       -1.45238       12.95747
H         -9.05754      -11.64933        6.29108
H        -10.14321      -11.27897        4.95832
H        -10.86424      -11.04784        7.93581
H        -11.37325      -12.33034        6.82502
H        -11.95493      -10.67286        6.59247
H         -2.93789        0.44300        2.02782
H         -2.49129       -1.15803        2.60541
H         -3.91440        1.03866        4.22560
H         -2.23037        0.50488        4.44464
H         -3.58400       -0.56837        4.85464
H        -10.32117       -0.88621       -2.76151
H         -7.74161        2.41969       -2.74377
H         -7.71150        2.35454       -0.97991
H        -10.21048        2.25176       -2.77270
H         -9.73930        3.61551       -1.72759
H        -10.26141        2.06331       -1.02839
H        -17.12001       -4.29794       -6.89583
H        -11.03977       -5.48570       -3.01333
H        -13.16145       -8.49869       -6.35133
H        -11.84606      -10.53683       -5.43075
H        -17.62409       -3.01568       -5.38597
H        -18.30115       -0.58496       -5.97484
H        -19.77582       -9.03581       -9.30403
H        -10.86506      -11.31807       -2.99658
H        -10.78206      -10.10248       -1.72821
H         -8.90350      -10.25560       -4.15545
H         -8.51873      -10.73553       -2.49409
H         -8.81644       -9.03204       -2.87844
H        -17.00615        1.71183       -6.67356
H        -15.26268        1.76698       -6.44787
H        -17.35324        1.91431       -4.19856
H        -16.40218        3.26287       -4.84323
H        -15.60334        1.95661       -3.95058
H        -18.60321      -12.39566       -7.11177
H        -18.68432      -11.35174       -5.69783
H        -16.16467      -12.00591       -7.34069
H        -16.52703      -12.60456       -5.70344
H        -16.17700      -10.88701       -5.98571
H        -21.68672       -7.43553      -13.79207
H        -21.15210      -11.58596      -13.63002
H        -19.56826      -11.32860      -12.89423
H        -20.67386       -9.93257      -15.40284
H        -19.35797      -11.13384      -15.37698
H        -19.13666       -9.51686      -14.66515
H        -26.49465       -1.88423      -18.18329
H        -21.48354       -2.81002      -12.93130
H        -23.64097        1.43554      -14.30953
H        -21.69271        2.84045      -13.33219
H        -27.60028       -3.24835      -17.10674
H        -28.59660       -5.36922      -18.22824
H        -27.32356        3.65573      -20.15930
H        -18.99566        2.50623      -12.99769
H        -18.35529        0.87625      -13.15881
H        -19.99002        1.90593      -10.76863
H        -18.23855        1.64214      -10.81207
H        -19.34591        0.26423      -10.92743
H        -26.03016       -8.25930      -18.52825
H        -27.62545       -7.78183      -19.09213
H        -26.97512       -8.74407      -16.24793
H        -27.78311       -9.67815      -17.51758
H        -28.58080       -8.25992      -16.81622
H        -23.77440        5.74834      -19.48295
H        -22.95765        4.23321      -19.84814
H        -23.68349        5.28881      -17.04734
H        -22.04444        5.20597      -17.73747
H        -22.93405        3.72454      -17.33033
H        -32.93925        1.61584      -21.62049
H        -32.37429        4.12463      -21.10562
H        -30.34418        7.82535      -20.73557
H        -29.47777        7.18220      -19.33942
H        -32.51018        7.04263      -19.83232
H        -31.70543        8.04495      -18.59779
H        -31.71506        6.26945      -18.47301
