290
PBB-F.sdf
C         13.95351       20.74480       -1.18181
C         13.06340       20.21256       -2.11995
C         12.68532       18.84778       -2.06291
C         13.15407       17.97556       -1.02647
C         13.94954       18.54207       -0.02525
C         14.38319       19.89921       -0.12215
C         14.27741       22.12526       -1.51326
C         13.59155       22.61577       -2.59560
S         12.56311       21.44286       -3.24721
C         12.99080       16.52792       -0.78997
C         13.44819       16.05077        0.42999
S         14.22154       17.35722        1.23794
C         11.75580       18.32636       -3.08704
C         15.32095       20.47522        0.86911
C         13.31923       14.69973        1.04195
C         14.01138       14.17315        2.12622
C         13.59998       12.83549        2.51558
C         12.57987       12.31061        1.73623
S         12.19540       13.49337        0.48875
C         15.30173       21.71143        1.50435
C         16.38327       21.86136        2.40476
C         17.17983       20.74922        2.48693
S         16.76441       19.63035        1.26749
C         18.27377       20.43152        3.45001
C         17.70178       19.82541        4.72684
C         11.71712       18.52176       -4.46142
C         10.71529       17.73411       -5.07932
C         10.02156       16.94734       -4.20393
S         10.39319       17.38473       -2.59766
C          9.06176       15.83920       -4.47819
C          9.81157       14.56441       -4.83776
C         12.06195       10.91455        1.70075
N         11.48211       10.12923        2.64569
C         11.34842        8.75915        2.17228
C         12.16083        8.63459        1.02715
S         12.38718       10.09085        0.21196
C         10.61814        7.47660        2.49762
C         10.39146        6.74141        1.26977
C         11.44219        6.64656        0.32934
C         12.59767        7.34445        0.72291
S          8.91091        6.40014        0.43809
C          9.71134        6.78832       -1.06016
N         11.01098        6.62711       -1.00776
C         10.90157        6.52959        3.69339
C         11.20394        6.71352        5.03658
C         11.68447        5.51156        5.72003
C         11.69634        4.38446        4.92276
S         10.80545        4.75373        3.48195
C         12.22871        2.96023        5.15591
C         13.47309        2.79887        6.04044
C         13.54786        6.85856        1.78008
C         13.84069        5.62922        2.34660
C         14.91340        5.69236        3.31328
C         15.51297        6.93209        3.29191
S         14.49359        8.07367        2.59450
C         16.89156        7.39960        3.59710
C         17.27418        7.48301        5.05064
C          9.03430        7.37438       -2.21685
S          7.33391        7.31342       -2.38169
C          7.30572        8.22408       -3.83939
C          8.58823        8.63325       -4.16687
C          9.57744        8.13323       -3.24639
F         16.55624       22.92789        3.13842
F         10.53229       17.71073       -6.37442
C          3.80923        8.00795       -5.27042
C          4.01820        9.27504       -5.81529
C          3.01259        9.88304       -6.61432
C          1.76534        9.22205       -6.90177
C          1.52442        8.00258       -6.26652
C          2.54580        7.39073       -5.48776
C          4.98966        7.54307       -4.57530
C          6.03703        8.43608       -4.52008
S          5.60021        9.86465       -5.33106
C          0.63273        9.54233       -7.80393
C         -0.49031        8.72656       -7.70896
S         -0.11749        7.48181       -6.57876
C          3.24702       11.23254       -7.15865
C          2.37645        6.03630       -4.94714
C         -1.82184        8.82101       -8.38050
C         -2.82004        7.85521       -8.45286
C         -4.03102        8.27526       -9.13819
C         -3.98693        9.57481       -9.61715
S         -2.39633       10.23460       -9.21886
C          2.63398        5.52382       -3.67836
C          2.35753        4.13547       -3.60483
C          1.88091        3.60295       -4.77635
S          1.95087        4.76650       -6.02681
C          1.34957        2.24676       -5.07699
C         -0.12986        2.16255       -4.73044
C          4.38393       11.82724       -7.69678
C          4.09851       13.08501       -8.26882
C          2.77079       13.42027       -8.19927
S          1.97719       12.40311       -7.08630
C          2.00996       14.47112       -8.92875
C          1.63833       13.98256      -10.32607
C         -4.94791       10.26714      -10.52753
N         -6.29017       10.45793      -10.44964
C         -6.81760       11.03091      -11.68215
C         -5.80042       10.96006      -12.65702
S         -4.25003       10.80996      -12.01518
C         -8.06685       11.73075      -12.18565
C         -7.66317       12.70681      -13.16971
C         -6.70785       12.35504      -14.14223
C         -6.22242       11.03710      -13.98557
S         -7.73617       14.44198      -13.09591
C         -6.14127       14.50175      -13.80698
N         -5.85409       13.40868      -14.52487
C         -9.40021       11.03229      -12.60842
C        -10.14601        9.96198      -12.12709
C        -11.16023        9.45348      -13.06225
C        -11.24633       10.17872      -14.23621
S        -10.35005       11.65492      -13.99396
C        -11.97952        9.96865      -15.57537
C        -12.52563        8.58589      -15.95823
C         -7.00749        9.80007      -14.34121
C         -8.05418        9.50338      -15.20136
C         -8.39460        8.09812      -15.22542
C         -7.45032        7.37736      -14.53663
S         -6.66075        8.35508      -13.41730
C         -6.90508        6.00553      -14.68655
C         -5.59102        6.12916      -15.47845
C         -5.15224       15.52909      -13.48210
S         -5.60489       17.03881      -12.81710
C         -3.98642       17.56496      -12.53235
C         -3.09617       16.60082      -12.97923
C         -3.74680       15.45823      -13.56155
F          2.50025        3.43979       -2.50881
F          4.98857       13.78914       -8.91329
C         -4.13542       21.16846      -11.26679
C         -2.96360       20.90672      -10.55242
C         -2.38025       21.95382       -9.77681
C         -2.88288       23.28614       -9.73991
C         -4.10317       23.51587      -10.37863
C         -4.72100       22.46797      -11.14180
C         -4.52836       19.99849      -12.04520
C         -3.75050       18.87062      -11.91545
S         -2.49671       19.21591      -10.79768
C         -2.36947       24.56736       -9.17539
C         -3.16464       25.71049       -9.32128
S         -4.63720       25.17669      -10.04419
C         -1.11752       21.61243       -9.04043
C         -5.95747       22.70031      -11.89096
C         -2.83293       27.14507       -8.91619
C         -1.78875       27.55461       -8.09244
C         -1.62768       29.00623       -7.91698
C         -2.54220       29.80559       -8.59711
S         -3.66340       28.61571       -9.41600
C         -7.10279       21.91831      -12.01586
C         -8.06364       22.51622      -12.86727
C         -7.67956       23.74599      -13.33477
S         -6.04614       24.04751      -12.95426
C         -8.46488       24.77819      -14.06713
C         -9.22054       25.66082      -13.08287
C         -0.01443       20.85409       -9.40517
C          1.00202       20.88837       -8.42798
C          0.69638       21.68423       -7.35521
S         -0.94836       22.13634       -7.40414
C          1.58273       22.17121       -6.25901
C          2.39274       23.37440       -6.73248
C         -2.83424       31.32776       -8.48203
N         -2.10972       32.52072       -8.42203
C         -2.96071       33.69638       -7.92636
C         -4.00106       32.99274       -7.28994
S         -4.50938       31.64800       -8.19367
C         -3.16127       35.25754       -7.73426
C         -4.58986       35.49505       -7.64375
C         -5.37439       34.69451       -6.80132
C         -4.67160       33.62047       -6.26119
S         -5.65243       36.17789       -8.86902
C         -6.82135       34.97487       -8.47339
N         -6.69525       34.53995       -7.23580
C         -2.47077       36.70672       -7.77391
C         -2.66690       37.75791       -8.69442
C         -2.47375       39.14004       -8.23214
C         -2.03370       39.25701       -6.93160
S         -1.99636       37.61160       -6.25380
C         -1.52009       40.54232       -6.16161
C         -2.09422       41.96351       -6.43644
C         -3.88484       33.58605       -5.02502
C         -2.99821       34.41317       -4.35730
C         -2.70473       33.92069       -3.03952
C         -3.29383       32.69060       -2.82630
S         -3.84489       32.02455       -4.28886
C         -3.59530       31.93450       -1.57580
C         -2.73146       30.71743       -1.33864
C         -7.75638       34.38320       -9.41887
S         -8.50805       32.86778       -9.04596
C         -9.31164       32.78608      -10.55004
C         -9.02994       33.89042      -11.34432
C         -8.12061       34.78425      -10.69693
F         -9.22614       21.97991      -13.12161
F          2.15773       20.29876       -8.58096
H         14.97402       22.75075       -0.96979
H         13.65322       23.60923       -3.02393
H         12.49861       15.87669       -1.50080
H         14.80077       14.71396        2.63846
H         14.08686       12.27879        3.30898
H         14.54221       22.46858        1.35797
H         18.83996       21.33735        3.69139
H         18.98164       19.72249        3.00475
H         17.04967       20.53706        5.24542
H         18.50822       19.54097        5.40881
H         17.10830       18.92857        4.51278
H         12.39411       19.15722       -5.01730
H          8.39622       16.12251       -5.30197
H          8.42979       15.65062       -3.60204
H         10.38950       14.67895       -5.75421
H          9.10044       13.73606       -4.98526
H         10.50366       14.26353       -4.03941
H         11.16687        7.67867        5.52126
H         12.05224        5.50960        6.74015
H         12.49148        2.52064        4.18341
H         11.43706        2.32545        5.57457
H         14.22612        3.57391        5.87582
H         13.95736        1.83056        5.83465
H         13.21761        2.78211        7.10626
H         13.33431        4.70859        2.08558
H         15.31312        4.82667        3.82720
H         17.03657        8.40068        3.16386
H         17.57974        6.74593        3.05331
H         16.66210        8.21189        5.59143
H         18.31674        7.81699        5.10819
H         17.19448        6.51394        5.54651
H          8.81400        9.25301       -5.02860
H         10.65336        8.35216       -3.32983
H          5.05467        6.57167       -4.10055
H          0.65659       10.38105       -8.48907
H         -2.70403        6.86018       -8.03636
H         -4.87158        7.61165       -9.30910
H          3.00098        6.10685       -2.84176
H          1.91055        1.48760       -4.52048
H          1.47906        2.01250       -6.14241
H         -0.29022        2.29393       -3.65501
H         -0.53366        1.18810       -5.02043
H         -0.70791        2.93562       -5.24925
H          5.36036       11.36293       -7.74687
H          2.60829       15.38531       -9.00292
H          1.09083       14.72799       -8.38834
H          2.53425       13.77630      -10.92472
H          1.04503       14.73593      -10.84971
H          1.05200       13.05599      -10.28525
H         -9.93169        9.47301      -11.18679
H        -11.73330        8.55023      -12.88227
H        -11.26786       10.22430      -16.37356
H        -12.80734       10.68353      -15.66485
H        -11.84895        7.75989      -15.72493
H        -12.69677        8.55254      -17.04827
H        -13.50315        8.38191      -15.50670
H         -8.56634       10.24017      -15.80511
H         -9.15057        7.66231      -15.86663
H         -7.60561        5.33653      -15.19322
H         -6.69372        5.56965      -13.70039
H         -5.74011        5.81989      -16.51380
H         -4.80452        5.51987      -15.02768
H         -5.20523        7.16042      -15.51928
H         -2.02556       16.67663      -12.91693
H         -3.24962       14.56957      -13.93822
H         -5.38262       19.99095      -12.71000
H         -1.39501       24.62360       -8.71438
H         -1.13719       26.83824       -7.60284
H         -0.87725       29.41764       -7.25363
H         -7.25906       20.96487      -11.52174
H         -9.16763       24.30115      -14.75827
H         -7.79974       25.40648      -14.67201
H         -9.95905       25.07884      -12.51740
H         -9.74668       26.46082      -13.60978
H         -8.54236       26.12327      -12.35456
H          0.09728       20.33841      -10.34891
H          2.25813       21.37156       -5.94004
H          0.98964       22.46128       -5.38410
H          3.05271       23.10581       -7.56528
H          3.01202       23.76034       -5.91794
H          1.74095       24.18574       -7.07794
H         -3.07096       37.58196       -9.68099
H         -2.64781       40.01230       -8.85666
H         -0.45412       40.63332       -6.41313
H         -1.56954       40.39595       -5.07540
H         -2.21134       42.21396       -7.49529
H         -1.40179       42.72734       -6.03009
H         -3.04430       42.16028       -5.92343
H         -2.64044       35.36686       -4.71748
H         -2.17689       34.49297       -2.28239
H         -4.64156       31.60758       -1.64764
H         -3.55139       32.61866       -0.72322
H         -2.93220       29.93340       -2.07784
H         -2.96868       30.30200       -0.35394
H         -1.66494       30.95309       -1.37135
H         -9.95085       31.94471      -10.78447
H         -9.43856       34.00757      -12.33241
H         -7.76081       35.68672      -11.17555
