290
PBDB-BzT.sdf
C          1.16942        8.50438       -4.56838
C          0.08810        9.42322       -4.51862
C         -0.16077       10.08012       -3.30173
C          0.54457        9.73015       -2.12093
C          1.59954        8.77331       -2.16438
C          1.93117        8.22436       -3.40863
C         -0.88461        9.82476       -5.51457
C         -1.71065       10.84157       -5.11775
S         -1.35567       11.32879       -3.54103
C          2.44465        8.19901       -1.12322
C          3.45090        7.38250       -1.59010
S          3.36528        7.25521       -3.27389
C          1.51450        7.81274       -5.83873
C          0.24719       10.38786       -0.82059
C          1.92774        6.50406       -6.03357
C          2.24751        6.17576       -7.38889
C          1.93029        7.22680       -8.24156
S          1.52792        8.63594       -7.34904
C          1.12800       10.78903        0.17097
C          0.50157       11.34864        1.33222
C         -0.86823       11.49025        1.13959
S         -1.36351       10.69703       -0.29751
C          4.50099        6.71588       -0.85774
C          4.95233        5.41906       -1.01514
C          6.02671        5.09503       -0.12706
C          6.38544        6.15320        0.68901
S          5.45148        7.54779        0.29460
C          7.44496        6.20433        1.68321
S          8.94910        5.45001        1.38613
C          9.68570        6.01636        2.85417
C          8.79593        6.84423        3.53543
C          7.44952        6.74844        2.95507
C          9.04149        7.65799        4.75728
C          7.84313        7.73677        5.60748
C          6.54822        7.34559        5.10813
C          6.26556        7.16792        3.69485
C          7.69329        8.25308        6.88662
S          6.23449        7.66032        7.60450
C          5.69828        6.99807        6.12675
C         11.03149        5.54314        3.17627
C         11.94118        4.96843        2.30203
C         13.17039        4.59516        2.92143
S         11.67860        5.50719        4.77048
O         10.10189        8.20850        5.02095
O          5.14139        7.30668        3.23715
C          8.54953        9.20289        7.67664
C          9.49187        8.52414        8.65328
C          4.50093        6.09532        6.03633
C          3.19602        6.82932        5.79701
C         13.20272        4.87490        4.27487
C          2.77513        4.98859       -7.94616
C          2.90219        4.84443       -9.33547
C          2.48321        5.88191      -10.16859
C          1.99820        7.08251       -9.63856
C          3.49893        3.58355       -9.90657
C          5.00802        3.68898      -10.07431
C          1.05548       11.78000        2.55952
C          0.25435       12.40192        3.52976
C         -1.09699       12.61969        3.26110
C         -1.67629       12.16757        2.07113
C          0.85416       12.80462        4.85272
C          0.73335       11.69891        5.89211
C         16.13323        4.83622        8.50231
C         15.68737        4.72601        7.15658
C         16.61409        4.30122        6.19409
C         17.98726        4.13508        6.51752
C         18.43886        4.28766        7.85982
C         17.48355        4.57122        8.84059
C         14.40614        5.01540        6.52759
C         14.31941        4.69143        5.19093
S         15.79150        3.99598        4.69408
C         19.76838        4.22448        8.45903
C         19.78817        4.26205        9.83822
S         18.20744        4.49043       10.41540
C         15.19122        5.24365        9.57784
C         18.98871        3.74848        5.48740
C         15.41474        6.07511       10.66442
C         14.29374        6.22098       11.54329
C         13.17399        5.57681       11.02904
S         13.59038        4.62138        9.66541
C         20.06605        2.88369        5.60352
C         20.89119        2.79938        4.43392
C         20.33180        3.51243        3.37928
S         18.99365        4.44327        3.91341
C         20.91143        4.11724       10.75079
C         20.95616        4.42891       12.09950
C         22.22465        4.15798       12.70157
C         23.14130        3.63647       11.80844
S         22.40607        3.42414       10.26454
C         24.50361        3.20468       12.07607
S         24.87829        2.38667       13.53282
C         26.53335        2.09743       13.10613
C         26.76353        2.53535       11.80367
C         25.66493        3.39070       11.34640
C         27.97911        2.33446       10.97814
C         28.23550        3.48722       10.10354
C         27.24102        4.50167        9.89593
C         25.83778        4.33937       10.25112
C         29.34438        3.75068        9.31300
S         29.38043        5.42203        8.87819
C         27.82321        5.69471        9.51961
C         27.42305        1.51917       14.10905
C         27.05402        0.82883       15.25282
C         28.16331        0.40999       16.04489
S         29.13184        1.73717       14.09905
O         28.68110        1.33291       11.01125
O         24.94752        4.98477        9.71827
C         30.43662        2.84408        8.81915
C         31.68710        2.86232        9.67663
C         27.26557        7.07570        9.70630
C         26.52918        7.61088        8.49659
C         29.37969        0.79307       15.51281
C         14.16883        6.91990       12.76670
C         12.92507        7.02863       13.40680
C         11.80334        6.44521       12.81744
C         11.91023        5.71136       11.63103
C         12.81601        7.76469       14.71812
C         13.00806        6.84317       15.91392
C         22.10585        2.10887        4.20967
C         22.69431        2.08394        2.93528
C         22.05820        2.73571        1.87894
C         20.87744        3.45711        2.08362
C         24.00422        1.36780        2.72379
C         25.20206        2.28556        2.92282
C         34.40498        0.91742       16.57673
C         33.04783        0.51397       16.46214
C         32.69442       -0.73351       16.99605
C         33.67276       -1.62669       17.50649
C         35.04395       -1.24961       17.54310
C         35.37004        0.05087       17.14613
C         31.88859        1.14724       15.84966
C         30.70157        0.46708       16.01405
S         30.96923       -0.92124       16.95716
C         36.25287       -1.97373       17.90953
C         37.38467       -1.19337       18.01318
S         37.03147        0.38567       17.51282
C         34.84676        2.25722       16.10936
C         33.25693       -2.96448       18.00835
C         36.01902        2.60824       15.45677
C         36.20634        4.01779       15.28899
C         35.06995        4.71735       15.68015
S         33.93381        3.67529       16.43720
C         32.28687       -3.82996       17.52661
C         32.15646       -5.05076       18.26762
C         33.12595       -5.13412       19.26052
S         33.94257       -3.63767       19.43841
C         38.70283       -1.54891       18.49880
C         39.88609       -0.84704       18.34416
C         40.99570       -1.46640       18.99667
C         40.64496       -2.63320       19.64725
S         38.96099       -2.93261       19.47634
C         41.47618       -3.47963       20.47730
S         42.62266       -2.78153       21.53888
C         43.05413       -4.28788       22.26696
C         42.25520       -5.30563       21.75740
C         41.55357       -4.85674       20.55686
C         42.18548       -6.72143       22.21410
C         41.99010       -7.63169       21.07331
C         41.57836       -7.13923       19.79595
C         41.03675       -5.80483       19.57494
C         42.08545       -9.01214       21.05445
S         42.24219       -9.56885       19.42667
C         41.94969       -8.01187       18.79328
C         44.16613       -4.32062       23.20299
C         44.71704       -3.25475       23.90145
C         45.82313       -3.62625       24.72018
S         45.10176       -5.74057       23.47547
O         42.25320       -7.08051       23.37080
O         40.30124       -5.53588       18.63548
C         42.07007      -10.01713       22.17369
C         43.45033      -10.45362       22.62775
C         42.18381       -7.68621       17.34143
C         40.98955       -7.94468       16.45500
C         46.11430       -4.96400       24.60721
C         37.31179        4.74745       14.78947
C         37.23907        6.13919       14.62562
C         36.05372        6.79941       14.94920
C         34.96068        6.10498       15.47959
C         38.43421        6.90273       14.11248
C         39.33401        7.39716       15.23616
C         31.25651       -6.13110       18.11497
C         31.37754       -7.28193       18.90944
C         32.43904       -7.38113       19.80857
C         33.31719       -6.31126       20.00551
C         30.37107       -8.39594       18.77934
C         30.73863       -9.38563       17.68743
H         -0.96339        9.40798       -6.51165
H         -2.48795       11.32751       -5.69160
H          2.32513        8.40161       -0.06460
H          2.02782        5.78321       -5.23240
H          2.20221       10.68130        0.09065
H          4.53472        4.72383       -1.73463
H          6.50736        4.12412       -0.10256
H         11.75660        4.82312        1.24414
H         13.99790        4.16042        2.37316
H          7.89614        9.88446        8.23881
H          9.11900        9.84336        6.99425
H          8.94775        7.90888        9.37543
H         10.04650        9.28427        9.21521
H         10.21380        7.89039        8.13216
H          4.42259        5.47552        6.93717
H          4.66143        5.38749        5.21158
H          2.92183        7.43410        6.66574
H          2.39750        6.10449        5.61582
H          3.25075        7.48983        4.92761
H          3.08495        4.18431       -7.28294
H          2.54651        5.77499      -11.24962
H          1.69127        7.89162      -10.29480
H          3.03166        3.35832      -10.87214
H          3.26287        2.73779       -9.24923
H          5.27661        4.48956      -10.77175
H          5.40936        2.74905      -10.46673
H          5.50391        3.89539       -9.11949
H          2.11382       11.61639        2.74884
H         -1.72503       13.12896        3.98952
H         -2.73395       12.32339        1.87837
H          0.36499       13.71484        5.21871
H          1.91117       13.06127        4.71254
H         -0.31514       11.45673        6.09652
H          1.19763       12.01330        6.83231
H          1.23062       10.78093        5.55986
H         13.56783        5.45188        7.05351
H         20.67845        4.11228        7.88246
H         16.35807        6.57167       10.85298
H         20.29042        2.33153        6.50746
H         20.11624        4.83621       12.65018
H         22.43735        4.33937       13.74866
H         26.02746        0.61321       15.52483
H         28.05802       -0.16052       16.96042
H         30.70683        3.13299        7.79435
H         30.05768        1.81818        8.74152
H         32.12683        3.86374        9.72243
H         32.43840        2.18940        9.24660
H         31.47713        2.53094       10.69665
H         28.06576        7.76801        9.99448
H         26.57565        7.06027       10.56126
H         27.21559        7.78453        7.66472
H         26.05236        8.56352        8.75198
H         25.74714        6.92510        8.15770
H         15.05088        7.37930       13.20692
H         10.82605        6.54311       13.28592
H         11.03350        5.24845       11.18763
H         11.83965        8.25886       14.78300
H         13.56455        8.56581       14.75056
H         12.24022        6.06281       15.94332
H         12.94373        7.41653       16.84445
H         13.98645        6.35121       15.88735
H         22.58529        1.59697        5.04081
H         22.48586        2.70385        0.87864
H         20.39838        3.97538        1.25790
H         24.03035        0.93786        1.71555
H         24.07353        0.52087        3.41715
H         25.19388        3.11379        2.20622
H         26.13224        1.72551        2.78152
H         25.21549        2.71370        3.93103
H         31.93183        2.08444       15.31033
H         36.27174       -3.02879       18.15397
H         36.76812        1.88960       15.14815
H         31.67351       -3.62108       16.65981
H         39.96419        0.08771       17.80167
H         41.99616       -1.04946       18.99922
H         44.34556       -2.23821       23.84127
H         46.37162       -2.94595       25.36011
H         41.50739      -10.90343       21.85472
H         41.51350       -9.61143       23.02686
H         44.00559      -10.93254       21.81628
H         43.35718      -11.18112       23.44194
H         44.03635       -9.60610       22.99436
H         43.05771       -8.23519       16.97244
H         42.45953       -6.62353       17.26821
H         40.77331       -9.01479       16.39123
H         41.19835       -7.57689       15.44506
H         40.09224       -7.43603       16.81935
H         46.88722       -5.51996       25.11961
H         38.22661        4.21622       14.53616
H         35.96989        7.87467       14.80457
H         34.04841        6.63175       15.74329
H         38.09523        7.75303       13.50899
H         39.01389        6.26287       13.43598
H         38.80062        8.08333       15.90255
H         40.19515        7.93102       14.82067
H         39.71232        6.56631       15.84149
H         30.45752       -6.05653       17.38093
H         32.57929       -8.28826       20.39307
H         34.12096       -6.38339       20.73251
H         29.38252       -7.96703       18.57225
H         30.27483       -8.91883       19.73877
H         30.81414       -8.89325       16.71222
H         29.97347      -10.16514       17.61526
H         31.69834       -9.86893       17.89748
