254
PBDB-TF.sdf
C         16.97403       -3.15769       -2.89082
C         17.80079       -2.48063       -3.81529
C         17.56631       -1.12369       -4.04937
C         16.43523       -0.46522       -3.45991
C         15.62682       -1.14924       -2.53932
C         15.95812       -2.45950       -2.19720
C         18.90790       -2.94948       -4.63486
C         19.51899       -1.96306       -5.37840
S         18.81123       -0.45423       -5.08130
C         14.41279       -0.74885       -1.86313
C         13.97582       -1.63499       -0.90990
S         15.00737       -2.97233       -0.82476
C         17.19125       -4.60664       -2.64434
C         16.13863        0.95645       -3.75919
C         18.35985       -5.36011       -2.58671
C         18.11534       -6.71470       -2.25216
C         16.80120       -6.98184       -1.97485
S         15.83380       -5.67268       -2.47011
C         15.68103        1.96511       -2.91890
C         15.64884        3.22768       -3.55861
C         16.11519        3.19807       -4.84754
S         16.24758        1.57859       -5.37108
C         16.17378       -8.20339       -1.39156
C         16.23870       -8.19394        0.13177
C         16.44429        4.32249       -5.77538
C         17.83913        4.88327       -5.51844
C         12.85359       -1.47424       -0.02965
C         12.02645       -2.43809        0.50266
C         11.04868       -1.88611        1.38340
C         11.09673       -0.50887        1.44094
S         12.39976        0.08145        0.48895
C         10.24023        0.41630        2.14596
S         10.93126        1.81843        2.80244
C          9.44331        2.44405        3.39725
C          8.38129        1.61442        3.04996
C          8.89767        0.36198        2.46458
C          6.91258        1.79833        3.27703
C          6.23113        0.50055        3.50753
C          6.88540       -0.73677        3.15493
C          8.03376       -0.78920        2.27102
C          4.94211        0.20175        3.93847
S          4.86167       -1.43818        4.49843
C          6.40334       -1.80347        3.88296
C          9.61389        3.59932        4.24485
C         10.60412        4.56399        4.10557
C         10.82321        5.30407        5.29365
S          8.82686        3.75804        5.75297
O          6.34543        2.88076        3.23433
O          8.21051       -1.69767        1.47307
C          3.66454        0.99275        3.98977
C          3.32161        1.53537        5.36411
C          7.08760       -3.09952        4.20648
C          6.76313       -4.22614        3.24887
C          8.21021        6.82019       10.68898
C          9.06344        6.41242        9.63458
C         10.42168        6.75589        9.70770
C         10.91191        7.55971       10.75203
C         10.04150        8.01395       11.77515
C          8.72417        7.54400       11.78275
C          8.79305        5.69982        8.40998
C          9.89219        5.51417        7.61180
S         11.29367        6.04978        8.39645
C         10.24291        8.95594       12.84564
C          9.22040        8.96841       13.77318
S          7.97159        7.94802       13.30112
C          6.76374        6.51030       10.60838
C         12.35074        7.91708       10.81778
C          6.09452        5.39635       10.11967
C          4.69276        5.48870       10.29657
C          4.30035        6.61522       10.96863
S          5.59855        7.71136       11.05877
C         13.26624        8.23680        9.82335
C         14.52928        8.60357       10.35103
C         14.56392        8.62376       11.72036
S         13.17659        7.85321       12.33996
C          2.96754        6.98015       11.53180
C          2.76674        6.38482       12.92213
C         15.61392        9.13421       12.65026
C         15.49694       10.63821       12.86775
C          9.93396        4.95907        6.28857
C          9.22186        9.67727       15.01793
C          8.15382       10.26125       15.66814
C          8.54631       10.82566       16.92855
C          9.89522       10.71044       17.16551
S         10.66470        9.87479       15.89133
C         10.67742       11.22686       18.26791
S         11.97045       10.31579       18.88677
C         12.48672       11.55247       19.96002
C         11.64017       12.65074       19.90638
C         10.51571       12.38461       19.00197
C         11.72906       13.93493       20.66306
C         10.38457       14.49302       20.92619
C          9.24258       14.02524       20.17302
C          9.38071       13.28707       18.94641
C          9.96702       15.52869       21.75531
S          8.26254       15.40708       22.05088
C          8.06471       14.20597       20.86521
C         13.61793       11.26781       20.80206
C         13.72872       11.45039       22.16379
C         14.99741       11.02853       22.65767
S         15.02161       10.51458       20.16100
O         12.77319       14.44165       21.04517
O          8.63525       13.44190       17.98334
C         10.68360       16.68763       22.39319
C         11.01442       16.48349       23.86159
C          6.77310       13.45383       20.72192
C          5.77752       14.11902       19.79531
C         20.60746        9.00627       20.73382
C         19.35598        9.25968       21.35519
C         19.20498        8.89686       22.69967
C         20.22057        8.21915       23.39067
C         21.45288        7.93187       22.75882
C         21.66798        8.42752       21.46994
C         18.12155        9.83105       20.86080
C         17.13576        9.96496       21.81334
S         17.68070        9.41208       23.31026
C         22.58280        7.14505       23.18209
C         23.69437        7.27925       22.39031
S         23.34989        8.24927       21.05010
C         20.77598        9.30358       19.29146
C         20.01898        7.82537       24.80396
C         20.29815       10.34542       18.50880
C         20.69769       10.23086       17.15309
C         21.52556        9.16685       16.91058
S         21.58680        8.15702       18.27767
C         18.89657        7.36525       25.48258
C         19.19894        6.95845       26.80234
C         20.53209        7.04977       27.09618
S         21.30690        8.03275       25.94073
C         22.26612        8.78353       15.67220
C         23.59887        9.51269       15.55653
C         21.30456        6.47459       28.22966
C         21.53786        7.49459       29.32428
C         15.80783       10.49680       21.67137
C         24.99854        6.73707       22.64608
C         25.92514        6.27381       21.73984
C         27.12671        5.83893       22.37360
C         27.06081        5.88458       23.75275
S         25.58087        6.60321       24.24736
C         27.99506        5.37744       24.73716
S         28.25191        6.22048       26.20071
C         29.17465        4.95172       26.91636
C         29.39946        3.92856       26.00182
C         28.81941        4.26845       24.69635
C         30.13644        2.63982       26.19157
C         30.79184        2.20416       24.93555
C         30.35941        2.75193       23.67332
C         29.09885        3.45343       23.52592
C         31.74487        1.22284       24.67953
S         32.49030        1.50156       23.13755
C         31.34800        2.68768       22.71765
C         29.63331        5.14428       28.27529
C         30.89305        4.91612       28.79601
C         30.97029        5.20491       30.19452
C         29.78456        5.69361       30.69111
S         28.59074        5.80868       29.48267
O         30.19682        2.02807       27.24870
O         28.38816        3.32306       22.54112
C         32.21427        0.01364       25.44083
C         33.52601        0.20325       26.17377
C         31.52689        3.54799       21.50196
C         30.94653        2.95847       20.23434
F         19.06821       -7.60091       -2.14816
F         15.29182        4.32244       -2.94619
F          3.86737        4.55059        9.91894
F         15.53700        8.95436        9.59868
F         18.31184        6.44511       27.61033
F         20.33818       11.08526       16.23362
H         19.26683       -3.96377       -4.68040
H         20.34341       -2.05977       -6.05523
H         13.89107        0.17923       -2.05627
H         19.35274       -4.96901       -2.74996
H         15.42744        1.82951       -1.87715
H         16.68123       -9.09616       -1.77388
H         15.12375       -8.27794       -1.69716
H         17.27292       -8.15248        0.49149
H         15.77742       -9.10325        0.53269
H         15.70486       -7.33388        0.55413
H         15.70939        5.12806       -5.66554
H         16.38601        3.98427       -6.81992
H         17.93465        5.26775       -4.49845
H         18.04233        5.70737       -6.20989
H         18.61333        4.12173       -5.66424
H         12.10408       -3.49611        0.28188
H         10.32878       -2.49567        1.91212
H         11.25237        4.65097        3.24037
H         11.61619        6.03485        5.41225
H          2.84088        0.33094        3.67835
H          3.67952        1.79988        3.25063
H          3.30589        0.74677        6.12372
H          2.32462        1.98915        5.34437
H          4.04013        2.29888        5.67631
H          6.83847       -3.40664        5.22981
H          8.17561       -2.93338        4.20982
H          5.71055       -4.51521        3.32187
H          7.37319       -5.10293        3.49395
H          6.96990       -3.95205        2.20978
H          7.81197        5.37760        8.09237
H         11.13116        9.54334       12.98006
H          6.57301        4.53180        9.68082
H         13.05220        8.24470        8.76319
H          2.17722        6.62840       10.86311
H          2.86702        8.07077       11.60057
H          2.82838        5.29133       12.90305
H          1.78146        6.66254       13.31023
H          3.52069        6.74793       13.62987
H         16.60541        8.89682       12.25189
H         15.53323        8.63540       13.62432
H         15.60835       11.19115       11.92858
H         16.27795       10.97852       13.55565
H         14.52707       10.91070       13.30186
H          7.15281       10.30664       15.27471
H          7.83137       11.30950       17.58638
H         12.94826       11.86452       22.78848
H         15.29636       11.11938       23.69506
H         10.03439       17.57019       22.31610
H         11.58531       16.93935       21.82738
H         10.12704       16.23069       24.44930
H         11.42435       17.41250       24.27513
H         11.75319       15.69225       23.99370
H          6.31709       13.31251       21.70877
H          6.98979       12.44346       20.35273
H          5.43342       15.07169       20.20731
H          4.90427       13.46949       19.66832
H          6.20622       14.30643       18.80724
H         17.96959       10.15677       19.84075
H         22.60510        6.54831       24.08485
H         19.69120       11.16218       18.87518
H         17.90932        7.25825       25.05504
H         21.64912        8.99982       14.79392
H         22.45864        7.70350       15.66437
H         23.45996       10.59807       15.51253
H         24.11845        9.19927       14.64522
H         24.25427        9.29381       16.40775
H         22.26892        6.09809       27.86237
H         20.77361        5.60391       28.63252
H         22.09433        8.35958       28.94750
H         22.11627        7.04693       30.13650
H         20.58669        7.85533       29.72763
H         25.75737        6.23259       20.67023
H         27.96612        5.45115       21.81292
H         31.72873        4.54841       28.21412
H         31.85083        5.05821       30.80735
H         29.55523        5.98919       31.70603
H         32.35437       -0.80767       24.71569
H         31.43588       -0.33785       26.12392
H         34.32061        0.56251       25.51132
H         33.85800       -0.75490       26.59070
H         33.41829        0.91523       26.99761
H         32.59327        3.75924       21.35288
H         31.05873        4.52317       21.69066
H         31.48848        2.05702       19.93475
H         31.02901        3.68798       19.42108
H         29.88998        2.70217       20.35191
