206
PBDD4T-2F.sdf
C         -1.95321        0.79168       -3.40713
C         -1.75844        0.73282       -4.77227
C         -1.53933       -0.62279       -5.19705
C         -1.51922       -1.52961       -4.15250
S         -1.74478       -0.72188       -2.65158
C         -1.74763        1.92640       -5.67972
C         -0.34574        2.50512       -5.82097
C         -1.23806       -2.94929       -4.19835
S         -0.00946       -3.56013       -5.22367
C         -0.13952       -5.17874       -4.62162
C         -1.01772       -5.20015       -3.54508
C         -1.84906       -3.99908       -3.53913
C         -1.26957       -6.31204       -2.60739
C         -2.68703       -6.39982       -2.24928
C         -3.59526       -5.32012       -2.52674
C         -3.16088       -3.96732       -2.89688
C         -3.34150       -7.43164       -1.60173
S         -5.04595       -7.28375       -1.80216
C         -4.90146       -5.76597       -2.57164
O         -3.86520       -2.98344       -2.75139
O         -0.39861       -7.05298       -2.17172
C         -6.06587       -5.12020       -3.26721
C         -6.93746       -4.28146       -2.35767
C         -2.78483       -8.59488       -0.82422
C         -2.58063       -9.84505       -1.65970
C          0.57100       -6.25602       -5.30232
C          1.61695       -6.13435       -6.19988
C          2.05174       -7.37487       -6.79297
C          1.28189       -8.44184       -6.32653
S          0.08919       -7.89768       -5.21304
C          3.15807       -7.46977       -7.82121
C          4.24159       -6.40709       -7.73518
C          1.35509       -9.84166       -6.73008
S          0.99601      -11.16505       -5.67565
C          1.31360      -12.35199       -6.88094
C          1.70831      -11.72625       -8.04099
C          1.70958      -10.31819       -7.97866
F          2.01900      -12.35831       -9.14179
C          1.17174      -13.77950       -6.69032
C          1.87551      -14.76913       -7.33807
C          1.42756      -16.08022       -7.06781
C          0.39006      -16.10806       -6.15033
S          0.01332      -14.50127       -5.64488
F          2.86618      -14.54001       -8.15937
C         -0.25643      -17.29564       -5.60458
C         -1.55113      -17.50496       -5.13311
C         -1.68001      -18.81967       -4.53750
C         -0.55584      -19.61078       -4.65850
S          0.63933      -18.77163       -5.54649
C         -2.72397      -16.55647       -5.18656
C         -3.21427      -16.28907       -6.60448
C         -0.36530      -20.98977       -4.23525
S         -1.64581      -22.12628       -4.37034
C         -0.70464      -23.46381       -3.80153
C          0.62589      -23.06392       -3.66787
C          0.73170      -21.60205       -3.65129
C          1.80511      -23.92105       -3.39761
C          2.78547      -23.24976       -2.53761
C          2.70980      -21.83752       -2.27613
C          1.87830      -20.92019       -3.04801
C          3.90619      -23.78848       -1.92085
S          4.45192      -22.74721       -0.65711
C          3.36238      -21.51150       -1.10433
O          2.10993      -19.72135       -3.10104
O          1.93084      -25.06364       -3.81806
C          3.13553      -20.30764       -0.23483
C          4.11056      -19.17841       -0.48701
C          4.65193      -25.06873       -2.17959
C          4.21038      -26.22889       -1.30608
C         -1.34407      -24.73864       -3.44883
C         -0.85419      -25.71232       -2.59677
C         -1.74518      -26.82689       -2.35955
C         -2.95674      -26.65030       -3.03040
S         -2.92529      -25.19522       -3.95944
C         -1.41393      -28.00352       -1.46671
C         -0.06238      -27.97451       -0.77339
C         -4.15878      -27.48962       -2.99694
S         -4.09634      -29.21180       -2.89505
C         -5.79870      -29.40184       -2.73192
C         -6.39347      -28.16618       -2.87239
C         -5.48280      -27.08262       -3.03762
F         -7.68454      -27.97202       -2.81976
C         -6.40070      -30.70169       -2.49452
C         -5.88994      -31.76920       -1.78940
C         -6.71462      -32.92319       -1.78360
C         -7.90856      -32.73129       -2.46167
S         -7.97523      -31.11528       -3.06531
F         -4.72714      -31.75752       -1.18717
C         -9.01163      -33.68600       -2.60007
C         -9.96819      -33.84299       -3.60319
C        -10.96480      -34.82779       -3.22572
C        -10.72017      -35.45998       -2.02218
S         -9.21895      -34.91734       -1.39990
C        -10.05144      -33.12441       -4.92733
C         -8.90012      -33.45748       -5.86760
C        -11.50341      -36.51215       -1.38004
S        -12.26699      -37.71785       -2.33016
C        -12.90737      -38.59534       -0.97561
C        -12.42994      -38.03503        0.20656
C        -11.83363      -36.71155       -0.04779
C        -12.57943      -38.56012        1.58573
C        -12.71043      -37.47597        2.57405
C        -12.40184      -36.11204        2.22395
C        -11.66678      -35.73327        1.02387
C        -13.01712      -37.54635        3.92980
S        -13.49935      -35.99503        4.51194
C        -13.04292      -35.22327        3.06243
O        -11.04164      -34.68615        0.94808
O        -12.58473      -39.74795        1.88054
C        -13.39461      -33.79173        2.77521
C        -12.37712      -32.79606        3.28938
C        -12.98234      -38.69648        4.88770
C        -14.32204      -39.39492        5.06695
C        -13.83671      -39.69954       -1.23260
C        -14.04640      -40.34974       -2.43823
C        -15.05894      -41.37704       -2.41369
C        -15.61685      -41.48719       -1.13867
S        -14.95543      -40.29645       -0.08029
C        -15.43273      -42.22951       -3.60768
C        -14.68483      -41.95375       -4.90239
C        -16.64671      -42.41952       -0.68611
S        -16.70137      -43.05105        0.92355
C        -18.07775      -44.03667        0.61184
C        -18.46550      -43.87537       -0.69693
C        -17.68601      -42.95291       -1.42863
F        -19.48580      -44.48950       -1.23574
C        -18.70010      -44.88891        1.59598
C        -19.35953      -46.08486        1.36738
C        -19.94070      -46.65763        2.52674
C        -19.70614      -45.88215        3.63966
S        -18.78021      -44.48961        3.26722
F        -19.45332      -46.65631        0.19432
H         -2.16343        1.66650       -2.80568
H         -1.37602       -0.90670       -6.22898
H         -2.42171        2.69884       -5.28971
H         -2.12782        1.64398       -6.66802
H          0.04670        2.82943       -4.85025
H         -0.35217        3.36892       -6.49150
H          0.34838        1.76101       -6.22725
H         -6.67173       -5.88662       -3.76384
H         -5.68244       -4.48506       -4.07675
H         -7.43726       -4.90152       -1.60859
H         -7.70765       -3.77838       -2.95226
H         -6.35891       -3.51289       -1.83663
H         -3.45608       -8.83102        0.01289
H         -1.83383       -8.30552       -0.36208
H         -3.52804      -10.21211       -2.06727
H         -2.15450      -10.64063       -1.03819
H         -1.89652       -9.66302       -2.49377
H          2.05595       -5.17637       -6.45236
H          2.70297       -7.42671       -8.81880
H          3.66093       -8.43852       -7.72867
H          3.84103       -5.40078       -7.88925
H          4.99263       -6.58288       -8.51317
H          4.74563       -6.43642       -6.76426
H          1.95957       -9.69611       -8.82593
H          1.86217      -16.95967       -7.52512
H         -2.58935      -19.16179       -4.05662
H         -2.49207      -15.61812       -4.67484
H         -3.55920      -16.99848       -4.62729
H         -2.49937      -15.68771       -7.17385
H         -4.16220      -15.74141       -6.57875
H         -3.37715      -17.22234       -7.15448
H          3.16651      -20.59750        0.82264
H          2.11431      -19.93857       -0.40239
H          5.12359      -19.45763       -0.18513
H          3.81392      -18.29931        0.09709
H          4.13538      -18.88777       -1.54159
H          5.72567      -24.90043       -2.01987
H          4.55371      -25.34343       -3.23588
H          4.35409      -26.00857       -0.24473
H          4.79338      -27.11972       -1.54876
H          3.14975      -26.46082       -1.46446
H          0.11527      -25.63763       -2.12166
H         -1.43211      -28.91281       -2.07680
H         -2.19186      -28.09268       -0.69825
H          0.75548      -27.91103       -1.49846
H          0.07552      -28.89637       -0.19797
H          0.01611      -27.13011       -0.08211
H         -5.79751      -26.05110       -3.13303
H         -6.44178      -33.84505       -1.28696
H        -11.82727      -35.05498       -3.84235
H        -10.12925      -32.04349       -4.77841
H        -10.98205      -33.41943       -5.42985
H         -7.95490      -33.03059       -5.52064
H         -9.09940      -33.05188       -6.86527
H         -8.76108      -34.53987       -5.96314
H        -14.38569      -33.55876        3.18095
H        -13.49028      -33.66709        1.68718
H        -12.36098      -32.77955        4.38205
H        -12.63584      -31.79116        2.93640
H        -11.36594      -33.02357        2.93744
H        -12.61760      -38.35922        5.86676
H        -12.24601      -39.43488        4.54194
H        -15.08066      -38.70512        5.44464
H        -14.21678      -40.21298        5.79001
H        -14.68497      -39.81605        4.12417
H        -13.48701      -40.10363       -3.33276
H        -16.49263      -42.07400       -3.83037
H        -15.29415      -43.28475       -3.34199
H        -14.85317      -40.92697       -5.24469
H        -15.04520      -42.62660       -5.68829
H        -13.60846      -42.11238       -4.78955
H        -17.90249      -42.71092       -2.45704
H        -20.50411      -47.58195        2.53961
H        -20.03182      -46.06403        4.65525
