320
PBDS-TZ.sdf
C         10.46996       -8.03368       -2.04095
C          9.23672       -8.40808       -2.66394
C          8.25226       -7.42347       -2.81647
C          8.44937       -6.09799       -2.42041
C          9.67921       -5.72338       -1.78952
C         10.62710       -6.71363       -1.54630
C          8.80408       -9.67052       -3.21121
C          7.49488       -9.67307       -3.65152
S          6.78269       -8.16640       -3.45809
C         10.18983       -4.43485       -1.36469
C         11.45224       -4.46952       -0.81674
S         11.88333       -6.07786       -0.53591
C         11.53473       -9.06154       -1.84712
C          7.41666       -5.03697       -2.61527
C         11.38438      -10.40775       -1.57277
C         12.60570      -11.12458       -1.43125
C         13.72279      -10.32141       -1.57601
S         13.22427       -8.72396       -2.00682
C          7.09786       -3.96919       -1.79534
C          6.04848       -3.14374       -2.28776
C          5.51980       -3.60560       -3.48007
S          6.44177       -4.95030       -4.03295
Si        15.57951      -10.64637       -1.41859
C         15.89620      -12.40007       -2.04484
Si         4.09290       -3.06958       -4.58765
C          4.01013       -1.19243       -4.51025
C         12.28667       -3.34341       -0.45222
S         11.52836       -1.90610        0.11437
C         12.99476       -1.05066        0.25377
C         14.05430       -1.86341       -0.10402
C         13.67115       -3.19766       -0.50481
C         13.08236        0.32982        0.68697
C         14.71521       -4.22440       -0.88452
C         15.06128       -4.28044       -2.36424
N         14.24624        0.95440        0.74632
C         14.03171        2.23003        1.16361
C         12.74877        2.60242        1.43246
S         11.68955        1.26026        1.13436
S         15.08725        3.57364        1.44839
C         13.70152        4.49799        1.93375
N         12.53195        3.86966        1.86170
C         13.77248        5.85962        2.41161
C         12.69888        6.63492        2.80675
C         13.05482        7.94922        3.26921
C         14.43241        8.13855        3.18247
S         15.22438        6.74309        2.56828
C         12.07033        8.97992        3.77156
C         10.60935        8.57312        3.74543
C         16.57560       -9.37374       -2.38103
C         16.03114      -10.56611        0.41579
C         15.80697       -9.23228        1.11219
C         15.50952      -12.68236       -3.48912
C         18.08959       -9.57646       -2.36924
Cl        12.56456      -12.80281       -1.08890
C          5.25243       -0.44450       -4.97038
C          4.36462       -3.69197       -6.34519
C          2.50899       -3.80741       -3.87483
C          3.30360       -3.28704       -7.36332
C          2.43337       -5.32648       -3.81838
Cl         5.56042       -1.76000       -1.40266
C         18.24457       11.54906        3.47586
C         17.00479       10.87707        3.68114
C         16.21293       11.26898        4.77175
C         16.56897       12.36292        5.59563
C         17.80902       13.01909        5.40109
C         18.65938       12.54665        4.39149
C         16.35441        9.79281        2.96088
C         15.22038        9.29460        3.56341
S         14.86805       10.20355        4.94070
C         18.39176       14.18719        6.03250
C         19.61631       14.56027        5.52253
S         20.20930       13.30283        4.55881
C         19.12877       11.12913        2.34771
C         15.69664       12.81080        6.72093
C         19.30466        9.86373        1.80898
C         20.24981        9.79951        0.74929
C         20.82916       11.02373        0.46386
S         20.08754       12.24394        1.43476
C         16.06535       13.27957        7.97162
C         14.97012       13.64517        8.80542
C         13.74313       13.40672        8.21226
S         13.98180       12.88567        6.58886
Si        22.18180       11.57129       -0.73911
C         22.01650       10.50369       -2.28735
Si        11.95084       13.56790        8.77208
C         11.86549       15.07034        9.89942
C         20.34816       15.78190        5.78334
S         20.20260       16.52758        7.33054
C         21.14330       17.87886        6.89274
C         21.61135       17.73161        5.60162
C         21.16846       16.52860        4.93909
C         21.39025       19.01331        7.75934
C         21.60572       16.21670        3.52520
C         20.67536       16.72357        2.43356
N         22.10892       20.04252        7.33976
C         22.13023       20.98734        8.31894
C         21.47352       20.70936        9.47844
S         20.74723       19.14381        9.37156
S         22.84263       22.56106        8.41995
C         22.22347       22.67872       10.04102
N         21.50339       21.65061       10.46080
C         22.48625       23.80136       10.91640
C         22.00148       23.94333       12.20324
C         22.50337       25.09854       12.89803
C         23.33473       25.84214       12.06629
S         23.47436       25.12904       10.50813
C         22.19065       25.44710       14.33324
C         21.25527       24.49942       15.05654
C         22.03235       13.40458       -1.13797
C         23.85576       11.22307        0.06747
C         24.15475       11.96658        1.36060
C         20.68916       10.58716       -3.02639
C         23.04552       13.94576       -2.14502
Cl        20.57703        8.29283        0.00173
C         12.28065       16.39798        9.28279
C         10.81884       13.73991        7.27485
C         11.51130       12.01192        9.74358
C          9.33667       13.92682        7.58155
C         11.58304       10.69435        8.98488
Cl        15.26172       14.28892       10.36648
C         26.01467       30.13027       11.44912
C         25.33765       29.03608       12.05322
C         25.61486       28.75060       13.39962
C         26.44882       29.58312       14.18258
C         27.12262       30.67636       13.58099
C         26.94245       30.88732       12.20756
C         24.36466       28.09503       11.53557
C         24.08972       27.03825       12.36953
S         24.85461       27.27269       13.85464
C         27.96091       31.71567       14.14019
C         28.39993       32.65975       13.22992
S         28.05567       32.10759       11.66675
C         25.72032       30.53239       10.03910
C         26.69793       29.30702       15.62955
C         25.67941       31.80967        9.50051
C         25.31491       31.85965        8.12612
C         25.06618       30.60930        7.58754
S         25.40666       29.40255        8.77202
C         27.86904       29.45683       16.35362
C         27.74809       29.13595       17.73609
C         26.48736       28.67336       18.06906
S         25.44953       28.79609       16.70043
Si        24.49972       30.01212        5.88406
C         25.26066       31.17817        4.60978
Si        25.70034       28.00826       19.64768
C         26.45805       28.96594       21.07796
C         29.08196       33.90320       13.51250
S         30.13628       33.97453       14.87323
C         30.39945       35.65113       14.71834
C         29.75356       36.13197       13.59664
C         28.99425       35.13786       12.87750
C         31.17578       36.43409       15.65643
C         28.13595       35.51419       11.69284
C         28.85418       35.48746       10.34945
N         31.30982       37.74422       15.49739
C         32.04665       38.23247       16.53534
C         32.50005       37.34548       17.46126
S         31.96531       35.75409       17.05234
S         32.56299       39.82677       16.95849
C         33.35376       39.14529       18.35103
N         33.24143       37.83666       18.49850
C         34.11437       39.93812       19.29699
C         34.78948       39.45039       20.41452
C         35.51450       40.46187       21.13037
C         35.33825       41.69059       20.54137
S         34.33110       41.62986       19.16983
C         36.35375       40.21395       22.35374
C         37.80294       39.89852       22.02278
C         25.00980       28.22396        5.58545
C         22.61767       30.16282        5.80114
C         21.82264       29.31920        6.78616
C         26.78007       31.25453        4.58579
C         24.65693       27.65777        4.21094
Cl        25.21102       33.37412        7.33114
C         26.26031       30.47440       21.05525
C         23.82838       28.21044       19.57291
C         26.15355       26.18247       19.78383
C         23.06153       27.75354       20.80942
C         25.65967       25.27601       18.66523
Cl        29.09316       29.32981       18.77994
H          9.37683      -10.57860       -3.26441
H          6.93666      -10.50393       -4.06431
H          9.66990       -3.49707       -1.51841
H         10.42297      -10.88849       -1.45552
H          7.60013       -3.76736       -0.85649
H         15.37293      -13.10473       -1.39016
H         16.96293      -12.61839       -1.91819
H          3.77554       -0.89548       -3.48255
H          3.15777       -0.86411       -5.11554
H         15.08149       -1.51799       -0.07485
H         14.43170       -5.22130       -0.54650
H         15.63258       -3.99597       -0.32776
H         14.23347       -4.67636       -2.96109
H         15.92083       -4.94505       -2.51093
H         15.33075       -3.29594       -2.75966
H         11.68260        6.25347        2.77254
H         12.19209        9.89605        3.18071
H         12.30487        9.21683        4.81427
H         10.27580        8.34922        2.72853
H          9.99219        9.38764        4.13774
H         10.43868        7.69246        4.37357
H         16.36926       -8.38297       -1.96109
H         16.23402       -9.35806       -3.42160
H         17.09484      -10.82221        0.50035
H         15.48151      -11.34909        0.94971
H         16.37234       -8.42638        0.63174
H         16.13780       -9.29486        2.15451
H         14.74890       -8.95400        1.11188
H         14.44453      -12.50220       -3.66776
H         15.71408      -13.73071       -3.73197
H         16.07909      -12.05765       -4.18290
H         18.48672       -9.61698       -1.34881
H         18.58374       -8.74562       -2.88422
H         18.37608      -10.50285       -2.87902
H          6.13610       -0.72300       -4.38709
H          5.10337        0.63383       -4.85407
H          5.46927       -0.64439       -6.02485
H          4.40070       -4.78716       -6.32321
H          5.34154       -3.34802       -6.70261
H          1.67532       -3.44513       -4.48901
H          2.35224       -3.40254       -2.86897
H          2.30036       -3.59262       -7.04678
H          3.50804       -3.76607       -8.32695
H          3.29361       -2.20374       -7.52339
H          2.54836       -5.77327       -4.81199
H          1.46033       -5.63822       -3.42406
H          3.20764       -5.74246       -3.16650
H         16.73396        9.34142        2.05589
H         17.88288       14.78453        6.77706
H         18.78806        8.98631        2.16765
H         17.09443       13.37490        8.29186
H         22.20892        9.46078       -2.01456
H         22.82120       10.78004       -2.97845
H         12.48410       14.87893       10.78264
H         10.83851       15.16048       10.27074
H         22.24705       18.47262        5.12881
H         21.77311       15.14754        3.38605
H         22.59205       16.67144        3.36884
H         19.72448       16.18150        2.42470
H         21.14824       16.57662        1.45483
H         20.46098       17.79171        2.54141
H         21.33670       23.20881       12.64344
H         21.77272       26.46101       14.36893
H         23.12373       25.44706       14.90571
H         20.27558       24.46173       14.57287
H         21.11809       24.83296       16.08994
H         21.67363       23.48776       15.08475
H         22.15251       13.97188       -0.20826
H         21.02407       13.61247       -1.51203
H         24.63007       11.48503       -0.66473
H         23.94703       10.14530        0.24127
H         24.11358       13.05221        1.22068
H         25.16100       11.71462        1.71229
H         23.44619       11.69724        2.14977
H         19.84798       10.30268       -2.38603
H         20.69695        9.90818       -3.88562
H         20.50371       11.59950       -3.39736
H         24.07670       13.75189       -1.82927
H         22.92940       15.03004       -2.24844
H         22.90711       13.49942       -3.13584
H         13.30848       16.37032        8.90640
H         12.22290       17.19244       10.03370
H         11.62524       16.67120        8.44946
H         10.91771       12.83792        6.66000
H         11.15785       14.58221        6.66158
H         10.48696       12.13796       10.11560
H         12.15681       11.95294       10.62679
H          8.94791       13.11935        8.21152
H          8.75960       13.92868        6.65046
H          9.14974       14.87675        8.09326
H         10.92282       10.69539        8.11064
H         11.27148        9.87064        9.63603
H         12.60078       10.48391        8.64246
H         23.94479       28.12647       10.54162
H         28.17148       31.81434       15.19724
H         25.89428       32.70402       10.06990
H         28.79627       29.80619       15.91828
H         24.85458       32.18224        4.77091
H         24.90836       30.87399        3.61751
H         27.53091       28.74797       21.11357
H         26.04417       28.57015       22.01188
H         29.78190       37.18135       13.31797
H         27.76609       36.53928       11.84846
H         27.24223       34.89092       11.64878
H         29.64624       36.24207       10.29888
H         28.13875       35.70949        9.54523
H         29.30387       34.51427       10.13462
H         34.77273       38.40279       20.69012
H         35.76083       42.64256       20.86006
H         35.92448       39.39656       22.93801
H         36.32252       41.10873       22.99507
H         37.88493       38.98916       21.42281
H         38.38343       39.75019       22.94392
H         38.27377       40.71307       21.45896
H         24.52265       27.59480        6.33890
H         26.09024       28.12482        5.73580
H         22.31403       29.87881        4.78547
H         22.34222       31.21604        5.92261
H         22.03610       28.25137        6.66743
H         20.74957       29.46375        6.62057
H         22.04349       29.59829        7.82089
H         27.18681       31.57569        5.55033
H         27.10504       31.97865        3.83109
H         27.22328       30.28602        4.33801
H         23.58641       27.74787        3.99541
H         24.91517       26.59422        4.16513
H         25.20549       28.16872        3.41218
H         26.66885       30.92711       20.14606
H         26.76872       30.93061       21.91099
H         25.19893       30.73672       21.11300
H         23.45146       27.63556       18.71925
H         23.58678       29.26174       19.38056
H         25.74278       25.81308       20.73163
H         27.24272       26.09413       19.86237
H         23.28087       26.70990       21.05987
H         21.98360       27.83280       20.63127
H         23.30296       28.37001       21.68171
H         24.56843       25.30586       18.57343
H         25.94840       24.23942       18.86895
H         26.09007       25.55986       17.69991
