203
PBDT-S-2TC.sdf
C         -3.09822       -6.78929        6.81733
C         -2.93222       -5.46819        7.27583
C         -3.50735       -4.36569        6.59369
C         -4.27933       -4.58109        5.41861
C         -4.46046       -5.89755        4.96490
C         -3.87365       -7.00156        5.63910
C         -4.96920       -3.65832        4.54715
C         -5.59671       -4.22095        3.46343
S         -5.49520       -5.90522        3.55777
C         -2.38838       -7.70838        7.68809
C         -1.78684       -7.11934        8.76843
S         -1.93469       -5.44314        8.70601
C         -4.04248       -8.37710        5.07278
C         -3.34315       -2.98202        7.14710
C         -6.26224       -3.48707        2.41249
C         -4.04408       -8.78359        3.74332
C         -4.24281      -10.18484        3.56163
C         -4.33954      -10.85067        4.75905
S         -4.34178       -9.75863        6.06870
C         -3.36108       -2.55367        8.46975
C         -3.20967       -1.14223        8.63164
C         -3.11806       -0.49657        7.42343
S         -3.02849       -1.61132        6.13694
S         -7.59041       -4.09205        1.53529
C         -7.75858       -2.65879        0.59282
C         -6.79881       -1.71556        0.94103
C         -5.95139       -2.20690        1.99599
S         -4.40500      -12.60101        4.92909
C         -5.89335      -12.82777        5.94233
S         -3.11469        1.24064        7.15607
C         -1.53665        1.71858        7.91649
C         -6.61460       -0.42379        0.28625
O         -6.85655       -0.21305       -0.89496
O         -6.04742        0.50267        1.11734
C         -5.41167        1.58667        0.42637
C         -4.01713        1.11831        0.05244
C         -6.13050      -14.30706        6.20252
C         -1.31200        3.21458        7.75645
C         -8.83513       -2.52772       -0.36909
C         -9.49537       -1.36418       -0.71110
C        -10.50034       -1.56201       -1.68964
C        -10.64768       -2.88840       -2.04425
S         -9.47247       -3.85448       -1.25312
C        -12.99550       -4.98499       -4.14458
C        -13.68029       -3.78044       -4.36898
C        -14.84807       -3.72194       -5.16469
C        -15.35853       -4.90811       -5.75534
C        -14.72858       -6.12923       -5.47011
C        -13.54654       -6.18355       -4.68846
C        -16.45156       -5.11755       -6.67132
C        -16.72186       -6.42472       -6.98772
S        -15.64511       -7.44268       -6.16968
C        -11.79852       -4.73693       -3.36105
C        -11.65066       -3.44261       -2.92233
S        -12.90922       -2.48688       -3.52459
C        -12.86462       -7.49491       -4.47322
C        -15.54576       -2.41002       -5.37158
C        -17.77418       -6.86229       -7.87193
C        -12.70433       -8.55772       -5.35389
C        -11.98564       -9.66269       -4.80665
C        -11.56149       -9.41765       -3.52327
S        -12.17480       -7.93513       -2.94940
C        -15.03145       -1.12529       -5.51433
C        -16.02723       -0.11330       -5.68154
C        -17.29525       -0.63906       -5.71451
S        -17.27395       -2.30408       -5.36719
S        -18.52936       -8.38148       -7.76962
C        -19.64049       -8.04078       -9.04919
C        -19.45714       -6.75293       -9.53805
C        -18.35110       -6.10641       -8.88245
S        -10.49474      -10.46909       -2.60040
C        -11.42763      -10.69438       -1.06000
S        -18.75608        0.26578       -6.08746
C        -19.83272       -0.17617       -4.69332
C        -20.24695       -6.13521      -10.60620
O        -21.44237       -6.28937      -10.75992
O        -19.44316       -5.42180      -11.45479
C        -19.93494       -5.30669      -12.79657
C        -19.34976       -6.46761      -13.58748
C        -10.65586      -11.59195       -0.10609
C        -21.17850        0.51585       -4.83046
C        -20.54635       -9.08623       -9.47963
C        -21.12899      -10.05654       -8.68767
C        -21.90498      -10.98658       -9.43333
C        -21.92066      -10.70982      -10.78856
S        -20.95329       -9.33874      -11.12305
C        -23.36954      -12.15034      -13.98120
C        -23.78787      -13.21747      -13.17048
C        -24.50262      -14.32076      -13.69750
C        -24.80841      -14.36938      -15.08532
C        -24.31895      -13.34639      -15.91297
C        -23.62183      -12.23044      -15.38039
C        -25.59305      -15.30455      -15.86254
C        -25.60395      -15.07986      -17.21224
S        -24.66253      -13.71870      -17.57941
C        -22.73293      -11.12932      -13.16671
C        -22.58097      -11.45471      -11.83778
S        -23.27198      -12.96799      -11.53887
C        -23.18254      -11.13633      -16.29955
C        -24.92536      -15.43557      -12.78889
C        -26.28855      -15.85262      -18.22838
C        -23.83641      -10.59713      -17.40109
C        -23.10072       -9.57349      -18.07053
C        -21.91198       -9.29696      -17.43986
S        -21.63904      -10.37249      -16.14583
C        -25.34960      -15.40840      -11.46434
C        -25.67048      -16.69314      -10.92770
C        -25.53133      -17.68967      -11.86173
S        -24.84358      -17.08853      -13.29715
S        -27.68972      -16.76441      -17.87795
C        -27.90013      -17.28056      -19.50529
C        -26.89933      -16.76107      -20.31988
C        -25.95972      -15.97343      -19.57543
S        -20.82591       -7.98255      -17.87486
C        -19.24465       -8.85238      -18.07122
S        -26.01886      -19.36288      -11.63194
C        -24.51323      -20.25867      -12.10599
C        -26.82390      -16.95764      -21.75826
O        -27.81525      -17.05681      -22.48857
O        -25.53677      -17.02861      -22.22621
C        -25.43372      -17.30260      -23.62512
C        -25.70805      -16.05036      -24.43722
C        -18.15126       -7.87013      -18.45949
C        -24.73716      -21.75664      -11.98405
C        -28.98157      -18.17321      -19.88468
C        -28.95207      -19.14868      -20.86682
C        -30.22469      -19.74574      -21.10868
C        -31.17504      -19.27889      -20.23454
S        -30.54528      -18.10691      -19.16002
H         -4.99939       -2.58906        4.69040
H         -2.32945       -8.77916        7.55514
H         -1.24007       -7.60419        9.56628
H         -3.91126       -8.10934        2.90714
H         -4.27681      -10.67141        2.59391
H         -3.49332       -3.21808        9.31360
H         -3.22011       -0.64041        9.59141
H         -5.12201       -1.63603        2.40114
H         -6.75414      -12.40273        5.41702
H         -5.77784      -12.30969        6.89860
H         -0.72251        1.17052        7.43251
H         -1.54404        1.46117        8.98017
H         -5.36065        2.44346        1.10547
H         -5.98014        1.90810       -0.45464
H         -3.46414        0.83748        0.95542
H         -3.46456        1.89024       -0.48492
H         -4.06470        0.21852       -0.57180
H         -6.26954      -14.86667        5.27120
H         -7.03687      -14.43782        6.80362
H         -5.30061      -14.75731        6.75854
H         -1.26886        3.50681        6.70140
H         -0.35932        3.50069        8.21531
H         -2.10014        3.79744        8.24592
H         -9.27305       -0.39019       -0.29578
H        -11.10783       -0.75557       -2.08028
H        -17.05724       -4.32119       -7.08258
H        -11.08438       -5.49864       -3.08315
H        -13.08105       -8.56104       -6.36833
H        -11.76709      -10.57310       -5.35164
H        -13.97590       -0.88700       -5.50018
H        -15.80802        0.94117       -5.80273
H        -18.01761       -5.10533       -9.13237
H        -12.39583      -11.14845       -1.29226
H        -11.60255       -9.72737       -0.57982
H        -19.35069        0.13280       -3.76078
H        -19.98903       -1.25845       -4.66202
H        -19.58283       -4.36114      -13.20806
H        -21.02519       -5.30594      -12.84731
H        -18.25582       -6.43725      -13.55236
H        -19.67452       -6.44604      -14.63206
H        -19.64712       -7.42316      -13.14818
H        -10.46822      -12.58004       -0.53989
H        -11.23297      -11.73991        0.81309
H         -9.69522      -11.14781        0.17749
H        -21.07340        1.60564       -4.85500
H        -21.81372        0.26453       -3.97427
H        -21.70579        0.19544       -5.73586
H        -20.98902      -10.12048       -7.61464
H        -22.41346      -11.82873       -8.98286
H        -26.12572      -16.14487      -15.44121
H        -22.36004      -10.19202      -13.55563
H        -24.81271      -10.92037      -17.73921
H        -23.45322       -9.05214      -18.95264
H        -25.44147      -14.50746      -10.87206
H        -26.02085      -16.85830       -9.91566
H        -25.10122      -15.48854      -20.01199
H        -19.34861       -9.61577      -18.84850
H        -18.96791       -9.34440      -17.13440
H        -23.69498      -19.95142      -11.44765
H        -24.23780      -20.02093      -13.13762
H        -26.10754      -18.12270      -23.90647
H        -24.41472      -17.65491      -23.81361
H        -26.70477      -15.64874      -24.23022
H        -25.63754      -16.25663      -25.50809
H        -24.99404      -15.26467      -24.17305
H        -18.37745       -7.36258      -19.40341
H        -17.20313       -8.40275      -18.59090
H        -17.99685       -7.11155      -17.68410
H        -25.00517      -22.04470      -10.96199
H        -23.81866      -22.29171      -12.24791
H        -25.52527      -22.10262      -12.66206
H        -28.07488      -19.38603      -21.45182
H        -30.42051      -20.46762      -21.88950
H        -32.21636      -19.55794      -20.18094
