314
PBDTNO-BDD.sdf
C          1.19438        8.22612       -4.69029
C          0.09007        9.13130       -4.65527
C         -0.19309        9.79748       -3.45438
C          0.48712        9.49603       -2.23703
C          1.55804        8.54497       -2.26107
C          1.92753        7.98887       -3.49191
C         -0.87023        9.50716       -5.67806
C         -1.73076       10.50440       -5.30860
S         -1.41016       11.02269       -3.73919
C          2.39625        7.99232       -1.19241
C          3.43013        7.19909       -1.62756
S          3.39120        7.06426       -3.30578
C          1.57399        7.56662       -5.99171
C          0.11978       10.16939       -0.94666
C          4.47806        6.55963       -0.86773
C          4.98872        5.29357       -1.04897
C          6.03820        4.97744       -0.13137
C          6.34013        6.02785        0.71716
S          5.34838        7.38679        0.33999
C          7.39476        6.09307        1.71433
S          8.88000        5.27790        1.46707
C          9.64099        5.92012        2.88907
C          8.76011        6.77405        3.54741
C          7.41438        6.69629        2.95812
C          8.99478        7.63182        4.75423
C          7.79669        7.67822        5.61167
C          6.51856        7.29917        5.09153
C          6.25012        7.19601        3.67608
C          7.59982        8.18304        6.88986
S          6.14917        7.51793        7.57554
C          5.65294        6.88051        6.07760
C         10.99801        5.46873        3.20479
C         11.91567        4.90880        2.32771
C         13.15997        4.57421        2.94117
S         11.65524        5.46407        4.79485
O         10.02991        8.25386        4.96074
O          5.17737        7.52506        3.20444
C          8.37854        9.16484        7.71556
C          9.33163        8.51727        8.69724
C          4.48056        5.94839        5.93764
C          3.15516        6.63799        5.69073
C         13.18540        4.84626        4.29656
C         -1.20762       10.49800       -0.61279
C         -1.54639       11.15450        0.57569
C         -0.57449       11.40104        1.54721
C          0.75637       11.04005        1.27570
C          1.08668       10.50695        0.01942
C          1.47217        8.22175       -7.22931
C          1.78119        7.59286       -8.44348
C          2.33225        6.30974       -8.45493
C          2.50839        5.64510       -7.23416
C          2.06757        6.24974       -6.04436
C          2.73622        5.67856       -9.64616
C          3.34838        4.42687       -9.61633
C          3.55558        3.78773       -8.39535
C          3.12885        4.38724       -7.21147
C         -0.89481       11.97719        2.78817
C          0.07853       12.15195        3.76675
C          1.39122       11.75667        3.50854
C          1.72953       11.21015        2.26940
O         -0.37223       12.70752        4.93311
C          0.59956       12.89412        5.96088
C         -0.08307       13.52002        7.16407
O          3.71236        3.92944      -10.84226
C          4.35995        2.65667      -10.83458
C          4.67808        2.27398      -12.26437
C         16.12818        4.84920        8.52144
C         15.69023        4.72088        7.16818
C         16.61115        4.29352        6.20641
C         18.00130        4.12905        6.49926
C         18.45251        4.30612        7.84481
C         17.49887        4.59017        8.82968
C         14.39782        4.99014        6.54320
C         14.30548        4.66797        5.20816
S         15.77006        3.96148        4.71589
C         19.78568        4.26020        8.44228
C         19.80909        4.30180        9.81967
S         18.23406        4.50396       10.39944
C         15.14713        5.22301        9.59114
C         18.98883        3.75323        5.43426
C         20.92679        4.16248       10.73125
C         20.94512        4.42051       12.09082
C         22.21334        4.16972       12.69518
C         23.14896        3.69610       11.79774
S         22.43427        3.52277       10.24061
C         24.50758        3.26395       12.06922
S         24.90527        2.52998       13.56620
C         26.52439        2.12349       13.09594
C         26.73341        2.50913       11.77377
C         25.65046        3.37794       11.30260
C         27.90469        2.23411       10.89711
C         28.21551        3.40093       10.05063
C         27.23299        4.42710        9.83894
C         25.82786        4.24191       10.13954
C         29.31972        3.67380        9.25421
S         29.37861        5.36245        8.88067
C         27.81538        5.62945        9.50188
C         27.40473        1.51012       14.08706
C         27.02265        0.82891       15.23190
C         28.12420        0.35938       16.00540
S         29.12241        1.64215       14.04396
O         28.49751        1.16908       10.86272
O         24.95158        4.78445        9.48635
C         30.39432        2.78440        8.70385
C         31.65690        2.76105        9.54176
C         27.25950        7.01324        9.70834
C         26.52299        7.57870        8.51183
C         29.35269        0.71514       15.47582
C         20.08221        2.90203        5.68644
C         21.03765        2.60290        4.71081
C         20.86149        3.02460        3.38968
C         19.74167        3.82105        3.08589
C         18.87881        4.22228        4.11552
C         13.81251        4.77218        9.57271
C         12.87643        5.16602       10.53348
C         13.26724        5.91958       11.64061
C         14.60887        6.33129       11.73577
C         15.49452        6.03551       10.68650
C         12.36918        6.26070       12.66430
C         12.79818        6.96008       13.79345
C         14.13897        7.32948       13.90156
C         15.03437        7.02127       12.87682
C         21.74475        2.65831        2.37260
C         21.50956        3.03369        1.04905
C         20.37790        3.79271        0.74152
C         19.50689        4.19042        1.75466
O         22.44154        2.58883        0.15071
C         22.22731        2.95011       -1.21297
C         23.35911        2.37985       -2.04369
O         11.82271        7.21491       14.72038
C         12.23190        7.92462       15.88830
C         11.02607        8.11622       16.78824
C         34.45491        0.13555       16.07496
C         33.03371        0.05014       16.24878
C         32.54414       -0.73438       17.29832
C         33.38398       -1.57426       18.08708
C         34.79749       -1.52913       17.88067
C         35.29974       -0.62962       16.93155
C         31.91731        0.61875       15.48996
C         30.66344        0.36718       16.00408
S         30.83688       -0.44621       17.48361
C         35.89255       -2.28375       18.48913
C         37.14972       -1.84770       18.13958
S         37.03598       -0.57912       17.03336
C         35.02143        1.02335       15.00776
C         32.80698       -2.47687       19.13612
C         38.43904       -2.27983       18.61873
C         39.59326       -2.45630       17.88522
C         40.71605       -2.82469       18.68872
C         40.40018       -2.90366       20.03329
S         38.74176       -2.50998       20.28196
C         41.29920       -3.14356       21.14263
S         42.92456       -2.59423       21.08427
C         43.26265       -3.00448       22.72621
C         42.11743       -3.51441       23.32885
C         41.09052       -3.82335       22.32457
C         41.89089       -3.87767       24.75058
C         41.10567       -5.11525       24.87632
C         40.32651       -5.58282       23.75824
C         40.01009       -4.74908       22.62052
C         40.87355       -5.94013       25.96065
S         40.30788       -7.49412       25.42547
C         40.11515       -6.94917       23.82009
C         44.60756       -2.82874       23.24355
C         45.60267       -1.98817       22.75276
C         46.81666       -2.05056       23.50088
S         45.23799       -3.78185       24.53176
O         42.27277       -3.19359       25.71676
O         38.95673       -4.87774       21.99321
C         41.02831       -5.71534       27.43770
C         42.34754       -6.21095       27.99693
C         39.85063       -7.88535       22.67795
C         38.38399       -8.15500       22.42006
C         46.74062       -2.97131       24.51807
C         31.57906       -3.14042       18.96001
C         30.99565       -3.92478       19.96154
C         31.68996       -4.18590       21.14331
C         32.95345       -3.60286       21.32838
C         33.45613       -2.71659       20.36062
C         36.18193        0.70091       14.27211
C         36.70886        1.53337       13.28465
C         36.01191        2.68853       12.88250
C         34.84888        3.03056       13.56656
C         34.41214        2.24402       14.64861
C         36.46547        3.47899       11.81709
C         35.72473        4.58587       11.38667
C         34.53494        4.90265       12.05688
C         34.10799        4.13310       13.13336
C         31.15539       -5.01534       22.13848
C         31.88880       -5.31299       23.28821
C         33.16556       -4.77503       23.44454
C         33.69201       -3.92212       22.47439
O         31.25438       -6.13847       24.17804
C         31.97702       -6.45936       25.36483
C         31.11533       -7.36682       26.21991
O         36.24789        5.26286       10.32630
C         35.50276        6.39386        9.86090
C         36.24021        7.01205        8.69190
H         -0.91906        9.08409       -6.67254
H         -2.50794       10.96326       -5.90529
H          2.25890        8.20115       -0.13832
H          4.63111        4.60792       -1.81223
H          6.55315        4.02567       -0.12222
H         11.73221        4.75233        1.27061
H         13.99924        4.16480        2.39149
H          7.66984        9.78933        8.28007
H          8.91889        9.85873        7.06221
H          8.79948        7.87605        9.40790
H          9.84945        9.29158        9.27341
H         10.08077        7.91187        8.18056
H          4.40485        5.30849        6.82454
H          4.68003        5.26319        5.10040
H          2.83446        7.19790        6.57331
H          2.38791        5.88833        5.46803
H          3.19937        7.32935        4.84448
H         -2.03180       10.25658       -1.27685
H         -2.58158       11.44203        0.74073
H          2.14118       10.34243       -0.18751
H          1.14310        9.25646       -7.28944
H          1.61302        8.13374       -9.37481
H          2.13846        5.65457       -5.13933
H          2.58745        6.17195      -10.60170
H          4.04338        2.82132       -8.32141
H          3.30564        3.87563       -6.26943
H         -1.91883       12.27581        2.99617
H          2.18456       11.85696        4.24850
H          2.75634       10.89682        2.09506
H          1.39260       13.56742        5.61360
H          1.02542       11.92877        6.25845
H         -0.53625       14.47949        6.89376
H          0.63553       13.68195        7.97034
H         -0.88808       12.87530        7.52882
H          3.69616        1.89933      -10.40139
H          5.29340        2.71421      -10.26382
H          3.76359        2.23208      -12.86380
H          5.16995        1.29957      -12.29639
H          5.33242        3.01933      -12.72454
H         13.55359        5.41216        7.07136
H         20.69783        4.13980        7.87295
H         20.08312        4.76671       12.64611
H         22.40684        4.31339       13.75258
H         25.99327        0.64731       15.51839
H         28.00180       -0.22471       16.91029
H         30.65345        3.12849        7.69236
H         30.00898        1.76676        8.57484
H         32.11571        3.75379        9.60030
H         32.38900        2.08457        9.08722
H         31.45292        2.41533       10.55854
H         28.06473        7.69891       10.00059
H         26.57237        6.99154       10.56583
H         27.20714        7.76435        7.68003
H         26.05731        8.53286        8.78562
H         25.73069        6.91009        8.16329
H         20.22927        2.45002        6.66156
H         21.90276        1.99941        4.98772
H         18.08523        4.91730        3.84635
H         13.46207        4.10274        8.79194
H         11.84292        4.84322       10.41983
H         16.49565        6.45367       10.76006
H         11.32538        5.96553       12.59110
H         14.52343        7.85855       14.76522
H         16.07866        7.31088       12.98628
H         22.62346        2.05754        2.60127
H         20.14377        4.09512       -0.27125
H         18.62637        4.76965        1.49426
H         22.22250        4.04038       -1.31721
H         21.27865        2.53069       -1.56778
H         24.32369        2.76792       -1.70089
H         23.22758        2.63809       -3.09783
H         23.39880        1.28994       -1.94777
H         12.62780        8.90948       15.61315
H         12.99096        7.35078       16.43244
H         10.23964        8.67395       16.26902
H         11.30608        8.66113       17.69439
H         10.59915        7.14957       17.07496
H         32.03942        1.18980       14.57998
H         35.76178       -3.09380       19.19770
H         39.64598       -2.30709       16.81248
H         41.70695       -2.98758       18.29121
H         45.47054       -1.32671       21.90467
H         47.69412       -1.44543       23.30517
H         40.21262       -6.22614       27.96447
H         40.90280       -4.64962       27.66618
H         42.45280       -7.29380       27.87033
H         42.39697       -5.99742       29.07101
H         43.19715       -5.72372       27.51000
H         40.37694       -8.83244       22.84549
H         40.29556       -7.46260       21.76775
H         37.93378       -8.70750       23.24910
H         38.27738       -8.75970       21.51262
H         37.81554       -7.23171       22.27368
H         47.50164       -3.21655       25.24667
H         31.02202       -3.05518       18.03076
H         30.00776       -4.34828       19.78889
H         34.39127       -2.20853       20.59129
H         36.71789       -0.22468       14.45004
H         37.63952        1.24463       12.79377
H         33.55055        2.60154       15.21585
H         37.38553        3.23073       11.28316
H         33.91354        5.74109       11.74995
H         33.16792        4.39249       13.62068
H         30.16481       -5.44917       22.01743
H         33.78097       -4.99173       24.30968
H         34.69379       -3.51995       22.61378
H         32.20225       -5.54695       25.92923
H         32.90392       -6.98566       25.10960
H         30.17399       -6.87270       26.48143
H         31.64031       -7.63837       27.14005
H         30.85805       -8.28106       25.67527
H         35.41359        7.13671       10.66014
H         34.50907        6.07224        9.52663
H         37.24618        7.32461        8.99002
H         35.69718        7.88227        8.31521
H         36.35641        6.28848        7.87848
