138
6TIC.sdf
C         -1.50457        1.14990        1.17954
C         -2.28891        0.03200        1.38111
C         -2.56858        2.38697        0.92757
C         -3.84646        1.51567        0.61414
C         -3.63278        0.22090        0.96974
C         -3.10758        3.20914        2.21946
C         -2.32693        3.32326       -0.31530
C         -5.23945        1.67640        0.27595
C         -5.93433        0.51241        0.36391
S         -4.97421       -0.79796        0.81301
C         -1.23917        3.16009       -1.19778
C         -1.21532        3.80522       -2.44912
C         -2.27754        4.62998       -2.85600
C         -3.27288        4.92490       -1.93391
C         -3.28533        4.30602       -0.68977
C         -2.49463        4.37609        2.77226
C         -3.16809        5.23596        3.67571
C         -4.45825        4.93921        4.12444
C         -5.00871        3.72957        3.74648
C         -4.36152        2.89889        2.85380
C         -9.32911        2.30277       -0.06918
C         -9.84910        3.59676       -0.17414
C        -11.30048        4.13814       -0.20156
C        -11.19125        5.64189       -0.41187
C         -9.86794        5.97549       -0.44973
C         -9.05194        4.83388       -0.31894
O         -7.86252        4.95867       -0.44884
C        -12.48802        3.48280       -0.06954
C        -13.76155        4.17103       -0.11565
N        -14.80920        4.66587       -0.14505
C        -12.60659        2.06095        0.10942
N        -12.76756        0.92422        0.25433
C        -12.12710        6.69643       -0.58313
C        -11.66327        8.01961       -0.76976
C        -10.29152        8.30012       -0.78871
C         -9.38349        7.26730       -0.63033
S         -6.40395        2.86857       -0.05864
C         -7.82652        1.88728       -0.01122
C         -7.30757        0.57801        0.18613
S         -1.49159       -1.35109        1.87838
C          0.06013       -0.74623        1.47897
C         -0.10168        0.63084        1.13590
C          8.44899       -4.97135       -0.28959
C          8.55959       -6.36473       -0.06135
C          9.75769       -7.40128        0.00120
C          9.10899       -8.74588        0.29362
C          7.75702       -8.58978        0.38467
C          7.38705       -7.23653        0.17315
C          9.60915      -10.06313        0.45969
C          8.73761      -11.13629        0.71008
C          7.36994      -10.92526        0.79969
C          6.87780       -9.64789        0.63633
O          6.22425       -6.95287        0.14296
C         11.12878       -7.28296       -0.16889
C         12.05607       -8.41105       -0.00946
C         11.77200       -6.03217       -0.45636
N         12.26381       -5.01139       -0.68709
N         12.75090       -9.33368        0.12705
C          1.37240       -1.38742        1.18899
C          2.21925       -0.42907        0.66509
S          1.45764        1.13636        0.61261
C          2.03121       -2.88353        1.01331
C          3.40271       -2.45784        0.33650
C          3.46624       -1.07212        0.21468
C          2.47425       -3.78989        2.27081
C          1.02763       -3.57687        0.01652
C          1.96779       -5.07829        2.59872
C          2.52908       -5.88012        3.60094
C          3.66341       -5.47802        4.29901
C          4.16487       -4.21705        4.05247
C          3.55764       -3.41881        3.09829
C          1.12982       -3.56915       -1.37458
C         -0.03058       -3.82190       -2.15245
C         -1.27389       -4.13464       -1.55301
C         -1.32160       -4.32359       -0.21260
C         -0.20618       -4.01278        0.46823
C          4.35670       -6.40416        5.26497
C          5.79978       -6.64972        4.82502
C         -2.58917       -4.06303       -2.26535
C         -2.50572       -4.33085       -3.75328
C          4.68382       -3.06948       -0.03842
C          5.63963       -2.15418       -0.35386
S          4.99522       -0.57299       -0.35133
S          5.51765       -4.56230       -0.06464
C          7.13420       -4.07550       -0.31687
C          6.95935       -2.65614       -0.51424
C         -5.26240        5.87231        5.00711
C         -6.57338        6.29248        4.33253
C         -2.36482        5.16520       -4.27190
C         -3.63613        4.71335       -5.01513
H         -0.43949        2.47712       -0.98679
H         -0.40071        3.60585       -3.13017
H         -4.09680        5.58206       -2.19181
H         -4.12867        4.57233       -0.10638
H         -1.52032        4.72054        2.50560
H         -2.68643        6.15568        3.99239
H         -5.98321        3.43472        4.11053
H         -4.94463        2.03648        2.67252
H        -10.04824        1.48056       -0.01670
H        -13.19023        6.56006       -0.59038
H        -12.36033        8.83577       -0.90294
H         -9.92620        9.30824       -0.93145
H         -8.31546        7.45932       -0.65183
H         -7.79988       -0.35059        0.28916
H          9.38383       -4.44599       -0.46878
H         10.62865      -10.33493        0.40515
H          9.11711      -12.13727        0.83384
H          6.68248      -11.73962        0.99100
H          5.82015       -9.51950        0.70913
H          1.17498       -5.58738        2.11304
H          2.09505       -6.85200        3.77988
H          5.05136       -3.85788        4.56960
H          4.02279       -2.53074        3.01938
H          2.01886       -3.22283       -1.85623
H          0.01613       -3.66751       -3.20274
H         -2.23525       -4.54602        0.35831
H         -0.46011       -3.98294        1.37230
H          4.37332       -5.95171        6.27839
H          3.83208       -7.37913        5.31907
H          6.29116       -5.66426        4.71446
H          6.32559       -7.30025        5.56242
H          5.86446       -7.14183        3.83644
H         -3.31452       -4.76079       -1.80527
H         -2.99345       -3.03543       -2.10935
H         -2.24722       -5.39497       -3.94072
H         -3.49908       -4.12386       -4.19411
H         -1.75892       -3.66074       -4.22599
H          7.68604       -1.91958       -0.71668
H         -5.49633        5.37506        5.97240
H         -4.69688        6.79761        5.22390
H         -7.23147        5.41683        4.14067
H         -7.12229        6.99452        4.99459
H         -6.35425        6.80699        3.37287
H         -2.34979        6.27330       -4.27873
H         -1.49846        4.79126       -4.84814
H         -4.55961        5.11468       -4.53822
H         -3.59560        5.09546       -6.05901
H         -3.70540        3.60621       -5.06916
