220
A702.sdf
C         -6.25653       24.70980        1.03413
O         -6.64550       23.60917        1.38723
C         -6.51865       25.93779        1.72803
C         -7.41589       26.10466        2.75647
C         -7.55552       27.36648        3.31299
C         -6.80442       28.45786        2.82585
C         -5.90034       28.27043        1.74654
C         -5.76325       26.96998        1.21133
C         -4.91287       26.39822        0.12732
C         -3.76465       26.94493       -0.37165
C         -2.90740       26.28740       -1.31436
N         -2.20781       25.72931       -2.03459
C         -3.17885       28.15075        0.15097
N         -2.77734       29.12519        0.63017
C         -5.48531       25.03120       -0.15759
C         -5.39861       24.24685       -1.26832
C         -6.07596       22.89788       -1.40017
S         -7.67764       22.56015       -1.99703
C         -7.75041       20.90660       -1.54831
C         -6.48908       20.65820       -1.01364
C         -5.54736       21.68566       -0.92542
C         -4.19126       21.41985       -0.27754
C         -3.57114       22.56741        0.50316
S         -6.32299       19.13423       -0.37912
C         -7.92448       18.85068       -0.70454
C         -8.62934       19.75049       -1.39448
N         -9.94107       19.26252       -1.58724
C        -11.04441       19.98278       -2.26439
C        -10.58714       21.36333       -2.70634
C         -9.99334       18.04768       -0.85734
C         -8.72154       17.91522       -0.26211
C         -8.35941       16.97787        0.67486
N         -7.17106       16.72156        1.24378
N         -7.38379       15.67423        2.03437
N         -8.65269       15.27672        1.99144
C         -9.25137       16.13323        1.14276
C        -10.49576       16.09836        0.57831
C        -10.91055       16.90125       -0.52617
N        -12.05242       16.24902       -1.04270
C        -12.88102       16.47719       -2.26405
C        -13.00914       15.24748       -3.19879
C        -12.20567       15.15441       -0.19980
C        -11.38182       15.16679        0.82984
S        -11.44560       13.88132        1.89660
C        -12.60367       13.11499        0.95339
C        -12.71328       13.84583       -0.23884
S        -12.14383       12.72597       -1.37769
C        -11.89517       11.36607       -0.33672
C        -12.62231       11.71602        0.84155
C        -14.13242       11.30982        0.71236
C        -15.16260       12.33245        0.12326
C        -10.39510       10.91960       -0.19579
C         -9.92531        9.63261        0.06721
C         -8.49421        8.96036        0.14911
C         -7.18830        9.50272        0.00581
C         -6.91584       10.89185       -0.25615
N         -6.75397       12.01889       -0.46282
C         -6.07496        8.46805       -0.01274
N         -5.15135        7.60971       -0.02813
C         -8.79755        7.42692        0.32447
C         -8.00210        6.20967        0.41321
C         -8.61016        4.90434        0.44122
C        -10.01494        4.84211        0.44023
C        -10.78765        6.00646        0.39950
C        -10.17235        7.25739        0.33757
C        -10.87142        8.52121        0.22976
O        -12.08800        8.61661        0.19674
C         -6.93199       29.75237        3.51291
C         -6.78576       31.02599        2.97870
C         -6.87075       32.03409        3.94931
C         -7.06370       31.55672        5.23908
S         -7.18179       29.88847        5.17374
C         -6.27788       14.86834        2.55932
C         -6.56900       14.24663        3.91782
C         -5.74093       -4.34857        1.78940
O         -6.28475       -5.36815        1.39507
C         -6.17428       -2.99034        1.52030
C         -7.46864       -2.55342        1.26484
C         -7.70163       -1.18684        1.06293
C         -6.62865       -0.26759        1.00715
C         -5.30293       -0.75052        1.27533
C         -5.10050       -2.12492        1.60172
C         -3.90004       -2.92674        2.07923
C         -2.59126       -2.53951        2.08515
C         -1.59926       -3.52970        2.40969
N         -0.70494       -4.22684        2.63377
C         -2.21292       -1.28983        1.50716
N         -1.81055       -0.30432        1.06535
C         -4.47521       -4.28787        2.48241
C         -4.05105       -5.24502        3.37327
C         -4.90469       -6.43466        3.84084
S         -5.99062       -6.48743        5.23500
C         -6.45020       -8.14198        5.15266
C         -5.75031       -8.58448        4.02548
C         -4.90250       -7.74006        3.30218
C         -4.12591       -8.29363        2.10036
C         -3.17382       -9.47604        2.41497
S         -5.97401      -10.18139        3.70979
C         -6.87743      -10.34547        5.05801
C         -7.16740       -9.26771        5.78423
N         -7.94907       -9.68592        6.88216
C         -8.37340       -8.75863        7.94409
C         -7.82754       -9.18677        9.29379
C         -7.98015      -11.11475        6.81555
C         -7.23961      -11.43180        5.66903
C         -6.79817      -12.67428        5.29952
N         -6.05253      -13.05391        4.25310
N         -5.80230      -14.33678        4.46199
N         -6.33458      -14.77063        5.60408
C         -6.95600      -13.69047        6.11533
C         -7.71327      -13.52375        7.24351
C         -8.41643      -12.33618        7.60313
N         -9.27915      -12.73863        8.64874
C        -10.37783      -12.02190        9.33403
C        -11.70795      -12.76750        9.15489
C         -8.91516      -14.05892        8.92189
C         -7.89781      -14.42164        8.18043
S         -7.16830      -15.83250        8.62762
C         -8.23188      -16.04617        9.95905
C         -9.32797      -15.19613        9.69086
S        -10.32566      -16.34885        8.84148
C         -9.39168      -17.78417        9.19921
C         -8.55296      -17.38043       10.22466
C         -9.25109      -17.54074       11.57808
C         -9.72777      -18.97587       11.86655
C         -8.84059      -18.75075        8.12191
C         -7.63227      -19.43868        8.22593
C         -6.83002      -20.24235        7.20430
C         -7.27378      -20.93412        6.11801
C         -6.38444      -21.72922        5.30616
N         -5.72450      -22.36429        4.59878
C         -8.68191      -21.10499        5.82986
N         -9.81699      -21.16217        5.60216
C         -5.39449      -20.20226        7.70480
C         -4.13917      -20.57484        7.16325
C         -2.96786      -20.37467        7.94113
C         -3.04762      -19.83398        9.23734
C         -4.28616      -19.51213        9.77050
C         -5.41123      -19.70673        8.98602
C         -6.73662      -19.43249        9.39146
O         -7.03188      -19.33865       10.56345
C         -6.90744        1.18509        0.69425
C         -6.03827        2.06372        0.04840
C         -6.53361        3.38357       -0.09849
C         -7.81641        3.59719        0.43142
S         -8.32991        2.07237        1.00885
C         -5.03196      -15.15078        3.52956
C         -3.79466      -15.71212        4.21296
H         -7.99501       25.26346        3.10623
H         -8.26556       27.48613        4.11805
H         -5.31951       29.10601        1.37639
H         -4.85881       24.64768       -2.10696
H         -4.28704       20.57402        0.43882
H         -3.47868       21.08774       -1.06156
H         -4.24354       22.92744        1.30544
H         -2.63251       22.23453        0.98221
H         -3.29075       23.38042       -0.18540
H        -11.87999       20.16203       -1.54916
H        -11.42532       19.43190       -3.14844
H        -10.27759       21.88643       -1.77627
H         -9.73954       21.26891       -3.42215
H        -11.38980       21.95490       -3.18471
H        -13.92580       16.74911       -1.97195
H        -12.48019       17.31451       -2.85766
H        -13.64641       14.44202       -2.77372
H        -13.53904       15.52364       -4.13729
H        -12.01342       14.82978       -3.45456
H        -14.23006       10.37772        0.11974
H        -14.50495       11.06685        1.73163
H        -14.92061       12.60215       -0.92646
H        -16.18958       11.91369        0.10841
H        -15.21152       13.26845        0.72713
H         -9.65413       11.69084       -0.36942
H         -6.93740        6.20001        0.45437
H        -10.52754        3.88814        0.43091
H        -11.86689        5.93898        0.37631
H         -6.63038       31.22650        1.92696
H         -6.77953       33.08643        3.72269
H         -7.12454       32.15261        6.13857
H         -6.05949       14.04574        1.84114
H         -5.36844       15.50078        2.63365
H         -7.36418       13.47309        3.84368
H         -5.64594       13.74472        4.28407
H         -6.86453       15.03253        4.63842
H         -8.29199       -3.25575        1.27179
H         -8.72318       -0.86219        0.91342
H         -4.48563       -0.04704        1.29117
H         -3.13195       -5.05754        3.92170
H         -4.86883       -8.67817        1.36474
H         -3.52582       -7.51075        1.60611
H         -3.65152      -10.35211        2.88526
H         -2.75206       -9.87802        1.47195
H         -2.33948       -9.16731        3.06774
H         -9.47644       -8.65279        7.99618
H         -7.92880       -7.75461        7.73863
H         -8.34435      -10.10617        9.62588
H         -6.73727       -9.36769        9.19913
H         -7.99928       -8.39208       10.05317
H        -10.17800      -11.94435       10.42681
H        -10.50804      -11.00368        8.91677
H        -11.65849      -13.78403        9.60194
H        -12.55763      -12.23967        9.64451
H        -11.92351      -12.83759        8.07116
H         -8.56233      -17.23481       12.39623
H        -10.14942      -16.89169       11.62427
H         -8.89185      -19.69655       11.93244
H        -10.25644      -18.99829       12.84025
H        -10.43845      -19.32424       11.08634
H         -9.34616      -18.77386        7.16248
H         -4.02962      -20.99072        6.17461
H         -1.99161      -20.63113        7.55204
H         -2.16344      -19.66481        9.83896
H         -4.38481      -19.09774       10.76776
H         -5.07348        1.75337       -0.33634
H         -5.96147        4.14561       -0.60900
H         -5.66673      -15.97742        3.14803
H         -4.71360      -14.52882        2.66113
H         -4.09239      -16.32352        5.09001
H         -3.23311      -16.35235        3.50118
H         -3.13568      -14.88342        4.54928
