76
AFI3.sdf
C         -0.63198        2.97461       -0.77870
C         -0.14090        2.69985        0.62615
C         -1.07106        2.69127        1.67517
C         -0.66253        2.41662        2.97969
C          0.68098        2.15381        3.25412
C          1.62558        2.15643        2.22231
C          1.22669        2.41967        0.90318
C          2.19220        2.37252       -0.21452
C          2.52466        3.53618       -0.92275
C          3.28304        3.51339       -2.10568
C          3.81453        2.29979       -2.61765
C          3.51310        1.11743       -1.87494
C          2.72988        1.16310       -0.69802
C          2.70284        5.68099       -1.64632
C          2.59609        7.05705       -1.70796
C          3.11866        7.72663       -2.81775
C          3.72077        6.95687       -3.85774
C          3.82377        5.54582       -3.75077
C          3.32231        4.91728       -2.59830
C          2.21005        4.93877       -0.61452
C          1.58501        5.57272        0.46918
C          1.47235        6.97939        0.45252
C          1.97323        7.73373       -0.64182
C          2.00571       -0.79272        0.94999
C          2.61950       -0.21765       -0.17665
C          3.32154       -1.01721       -1.03689
C          3.45391       -2.39442       -0.86776
C          2.85571       -2.98378        0.25829
C          2.13819       -2.17897        1.16585
C          3.88217       -0.31360       -2.07617
C          4.62886       -1.01744       -3.03827
C          4.76303       -2.41809       -2.91282
C          4.18171       -3.10727       -1.82921
C          1.89874        9.13261       -0.70267
N          2.42602        9.81966       -1.79112
C          3.02884        9.13262       -2.84305
C          2.36447       11.29718       -1.82016
C          3.66283       11.89107       -1.28087
O          3.48263        9.74484       -3.79574
O          1.37845        9.74400        0.21857
C          4.66339        2.26052       -3.83687
C          4.23141        1.49736       -4.93637
C          5.01904        1.38614       -6.08410
C          6.24620        2.04095       -6.15582
C          6.69245        2.80894       -5.08109
C          5.91948        2.92993       -3.91160
C          6.49130        3.72193       -2.75800
H         -0.16793        3.89277       -1.18749
H         -1.73073        3.12902       -0.81246
H         -0.38292        2.11954       -1.44174
H         -2.11876        2.88864        1.48197
H         -1.39430        2.40355        3.77680
H          0.98688        1.93687        4.26863
H          2.66174        1.93800        2.44755
H          4.11886        7.44324       -4.73947
H          4.29003        4.98059       -4.54338
H          1.20767        5.02038        1.31586
H          1.00338        7.47324        1.29528
H          1.44507       -0.22551        1.66461
H          2.94412       -4.04794        0.43892
H          1.68390       -2.63031        2.03890
H          5.10591       -0.54020       -3.87135
H          5.32200       -2.97251       -3.65506
H          4.30206       -4.18083       -1.74406
H          2.15724       11.66277       -2.85012
H          1.52917       11.67862       -1.19259
H          4.52811       11.56741       -1.89505
H          3.60471       12.99977       -1.29137
H          3.81899       11.55677       -0.23207
H          3.28529        0.97108       -4.89841
H          4.68190        0.78219       -6.91667
H          6.85972        1.94613       -7.04290
H          7.65601        3.29806       -5.15898
H          7.49857        4.12444       -2.99705
H          5.87069        4.59216       -2.49588
H          6.58150        3.07121       -1.86509
