100
AQx-2.sdf
C          5.35709        0.60449       -1.59776
O          6.10063        0.27903       -2.51322
C          6.03856        0.79699       -0.36345
C          6.92632        1.81968       -0.12580
C          7.57596        1.86155        1.09511
F          8.42428        2.89125        1.34105
C          7.35559        0.83558        2.03973
F          8.02355        0.88563        3.21733
C          6.45458       -0.23335        1.75682
C          5.76920       -0.21968        0.51774
C          4.75620       -1.09314       -0.17065
C          4.60379       -2.42156       -0.00325
C          3.71995       -3.23521       -0.82072
N          3.04158       -3.94342       -1.43912
C          5.54279       -3.13640        0.83331
N          6.30765       -3.68149        1.51222
C          4.20062       -0.21510       -1.27854
C          2.93112       -0.05407       -1.83337
C          2.41919        1.03119       -2.86865
S          3.27160        2.35004       -3.69363
C          1.91580        3.22558       -4.33579
C          0.85165        2.48236       -3.88926
C          1.03896        1.23406       -3.23371
C         -0.17558        0.37002       -2.88514
C         -1.30689        0.49420       -3.92040
S         -0.53133        3.42530       -3.95910
C          0.24958        4.69283       -4.46850
C          1.45253        4.50141       -4.95457
N          1.93283        5.72038       -5.40986
C          2.34673        5.75860       -6.85344
C          1.22647        6.17609       -7.82675
C          1.19292        6.69251       -4.68914
C          0.19256        5.95715       -4.04400
C         -0.54945        6.37552       -2.94842
N         -1.30683        5.49294       -2.23631
C         -1.80737        5.79886       -1.02104
C         -1.55583        7.06397       -0.49439
N         -0.83367        7.96984       -1.22050
C         -0.30453        7.64598       -2.43592
C          0.54981        8.51214       -3.14940
C          1.28297        8.15556       -4.32226
N          2.00757        9.32156       -4.68358
C          2.87032        9.60898       -5.81132
C          2.29365       10.77426       -6.59195
C          1.76863       10.28838       -3.72890
C          0.92667        9.79624       -2.80532
S          0.67606       10.90121       -1.54616
C          1.68779       12.11132       -2.21611
C          2.19175       11.66393       -3.42310
S          3.16025       12.98602       -3.98127
C          2.95074       14.13060       -2.68379
C          2.09492       13.41590       -1.74799
C          1.64374       13.90172       -0.37533
C          2.58604       13.49180        0.77386
C          3.59075       15.59294       -2.54992
C          4.82840       15.87629       -1.95204
C          5.55914       17.15695       -1.38089
C          5.68897       18.48474       -1.73257
C          6.29409       19.45646       -0.82003
N          6.75985       20.31095       -0.18825
C          5.41130       19.01547       -3.05824
N          5.27258       19.63343       -4.02692
C          6.43283       16.60084       -0.26428
C          7.20260       17.15331        0.80428
C          7.96371       16.29033        1.62296
F          8.65015       16.77829        2.68460
C          8.01575       14.91690        1.35163
F          8.74305       14.07603        2.12151
C          7.29015       14.39520        0.29872
C          6.50502       15.23855       -0.45190
C          5.62422       14.77979       -1.46369
O          5.44354       13.60078       -1.69724
H          7.08773        2.56665       -0.89177
H          6.29481       -1.01011        2.49369
H          2.15752       -0.67972       -1.37882
H          0.08922       -0.71247       -2.89951
H         -0.58426        0.60816       -1.90005
H         -1.08224       -0.13035       -4.76872
H         -2.28355        0.15545       -3.56683
H         -1.44409        1.43595       -4.35848
H          3.20051        6.37448       -7.07450
H          2.57267        4.71490       -7.20278
H          0.87063        7.19594       -7.71577
H          1.51661        6.19531       -8.89061
H          0.42847        5.45113       -7.72387
H         -2.36083        5.05013       -0.46302
H         -1.91936        7.30807        0.49367
H          3.91486        9.79830       -5.54188
H          2.89639        8.74490       -6.39659
H          2.32439       11.64417       -5.94105
H          2.78930       11.00361       -7.55973
H          1.24230       10.53511       -6.76777
H          1.56015       15.00155       -0.37231
H          0.62973       13.49054       -0.15867
H          3.58499       13.94862        0.62608
H          2.19110       13.84704        1.75064
H          2.68687       12.39249        0.87642
H          2.93712       16.44989       -2.73083
H          7.24008       18.19573        1.06835
H          7.30101       13.34017        0.07069
