138
BDTC-4Cl.sdf
C          5.19631       -2.93603        3.55135
C          5.43281       -2.58679        4.89533
C          6.63955       -1.94461        5.26847
C          7.58638       -1.63104        4.29922
C          7.29713       -1.95012        2.99137
C          6.15867       -2.59968        2.59991
C          8.08301       -1.61176        1.87000
C          7.25949       -1.83307        0.66614
C          6.24334       -2.82080        1.13855
C          7.31592       -1.19487       -0.52597
C          8.29565       -0.12051       -0.87137
C          9.61884        0.11972       -0.41748
C         10.18127        1.28874       -0.95577
C          9.29588        1.87571       -1.76362
S          7.84800        1.11300       -1.92454
C         11.48434        2.14194       -0.88694
C         10.88980        3.40611       -1.59858
C          9.68904        3.11644       -2.13925
C         11.11511        4.78345       -1.71624
C         10.00748        5.40829       -2.33975
S          8.80517        4.33184       -2.80005
C          9.80166        6.83055       -2.50850
C         12.60541        1.44031       -1.74775
C         11.97188        2.48734        0.56226
C         12.32958        1.30997        1.49216
C         13.97994        2.12958       -1.82043
O          9.19509       -1.15705        1.99742
Cl         4.19995       -2.93977        6.08709
Cl         6.97955       -1.47976        6.92315
C          5.66905       -3.84676        0.46371
C          4.82784       -4.80369        1.15082
C          5.97338       -4.13631       -0.91123
N          6.18659       -4.41311       -2.01646
N          4.16057       -5.54135        1.74532
C          8.98555       15.13025       -3.74807
S         10.01859       16.42125       -3.35352
C          8.83626       17.53497       -3.75174
C          7.67944       16.96031       -4.19293
C          7.73635       15.58279       -4.21261
C          8.60661       18.92740       -3.59258
C          7.31798       19.18645       -3.93737
C          6.56600       17.97028       -4.44082
S          9.35507       20.23926       -2.88001
C          7.91442       21.16146       -2.97091
C          6.91013       20.46438       -3.62777
C          7.69326       22.38817       -2.19678
C          6.43145       22.70953       -1.82849
C          6.06451       22.78393       -0.37178
C          5.54468       24.13786       -0.11128
C          5.44895       24.83201       -1.29734
C          5.94251       23.99439       -2.38532
C          5.16221       24.73694        1.09235
C          4.68693       26.04747        1.08737
C          4.59182       26.75926       -0.12625
C          4.97820       26.14786       -1.33384
Cl         4.00120       28.41188       -0.14552
Cl         4.22437       26.76116        2.62604
O          6.09866       24.37776       -3.53604
C          6.13347       21.75318        0.52928
C          5.82179       21.89402        1.93214
C          6.49367       20.40065        0.20013
C          6.18847       18.10229       -5.95058
C          5.33824       17.65551       -3.51710
C          4.25084       18.73407       -3.35678
C          5.41688       16.91839       -6.56216
N          5.58214       21.95069        3.06488
N          6.77015       19.28959        0.02404
S          8.29672        7.56076       -2.57388
C          8.87708        9.11632       -2.78710
C         10.29043        9.08559       -2.82507
C         10.77856        7.77450       -2.63408
C          8.10812       10.28974       -2.89293
C          8.87137       11.46817       -3.11750
C         10.27571       11.44149       -3.24203
C         11.04822       10.26923       -3.07631
C          8.37277       12.76379       -3.28591
C          9.31097       13.72491       -3.54113
S         10.81685       13.01596       -3.54812
C         12.55731       10.29459       -3.17603
C         13.35927       11.16342       -3.93833
C         14.72816       10.94674       -3.84011
C         15.05570        9.91961       -2.98452
S         13.63171        9.27124       -2.36805
C         16.44069        9.46348       -2.66865
C         16.99652       10.22328       -1.47050
C          6.58766       10.26862       -2.79168
C          5.69303        9.23171       -3.13314
C          4.35286        9.50351       -2.94097
C          4.12157       10.74967       -2.42058
S          5.60381       11.51694       -2.21455
C          2.78353       11.31045       -2.09861
C          1.91523       11.37372       -3.35151
H          4.27185       -3.41332        3.26909
H          8.50996       -1.11567        4.53810
H          6.51908       -1.38961       -1.25319
H         10.16224       -0.48331        0.25514
H         11.93731        5.33469       -1.28316
H         12.81791        0.42130       -1.35269
H         12.24789        1.32541       -2.79582
H         12.90013        3.10293        0.48862
H         11.21344        3.08727        1.09935
H         13.06267        0.60873        1.10317
H         12.77487        1.63086        2.43382
H         11.47729        0.74181        1.85879
H         14.56828        1.97998       -0.91510
H         14.63945        1.68400       -2.56701
H         13.98455        3.19184       -2.06796
H          6.90857       14.95053       -4.49775
H          5.91015       20.82657       -3.74589
H          8.42311       22.32788       -1.40112
H          5.22571       24.23695        2.03649
H          4.91804       26.68841       -2.26886
H          5.53348       18.98386       -6.09900
H          7.11910       18.25626       -6.54532
H          4.84627       16.73644       -3.89806
H          5.67747       17.45709       -2.47936
H          3.81372       19.08775       -4.28320
H          3.36032       18.35128       -2.85153
H          4.56961       19.60951       -2.78128
H          4.42653       16.77610       -6.09740
H          5.28971       17.03368       -7.64461
H          5.93230       15.96008       -6.54587
H         11.79185        7.44345       -2.61463
H          7.37381       13.08589       -3.21902
H         13.03941       11.94160       -4.59636
H         15.44188       11.54304       -4.39075
H         16.42493        8.37619       -2.45058
H         17.09194        9.64028       -3.55267
H         16.36498       10.04663       -0.57456
H         18.02814        9.87254       -1.25237
H         17.02764       11.31255       -1.68622
H          5.87868        8.26983       -3.54599
H          3.59445        8.77618       -3.19032
H          2.29976       10.65935       -1.34004
H          2.91107       12.32671       -1.67913
H          1.77547       10.35661       -3.77750
H          0.92070       11.79078       -3.09100
H          2.38947       12.02538       -4.11509
