153
BID-4F.sdf
C          5.26662       -1.06440        1.05098
C          4.02347       -1.15453        0.39049
C          3.47459       -2.46164        0.44749
C          4.17599       -3.48971        1.12016
C          5.44464       -3.37297        1.67171
C          6.02869       -2.11012        1.62831
C          3.72131       -4.79868        1.39479
C          4.64654       -5.56440        2.01369
C          5.94195       -4.72314        2.28169
C          5.65280        0.24092        1.01402
C          4.75766        1.02583        0.37780
C          3.43243        0.31149       -0.04869
S          2.28189       -5.58194        1.11759
C          2.75152       -7.06960        1.75443
C          4.13724       -6.88686        2.19234
S          7.14652        0.86255        1.34291
C          6.75765        2.22670        0.46859
C          5.46392        2.16895       -0.01134
C          7.21091       -5.22214        1.48352
C          6.28889       -4.50011        3.81344
C          2.07059        0.25987        0.80074
C          2.99177        1.16803       -1.37093
C          1.72562       -8.24646        1.65361
C          1.49758       -9.35846        2.45943
C          2.31033       -9.26045        3.66083
C          3.50473       -9.98339        3.36903
C          3.24677      -10.91713        2.42500
C          1.86994      -10.76871        1.95270
C          4.78482       -9.64378        3.73879
C          5.80983      -10.08726        2.88440
C          5.54216      -11.03106        1.88145
C          4.27172      -11.56502        1.76971
O          2.20651       -8.36056        4.47743
C          1.24391      -11.80321        1.28788
C         -0.08340      -11.83847        0.73653
C          1.89819      -13.10494        1.22210
N          2.44906      -14.12337        1.18914
N         -1.12985      -11.98460        0.26352
C          7.72223        3.26954        0.15621
C          7.32242        4.60488        0.00265
C          8.29724        5.61136       -0.18554
C          9.65762        5.27256       -0.25799
C         10.04034        3.92752       -0.15670
C          9.09049        2.94265        0.05728
N          6.03859        5.04240        0.10769
S          6.19727        6.67514       -0.06320
N          7.82651        6.88513       -0.23766
C         14.11518        7.64928        1.03811
C         13.81123        7.93042        2.38952
C         14.83664        7.97231        3.30640
C         16.12934        7.96535        2.81984
C         16.48154        7.89907        1.46810
C         15.44485        7.64352        0.52482
C         17.25325        8.26884        3.60386
C         18.29193        8.57321        2.82139
C         18.01902        8.14606        1.35862
C         12.84648        7.28956        0.46086
C         11.86924        7.48585        1.38164
C         12.30632        8.11542        2.66499
S         17.38303        8.80037        5.17236
C         18.82653        9.64272        4.89153
C         19.20383        9.40539        3.52804
S         12.27903        6.35028       -0.81947
C         10.70015        6.28192       -0.14350
C         10.64940        6.97803        1.04365
C         18.74899        6.79592        1.01540
C         18.42118        9.28938        0.35979
C         11.73324        9.58948        2.47324
C         11.68972        7.29709        3.87811
C         19.40695       10.48698        6.03224
C         20.73804       10.77298        6.27536
C         21.21093        9.50358        6.87554
C         21.74334        8.75355        5.73383
C         22.01096        9.62461        4.70709
C         21.75205       10.94284        5.19288
C         21.85618        7.39061        5.55024
C         22.22802        6.93500        4.27311
C         22.51376        7.84879        3.23141
C         22.41804        9.21220        3.45153
O         20.76865        8.98241        7.89112
C         22.57250       11.99458        4.90609
C         22.54474       13.25660        5.59821
C         23.64326       11.85389        3.93611
N         24.48325       11.69724        3.15290
N         22.58238       14.29317        6.11132
F          7.03621       -9.53573        2.97212
F          6.48245      -11.39186        0.97444
F         22.83534        7.41834        1.99056
F         22.26072        5.60883        4.02831
C         11.92553        7.65471        5.36686
C         11.87111       10.73011        3.49075
C         17.70280       10.64103        0.51264
C         20.27143        6.80306        1.15246
C          0.84729       -0.53216        0.15765
C          2.69862        2.75738       -1.26360
C          7.69626       -6.66248        1.72700
C          5.28234       -3.75566        4.72119
F         11.34709        3.56064       -0.13826
F          9.53791        1.66764        0.19481
H          2.52360       -2.73914        0.08354
H          7.00371       -1.90948        2.06457
H          4.80329       -7.61289        2.57493
H          5.20772        2.90000       -0.70454
H          7.00410       -5.16271        0.39367
H          8.06966       -4.53920        1.68929
H          6.49174       -5.48181        4.29528
H          7.23042       -3.91357        3.88712
H          2.24654       -0.25701        1.76829
H          1.67259        1.25737        1.03648
H          3.78228        1.11903       -2.13963
H          2.06469        0.76994       -1.82390
H          0.87122       -7.97322        1.04817
H          4.94819       -8.87148        4.47161
H          4.35544      -12.55745        2.21157
H         14.65722        8.06920        4.36067
H         15.62649        7.50167       -0.53609
H         20.02324        9.88777        3.04298
H          9.81033        6.96338        1.72251
H         18.37625        5.98042        1.67954
H         18.53780        6.51120       -0.03265
H         19.50123        9.50788        0.50171
H         18.27788        8.95650       -0.69105
H         12.12725       10.01395        1.51639
H         10.63266        9.48608        2.34015
H         10.58810        7.36368        3.77110
H         11.98058        6.22897        3.77981
H         18.81088       10.29371        6.92826
H         21.59942        6.71071        6.34859
H         22.57266        9.91984        2.64593
H         11.71177        8.70037        5.64489
H         11.19780        7.06926        5.97760
H         12.92577        7.35423        5.73425
H         12.89494       11.14764        3.55681
H         11.22458       11.57126        3.13457
H         11.47872       10.46114        4.48314
H         17.73053       11.01546        1.55407
H         18.13175       11.38636       -0.17458
H         16.67640       10.65072        0.14492
H         20.55404        6.71153        2.19744
H         20.73146        5.87438        0.78245
H         20.74078        7.67890        0.65612
H          1.03327       -1.52560       -0.19779
H          0.06015       -0.76317        0.89383
H          0.32837       -0.10643       -0.71869
H          1.98541        3.18584       -0.54529
H          3.48200        3.47611       -1.07961
H          2.38962        3.15777       -2.24155
H          6.93308       -7.39960        1.41508
H          8.62630       -6.85388        1.15439
H          7.99755       -6.88112        2.74959
H          4.32926       -4.26452        4.87644
H          5.67916       -3.70308        5.75739
H          5.09779       -2.72400        4.36338
