85
BPT-4F.sdf
C         -0.84630       -0.78978        0.69542
O         -1.43144        0.04782        1.35195
C         -1.58442       -1.80462        0.10412
C         -2.88573       -2.15142        0.44126
C         -3.44944       -3.22974       -0.22213
F         -4.70948       -3.61618        0.08912
C         -2.69738       -3.92085       -1.19240
F         -3.23446       -4.99634       -1.80861
C         -1.38579       -3.51207       -1.51831
C         -0.83284       -2.41908       -0.85454
C          0.51702       -1.77834       -0.93931
C          1.42824       -1.90852       -1.94407
C          2.75112       -1.32993       -1.91391
N          3.80095       -0.84435       -1.84739
C          1.10688       -2.59748       -3.16783
N          0.86035       -3.16390       -4.18925
C          0.58910       -0.89998        0.26207
C          1.69976       -0.33616        0.79532
C          1.67858        0.46165        2.01212
S          0.58604        0.26047        3.27965
C          1.23825        1.47145        4.20289
C          2.28374        2.02069        3.54429
C          2.53422        1.50294        2.33303
S          3.04622        3.29078        4.31879
C          1.88091        3.09122        5.52654
C          0.97676        2.12877        5.37532
N         -0.01678        2.10680        6.32553
C         -1.12060        1.08167        6.12793
C          0.27313        3.27885        7.08182
C          1.52296        3.80678        6.55939
C          2.16705        4.98319        6.90574
N          3.32291        5.46878        6.37372
S          3.43251        6.96330        7.07233
N          2.05254        7.04120        7.97365
C          1.50033        5.81633        7.75249
C          0.27854        5.39828        8.22144
C         -0.39893        4.18205        8.07033
N         -1.61410        4.35389        8.79348
C         -2.78379        3.44191        8.96887
C         -3.82220        3.70865        7.91697
C         -1.62694        5.72305        9.16169
C         -0.60158        6.26594        8.55643
S         -1.37528        6.81771        7.11987
C         -2.92787        6.98281        7.76711
C         -2.68144        6.71685        9.10721
S         -2.35149        8.35931        9.63105
C         -2.80779        9.22888        8.19131
C         -3.52397        8.22623        7.49517
C         -1.68171        9.87265        7.32161
C         -1.84772       10.99898        6.56078
C         -1.24207       11.28249        5.21690
C         -0.06716       11.82024        4.76548
C          0.01441       12.22519        3.37356
N          0.01241       12.52111        2.25364
C          1.06016       12.22714        5.56538
N          2.01080       12.59207        6.11704
C         -2.42293       11.23453        4.35701
C         -2.58875       10.85426        3.02189
C         -3.89032       10.86741        2.50245
F         -4.11582       10.39479        1.25322
C         -4.96774       11.33406        3.28861
F         -6.22464       11.32477        2.79296
C         -4.76358       11.74323        4.61258
C         -3.49514       11.63162        5.13107
C         -3.10000       11.71910        6.52542
O         -3.84173       11.92420        7.46992
C         -2.24196        1.61089        5.32006
H         -3.43108       -1.61310        1.21647
H         -0.81842       -4.06514       -2.24184
H          2.68631       -0.51694        0.38802
H          3.29033        1.97451        1.80328
H         -0.76651        0.25726        5.48409
H         -1.55777        0.55187        6.97878
H         -2.52474        2.39837        8.80383
H         -3.21142        3.48217       10.00637
H         -3.33024        3.86408        6.98077
H         -4.86379        3.29334        7.99961
H         -3.92694        4.72465        7.76464
H         -4.50234        8.14378        7.99030
H         -0.85207        9.25714        6.99408
H         -1.76152       10.48316        2.42520
H         -5.57433       12.05942        5.25000
H         -1.71322        2.21114        4.59303
H         -2.93445        0.93939        4.76674
H         -2.88885        2.09359        6.02628
