138
Br-ITIC.sdf
C         -2.19233        0.60547        1.61541
O         -2.91531        1.47664        2.04014
C         -0.97129        0.41538        2.25808
C         -0.47288        1.23311        3.26968
C          0.73684        0.88013        3.84637
C          1.41001       -0.26780        3.40086
C          0.86666       -1.06635        2.37572
C         -0.35978       -0.71227        1.79830
C         -1.21393       -1.35594        0.74058
C         -0.89316       -2.48264        0.03876
C         -1.71900       -3.05231       -0.98656
N         -2.32685       -3.57001       -1.82377
C          0.34916       -3.19800        0.22923
N          1.35297       -3.74974        0.40546
C         -2.45440       -0.49110        0.63383
C         -3.58285       -0.71101       -0.11758
C         -4.78111        0.17464       -0.19045
C         -4.81100        1.55784       -0.03707
C         -6.04194        2.12102       -0.16262
C         -7.03411        1.24858       -0.44075
S         -6.38096       -0.31193       -0.51193
C         -8.28563        1.86399       -0.42753
C         -9.72347        1.39457       -0.23245
C        -10.11943        0.16215       -1.13287
C        -10.55970       -1.11840       -0.65962
C        -10.85731       -2.19818       -1.47626
C        -10.77088       -2.06568       -2.85171
C        -11.16123       -3.21118       -3.77448
C        -12.62932       -3.65231       -3.61727
C        -10.33446       -0.83162       -3.36343
C        -10.02214        0.25744       -2.52137
C         -9.58729        1.02890        1.32172
C         -9.84790        1.97858        2.32861
C         -9.42652        1.81559        3.62943
C         -8.72108        0.69336        4.01616
C         -8.04014        0.68294        5.33794
C         -8.20187        1.96281        6.13727
C         -8.55350       -0.33437        3.11389
C         -8.97637       -0.15901        1.81953
C        -10.39263        2.85378       -0.43304
C         -9.44303        3.85146       -0.13583
C         -8.16438        3.21166       -0.16600
S         -6.56856        3.71801        0.06020
C         -9.74996        5.21034        0.11624
C        -11.08416        5.61702       -0.03311
C        -11.81123        6.95102        0.31706
C        -11.34861        7.53526        1.69655
C        -10.26313        8.42625        1.77431
C         -9.79859        9.01923        2.91209
C        -10.37243        8.71246        4.11878
C         -9.81372        9.38091        5.34273
C        -10.88339       10.20784        6.04715
C        -11.43217        7.78350        4.14349
C        -11.92480        7.20667        2.94335
C        -11.65602        7.96859       -0.91694
C        -12.78682        8.48016       -1.60181
C        -12.67350        9.22375       -2.78867
C        -11.42670        9.56116       -3.31496
C        -11.29647       10.27507       -4.63480
C        -10.59355       11.61449       -4.48989
C        -10.29862        9.16359       -2.63187
C        -10.41115        8.36556       -1.50866
C        -13.27374        6.32789        0.30057
C        -13.22146        5.41825       -0.69235
C        -11.97997        4.71599       -0.58636
C        -11.70095        3.31958       -0.75586
S        -14.60031        5.33322       -1.61459
C        -15.47751        6.20164       -0.48102
C        -14.65583        6.58730        0.60266
S        -15.31747        5.56449        1.82061
C        -16.53112        4.74490        0.89112
C        -16.63299        5.46078       -0.28993
C        -17.06653        3.27909        1.04284
C        -17.10274        2.62367        2.23873
C        -17.62627        1.32647        2.86549
C        -17.98501        0.12810        2.39700
C        -17.24138       -0.43865        1.31725
N        -16.61297       -0.85830        0.43714
C        -18.89350       -0.70157        3.15978
N        -19.62973       -1.30346        3.81881
C        -17.29599        1.45432        4.32863
C        -17.41571        0.66935        5.51025
C        -16.81235        1.18113        6.68359
C        -16.09291        2.36699        6.64737
C        -15.92827        3.08157        5.49776
C        -16.58322        2.61256        4.41784
C        -16.81161        3.41325        3.34041
O        -17.61505        4.30422        3.57200
Br       -16.83426        0.36832        8.40039
Br         3.06509       -0.75586        4.20858
H         -1.01719        2.11478        3.60959
H          1.14546        1.48973        4.63821
H          1.40892       -1.93599        2.08119
H         -3.67394       -1.61127       -0.70612
H         -4.04356        2.21164        0.13755
H        -10.73110       -1.40639        0.31973
H        -11.17252       -3.13643       -1.01331
H        -11.02504       -2.89300       -4.82977
H        -10.50376       -4.09176       -3.60186
H        -13.33158       -2.82638       -3.86419
H        -12.85597       -4.47807       -4.31847
H        -12.84085       -4.00376       -2.58190
H        -10.24047       -0.70760       -4.42573
H         -9.71372        1.18679       -2.96003
H        -10.29386        2.91793        2.16751
H         -9.59757        2.62640        4.30823
H         -8.37757       -0.19806        5.91722
H         -6.95856        0.53399        5.14149
H         -9.26999        2.12255        6.39206
H         -7.61048        1.85481        7.06569
H         -7.80071        2.83819        5.58331
H         -8.01046       -1.24767        3.34759
H         -8.67014       -0.98418        1.29442
H         -8.98193        5.89042        0.45297
H         -9.68582        8.72971        0.99407
H         -8.96720        9.71976        2.82648
H         -9.38180        8.62227        6.02594
H         -8.98807       10.07073        5.05190
H        -11.70637        9.55240        6.39893
H        -10.43468       10.72629        6.91830
H        -11.29837       10.97676        5.35844
H        -11.87353        7.51588        5.08969
H        -12.73743        6.50253        3.00647
H        -13.78530        8.27727       -1.28975
H        -13.56996        9.51042       -3.31474
H        -10.73479        9.64167       -5.36034
H        -12.30752       10.42998       -5.06617
H         -9.56363       11.46518       -4.10244
H        -10.53400       12.10717       -5.48248
H        -11.16243       12.27057       -3.79847
H         -9.30371        9.41514       -2.99333
H         -9.44242        8.09068       -1.24076
H        -12.50068        2.64327       -1.02492
H        -17.19310        5.10382       -1.13601
H        -17.41584        2.76241        0.15176
H        -17.94226       -0.26782        5.58752
H        -15.69823        2.74434        7.54512
H        -15.36778        4.01095        5.42646
