67
BT_TPI-n12_2.sdf
C         -0.68208       -1.43678        0.02718
C         -1.84619       -0.64419       -0.03048
C         -1.78402        0.75741       -0.06138
C         -0.55581        1.44924       -0.03705
C          0.61938        0.66836        0.01855
C          0.55552       -0.76091        0.05062
N          1.87324        1.18762        0.04343
S          2.83525       -0.14811        0.10356
N          1.75747       -1.39302        0.10142
C         -0.55238        2.94950       -0.07167
C         -0.77789       -2.93205        0.06328
C          0.20675       -6.80406        0.26142
C          1.60825       -6.96829        0.39680
C          2.11946       -8.25843        0.49767
C          1.30644       -9.36357        0.46544
C         -0.07241       -9.25065        0.32667
C         -0.62301       -7.95975        0.22551
C          3.48486       -8.75568        0.65152
N          3.47307      -10.11209        0.71705
C          2.18428      -10.52400        0.60299
O          1.82638      -11.69201        0.61907
O          4.49269       -8.06766        0.70753
C          4.63430      -10.97585        0.86873
C          5.34187      -10.72459        2.19937
C         -1.80194        6.75337       -0.23966
C         -1.02309        7.94638       -0.23516
C         -1.62949        9.21082       -0.31207
C         -3.01408        9.26407       -0.39326
C         -3.78217        8.12609       -0.39829
C         -3.21304        6.85544       -0.32230
C         -3.93877       10.39000       -0.48919
N         -5.21354        9.92938       -0.54615
C         -5.17105        8.57231       -0.49759
C         -6.40926       10.75073       -0.65930
C         -7.31141       10.58661        0.56149
O         -6.15212        7.84623       -0.54486
O         -3.62584       11.57046       -0.51683
C         -1.94371       -3.70324        0.01742
C         -1.71887       -5.08780        0.07406
C         -0.37215       -5.43733        0.16865
S          0.51493       -4.00974        0.17598
S         -1.93235        3.92457       -0.16390
C         -1.14839        5.41862       -0.16479
C          0.21902        5.16887       -0.08913
C          0.54890        3.81197       -0.03798
H         -2.82667       -1.09625       -0.05005
H         -2.72024        1.29775       -0.10347
H          2.28515       -6.12508        0.43070
H         -0.70350      -10.12934        0.30104
H         -1.69468       -7.87454        0.12149
H          4.32661      -12.04387        0.84313
H          5.33944      -10.80144        0.02795
H          4.64321      -10.90852        3.04290
H          6.20780      -11.41305        2.29529
H          5.71889       -9.68329        2.26101
H          0.05406        7.91536       -0.17467
H         -1.03490       10.11516       -0.31042
H         -3.85048        5.98119       -0.33039
H         -6.13389       11.82510       -0.73629
H         -6.96396       10.47265       -1.58104
H         -6.76238       10.88018        1.48125
H         -8.20301       11.23957        0.45321
H         -7.65778        9.53801        0.66342
H         -2.94266       -3.29922       -0.05401
H         -2.53282       -5.79786        0.05080
H          0.98278        5.93175       -0.07182
H          1.58115        3.51609        0.02130
