61
BT_TTI-n12_2.sdf
C         -0.68132       -1.45394       -0.08596
C         -1.88596       -0.73316        0.04487
C         -1.91077        0.66672        0.08654
C         -0.73244        1.42995       -0.01704
C          0.48306        0.72867       -0.14825
C          0.51079       -0.70249       -0.17519
N          1.69513        1.33509       -0.24331
S          2.73714        0.06393       -0.36086
N          1.74581       -1.25169       -0.30007
C         -0.80044        2.92318        0.00098
C         -0.72710       -2.95085       -0.13324
C         -2.80293       -9.01618       -0.45932
C         -3.85055       -8.16782       -0.44621
C         -3.32915      -10.36735       -0.56371
N         -4.68826      -10.30344       -0.60951
C         -5.05081       -8.99053       -0.54262
O         -6.20182       -8.58158       -0.57966
O         -2.67437      -11.39705       -0.60878
C         -5.58953      -11.43837       -0.73143
C         -6.50130      -11.55636        0.48783
C          1.52059        8.42957       -1.10448
C          2.51782        9.36740       -1.60747
N          2.07187       10.64008       -1.41259
C          0.84740       10.57135       -0.82019
C          2.77394       11.85557       -1.79176
C          3.13962       12.68630       -0.56459
O          0.15927       11.53448       -0.52010
O          3.58337        9.07402       -2.12753
C          0.34255       -3.85453       -0.18305
C         -0.04773       -5.19798       -0.23671
C         -1.42271       -5.37684       -0.23525
S         -2.15048       -3.86486       -0.15652
S          0.44089        3.98261       -0.43632
C         -0.41081        5.40718       -0.18108
C         -1.68437        5.08183        0.26554
C         -1.90665        3.70181        0.35760
C         -3.52114       -6.82203       -0.35785
C         -2.12580       -6.66627       -0.30792
S         -1.34796       -8.19334       -0.37002
C          0.49932        9.17227       -0.63100
S         -0.73773        8.20843       -0.04414
C          0.10696        6.76344       -0.41591
C          1.35111        7.05657       -0.99970
H         -2.83432       -1.24833        0.11684
H         -2.87575        1.14308        0.18086
H         -6.20262      -11.32630       -1.65138
H         -5.01035      -12.38369       -0.81735
H         -7.13973      -10.65607        0.59640
H         -7.16274      -12.44023        0.37089
H         -5.89128      -11.68362        1.40716
H          3.71594       11.60676       -2.32691
H          2.13621       12.45160       -2.47982
H          3.79649       12.09541        0.10862
H          3.68452       13.59942       -0.88433
H          2.23236       12.99661       -0.00722
H          1.38673       -3.59298       -0.18314
H          0.66338       -6.01208       -0.28354
H         -2.44249        5.81551        0.50590
H         -2.85576        3.30327        0.68522
H         -4.24243       -6.01594       -0.34027
H          2.07247        6.32429       -1.33751
