146
BTA17.sdf
C          2.09449        1.30543       -0.82641
C          1.02937        2.21814       -0.77533
C         -0.18794        1.55668       -0.80361
C         -0.10687        0.19622       -0.87654
S          1.47937       -0.29298       -0.92447
C         -1.33049       -0.43660       -0.89795
C         -1.81867       -1.87281       -0.97128
C         -1.39393       -2.62643       -2.25954
C         -0.62409       -2.00405       -3.26973
C         -0.22787       -2.69611       -4.41668
C         -0.58482       -4.03527       -4.60131
C         -0.13607       -4.77364       -5.84025
C          1.21005       -5.45817       -5.61398
C         -1.35337       -4.67327       -3.61759
C         -1.75188       -3.98070       -2.46313
C         -1.43946       -2.64769        0.33593
C         -2.30578       -2.67874        1.46629
C         -1.97495       -3.38205        2.63226
C         -0.77050       -4.08510        2.72132
C         -0.42091       -4.84632        3.98250
C         -0.96037       -6.27382        3.93574
C          0.10312       -4.06790        1.62410
C         -0.22095       -3.35764        0.45208
C         -3.31363       -1.54203       -0.98431
C         -3.60529       -0.17742       -0.83777
C         -2.34178        0.48818       -0.83305
S         -1.79550        2.09298       -0.74786
C         -4.92418        0.31766       -0.66936
C         -5.96222       -0.64638       -0.63493
C         -7.48723       -0.51828       -0.32750
C         -7.64240        0.10292        1.08671
C         -7.70891        1.50091        1.25283
C         -7.82515        2.07791        2.52134
C         -7.87516        1.28553        3.68208
C         -7.96433        1.89689        5.07392
C         -8.70905        3.23574        5.12495
C         -7.79772       -0.10810        3.53503
C         -7.68502       -0.68955        2.26285
C         -8.26458        0.26424       -1.42601
C         -7.61113        0.78287       -2.57403
C         -8.30153        1.52014       -3.54555
C         -9.67209        1.77386       -3.40668
C        -10.41786        2.60861       -4.43174
C        -11.55492        1.83160       -5.09549
C        -10.33862        1.25809       -2.28409
C         -9.65100        0.50901       -1.31186
C         -7.82706       -2.02928       -0.32225
C         -6.74765       -2.76733       -0.69716
C         -5.62144       -1.97497       -0.84684
C         -4.34216       -2.45716       -1.02894
S         -6.87858       -4.44069       -0.65973
C         -8.41320       -4.24044       -0.04615
C         -8.82041       -2.93271        0.07353
S        -10.32867       -2.92244        0.81625
C        -10.38385       -4.64401        1.00732
C         -9.24605       -5.20434        0.44501
C        -11.39061       -5.44584        1.74381
C        -11.26891       -6.85441        1.91485
C        -12.22692       -7.59111        2.65046
C        -13.34898       -6.95299        3.22585
C        -13.41124       -5.56518        3.05468
C        -12.48725       -4.85057        2.34904
N        -14.31312       -4.70459        3.52743
N        -13.95884       -3.51463        3.07561
N        -12.84254       -3.55488        2.36194
C          3.53411        1.65137       -0.76948
C          3.99771        2.98384       -0.65192
C          5.38456        3.26955       -0.59232
C          6.35163        2.23498       -0.66380
C          5.84422        0.93218       -0.73892
C          4.51129        0.65882       -0.79845
N          6.50106       -0.23429       -0.74248
N          5.57979       -1.17617       -0.84888
N          4.35432       -0.67178       -0.88024
C          7.81059        2.57521       -0.64449
C          8.83975        1.84253       -1.14971
C        -14.36525       -7.75773        3.97734
C        -15.67486       -7.45580        4.18092
C        -14.76139       -2.32494        3.28945
C        -14.92573       -2.06080        4.77801
C          5.90987       -2.59266       -0.94672
C          4.65779       -3.44925       -1.09211
C        -16.51760       -8.35734        4.91811
C        -16.37415       -6.34430        3.57896
C         10.18586        2.34751       -1.07890
C          8.69820        0.63136       -1.92180
N        -16.93794       -5.46056        3.08548
N        -17.21532       -9.05691        5.52078
N          8.59460       -0.34437       -2.53844
N         11.27809        2.72468       -1.02404
H          1.11905        3.29150       -0.70597
H         -0.31663       -0.97510       -3.19707
H          0.36538       -2.18228       -5.16315
H         -0.89439       -5.53119       -6.13450
H         -0.03621       -4.06365       -6.69104
H          1.13352       -6.20331       -4.79419
H          1.52513       -5.98254       -6.54160
H          1.98727       -4.70753       -5.35403
H         -1.63908       -5.71114       -3.74357
H         -2.32615       -4.52083       -1.72515
H         -3.25184       -2.15700        1.47392
H         -2.66195       -3.37823        3.47226
H          0.68240       -4.88254        4.11472
H         -0.83606       -4.32702        4.87550
H         -0.52733       -6.81890        3.07021
H         -0.68097       -6.81285        4.86702
H         -2.06757       -6.26902        3.84896
H          1.03758       -4.61343        1.67941
H          0.48353       -3.38092       -0.36701
H         -5.11507        1.37193       -0.51008
H         -7.67183        2.16554        0.40124
H         -7.86769        3.15305        2.57613
H         -8.48343        1.19407        5.76477
H         -6.93514        2.04037        5.46797
H         -9.74934        3.10751        4.75737
H         -8.73575        3.61951        6.16559
H         -8.19312        4.00863        4.52114
H         -7.81586       -0.75222        4.40838
H         -7.61582       -1.76619        2.21811
H         -6.55670        0.63108       -2.74138
H         -7.75610        1.90109       -4.40250
H        -10.84310        3.50345       -3.92721
H         -9.73182        2.97092       -5.23068
H        -12.29074        1.48746       -4.33977
H        -12.08943        2.48806       -5.81578
H        -11.15431        0.95278       -5.64254
H        -11.39667        1.44910       -2.15920
H        -10.20718        0.14235       -0.46051
H         -4.16747       -3.51493       -1.11858
H         -8.97278       -6.24783        0.43960
H        -10.44287       -7.40745        1.49249
H        -12.09421       -8.66339        2.74632
H          3.30103        3.80966       -0.60857
H          5.69362        4.30520       -0.51332
H          8.06063        3.54008       -0.20706
H        -14.01009       -8.70561        4.37898
H        -14.28387       -1.45436        2.79491
H        -15.76252       -2.49204        2.83486
H        -13.93004       -1.91067        5.24392
H        -15.54579       -1.15299        4.92383
H        -15.43277       -2.92108        5.26807
H          6.56240       -2.74812       -1.83386
H          6.46792       -2.89878       -0.03689
H          4.10731       -3.16219       -2.01419
H          4.94309       -4.51853       -1.15955
H          3.99840       -3.30175       -0.21074
