174
BTA4.sdf
C          2.82936       -1.31464       -0.20022
C          2.77314       -0.74071        1.06997
C          1.91897        0.37413        1.35775
C          0.91325        0.69815        0.36747
C          0.74004       -0.27149       -0.58949
C          1.66532       -1.20484       -0.95989
C          4.00063       -2.29917       -0.32728
C          3.88196       -2.77591        1.07036
C          3.35747       -1.82977        1.91022
C          4.13048       -4.03118        1.59665
C          3.70926       -4.16950        2.91428
S          3.04131       -2.63092        3.39262
C         -0.31968        1.65900        0.22357
C         -1.34042        0.55415       -0.08829
C         -0.67093       -0.43278       -0.72305
C         -2.70084        0.22527        0.12487
C         -2.99210       -1.11792       -0.26233
S         -1.58883       -1.82061       -0.91012
C          3.75673       -5.50227        3.63691
C         -4.27658       -1.87902       -0.08955
C         -0.49902        2.52490        1.48748
C         -0.25194        2.49816       -1.15701
C          3.73656       -3.33610       -1.46490
C          5.37821       -1.52346       -0.36215
C          2.84043       -5.84815        4.63162
C          2.85053       -7.11761        5.24351
C          3.79976       -8.15653        4.99051
C          4.70315       -7.76818        3.96301
C          4.67072       -6.52593        3.32707
C         -4.31050       -3.28584        0.08642
C         -5.54069       -3.99343        0.23658
C         -6.80430       -3.33890        0.19966
C         -6.71095       -1.93618        0.00262
C         -5.51613       -1.25997       -0.11109
N          5.68516       -8.48559        3.39116
N          6.21577       -7.69511        2.45963
N          5.63666       -6.50164        2.40425
N         -7.68730       -1.02670       -0.15385
N         -7.08965        0.14368       -0.29730
N         -5.76920        0.03755       -0.29766
C          3.83575       -9.57952        5.65838
C          2.99718      -10.17021        6.61897
C         -8.10755       -4.15190        0.31722
C         -9.32832       -3.76220        0.81665
C         -7.80878        1.40218       -0.41555
C          7.28907       -8.11949        1.56767
C         -9.66086       -2.57843        1.45094
N        -11.00942       -2.30582        1.72129
C        -11.77933       -3.43720        1.42680
S        -10.75047       -4.64974        0.79536
C          1.93989       -9.60831        7.34127
N          1.07189      -10.42573        8.05744
C          1.61436      -11.71184        8.20351
S          3.01876      -11.77666        7.18949
C         -0.16234       -9.79318        8.59733
O          1.82822       -8.42181        7.45217
C          1.21248      -12.82052        8.98821
C          1.98664      -14.00363        9.09414
C          0.10261      -13.08329        9.90005
C          4.15287       -3.05500       -2.78306
C          3.79082       -3.85701       -3.85683
C          3.03002       -5.00684       -3.67325
C          2.65008       -5.36178       -2.36681
C          2.98151       -4.52690       -1.27883
C          6.56697       -2.12025        0.14230
C          7.78308       -1.41735        0.20319
C          7.87077       -0.09628       -0.24905
C          6.71491        0.52340       -0.73828
C          5.48799       -0.16705       -0.78270
C         -0.44095        3.92319        1.38608
C         -0.58550        4.74555        2.48553
C         -0.74612        4.21474        3.76450
C         -0.75274        2.81916        3.91321
C         -0.65858        1.98258        2.78645
C         -1.45097        2.92129       -1.81208
C         -1.43698        3.56050       -3.07362
C         -0.23206        3.82773       -3.73443
C          0.95644        3.45365       -3.11154
C          0.95335        2.79868       -1.86698
O         -8.78341       -1.82173        1.76289
C        -11.38660       -0.94878        2.19556
C        -13.13269       -3.69565        1.57114
C        -13.69516       -5.00163        1.30832
C        -14.19682       -2.84077        2.01289
N          2.51068      -15.01515        9.27539
N         -0.80180      -13.24435       10.61596
N        -15.09786       -2.20118        2.36211
N        -14.21863       -6.01605        1.11898
C         -0.89820        5.14823        4.93914
C         -0.20300        4.44428       -5.12207
C          9.18445        0.65554       -0.18421
C          2.62829       -5.79441       -4.89708
C         -0.84573       -8.66705        8.05232
C         -1.98730       -8.14135        8.71310
C         -2.43562       -8.69390        9.92340
C         -1.80798       -9.80605       10.40435
C         -0.74304      -10.28529        9.70885
C        -12.64218       -0.36965        1.92085
C        -12.98266        0.92007        2.31944
C        -12.04817        1.72694        2.94697
C        -10.77755        1.23402        3.19047
C        -10.45593       -0.07466        2.84559
C         -6.82894        2.55159       -0.62084
C         -0.16615        5.96770       -5.08932
C         -2.22947        4.94876        5.66694
C         10.00505        0.45541       -1.45658
C          3.15653       -7.22440       -4.87470
C          7.69737       -7.00055        0.61230
H          1.95433        0.83258        2.33394
H          1.38256       -1.88790       -1.73221
H          4.52395       -4.81946        0.97914
H         -3.40805        0.88294        0.60494
H          2.05651       -5.17006        4.94050
H          2.03690       -7.17123        5.87048
H         -3.38753       -3.84953        0.13478
H         -5.48794       -5.05819        0.40417
H          4.60528      -10.24098        5.24370
H         -8.07255       -5.16332       -0.08734
H         -8.52573        1.34734       -1.26337
H         -8.37747        1.57637        0.52128
H          8.16476       -8.43266        2.17273
H          6.93492       -8.98514        0.96980
H          4.74502       -2.19978       -3.03667
H          4.09820       -3.55163       -4.84855
H          2.07285       -6.26279       -2.19307
H          2.61415       -4.81316       -0.30577
H          6.56474       -3.12760        0.53077
H          8.66177       -1.90117        0.61679
H          6.76746        1.55284       -1.07647
H          4.63090        0.38509       -1.14125
H         -0.27606        4.42794        0.45849
H         -0.55966        5.80606        2.30249
H         -0.83875        2.37407        4.89552
H         -0.70153        0.91941        2.95335
H         -2.42149        2.72343       -1.37989
H         -2.37077        3.82742       -3.55456
H          1.90269        3.64924       -3.60507
H          1.93192        2.53262       -1.52080
H         -0.06029        4.99190        5.64972
H         -0.85963        6.20129        4.58188
H          0.69261        4.08464       -5.67932
H         -1.08612        4.10445       -5.70537
H          8.99986        1.74391       -0.04917
H          9.77707        0.31724        0.69473
H          1.51949       -5.79270       -4.99303
H          3.03210       -5.29123       -5.80482
H         -0.54889       -8.19484        7.13011
H         -2.52625       -7.31639        8.29202
H         -3.26812       -8.30894       10.48669
H         -2.10206      -10.32676       11.31321
H         -0.32924      -11.02603       10.08601
H        -13.38213       -0.83822        1.34042
H        -13.97098        1.30032        2.10178
H        -12.30195        2.73962        3.22027
H        -10.02586        1.86433        3.64699
H         -9.45104       -0.32622        3.11194
H         -6.27253        2.41191       -1.57468
H         -7.37528        3.51206       -0.64525
H         -6.10188        2.56884        0.22057
H          0.74823        6.32014       -4.56660
H         -0.14597        6.35925       -6.13058
H         -1.06658        6.36553       -4.57856
H         -2.30425        3.91952        6.07918
H         -2.31199        5.67906        6.49639
H         -3.09044        5.13562        4.99472
H          9.44908        0.84342       -2.33668
H         10.96469        1.01086       -1.37487
H         10.23127       -0.62087       -1.61123
H          2.74122       -7.77171       -4.00377
H          2.85295       -7.74176       -5.80891
H          4.26600       -7.24089       -4.82811
H          8.07636       -6.13199        1.19269
H          8.49270       -7.35839       -0.07252
H          6.81962       -6.68302        0.00860
