91
BTCT-2Cl.sdf
C          0.44384       -1.52542       -0.76439
O          0.54702       -2.34787       -1.66139
C         -0.84772       -1.02376       -0.35903
C         -0.82969        0.34023       -0.32046
C          0.55457        0.80760       -0.63068
C          0.89429        2.07146       -0.97489
C         -0.12912        3.08860       -1.09774
N         -0.97276        3.87874       -1.18555
C          2.24564        2.39926       -1.34203
N          3.34087        2.63236       -1.63088
C          1.41426       -0.45277       -0.57576
C          2.75977       -0.62856       -0.36543
C          3.53024       -1.95382       -0.17891
S          3.03320       -3.69518       -0.22098
C          4.59309       -4.43620        0.00713
C          5.33287       -3.27276        0.19059
C          4.91155       -1.95685        0.08045
C          5.98564       -0.78578        0.22406
C          6.17366        0.14365       -1.00080
S          6.77642       -3.53311        0.50735
C          6.74578       -5.05586        0.25182
C          5.58344       -5.63817        0.08765
N          5.96100       -7.02387        0.07398
C          4.90010       -8.07295        0.01840
C          7.43676       -7.10378        0.24405
C          7.80529       -5.77332        0.29572
C          9.06270       -5.16039        0.43201
N          9.33004       -3.83449        0.22277
S         10.89288       -3.67594        0.64046
N         11.27168       -5.22489        1.07150
C         10.10399       -5.89738        0.85386
C          9.92085       -7.25222        0.87372
C          8.75387       -7.95248        0.37528
N          9.28724       -9.25104        0.12677
C          8.72456      -10.38307       -0.64467
C          9.22138      -10.33670       -2.04969
C         10.60991       -9.24967        0.61101
C         10.89693       -8.11044        1.19448
S         12.41755       -8.08067        1.89893
C         12.88650       -9.64317        1.43192
C         11.85731       -9.99213        0.48819
S         12.72254       -9.73075       -0.94947
C         14.31996       -9.35102       -0.33066
C         14.26237       -9.74159        1.01373
C         14.89215      -11.16682        1.18174
C         14.80314      -12.12942       -0.03193
C         15.07648       -8.04214       -0.74810
C         14.90455       -7.45241       -1.98705
C         15.12246       -6.05673       -2.61418
C         16.12172       -5.13601       -2.55621
C         15.99642       -3.83135       -3.19076
N         15.85948       -2.80307       -3.70605
C         17.42225       -5.45579       -2.02416
N         18.48579       -5.66440       -1.60981
C         14.07951       -5.98479       -3.70173
C         13.65061       -7.26574       -3.93996
C         14.25287       -8.18110       -3.03300
O         14.39498       -9.37568       -3.22286
C          4.64335       -8.34829       -1.41349
C         12.79210       -7.46278       -4.98972
S         12.53824       -5.95420       -5.67855
C         13.54139       -5.06911       -4.62545
C         -2.08124        0.90491       -0.04050
S         -3.15654       -0.38495        0.22716
C         -2.05478       -1.62645       -0.07165
Cl        -2.37368       -3.34750        0.01568
Cl        12.09532       -8.98825       -5.49964
H          3.34287        0.28466       -0.21969
H          5.90563       -0.23602        1.17656
H          7.02838       -1.19728        0.30049
H          5.39508        0.91561       -1.10723
H          7.14908        0.68473       -1.01790
H          6.22471       -0.45168       -1.92132
H          5.18495       -9.00845        0.55910
H          3.91862       -7.69322        0.37780
H          9.04225      -11.36536       -0.21887
H          7.66062      -10.35301       -0.73889
H         10.23927      -10.66249       -1.90492
H          8.78668      -11.01492       -2.81820
H          9.07019       -9.29549       -2.38664
H         15.98367      -11.08630        1.42338
H         14.43198      -11.71585        2.02908
H         15.35404      -11.73050       -0.91369
H         15.26313      -13.10552        0.21463
H         13.74934      -12.34214       -0.31163
H         15.57996       -7.49499        0.05513
H          4.36836       -7.36591       -1.87178
H          5.63769       -8.76236       -1.52623
H          3.94396       -9.11125       -1.83157
H         13.71392       -4.01027       -4.74225
H         -2.35572        1.94740        0.01822
