97
BTIC-2Br-m.sdf
C         -5.18530       -3.03709        1.37647
O         -6.36170       -2.75223        1.35212
C         -4.69122       -4.23682        1.99232
C         -5.32982       -5.02128        2.95493
C         -4.66366       -6.14560        3.44831
C         -3.39432       -6.48381        2.95097
Br        -2.50880       -8.03072        3.64366
C         -2.77387       -5.68142        1.96837
C         -3.43945       -4.52484        1.49962
C         -3.03594       -3.43667        0.53454
C         -1.98779       -3.49943       -0.33335
C         -1.63276       -2.44700       -1.24708
N         -1.29841       -1.64205       -2.00615
C         -1.23874       -4.72124       -0.53883
N         -0.61701       -5.67977       -0.73222
C         -4.10248       -2.35091        0.66818
C         -4.11757       -1.02771        0.29485
C         -5.22423       -0.00496        0.61157
S         -6.96004       -0.21902        0.84687
C         -7.40791        1.37336        1.14234
C         -6.16814        2.03747        1.12728
C         -4.99108        1.38258        0.74815
C         -3.67007        2.15541        0.47773
C         -3.74102        3.21684       -0.66669
S         -6.25770        3.63088        1.41112
C         -7.90606        3.49276        1.29028
C         -8.52020        2.31618        1.21200
N         -9.92426        2.52466        1.06252
C        -10.97184        1.53796        0.74948
C        -10.07224        3.91223        0.88185
C         -8.73483        4.40047        0.93530
C         -8.29612        5.54978        0.32265
N         -7.02473        5.80901       -0.08767
S         -7.25464        6.95904       -1.24393
N         -8.86603        7.26202       -1.10078
C         -9.23641        6.35037       -0.16126
C        -10.50877        6.11186        0.19960
C        -11.13606        4.95734        0.59354
N        -12.53213        5.32191        0.51250
C        -13.78715        4.56965        0.76607
C        -14.62614        5.21721        1.86277
C        -12.51071        6.72303        0.31484
C        -11.29365        7.05385        0.30050
S        -11.10461        8.20010        1.51144
C        -12.67246        8.81047        1.38215
C        -13.21329        8.00926        0.32226
S        -12.68289        9.02303       -1.02271
C        -11.97518       10.35272       -0.15067
C        -12.47533       10.20981        1.16980
C        -13.75113       11.04360        1.33817
C        -14.39821       10.97937        2.72501
C        -10.60162       11.03301       -0.50541
C        -10.35190       12.37091       -0.23806
C         -9.35980       13.41399       -0.71450
C         -8.00648       13.15545       -0.84425
C         -7.38798       11.98591       -0.19873
N         -6.84369       11.08218        0.29086
C         -7.02548       14.02857       -1.43686
N         -6.17915       14.67488       -1.89178
C        -10.24885       14.73581       -0.83218
C        -10.21330       16.10593       -1.34343
C        -11.33372       17.00572       -1.10431
Br       -11.42840       18.85933       -1.65243
C        -12.45924       16.58578       -0.38449
C        -12.47977       15.31158        0.15514
C        -11.39155       14.44252       -0.07044
C        -11.27035       13.11991        0.48980
O        -11.36097       12.89566        1.68281
C        -11.54967        0.92407        1.99666
H         -6.30591       -4.75165        3.34011
H         -5.12925       -6.75000        4.21870
H         -1.79066       -5.96381        1.63216
H         -3.21275       -0.63842       -0.16594
H         -3.28299        2.66192        1.39069
H         -2.88716        1.45813        0.15563
H         -4.38256        4.10059       -0.45218
H         -2.72119        3.61643       -0.86015
H         -4.07444        2.78517       -1.63189
H        -11.81646        2.03228        0.21755
H        -10.57733        0.74006        0.08308
H        -14.38362        4.48287       -0.16294
H        -13.62521        3.52005        1.05026
H        -14.90778        6.24356        1.56155
H        -15.55503        4.62470        2.02318
H        -14.05646        5.24058        2.81491
H        -13.53165       12.10835        1.12852
H        -14.52540       10.72381        0.61430
H        -13.78133       11.46242        3.48749
H        -15.31215       11.59778        2.77599
H        -14.64437        9.93244        3.00371
H         -9.90676       10.47340       -1.14097
H         -9.37830       16.52280       -1.89857
H        -13.31295       17.25774       -0.21342
H        -13.35322       15.02027        0.73822
H        -11.97844        1.75494        2.59120
H        -12.36953        0.21569        1.74196
H        -10.75986        0.36864        2.54127
