109
BTIC-OCOMe.sdf
C         -6.39374       -0.61736       -0.20184
O         -7.36337       -0.82172        0.52814
C         -6.61838        0.58019       -0.95859
C         -7.37294        0.66274       -2.12599
C         -7.72993        1.90133       -2.64353
C         -7.32833        3.04444       -1.91787
C         -6.50765        2.93661       -0.74466
C         -6.11240        1.65524       -0.28643
C         -5.22978        1.05851        0.81298
C         -4.89875        1.57210        2.00503
C         -5.56158        2.79640        2.41263
N         -6.13098        3.77891        2.65024
C         -4.19404        0.79260        2.98909
N         -3.64062        0.22754        3.83249
C         -5.11601       -0.41132        0.44693
C         -4.11196       -1.41137        0.51745
C         -4.19149       -2.87626       -0.08481
S         -5.60504       -3.91416       -0.33599
C         -4.90247       -5.29265       -1.12756
C         -3.57955       -4.85862       -1.18500
C         -3.08766       -3.68378       -0.58112
C         -1.53606       -3.46388       -0.60523
C         -1.15323       -2.30818       -1.45753
S         -2.68835       -5.85976       -2.03693
C         -3.81368       -6.99039       -2.20526
C         -4.98878       -6.71085       -1.68970
N         -5.74536       -7.89895       -1.86049
C         -7.12185       -7.94585       -1.40910
C         -7.14882       -7.66987        0.07138
C         -4.84611       -8.94101       -2.28625
C         -3.66731       -8.22789       -2.55082
C         -2.40544       -8.68210       -2.79988
N         -1.30041       -7.91117       -3.00252
S         -0.08114       -8.95201       -2.70344
N         -0.90042      -10.35786       -2.39924
C         -2.20318       -9.98473       -2.52851
C         -3.31437      -10.79873       -2.41173
C         -4.68447      -10.47424       -2.43290
N         -5.31061      -11.77656       -2.39446
C         -6.72065      -12.15069       -2.13664
C         -6.96359      -12.37780       -0.64592
C         -4.25443      -12.73002       -2.44472
C         -3.19282      -12.05443       -2.18105
S         -2.83862      -12.61669       -0.62258
C         -3.44590      -14.19631       -0.80438
C         -3.88788      -14.13473       -2.14424
S         -2.37808      -14.65183       -2.91743
C         -1.37391      -14.99549       -1.50770
C         -2.33841      -15.04830       -0.46157
C         -2.68471      -16.54669       -0.18314
C         -2.39332      -17.04652        1.24493
C          0.09786      -14.37684       -1.28229
C          1.26914      -15.00533       -1.72624
C          2.81093      -14.91736       -1.85472
C          3.57937      -13.77908       -1.91907
C          5.01371      -13.78380       -2.13609
N          6.15954      -13.81492       -2.31048
C          3.02318      -12.46451       -1.82853
N          2.66511      -11.35790       -1.76015
C          3.26528      -16.33299       -2.27865
C          4.47378      -17.03877       -2.53498
C          4.41658      -18.32813       -3.17409
C          3.19691      -18.91660       -3.58798
C          2.02310      -18.20880       -3.27716
C          2.11508      -16.97216       -2.64375
C          1.01011      -16.11326       -2.51152
O          0.46078      -15.81583       -3.54828
O         -8.48677        1.92464       -3.79147
C         -9.34930        2.89098       -4.23685
C        -10.13728        2.70017       -5.49565
O         -9.55952        3.90317       -3.59323
O          3.10233      -20.08915       -4.32396
C          4.05058      -20.59095       -5.20083
C          3.91846      -21.95310       -5.86779
O          5.06367      -19.95592       -5.45418
H         -7.70541       -0.22061       -2.63779
H         -7.64160        4.00299       -2.28541
H         -6.19251        3.83087       -0.23867
H         -3.14267       -1.12895        0.92000
H         -1.06655       -3.35682        0.38156
H         -0.97796       -4.30842       -1.11558
H         -1.39946       -1.29969       -1.12011
H         -0.15247       -2.28939       -1.90623
H         -1.73311       -2.55015       -2.30776
H         -7.68310       -7.15136       -1.94195
H         -7.56539       -8.92236       -1.63862
H         -6.56933       -6.75558        0.31511
H         -8.15581       -7.48659        0.50114
H         -6.71493       -8.58989        0.49955
H         -7.41126      -11.36932       -2.48328
H         -6.99672      -13.08946       -2.67661
H         -6.70355      -11.45517       -0.09654
H         -8.02918      -12.62206       -0.42111
H         -6.33559      -13.20507       -0.26504
H         -3.74841      -16.77978       -0.40639
H         -2.06797      -17.20032       -0.83335
H         -3.12950      -16.66041        1.96060
H         -2.56858      -18.14031        1.33414
H         -1.34602      -16.82432        1.55266
H          0.19021      -13.42463       -0.74496
H          5.43958      -16.60431       -2.31569
H          5.33819      -18.85257       -3.39309
H          1.04399      -18.54776       -3.57076
H        -11.23092        2.71297       -5.26828
H         -9.91048        3.54182       -6.18302
H         -9.87327        1.73854       -5.97652
H          4.83706      -22.19219       -6.45932
H          3.82780      -22.75770       -5.10842
H          3.06788      -22.01862       -6.57708
