100
BTIC-2Cl-yCF3.sdf
C          1.19241       -1.18132        2.20029
O          1.57727       -1.08187        3.35422
C          0.60336       -2.42618        1.77334
C         -0.50771       -3.05136        2.31832
C         -0.90646       -4.28597        1.80342
C         -0.15399       -4.89110        0.76898
C          0.98965       -4.23818        0.24251
C          1.34898       -2.97166        0.75887
C          2.46402       -2.00507        0.47628
C          3.69707       -2.33405        0.00921
C          4.74902       -1.34179       -0.06224
N          5.52386       -0.49152       -0.09330
C          4.03133       -3.71798       -0.18896
N          4.21931       -4.85559       -0.32843
C          2.02669       -0.70803        1.12263
C          2.24899        0.61742        0.85268
C          1.61341        1.83515        1.57857
S          0.44787        1.87618        2.93000
C          0.23017        3.57966        3.08403
C          1.05733        4.02457        2.04508
C          1.84991        3.18693        1.23291
C          2.82633        3.80876        0.16496
C          3.17009        3.03239       -1.12365
S          1.01585        5.59777        1.87501
C          0.05160        5.82033        3.11920
C         -0.36008        4.76994        3.80836
N         -1.11141        5.33229        4.87938
C         -1.70437        4.56945        5.98775
C         -0.95596        6.75639        4.78470
C         -0.24174        6.95924        3.61139
C          0.17299        8.15383        3.04304
N          0.65119        8.33535        1.78260
S          0.88939        9.96127        1.72416
N          0.50748       10.42717        3.25865
C          0.11998        9.25222        3.82003
C         -0.50520        9.13569        5.01184
C         -1.27730        8.06754        5.47241
N         -2.08376        8.68553        6.45699
C         -3.17737        8.11733        7.24064
C         -4.47907        8.89621        6.96921
C         -1.68079       10.03461        6.47353
C         -0.58059       10.08960        5.84867
S          0.43192       11.25016        6.35835
C         -0.75007       12.02889        7.30081
C         -1.94614       11.42401        6.86797
S         -2.26203       12.52123        5.49833
C         -0.95561       13.68995        5.68197
C         -0.47424       13.35945        7.00374
C          0.58212       13.97523        7.87226
C          0.25369       15.42151        8.17490
C         -0.29057       14.71515        4.62027
C         -0.86350       15.15720        3.38334
C         -0.67058       16.20641        2.27156
C          0.41863       16.46984        1.52157
C          0.32403       17.34307        0.37270
N          0.27444       18.02907       -0.54070
C          1.59512       15.66110        1.69217
N          2.50294       14.97303        1.89460
C         -2.10828       16.57774        1.81007
C         -2.74291       17.56714        0.98901
C         -4.17537       17.62050        0.85692
C         -5.00885       16.69793        1.51566
C         -6.56438       16.76946        1.55942
C         -4.36478       15.63020        2.14117
C         -2.92572       15.56073        2.26042
C         -2.04562       14.53690        2.90848
O         -1.95844       13.36514        2.55418
C         -3.11174        4.10526        5.66902
F         -7.05111       17.85914        0.86177
F         -7.09633       15.60502        1.04100
F         -7.07625       16.87202        2.85057
Cl        -2.34246       -5.04243        2.48536
Cl        -0.63120       -6.46294        0.13806
H         -1.05726       -2.57380        3.11854
H          1.54929       -4.71547       -0.55022
H          2.82319        0.77248       -0.00737
H          2.38679        4.76085       -0.21708
H          3.81292        3.99645        0.64999
H          2.26993        2.88083       -1.76763
H          3.95682        3.49894       -1.76122
H          3.70832        2.13189       -0.90182
H         -1.07492        3.66807        6.18264
H         -1.79931        5.19344        6.88175
H         -3.24534        7.02694        7.02062
H         -2.96880        8.18271        8.33060
H         -4.58312        9.18583        5.92086
H         -5.33977        8.31460        7.37785
H         -4.49743        9.95042        7.29806
H          0.68795       13.39436        8.84801
H          1.58506       13.98476        7.45734
H         -0.76650       15.75368        8.27318
H          1.01657       15.75776        8.83718
H          0.23120       16.27227        7.53330
H          0.68021       15.12593        4.95809
H         -2.17760       18.30510        0.46025
H         -4.65246       18.38070        0.25612
H         -5.08244       14.94367        2.55748
H         -2.95783        3.23072        5.09299
H         -3.64571        3.43242        6.35946
H         -3.73207        4.90013        5.17227
