95
BTN-4F.sdf
C          0.79140        1.03662        1.96773
C          1.26574        2.10300        1.09879
C          2.75409        2.35731        1.15145
C          3.45620        1.63302        2.13581
C          2.95834        0.75237        3.04378
C          1.61272        0.42397        2.98460
N          3.73811        0.07636        3.93671
S          2.67149       -0.90213        4.68663
N          1.26145       -0.50660        3.91582
N          3.76475        3.00445        0.38873
C          4.94257        2.47393        0.84396
C          4.75418        1.77034        1.93999
C         -0.50454        0.75011        1.50827
C         -0.85864        1.63501        0.60640
N          0.15072        2.53560        0.32808
N         -1.46088       -0.20426        1.64239
C         -2.54099        0.13796        0.85326
C         -2.18379        1.30101        0.17806
C          6.25042        2.25177        0.35654
C          6.84280        1.30135        1.13316
S          6.03873        0.95023        2.58276
S          7.04900        2.35826       -1.13109
C          7.90640        0.89517       -0.93150
C          7.48993        0.36457        0.35095
C         -0.07764        3.64296       -0.63065
C         -3.81881       -0.71891        0.58429
C         -4.93823       -0.39356       -0.15808
C          8.80891        0.25066       -1.99242
C          9.44100        0.89034       -3.07323
C         -5.29511        0.96213       -0.56262
C         -4.94433        1.08004       -1.95943
C         -4.60795       -0.17049       -2.45017
C         -5.00138       -1.16418       -1.42470
C         10.83117        0.50771       -3.29582
C         11.55983        1.77518       -3.04744
C         10.70298        2.85850       -3.20065
C          9.38810        2.30736       -3.57669
C         -4.80984        2.23917       -2.70516
C         -4.20860        2.13654       -3.96330
C         -3.78466        0.88136       -4.45067
C         -4.02155       -0.29324       -3.71105
C         12.84689        1.95659       -2.54868
C         13.21939        3.24665       -2.12257
C         12.36131        4.34185       -2.31267
C         11.12566        4.17189       -2.93290
O         -5.59841        1.87604        0.18754
C         -5.53077       -2.37871       -1.70307
C         -6.34161       -3.09092       -0.74557
C         -5.54823       -2.91795       -3.04228
F         -3.97524        3.26192       -4.67978
F         -3.11779        0.81061       -5.62736
O         11.29502       -0.61678       -3.18936
C          8.44297        2.93726       -4.32502
C          7.31099        2.24517       -4.93977
C          8.53122        4.37545       -4.51608
F         12.67160        5.55650       -1.79158
F         14.37624        3.42748       -1.44470
N         -5.59140       -3.38105       -4.10215
N         -7.00588       -3.70566       -0.02343
N          8.65379        5.52344       -4.63349
N          6.38369        1.77465       -5.45878
C          6.49178       -0.82580        0.39480
C          3.79347        3.89849       -0.75903
C         -1.33064       -1.40678        2.41754
C         -2.38869       -1.35502        3.45322
C         -0.45065        3.09495       -1.99822
C          3.76073        5.32085       -0.21464
C          6.97631       -2.15770        0.25265
H         -2.84275        1.68369       -0.56970
H         -0.96942        4.25035       -0.30496
H          0.81222        4.29600       -0.72108
H         -3.64856       -1.78029        0.70618
H          9.18746       -0.73882       -1.70324
H         -5.09585        3.19761       -2.29170
H         -3.69009       -1.25068       -4.08632
H         13.48728        1.10971       -2.36599
H         10.50773        5.04413       -3.04278
H          6.10094       -1.08753        1.36292
H          5.58821       -0.55453       -0.26376
H          4.78404        3.84758       -1.27506
H          3.01796        3.64300       -1.49224
H         -1.37263       -2.29877        1.75936
H         -0.38233       -1.45746        2.90026
H         -3.31642       -1.45431        2.87880
H         -2.29016       -2.16172        4.18425
H         -2.31154       -0.38296        3.98815
H         -1.29383        2.38376       -1.91731
H         -0.60194        3.81285       -2.82251
H          0.41048        2.58351       -2.37596
H          2.94717        5.40767        0.53111
H          3.62333        6.05194       -1.03353
H          4.72707        5.55220        0.30160
H          6.15559       -2.92524        0.29596
H          7.15781       -1.84516       -0.72133
H          7.87930       -2.38406        0.86413
