97
BTP-6F.sdf
C         -1.25150       -1.32012        0.68744
O         -1.54779       -2.10564        1.57782
C          0.10722       -0.85668        0.61648
C          1.24794       -1.63168        0.38856
C          2.49335       -1.04397        0.49054
F          3.59706       -1.80653        0.26198
C          2.58839        0.30016        0.87905
F          3.82278        0.82023        1.07939
C          1.41471        1.08665        1.07749
C          0.14011        0.48781        0.89950
C         -1.30827        0.95702        0.97336
C         -1.79102        2.08666        1.54587
C         -3.20604        2.38725        1.59089
N         -4.34757        2.58350        1.59640
C         -0.89154        2.92990        2.28613
N         -0.12511        3.57240        2.86742
C         -2.12218       -0.20539        0.44147
C         -3.37749       -0.34061       -0.11337
C         -4.02858       -1.64728       -0.66157
S         -3.36743       -3.29220       -0.73254
C         -4.68536       -4.11388       -1.48266
C         -5.59009       -3.06443       -1.65618
C         -5.34160       -1.75806       -1.22100
C         -6.49993       -0.71946       -1.32047
S         -6.96986       -3.52616       -2.37850
C         -6.50600       -5.07055       -2.42126
C         -5.29701       -5.38584       -1.96365
N         -5.16725       -6.78143       -2.09938
C         -6.45908       -7.24865       -2.58141
C         -7.23294       -6.09291       -2.73825
C         -8.56235       -5.98115       -3.13978
N         -9.19601       -4.83338       -3.50688
S        -10.70059       -5.36567       -3.91363
N        -10.61328       -6.97729       -3.57285
C         -9.32534       -7.11679       -3.15320
C         -8.68095       -8.31428       -2.96963
C         -7.27901       -8.45712       -2.99970
N         -7.12468       -9.71412       -3.61397
C         -8.42942      -10.16864       -3.82809
C         -9.26604       -9.47960       -3.13109
S        -10.78499       -9.96305       -3.20735
C        -10.57343      -10.97740       -4.52476
C         -9.24252      -10.73374       -4.90904
S         -9.54247       -9.73148       -6.29032
C        -11.28741       -9.84912       -6.44219
C        -11.66603      -10.79488       -5.42363
C        -13.09857      -11.10299       -4.93528
C        -12.28327       -8.71277       -6.89011
C        -13.50035       -8.88219       -7.53162
C        -14.78665       -8.04288       -7.50343
C        -14.96049       -6.69928       -7.51188
C        -16.24504       -6.07516       -7.23450
N        -17.28505       -5.61053       -7.00693
C        -13.87996       -5.83612       -7.89637
N        -13.03519       -5.10855       -8.20300
C        -15.90054       -9.05683       -7.54149
C        -17.30884       -9.00412       -7.34520
C        -18.05947      -10.19530       -7.48019
F        -19.40517      -10.18934       -7.29542
C        -17.42044      -11.40568       -7.79819
F        -18.12672      -12.56072       -7.86386
C        -16.04898      -11.43060       -8.04343
C        -15.32504      -10.25906       -7.92643
C        -13.89777      -10.11829       -8.12009
O        -13.14699      -10.91681       -8.65361
C         -3.93920       -7.50032       -1.62697
C         -5.95682      -10.35204       -4.23689
F          1.17489       -2.94491        0.07203
F        -15.41719      -12.58936       -8.34246
C        -13.24270      -12.54798       -4.45222
C         -5.89220      -10.03647       -5.69156
C         -2.69589       -6.96462       -2.27565
C         -6.28567        0.50210       -2.17145
H          1.52486        2.11740        1.36411
H         -3.93049        0.57913       -0.24637
H         -7.44934       -1.16936       -1.72481
H         -6.74767       -0.34537       -0.32652
H        -13.38103      -10.46267       -4.07965
H        -13.83948      -10.98718       -5.74536
H        -12.13015       -7.77010       -6.35819
H        -17.84814       -8.10642       -7.08039
H         -3.99719       -8.56832       -1.81289
H         -3.73080       -7.44495       -0.56247
H         -5.02155       -9.96648       -3.80054
H         -6.02986      -11.45528       -4.11006
H        -12.59300      -12.67920       -3.60746
H        -14.22378      -12.81702       -4.03741
H        -13.01035      -13.25494       -5.26602
H         -5.79964       -8.97550       -5.76778
H         -5.19477      -10.63491       -6.32328
H         -6.86607      -10.09981       -6.08596
H         -3.04241       -7.01930       -3.29064
H         -2.46314       -5.91794       -1.98116
H         -1.76896       -7.58757       -2.18286
H         -6.37284        0.19320       -3.20996
H         -7.06460        1.27557       -2.06501
H         -5.36556        1.02038       -1.91426
