109
BTP-3V.sdf
C          1.01670       -1.83385        0.58959
C         -0.01971       -2.47576       -0.28667
S          0.01752       -4.07184       -0.97817
C         -1.49731       -3.99269       -1.75974
C         -2.02092       -2.75846       -1.38293
C         -1.22462       -1.85240       -0.69585
C         -1.65892       -0.37613       -0.50648
C         -2.99107        0.10212       -1.11079
S         -3.54869       -2.47494       -1.96115
C         -3.42378       -3.79850       -2.89594
C         -2.34795       -4.57030       -2.78189
N         -2.34073       -5.53178       -3.80205
C         -1.19343       -6.43681       -4.01550
C         -3.37079       -5.10435       -4.68995
C         -4.04637       -4.05327       -4.00661
C         -5.05062       -3.24748       -4.50086
N         -5.78909       -2.33298       -3.82287
S         -6.69993       -1.67841       -5.02585
N         -6.11459       -2.40726       -6.37855
C         -5.21591       -3.27667       -5.84768
C         -4.53853       -4.21712       -6.55805
C         -3.86803       -5.34168       -6.10744
N         -3.91657       -6.17320       -7.27211
C         -3.41557       -7.54589       -7.55869
C         -3.08260       -7.70275       -9.03137
C         -4.66593       -5.41377       -8.21157
C         -4.63538       -4.21407       -7.82060
S         -3.40735       -3.61720       -8.87850
C         -3.93308       -4.57380      -10.21454
C         -4.98017       -5.27862       -9.61720
S         -6.30481       -4.12806       -9.96815
C         -5.41362       -3.01960      -10.95335
C         -4.33016       -3.81963      -11.37958
C         -4.84592       -4.75570      -12.52307
C         -3.79458       -5.15168      -13.56704
C         -5.14642       -1.57705      -10.45988
C         -0.20639       -5.76725       -4.91034
C         -5.69979        0.53755       -9.09938
C         -5.94074       -0.88220       -9.58947
C          2.71778       -3.59266        3.68778
O          1.60381       -3.98321        3.37901
C          3.41851       -4.12024        4.79730
C          2.98109       -5.17097        5.58781
C          3.78331       -5.57191        6.64282
F          3.38287       -6.60823        7.41839
C          4.99313       -4.89896        6.89292
F          5.76194       -5.29210        7.93224
C          5.40973       -3.82454        6.07322
C          4.60471       -3.44310        4.98980
C          4.73363       -2.35990        3.95008
C          5.70882       -1.40911        3.85690
C          5.66348       -0.30746        2.92849
N          5.66716        0.59353        2.20118
C          6.87180       -1.39009        4.69857
N          7.82466       -1.32961        5.35172
C          3.54678       -2.53822        3.04595
C          3.26829       -1.92762        1.86277
C          2.13194       -2.42532        1.04804
C         -4.24285        2.67981       -9.07816
C         -3.12191        3.31601       -9.58000
C         -2.27980        4.18181       -8.73098
C         -2.08822        5.52791       -8.67888
C         -0.95390        6.06428       -7.95501
N         -0.03412        6.43892       -7.35954
C         -2.83880        6.49271       -9.43263
N         -3.38673        7.33534      -10.00495
C         -1.33803        3.21346       -8.19751
C         -0.64706        3.18210       -6.99644
C          0.12508        2.04942       -6.72864
F          0.74304        1.95571       -5.53020
C          0.23106        1.00887       -7.68091
F          0.94630       -0.10405       -7.39687
C         -0.43649        1.10441       -8.90904
C         -1.22813        2.20040       -9.13807
C         -2.14994        2.47143      -10.23590
O         -2.29112        1.82878      -11.26496
C         -4.64142        1.27257       -9.51175
H          0.79490       -0.87716        0.94489
H         -1.73853       -0.15169        0.55888
H         -0.92565        0.30857       -0.96363
H         -3.88206       -0.33959       -0.63286
H         -3.20958        1.14498       -0.98410
H         -2.95275        0.09179       -2.19936
H         -1.46595       -7.35688       -4.50288
H         -0.68181       -6.65188       -3.03775
H         -2.48458       -7.75778       -7.01638
H         -4.18289       -8.32119       -7.36705
H         -2.31660       -6.98059       -9.22389
H         -2.75490       -8.68838       -9.41537
H         -3.92326       -7.41742       -9.64242
H         -5.27523       -5.69727      -12.10681
H         -5.68810       -4.28453      -13.09142
H         -2.97760       -5.72727      -13.08770
H         -4.25272       -5.78266      -14.36582
H         -3.37430       -4.27565      -14.09677
H         -4.26075       -1.06247      -10.83527
H         -0.64039       -5.52493       -5.90689
H         -0.11759       -4.87833       -4.32964
H          0.83395       -6.16729       -4.95880
H         -6.40730        0.95768       -8.38047
H         -6.83025       -1.36266       -9.20635
H          2.03913       -5.66677        5.37628
H          6.33297       -3.32645        6.29783
H          3.94363       -1.20466        1.39386
H          2.23186       -3.44147        0.86627
H         -4.70706        3.08403       -8.18009
H         -0.74951        3.97041       -6.26167
H         -0.40945        0.33180       -9.63136
H         -3.98265        0.76664      -10.17857
