2T2Se-F.mol
  xtb     01102215233D
 energy: -160.975959747322 gnorm: 0.000660035747 xtb: 6.4.1 (unknown)
 82 89  0     0  0            999 V2000
    3.6840   -0.9304    5.4853 O   0  0  0  0  0  0  0  0  0  0  0  0
    4.2551   -1.1762    6.5395 C   0  0  0  0  0  0  0  0  0  0  0  0
    4.6393   -0.1957    7.5709 C   0  0  0  0  0  0  0  0  0  0  0  0
    5.2746   -0.8695    8.6295 C   0  0  0  0  0  0  0  0  0  0  0  0
    5.7301   -0.1544    9.7252 C   0  0  0  0  0  0  0  0  0  0  0  0
    5.5377    1.2203    9.7328 C   0  0  0  0  0  0  0  0  0  0  0  0
    5.9711    1.9269   10.7811 F   0  0  0  0  0  0  0  0  0  0  0  0
    4.9063    1.8789    8.6774 C   0  0  0  0  0  0  0  0  0  0  0  0
    4.7428    3.2054    8.7270 F   0  0  0  0  0  0  0  0  0  0  0  0
    4.4471    1.1716    7.5774 C   0  0  0  0  0  0  0  0  0  0  0  0
    4.6911   -2.4783    7.0254 C   0  0  0  0  0  0  0  0  0  0  0  0
    5.3215   -2.3002    8.3177 C   0  0  0  0  0  0  0  0  0  0  0  0
    5.8654   -3.2655    9.1246 C   0  0  0  0  0  0  0  0  0  0  0  0
    6.4589   -3.0063   10.3790 C   0  0  0  0  0  0  0  0  0  0  0  0
    6.9530   -2.8645   11.4049 N   0  0  0  0  0  0  0  0  0  0  0  0
    5.9166   -4.6459    8.8367 C   0  0  0  0  0  0  0  0  0  0  0  0
    6.0002   -5.7804    8.6785 N   0  0  0  0  0  0  0  0  0  0  0  0
    4.5230   -3.6692    6.3535 C   0  0  0  0  0  0  0  0  0  0  0  0
    3.9211   -3.9386    5.1188 C   0  0  0  0  0  0  0  0  0  0  0  0
    3.8584   -5.2540    4.6281 C   0  0  0  0  0  0  0  0  0  0  0  0
    3.2391   -5.4310    3.4121 C   0  0  0  0  0  0  0  0  0  0  0  0
    2.7517   -4.2577    2.8322 C   0  0  0  0  0  0  0  0  0  0  0  0
    2.0667   -4.1675    1.6045 C   0  0  0  0  0  0  0  0  0  0  0  0
    1.6911   -5.1834    0.7340 C   0  0  0  0  0  0  0  0  0  0  0  0
    1.0107   -4.7630   -0.4009 C   0  0  0  0  0  0  0  0  0  0  0  0
    0.3253   -5.7470   -1.2953 C   0  0  0  0  0  0  0  0  0  0  0  0
   -1.0196   -6.1431   -0.6773 C   0  0  0  0  0  0  0  0  0  0  0  0
    0.8603   -3.3656   -0.4409 C   0  0  0  0  0  0  0  0  0  0  0  0
    0.2429   -2.5337   -1.3780 C   0  0  0  0  0  0  0  0  0  0  0  0
    0.1131   -2.7458   -2.8058 C   0  0  0  0  0  0  0  0  0  0  0  0
    1.2725   -3.3166   -3.5861 C   0  0  0  0  0  0  0  0  0  0  0  0
    2.3777   -2.2649   -3.6931 C   0  0  0  0  0  0  0  0  0  0  0  0
   -0.7188   -1.6869   -3.4170 C   0  0  0  0  0  0  0  0  0  0  0  0
   -1.0300   -0.6023   -2.4878 C   0  0  0  0  0  0  0  0  0  0  0  0
   -1.5848    0.5492   -2.7597 C   0  0  0  0  0  0  0  0  0  0  0  0
   -2.2246    1.6562   -2.9929 C   0  0  0  0  0  0  0  0  0  0  0  0
   -3.6736    1.7887   -2.8567 C   0  0  0  0  0  0  0  0  0  0  0  0
   -4.3087    2.8816   -3.1571 C   0  0  0  0  0  0  0  0  0  0  0  0
   -4.9232    4.0178   -3.4208 C   0  0  0  0  0  0  0  0  0  0  0  0
   -5.4273    4.3470   -4.7075 C   0  0  0  0  0  0  0  0  0  0  0  0
   -6.1846    5.4752   -5.1040 C   0  0  0  0  0  0  0  0  0  0  0  0
   -6.5921    6.5412   -4.3188 C   0  0  0  0  0  0  0  0  0  0  0  0
   -6.3020    6.6744   -2.9503 C   0  0  0  0  0  0  0  0  0  0  0  0
   -6.0937    6.8364   -1.8308 N   0  0  0  0  0  0  0  0  0  0  0  0
   -7.3421    7.6306   -4.7930 C   0  0  0  0  0  0  0  0  0  0  0  0
   -7.9515    8.5491   -5.1196 N   0  0  0  0  0  0  0  0  0  0  0  0
   -5.1996    3.4712   -5.8578 C   0  0  0  0  0  0  0  0  0  0  0  0
   -5.8942    4.1290   -6.9931 C   0  0  0  0  0  0  0  0  0  0  0  0
   -6.4782    5.3240   -6.5389 C   0  0  0  0  0  0  0  0  0  0  0  0
   -7.1905    6.1222   -7.4141 C   0  0  0  0  0  0  0  0  0  0  0  0
   -6.0050    3.7125   -8.3023 C   0  0  0  0  0  0  0  0  0  0  0  0
   -6.7227    4.5173   -9.1760 C   0  0  0  0  0  0  0  0  0  0  0  0
   -6.8563    4.1463  -10.4585 F   0  0  0  0  0  0  0  0  0  0  0  0
   -7.3038    5.7017   -8.7343 C   0  0  0  0  0  0  0  0  0  0  0  0
   -7.9924    6.4611   -9.5974 F   0  0  0  0  0  0  0  0  0  0  0  0
   -4.5671    2.4316   -5.8814 O   0  0  0  0  0  0  0  0  0  0  0  0
   -1.7937   -3.3746   -3.2700 Se  0  0  0  0  0  2  0  0  0  0  0  0
   -0.4513   -1.0371   -0.8537 S   0  0  0  0  0  0  0  0  0  0  0  0
    1.5387   -2.6271    1.0035 S   0  0  0  0  0  0  0  0  0  0  0  0
    3.1017   -2.7533    3.8999 Se  0  0  0  0  0  2  0  0  0  0  0  0
    6.2237   -0.6129   10.5662 H   0  0  0  0  0  0  0  0  0  0  0  0
    3.9583    1.6768    6.7599 H   0  0  0  0  0  0  0  0  0  0  0  0
    4.9089   -4.5566    6.8423 H   0  0  0  0  0  0  0  0  0  0  0  0
    4.2771   -6.0714    5.1925 H   0  0  0  0  0  0  0  0  0  0  0  0
    3.1370   -6.3964    2.9465 H   0  0  0  0  0  0  0  0  0  0  0  0
    1.8932   -6.2199    0.9375 H   0  0  0  0  0  0  0  0  0  0  0  0
    0.9531   -6.6342   -1.3967 H   0  0  0  0  0  0  0  0  0  0  0  0
    0.1343   -5.3424   -2.2869 H   0  0  0  0  0  0  0  0  0  0  0  0
   -1.6721   -5.2748   -0.6130 H   0  0  0  0  0  0  0  0  0  0  0  0
   -1.5047   -6.8906   -1.2989 H   0  0  0  0  0  0  0  0  0  0  0  0
   -0.8834   -6.5506    0.3214 H   0  0  0  0  0  0  0  0  0  0  0  0
    0.9270   -3.5951   -4.5839 H   0  0  0  0  0  0  0  0  0  0  0  0
    1.6767   -4.2032   -3.0997 H   0  0  0  0  0  0  0  0  0  0  0  0
    3.2081   -2.6634   -4.2696 H   0  0  0  0  0  0  0  0  0  0  0  0
    2.7433   -1.9938   -2.7048 H   0  0  0  0  0  0  0  0  0  0  0  0
    2.0162   -1.3654   -4.1860 H   0  0  0  0  0  0  0  0  0  0  0  0
   -0.5725   -1.4104   -4.4548 H   0  0  0  0  0  0  0  0  0  0  0  0
   -1.6958    2.5366   -3.3297 H   0  0  0  0  0  0  0  0  0  0  0  0
   -4.2049    0.9087   -2.5209 H   0  0  0  0  0  0  0  0  0  0  0  0
   -5.0722    4.7211   -2.6108 H   0  0  0  0  0  0  0  0  0  0  0  0
   -7.6596    7.0473   -7.1225 H   0  0  0  0  0  0  0  0  0  0  0  0
   -5.5549    2.7938   -8.6428 H   0  0  0  0  0  0  0  0  0  0  0  0
  1  2  2  0  0  0  0
  2  3  1  0  0  0  0
  3  4  2  0  0  0  0
  4  5  1  0  0  0  0
  5  6  2  0  0  0  0
  6  7  1  0  0  0  0
  6  8  1  0  0  0  0
  8  9  1  0  0  0  0
  8 10  2  0  0  0  0
  3 10  1  0  0  0  0
  2 11  1  0  0  0  0
 11 12  1  0  0  0  0
  4 12  1  0  0  0  0
 12 13  2  0  0  0  0
 13 14  1  0  0  0  0
 14 15  3  0  0  0  0
 13 16  1  0  0  0  0
 16 17  3  0  0  0  0
 11 18  2  0  0  0  0
 18 19  1  0  0  0  0
 19 20  2  0  0  0  0
 20 21  1  0  0  0  0
 21 22  2  0  0  0  0
 22 23  1  0  0  0  0
 23 24  2  0  0  0  0
 24 25  1  0  0  0  0
 25 26  1  0  0  0  0
 26 27  1  0  0  0  0
 25 28  2  0  0  0  0
 28 29  1  0  0  0  0
 29 30  2  0  0  0  0
 30 31  1  0  0  0  0
 31 32  1  0  0  0  0
 30 33  1  0  0  0  0
 33 34  2  0  0  0  0
 34 35  1  0  0  0  0
 35 36  2  0  0  0  0
 36 37  1  0  0  0  0
 37 38  2  0  0  0  0
 38 39  1  0  0  0  0
 39 40  2  0  0  0  0
 40 41  1  0  0  0  0
 41 42  2  0  0  0  0
 42 43  1  0  0  0  0
 43 44  3  0  0  0  0
 42 45  1  0  0  0  0
 45 46  3  0  0  0  0
 40 47  1  0  0  0  0
 47 48  1  0  0  0  0
 48 49  2  0  0  0  0
 41 49  1  0  0  0  0
 49 50  1  0  0  0  0
 48 51  1  0  0  0  0
 51 52  2  0  0  0  0
 52 53  1  0  0  0  0
 52 54  1  0  0  0  0
 50 54  2  0  0  0  0
 54 55  1  0  0  0  0
 47 56  2  0  0  0  0
 38 57  1  0  0  0  0
 35 57  1  0  0  0  0
 34 58  1  0  0  0  0
 29 58  1  0  0  0  0
 28 59  1  0  0  0  0
 23 59  1  0  0  0  0
 22 60  1  0  0  0  0
 19 60  1  0  0  0  0
  5 61  1  0  0  0  0
 10 62  1  0  0  0  0
 18 63  1  0  0  0  0
 20 64  1  0  0  0  0
 21 65  1  0  0  0  0
 24 66  1  0  0  0  0
 26 67  1  0  0  0  0
 26 68  1  0  0  0  0
 27 69  1  0  0  0  0
 27 70  1  0  0  0  0
 27 71  1  0  0  0  0
 31 72  1  0  0  0  0
 31 73  1  0  0  0  0
 32 74  1  0  0  0  0
 32 75  1  0  0  0  0
 32 76  1  0  0  0  0
 33 77  1  0  0  0  0
 36 78  1  0  0  0  0
 37 79  1  0  0  0  0
 39 80  1  0  0  0  0
 50 81  1  0  0  0  0
 51 82  1  0  0  0  0
M  END
