3TT-OCIC.mol
  xtb     01102215273D
 energy: -259.540814369527 gnorm: 0.000269241615 xtb: 6.4.1 (unknown)
150165  0     0  0            999 V2000
    0.1922    0.5348   -8.1791 O   0  0  0  0  0  0  0  0  0  0  0  0
    0.0768    1.4322   -8.9941 C   0  0  0  0  0  0  0  0  0  0  0  0
    0.8875    1.5971  -10.2189 C   0  0  0  0  0  0  0  0  0  0  0  0
    0.4238    2.7118  -10.9379 C   0  0  0  0  0  0  0  0  0  0  0  0
    1.0407    3.0643  -12.1263 C   0  0  0  0  0  0  0  0  0  0  0  0
    2.1131    2.2988  -12.5737 C   0  0  0  0  0  0  0  0  0  0  0  0
    2.8887    2.7338  -14.0435 Cl  0  0  0  0  0  0  0  0  0  0  0  0
    2.5673    1.1922  -11.8498 C   0  0  0  0  0  0  0  0  0  0  0  0
    3.8968    0.2721  -12.4290 Cl  0  0  0  0  0  0  0  0  0  0  0  0
    1.9478    0.8332  -10.6588 C   0  0  0  0  0  0  0  0  0  0  0  0
   -0.6911    3.3123  -10.2048 C   0  0  0  0  0  0  0  0  0  0  0  0
   -1.4263    4.3889  -10.6340 C   0  0  0  0  0  0  0  0  0  0  0  0
   -1.1973    5.0680  -11.8490 C   0  0  0  0  0  0  0  0  0  0  0  0
   -1.0658    5.6671  -12.8194 N   0  0  0  0  0  0  0  0  0  0  0  0
   -2.5135    4.9705   -9.9498 C   0  0  0  0  0  0  0  0  0  0  0  0
   -3.4056    5.5033   -9.4585 N   0  0  0  0  0  0  0  0  0  0  0  0
   -0.8644    2.5544   -8.9832 C   0  0  0  0  0  0  0  0  0  0  0  0
   -1.7010    2.9117   -7.9496 C   0  0  0  0  0  0  0  0  0  0  0  0
   -1.9075    2.3305   -6.6972 C   0  0  0  0  0  0  0  0  0  0  0  0
   -2.6345    2.9714   -5.6727 C   0  0  0  0  0  0  0  0  0  0  0  0
   -3.2875    4.3117   -5.7721 C   0  0  0  0  0  0  0  0  0  0  0  0
   -2.2742    5.4337   -5.5283 C   0  0  0  0  0  0  0  0  0  0  0  0
   -2.5845    2.2375   -4.5001 C   0  0  0  0  0  0  0  0  0  0  0  0
   -1.8946    1.0110   -4.6089 C   0  0  0  0  0  0  0  0  0  0  0  0
   -1.2366    0.7802   -6.1789 S   0  0  0  0  0  0  0  0  0  0  0  0
   -1.7911    0.3594   -3.3868 C   0  0  0  0  0  0  0  0  0  0  0  0
   -2.3389    1.1116   -2.3473 C   0  0  0  0  0  0  0  0  0  0  0  0
   -3.1000    2.5776   -2.8627 S   0  0  0  0  0  0  0  0  0  0  0  0
   -1.9723    0.5168   -1.1191 C   0  0  0  0  0  0  0  0  0  0  0  0
   -1.1808   -0.6051   -1.3768 C   0  0  0  0  0  0  0  0  0  0  0  0
   -1.0874   -0.8657   -2.8593 C   0  0  0  0  0  0  0  0  0  0  0  0
   -1.8260   -2.1653   -3.1374 C   0  0  0  0  0  0  0  0  0  0  0  0
   -1.2082   -3.3666   -2.8131 C   0  0  0  0  0  0  0  0  0  0  0  0
   -1.8555   -4.5666   -3.0324 C   0  0  0  0  0  0  0  0  0  0  0  0
   -3.1315   -4.5982   -3.5818 C   0  0  0  0  0  0  0  0  0  0  0  0
   -3.8486   -5.9010   -3.7874 C   0  0  0  0  0  0  0  0  0  0  0  0
   -4.6698   -6.2612   -2.5477 C   0  0  0  0  0  0  0  0  0  0  0  0
   -3.7448   -3.3934   -3.8959 C   0  0  0  0  0  0  0  0  0  0  0  0
   -3.1037   -2.1876   -3.6747 C   0  0  0  0  0  0  0  0  0  0  0  0
    0.3027   -0.8830   -3.4604 C   0  0  0  0  0  0  0  0  0  0  0  0
    1.3791   -0.2642   -2.8453 C   0  0  0  0  0  0  0  0  0  0  0  0
    2.5984   -0.1819   -3.4960 C   0  0  0  0  0  0  0  0  0  0  0  0
    2.7634   -0.7044   -4.7706 C   0  0  0  0  0  0  0  0  0  0  0  0
    4.0457   -0.5328   -5.5317 C   0  0  0  0  0  0  0  0  0  0  0  0
    3.9025    0.6143   -6.5351 C   0  0  0  0  0  0  0  0  0  0  0  0
    1.6837   -1.3386   -5.3729 C   0  0  0  0  0  0  0  0  0  0  0  0
    0.4671   -1.4258   -4.7294 C   0  0  0  0  0  0  0  0  0  0  0  0
    0.7463   -1.3803    4.0150 C   0  0  0  0  0  0  0  0  0  0  0  0
    1.1455   -2.2510    3.0007 C   0  0  0  0  0  0  0  0  0  0  0  0
    2.4778   -3.2687    3.4301 S   0  0  0  0  0  0  0  0  0  0  0  0
    2.5790   -2.4419    4.9693 C   0  0  0  0  0  0  0  0  0  0  0  0
    1.5799   -1.4568    5.1230 C   0  0  0  0  0  0  0  0  0  0  0  0
    1.8059   -0.5285    6.5502 S   0  0  0  0  0  0  0  0  0  0  0  0
    3.2340   -1.4856    6.9569 C   0  0  0  0  0  0  0  0  0  0  0  0
    4.0657   -1.2506    8.0534 C   0  0  0  0  0  0  0  0  0  0  0  0
    4.1082   -0.2012    8.9438 C   0  0  0  0  0  0  0  0  0  0  0  0
    5.0888   -0.0536    9.9991 C   0  0  0  0  0  0  0  0  0  0  0  0
    4.9305    1.2887   10.5590 C   0  0  0  0  0  0  0  0  0  0  0  0
    5.6371    1.9675   11.5373 C   0  0  0  0  0  0  0  0  0  0  0  0
    5.2606    3.2702   11.8491 C   0  0  0  0  0  0  0  0  0  0  0  0
    6.1372    4.1225   13.0558 Cl  0  0  0  0  0  0  0  0  0  0  0  0
    4.1909    3.8923   11.1981 C   0  0  0  0  0  0  0  0  0  0  0  0
    3.7563    5.5035   11.6043 Cl  0  0  0  0  0  0  0  0  0  0  0  0
    3.4768    3.2123   10.2190 C   0  0  0  0  0  0  0  0  0  0  0  0
    3.8565    1.9228    9.9118 C   0  0  0  0  0  0  0  0  0  0  0  0
    3.2739    1.0025    8.9126 C   0  0  0  0  0  0  0  0  0  0  0  0
    2.2992    1.2292    8.2189 O   0  0  0  0  0  0  0  0  0  0  0  0
    5.9965   -0.9867   10.4337 C   0  0  0  0  0  0  0  0  0  0  0  0
    6.1461   -2.2912    9.9195 C   0  0  0  0  0  0  0  0  0  0  0  0
    6.3321   -3.3665    9.5589 N   0  0  0  0  0  0  0  0  0  0  0  0
    6.9111   -0.7685   11.4852 C   0  0  0  0  0  0  0  0  0  0  0  0
    7.6821   -0.6579   12.3286 N   0  0  0  0  0  0  0  0  0  0  0  0
    3.4908   -2.4981    6.0095 C   0  0  0  0  0  0  0  0  0  0  0  0
    4.6445   -3.4471    6.0381 C   0  0  0  0  0  0  0  0  0  0  0  0
    5.9030   -2.7972    5.4559 C   0  0  0  0  0  0  0  0  0  0  0  0
   -2.1170    0.9090    0.5614 S   0  0  0  0  0  0  0  0  0  0  0  0
   -1.0687   -0.4234    0.9424 C   0  0  0  0  0  0  0  0  0  0  0  0
   -0.6780   -1.1523   -0.2037 C   0  0  0  0  0  0  0  0  0  0  0  0
   -0.4295   -0.8628    2.0941 C   0  0  0  0  0  0  0  0  0  0  0  0
    0.4209   -1.9388    1.8282 C   0  0  0  0  0  0  0  0  0  0  0  0
    0.4404   -2.4296    0.1675 S   0  0  0  0  0  0  0  0  0  0  0  0
   -0.3728   -0.4819    3.5520 C   0  0  0  0  0  0  0  0  0  0  0  0
    0.0317    0.9434    3.8667 C   0  0  0  0  0  0  0  0  0  0  0  0
   -0.2055    1.4302    5.1467 C   0  0  0  0  0  0  0  0  0  0  0  0
    0.2716    2.6687    5.5212 C   0  0  0  0  0  0  0  0  0  0  0  0
    1.0003    3.4492    4.6320 C   0  0  0  0  0  0  0  0  0  0  0  0
    1.5984    4.7453    5.0956 C   0  0  0  0  0  0  0  0  0  0  0  0
    2.8655    4.4672    5.9083 C   0  0  0  0  0  0  0  0  0  0  0  0
    1.2159    2.9664    3.3492 C   0  0  0  0  0  0  0  0  0  0  0  0
    0.7416    1.7229    2.9677 C   0  0  0  0  0  0  0  0  0  0  0  0
   -1.7236   -0.8218    4.1616 C   0  0  0  0  0  0  0  0  0  0  0  0
   -1.9203   -1.9573    4.9322 C   0  0  0  0  0  0  0  0  0  0  0  0
   -3.1708   -2.2369    5.4536 C   0  0  0  0  0  0  0  0  0  0  0  0
   -4.2499   -1.3975    5.2140 C   0  0  0  0  0  0  0  0  0  0  0  0
   -5.6128   -1.7283    5.7497 C   0  0  0  0  0  0  0  0  0  0  0  0
   -6.3744   -2.6162    4.7633 C   0  0  0  0  0  0  0  0  0  0  0  0
   -4.0471   -0.2678    4.4305 C   0  0  0  0  0  0  0  0  0  0  0  0
   -2.8003    0.0194    3.9108 C   0  0  0  0  0  0  0  0  0  0  0  0
    0.7220    3.9111  -12.7112 H   0  0  0  0  0  0  0  0  0  0  0  0
    2.2876   -0.0188  -10.0918 H   0  0  0  0  0  0  0  0  0  0  0  0
   -2.2577    3.8275   -8.0955 H   0  0  0  0  0  0  0  0  0  0  0  0
   -4.0696    4.3694   -5.0122 H   0  0  0  0  0  0  0  0  0  0  0  0
   -3.7522    4.4469   -6.7499 H   0  0  0  0  0  0  0  0  0  0  0  0
   -2.7686    6.3985   -5.5967 H   0  0  0  0  0  0  0  0  0  0  0  0
   -1.8328    5.3368   -4.5390 H   0  0  0  0  0  0  0  0  0  0  0  0
   -1.4770    5.4000   -6.2673 H   0  0  0  0  0  0  0  0  0  0  0  0
   -0.2102   -3.3586   -2.3989 H   0  0  0  0  0  0  0  0  0  0  0  0
   -1.3600   -5.4926   -2.7788 H   0  0  0  0  0  0  0  0  0  0  0  0
   -3.1251   -6.6948   -3.9829 H   0  0  0  0  0  0  0  0  0  0  0  0
   -4.5142   -5.8248   -4.6496 H   0  0  0  0  0  0  0  0  0  0  0  0
   -5.1888   -7.2051   -2.6967 H   0  0  0  0  0  0  0  0  0  0  0  0
   -4.0222   -6.3537   -1.6786 H   0  0  0  0  0  0  0  0  0  0  0  0
   -5.4068   -5.4876   -2.3437 H   0  0  0  0  0  0  0  0  0  0  0  0
   -4.7367   -3.3955   -4.3248 H   0  0  0  0  0  0  0  0  0  0  0  0
   -3.6011   -1.2640   -3.9314 H   0  0  0  0  0  0  0  0  0  0  0  0
    1.2662    0.1684   -1.8612 H   0  0  0  0  0  0  0  0  0  0  0  0
    3.4279    0.3097   -3.0075 H   0  0  0  0  0  0  0  0  0  0  0  0
    4.2793   -1.4534   -6.0708 H   0  0  0  0  0  0  0  0  0  0  0  0
    4.8681   -0.3192   -4.8464 H   0  0  0  0  0  0  0  0  0  0  0  0
    3.0530    0.4367   -7.1910 H   0  0  0  0  0  0  0  0  0  0  0  0
    4.8015    0.7092   -7.1398 H   0  0  0  0  0  0  0  0  0  0  0  0
    3.7345    1.5535   -6.0122 H   0  0  0  0  0  0  0  0  0  0  0  0
    1.7890   -1.7513   -6.3646 H   0  0  0  0  0  0  0  0  0  0  0  0
   -0.3654   -1.9101   -5.2175 H   0  0  0  0  0  0  0  0  0  0  0  0
    4.8365   -1.9994    8.1774 H   0  0  0  0  0  0  0  0  0  0  0  0
    6.4689    1.5237   12.0590 H   0  0  0  0  0  0  0  0  0  0  0  0
    2.6492    3.6807    9.7104 H   0  0  0  0  0  0  0  0  0  0  0  0
    4.3856   -4.3204    5.4358 H   0  0  0  0  0  0  0  0  0  0  0  0
    4.8457   -3.7833    7.0564 H   0  0  0  0  0  0  0  0  0  0  0  0
    6.7275   -3.5042    5.4782 H   0  0  0  0  0  0  0  0  0  0  0  0
    5.7306   -2.4945    4.4256 H   0  0  0  0  0  0  0  0  0  0  0  0
    6.1843   -1.9184    6.0317 H   0  0  0  0  0  0  0  0  0  0  0  0
   -0.7584    0.8309    5.8545 H   0  0  0  0  0  0  0  0  0  0  0  0
    0.0930    3.0240    6.5246 H   0  0  0  0  0  0  0  0  0  0  0  0
    0.8804    5.2785    5.7223 H   0  0  0  0  0  0  0  0  0  0  0  0
    1.8431    5.3782    4.2406 H   0  0  0  0  0  0  0  0  0  0  0  0
    2.6432    3.7920    6.7317 H   0  0  0  0  0  0  0  0  0  0  0  0
    3.2743    5.3917    6.3099 H   0  0  0  0  0  0  0  0  0  0  0  0
    3.6199    3.9973    5.2809 H   0  0  0  0  0  0  0  0  0  0  0  0
    1.7745    3.5612    2.6404 H   0  0  0  0  0  0  0  0  0  0  0  0
    0.9398    1.3565    1.9703 H   0  0  0  0  0  0  0  0  0  0  0  0
   -1.0960   -2.6246    5.1366 H   0  0  0  0  0  0  0  0  0  0  0  0
   -3.3065   -3.1204    6.0608 H   0  0  0  0  0  0  0  0  0  0  0  0
   -5.5184   -2.2504    6.7039 H   0  0  0  0  0  0  0  0  0  0  0  0
   -6.1778   -0.8094    5.9169 H   0  0  0  0  0  0  0  0  0  0  0  0
   -6.4899   -2.1083    3.8084 H   0  0  0  0  0  0  0  0  0  0  0  0
   -7.3615   -2.8557    5.1515 H   0  0  0  0  0  0  0  0  0  0  0  0
   -5.8332   -3.5443    4.5934 H   0  0  0  0  0  0  0  0  0  0  0  0
   -4.8736    0.3985    4.2299 H   0  0  0  0  0  0  0  0  0  0  0  0
   -2.6547    0.9094    3.3156 H   0  0  0  0  0  0  0  0  0  0  0  0
  1  2  2  0  0  0  0
  2  3  1  0  0  0  0
  3  4  2  0  0  0  0
  4  5  1  0  0  0  0
  5  6  2  0  0  0  0
  6  7  1  0  0  0  0
  6  8  1  0  0  0  0
  8  9  1  0  0  0  0
  8 10  2  0  0  0  0
  3 10  1  0  0  0  0
  4 11  1  0  0  0  0
 11 12  2  0  0  0  0
 12 13  1  0  0  0  0
 13 14  3  0  0  0  0
 12 15  1  0  0  0  0
 15 16  3  0  0  0  0
 11 17  1  0  0  0  0
  2 17  1  0  0  0  0
 17 18  2  0  0  0  0
 18 19  1  0  0  0  0
 19 20  2  0  0  0  0
 20 21  1  0  0  0  0
 21 22  1  0  0  0  0
 20 23  1  0  0  0  0
 23 24  2  0  0  0  0
 24 25  1  0  0  0  0
 19 25  1  0  0  0  0
 24 26  1  0  0  0  0
 26 27  2  0  0  0  0
 27 28  1  0  0  0  0
 23 28  1  0  0  0  0
 27 29  1  0  0  0  0
 29 30  2  0  0  0  0
 30 31  1  0  0  0  0
 26 31  1  0  0  0  0
 31 32  1  0  0  0  0
 32 33  2  0  0  0  0
 33 34  1  0  0  0  0
 34 35  2  0  0  0  0
 35 36  1  0  0  0  0
 36 37  1  0  0  0  0
 35 38  1  0  0  0  0
 38 39  2  0  0  0  0
 32 39  1  0  0  0  0
 31 40  1  0  0  0  0
 40 41  2  0  0  0  0
 41 42  1  0  0  0  0
 42 43  2  0  0  0  0
 43 44  1  0  0  0  0
 44 45  1  0  0  0  0
 43 46  1  0  0  0  0
 46 47  2  0  0  0  0
 40 47  1  0  0  0  0
 48 49  2  0  0  0  0
 49 50  1  0  0  0  0
 50 51  1  0  0  0  0
 51 52  2  0  0  0  0
 48 52  1  0  0  0  0
 52 53  1  0  0  0  0
 53 54  1  0  0  0  0
 54 55  1  0  0  0  0
 55 56  2  0  0  0  0
 56 57  1  0  0  0  0
 57 58  1  0  0  0  0
 58 59  1  0  0  0  0
 59 60  2  0  0  0  0
 60 61  1  0  0  0  0
 60 62  1  0  0  0  0
 62 63  1  0  0  0  0
 62 64  2  0  0  0  0
 58 65  2  0  0  0  0
 64 65  1  0  0  0  0
 65 66  1  0  0  0  0
 56 66  1  0  0  0  0
 66 67  2  0  0  0  0
 57 68  2  0  0  0  0
 68 69  1  0  0  0  0
 69 70  3  0  0  0  0
 68 71  1  0  0  0  0
 71 72  3  0  0  0  0
 54 73  2  0  0  0  0
 51 73  1  0  0  0  0
 73 74  1  0  0  0  0
 74 75  1  0  0  0  0
 29 76  1  0  0  0  0
 76 77  1  0  0  0  0
 77 78  2  0  0  0  0
 78 30  1  0  0  0  0
 77 79  1  0  0  0  0
 79 80  2  0  0  0  0
 80 81  1  0  0  0  0
 81 78  1  0  0  0  0
 79 82  1  0  0  0  0
 83 84  2  0  0  0  0
 84 85  1  0  0  0  0
 85 86  2  0  0  0  0
 86 87  1  0  0  0  0
 87 88  1  0  0  0  0
 86 89  1  0  0  0  0
 89 90  2  0  0  0  0
 83 90  1  0  0  0  0
 91 92  2  0  0  0  0
 92 93  1  0  0  0  0
 93 94  2  0  0  0  0
 94 95  1  0  0  0  0
 95 96  1  0  0  0  0
 94 97  1  0  0  0  0
 97 98  2  0  0  0  0
 91 98  1  0  0  0  0
 48 82  1  0  0  0  0
 49 80  1  0  0  0  0
 82 83  1  0  0  0  0
 82 91  1  0  0  0  0
  5 99  1  0  0  0  0
 10100  1  0  0  0  0
 18101  1  0  0  0  0
 21102  1  0  0  0  0
 21103  1  0  0  0  0
 22104  1  0  0  0  0
 22105  1  0  0  0  0
 22106  1  0  0  0  0
 33107  1  0  0  0  0
 34108  1  0  0  0  0
 36109  1  0  0  0  0
 36110  1  0  0  0  0
 37111  1  0  0  0  0
 37112  1  0  0  0  0
 37113  1  0  0  0  0
 38114  1  0  0  0  0
 39115  1  0  0  0  0
 41116  1  0  0  0  0
 42117  1  0  0  0  0
 44118  1  0  0  0  0
 44119  1  0  0  0  0
 45120  1  0  0  0  0
 45121  1  0  0  0  0
 45122  1  0  0  0  0
 46123  1  0  0  0  0
 47124  1  0  0  0  0
 55125  1  0  0  0  0
 59126  1  0  0  0  0
 64127  1  0  0  0  0
 74128  1  0  0  0  0
 74129  1  0  0  0  0
 75130  1  0  0  0  0
 75131  1  0  0  0  0
 75132  1  0  0  0  0
 84133  1  0  0  0  0
 85134  1  0  0  0  0
 87135  1  0  0  0  0
 87136  1  0  0  0  0
 88137  1  0  0  0  0
 88138  1  0  0  0  0
 88139  1  0  0  0  0
 89140  1  0  0  0  0
 90141  1  0  0  0  0
 92142  1  0  0  0  0
 93143  1  0  0  0  0
 95144  1  0  0  0  0
 95145  1  0  0  0  0
 96146  1  0  0  0  0
 96147  1  0  0  0  0
 96148  1  0  0  0  0
 97149  1  0  0  0  0
 98150  1  0  0  0  0
M  END
