SCF done       -173.935612403190          0.000883017934
 OpenBabel12282109493D

 94101  0  0  0  0  0  0  0  0999 V2000
   -0.1351    0.3143   -0.4091 C   0  0  0  0  0  0  0  0  0  0  0  0
   -0.3401    1.5077   -0.5298 O   0  0  0  0  0  0  0  0  0  0  0  0
   -0.8550   -0.6053    0.4963 C   0  0  0  0  0  0  0  0  0  0  0  0
   -1.8735   -0.3135    1.3815 C   0  0  0  0  0  0  0  0  0  0  0  0
   -2.3892   -1.3571    2.1330 C   0  0  0  0  0  0  0  0  0  0  0  0
   -1.8880   -2.6511    1.9891 C   0  0  0  0  0  0  0  0  0  0  0  0
   -0.8652   -2.9431    1.0984 C   0  0  0  0  0  0  0  0  0  0  0  0
   -0.3429   -1.9046    0.3433 C   0  0  0  0  0  0  0  0  0  0  0  0
    0.7218   -1.8772   -0.6616 C   0  0  0  0  0  0  0  0  0  0  0  0
    1.4318   -2.9699   -1.0849 C   0  0  0  0  0  0  0  0  0  0  0  0
    2.4496   -2.9656   -2.0624 C   0  0  0  0  0  0  0  0  0  0  0  0
    3.2857   -3.0517   -2.8450 N   0  0  0  0  0  0  0  0  0  0  0  0
    1.2331   -4.2799   -0.5977 C   0  0  0  0  0  0  0  0  0  0  0  0
    1.1225   -5.3666   -0.2454 N   0  0  0  0  0  0  0  0  0  0  0  0
    0.8580   -0.5048   -1.1093 C   0  0  0  0  0  0  0  0  0  0  0  0
    1.7813   -0.0396   -2.0128 C   0  0  0  0  0  0  0  0  0  0  0  0
    2.0004    1.2570   -2.4971 C   0  0  0  0  0  0  0  0  0  0  0  0
    3.0395    1.5592   -3.3763 C   0  0  0  0  0  0  0  0  0  0  0  0
    3.1228    2.8945   -3.7507 C   0  0  0  0  0  0  0  0  0  0  0  0
    2.1105    3.6488   -3.1639 C   0  0  0  0  0  0  0  0  0  0  0  0
    1.0955    2.7004   -2.1241 S   0  0  0  0  0  0  0  0  0  0  0  0
    1.8360    5.0565   -3.2310 C   0  0  0  0  0  0  0  0  0  0  0  0
   -0.2470   12.1699   -1.0070 C   0  0  0  0  0  0  0  0  0  0  0  0
   -0.1038   13.1541   -2.0047 C   0  0  0  0  0  0  0  0  0  0  0  0
   -0.6640   14.3560   -1.6181 C   0  0  0  0  0  0  0  0  0  0  0  0
   -1.2583   14.3559   -0.3522 C   0  0  0  0  0  0  0  0  0  0  0  0
   -1.0785   12.7905    0.3877 S   0  0  0  0  0  0  0  0  0  0  0  0
   -1.8978   15.4779    0.1789 C   0  0  0  0  0  0  0  0  0  0  0  0
   -2.5670   15.6393    1.3718 C   0  0  0  0  0  0  0  0  0  0  0  0
   -3.2308   16.8474    1.8124 C   0  0  0  0  0  0  0  0  0  0  0  0
   -3.2662   18.0644    1.1808 C   0  0  0  0  0  0  0  0  0  0  0  0
   -3.9416   19.1966    1.6836 C   0  0  0  0  0  0  0  0  0  0  0  0
   -4.4663   20.1549    2.0354 N   0  0  0  0  0  0  0  0  0  0  0  0
   -2.6408   18.3782   -0.0439 C   0  0  0  0  0  0  0  0  0  0  0  0
   -2.1649   18.7167   -1.0334 N   0  0  0  0  0  0  0  0  0  0  0  0
   -3.8743   16.5502    3.0946 C   0  0  0  0  0  0  0  0  0  0  0  0
   -4.6533   17.3303    3.9341 C   0  0  0  0  0  0  0  0  0  0  0  0
   -5.1330   16.7533    5.1013 C   0  0  0  0  0  0  0  0  0  0  0  0
   -4.8485   15.4300    5.4363 C   0  0  0  0  0  0  0  0  0  0  0  0
   -4.0698   14.6432    4.6026 C   0  0  0  0  0  0  0  0  0  0  0  0
   -3.5948   15.2179    3.4411 C   0  0  0  0  0  0  0  0  0  0  0  0
   -2.7591   14.6043    2.3872 C   0  0  0  0  0  0  0  0  0  0  0  0
   -2.3308   13.4634    2.3897 O   0  0  0  0  0  0  0  0  0  0  0  0
   -3.3762   -1.1216    3.0054 F   0  0  0  0  0  0  0  0  0  0  0  0
   -5.3329   14.9137    6.5730 F   0  0  0  0  0  0  0  0  0  0  0  0
    1.5210    5.8551   -1.7110 S   0  0  0  0  0  0  0  0  0  0  0  0
    1.2060    7.3605   -2.5147 C   0  0  0  0  0  0  0  0  0  0  0  0
    1.3264    7.2164   -3.8773 C   0  0  0  0  0  0  0  0  0  0  0  0
    1.6710    5.9217   -4.2967 C   0  0  0  0  0  0  0  0  0  0  0  0
    0.8421    8.5195   -1.7793 C   0  0  0  0  0  0  0  0  0  0  0  0
    0.6036    8.6167   -0.4265 C   0  0  0  0  0  0  0  0  0  0  0  0
    0.2095    9.8868    0.0031 C   0  0  0  0  0  0  0  0  0  0  0  0
    0.1547   10.8104   -1.0446 C   0  0  0  0  0  0  0  0  0  0  0  0
    0.6084   10.0486   -2.5560 S   0  0  0  0  0  0  0  0  0  0  0  0
    0.5895   12.9349   -3.3138 C   0  0  0  0  0  0  0  0  0  0  0  0
    0.8375   14.2115   -4.1088 C   0  0  0  0  0  0  0  0  0  0  0  0
    4.2371    3.4239   -4.6002 C   0  0  0  0  0  0  0  0  0  0  0  0
    4.2205    2.8191   -6.0050 C   0  0  0  0  0  0  0  0  0  0  0  0
    1.6937    5.5423   -5.7461 C   0  0  0  0  0  0  0  0  0  0  0  0
    0.6251    4.4962   -6.0649 C   0  0  0  0  0  0  0  0  0  0  0  0
   -0.1024   10.2133    1.4278 C   0  0  0  0  0  0  0  0  0  0  0  0
    0.2652    9.1137    2.4171 C   0  0  0  0  0  0  0  0  0  0  0  0
   -2.4034   -3.6395    2.7280 F   0  0  0  0  0  0  0  0  0  0  0  0
   -5.8893   17.4901    5.9233 F   0  0  0  0  0  0  0  0  0  0  0  0
   -2.2569    0.6886    1.4886 H   0  0  0  0  0  0  0  0  0  0  0  0
   -0.5148   -3.9595    1.0273 H   0  0  0  0  0  0  0  0  0  0  0  0
    2.4697   -0.7668   -2.4261 H   0  0  0  0  0  0  0  0  0  0  0  0
    3.7341    0.8069   -3.7078 H   0  0  0  0  0  0  0  0  0  0  0  0
   -0.6650   15.2431   -2.2248 H   0  0  0  0  0  0  0  0  0  0  0  0
   -1.8652   16.3371   -0.4797 H   0  0  0  0  0  0  0  0  0  0  0  0
   -4.9037   18.3568    3.7232 H   0  0  0  0  0  0  0  0  0  0  0  0
   -3.8479   13.6190    4.8564 H   0  0  0  0  0  0  0  0  0  0  0  0
    1.1501    8.0318   -4.5572 H   0  0  0  0  0  0  0  0  0  0  0  0
    0.7055    7.7647    0.2200 H   0  0  0  0  0  0  0  0  0  0  0  0
    1.5475   12.4415   -3.1254 H   0  0  0  0  0  0  0  0  0  0  0  0
   -0.0105   12.2486   -3.9199 H   0  0  0  0  0  0  0  0  0  0  0  0
    1.4130   14.9247   -3.5237 H   0  0  0  0  0  0  0  0  0  0  0  0
    1.4002   13.9748   -5.0085 H   0  0  0  0  0  0  0  0  0  0  0  0
   -0.0991   14.6746   -4.4084 H   0  0  0  0  0  0  0  0  0  0  0  0
    4.1790    4.5115   -4.6474 H   0  0  0  0  0  0  0  0  0  0  0  0
    5.1850    3.1657   -4.1197 H   0  0  0  0  0  0  0  0  0  0  0  0
    3.2665    2.9972   -6.4950 H   0  0  0  0  0  0  0  0  0  0  0  0
    5.0102    3.2568   -6.6107 H   0  0  0  0  0  0  0  0  0  0  0  0
    4.3802    1.7451   -5.9588 H   0  0  0  0  0  0  0  0  0  0  0  0
    1.5054    6.4405   -6.3369 H   0  0  0  0  0  0  0  0  0  0  0  0
    2.6722    5.1585   -6.0322 H   0  0  0  0  0  0  0  0  0  0  0  0
   -0.3603    4.8666   -5.7920 H   0  0  0  0  0  0  0  0  0  0  0  0
    0.6266    4.2712   -7.1287 H   0  0  0  0  0  0  0  0  0  0  0  0
    0.8096    3.5768   -5.5144 H   0  0  0  0  0  0  0  0  0  0  0  0
    0.4238   11.1324    1.7030 H   0  0  0  0  0  0  0  0  0  0  0  0
   -1.1715   10.4301    1.5167 H   0  0  0  0  0  0  0  0  0  0  0  0
    1.3212    8.8632    2.3453 H   0  0  0  0  0  0  0  0  0  0  0  0
    0.0638    9.4590    3.4279 H   0  0  0  0  0  0  0  0  0  0  0  0
   -0.3236    8.2165    2.2436 H   0  0  0  0  0  0  0  0  0  0  0  0
  1  3  1  0  0  0  0
  2  1  2  0  0  0  0
  3  4  1  0  0  0  0
  4 65  1  0  0  0  0
  4  5  2  0  0  0  0
  5 44  1  0  0  0  0
  6  5  1  0  0  0  0
  6 63  1  0  0  0  0
  7  6  2  0  0  0  0
  8  3  2  0  0  0  0
  8  7  1  0  0  0  0
  9  8  1  0  0  0  0
 10  9  2  0  0  0  0
 10 13  1  0  0  0  0
 11 10  1  0  0  0  0
 12 11  3  0  0  0  0
 13 14  3  0  0  0  0
 15  9  1  0  0  0  0
 15  1  1  0  0  0  0
 16 15  2  0  0  0  0
 17 21  1  0  0  0  0
 17 16  1  0  0  0  0
 18 17  2  0  0  0  0
 19 18  1  0  0  0  0
 19 20  2  0  0  0  0
 20 21  1  0  0  0  0
 22 20  1  0  0  0  0
 22 46  1  0  0  0  0
 23 27  1  0  0  0  0
 24 25  1  0  0  0  0
 24 23  2  0  0  0  0
 25 26  2  0  0  0  0
 26 28  1  0  0  0  0
 26 27  1  0  0  0  0
 28 29  2  0  0  0  0
 29 30  1  0  0  0  0
 29 42  1  0  0  0  0
 30 36  1  0  0  0  0
 31 32  1  0  0  0  0
 31 30  2  0  0  0  0
 32 33  3  0  0  0  0
 34 31  1  0  0  0  0
 35 34  3  0  0  0  0
 36 41  2  0  0  0  0
 36 37  1  0  0  0  0
 37 38  2  0  0  0  0
 38 39  1  0  0  0  0
 38 64  1  0  0  0  0
 39 45  1  0  0  0  0
 40 72  1  0  0  0  0
 40 39  2  0  0  0  0
 41 40  1  0  0  0  0
 42 43  2  0  0  0  0
 42 41  1  0  0  0  0
 47 50  1  0  0  0  0
 47 46  1  0  0  0  0
 48 47  2  0  0  0  0
 49 48  1  0  0  0  0
 49 22  2  0  0  0  0
 50 51  2  0  0  0  0
 51 52  1  0  0  0  0
 51 74  1  0  0  0  0
 52 61  1  0  0  0  0
 53 23  1  0  0  0  0
 53 52  2  0  0  0  0
 54 50  1  0  0  0  0
 54 53  1  0  0  0  0
 55 75  1  0  0  0  0
 55 24  1  0  0  0  0
 56 77  1  0  0  0  0
 56 55  1  0  0  0  0
 57 81  1  0  0  0  0
 57 19  1  0  0  0  0
 58 84  1  0  0  0  0
 58 57  1  0  0  0  0
 59 49  1  0  0  0  0
 60 87  1  0  0  0  0
 60 59  1  0  0  0  0
 60 89  1  0  0  0  0
 61 91  1  0  0  0  0
 61 90  1  0  0  0  0
 61 62  1  0  0  0  0
 62 93  1  0  0  0  0
 66  7  1  0  0  0  0
 67 16  1  0  0  0  0
 68 18  1  0  0  0  0
 69 25  1  0  0  0  0
 70 28  1  0  0  0  0
 71 37  1  0  0  0  0
 73 48  1  0  0  0  0
 76 55  1  0  0  0  0
 78 56  1  0  0  0  0
 79 56  1  0  0  0  0
 80 57  1  0  0  0  0
 82 58  1  0  0  0  0
 83 58  1  0  0  0  0
 85 59  1  0  0  0  0
 86 59  1  0  0  0  0
 88 60  1  0  0  0  0
 92 62  1  0  0  0  0
 94 62  1  0  0  0  0
M  END
