4TC-4F-C8C8.mol
  xtb     01102215293D
 energy: -265.777957055449 gnorm: 0.000704875760 xtb: 6.4.1 (unknown)
154170  0     0  0            999 V2000
   -2.9108  -16.4662   -1.4499 F   0  0  0  0  0  0  0  0  0  0  0  0
   -3.5694  -15.3113   -1.2926 C   0  0  0  0  0  0  0  0  0  0  0  0
   -4.9632  -15.3131   -1.2317 C   0  0  0  0  0  0  0  0  0  0  0  0
   -5.6224  -16.4730   -1.3345 F   0  0  0  0  0  0  0  0  0  0  0  0
   -5.6884  -14.1424   -1.0679 C   0  0  0  0  0  0  0  0  0  0  0  0
   -4.9871  -12.9505   -0.9662 C   0  0  0  0  0  0  0  0  0  0  0  0
   -3.5857  -12.9597   -1.0325 C   0  0  0  0  0  0  0  0  0  0  0  0
   -2.8620  -14.1246   -1.1931 C   0  0  0  0  0  0  0  0  0  0  0  0
   -5.4368  -11.5703   -0.7828 C   0  0  0  0  0  0  0  0  0  0  0  0
   -4.2616  -10.7162   -0.7969 C   0  0  0  0  0  0  0  0  0  0  0  0
   -3.0688  -11.5779   -0.9098 C   0  0  0  0  0  0  0  0  0  0  0  0
   -1.8945  -11.2710   -0.9162 O   0  0  0  0  0  0  0  0  0  0  0  0
   -4.3268   -9.3440   -0.7709 C   0  0  0  0  0  0  0  0  0  0  0  0
   -3.3325   -8.3557   -0.7429 C   0  0  0  0  0  0  0  0  0  0  0  0
   -1.9454   -8.4075   -0.6709 C   0  0  0  0  0  0  0  0  0  0  0  0
   -1.3821   -7.1444   -0.6303 C   0  0  0  0  0  0  0  0  0  0  0  0
    0.2606   -6.5719   -0.5257 S   0  0  0  0  0  0  0  0  0  0  0  0
   -2.3169   -6.0845   -0.6703 C   0  0  0  0  0  0  0  0  0  0  0  0
   -3.9213   -6.6818   -0.7619 S   0  0  0  0  0  0  0  0  0  0  0  0
   -1.7048   -4.8364   -0.6216 C   0  0  0  0  0  0  0  0  0  0  0  0
   -2.1294   -3.3931   -0.5912 C   0  0  0  0  0  0  0  0  0  0  0  0
   -2.7596   -2.9272   -1.8919 C   0  0  0  0  0  0  0  0  0  0  0  0
   -2.5494   -3.6112   -3.0807 C   0  0  0  0  0  0  0  0  0  0  0  0
   -3.0928   -3.1458   -4.2639 C   0  0  0  0  0  0  0  0  0  0  0  0
   -3.8473   -1.9813   -4.2939 C   0  0  0  0  0  0  0  0  0  0  0  0
   -4.0487   -1.2962   -3.1024 C   0  0  0  0  0  0  0  0  0  0  0  0
   -3.5117   -1.7595   -1.9168 C   0  0  0  0  0  0  0  0  0  0  0  0
   -4.4714   -1.5018   -5.5724 C   0  0  0  0  0  0  0  0  0  0  0  0
   -5.8676   -2.1035   -5.7439 C   0  0  0  0  0  0  0  0  0  0  0  0
   -3.0678   -3.2083    0.5869 C   0  0  0  0  0  0  0  0  0  0  0  0
   -4.3974   -3.5927    0.4557 C   0  0  0  0  0  0  0  0  0  0  0  0
   -5.2655   -3.4911    1.5247 C   0  0  0  0  0  0  0  0  0  0  0  0
   -4.8307   -3.0039    2.7513 C   0  0  0  0  0  0  0  0  0  0  0  0
   -5.7675   -2.9360    3.9225 C   0  0  0  0  0  0  0  0  0  0  0  0
   -5.7949   -4.2760    4.6604 C   0  0  0  0  0  0  0  0  0  0  0  0
   -3.4998   -2.6317    2.8790 C   0  0  0  0  0  0  0  0  0  0  0  0
   -2.6239   -2.7362    1.8128 C   0  0  0  0  0  0  0  0  0  0  0  0
   -0.3265   -4.9448   -0.5340 C   0  0  0  0  0  0  0  0  0  0  0  0
    0.2759   -3.6513   -0.4416 C   0  0  0  0  0  0  0  0  0  0  0  0
   -0.7823   -2.7029   -0.4458 C   0  0  0  0  0  0  0  0  0  0  0  0
   -0.5234   -1.3599   -0.3470 C   0  0  0  0  0  0  0  0  0  0  0  0
    0.8104   -0.9664   -0.2318 C   0  0  0  0  0  0  0  0  0  0  0  0
    1.8630   -1.9233   -0.2431 C   0  0  0  0  0  0  0  0  0  0  0  0
    3.0652   -1.2743   -0.1142 N   0  0  0  0  0  0  0  0  0  0  0  0
    4.3614   -1.8994   -0.1473 C   0  0  0  0  0  0  0  0  0  0  0  0
    4.8929   -2.0169   -1.5746 C   0  0  0  0  0  0  0  0  0  0  0  0
    1.6076   -3.2821   -0.3506 C   0  0  0  0  0  0  0  0  0  0  0  0
    1.4294    0.3118   -0.0883 C   0  0  0  0  0  0  0  0  0  0  0  0
    2.8313    0.0756   -0.0349 C   0  0  0  0  0  0  0  0  0  0  0  0
    3.7385    1.1160    0.0981 C   0  0  0  0  0  0  0  0  0  0  0  0
    0.9115    1.6034    0.0144 C   0  0  0  0  0  0  0  0  0  0  0  0
    1.8037    2.6352    0.1558 C   0  0  0  0  0  0  0  0  0  0  0  0
    3.2025    2.3894    0.1958 C   0  0  0  0  0  0  0  0  0  0  0  0
    4.8067    9.4729    1.1808 C   0  0  0  0  0  0  0  0  0  0  0  0
    5.9202   10.2514    1.3852 C   0  0  0  0  0  0  0  0  0  0  0  0
    5.8676   11.6973    1.5185 C   0  0  0  0  0  0  0  0  0  0  0  0
    7.2095   12.1616    1.8714 C   0  0  0  0  0  0  0  0  0  0  0  0
    7.7024   13.4268    2.1514 C   0  0  0  0  0  0  0  0  0  0  0  0
    9.0507   13.5487    2.4527 C   0  0  0  0  0  0  0  0  0  0  0  0
    9.5442   14.7613    2.7292 F   0  0  0  0  0  0  0  0  0  0  0  0
    9.9009   12.4431    2.4760 C   0  0  0  0  0  0  0  0  0  0  0  0
   11.1963   12.6082    2.7711 F   0  0  0  0  0  0  0  0  0  0  0  0
    9.4155   11.1759    2.1980 C   0  0  0  0  0  0  0  0  0  0  0  0
    8.0725   11.0560    1.9007 C   0  0  0  0  0  0  0  0  0  0  0  0
    4.7906   12.5202    1.3130 C   0  0  0  0  0  0  0  0  0  0  0  0
    3.4968   12.1296    0.9054 C   0  0  0  0  0  0  0  0  0  0  0  0
    2.4203   11.9199    0.5634 N   0  0  0  0  0  0  0  0  0  0  0  0
    4.8309   13.9239    1.4593 C   0  0  0  0  0  0  0  0  0  0  0  0
    4.7866   15.0660    1.5630 N   0  0  0  0  0  0  0  0  0  0  0  0
    7.3188    9.8228    1.5801 C   0  0  0  0  0  0  0  0  0  0  0  0
    7.8001    8.7105    1.5152 O   0  0  0  0  0  0  0  0  0  0  0  0
   -6.7416  -11.1988   -0.5847 C   0  0  0  0  0  0  0  0  0  0  0  0
   -7.2158   -9.8943   -0.3273 C   0  0  0  0  0  0  0  0  0  0  0  0
   -7.6990   -8.8779   -0.0968 N   0  0  0  0  0  0  0  0  0  0  0  0
   -7.8270  -12.1016   -0.5814 C   0  0  0  0  0  0  0  0  0  0  0  0
   -8.7548  -12.7770   -0.5698 N   0  0  0  0  0  0  0  0  0  0  0  0
    0.6705    4.2839    1.5879 C   0  0  0  0  0  0  0  0  0  0  0  0
   -0.7134    4.1886    1.5173 C   0  0  0  0  0  0  0  0  0  0  0  0
   -1.4826    4.2913    2.6604 C   0  0  0  0  0  0  0  0  0  0  0  0
   -0.8935    4.4915    3.9022 C   0  0  0  0  0  0  0  0  0  0  0  0
    0.4902    4.5765    3.9683 C   0  0  0  0  0  0  0  0  0  0  0  0
    1.2646    4.4700    2.8279 C   0  0  0  0  0  0  0  0  0  0  0  0
   -1.7288    4.5601    5.1478 C   0  0  0  0  0  0  0  0  0  0  0  0
   -1.9244    3.1614    5.7364 C   0  0  0  0  0  0  0  0  0  0  0  0
    0.8572    4.7793   -0.8688 C   0  0  0  0  0  0  0  0  0  0  0  0
    0.3644    6.0725   -0.7365 C   0  0  0  0  0  0  0  0  0  0  0  0
   -0.1834    6.7287   -1.8209 C   0  0  0  0  0  0  0  0  0  0  0  0
   -0.2526    6.1134   -3.0649 C   0  0  0  0  0  0  0  0  0  0  0  0
   -0.8964    6.8098   -4.2287 C   0  0  0  0  0  0  0  0  0  0  0  0
   -2.4028    6.5420   -4.2431 C   0  0  0  0  0  0  0  0  0  0  0  0
    0.2450    4.8240   -3.1916 C   0  0  0  0  0  0  0  0  0  0  0  0
    0.8019    4.1641   -2.1102 C   0  0  0  0  0  0  0  0  0  0  0  0
    1.5068    4.1159    0.3319 C   0  0  0  0  0  0  0  0  0  0  0  0
    2.8999    4.6688    0.4670 C   0  0  0  0  0  0  0  0  0  0  0  0
    3.8411    3.6571    0.3680 C   0  0  0  0  0  0  0  0  0  0  0  0
    3.4980    5.9121    0.6451 C   0  0  0  0  0  0  0  0  0  0  0  0
    4.9087    5.8290    0.6910 C   0  0  0  0  0  0  0  0  0  0  0  0
    5.4804    4.1945    0.4952 S   0  0  0  0  0  0  0  0  0  0  0  0
    2.9703    7.5310    0.8463 S   0  0  0  0  0  0  0  0  0  0  0  0
    4.6463    8.0918    0.9990 C   0  0  0  0  0  0  0  0  0  0  0  0
    5.5482    7.0400    0.8875 C   0  0  0  0  0  0  0  0  0  0  0  0
   -6.7634  -14.2013   -1.0290 H   0  0  0  0  0  0  0  0  0  0  0  0
   -1.7848  -14.1152   -1.2401 H   0  0  0  0  0  0  0  0  0  0  0  0
   -5.3260   -8.9248   -0.7773 H   0  0  0  0  0  0  0  0  0  0  0  0
   -1.3962   -9.3305   -0.6503 H   0  0  0  0  0  0  0  0  0  0  0  0
   -1.9580   -4.5153   -3.0887 H   0  0  0  0  0  0  0  0  0  0  0  0
   -2.9232   -3.6955   -5.1788 H   0  0  0  0  0  0  0  0  0  0  0  0
   -4.6325   -0.3867   -3.1031 H   0  0  0  0  0  0  0  0  0  0  0  0
   -3.6886   -1.2171   -0.9994 H   0  0  0  0  0  0  0  0  0  0  0  0
   -4.5477   -0.4128   -5.5614 H   0  0  0  0  0  0  0  0  0  0  0  0
   -3.8480   -1.7925   -6.4204 H   0  0  0  0  0  0  0  0  0  0  0  0
   -6.3194   -1.7583   -6.6708 H   0  0  0  0  0  0  0  0  0  0  0  0
   -5.8113   -3.1894   -5.7678 H   0  0  0  0  0  0  0  0  0  0  0  0
   -6.5091   -1.8131   -4.9149 H   0  0  0  0  0  0  0  0  0  0  0  0
   -4.7550   -3.9661   -0.4931 H   0  0  0  0  0  0  0  0  0  0  0  0
   -6.2954   -3.7938    1.4043 H   0  0  0  0  0  0  0  0  0  0  0  0
   -5.4457   -2.1516    4.6105 H   0  0  0  0  0  0  0  0  0  0  0  0
   -6.7750   -2.6966    3.5768 H   0  0  0  0  0  0  0  0  0  0  0  0
   -4.8007   -4.5283    5.0231 H   0  0  0  0  0  0  0  0  0  0  0  0
   -6.1269   -5.0682    3.9933 H   0  0  0  0  0  0  0  0  0  0  0  0
   -6.4731   -4.2293    5.5090 H   0  0  0  0  0  0  0  0  0  0  0  0
   -3.1396   -2.2545    3.8257 H   0  0  0  0  0  0  0  0  0  0  0  0
   -1.5912   -2.4448    1.9385 H   0  0  0  0  0  0  0  0  0  0  0  0
   -1.3159   -0.6283   -0.3485 H   0  0  0  0  0  0  0  0  0  0  0  0
    5.0472   -1.3053    0.4620 H   0  0  0  0  0  0  0  0  0  0  0  0
    4.2787   -2.8905    0.3060 H   0  0  0  0  0  0  0  0  0  0  0  0
    4.9792   -1.0318   -2.0272 H   0  0  0  0  0  0  0  0  0  0  0  0
    5.8721   -2.4875   -1.5717 H   0  0  0  0  0  0  0  0  0  0  0  0
    4.2177   -2.6166   -2.1805 H   0  0  0  0  0  0  0  0  0  0  0  0
    2.3879   -4.0268   -0.3621 H   0  0  0  0  0  0  0  0  0  0  0  0
    4.8057    0.9629    0.1329 H   0  0  0  0  0  0  0  0  0  0  0  0
   -0.1529    1.7753   -0.0139 H   0  0  0  0  0  0  0  0  0  0  0  0
    3.8629   10.0051    1.1628 H   0  0  0  0  0  0  0  0  0  0  0  0
    7.0910   14.3137    2.1490 H   0  0  0  0  0  0  0  0  0  0  0  0
   10.0666   10.3165    2.2150 H   0  0  0  0  0  0  0  0  0  0  0  0
   -1.1922    4.0470    0.5591 H   0  0  0  0  0  0  0  0  0  0  0  0
   -2.5584    4.2195    2.5865 H   0  0  0  0  0  0  0  0  0  0  0  0
    0.9704    4.7301    4.9242 H   0  0  0  0  0  0  0  0  0  0  0  0
    2.3401    4.5344    2.9093 H   0  0  0  0  0  0  0  0  0  0  0  0
   -2.7041    4.9928    4.9166 H   0  0  0  0  0  0  0  0  0  0  0  0
   -1.2391    5.1964    5.8876 H   0  0  0  0  0  0  0  0  0  0  0  0
   -2.5287    3.2096    6.6392 H   0  0  0  0  0  0  0  0  0  0  0  0
   -0.9627    2.7177    5.9847 H   0  0  0  0  0  0  0  0  0  0  0  0
   -2.4232    2.5149    5.0177 H   0  0  0  0  0  0  0  0  0  0  0  0
    0.4044    6.5641    0.2249 H   0  0  0  0  0  0  0  0  0  0  0  0
   -0.5583    7.7346   -1.7001 H   0  0  0  0  0  0  0  0  0  0  0  0
   -0.4584    6.4537   -5.1633 H   0  0  0  0  0  0  0  0  0  0  0  0
   -0.7236    7.8853   -4.1572 H   0  0  0  0  0  0  0  0  0  0  0  0
   -2.8594    6.9019   -3.3238 H   0  0  0  0  0  0  0  0  0  0  0  0
   -2.5965    5.4747   -4.3265 H   0  0  0  0  0  0  0  0  0  0  0  0
   -2.8711    7.0471   -5.0845 H   0  0  0  0  0  0  0  0  0  0  0  0
    0.2034    4.3278   -4.1510 H   0  0  0  0  0  0  0  0  0  0  0  0
    1.1915    3.1644   -2.2365 H   0  0  0  0  0  0  0  0  0  0  0  0
    6.6117    7.1749    0.9551 H   0  0  0  0  0  0  0  0  0  0  0  0
  1  2  1  0  0  0  0
  2  3  2  0  0  0  0
  3  4  1  0  0  0  0
  3  5  1  0  0  0  0
  5  6  2  0  0  0  0
  6  7  1  0  0  0  0
  7  8  2  0  0  0  0
  2  8  1  0  0  0  0
  6  9  1  0  0  0  0
  9 10  1  0  0  0  0
 10 11  1  0  0  0  0
  7 11  1  0  0  0  0
 11 12  2  0  0  0  0
 10 13  2  0  0  0  0
 13 14  1  0  0  0  0
 14 15  2  0  0  0  0
 15 16  1  0  0  0  0
 16 17  1  0  0  0  0
 16 18  2  0  0  0  0
 18 19  1  0  0  0  0
 14 19  1  0  0  0  0
 18 20  1  0  0  0  0
 20 21  1  0  0  0  0
 21 22  1  0  0  0  0
 22 23  2  0  0  0  0
 23 24  1  0  0  0  0
 24 25  2  0  0  0  0
 25 26  1  0  0  0  0
 26 27  2  0  0  0  0
 22 27  1  0  0  0  0
 25 28  1  0  0  0  0
 28 29  1  0  0  0  0
 21 30  1  0  0  0  0
 30 31  2  0  0  0  0
 31 32  1  0  0  0  0
 32 33  2  0  0  0  0
 33 34  1  0  0  0  0
 34 35  1  0  0  0  0
 33 36  1  0  0  0  0
 36 37  2  0  0  0  0
 30 37  1  0  0  0  0
 20 38  2  0  0  0  0
 17 38  1  0  0  0  0
 38 39  1  0  0  0  0
 39 40  2  0  0  0  0
 21 40  1  0  0  0  0
 40 41  1  0  0  0  0
 41 42  2  0  0  0  0
 42 43  1  0  0  0  0
 43 44  1  0  0  0  0
 44 45  1  0  0  0  0
 45 46  1  0  0  0  0
 43 47  2  0  0  0  0
 39 47  1  0  0  0  0
 42 48  1  0  0  0  0
 48 49  2  0  0  0  0
 44 49  1  0  0  0  0
 49 50  1  0  0  0  0
 48 51  1  0  0  0  0
 51 52  2  0  0  0  0
 52 53  1  0  0  0  0
 50 53  2  0  0  0  0
 54 55  2  0  0  0  0
 55 56  1  0  0  0  0
 56 57  1  0  0  0  0
 57 58  2  0  0  0  0
 58 59  1  0  0  0  0
 59 60  1  0  0  0  0
 59 61  2  0  0  0  0
 61 62  1  0  0  0  0
 61 63  1  0  0  0  0
 63 64  2  0  0  0  0
 57 64  1  0  0  0  0
 56 65  2  0  0  0  0
 65 66  1  0  0  0  0
 66 67  3  0  0  0  0
 65 68  1  0  0  0  0
 68 69  3  0  0  0  0
 55 70  1  0  0  0  0
 64 70  1  0  0  0  0
 70 71  2  0  0  0  0
  9 72  2  0  0  0  0
 72 73  1  0  0  0  0
 73 74  3  0  0  0  0
 72 75  1  0  0  0  0
 75 76  3  0  0  0  0
 77 78  2  0  0  0  0
 78 79  1  0  0  0  0
 79 80  2  0  0  0  0
 80 81  1  0  0  0  0
 81 82  2  0  0  0  0
 77 82  1  0  0  0  0
 80 83  1  0  0  0  0
 83 84  1  0  0  0  0
 85 86  2  0  0  0  0
 86 87  1  0  0  0  0
 87 88  2  0  0  0  0
 88 89  1  0  0  0  0
 89 90  1  0  0  0  0
 88 91  1  0  0  0  0
 91 92  2  0  0  0  0
 85 92  1  0  0  0  0
 52 93  1  0  0  0  0
 93 94  1  0  0  0  0
 94 95  2  0  0  0  0
 95 53  1  0  0  0  0
 94 96  1  0  0  0  0
 96 97  2  0  0  0  0
 97 98  1  0  0  0  0
 98 95  1  0  0  0  0
 96 99  1  0  0  0  0
 99100  1  0  0  0  0
100101  2  0  0  0  0
101 97  1  0  0  0  0
100 54  1  0  0  0  0
 77 93  1  0  0  0  0
 85 93  1  0  0  0  0
  5102  1  0  0  0  0
  8103  1  0  0  0  0
 13104  1  0  0  0  0
 15105  1  0  0  0  0
 23106  1  0  0  0  0
 24107  1  0  0  0  0
 26108  1  0  0  0  0
 27109  1  0  0  0  0
 28110  1  0  0  0  0
 28111  1  0  0  0  0
 29112  1  0  0  0  0
 29113  1  0  0  0  0
 29114  1  0  0  0  0
 31115  1  0  0  0  0
 32116  1  0  0  0  0
 34117  1  0  0  0  0
 34118  1  0  0  0  0
 35119  1  0  0  0  0
 35120  1  0  0  0  0
 35121  1  0  0  0  0
 36122  1  0  0  0  0
 37123  1  0  0  0  0
 41124  1  0  0  0  0
 45125  1  0  0  0  0
 45126  1  0  0  0  0
 46127  1  0  0  0  0
 46128  1  0  0  0  0
 46129  1  0  0  0  0
 47130  1  0  0  0  0
 50131  1  0  0  0  0
 51132  1  0  0  0  0
 54133  1  0  0  0  0
 58134  1  0  0  0  0
 63135  1  0  0  0  0
 78136  1  0  0  0  0
 79137  1  0  0  0  0
 81138  1  0  0  0  0
 82139  1  0  0  0  0
 83140  1  0  0  0  0
 83141  1  0  0  0  0
 84142  1  0  0  0  0
 84143  1  0  0  0  0
 84144  1  0  0  0  0
 86145  1  0  0  0  0
 87146  1  0  0  0  0
 89147  1  0  0  0  0
 89148  1  0  0  0  0
 90149  1  0  0  0  0
 90150  1  0  0  0  0
 90151  1  0  0  0  0
 91152  1  0  0  0  0
 92153  1  0  0  0  0
101154  1  0  0  0  0
M  END
