6-IFIC.mol
  xtb     01102215353D
 energy: -232.997431714370 gnorm: 0.000394802012 xtb: 6.4.1 (unknown)
130142  0     0  0            999 V2000
    8.5717    3.7439    0.3827 O   0  0  0  0  0  0  0  0  0  0  0  0
    9.7647    3.9010    0.1726 C   0  0  0  0  0  0  0  0  0  0  0  0
   10.6299    4.9294    0.7742 C   0  0  0  0  0  0  0  0  0  0  0  0
   11.9364    4.7849    0.2741 C   0  0  0  0  0  0  0  0  0  0  0  0
   11.9603    3.6629   -0.6670 C   0  0  0  0  0  0  0  0  0  0  0  0
   13.0627    3.2398   -1.3633 C   0  0  0  0  0  0  0  0  0  0  0  0
   14.3411    3.8268   -1.2556 C   0  0  0  0  0  0  0  0  0  0  0  0
   15.4065    4.2529   -1.2179 N   0  0  0  0  0  0  0  0  0  0  0  0
   13.0942    2.1738   -2.2871 C   0  0  0  0  0  0  0  0  0  0  0  0
   13.2046    1.3246   -3.0525 N   0  0  0  0  0  0  0  0  0  0  0  0
   10.6209    3.1157   -0.7180 C   0  0  0  0  0  0  0  0  0  0  0  0
   10.2067    2.0350   -1.4597 C   0  0  0  0  0  0  0  0  0  0  0  0
    8.9407    1.4550   -1.5582 C   0  0  0  0  0  0  0  0  0  0  0  0
    8.6717    0.3463   -2.3653 C   0  0  0  0  0  0  0  0  0  0  0  0
    9.6954   -0.5701   -3.4104 S   0  0  0  0  0  0  0  0  0  0  0  0
    8.3401   -1.5699   -3.8675 C   0  0  0  0  0  0  0  0  0  0  0  0
    8.5875   -2.6313   -4.8500 C   0  0  0  0  0  0  0  0  0  0  0  0
    7.4718   -3.2819   -5.1790 O   0  0  0  0  0  0  0  0  0  0  0  0
    7.6079   -4.3244   -6.1460 C   0  0  0  0  0  0  0  0  0  0  0  0
    6.2210   -4.7220   -6.6132 C   0  0  0  0  0  0  0  0  0  0  0  0
    9.6802   -2.8673   -5.3044 O   0  0  0  0  0  0  0  0  0  0  0  0
    7.1814   -1.2106   -3.2338 C   0  0  0  0  0  0  0  0  0  0  0  0
    6.0237   -1.8398   -3.4397 F   0  0  0  0  0  0  0  0  0  0  0  0
    7.3330   -0.1085   -2.3523 C   0  0  0  0  0  0  0  0  0  0  0  0
    6.5249    0.6686   -1.5071 C   0  0  0  0  0  0  0  0  0  0  0  0
    5.1521    0.5722   -1.2021 C   0  0  0  0  0  0  0  0  0  0  0  0
    4.4327    1.5069   -0.4584 C   0  0  0  0  0  0  0  0  0  0  0  0
    3.0978    1.1646   -0.3276 C   0  0  0  0  0  0  0  0  0  0  0  0
    2.7961   -0.0522   -0.9341 C   0  0  0  0  0  0  0  0  0  0  0  0
    1.4255   -0.3931   -0.7357 C   0  0  0  0  0  0  0  0  0  0  0  0
    0.6952   -1.5094   -1.1377 C   0  0  0  0  0  0  0  0  0  0  0  0
   -0.6350   -1.5502   -0.7944 C   0  0  0  0  0  0  0  0  0  0  0  0
   -1.6578   -2.6241   -1.1219 C   0  0  0  0  0  0  0  0  0  0  0  0
   -1.2787   -3.9787   -0.5005 C   0  0  0  0  0  0  0  0  0  0  0  0
   -1.0175   -3.8838    0.9984 C   0  0  0  0  0  0  0  0  0  0  0  0
   -1.7849   -2.7152   -2.6588 C   0  0  0  0  0  0  0  0  0  0  0  0
   -2.8694   -3.6551   -3.1683 C   0  0  0  0  0  0  0  0  0  0  0  0
   -2.8925   -2.0446   -0.4881 C   0  0  0  0  0  0  0  0  0  0  0  0
   -2.6044   -0.8146    0.0940 C   0  0  0  0  0  0  0  0  0  0  0  0
   -3.9754   -0.0892    0.8204 S   0  0  0  0  0  0  0  0  0  0  0  0
   -4.9674   -1.4570    0.3315 C   0  0  0  0  0  0  0  0  0  0  0  0
   -6.3429   -1.4468    0.6499 C   0  0  0  0  0  0  0  0  0  0  0  0
   -6.9427   -0.2740    1.7869 S   0  0  0  0  0  0  0  0  0  0  0  0
   -7.3846   -2.2590    0.1691 C   0  0  0  0  0  0  0  0  0  0  0  0
   -7.5649   -3.3050   -0.7729 C   0  0  0  0  0  0  0  0  0  0  0  0
   -6.5776   -3.8219   -1.5081 F   0  0  0  0  0  0  0  0  0  0  0  0
   -8.8599   -3.7334   -0.8825 C   0  0  0  0  0  0  0  0  0  0  0  0
   -9.4388   -4.7737   -1.7409 C   0  0  0  0  0  0  0  0  0  0  0  0
   -8.5117   -5.3769   -2.4886 O   0  0  0  0  0  0  0  0  0  0  0  0
   -8.9702   -6.3907   -3.3837 C   0  0  0  0  0  0  0  0  0  0  0  0
   -9.4956   -5.7903   -4.6795 C   0  0  0  0  0  0  0  0  0  0  0  0
  -10.6149   -5.0409   -1.7457 O   0  0  0  0  0  0  0  0  0  0  0  0
   -9.9457   -2.8626    0.1689 S   0  0  0  0  0  0  0  0  0  0  0  0
   -8.6269   -1.9103    0.7476 C   0  0  0  0  0  0  0  0  0  0  0  0
   -8.5941   -0.8483    1.6553 C   0  0  0  0  0  0  0  0  0  0  0  0
   -9.7361   -0.3724    2.3034 C   0  0  0  0  0  0  0  0  0  0  0  0
   -9.8697    0.6661    3.1930 C   0  0  0  0  0  0  0  0  0  0  0  0
   -8.7723    1.5169    3.6574 C   0  0  0  0  0  0  0  0  0  0  0  0
   -9.3726    2.4952    4.5799 C   0  0  0  0  0  0  0  0  0  0  0  0
  -10.7544    2.2510    4.6775 C   0  0  0  0  0  0  0  0  0  0  0  0
  -11.5334    3.0557    5.4931 C   0  0  0  0  0  0  0  0  0  0  0  0
  -10.9171    4.0858    6.1932 C   0  0  0  0  0  0  0  0  0  0  0  0
   -9.5537    4.3187    6.0909 C   0  0  0  0  0  0  0  0  0  0  0  0
   -8.7629    3.5192    5.2771 C   0  0  0  0  0  0  0  0  0  0  0  0
   -7.5940    1.4380    3.3470 O   0  0  0  0  0  0  0  0  0  0  0  0
  -11.0948    1.1111    3.8235 C   0  0  0  0  0  0  0  0  0  0  0  0
  -12.3512    0.5850    3.6706 C   0  0  0  0  0  0  0  0  0  0  0  0
  -13.4995    1.0705    4.3311 C   0  0  0  0  0  0  0  0  0  0  0  0
  -14.4731    1.4115    4.8351 N   0  0  0  0  0  0  0  0  0  0  0  0
  -12.6911   -0.5079    2.8455 C   0  0  0  0  0  0  0  0  0  0  0  0
  -13.0523   -1.3855    2.1986 N   0  0  0  0  0  0  0  0  0  0  0  0
   -4.2200   -2.4173   -0.3398 C   0  0  0  0  0  0  0  0  0  0  0  0
   -1.2250   -0.4855   -0.0719 C   0  0  0  0  0  0  0  0  0  0  0  0
   -0.4902    0.6237    0.3431 C   0  0  0  0  0  0  0  0  0  0  0  0
    0.8435    0.6591    0.0106 C   0  0  0  0  0  0  0  0  0  0  0  0
    1.8630    1.7471    0.3055 C   0  0  0  0  0  0  0  0  0  0  0  0
    1.4040    3.0357   -0.4131 C   0  0  0  0  0  0  0  0  0  0  0  0
    2.4054    4.1826   -0.3882 C   0  0  0  0  0  0  0  0  0  0  0  0
    2.0422    1.9713    1.8154 C   0  0  0  0  0  0  0  0  0  0  0  0
    2.3789    0.6857    2.5620 C   0  0  0  0  0  0  0  0  0  0  0  0
    4.1392   -0.7657   -1.7126 S   0  0  0  0  0  0  0  0  0  0  0  0
    7.4568    1.9393   -0.7593 S   0  0  0  0  0  0  0  0  0  0  0  0
   12.9302    5.6497    0.7026 C   0  0  0  0  0  0  0  0  0  0  0  0
   12.5988    6.6391    1.6205 C   0  0  0  0  0  0  0  0  0  0  0  0
   11.3075    6.7740    2.1082 C   0  0  0  0  0  0  0  0  0  0  0  0
   10.3035    5.9136    1.6860 C   0  0  0  0  0  0  0  0  0  0  0  0
   10.9469    1.5304   -2.0698 H   0  0  0  0  0  0  0  0  0  0  0  0
    8.2254   -3.9593   -6.9743 H   0  0  0  0  0  0  0  0  0  0  0  0
    8.1287   -5.1684   -5.6795 H   0  0  0  0  0  0  0  0  0  0  0  0
    5.6236   -5.0497   -5.7670 H   0  0  0  0  0  0  0  0  0  0  0  0
    6.2969   -5.5310   -7.3337 H   0  0  0  0  0  0  0  0  0  0  0  0
    5.7251   -3.8745   -7.0787 H   0  0  0  0  0  0  0  0  0  0  0  0
    4.9059    2.3804   -0.0475 H   0  0  0  0  0  0  0  0  0  0  0  0
    1.1723   -2.3017   -1.6939 H   0  0  0  0  0  0  0  0  0  0  0  0
   -2.0916   -4.6842   -0.6748 H   0  0  0  0  0  0  0  0  0  0  0  0
   -0.3858   -4.3560   -1.0023 H   0  0  0  0  0  0  0  0  0  0  0  0
   -1.8981   -3.5157    1.5202 H   0  0  0  0  0  0  0  0  0  0  0  0
   -0.7698   -4.8651    1.3960 H   0  0  0  0  0  0  0  0  0  0  0  0
   -0.1893   -3.2098    1.2058 H   0  0  0  0  0  0  0  0  0  0  0  0
   -0.8189   -3.0348   -3.0551 H   0  0  0  0  0  0  0  0  0  0  0  0
   -1.9806   -1.7089   -3.0383 H   0  0  0  0  0  0  0  0  0  0  0  0
   -3.8527   -3.3397   -2.8326 H   0  0  0  0  0  0  0  0  0  0  0  0
   -2.8670   -3.6482   -4.2560 H   0  0  0  0  0  0  0  0  0  0  0  0
   -2.6966   -4.6759   -2.8393 H   0  0  0  0  0  0  0  0  0  0  0  0
   -9.7558   -6.9711   -2.8889 H   0  0  0  0  0  0  0  0  0  0  0  0
   -8.0960   -7.0190   -3.5646 H   0  0  0  0  0  0  0  0  0  0  0  0
   -8.7307   -5.1730   -5.1447 H   0  0  0  0  0  0  0  0  0  0  0  0
  -10.3715   -5.1785   -4.4776 H   0  0  0  0  0  0  0  0  0  0  0  0
   -9.7741   -6.5876   -5.3624 H   0  0  0  0  0  0  0  0  0  0  0  0
  -10.6298   -0.9251    2.0374 H   0  0  0  0  0  0  0  0  0  0  0  0
  -12.5949    2.9006    5.5930 H   0  0  0  0  0  0  0  0  0  0  0  0
  -11.5180    4.7173    6.8301 H   0  0  0  0  0  0  0  0  0  0  0  0
   -9.1061    5.1278    6.6482 H   0  0  0  0  0  0  0  0  0  0  0  0
   -7.7004    3.6818    5.1814 H   0  0  0  0  0  0  0  0  0  0  0  0
   -4.6287   -3.3506   -0.6707 H   0  0  0  0  0  0  0  0  0  0  0  0
   -0.9655    1.4136    0.9043 H   0  0  0  0  0  0  0  0  0  0  0  0
    0.4705    3.3621    0.0496 H   0  0  0  0  0  0  0  0  0  0  0  0
    1.1852    2.7803   -1.4533 H   0  0  0  0  0  0  0  0  0  0  0  0
    1.9788    5.0435   -0.8980 H   0  0  0  0  0  0  0  0  0  0  0  0
    2.6449    4.4788    0.6291 H   0  0  0  0  0  0  0  0  0  0  0  0
    3.3235    3.9083   -0.9000 H   0  0  0  0  0  0  0  0  0  0  0  0
    2.8454    2.6921    1.9711 H   0  0  0  0  0  0  0  0  0  0  0  0
    1.1203    2.3952    2.2179 H   0  0  0  0  0  0  0  0  0  0  0  0
    3.3076    0.2578    2.1913 H   0  0  0  0  0  0  0  0  0  0  0  0
    1.5880   -0.0513    2.4402 H   0  0  0  0  0  0  0  0  0  0  0  0
    2.4967    0.8912    3.6231 H   0  0  0  0  0  0  0  0  0  0  0  0
   13.9427    5.5707    0.3429 H   0  0  0  0  0  0  0  0  0  0  0  0
   13.3682    7.3167    1.9590 H   0  0  0  0  0  0  0  0  0  0  0  0
   11.0834    7.5535    2.8206 H   0  0  0  0  0  0  0  0  0  0  0  0
    9.2917    5.9992    2.0514 H   0  0  0  0  0  0  0  0  0  0  0  0
  1  2  2  0  0  0  0
  2  3  1  0  0  0  0
  3  4  2  0  0  0  0
  4  5  1  0  0  0  0
  5  6  2  0  0  0  0
  6  7  1  0  0  0  0
  7  8  3  0  0  0  0
  6  9  1  0  0  0  0
  9 10  3  0  0  0  0
  5 11  1  0  0  0  0
  2 11  1  0  0  0  0
 11 12  2  0  0  0  0
 12 13  1  0  0  0  0
 13 14  2  0  0  0  0
 14 15  1  0  0  0  0
 15 16  1  0  0  0  0
 16 17  1  0  0  0  0
 17 18  1  0  0  0  0
 18 19  1  0  0  0  0
 19 20  1  0  0  0  0
 17 21  2  0  0  0  0
 16 22  2  0  0  0  0
 22 23  1  0  0  0  0
 14 24  1  0  0  0  0
 22 24  1  0  0  0  0
 24 25  2  0  0  0  0
 25 26  1  0  0  0  0
 26 27  2  0  0  0  0
 27 28  1  0  0  0  0
 28 29  2  0  0  0  0
 29 30  1  0  0  0  0
 30 31  2  0  0  0  0
 31 32  1  0  0  0  0
 32 33  1  0  0  0  0
 33 34  1  0  0  0  0
 34 35  1  0  0  0  0
 33 36  1  0  0  0  0
 36 37  1  0  0  0  0
 33 38  1  0  0  0  0
 38 39  2  0  0  0  0
 39 40  1  0  0  0  0
 40 41  1  0  0  0  0
 41 42  1  0  0  0  0
 42 43  1  0  0  0  0
 42 44  2  0  0  0  0
 44 45  1  0  0  0  0
 45 46  1  0  0  0  0
 45 47  2  0  0  0  0
 47 48  1  0  0  0  0
 48 49  1  0  0  0  0
 49 50  1  0  0  0  0
 50 51  1  0  0  0  0
 48 52  2  0  0  0  0
 47 53  1  0  0  0  0
 44 54  1  0  0  0  0
 53 54  1  0  0  0  0
 54 55  2  0  0  0  0
 43 55  1  0  0  0  0
 55 56  1  0  0  0  0
 56 57  2  0  0  0  0
 57 58  1  0  0  0  0
 58 59  1  0  0  0  0
 59 60  2  0  0  0  0
 60 61  1  0  0  0  0
 61 62  2  0  0  0  0
 62 63  1  0  0  0  0
 63 64  2  0  0  0  0
 59 64  1  0  0  0  0
 58 65  2  0  0  0  0
 57 66  1  0  0  0  0
 60 66  1  0  0  0  0
 66 67  2  0  0  0  0
 67 68  1  0  0  0  0
 68 69  3  0  0  0  0
 67 70  1  0  0  0  0
 70 71  3  0  0  0  0
 41 72  2  0  0  0  0
 38 72  1  0  0  0  0
 32 73  2  0  0  0  0
 39 73  1  0  0  0  0
 73 74  1  0  0  0  0
 30 75  1  0  0  0  0
 74 75  2  0  0  0  0
 75 76  1  0  0  0  0
 28 76  1  0  0  0  0
 76 77  1  0  0  0  0
 77 78  1  0  0  0  0
 76 79  1  0  0  0  0
 79 80  1  0  0  0  0
 29 81  1  0  0  0  0
 26 81  1  0  0  0  0
 25 82  1  0  0  0  0
 13 82  1  0  0  0  0
  4 83  1  0  0  0  0
 83 84  2  0  0  0  0
 84 85  1  0  0  0  0
 85 86  2  0  0  0  0
  3 86  1  0  0  0  0
 12 87  1  0  0  0  0
 19 88  1  0  0  0  0
 19 89  1  0  0  0  0
 20 90  1  0  0  0  0
 20 91  1  0  0  0  0
 20 92  1  0  0  0  0
 27 93  1  0  0  0  0
 31 94  1  0  0  0  0
 34 95  1  0  0  0  0
 34 96  1  0  0  0  0
 35 97  1  0  0  0  0
 35 98  1  0  0  0  0
 35 99  1  0  0  0  0
 36100  1  0  0  0  0
 36101  1  0  0  0  0
 37102  1  0  0  0  0
 37103  1  0  0  0  0
 37104  1  0  0  0  0
 50105  1  0  0  0  0
 50106  1  0  0  0  0
 51107  1  0  0  0  0
 51108  1  0  0  0  0
 51109  1  0  0  0  0
 56110  1  0  0  0  0
 61111  1  0  0  0  0
 62112  1  0  0  0  0
 63113  1  0  0  0  0
 64114  1  0  0  0  0
 72115  1  0  0  0  0
 74116  1  0  0  0  0
 77117  1  0  0  0  0
 77118  1  0  0  0  0
 78119  1  0  0  0  0
 78120  1  0  0  0  0
 78121  1  0  0  0  0
 79122  1  0  0  0  0
 79123  1  0  0  0  0
 80124  1  0  0  0  0
 80125  1  0  0  0  0
 80126  1  0  0  0  0
 83127  1  0  0  0  0
 84128  1  0  0  0  0
 85129  1  0  0  0  0
 86130  1  0  0  0  0
M  END
