SCF done       -233.649197658249          0.000615723486
 OpenBabel12282109493D

138152  0  0  0  0  0  0  0  0999 V2000
    7.5725    2.6548   -1.2576 C   0  0  0  0  0  0  0  0  0  0  0  0
    7.3296    3.8188   -1.0150 O   0  0  0  0  0  0  0  0  0  0  0  0
    8.9263    2.0561   -1.2746 C   0  0  0  0  0  0  0  0  0  0  0  0
   10.1343    2.6847   -1.0461 C   0  0  0  0  0  0  0  0  0  0  0  0
   11.2833    1.9152   -1.1249 C   0  0  0  0  0  0  0  0  0  0  0  0
   11.2067    0.5551   -1.4260 C   0  0  0  0  0  0  0  0  0  0  0  0
    9.9923   -0.0752   -1.6523 C   0  0  0  0  0  0  0  0  0  0  0  0
    8.8375    0.6883   -1.5736 C   0  0  0  0  0  0  0  0  0  0  0  0
    7.4272    0.3385   -1.7457 C   0  0  0  0  0  0  0  0  0  0  0  0
    6.9633   -0.9346   -1.9537 C   0  0  0  0  0  0  0  0  0  0  0  0
    5.6126   -1.3341   -2.0494 C   0  0  0  0  0  0  0  0  0  0  0  0
    4.5501   -1.7639   -2.1296 N   0  0  0  0  0  0  0  0  0  0  0  0
    7.7964   -2.0680   -2.0755 C   0  0  0  0  0  0  0  0  0  0  0  0
    8.4105   -3.0312   -2.1869 N   0  0  0  0  0  0  0  0  0  0  0  0
    6.6480    1.5563   -1.5998 C   0  0  0  0  0  0  0  0  0  0  0  0
    5.2930    1.6147   -1.8192 C   0  0  0  0  0  0  0  0  0  0  0  0
    4.3653    2.6598   -1.6996 C   0  0  0  0  0  0  0  0  0  0  0  0
    4.4710    3.9752   -1.2633 C   0  0  0  0  0  0  0  0  0  0  0  0
    3.2508    4.6274   -1.2845 C   0  0  0  0  0  0  0  0  0  0  0  0
    2.1719    3.8337   -1.7382 C   0  0  0  0  0  0  0  0  0  0  0  0
    2.6969    2.2530   -2.1448 S   0  0  0  0  0  0  0  0  0  0  0  0
    0.9676    4.5287   -1.7374 C   0  0  0  0  0  0  0  0  0  0  0  0
   -0.4787    4.2431   -2.0382 C   0  0  0  0  0  0  0  0  0  0  0  0
   -0.7515    3.9380   -3.4993 C   0  0  0  0  0  0  0  0  0  0  0  0
   -1.9286    3.2977   -3.8653 C   0  0  0  0  0  0  0  0  0  0  0  0
   -2.2046    3.0459   -5.1954 C   0  0  0  0  0  0  0  0  0  0  0  0
   -1.3165    3.4261   -6.1935 C   0  0  0  0  0  0  0  0  0  0  0  0
   -1.6371    3.1852   -7.6402 C   0  0  0  0  0  0  0  0  0  0  0  0
   -2.4158    4.3685   -8.2186 C   0  0  0  0  0  0  0  0  0  0  0  0
   -0.1481    4.0770   -5.8227 C   0  0  0  0  0  0  0  0  0  0  0  0
    0.1315    4.3345   -4.4932 C   0  0  0  0  0  0  0  0  0  0  0  0
   -0.9079    3.1016   -1.1326 C   0  0  0  0  0  0  0  0  0  0  0  0
   -1.5443    3.3211    0.0778 C   0  0  0  0  0  0  0  0  0  0  0  0
   -1.8679    2.2592    0.9072 C   0  0  0  0  0  0  0  0  0  0  0  0
   -1.5513    0.9557    0.5559 C   0  0  0  0  0  0  0  0  0  0  0  0
   -1.8765   -0.2401    1.4119 C   0  0  0  0  0  0  0  0  0  0  0  0
   -2.5044    0.0703    2.7643 C   0  0  0  0  0  0  0  0  0  0  0  0
   -0.8980    0.7457   -0.6564 C   0  0  0  0  0  0  0  0  0  0  0  0
   -0.5791    1.7979   -1.4886 C   0  0  0  0  0  0  0  0  0  0  0  0
   -1.1101    5.5808   -1.6940 C   0  0  0  0  0  0  0  0  0  0  0  0
   -0.1328    6.5041   -1.2502 C   0  0  0  0  0  0  0  0  0  0  0  0
    1.1250    5.8269   -1.2759 C   0  0  0  0  0  0  0  0  0  0  0  0
    2.7496    6.2392   -0.8501 S   0  0  0  0  0  0  0  0  0  0  0  0
   -0.4635    7.8030   -0.8715 C   0  0  0  0  0  0  0  0  0  0  0  0
   -1.7891    8.1597   -0.9441 C   0  0  0  0  0  0  0  0  0  0  0  0
   -2.4260    9.4831   -0.5600 C   0  0  0  0  0  0  0  0  0  0  0  0
   -2.0777    9.8016    0.8810 C   0  0  0  0  0  0  0  0  0  0  0  0
   -0.9152   10.5006    1.1787 C   0  0  0  0  0  0  0  0  0  0  0  0
   -0.5739   10.7654    2.4913 C   0  0  0  0  0  0  0  0  0  0  0  0
   -1.3779   10.3351    3.5387 C   0  0  0  0  0  0  0  0  0  0  0  0
   -1.0380   10.6732    4.9613 C   0  0  0  0  0  0  0  0  0  0  0  0
   -1.7209   11.9788    5.3741 C   0  0  0  0  0  0  0  0  0  0  0  0
   -2.5322    9.6261    3.2353 C   0  0  0  0  0  0  0  0  0  0  0  0
   -2.8769    9.3561    1.9242 C   0  0  0  0  0  0  0  0  0  0  0  0
   -2.0769   10.6314   -1.4924 C   0  0  0  0  0  0  0  0  0  0  0  0
   -2.4573   11.9210   -1.1389 C   0  0  0  0  0  0  0  0  0  0  0  0
   -2.2136   12.9801   -1.9906 C   0  0  0  0  0  0  0  0  0  0  0  0
   -1.5895   12.7814   -3.2163 C   0  0  0  0  0  0  0  0  0  0  0  0
   -1.2874   13.9420   -4.1197 C   0  0  0  0  0  0  0  0  0  0  0  0
    0.0663   14.5593   -3.7629 C   0  0  0  0  0  0  0  0  0  0  0  0
   -1.2157   11.4910   -3.5640 C   0  0  0  0  0  0  0  0  0  0  0  0
   -1.4617   10.4241   -2.7177 C   0  0  0  0  0  0  0  0  0  0  0  0
   -3.8812    9.1694   -0.7783 C   0  0  0  0  0  0  0  0  0  0  0  0
   -4.0342    7.8903   -1.2864 C   0  0  0  0  0  0  0  0  0  0  0  0
   -2.7678    7.2348   -1.3833 C   0  0  0  0  0  0  0  0  0  0  0  0
   -2.4351    5.9402   -1.7735 C   0  0  0  0  0  0  0  0  0  0  0  0
   -5.6775    7.4467   -1.6069 S   0  0  0  0  0  0  0  0  0  0  0  0
   -6.1851    9.0139   -1.0320 C   0  0  0  0  0  0  0  0  0  0  0  0
   -5.1016    9.8243   -0.6292 C   0  0  0  0  0  0  0  0  0  0  0  0
   -5.6230   11.3503   -0.0303 S   0  0  0  0  0  0  0  0  0  0  0  0
   -7.3011   10.9041   -0.3193 C   0  0  0  0  0  0  0  0  0  0  0  0
   -7.4132    9.6220   -0.8640 C   0  0  0  0  0  0  0  0  0  0  0  0
   -8.4332   11.6861   -0.0431 C   0  0  0  0  0  0  0  0  0  0  0  0
   -8.5405   12.9319    0.5188 C   0  0  0  0  0  0  0  0  0  0  0  0
   -9.7794   13.6386    0.7862 C   0  0  0  0  0  0  0  0  0  0  0  0
  -11.0538   13.2305    0.4910 C   0  0  0  0  0  0  0  0  0  0  0  0
  -12.2143   13.9788    0.7835 C   0  0  0  0  0  0  0  0  0  0  0  0
  -13.2005   14.5287    0.9902 N   0  0  0  0  0  0  0  0  0  0  0  0
  -11.4113   12.0230   -0.1451 C   0  0  0  0  0  0  0  0  0  0  0  0
  -11.7917   11.0675   -0.6574 N   0  0  0  0  0  0  0  0  0  0  0  0
   -9.4305   14.9016    1.4382 C   0  0  0  0  0  0  0  0  0  0  0  0
  -10.2147   15.9371    1.9218 C   0  0  0  0  0  0  0  0  0  0  0  0
   -9.5853   17.0294    2.5056 C   0  0  0  0  0  0  0  0  0  0  0  0
   -8.2039   17.1011    2.6108 C   0  0  0  0  0  0  0  0  0  0  0  0
   -7.4085   16.0703    2.1304 C   0  0  0  0  0  0  0  0  0  0  0  0
   -8.0315   14.9828    1.5507 C   0  0  0  0  0  0  0  0  0  0  0  0
   -7.4236   13.7695    0.9769 C   0  0  0  0  0  0  0  0  0  0  0  0
   -6.2323   13.5259    0.9044 O   0  0  0  0  0  0  0  0  0  0  0  0
   12.4779    2.4809   -0.9118 F   0  0  0  0  0  0  0  0  0  0  0  0
   12.3325   -0.1642   -1.5006 F   0  0  0  0  0  0  0  0  0  0  0  0
   10.1859    3.7367   -0.8149 H   0  0  0  0  0  0  0  0  0  0  0  0
    9.9909   -1.1277   -1.8824 H   0  0  0  0  0  0  0  0  0  0  0  0
    4.8345    0.6910   -2.1521 H   0  0  0  0  0  0  0  0  0  0  0  0
    5.4010    4.4126   -0.9507 H   0  0  0  0  0  0  0  0  0  0  0  0
   -2.6252    2.9798   -3.1032 H   0  0  0  0  0  0  0  0  0  0  0  0
   -3.1219    2.5408   -5.4622 H   0  0  0  0  0  0  0  0  0  0  0  0
   -0.7137    3.0506   -8.2068 H   0  0  0  0  0  0  0  0  0  0  0  0
   -2.2353    2.2775   -7.7405 H   0  0  0  0  0  0  0  0  0  0  0  0
   -1.8306    5.2820   -8.1387 H   0  0  0  0  0  0  0  0  0  0  0  0
   -2.6483    4.1950   -9.2666 H   0  0  0  0  0  0  0  0  0  0  0  0
   -3.3470    4.5111   -7.6747 H   0  0  0  0  0  0  0  0  0  0  0  0
    0.5558    4.3844   -6.5829 H   0  0  0  0  0  0  0  0  0  0  0  0
    1.0472    4.8453   -4.2317 H   0  0  0  0  0  0  0  0  0  0  0  0
   -1.7947    4.3268    0.3836 H   0  0  0  0  0  0  0  0  0  0  0  0
   -2.3695    2.4686    1.8385 H   0  0  0  0  0  0  0  0  0  0  0  0
   -2.5521   -0.8890    0.8457 H   0  0  0  0  0  0  0  0  0  0  0  0
   -0.9533   -0.8060    1.5682 H   0  0  0  0  0  0  0  0  0  0  0  0
   -3.4620    0.5718    2.6440 H   0  0  0  0  0  0  0  0  0  0  0  0
   -2.6742   -0.8551    3.3101 H   0  0  0  0  0  0  0  0  0  0  0  0
   -1.8483    0.7005    3.3606 H   0  0  0  0  0  0  0  0  0  0  0  0
   -0.6335   -0.2603   -0.9487 H   0  0  0  0  0  0  0  0  0  0  0  0
   -0.0760    1.6088   -2.4259 H   0  0  0  0  0  0  0  0  0  0  0  0
    0.2948    8.4907   -0.5308 H   0  0  0  0  0  0  0  0  0  0  0  0
   -0.2810   10.8523    0.3778 H   0  0  0  0  0  0  0  0  0  0  0  0
    0.3316   11.3153    2.7053 H   0  0  0  0  0  0  0  0  0  0  0  0
   -1.3690    9.8695    5.6224 H   0  0  0  0  0  0  0  0  0  0  0  0
    0.0430   10.7819    5.0693 H   0  0  0  0  0  0  0  0  0  0  0  0
   -2.8007   11.8867    5.2807 H   0  0  0  0  0  0  0  0  0  0  0  0
   -1.4802   12.2251    6.4056 H   0  0  0  0  0  0  0  0  0  0  0  0
   -1.3920   12.7954    4.7352 H   0  0  0  0  0  0  0  0  0  0  0  0
   -3.1700    9.2780    4.0354 H   0  0  0  0  0  0  0  0  0  0  0  0
   -3.7768    8.7963    1.7146 H   0  0  0  0  0  0  0  0  0  0  0  0
   -2.9457   12.0956   -0.1915 H   0  0  0  0  0  0  0  0  0  0  0  0
   -2.5201   13.9747   -1.7012 H   0  0  0  0  0  0  0  0  0  0  0  0
   -1.2680   13.6079   -5.1590 H   0  0  0  0  0  0  0  0  0  0  0  0
   -2.0660   14.7007   -4.0186 H   0  0  0  0  0  0  0  0  0  0  0  0
    0.8585   13.8217   -3.8706 H   0  0  0  0  0  0  0  0  0  0  0  0
    0.2846   15.4014   -4.4156 H   0  0  0  0  0  0  0  0  0  0  0  0
    0.0624   14.9093   -2.7331 H   0  0  0  0  0  0  0  0  0  0  0  0
   -0.7318   11.3132   -4.5139 H   0  0  0  0  0  0  0  0  0  0  0  0
   -1.1720    9.4275   -3.0181 H   0  0  0  0  0  0  0  0  0  0  0  0
   -3.1948    5.2507   -2.1074 H   0  0  0  0  0  0  0  0  0  0  0  0
   -8.3607    9.1767   -1.1092 H   0  0  0  0  0  0  0  0  0  0  0  0
   -9.3591   11.1940   -0.3158 H   0  0  0  0  0  0  0  0  0  0  0  0
  -11.2898   15.9112    1.8564 H   0  0  0  0  0  0  0  0  0  0  0  0
  -10.1897   17.8392    2.8856 H   0  0  0  0  0  0  0  0  0  0  0  0
   -7.7466   17.9643    3.0702 H   0  0  0  0  0  0  0  0  0  0  0  0
   -6.3322   16.1024    2.2019 H   0  0  0  0  0  0  0  0  0  0  0  0
  1  2  2  0  0  0  0
  3  1  1  0  0  0  0
  3  4  2  0  0  0  0
  4 91  1  0  0  0  0
  5  4  1  0  0  0  0
  5 89  1  0  0  0  0
  6  5  2  0  0  0  0
  7  8  2  0  0  0  0
  7  6  1  0  0  0  0
  8  3  1  0  0  0  0
  9 15  1  0  0  0  0
  9  8  1  0  0  0  0
 10  9  2  0  0  0  0
 11 10  1  0  0  0  0
 12 11  3  0  0  0  0
 13 10  1  0  0  0  0
 14 13  3  0  0  0  0
 15  1  1  0  0  0  0
 16 17  1  0  0  0  0
 16 15  2  0  0  0  0
 17 18  2  0  0  0  0
 18 94  1  0  0  0  0
 19 18  1  0  0  0  0
 19 43  1  0  0  0  0
 20 22  1  0  0  0  0
 20 19  2  0  0  0  0
 21 20  1  0  0  0  0
 21 17  1  0  0  0  0
 22 42  2  0  0  0  0
 23 22  1  0  0  0  0
 23 40  1  0  0  0  0
 23 32  1  0  0  0  0
 24 23  1  0  0  0  0
 25 24  1  0  0  0  0
 25 95  1  0  0  0  0
 26 25  2  0  0  0  0
 27 30  2  0  0  0  0
 27 26  1  0  0  0  0
 28 27  1  0  0  0  0
 29 99  1  0  0  0  0
 29101  1  0  0  0  0
 29 28  1  0  0  0  0
 30 31  1  0  0  0  0
 31103  1  0  0  0  0
 31 24  2  0  0  0  0
 32 33  1  0  0  0  0
 33104  1  0  0  0  0
 33 34  2  0  0  0  0
 34105  1  0  0  0  0
 35 34  1  0  0  0  0
 35 36  1  0  0  0  0
 36107  1  0  0  0  0
 36 37  1  0  0  0  0
 37109  1  0  0  0  0
 37110  1  0  0  0  0
 38 35  2  0  0  0  0
 39 32  2  0  0  0  0
 39 38  1  0  0  0  0
 40 41  1  0  0  0  0
 41 44  2  0  0  0  0
 42 41  1  0  0  0  0
 42 43  1  0  0  0  0
 44113  1  0  0  0  0
 45 44  1  0  0  0  0
 45 46  1  0  0  0  0
 46 47  1  0  0  0  0
 47 48  2  0  0  0  0
 47 54  1  0  0  0  0
 48 49  1  0  0  0  0
 49115  1  0  0  0  0
 49 50  2  0  0  0  0
 50 51  1  0  0  0  0
 51117  1  0  0  0  0
 51 52  1  0  0  0  0
 51116  1  0  0  0  0
 52119  1  0  0  0  0
 53 50  1  0  0  0  0
 53121  1  0  0  0  0
 54 53  2  0  0  0  0
 55 56  1  0  0  0  0
 55 46  1  0  0  0  0
 56123  1  0  0  0  0
 57124  1  0  0  0  0
 57 56  2  0  0  0  0
 58 57  1  0  0  0  0
 59126  1  0  0  0  0
 59 60  1  0  0  0  0
 59 58  1  0  0  0  0
 60129  1  0  0  0  0
 61 58  2  0  0  0  0
 61 62  1  0  0  0  0
 62 55  2  0  0  0  0
 63 69  1  0  0  0  0
 63 46  1  0  0  0  0
 64 63  2  0  0  0  0
 65 64  1  0  0  0  0
 65 45  2  0  0  0  0
 66 40  2  0  0  0  0
 66 65  1  0  0  0  0
 67 64  1  0  0  0  0
 67 68  1  0  0  0  0
 68 72  1  0  0  0  0
 68 69  2  0  0  0  0
 69 70  1  0  0  0  0
 71 73  1  0  0  0  0
 71 70  1  0  0  0  0
 72 71  2  0  0  0  0
 73 74  2  0  0  0  0
 74 75  1  0  0  0  0
 74 87  1  0  0  0  0
 75 81  1  0  0  0  0
 76 77  1  0  0  0  0
 76 75  2  0  0  0  0
 77 78  3  0  0  0  0
 79 76  1  0  0  0  0
 80 79  3  0  0  0  0
 81 86  2  0  0  0  0
 81 82  1  0  0  0  0
 82 83  2  0  0  0  0
 83 84  1  0  0  0  0
 83136  1  0  0  0  0
 84137  1  0  0  0  0
 85138  1  0  0  0  0
 85 84  2  0  0  0  0
 86 85  1  0  0  0  0
 87 86  1  0  0  0  0
 88 87  2  0  0  0  0
 90  6  1  0  0  0  0
 92  7  1  0  0  0  0
 93 16  1  0  0  0  0
 96 26  1  0  0  0  0
 97 28  1  0  0  0  0
 98 28  1  0  0  0  0
100 29  1  0  0  0  0
102 30  1  0  0  0  0
106 36  1  0  0  0  0
108 37  1  0  0  0  0
111 38  1  0  0  0  0
112 39  1  0  0  0  0
114 48  1  0  0  0  0
118 52  1  0  0  0  0
120 52  1  0  0  0  0
122 54  1  0  0  0  0
125 59  1  0  0  0  0
127 60  1  0  0  0  0
128 60  1  0  0  0  0
130 61  1  0  0  0  0
131 62  1  0  0  0  0
132 66  1  0  0  0  0
133 72  1  0  0  0  0
134 73  1  0  0  0  0
135 82  1  0  0  0  0
M  END
