6T-OFIC.mol
  xtb     01102215373D
 energy: -260.236027187278 gnorm: 0.000558928326 xtb: 6.4.1 (unknown)
150165  0     0  0            999 V2000
    4.1942   -5.3290    6.1599 O   0  0  0  0  0  0  0  0  0  0  0  0
    4.0134   -5.8263    7.2564 C   0  0  0  0  0  0  0  0  0  0  0  0
    2.8814   -5.6328    8.1627 C   0  0  0  0  0  0  0  0  0  0  0  0
    3.1023   -6.4231    9.3546 C   0  0  0  0  0  0  0  0  0  0  0  0
    4.3800   -7.1198    9.1874 C   0  0  0  0  0  0  0  0  0  0  0  0
    4.9249   -6.7687    7.9414 C   0  0  0  0  0  0  0  0  0  0  0  0
    6.1297   -7.2731    7.4956 C   0  0  0  0  0  0  0  0  0  0  0  0
    6.8033   -8.1543    8.3262 C   0  0  0  0  0  0  0  0  0  0  0  0
    7.9750   -8.6712    7.9341 F   0  0  0  0  0  0  0  0  0  0  0  0
    6.2720   -8.5085    9.5658 C   0  0  0  0  0  0  0  0  0  0  0  0
    6.9438   -9.3614   10.3481 F   0  0  0  0  0  0  0  0  0  0  0  0
    5.0608   -8.0003   10.0129 C   0  0  0  0  0  0  0  0  0  0  0  0
    2.2872   -6.5337   10.4533 C   0  0  0  0  0  0  0  0  0  0  0  0
    1.0533   -5.8766   10.6383 C   0  0  0  0  0  0  0  0  0  0  0  0
    0.0420   -5.3825   10.8713 N   0  0  0  0  0  0  0  0  0  0  0  0
    2.5764   -7.3398   11.5745 C   0  0  0  0  0  0  0  0  0  0  0  0
    2.7471   -7.9748   12.5154 N   0  0  0  0  0  0  0  0  0  0  0  0
    1.7749   -4.8458    7.9308 C   0  0  0  0  0  0  0  0  0  0  0  0
    1.4144   -4.0669    6.8313 C   0  0  0  0  0  0  0  0  0  0  0  0
    0.2035   -3.3453    6.7794 C   0  0  0  0  0  0  0  0  0  0  0  0
   -0.7986   -3.2344    7.8819 C   0  0  0  0  0  0  0  0  0  0  0  0
   -0.3718   -2.1738    8.9008 C   0  0  0  0  0  0  0  0  0  0  0  0
    0.0718   -2.6866    5.5699 C   0  0  0  0  0  0  0  0  0  0  0  0
    1.1500   -2.8742    4.6781 C   0  0  0  0  0  0  0  0  0  0  0  0
    2.3651   -3.8882    5.3515 S   0  0  0  0  0  0  0  0  0  0  0  0
    0.9613   -2.1942    3.4812 C   0  0  0  0  0  0  0  0  0  0  0  0
   -0.2570   -1.5128    3.4602 C   0  0  0  0  0  0  0  0  0  0  0  0
   -1.1857   -1.6681    4.9087 S   0  0  0  0  0  0  0  0  0  0  0  0
   -0.4039   -0.8751    2.2089 C   0  0  0  0  0  0  0  0  0  0  0  0
   -1.5843    0.1230    1.4283 S   0  0  0  0  0  0  0  0  0  0  0  0
   -0.5796    0.1665    0.0124 C   0  0  0  0  0  0  0  0  0  0  0  0
    0.6198   -0.5625    0.1731 C   0  0  0  0  0  0  0  0  0  0  0  0
    1.6196   -0.5258   -1.2471 S   0  0  0  0  0  0  0  0  0  0  0  0
    0.4280    0.4517   -2.0358 C   0  0  0  0  0  0  0  0  0  0  0  0
   -0.6831    0.7465   -1.2462 C   0  0  0  0  0  0  0  0  0  0  0  0
   -1.6967    1.5569   -2.0159 C   0  0  0  0  0  0  0  0  0  0  0  0
   -1.9260    2.9551   -1.4709 C   0  0  0  0  0  0  0  0  0  0  0  0
   -1.0701    3.5313   -0.5448 C   0  0  0  0  0  0  0  0  0  0  0  0
   -1.2934    4.8216   -0.0986 C   0  0  0  0  0  0  0  0  0  0  0  0
   -2.3658    5.5657   -0.5699 C   0  0  0  0  0  0  0  0  0  0  0  0
   -2.5792    6.9813   -0.1182 C   0  0  0  0  0  0  0  0  0  0  0  0
   -1.8619    7.9546   -1.0560 C   0  0  0  0  0  0  0  0  0  0  0  0
   -3.2108    4.9858   -1.5084 C   0  0  0  0  0  0  0  0  0  0  0  0
   -2.9965    3.6968   -1.9546 C   0  0  0  0  0  0  0  0  0  0  0  0
   -2.9926    0.7664   -2.0664 C   0  0  0  0  0  0  0  0  0  0  0  0
   -3.3185   -0.0381   -3.1477 C   0  0  0  0  0  0  0  0  0  0  0  0
   -4.4894   -0.7745   -3.1410 C   0  0  0  0  0  0  0  0  0  0  0  0
   -5.3512   -0.7376   -2.0535 C   0  0  0  0  0  0  0  0  0  0  0  0
   -6.6423   -1.5027   -2.0698 C   0  0  0  0  0  0  0  0  0  0  0  0
   -7.7614   -0.6450   -2.6641 C   0  0  0  0  0  0  0  0  0  0  0  0
   -5.0124    0.0625   -0.9692 C   0  0  0  0  0  0  0  0  0  0  0  0
   -3.8482    0.8055   -0.9726 C   0  0  0  0  0  0  0  0  0  0  0  0
   -0.9902    1.6748   -3.3442 C   0  0  0  0  0  0  0  0  0  0  0  0
    0.2477    1.0332   -3.3115 C   0  0  0  0  0  0  0  0  0  0  0  0
    1.1297    1.1307   -4.7910 S   0  0  0  0  0  0  0  0  0  0  0  0
   -0.1696    2.0601   -5.4955 C   0  0  0  0  0  0  0  0  0  0  0  0
   -1.2230    2.2621   -4.5808 C   0  0  0  0  0  0  0  0  0  0  0  0
   -2.5060    3.1534   -5.2930 S   0  0  0  0  0  0  0  0  0  0  0  0
   -1.5854    3.3197   -6.7935 C   0  0  0  0  0  0  0  0  0  0  0  0
   -2.2209    4.0139   -7.8355 C   0  0  0  0  0  0  0  0  0  0  0  0
   -1.6333    4.7500   -8.8364 C   0  0  0  0  0  0  0  0  0  0  0  0
   -2.3072    5.2670  -10.0064 C   0  0  0  0  0  0  0  0  0  0  0  0
   -1.4091    6.2248  -10.6493 C   0  0  0  0  0  0  0  0  0  0  0  0
   -0.2101    6.2758   -9.9192 C   0  0  0  0  0  0  0  0  0  0  0  0
    0.8379    7.0945  -10.2887 C   0  0  0  0  0  0  0  0  0  0  0  0
   -1.5654    7.0092  -11.7809 C   0  0  0  0  0  0  0  0  0  0  0  0
   -0.5101    7.8282  -12.1550 C   0  0  0  0  0  0  0  0  0  0  0  0
   -0.6395    8.5948  -13.2440 F   0  0  0  0  0  0  0  0  0  0  0  0
    0.6767    7.8731  -11.4238 C   0  0  0  0  0  0  0  0  0  0  0  0
    1.6709    8.6767  -11.8225 F   0  0  0  0  0  0  0  0  0  0  0  0
   -3.5270    4.8647  -10.4858 C   0  0  0  0  0  0  0  0  0  0  0  0
   -4.1333    5.3914  -11.6449 C   0  0  0  0  0  0  0  0  0  0  0  0
   -4.6777    5.7911  -12.5729 N   0  0  0  0  0  0  0  0  0  0  0  0
   -4.3169    3.8478   -9.9087 C   0  0  0  0  0  0  0  0  0  0  0  0
   -4.9979    3.0139   -9.5097 N   0  0  0  0  0  0  0  0  0  0  0  0
   -0.2943    5.3627   -8.7547 C   0  0  0  0  0  0  0  0  0  0  0  0
    0.5351    5.2408   -7.8774 O   0  0  0  0  0  0  0  0  0  0  0  0
   -0.3625    2.6429   -6.7509 C   0  0  0  0  0  0  0  0  0  0  0  0
    0.5356    2.4591   -7.9263 C   0  0  0  0  0  0  0  0  0  0  0  0
    1.0854    1.0412   -8.0558 C   0  0  0  0  0  0  0  0  0  0  0  0
    0.7118   -1.1634    1.4227 C   0  0  0  0  0  0  0  0  0  0  0  0
    1.6964   -2.0238    2.1746 C   0  0  0  0  0  0  0  0  0  0  0  0
    1.9274   -3.3948    1.5643 C   0  0  0  0  0  0  0  0  0  0  0  0
    2.9612   -4.1809    2.0581 C   0  0  0  0  0  0  0  0  0  0  0  0
    3.1798   -5.4456    1.5491 C   0  0  0  0  0  0  0  0  0  0  0  0
    2.3763   -5.9565    0.5370 C   0  0  0  0  0  0  0  0  0  0  0  0
    2.6531   -7.3080   -0.0551 C   0  0  0  0  0  0  0  0  0  0  0  0
    3.6314   -7.1847   -1.2253 C   0  0  0  0  0  0  0  0  0  0  0  0
    1.3423   -5.1674    0.0534 C   0  0  0  0  0  0  0  0  0  0  0  0
    1.1121   -3.9025    0.5645 C   0  0  0  0  0  0  0  0  0  0  0  0
    3.0024   -1.2562    2.2921 C   0  0  0  0  0  0  0  0  0  0  0  0
    3.8712   -1.2383    1.2083 C   0  0  0  0  0  0  0  0  0  0  0  0
    5.0478   -0.5175    1.2674 C   0  0  0  0  0  0  0  0  0  0  0  0
    5.3885    0.1992    2.4079 C   0  0  0  0  0  0  0  0  0  0  0  0
    6.6488    1.0135    2.4555 C   0  0  0  0  0  0  0  0  0  0  0  0
    6.3911    2.4285    1.9333 C   0  0  0  0  0  0  0  0  0  0  0  0
    4.5121    0.1819    3.4841 C   0  0  0  0  0  0  0  0  0  0  0  0
    3.3291   -0.5329    3.4289 C   0  0  0  0  0  0  0  0  0  0  0  0
    6.5364   -6.9952    6.5364 H   0  0  0  0  0  0  0  0  0  0  0  0
    4.6954   -8.3071   10.9789 H   0  0  0  0  0  0  0  0  0  0  0  0
    1.0431   -4.8266    8.7266 H   0  0  0  0  0  0  0  0  0  0  0  0
   -0.9311   -4.1905    8.3903 H   0  0  0  0  0  0  0  0  0  0  0  0
   -1.7572   -2.9449    7.4463 H   0  0  0  0  0  0  0  0  0  0  0  0
   -1.1143   -2.1034    9.6904 H   0  0  0  0  0  0  0  0  0  0  0  0
    0.5839   -2.4331    9.3497 H   0  0  0  0  0  0  0  0  0  0  0  0
   -0.2779   -1.2024    8.4207 H   0  0  0  0  0  0  0  0  0  0  0  0
   -0.2256    2.9750   -0.1649 H   0  0  0  0  0  0  0  0  0  0  0  0
   -0.6218    5.2544    0.6291 H   0  0  0  0  0  0  0  0  0  0  0  0
   -2.1951    7.1090    0.8957 H   0  0  0  0  0  0  0  0  0  0  0  0
   -3.6467    7.2100   -0.1113 H   0  0  0  0  0  0  0  0  0  0  0  0
   -2.0166    8.9803   -0.7298 H   0  0  0  0  0  0  0  0  0  0  0  0
   -0.7935    7.7509   -1.0678 H   0  0  0  0  0  0  0  0  0  0  0  0
   -2.2403    7.8513   -2.0704 H   0  0  0  0  0  0  0  0  0  0  0  0
   -4.0491    5.5488   -1.8923 H   0  0  0  0  0  0  0  0  0  0  0  0
   -3.6677    3.2571   -2.6781 H   0  0  0  0  0  0  0  0  0  0  0  0
   -2.6607   -0.0926   -4.0027 H   0  0  0  0  0  0  0  0  0  0  0  0
   -4.7332   -1.3904   -3.9946 H   0  0  0  0  0  0  0  0  0  0  0  0
   -6.5287   -2.4095   -2.6670 H   0  0  0  0  0  0  0  0  0  0  0  0
   -6.9132   -1.7937   -1.0529 H   0  0  0  0  0  0  0  0  0  0  0  0
   -8.6972   -1.1986   -2.6789 H   0  0  0  0  0  0  0  0  0  0  0  0
   -7.5142   -0.3526   -3.6821 H   0  0  0  0  0  0  0  0  0  0  0  0
   -7.9006    0.2577   -2.0734 H   0  0  0  0  0  0  0  0  0  0  0  0
   -5.6663    0.1035   -0.1102 H   0  0  0  0  0  0  0  0  0  0  0  0
   -3.6031    1.4276   -0.1238 H   0  0  0  0  0  0  0  0  0  0  0  0
   -3.3044    3.9992   -7.7952 H   0  0  0  0  0  0  0  0  0  0  0  0
    1.7533    7.1297   -9.7198 H   0  0  0  0  0  0  0  0  0  0  0  0
   -2.4648    7.0140  -12.3745 H   0  0  0  0  0  0  0  0  0  0  0  0
    1.3638    3.1703   -7.8419 H   0  0  0  0  0  0  0  0  0  0  0  0
   -0.0182    2.7173   -8.8318 H   0  0  0  0  0  0  0  0  0  0  0  0
    0.2763    0.3141   -8.0419 H   0  0  0  0  0  0  0  0  0  0  0  0
    1.6179    0.9450   -8.9985 H   0  0  0  0  0  0  0  0  0  0  0  0
    1.7780    0.8080   -7.2520 H   0  0  0  0  0  0  0  0  0  0  0  0
    3.5987   -3.7993    2.8418 H   0  0  0  0  0  0  0  0  0  0  0  0
    3.9852   -6.0448    1.9477 H   0  0  0  0  0  0  0  0  0  0  0  0
    3.0818   -7.9641    0.7047 H   0  0  0  0  0  0  0  0  0  0  0  0
    1.7227   -7.7561   -0.4096 H   0  0  0  0  0  0  0  0  0  0  0  0
    3.2167   -6.5424   -1.9991 H   0  0  0  0  0  0  0  0  0  0  0  0
    4.5705   -6.7514   -0.8884 H   0  0  0  0  0  0  0  0  0  0  0  0
    3.8342   -8.1621   -1.6565 H   0  0  0  0  0  0  0  0  0  0  0  0
    0.7027   -5.5464   -0.7310 H   0  0  0  0  0  0  0  0  0  0  0  0
    0.2928   -3.3143    0.1772 H   0  0  0  0  0  0  0  0  0  0  0  0
    3.6274   -1.8003    0.3182 H   0  0  0  0  0  0  0  0  0  0  0  0
    5.7136   -0.5158    0.4165 H   0  0  0  0  0  0  0  0  0  0  0  0
    7.4187    0.5394    1.8438 H   0  0  0  0  0  0  0  0  0  0  0  0
    7.0144    1.0702    3.4825 H   0  0  0  0  0  0  0  0  0  0  0  0
    7.3041    3.0182    1.9671 H   0  0  0  0  0  0  0  0  0  0  0  0
    6.0373    2.3940    0.9053 H   0  0  0  0  0  0  0  0  0  0  0  0
    5.6350    2.9236    2.5387 H   0  0  0  0  0  0  0  0  0  0  0  0
    4.7572    0.7328    4.3808 H   0  0  0  0  0  0  0  0  0  0  0  0
    2.6638   -0.5278    4.2796 H   0  0  0  0  0  0  0  0  0  0  0  0
  1  2  2  0  0  0  0
  2  3  1  0  0  0  0
  3  4  1  0  0  0  0
  4  5  1  0  0  0  0
  5  6  2  0  0  0  0
  2  6  1  0  0  0  0
  6  7  1  0  0  0  0
  7  8  2  0  0  0  0
  8  9  1  0  0  0  0
  8 10  1  0  0  0  0
 10 11  1  0  0  0  0
 10 12  2  0  0  0  0
  5 12  1  0  0  0  0
  4 13  2  0  0  0  0
 13 14  1  0  0  0  0
 14 15  3  0  0  0  0
 13 16  1  0  0  0  0
 16 17  3  0  0  0  0
  3 18  2  0  0  0  0
 18 19  1  0  0  0  0
 19 20  2  0  0  0  0
 20 21  1  0  0  0  0
 21 22  1  0  0  0  0
 20 23  1  0  0  0  0
 23 24  2  0  0  0  0
 24 25  1  0  0  0  0
 19 25  1  0  0  0  0
 24 26  1  0  0  0  0
 26 27  2  0  0  0  0
 27 28  1  0  0  0  0
 23 28  1  0  0  0  0
 27 29  1  0  0  0  0
 29 30  1  0  0  0  0
 30 31  1  0  0  0  0
 31 32  2  0  0  0  0
 32 33  1  0  0  0  0
 33 34  1  0  0  0  0
 34 35  2  0  0  0  0
 31 35  1  0  0  0  0
 35 36  1  0  0  0  0
 36 37  1  0  0  0  0
 37 38  2  0  0  0  0
 38 39  1  0  0  0  0
 39 40  2  0  0  0  0
 40 41  1  0  0  0  0
 41 42  1  0  0  0  0
 40 43  1  0  0  0  0
 43 44  2  0  0  0  0
 37 44  1  0  0  0  0
 36 45  1  0  0  0  0
 45 46  2  0  0  0  0
 46 47  1  0  0  0  0
 47 48  2  0  0  0  0
 48 49  1  0  0  0  0
 49 50  1  0  0  0  0
 48 51  1  0  0  0  0
 51 52  2  0  0  0  0
 45 52  1  0  0  0  0
 36 53  1  0  0  0  0
 53 54  2  0  0  0  0
 34 54  1  0  0  0  0
 54 55  1  0  0  0  0
 55 56  1  0  0  0  0
 56 57  2  0  0  0  0
 53 57  1  0  0  0  0
 57 58  1  0  0  0  0
 58 59  1  0  0  0  0
 59 60  1  0  0  0  0
 60 61  2  0  0  0  0
 61 62  1  0  0  0  0
 62 63  1  0  0  0  0
 63 64  2  0  0  0  0
 64 65  1  0  0  0  0
 63 66  1  0  0  0  0
 66 67  2  0  0  0  0
 67 68  1  0  0  0  0
 67 69  1  0  0  0  0
 65 69  2  0  0  0  0
 69 70  1  0  0  0  0
 62 71  2  0  0  0  0
 71 72  1  0  0  0  0
 72 73  3  0  0  0  0
 71 74  1  0  0  0  0
 74 75  3  0  0  0  0
 61 76  1  0  0  0  0
 64 76  1  0  0  0  0
 76 77  2  0  0  0  0
 59 78  2  0  0  0  0
 56 78  1  0  0  0  0
 78 79  1  0  0  0  0
 79 80  1  0  0  0  0
 29 81  2  0  0  0  0
 32 81  1  0  0  0  0
 81 82  1  0  0  0  0
 26 82  1  0  0  0  0
 82 83  1  0  0  0  0
 83 84  2  0  0  0  0
 84 85  1  0  0  0  0
 85 86  2  0  0  0  0
 86 87  1  0  0  0  0
 87 88  1  0  0  0  0
 86 89  1  0  0  0  0
 89 90  2  0  0  0  0
 83 90  1  0  0  0  0
 82 91  1  0  0  0  0
 91 92  2  0  0  0  0
 92 93  1  0  0  0  0
 93 94  2  0  0  0  0
 94 95  1  0  0  0  0
 95 96  1  0  0  0  0
 94 97  1  0  0  0  0
 97 98  2  0  0  0  0
 91 98  1  0  0  0  0
  7 99  1  0  0  0  0
 12100  1  0  0  0  0
 18101  1  0  0  0  0
 21102  1  0  0  0  0
 21103  1  0  0  0  0
 22104  1  0  0  0  0
 22105  1  0  0  0  0
 22106  1  0  0  0  0
 38107  1  0  0  0  0
 39108  1  0  0  0  0
 41109  1  0  0  0  0
 41110  1  0  0  0  0
 42111  1  0  0  0  0
 42112  1  0  0  0  0
 42113  1  0  0  0  0
 43114  1  0  0  0  0
 44115  1  0  0  0  0
 46116  1  0  0  0  0
 47117  1  0  0  0  0
 49118  1  0  0  0  0
 49119  1  0  0  0  0
 50120  1  0  0  0  0
 50121  1  0  0  0  0
 50122  1  0  0  0  0
 51123  1  0  0  0  0
 52124  1  0  0  0  0
 60125  1  0  0  0  0
 65126  1  0  0  0  0
 66127  1  0  0  0  0
 79128  1  0  0  0  0
 79129  1  0  0  0  0
 80130  1  0  0  0  0
 80131  1  0  0  0  0
 80132  1  0  0  0  0
 84133  1  0  0  0  0
 85134  1  0  0  0  0
 87135  1  0  0  0  0
 87136  1  0  0  0  0
 88137  1  0  0  0  0
 88138  1  0  0  0  0
 88139  1  0  0  0  0
 89140  1  0  0  0  0
 90141  1  0  0  0  0
 92142  1  0  0  0  0
 93143  1  0  0  0  0
 95144  1  0  0  0  0
 95145  1  0  0  0  0
 96146  1  0  0  0  0
 96147  1  0  0  0  0
 96148  1  0  0  0  0
 97149  1  0  0  0  0
 98150  1  0  0  0  0
M  END
