A4T-21.sdf
  xtb     12202113123D
 energy: -191.044722984440 gnorm: 0.000415755979 xtb: 6.4.1 (unknown)
102111  0     0  0            999 V2000
   -2.9997    4.5846    4.8546 C   0  0  0  0  0  0  0  0  0  0  0  0
   -2.4632    3.5866    4.4097 O   0  0  0  0  0  0  0  0  0  0  0  0
   -2.4897    5.4313    5.9535 C   0  0  0  0  0  0  0  0  0  0  0  0
   -1.3286    5.2803    6.6846 C   0  0  0  0  0  0  0  0  0  0  0  0
   -1.0652    6.2165    7.6716 C   0  0  0  0  0  0  0  0  0  0  0  0
   -1.9507    7.2683    7.9072 C   0  0  0  0  0  0  0  0  0  0  0  0
   -3.1176    7.4186    7.1720 C   0  0  0  0  0  0  0  0  0  0  0  0
   -3.3884    6.4868    6.1823 C   0  0  0  0  0  0  0  0  0  0  0  0
   -4.5084    6.3646    5.2466 C   0  0  0  0  0  0  0  0  0  0  0  0
   -5.5740    7.2237    5.1800 C   0  0  0  0  0  0  0  0  0  0  0  0
   -5.7340    8.3522    6.0127 C   0  0  0  0  0  0  0  0  0  0  0  0
   -5.9270    9.2824    6.6566 N   0  0  0  0  0  0  0  0  0  0  0  0
   -6.6615    7.1238    4.2864 C   0  0  0  0  0  0  0  0  0  0  0  0
   -7.5797    7.1186    3.5963 N   0  0  0  0  0  0  0  0  0  0  0  0
   -4.2624    5.1930    4.4299 C   0  0  0  0  0  0  0  0  0  0  0  0
   -5.0685    4.7310    3.4177 C   0  0  0  0  0  0  0  0  0  0  0  0
   -4.9063    3.6367    2.5598 C   0  0  0  0  0  0  0  0  0  0  0  0
   -5.8174    3.3453    1.5425 C   0  0  0  0  0  0  0  0  0  0  0  0
   -5.4995    2.2443    0.7621 C   0  0  0  0  0  0  0  0  0  0  0  0
   -4.3117    1.6497    1.1939 C   0  0  0  0  0  0  0  0  0  0  0  0
   -3.5994    2.4824    2.5369 S   0  0  0  0  0  0  0  0  0  0  0  0
   -3.5998    0.5392    0.6403 C   0  0  0  0  0  0  0  0  0  0  0  0
    3.3046   -1.6054   -1.4380 C   0  0  0  0  0  0  0  0  0  0  0  0
    4.2425   -0.9476   -0.6334 C   0  0  0  0  0  0  0  0  0  0  0  0
    5.5061   -0.9852   -1.1963 C   0  0  0  0  0  0  0  0  0  0  0  0
    5.5840   -1.6378   -2.4297 C   0  0  0  0  0  0  0  0  0  0  0  0
    4.0141   -2.2436   -2.8870 S   0  0  0  0  0  0  0  0  0  0  0  0
    6.7800   -1.7509   -3.1456 C   0  0  0  0  0  0  0  0  0  0  0  0
    7.0362   -2.3473   -4.3583 C   0  0  0  0  0  0  0  0  0  0  0  0
    8.3199   -2.3872   -5.0281 C   0  0  0  0  0  0  0  0  0  0  0  0
    9.5131   -1.8765   -4.5864 C   0  0  0  0  0  0  0  0  0  0  0  0
   10.7241   -1.9601   -5.3062 C   0  0  0  0  0  0  0  0  0  0  0  0
   11.7406   -1.9917   -5.8382 N   0  0  0  0  0  0  0  0  0  0  0  0
    9.7235   -1.2032   -3.3645 C   0  0  0  0  0  0  0  0  0  0  0  0
    9.9872   -0.6489   -2.3935 N   0  0  0  0  0  0  0  0  0  0  0  0
    8.1287   -3.0912   -6.2984 C   0  0  0  0  0  0  0  0  0  0  0  0
    9.0117   -3.3935   -7.3229 C   0  0  0  0  0  0  0  0  0  0  0  0
    8.5224   -4.0832   -8.4230 C   0  0  0  0  0  0  0  0  0  0  0  0
    7.1852   -4.4694   -8.5116 C   0  0  0  0  0  0  0  0  0  0  0  0
    6.2957   -4.1704   -7.4921 C   0  0  0  0  0  0  0  0  0  0  0  0
    6.7836   -3.4831   -6.3991 C   0  0  0  0  0  0  0  0  0  0  0  0
    6.0519   -3.0378   -5.1940 C   0  0  0  0  0  0  0  0  0  0  0  0
    4.8693   -3.2211   -4.9685 O   0  0  0  0  0  0  0  0  0  0  0  0
    0.0493    6.1110    8.4052 F   0  0  0  0  0  0  0  0  0  0  0  0
    6.7565   -5.1344   -9.5920 F   0  0  0  0  0  0  0  0  0  0  0  0
   -1.8720    0.6821    0.4762 S   0  0  0  0  0  0  0  0  0  0  0  0
   -1.7675   -0.8774   -0.2816 C   0  0  0  0  0  0  0  0  0  0  0  0
   -3.0082   -1.4652   -0.3685 C   0  0  0  0  0  0  0  0  0  0  0  0
   -4.0487   -0.6831    0.1642 C   0  0  0  0  0  0  0  0  0  0  0  0
   -0.5185   -1.3911   -0.7318 C   0  0  0  0  0  0  0  0  0  0  0  0
   -0.2826   -2.5090   -1.5007 C   0  0  0  0  0  0  0  0  0  0  0  0
    1.0722   -2.7215   -1.7898 C   0  0  0  0  0  0  0  0  0  0  0  0
    1.9025   -1.7545   -1.2358 C   0  0  0  0  0  0  0  0  0  0  0  0
    0.9668   -0.5853   -0.3401 S   0  0  0  0  0  0  0  0  0  0  0  0
    3.9685   -0.3490    0.7109 C   0  0  0  0  0  0  0  0  0  0  0  0
    3.6966   -1.4344    1.7539 C   0  0  0  0  0  0  0  0  0  0  0  0
   -6.2791    1.8639   -0.4581 C   0  0  0  0  0  0  0  0  0  0  0  0
   -5.4576    2.0743   -1.7309 C   0  0  0  0  0  0  0  0  0  0  0  0
   -5.4189   -1.1790    0.2939 C   0  0  0  0  0  0  0  0  0  0  0  0
   -6.1352   -0.9771    1.4728 C   0  0  0  0  0  0  0  0  0  0  0  0
   -7.4196   -1.4702    1.6018 C   0  0  0  0  0  0  0  0  0  0  0  0
   -8.0053   -2.1715    0.5602 C   0  0  0  0  0  0  0  0  0  0  0  0
   -7.2973   -2.3840   -0.6112 C   0  0  0  0  0  0  0  0  0  0  0  0
   -6.0104   -1.8967   -0.7439 C   0  0  0  0  0  0  0  0  0  0  0  0
    1.5456   -3.8810   -2.5566 C   0  0  0  0  0  0  0  0  0  0  0  0
    2.4631   -4.7690   -2.0009 C   0  0  0  0  0  0  0  0  0  0  0  0
    2.9011   -5.8596   -2.7262 C   0  0  0  0  0  0  0  0  0  0  0  0
    2.4299   -6.0757   -4.0107 C   0  0  0  0  0  0  0  0  0  0  0  0
    1.5073   -5.2044   -4.5626 C   0  0  0  0  0  0  0  0  0  0  0  0
    1.0600   -4.1151   -3.8379 C   0  0  0  0  0  0  0  0  0  0  0  0
   -1.6718    8.1580    8.8661 F   0  0  0  0  0  0  0  0  0  0  0  0
    9.3592   -4.3830   -9.4229 F   0  0  0  0  0  0  0  0  0  0  0  0
   -0.6473    4.4656    6.4980 H   0  0  0  0  0  0  0  0  0  0  0  0
   -3.7668    8.2492    7.3949 H   0  0  0  0  0  0  0  0  0  0  0  0
   -5.9763    5.2889    3.2233 H   0  0  0  0  0  0  0  0  0  0  0  0
   -6.6883    3.9559    1.3758 H   0  0  0  0  0  0  0  0  0  0  0  0
    6.3745   -0.5493   -0.7329 H   0  0  0  0  0  0  0  0  0  0  0  0
    7.6184   -1.2776   -2.6490 H   0  0  0  0  0  0  0  0  0  0  0  0
   10.0532   -3.1179   -7.3060 H   0  0  0  0  0  0  0  0  0  0  0  0
    5.2602   -4.4644   -7.5550 H   0  0  0  0  0  0  0  0  0  0  0  0
   -3.1635   -2.4512   -0.7672 H   0  0  0  0  0  0  0  0  0  0  0  0
   -1.0615   -3.1643   -1.8460 H   0  0  0  0  0  0  0  0  0  0  0  0
    4.8392    0.2333    1.0162 H   0  0  0  0  0  0  0  0  0  0  0  0
    3.1148    0.3288    0.6567 H   0  0  0  0  0  0  0  0  0  0  0  0
    2.8238   -2.0227    1.4813 H   0  0  0  0  0  0  0  0  0  0  0  0
    3.5170   -0.9825    2.7257 H   0  0  0  0  0  0  0  0  0  0  0  0
    4.5510   -2.1026    1.8340 H   0  0  0  0  0  0  0  0  0  0  0  0
   -7.1749    2.4855   -0.5011 H   0  0  0  0  0  0  0  0  0  0  0  0
   -6.5951    0.8222   -0.4013 H   0  0  0  0  0  0  0  0  0  0  0  0
   -6.0578    1.8334   -2.6045 H   0  0  0  0  0  0  0  0  0  0  0  0
   -5.1337    3.1098   -1.8076 H   0  0  0  0  0  0  0  0  0  0  0  0
   -4.5773    1.4366   -1.7311 H   0  0  0  0  0  0  0  0  0  0  0  0
   -5.6748   -0.4411    2.2895 H   0  0  0  0  0  0  0  0  0  0  0  0
   -7.9652   -1.3097    2.5197 H   0  0  0  0  0  0  0  0  0  0  0  0
   -9.0096   -2.5540    0.6625 H   0  0  0  0  0  0  0  0  0  0  0  0
   -7.7499   -2.9311   -1.4248 H   0  0  0  0  0  0  0  0  0  0  0  0
   -5.4654   -2.0499   -1.6637 H   0  0  0  0  0  0  0  0  0  0  0  0
    2.8299   -4.5967   -0.9988 H   0  0  0  0  0  0  0  0  0  0  0  0
    3.6141   -6.5430   -2.2889 H   0  0  0  0  0  0  0  0  0  0  0  0
    2.7812   -6.9238   -4.5791 H   0  0  0  0  0  0  0  0  0  0  0  0
    1.1353   -5.3717   -5.5625 H   0  0  0  0  0  0  0  0  0  0  0  0
    0.3482   -3.4271   -4.2705 H   0  0  0  0  0  0  0  0  0  0  0  0
  1  2  2  0  0  0  0
  1  3  1  0  0  0  0
  3  4  2  0  0  0  0
  4  5  1  0  0  0  0
  5  6  2  0  0  0  0
  6  7  1  0  0  0  0
  7  8  2  0  0  0  0
  3  8  1  0  0  0  0
  8  9  1  0  0  0  0
  9 10  2  0  0  0  0
 10 11  1  0  0  0  0
 11 12  3  0  0  0  0
 10 13  1  0  0  0  0
 13 14  3  0  0  0  0
  9 15  1  0  0  0  0
  1 15  1  0  0  0  0
 15 16  2  0  0  0  0
 16 17  1  0  0  0  0
 17 18  2  0  0  0  0
 18 19  1  0  0  0  0
 19 20  2  0  0  0  0
 20 21  1  0  0  0  0
 17 21  1  0  0  0  0
 20 22  1  0  0  0  0
 23 24  2  0  0  0  0
 24 25  1  0  0  0  0
 25 26  2  0  0  0  0
 26 27  1  0  0  0  0
 23 27  1  0  0  0  0
 26 28  1  0  0  0  0
 28 29  2  0  0  0  0
 29 30  1  0  0  0  0
 30 31  2  0  0  0  0
 31 32  1  0  0  0  0
 32 33  3  0  0  0  0
 31 34  1  0  0  0  0
 34 35  3  0  0  0  0
 30 36  1  0  0  0  0
 36 37  2  0  0  0  0
 37 38  1  0  0  0  0
 38 39  2  0  0  0  0
 39 40  1  0  0  0  0
 40 41  2  0  0  0  0
 36 41  1  0  0  0  0
 41 42  1  0  0  0  0
 29 42  1  0  0  0  0
 42 43  2  0  0  0  0
  5 44  1  0  0  0  0
 39 45  1  0  0  0  0
 22 46  1  0  0  0  0
 46 47  1  0  0  0  0
 47 48  2  0  0  0  0
 48 49  1  0  0  0  0
 49 22  2  0  0  0  0
 47 50  1  0  0  0  0
 50 51  2  0  0  0  0
 51 52  1  0  0  0  0
 52 53  2  0  0  0  0
 53 54  1  0  0  0  0
 54 50  1  0  0  0  0
 53 23  1  0  0  0  0
 24 55  1  0  0  0  0
 55 56  1  0  0  0  0
 19 57  1  0  0  0  0
 57 58  1  0  0  0  0
 49 59  1  0  0  0  0
 59 60  2  0  0  0  0
 60 61  1  0  0  0  0
 61 62  2  0  0  0  0
 62 63  1  0  0  0  0
 63 64  2  0  0  0  0
 64 59  1  0  0  0  0
 52 65  1  0  0  0  0
 65 66  2  0  0  0  0
 66 67  1  0  0  0  0
 67 68  2  0  0  0  0
 68 69  1  0  0  0  0
 69 70  2  0  0  0  0
 70 65  1  0  0  0  0
  6 71  1  0  0  0  0
 38 72  1  0  0  0  0
  4 73  1  0  0  0  0
  7 74  1  0  0  0  0
 16 75  1  0  0  0  0
 18 76  1  0  0  0  0
 25 77  1  0  0  0  0
 28 78  1  0  0  0  0
 37 79  1  0  0  0  0
 40 80  1  0  0  0  0
 48 81  1  0  0  0  0
 51 82  1  0  0  0  0
 55 83  1  0  0  0  0
 55 84  1  0  0  0  0
 56 85  1  0  0  0  0
 56 86  1  0  0  0  0
 56 87  1  0  0  0  0
 57 88  1  0  0  0  0
 57 89  1  0  0  0  0
 58 90  1  0  0  0  0
 58 91  1  0  0  0  0
 58 92  1  0  0  0  0
 60 93  1  0  0  0  0
 61 94  1  0  0  0  0
 62 95  1  0  0  0  0
 63 96  1  0  0  0  0
 64 97  1  0  0  0  0
 66 98  1  0  0  0  0
 67 99  1  0  0  0  0
 68100  1  0  0  0  0
 69101  1  0  0  0  0
 70102  1  0  0  0  0
M  END
