AOIC.mol
  xtb     01102215483D
 energy: -291.985588199283 gnorm: 0.000234994467 xtb: 6.4.1 (unknown)
175192  0     0  0            999 V2000
   -6.9489    2.9390   -1.1973 O   0  0  0  0  0  0  0  0  0  0  0  0
   -8.1481    2.8317   -1.0161 C   0  0  0  0  0  0  0  0  0  0  0  0
   -8.8391    2.1971    0.1072 C   0  0  0  0  0  0  0  0  0  0  0  0
  -10.2666    2.3357   -0.0910 C   0  0  0  0  0  0  0  0  0  0  0  0
  -10.4660    3.0353   -1.3626 C   0  0  0  0  0  0  0  0  0  0  0  0
   -9.2097    3.3323   -1.9158 C   0  0  0  0  0  0  0  0  0  0  0  0
   -9.0719    3.9884   -3.1223 C   0  0  0  0  0  0  0  0  0  0  0  0
  -10.2298    4.3537   -3.7901 C   0  0  0  0  0  0  0  0  0  0  0  0
  -10.1449    4.9897   -4.9655 F   0  0  0  0  0  0  0  0  0  0  0  0
  -11.4822    4.0634   -3.2500 C   0  0  0  0  0  0  0  0  0  0  0  0
  -12.5843    4.4259   -3.9170 F   0  0  0  0  0  0  0  0  0  0  0  0
  -11.6191    3.4051   -2.0364 C   0  0  0  0  0  0  0  0  0  0  0  0
  -11.2749    1.9046    0.7326 C   0  0  0  0  0  0  0  0  0  0  0  0
  -11.1102    1.2345    1.9630 C   0  0  0  0  0  0  0  0  0  0  0  0
  -11.0705    0.6863    2.9720 N   0  0  0  0  0  0  0  0  0  0  0  0
  -12.6483    2.0773    0.4583 C   0  0  0  0  0  0  0  0  0  0  0  0
  -13.7798    2.1822    0.2963 N   0  0  0  0  0  0  0  0  0  0  0  0
   -8.2366    1.5427    1.1579 C   0  0  0  0  0  0  0  0  0  0  0  0
   -6.8886    1.2969    1.4284 C   0  0  0  0  0  0  0  0  0  0  0  0
   -6.4851    0.5209    2.5294 C   0  0  0  0  0  0  0  0  0  0  0  0
   -5.1241    0.3347    2.5731 C   0  0  0  0  0  0  0  0  0  0  0  0
   -4.4594    0.9898    1.5299 C   0  0  0  0  0  0  0  0  0  0  0  0
   -3.0624    0.7073    1.5826 C   0  0  0  0  0  0  0  0  0  0  0  0
   -2.0251    1.0894    0.7330 C   0  0  0  0  0  0  0  0  0  0  0  0
   -0.7890    0.5360    0.9623 C   0  0  0  0  0  0  0  0  0  0  0  0
    0.5031    0.7471    0.1781 C   0  0  0  0  0  0  0  0  0  0  0  0
    0.9637    2.1544    0.5233 C   0  0  0  0  0  0  0  0  0  0  0  0
    0.3216    3.2499   -0.0444 C   0  0  0  0  0  0  0  0  0  0  0  0
    0.6460    4.5349    0.3419 C   0  0  0  0  0  0  0  0  0  0  0  0
    1.6098    4.7680    1.3157 C   0  0  0  0  0  0  0  0  0  0  0  0
    1.8817    6.1647    1.7958 C   0  0  0  0  0  0  0  0  0  0  0  0
    0.8180    6.5943    2.8085 C   0  0  0  0  0  0  0  0  0  0  0  0
    2.2574    3.6740    1.8697 C   0  0  0  0  0  0  0  0  0  0  0  0
    1.9407    2.3846    1.4809 C   0  0  0  0  0  0  0  0  0  0  0  0
    0.2923    0.5034   -1.3036 C   0  0  0  0  0  0  0  0  0  0  0  0
   -0.5466   -0.5297   -1.7058 C   0  0  0  0  0  0  0  0  0  0  0  0
   -0.7624   -0.7807   -3.0466 C   0  0  0  0  0  0  0  0  0  0  0  0
   -0.1322   -0.0230   -4.0248 C   0  0  0  0  0  0  0  0  0  0  0  0
   -0.4062   -0.2610   -5.4808 C   0  0  0  0  0  0  0  0  0  0  0  0
   -1.5781    0.6033   -5.9511 C   0  0  0  0  0  0  0  0  0  0  0  0
    0.7159    0.9974   -3.6198 C   0  0  0  0  0  0  0  0  0  0  0  0
    0.9230    1.2612   -2.2788 C   0  0  0  0  0  0  0  0  0  0  0  0
    1.3861   -0.3185    0.7874 C   0  0  0  0  0  0  0  0  0  0  0  0
    0.7187   -0.9220    1.8533 C   0  0  0  0  0  0  0  0  0  0  0  0
    1.5904   -2.2046    2.6085 S   0  0  0  0  0  0  0  0  0  0  0  0
    2.8649   -1.9482    1.4758 C   0  0  0  0  0  0  0  0  0  0  0  0
    2.6301   -0.9014    0.5697 C   0  0  0  0  0  0  0  0  0  0  0  0
    3.8165   -0.7451   -0.3594 C   0  0  0  0  0  0  0  0  0  0  0  0
    4.6714   -1.9085    0.0906 C   0  0  0  0  0  0  0  0  0  0  0  0
    4.0905   -2.5761    1.1689 C   0  0  0  0  0  0  0  0  0  0  0  0
    4.9716   -3.9664    1.7011 S   0  0  0  0  0  0  0  0  0  0  0  0
    6.1334   -3.6904    0.4281 C   0  0  0  0  0  0  0  0  0  0  0  0
    5.8274   -2.5406   -0.3390 C   0  0  0  0  0  0  0  0  0  0  0  0
    6.9635   -2.3215   -1.6043 S   0  0  0  0  0  0  0  0  0  0  0  0
    7.8279   -3.7961   -1.1223 C   0  0  0  0  0  0  0  0  0  0  0  0
    8.9063   -4.1550   -1.9415 C   0  0  0  0  0  0  0  0  0  0  0  0
    9.7447   -5.2452   -1.9404 C   0  0  0  0  0  0  0  0  0  0  0  0
   10.7795   -5.4559   -2.9374 C   0  0  0  0  0  0  0  0  0  0  0  0
   11.4145   -6.7443   -2.6555 C   0  0  0  0  0  0  0  0  0  0  0  0
   12.4285   -7.4334   -3.3031 C   0  0  0  0  0  0  0  0  0  0  0  0
   12.8122   -8.6633   -2.7895 C   0  0  0  0  0  0  0  0  0  0  0  0
   13.7870   -9.3446   -3.4033 F   0  0  0  0  0  0  0  0  0  0  0  0
   12.2086   -9.2062   -1.6552 C   0  0  0  0  0  0  0  0  0  0  0  0
   12.6107  -10.3978   -1.1954 F   0  0  0  0  0  0  0  0  0  0  0  0
   11.1955   -8.5235   -1.0023 C   0  0  0  0  0  0  0  0  0  0  0  0
   10.8136   -7.3004   -1.5164 C   0  0  0  0  0  0  0  0  0  0  0  0
    9.7606   -6.3908   -1.0114 C   0  0  0  0  0  0  0  0  0  0  0  0
    9.0818   -6.5935   -0.0255 O   0  0  0  0  0  0  0  0  0  0  0  0
   11.1328   -4.6305   -3.9744 C   0  0  0  0  0  0  0  0  0  0  0  0
   10.5574   -3.3835   -4.2997 C   0  0  0  0  0  0  0  0  0  0  0  0
   10.1615   -2.3644   -4.6537 N   0  0  0  0  0  0  0  0  0  0  0  0
   12.1607   -4.9189   -4.8981 C   0  0  0  0  0  0  0  0  0  0  0  0
   12.9805   -5.0837   -5.6846 N   0  0  0  0  0  0  0  0  0  0  0  0
    7.2457   -4.3865   -0.0051 C   0  0  0  0  0  0  0  0  0  0  0  0
    4.4959    0.5843   -0.0686 C   0  0  0  0  0  0  0  0  0  0  0  0
    5.3672    0.6987    1.0072 C   0  0  0  0  0  0  0  0  0  0  0  0
    6.0161    1.8918    1.2638 C   0  0  0  0  0  0  0  0  0  0  0  0
    5.8096    3.0041    0.4596 C   0  0  0  0  0  0  0  0  0  0  0  0
    6.5394    4.2910    0.7162 C   0  0  0  0  0  0  0  0  0  0  0  0
    5.6870    5.2486    1.5485 C   0  0  0  0  0  0  0  0  0  0  0  0
    4.8967    2.8997   -0.5815 C   0  0  0  0  0  0  0  0  0  0  0  0
    4.2476    1.7082   -0.8429 C   0  0  0  0  0  0  0  0  0  0  0  0
    3.5243   -1.0012   -1.8246 C   0  0  0  0  0  0  0  0  0  0  0  0
    2.4491   -1.7928   -2.2007 C   0  0  0  0  0  0  0  0  0  0  0  0
    2.2545   -2.1260   -3.5279 C   0  0  0  0  0  0  0  0  0  0  0  0
    3.1287   -1.6841   -4.5104 C   0  0  0  0  0  0  0  0  0  0  0  0
    4.2165   -0.9113   -4.1253 C   0  0  0  0  0  0  0  0  0  0  0  0
    4.4221   -0.5836   -2.7994 C   0  0  0  0  0  0  0  0  0  0  0  0
    2.9522   -2.0871   -5.9456 C   0  0  0  0  0  0  0  0  0  0  0  0
    3.8326   -3.2950   -6.2728 C   0  0  0  0  0  0  0  0  0  0  0  0
   -0.6004   -0.4045    2.0020 C   0  0  0  0  0  0  0  0  0  0  0  0
   -1.6187   -0.7359    2.8939 C   0  0  0  0  0  0  0  0  0  0  0  0
   -2.8472   -0.1568    2.6839 C   0  0  0  0  0  0  0  0  0  0  0  0
   -4.1337   -0.3752    3.4621 C   0  0  0  0  0  0  0  0  0  0  0  0
   -4.3759   -1.8613    3.6236 C   0  0  0  0  0  0  0  0  0  0  0  0
   -3.8427   -2.5390    4.7132 C   0  0  0  0  0  0  0  0  0  0  0  0
   -4.0178   -3.9031    4.8446 C   0  0  0  0  0  0  0  0  0  0  0  0
   -4.7242   -4.6272    3.8926 C   0  0  0  0  0  0  0  0  0  0  0  0
   -4.8767   -6.1152    4.0207 C   0  0  0  0  0  0  0  0  0  0  0  0
   -3.6762   -6.8307    3.3977 C   0  0  0  0  0  0  0  0  0  0  0  0
   -5.2413   -3.9477    2.7980 C   0  0  0  0  0  0  0  0  0  0  0  0
   -5.0676   -2.5826    2.6610 C   0  0  0  0  0  0  0  0  0  0  0  0
   -4.1523    0.3540    4.7967 C   0  0  0  0  0  0  0  0  0  0  0  0
   -5.1894    0.1026    5.6873 C   0  0  0  0  0  0  0  0  0  0  0  0
   -5.2690    0.7883    6.8831 C   0  0  0  0  0  0  0  0  0  0  0  0
   -4.3203    1.7464    7.2199 C   0  0  0  0  0  0  0  0  0  0  0  0
   -4.4386    2.5271    8.4967 C   0  0  0  0  0  0  0  0  0  0  0  0
   -5.3016    3.7722    8.2811 C   0  0  0  0  0  0  0  0  0  0  0  0
   -3.2925    1.9992    6.3227 C   0  0  0  0  0  0  0  0  0  0  0  0
   -3.2076    1.3155    5.1226 C   0  0  0  0  0  0  0  0  0  0  0  0
   -5.5073    1.8236    0.4719 S   0  0  0  0  0  0  0  0  0  0  0  0
   -8.1008    4.2095   -3.5355 H   0  0  0  0  0  0  0  0  0  0  0  0
  -12.6105    3.2047   -1.6651 H   0  0  0  0  0  0  0  0  0  0  0  0
   -8.8988    1.1133    1.8999 H   0  0  0  0  0  0  0  0  0  0  0  0
   -7.1955    0.1122    3.2257 H   0  0  0  0  0  0  0  0  0  0  0  0
   -2.2141    1.7610   -0.0890 H   0  0  0  0  0  0  0  0  0  0  0  0
   -0.4380    3.0985   -0.7965 H   0  0  0  0  0  0  0  0  0  0  0  0
    0.1338    5.3715   -0.1119 H   0  0  0  0  0  0  0  0  0  0  0  0
    1.8718    6.8566    0.9506 H   0  0  0  0  0  0  0  0  0  0  0  0
    2.8635    6.2141    2.2692 H   0  0  0  0  0  0  0  0  0  0  0  0
    0.8207    5.9230    3.6645 H   0  0  0  0  0  0  0  0  0  0  0  0
    1.0134    7.6050    3.1586 H   0  0  0  0  0  0  0  0  0  0  0  0
   -0.1710    6.5675    2.3570 H   0  0  0  0  0  0  0  0  0  0  0  0
    3.0151    3.8251    2.6245 H   0  0  0  0  0  0  0  0  0  0  0  0
    2.4608    1.5573    1.9397 H   0  0  0  0  0  0  0  0  0  0  0  0
   -1.0418   -1.1386   -0.9619 H   0  0  0  0  0  0  0  0  0  0  0  0
   -1.4289   -1.5805   -3.3373 H   0  0  0  0  0  0  0  0  0  0  0  0
   -0.6485   -1.3127   -5.6461 H   0  0  0  0  0  0  0  0  0  0  0  0
    0.4813   -0.0159   -6.0671 H   0  0  0  0  0  0  0  0  0  0  0  0
   -1.3510    1.6574   -5.8093 H   0  0  0  0  0  0  0  0  0  0  0  0
   -1.7798    0.4301   -7.0055 H   0  0  0  0  0  0  0  0  0  0  0  0
   -2.4746    0.3675   -5.3821 H   0  0  0  0  0  0  0  0  0  0  0  0
    1.2211    1.5972   -4.3633 H   0  0  0  0  0  0  0  0  0  0  0  0
    1.5658    2.0785   -1.9910 H   0  0  0  0  0  0  0  0  0  0  0  0
    9.0760   -3.4388   -2.7365 H   0  0  0  0  0  0  0  0  0  0  0  0
   12.9284   -7.0625   -4.1823 H   0  0  0  0  0  0  0  0  0  0  0  0
   10.7232   -8.9370   -0.1255 H   0  0  0  0  0  0  0  0  0  0  0  0
    7.6269   -5.2862    0.4414 H   0  0  0  0  0  0  0  0  0  0  0  0
    5.5563   -0.1533    1.6447 H   0  0  0  0  0  0  0  0  0  0  0  0
    6.7069    1.9521    2.0927 H   0  0  0  0  0  0  0  0  0  0  0  0
    6.7832    4.7671   -0.2358 H   0  0  0  0  0  0  0  0  0  0  0  0
    7.4731    4.0860    1.2434 H   0  0  0  0  0  0  0  0  0  0  0  0
    4.7535    5.4602    1.0326 H   0  0  0  0  0  0  0  0  0  0  0  0
    5.4570    4.8058    2.5152 H   0  0  0  0  0  0  0  0  0  0  0  0
    6.2167    6.1840    1.7138 H   0  0  0  0  0  0  0  0  0  0  0  0
    4.7031    3.7579   -1.2090 H   0  0  0  0  0  0  0  0  0  0  0  0
    3.5646    1.6401   -1.6737 H   0  0  0  0  0  0  0  0  0  0  0  0
    1.7606   -2.1587   -1.4535 H   0  0  0  0  0  0  0  0  0  0  0  0
    1.4130   -2.7461   -3.8000 H   0  0  0  0  0  0  0  0  0  0  0  0
    4.9213   -0.5714   -4.8702 H   0  0  0  0  0  0  0  0  0  0  0  0
    5.2893   -0.0029   -2.5219 H   0  0  0  0  0  0  0  0  0  0  0  0
    3.2280   -1.2568   -6.5992 H   0  0  0  0  0  0  0  0  0  0  0  0
    1.9077   -2.3407   -6.1338 H   0  0  0  0  0  0  0  0  0  0  0  0
    3.7064   -3.5873   -7.3125 H   0  0  0  0  0  0  0  0  0  0  0  0
    3.5661   -4.1384   -5.6395 H   0  0  0  0  0  0  0  0  0  0  0  0
    4.8803   -3.0580   -6.1030 H   0  0  0  0  0  0  0  0  0  0  0  0
   -1.4476   -1.4391    3.6945 H   0  0  0  0  0  0  0  0  0  0  0  0
   -3.2985   -1.9924    5.4701 H   0  0  0  0  0  0  0  0  0  0  0  0
   -3.6031   -4.4131    5.7023 H   0  0  0  0  0  0  0  0  0  0  0  0
   -4.9508   -6.3898    5.0749 H   0  0  0  0  0  0  0  0  0  0  0  0
   -5.7899   -6.4392    3.5180 H   0  0  0  0  0  0  0  0  0  0  0  0
   -2.7563   -6.5297    3.8942 H   0  0  0  0  0  0  0  0  0  0  0  0
   -3.7852   -7.9085    3.4916 H   0  0  0  0  0  0  0  0  0  0  0  0
   -3.5923   -6.5801    2.3425 H   0  0  0  0  0  0  0  0  0  0  0  0
   -5.7901   -4.4924    2.0430 H   0  0  0  0  0  0  0  0  0  0  0  0
   -5.4772   -2.0755    1.7991 H   0  0  0  0  0  0  0  0  0  0  0  0
   -5.9324   -0.6430    5.4444 H   0  0  0  0  0  0  0  0  0  0  0  0
   -6.0797    0.5776    7.5656 H   0  0  0  0  0  0  0  0  0  0  0  0
   -3.4474    2.8312    8.8389 H   0  0  0  0  0  0  0  0  0  0  0  0
   -4.8924    1.9052    9.2708 H   0  0  0  0  0  0  0  0  0  0  0  0
   -5.3887    4.3395    9.2047 H   0  0  0  0  0  0  0  0  0  0  0  0
   -6.2987    3.4891    7.9516 H   0  0  0  0  0  0  0  0  0  0  0  0
   -4.8594    4.4117    7.5203 H   0  0  0  0  0  0  0  0  0  0  0  0
   -2.5453    2.7423    6.5630 H   0  0  0  0  0  0  0  0  0  0  0  0
   -2.3988    1.5349    4.4407 H   0  0  0  0  0  0  0  0  0  0  0  0
  1  2  2  0  0  0  0
  2  3  1  0  0  0  0
  3  4  1  0  0  0  0
  4  5  1  0  0  0  0
  5  6  2  0  0  0  0
  2  6  1  0  0  0  0
  6  7  1  0  0  0  0
  7  8  2  0  0  0  0
  8  9  1  0  0  0  0
  8 10  1  0  0  0  0
 10 11  1  0  0  0  0
 10 12  2  0  0  0  0
  5 12  1  0  0  0  0
  4 13  2  0  0  0  0
 13 14  1  0  0  0  0
 14 15  3  0  0  0  0
 13 16  1  0  0  0  0
 16 17  3  0  0  0  0
  3 18  2  0  0  0  0
 18 19  1  0  0  0  0
 19 20  2  0  0  0  0
 20 21  1  0  0  0  0
 21 22  2  0  0  0  0
 22 23  1  0  0  0  0
 23 24  2  0  0  0  0
 24 25  1  0  0  0  0
 25 26  1  0  0  0  0
 26 27  1  0  0  0  0
 27 28  2  0  0  0  0
 28 29  1  0  0  0  0
 29 30  2  0  0  0  0
 30 31  1  0  0  0  0
 31 32  1  0  0  0  0
 30 33  1  0  0  0  0
 33 34  2  0  0  0  0
 27 34  1  0  0  0  0
 26 35  1  0  0  0  0
 35 36  2  0  0  0  0
 36 37  1  0  0  0  0
 37 38  2  0  0  0  0
 38 39  1  0  0  0  0
 39 40  1  0  0  0  0
 38 41  1  0  0  0  0
 35 42  1  0  0  0  0
 41 42  2  0  0  0  0
 26 43  1  0  0  0  0
 43 44  2  0  0  0  0
 44 45  1  0  0  0  0
 45 46  1  0  0  0  0
 46 47  2  0  0  0  0
 43 47  1  0  0  0  0
 47 48  1  0  0  0  0
 48 49  1  0  0  0  0
 49 50  2  0  0  0  0
 46 50  1  0  0  0  0
 50 51  1  0  0  0  0
 51 52  1  0  0  0  0
 52 53  2  0  0  0  0
 49 53  1  0  0  0  0
 53 54  1  0  0  0  0
 54 55  1  0  0  0  0
 55 56  1  0  0  0  0
 56 57  2  0  0  0  0
 57 58  1  0  0  0  0
 58 59  1  0  0  0  0
 59 60  1  0  0  0  0
 60 61  2  0  0  0  0
 61 62  1  0  0  0  0
 61 63  1  0  0  0  0
 63 64  1  0  0  0  0
 63 65  2  0  0  0  0
 59 66  2  0  0  0  0
 65 66  1  0  0  0  0
 66 67  1  0  0  0  0
 57 67  1  0  0  0  0
 67 68  2  0  0  0  0
 58 69  2  0  0  0  0
 69 70  1  0  0  0  0
 70 71  3  0  0  0  0
 69 72  1  0  0  0  0
 72 73  3  0  0  0  0
 55 74  2  0  0  0  0
 52 74  1  0  0  0  0
 48 75  1  0  0  0  0
 75 76  2  0  0  0  0
 76 77  1  0  0  0  0
 77 78  2  0  0  0  0
 78 79  1  0  0  0  0
 79 80  1  0  0  0  0
 78 81  1  0  0  0  0
 81 82  2  0  0  0  0
 75 82  1  0  0  0  0
 48 83  1  0  0  0  0
 83 84  2  0  0  0  0
 84 85  1  0  0  0  0
 85 86  2  0  0  0  0
 86 87  1  0  0  0  0
 87 88  2  0  0  0  0
 83 88  1  0  0  0  0
 86 89  1  0  0  0  0
 89 90  1  0  0  0  0
 25 91  2  0  0  0  0
 44 91  1  0  0  0  0
 91 92  1  0  0  0  0
 23 93  1  0  0  0  0
 92 93  2  0  0  0  0
 93 94  1  0  0  0  0
 21 94  1  0  0  0  0
 94 95  1  0  0  0  0
 95 96  2  0  0  0  0
 96 97  1  0  0  0  0
 97 98  2  0  0  0  0
 98 99  1  0  0  0  0
 99100  1  0  0  0  0
 98101  1  0  0  0  0
101102  2  0  0  0  0
 95102  1  0  0  0  0
 94103  1  0  0  0  0
103104  2  0  0  0  0
104105  1  0  0  0  0
105106  2  0  0  0  0
106107  1  0  0  0  0
107108  1  0  0  0  0
106109  1  0  0  0  0
109110  2  0  0  0  0
103110  1  0  0  0  0
 22111  1  0  0  0  0
 19111  1  0  0  0  0
  7112  1  0  0  0  0
 12113  1  0  0  0  0
 18114  1  0  0  0  0
 20115  1  0  0  0  0
 24116  1  0  0  0  0
 28117  1  0  0  0  0
 29118  1  0  0  0  0
 31119  1  0  0  0  0
 31120  1  0  0  0  0
 32121  1  0  0  0  0
 32122  1  0  0  0  0
 32123  1  0  0  0  0
 33124  1  0  0  0  0
 34125  1  0  0  0  0
 36126  1  0  0  0  0
 37127  1  0  0  0  0
 39128  1  0  0  0  0
 39129  1  0  0  0  0
 40130  1  0  0  0  0
 40131  1  0  0  0  0
 40132  1  0  0  0  0
 41133  1  0  0  0  0
 42134  1  0  0  0  0
 56135  1  0  0  0  0
 60136  1  0  0  0  0
 65137  1  0  0  0  0
 74138  1  0  0  0  0
 76139  1  0  0  0  0
 77140  1  0  0  0  0
 79141  1  0  0  0  0
 79142  1  0  0  0  0
 80143  1  0  0  0  0
 80144  1  0  0  0  0
 80145  1  0  0  0  0
 81146  1  0  0  0  0
 82147  1  0  0  0  0
 84148  1  0  0  0  0
 85149  1  0  0  0  0
 87150  1  0  0  0  0
 88151  1  0  0  0  0
 89152  1  0  0  0  0
 89153  1  0  0  0  0
 90154  1  0  0  0  0
 90155  1  0  0  0  0
 90156  1  0  0  0  0
 92157  1  0  0  0  0
 96158  1  0  0  0  0
 97159  1  0  0  0  0
 99160  1  0  0  0  0
 99161  1  0  0  0  0
100162  1  0  0  0  0
100163  1  0  0  0  0
100164  1  0  0  0  0
101165  1  0  0  0  0
102166  1  0  0  0  0
104167  1  0  0  0  0
105168  1  0  0  0  0
107169  1  0  0  0  0
107170  1  0  0  0  0
108171  1  0  0  0  0
108172  1  0  0  0  0
108173  1  0  0  0  0
109174  1  0  0  0  0
110175  1  0  0  0  0
M  END
