AOT1.mol
  xtb     01102215573D
 energy: -177.367792349612 gnorm: 0.000215753285 xtb: 6.4.1 (unknown)
 91 97  0     0  0            999 V2000
    4.3335    0.9781    3.5935 O   0  0  0  0  0  0  0  0  0  0  0  0
    4.4232    0.8834    4.8054 C   0  0  0  0  0  0  0  0  0  0  0  0
    3.6248    0.0555    5.7066 C   0  0  0  0  0  0  0  0  0  0  0  0
    4.1328    0.2103    7.0519 C   0  0  0  0  0  0  0  0  0  0  0  0
    5.2164    1.1954    6.9975 C   0  0  0  0  0  0  0  0  0  0  0  0
    5.3956    1.5951    5.6627 C   0  0  0  0  0  0  0  0  0  0  0  0
    6.3493    2.5220    5.2932 C   0  0  0  0  0  0  0  0  0  0  0  0
    6.0130    1.7403    7.9918 C   0  0  0  0  0  0  0  0  0  0  0  0
    6.9702    2.6742    7.6219 C   0  0  0  0  0  0  0  0  0  0  0  0
    7.7466    3.2145    8.5684 F   0  0  0  0  0  0  0  0  0  0  0  0
    7.1408    3.0629    6.2937 C   0  0  0  0  0  0  0  0  0  0  0  0
    8.0768    3.9687    5.9815 F   0  0  0  0  0  0  0  0  0  0  0  0
    3.7158   -0.4387    8.1855 C   0  0  0  0  0  0  0  0  0  0  0  0
    2.7007   -1.4167    8.2543 C   0  0  0  0  0  0  0  0  0  0  0  0
    1.9005   -2.2260    8.4090 N   0  0  0  0  0  0  0  0  0  0  0  0
    4.2705   -0.2256    9.4653 C   0  0  0  0  0  0  0  0  0  0  0  0
    4.6759   -0.0982   10.5316 N   0  0  0  0  0  0  0  0  0  0  0  0
    2.5435   -0.7129    5.3370 C   0  0  0  0  0  0  0  0  0  0  0  0
    1.9519   -0.8866    4.0881 C   0  0  0  0  0  0  0  0  0  0  0  0
    0.7963   -1.6970    3.9310 C   0  0  0  0  0  0  0  0  0  0  0  0
    0.2900   -2.2966    5.0126 O   0  0  0  0  0  0  0  0  0  0  0  0
   -0.8030   -3.1915    4.8656 C   0  0  0  0  0  0  0  0  0  0  0  0
   -0.3688   -4.5410    4.3067 C   0  0  0  0  0  0  0  0  0  0  0  0
    0.3271   -1.7253    2.6226 C   0  0  0  0  0  0  0  0  0  0  0  0
    1.1013   -0.9571    1.7663 C   0  0  0  0  0  0  0  0  0  0  0  0
    0.8465   -0.7420    0.3896 C   0  0  0  0  0  0  0  0  0  0  0  0
   -0.6047   -1.3004   -0.3773 S   0  0  0  0  0  0  0  0  0  0  0  0
    1.6489   -0.0368   -0.4994 C   0  0  0  0  0  0  0  0  0  0  0  0
    2.8527    0.4855   -0.1160 O   0  0  0  0  0  0  0  0  0  0  0  0
    3.9605   -0.4152   -0.1749 C   0  0  0  0  0  0  0  0  0  0  0  0
    4.4533   -0.6544   -1.5963 C   0  0  0  0  0  0  0  0  0  0  0  0
    1.0703    0.0911   -1.7846 C   0  0  0  0  0  0  0  0  0  0  0  0
    1.6045    0.7307   -2.8529 O   0  0  0  0  0  0  0  0  0  0  0  0
    2.1892    2.0131   -2.6179 C   0  0  0  0  0  0  0  0  0  0  0  0
    1.1295    3.0545   -2.2833 C   0  0  0  0  0  0  0  0  0  0  0  0
   -0.1684   -0.5424   -1.8765 C   0  0  0  0  0  0  0  0  0  0  0  0
   -1.0548   -0.5803   -2.9821 C   0  0  0  0  0  0  0  0  0  0  0  0
   -0.7769   -0.1935   -4.2845 C   0  0  0  0  0  0  0  0  0  0  0  0
   -1.8847   -0.3082   -5.1177 C   0  0  0  0  0  0  0  0  0  0  0  0
   -1.9846   -0.0046   -6.4165 O   0  0  0  0  0  0  0  0  0  0  0  0
   -0.8207    0.3794   -7.1328 C   0  0  0  0  0  0  0  0  0  0  0  0
    0.0674   -0.8126   -7.4679 C   0  0  0  0  0  0  0  0  0  0  0  0
   -3.0426   -0.7892   -4.4513 C   0  0  0  0  0  0  0  0  0  0  0  0
   -4.2506   -0.9477   -5.1251 C   0  0  0  0  0  0  0  0  0  0  0  0
   -5.4800   -1.3545   -4.6553 C   0  0  0  0  0  0  0  0  0  0  0  0
   -6.6930   -1.4622   -5.4344 C   0  0  0  0  0  0  0  0  0  0  0  0
   -7.7665   -1.8547   -4.5171 C   0  0  0  0  0  0  0  0  0  0  0  0
   -7.2259   -2.0079   -3.2294 C   0  0  0  0  0  0  0  0  0  0  0  0
   -7.9973   -2.3745   -2.1452 C   0  0  0  0  0  0  0  0  0  0  0  0
   -9.3487   -2.5906   -2.3625 C   0  0  0  0  0  0  0  0  0  0  0  0
  -10.1363   -2.9461   -1.3391 F   0  0  0  0  0  0  0  0  0  0  0  0
   -9.8958   -2.4401   -3.6362 C   0  0  0  0  0  0  0  0  0  0  0  0
  -11.2046   -2.6529   -3.8175 F   0  0  0  0  0  0  0  0  0  0  0  0
   -9.1188   -2.0732   -4.7258 C   0  0  0  0  0  0  0  0  0  0  0  0
   -6.8458   -1.2552   -6.7815 C   0  0  0  0  0  0  0  0  0  0  0  0
   -5.8223   -0.9032   -7.6867 C   0  0  0  0  0  0  0  0  0  0  0  0
   -5.0589   -0.6235   -8.4983 N   0  0  0  0  0  0  0  0  0  0  0  0
   -8.0740   -1.3801   -7.4646 C   0  0  0  0  0  0  0  0  0  0  0  0
   -9.0401   -1.4617   -8.0793 N   0  0  0  0  0  0  0  0  0  0  0  0
   -5.7776   -1.7119   -3.2704 C   0  0  0  0  0  0  0  0  0  0  0  0
   -5.0092   -1.7624   -2.3257 O   0  0  0  0  0  0  0  0  0  0  0  0
   -2.6949   -1.0973   -2.7686 S   0  0  0  0  0  0  0  0  0  0  0  0
    2.4294   -0.1838    2.5621 S   0  0  0  0  0  0  0  0  0  0  0  0
    6.4760    2.8208    4.2649 H   0  0  0  0  0  0  0  0  0  0  0  0
    5.9218    1.4762    9.0324 H   0  0  0  0  0  0  0  0  0  0  0  0
    2.0355   -1.2648    6.1188 H   0  0  0  0  0  0  0  0  0  0  0  0
   -1.1855   -3.3113    5.8818 H   0  0  0  0  0  0  0  0  0  0  0  0
   -1.5831   -2.7392    4.2429 H   0  0  0  0  0  0  0  0  0  0  0  0
    0.3959   -4.9745    4.9461 H   0  0  0  0  0  0  0  0  0  0  0  0
    0.0360   -4.4360    3.3028 H   0  0  0  0  0  0  0  0  0  0  0  0
   -1.2221   -5.2118    4.2732 H   0  0  0  0  0  0  0  0  0  0  0  0
   -0.5373   -2.2629    2.2764 H   0  0  0  0  0  0  0  0  0  0  0  0
    3.6880   -1.3691    0.2923 H   0  0  0  0  0  0  0  0  0  0  0  0
    4.7284    0.0675    0.4321 H   0  0  0  0  0  0  0  0  0  0  0  0
    5.2882   -1.3492   -1.5739 H   0  0  0  0  0  0  0  0  0  0  0  0
    4.7852    0.2762   -2.0496 H   0  0  0  0  0  0  0  0  0  0  0  0
    3.6628   -1.0796   -2.2118 H   0  0  0  0  0  0  0  0  0  0  0  0
    2.6882    2.2533   -3.5596 H   0  0  0  0  0  0  0  0  0  0  0  0
    2.9282    1.9603   -1.8151 H   0  0  0  0  0  0  0  0  0  0  0  0
    1.5942    4.0326   -2.2002 H   0  0  0  0  0  0  0  0  0  0  0  0
    0.3683    3.0874   -3.0598 H   0  0  0  0  0  0  0  0  0  0  0  0
    0.6516    2.8135   -1.3360 H   0  0  0  0  0  0  0  0  0  0  0  0
    0.1969    0.1470   -4.5807 H   0  0  0  0  0  0  0  0  0  0  0  0
   -0.2642    1.1396   -6.5728 H   0  0  0  0  0  0  0  0  0  0  0  0
   -1.2098    0.8280   -8.0498 H   0  0  0  0  0  0  0  0  0  0  0  0
   -0.5017   -1.5476   -8.0313 H   0  0  0  0  0  0  0  0  0  0  0  0
    0.4443   -1.2840   -6.5632 H   0  0  0  0  0  0  0  0  0  0  0  0
    0.9088   -0.4816   -8.0697 H   0  0  0  0  0  0  0  0  0  0  0  0
   -4.1795   -0.6862   -6.1740 H   0  0  0  0  0  0  0  0  0  0  0  0
   -7.5692   -2.4886   -1.1622 H   0  0  0  0  0  0  0  0  0  0  0  0
   -9.5920   -1.9700   -5.6882 H   0  0  0  0  0  0  0  0  0  0  0  0
  1  2  2  0  0  0  0
  2  3  1  0  0  0  0
  3  4  1  0  0  0  0
  4  5  1  0  0  0  0
  5  6  2  0  0  0  0
  2  6  1  0  0  0  0
  6  7  1  0  0  0  0
  5  8  1  0  0  0  0
  8  9  2  0  0  0  0
  9 10  1  0  0  0  0
  9 11  1  0  0  0  0
  7 11  2  0  0  0  0
 11 12  1  0  0  0  0
  4 13  2  0  0  0  0
 13 14  1  0  0  0  0
 14 15  3  0  0  0  0
 13 16  1  0  0  0  0
 16 17  3  0  0  0  0
  3 18  2  0  0  0  0
 18 19  1  0  0  0  0
 19 20  2  0  0  0  0
 20 21  1  0  0  0  0
 21 22  1  0  0  0  0
 22 23  1  0  0  0  0
 20 24  1  0  0  0  0
 24 25  2  0  0  0  0
 25 26  1  0  0  0  0
 26 27  1  0  0  0  0
 26 28  2  0  0  0  0
 28 29  1  0  0  0  0
 29 30  1  0  0  0  0
 30 31  1  0  0  0  0
 28 32  1  0  0  0  0
 32 33  1  0  0  0  0
 33 34  1  0  0  0  0
 34 35  1  0  0  0  0
 32 36  2  0  0  0  0
 27 36  1  0  0  0  0
 36 37  1  0  0  0  0
 37 38  2  0  0  0  0
 38 39  1  0  0  0  0
 39 40  1  0  0  0  0
 40 41  1  0  0  0  0
 41 42  1  0  0  0  0
 39 43  2  0  0  0  0
 43 44  1  0  0  0  0
 44 45  2  0  0  0  0
 45 46  1  0  0  0  0
 46 47  1  0  0  0  0
 47 48  2  0  0  0  0
 48 49  1  0  0  0  0
 49 50  2  0  0  0  0
 50 51  1  0  0  0  0
 50 52  1  0  0  0  0
 52 53  1  0  0  0  0
 52 54  2  0  0  0  0
 47 54  1  0  0  0  0
 46 55  2  0  0  0  0
 55 56  1  0  0  0  0
 56 57  3  0  0  0  0
 55 58  1  0  0  0  0
 58 59  3  0  0  0  0
 45 60  1  0  0  0  0
 48 60  1  0  0  0  0
 60 61  2  0  0  0  0
 43 62  1  0  0  0  0
 37 62  1  0  0  0  0
 25 63  1  0  0  0  0
 19 63  1  0  0  0  0
  7 64  1  0  0  0  0
  8 65  1  0  0  0  0
 18 66  1  0  0  0  0
 22 67  1  0  0  0  0
 22 68  1  0  0  0  0
 23 69  1  0  0  0  0
 23 70  1  0  0  0  0
 23 71  1  0  0  0  0
 24 72  1  0  0  0  0
 30 73  1  0  0  0  0
 30 74  1  0  0  0  0
 31 75  1  0  0  0  0
 31 76  1  0  0  0  0
 31 77  1  0  0  0  0
 34 78  1  0  0  0  0
 34 79  1  0  0  0  0
 35 80  1  0  0  0  0
 35 81  1  0  0  0  0
 35 82  1  0  0  0  0
 38 83  1  0  0  0  0
 41 84  1  0  0  0  0
 41 85  1  0  0  0  0
 42 86  1  0  0  0  0
 42 87  1  0  0  0  0
 42 88  1  0  0  0  0
 44 89  1  0  0  0  0
 49 90  1  0  0  0  0
 54 91  1  0  0  0  0
M  END
