BDTP-4F.mol
  xtb     01102216193D
 energy: -191.406615902935 gnorm: 0.000972225191 xtb: 6.4.1 (unknown)
 98109  0     0  0            999 V2000
   -7.8335    3.2715   -1.6759 O   0  0  0  0  0  0  0  0  0  0  0  0
   -8.6664    3.3690   -0.7958 C   0  0  0  0  0  0  0  0  0  0  0  0
  -10.0275    3.9303   -0.9463 C   0  0  0  0  0  0  0  0  0  0  0  0
  -10.6227    4.4401   -2.0823 C   0  0  0  0  0  0  0  0  0  0  0  0
  -11.9212    4.9113   -1.9700 C   0  0  0  0  0  0  0  0  0  0  0  0
  -12.5398    5.4149   -3.0452 F   0  0  0  0  0  0  0  0  0  0  0  0
  -12.5898    4.8651   -0.7470 C   0  0  0  0  0  0  0  0  0  0  0  0
  -11.9896    4.3535    0.3944 C   0  0  0  0  0  0  0  0  0  0  0  0
  -10.6909    3.8810    0.2906 C   0  0  0  0  0  0  0  0  0  0  0  0
   -9.7897    3.2931    1.2842 C   0  0  0  0  0  0  0  0  0  0  0  0
   -8.5519    2.9673    0.6082 C   0  0  0  0  0  0  0  0  0  0  0  0
   -7.4693    2.3608    1.2043 C   0  0  0  0  0  0  0  0  0  0  0  0
   -6.2201    1.9898    0.7023 C   0  0  0  0  0  0  0  0  0  0  0  0
   -5.6730    2.2868   -0.9535 S   0  0  0  0  0  0  0  0  0  0  0  0
   -5.2451    1.3444    1.4987 C   0  0  0  0  0  0  0  0  0  0  0  0
   -5.4296    1.0453    2.9557 C   0  0  0  0  0  0  0  0  0  0  0  0
   -6.2155   -0.2464    3.1984 C   0  0  0  0  0  0  0  0  0  0  0  0
   -4.1058    1.0774    0.7500 C   0  0  0  0  0  0  0  0  0  0  0  0
   -2.8546    0.5083    0.9726 N   0  0  0  0  0  0  0  0  0  0  0  0
   -2.7337   -0.7158    1.7483 C   0  0  0  0  0  0  0  0  0  0  0  0
   -3.4299   -1.8812    1.0455 C   0  0  0  0  0  0  0  0  0  0  0  0
   -4.1799    1.5547   -0.5755 C   0  0  0  0  0  0  0  0  0  0  0  0
   -2.9500    1.2752   -1.1980 C   0  0  0  0  0  0  0  0  0  0  0  0
   -2.4794    1.4161   -2.5237 C   0  0  0  0  0  0  0  0  0  0  0  0
   -3.1091    1.9223   -3.5723 N   0  0  0  0  0  0  0  0  0  0  0  0
   -2.1616    1.7671   -4.8715 S   0  0  0  0  0  0  0  0  0  0  0  0
   -0.9035    1.0499   -4.1536 N   0  0  0  0  0  0  0  0  0  0  0  0
   -1.1763    0.9066   -2.8660 C   0  0  0  0  0  0  0  0  0  0  0  0
   -2.1395    0.6666   -0.2102 C   0  0  0  0  0  0  0  0  0  0  0  0
   -0.8003    0.3573   -0.5032 C   0  0  0  0  0  0  0  0  0  0  0  0
   -0.3456    0.3944   -1.8431 C   0  0  0  0  0  0  0  0  0  0  0  0
    0.9826   -0.0616   -1.8132 C   0  0  0  0  0  0  0  0  0  0  0  0
    2.2452   -0.3486   -2.9560 S   0  0  0  0  0  0  0  0  0  0  0  0
    1.3184   -0.3245   -0.4726 C   0  0  0  0  0  0  0  0  0  0  0  0
    0.2280   -0.0493    0.3356 N   0  0  0  0  0  0  0  0  0  0  0  0
    0.3734    0.4899    1.6763 C   0  0  0  0  0  0  0  0  0  0  0  0
    1.3527    1.6630    1.7036 C   0  0  0  0  0  0  0  0  0  0  0  0
    2.6313   -0.8058   -0.3629 C   0  0  0  0  0  0  0  0  0  0  0  0
    3.2564   -0.8567   -1.6352 C   0  0  0  0  0  0  0  0  0  0  0  0
    4.5446   -1.3494   -1.4455 C   0  0  0  0  0  0  0  0  0  0  0  0
    5.9717   -1.7362   -2.3203 S   0  0  0  0  0  0  0  0  0  0  0  0
    4.6692   -1.6037   -0.0531 C   0  0  0  0  0  0  0  0  0  0  0  0
    3.5109   -1.2526    0.5978 N   0  0  0  0  0  0  0  0  0  0  0  0
    3.2233   -1.5834    1.9713 C   0  0  0  0  0  0  0  0  0  0  0  0
    2.2755   -2.7769    2.0742 C   0  0  0  0  0  0  0  0  0  0  0  0
    5.9031   -2.1151    0.2923 C   0  0  0  0  0  0  0  0  0  0  0  0
    6.7457   -2.2545   -0.8195 C   0  0  0  0  0  0  0  0  0  0  0  0
    8.0440   -2.7541   -0.6812 C   0  0  0  0  0  0  0  0  0  0  0  0
    9.0353   -2.9582   -1.6127 C   0  0  0  0  0  0  0  0  0  0  0  0
   10.3559   -3.4823   -1.3364 C   0  0  0  0  0  0  0  0  0  0  0  0
   11.0902   -3.5076   -2.6035 C   0  0  0  0  0  0  0  0  0  0  0  0
   12.3827   -3.9047   -2.9072 C   0  0  0  0  0  0  0  0  0  0  0  0
   12.8014   -3.8071   -4.2263 C   0  0  0  0  0  0  0  0  0  0  0  0
   14.0465   -4.1847   -4.5387 F   0  0  0  0  0  0  0  0  0  0  0  0
   11.9605   -3.3266   -5.2297 C   0  0  0  0  0  0  0  0  0  0  0  0
   10.6663   -2.9284   -4.9346 C   0  0  0  0  0  0  0  0  0  0  0  0
   10.2512   -3.0256   -3.6219 C   0  0  0  0  0  0  0  0  0  0  0  0
   12.4077   -3.2491   -6.4891 F   0  0  0  0  0  0  0  0  0  0  0  0
   10.8605   -3.8923   -0.1283 C   0  0  0  0  0  0  0  0  0  0  0  0
   10.1712   -3.8828    1.1019 C   0  0  0  0  0  0  0  0  0  0  0  0
    9.6853   -3.9107    2.1432 N   0  0  0  0  0  0  0  0  0  0  0  0
   12.1668   -4.3933    0.0549 C   0  0  0  0  0  0  0  0  0  0  0  0
   13.2143   -4.8071    0.2754 N   0  0  0  0  0  0  0  0  0  0  0  0
    8.9365   -2.6697   -3.0452 C   0  0  0  0  0  0  0  0  0  0  0  0
    7.9818   -2.2287   -3.6566 O   0  0  0  0  0  0  0  0  0  0  0  0
  -10.0960    3.1154    2.6105 C   0  0  0  0  0  0  0  0  0  0  0  0
  -11.3328    3.4670    3.1913 C   0  0  0  0  0  0  0  0  0  0  0  0
  -12.3129    3.7254    3.7302 N   0  0  0  0  0  0  0  0  0  0  0  0
   -9.2439    2.5712    3.5930 C   0  0  0  0  0  0  0  0  0  0  0  0
   -8.6168    2.1427    4.4561 N   0  0  0  0  0  0  0  0  0  0  0  0
  -13.8441    5.3250   -0.6669 F   0  0  0  0  0  0  0  0  0  0  0  0
  -10.1006    4.4729   -3.0251 H   0  0  0  0  0  0  0  0  0  0  0  0
  -12.5515    4.3412    1.3136 H   0  0  0  0  0  0  0  0  0  0  0  0
   -7.6043    2.1160    2.2485 H   0  0  0  0  0  0  0  0  0  0  0  0
   -4.4498    0.9737    3.4306 H   0  0  0  0  0  0  0  0  0  0  0  0
   -5.9566    1.8701    3.4383 H   0  0  0  0  0  0  0  0  0  0  0  0
   -7.1824   -0.2047    2.7037 H   0  0  0  0  0  0  0  0  0  0  0  0
   -6.3843   -0.3769    4.2636 H   0  0  0  0  0  0  0  0  0  0  0  0
   -5.6756   -1.1115    2.8226 H   0  0  0  0  0  0  0  0  0  0  0  0
   -3.1724   -0.5506    2.7324 H   0  0  0  0  0  0  0  0  0  0  0  0
   -1.6805   -0.9622    1.8716 H   0  0  0  0  0  0  0  0  0  0  0  0
   -4.4757   -1.6490    0.8595 H   0  0  0  0  0  0  0  0  0  0  0  0
   -3.3720   -2.7746    1.6615 H   0  0  0  0  0  0  0  0  0  0  0  0
   -2.9501   -2.0834    0.0901 H   0  0  0  0  0  0  0  0  0  0  0  0
    0.7005   -0.3004    2.3579 H   0  0  0  0  0  0  0  0  0  0  0  0
   -0.6015    0.8530    2.0016 H   0  0  0  0  0  0  0  0  0  0  0  0
    0.9991    2.4565    1.0490 H   0  0  0  0  0  0  0  0  0  0  0  0
    2.3427    1.3624    1.3701 H   0  0  0  0  0  0  0  0  0  0  0  0
    1.4272    2.0548    2.7145 H   0  0  0  0  0  0  0  0  0  0  0  0
    4.1735   -1.8212    2.4528 H   0  0  0  0  0  0  0  0  0  0  0  0
    2.8004   -0.7113    2.4770 H   0  0  0  0  0  0  0  0  0  0  0  0
    2.0595   -2.9937    3.1169 H   0  0  0  0  0  0  0  0  0  0  0  0
    1.3419   -2.5714    1.5550 H   0  0  0  0  0  0  0  0  0  0  0  0
    2.7299   -3.6556    1.6231 H   0  0  0  0  0  0  0  0  0  0  0  0
    6.2236   -2.3872    1.2821 H   0  0  0  0  0  0  0  0  0  0  0  0
    8.2885   -3.0122    0.3420 H   0  0  0  0  0  0  0  0  0  0  0  0
   13.0729   -4.2827   -2.1714 H   0  0  0  0  0  0  0  0  0  0  0  0
   10.0115   -2.5561   -5.7062 H   0  0  0  0  0  0  0  0  0  0  0  0
  1  2  2  0  0  0  0
  2  3  1  0  0  0  0
  3  4  2  0  0  0  0
  4  5  1  0  0  0  0
  5  6  1  0  0  0  0
  5  7  2  0  0  0  0
  7  8  1  0  0  0  0
  8  9  2  0  0  0  0
  3  9  1  0  0  0  0
  9 10  1  0  0  0  0
 10 11  1  0  0  0  0
  2 11  1  0  0  0  0
 11 12  2  0  0  0  0
 12 13  1  0  0  0  0
 13 14  1  0  0  0  0
 13 15  2  0  0  0  0
 15 16  1  0  0  0  0
 16 17  1  0  0  0  0
 15 18  1  0  0  0  0
 18 19  1  0  0  0  0
 19 20  1  0  0  0  0
 20 21  1  0  0  0  0
 18 22  2  0  0  0  0
 14 22  1  0  0  0  0
 22 23  1  0  0  0  0
 23 24  1  0  0  0  0
 24 25  2  0  0  0  0
 25 26  1  0  0  0  0
 26 27  1  0  0  0  0
 27 28  2  0  0  0  0
 24 28  1  0  0  0  0
 23 29  2  0  0  0  0
 19 29  1  0  0  0  0
 29 30  1  0  0  0  0
 30 31  2  0  0  0  0
 28 31  1  0  0  0  0
 31 32  1  0  0  0  0
 32 33  1  0  0  0  0
 32 34  2  0  0  0  0
 34 35  1  0  0  0  0
 30 35  1  0  0  0  0
 35 36  1  0  0  0  0
 36 37  1  0  0  0  0
 34 38  1  0  0  0  0
 38 39  2  0  0  0  0
 33 39  1  0  0  0  0
 39 40  1  0  0  0  0
 40 41  1  0  0  0  0
 40 42  2  0  0  0  0
 42 43  1  0  0  0  0
 38 43  1  0  0  0  0
 43 44  1  0  0  0  0
 44 45  1  0  0  0  0
 42 46  1  0  0  0  0
 46 47  2  0  0  0  0
 41 47  1  0  0  0  0
 47 48  1  0  0  0  0
 48 49  2  0  0  0  0
 49 50  1  0  0  0  0
 50 51  1  0  0  0  0
 51 52  2  0  0  0  0
 52 53  1  0  0  0  0
 53 54  1  0  0  0  0
 53 55  2  0  0  0  0
 55 56  1  0  0  0  0
 56 57  2  0  0  0  0
 51 57  1  0  0  0  0
 55 58  1  0  0  0  0
 50 59  2  0  0  0  0
 59 60  1  0  0  0  0
 60 61  3  0  0  0  0
 59 62  1  0  0  0  0
 62 63  3  0  0  0  0
 49 64  1  0  0  0  0
 57 64  1  0  0  0  0
 64 65  2  0  0  0  0
 10 66  2  0  0  0  0
 66 67  1  0  0  0  0
 67 68  3  0  0  0  0
 66 69  1  0  0  0  0
 69 70  3  0  0  0  0
  7 71  1  0  0  0  0
  4 72  1  0  0  0  0
  8 73  1  0  0  0  0
 12 74  1  0  0  0  0
 16 75  1  0  0  0  0
 16 76  1  0  0  0  0
 17 77  1  0  0  0  0
 17 78  1  0  0  0  0
 17 79  1  0  0  0  0
 20 80  1  0  0  0  0
 20 81  1  0  0  0  0
 21 82  1  0  0  0  0
 21 83  1  0  0  0  0
 21 84  1  0  0  0  0
 36 85  1  0  0  0  0
 36 86  1  0  0  0  0
 37 87  1  0  0  0  0
 37 88  1  0  0  0  0
 37 89  1  0  0  0  0
 44 90  1  0  0  0  0
 44 91  1  0  0  0  0
 45 92  1  0  0  0  0
 45 93  1  0  0  0  0
 45 94  1  0  0  0  0
 46 95  1  0  0  0  0
 48 96  1  0  0  0  0
 52 97  1  0  0  0  0
 56 98  1  0  0  0  0
M  END
