BN-2F.mol
  xtb     01102216233D
 energy: -224.676459890421 gnorm: 0.000645838025 xtb: 6.4.1 (unknown)
132144  0     0  0            999 V2000
   -7.4172   -4.1344   -6.5357 O   0  0  0  0  0  0  0  0  0  0  0  0
   -8.5622   -4.1343   -6.1265 C   0  0  0  0  0  0  0  0  0  0  0  0
   -9.7679   -3.9850   -6.9654 C   0  0  0  0  0  0  0  0  0  0  0  0
   -9.8432   -3.7551   -8.3081 C   0  0  0  0  0  0  0  0  0  0  0  0
  -11.1128   -3.6129   -8.9115 C   0  0  0  0  0  0  0  0  0  0  0  0
  -11.2497   -3.3636  -10.2921 C   0  0  0  0  0  0  0  0  0  0  0  0
  -12.4836   -3.2178  -10.8628 C   0  0  0  0  0  0  0  0  0  0  0  0
  -13.6214   -3.3221  -10.0518 C   0  0  0  0  0  0  0  0  0  0  0  0
  -14.8279   -3.1748  -10.6314 F   0  0  0  0  0  0  0  0  0  0  0  0
  -13.5451   -3.5642   -8.7085 C   0  0  0  0  0  0  0  0  0  0  0  0
  -12.2822   -3.7159   -8.1037 C   0  0  0  0  0  0  0  0  0  0  0  0
  -12.1712   -3.9628   -6.7149 C   0  0  0  0  0  0  0  0  0  0  0  0
  -10.9299   -4.0961   -6.1537 C   0  0  0  0  0  0  0  0  0  0  0  0
  -10.5021   -4.3359   -4.7789 C   0  0  0  0  0  0  0  0  0  0  0  0
  -11.3341   -4.6701   -3.7400 C   0  0  0  0  0  0  0  0  0  0  0  0
  -10.9162   -5.0234   -2.4401 C   0  0  0  0  0  0  0  0  0  0  0  0
  -10.6577   -5.3425   -1.3670 N   0  0  0  0  0  0  0  0  0  0  0  0
  -12.7363   -4.7597   -3.8543 C   0  0  0  0  0  0  0  0  0  0  0  0
  -13.8810   -4.8464   -3.8827 N   0  0  0  0  0  0  0  0  0  0  0  0
   -9.0559   -4.2441   -4.7386 C   0  0  0  0  0  0  0  0  0  0  0  0
   -8.3441   -4.0954   -3.5717 C   0  0  0  0  0  0  0  0  0  0  0  0
   -6.9650   -4.0090   -3.3447 C   0  0  0  0  0  0  0  0  0  0  0  0
   -5.8581   -4.2834   -4.1492 C   0  0  0  0  0  0  0  0  0  0  0  0
   -4.6642   -4.0301   -3.5092 C   0  0  0  0  0  0  0  0  0  0  0  0
   -3.1964   -4.1192   -3.8609 C   0  0  0  0  0  0  0  0  0  0  0  0
   -2.8520   -3.2946   -5.1105 C   0  0  0  0  0  0  0  0  0  0  0  0
   -3.3117   -1.8453   -5.0039 C   0  0  0  0  0  0  0  0  0  0  0  0
   -2.8349   -5.6106   -4.0423 C   0  0  0  0  0  0  0  0  0  0  0  0
   -1.3464   -5.8914   -4.2009 C   0  0  0  0  0  0  0  0  0  0  0  0
   -4.8304   -3.5591   -2.1964 C   0  0  0  0  0  0  0  0  0  0  0  0
   -6.4693   -3.4593   -1.7357 S   0  0  0  0  0  0  0  0  0  0  0  0
   -3.5625   -3.2582   -1.6606 C   0  0  0  0  0  0  0  0  0  0  0  0
   -2.5801   -3.5428   -2.6096 C   0  0  0  0  0  0  0  0  0  0  0  0
   -1.3066   -3.1772   -2.1889 C   0  0  0  0  0  0  0  0  0  0  0  0
   -1.2985   -2.6152   -0.9252 C   0  0  0  0  0  0  0  0  0  0  0  0
   -0.1980   -2.0448   -0.1948 C   0  0  0  0  0  0  0  0  0  0  0  0
    1.1555   -2.2785   -0.5378 C   0  0  0  0  0  0  0  0  0  0  0  0
    1.3999   -3.1659   -1.5373 O   0  0  0  0  0  0  0  0  0  0  0  0
    2.7326   -3.5278   -1.8467 C   0  0  0  0  0  0  0  0  0  0  0  0
    2.6724   -4.6103   -2.9139 C   0  0  0  0  0  0  0  0  0  0  0  0
    2.1504   -1.6048    0.1455 C   0  0  0  0  0  0  0  0  0  0  0  0
    1.8774   -0.6984    1.1762 C   0  0  0  0  0  0  0  0  0  0  0  0
    0.5292   -0.5263    1.5667 C   0  0  0  0  0  0  0  0  0  0  0  0
    0.3213    0.3022    2.6196 O   0  0  0  0  0  0  0  0  0  0  0  0
   -0.9841    0.7092    2.9842 C   0  0  0  0  0  0  0  0  0  0  0  0
   -1.5675    1.7339    2.0181 C   0  0  0  0  0  0  0  0  0  0  0  0
   -0.4651   -1.1922    0.8799 C   0  0  0  0  0  0  0  0  0  0  0  0
    2.9248    0.0785    1.7778 C   0  0  0  0  0  0  0  0  0  0  0  0
    2.5452    1.3792    2.8807 S   0  0  0  0  0  0  0  0  0  0  0  0
    4.2894   -0.0022    1.5287 C   0  0  0  0  0  0  0  0  0  0  0  0
    5.0135    0.9762    2.1925 C   0  0  0  0  0  0  0  0  0  0  0  0
    4.2020    1.8199    2.9524 C   0  0  0  0  0  0  0  0  0  0  0  0
    4.9996    2.8108    3.5590 C   0  0  0  0  0  0  0  0  0  0  0  0
    4.7721    4.1544    4.5875 S   0  0  0  0  0  0  0  0  0  0  0  0
    6.5059    4.4614    4.5571 C   0  0  0  0  0  0  0  0  0  0  0  0
    7.1815    5.5052    5.1896 C   0  0  0  0  0  0  0  0  0  0  0  0
    6.7073    6.5472    5.9566 C   0  0  0  0  0  0  0  0  0  0  0  0
    7.5088    7.6040    6.5323 C   0  0  0  0  0  0  0  0  0  0  0  0
    8.8688    7.7733    6.4348 C   0  0  0  0  0  0  0  0  0  0  0  0
    9.7597    6.9315    5.7399 C   0  0  0  0  0  0  0  0  0  0  0  0
   10.5541    6.3014    5.1980 N   0  0  0  0  0  0  0  0  0  0  0  0
    9.5763    8.8397    7.0257 C   0  0  0  0  0  0  0  0  0  0  0  0
   10.2150    9.6807    7.4775 N   0  0  0  0  0  0  0  0  0  0  0  0
    6.6048    8.5023    7.2509 C   0  0  0  0  0  0  0  0  0  0  0  0
    5.2779    8.0055    7.1177 C   0  0  0  0  0  0  0  0  0  0  0  0
    4.2067    8.6362    7.6788 C   0  0  0  0  0  0  0  0  0  0  0  0
    4.4168    9.8228    8.4169 C   0  0  0  0  0  0  0  0  0  0  0  0
    5.7416   10.3276    8.5571 C   0  0  0  0  0  0  0  0  0  0  0  0
    5.9467   11.5105    9.2931 C   0  0  0  0  0  0  0  0  0  0  0  0
    4.8744   12.1465    9.8544 C   0  0  0  0  0  0  0  0  0  0  0  0
    3.5646   11.6661    9.7275 C   0  0  0  0  0  0  0  0  0  0  0  0
    3.3478   10.5184    9.0164 C   0  0  0  0  0  0  0  0  0  0  0  0
    5.0688   13.2781   10.5581 F   0  0  0  0  0  0  0  0  0  0  0  0
    6.8324    9.6487    7.9631 C   0  0  0  0  0  0  0  0  0  0  0  0
    5.3057    6.7733    6.3110 C   0  0  0  0  0  0  0  0  0  0  0  0
    4.3401    6.0897    6.0112 O   0  0  0  0  0  0  0  0  0  0  0  0
    7.1837    3.5139    3.7656 C   0  0  0  0  0  0  0  0  0  0  0  0
    6.3426    2.5974    3.1869 C   0  0  0  0  0  0  0  0  0  0  0  0
    6.4612    1.4090    2.2596 C   0  0  0  0  0  0  0  0  0  0  0  0
    7.3670    0.3133    2.8431 C   0  0  0  0  0  0  0  0  0  0  0  0
    6.8598   -0.2150    4.1799 C   0  0  0  0  0  0  0  0  0  0  0  0
    6.9021    1.8219    0.8383 C   0  0  0  0  0  0  0  0  0  0  0  0
    8.2866    2.4484    0.7449 C   0  0  0  0  0  0  0  0  0  0  0  0
   -2.9137   -2.5529   -0.2380 S   0  0  0  0  0  0  0  0  0  0  0  0
   -8.9450   -3.6769   -8.9022 H   0  0  0  0  0  0  0  0  0  0  0  0
  -10.3579   -3.2869  -10.8959 H   0  0  0  0  0  0  0  0  0  0  0  0
  -12.6056   -3.0245  -11.9168 H   0  0  0  0  0  0  0  0  0  0  0  0
  -14.4428   -3.6392   -8.1149 H   0  0  0  0  0  0  0  0  0  0  0  0
  -13.0745   -4.0292   -6.1301 H   0  0  0  0  0  0  0  0  0  0  0  0
   -8.9358   -3.9706   -2.6714 H   0  0  0  0  0  0  0  0  0  0  0  0
   -5.9621   -4.6313   -5.1596 H   0  0  0  0  0  0  0  0  0  0  0  0
   -3.3274   -3.7617   -5.9748 H   0  0  0  0  0  0  0  0  0  0  0  0
   -1.7717   -3.3156   -5.2583 H   0  0  0  0  0  0  0  0  0  0  0  0
   -3.0157   -1.2953   -5.8939 H   0  0  0  0  0  0  0  0  0  0  0  0
   -4.3938   -1.7897   -4.9132 H   0  0  0  0  0  0  0  0  0  0  0  0
   -2.8660   -1.3612   -4.1373 H   0  0  0  0  0  0  0  0  0  0  0  0
   -3.3724   -5.9797   -4.9180 H   0  0  0  0  0  0  0  0  0  0  0  0
   -3.2056   -6.1559   -3.1706 H   0  0  0  0  0  0  0  0  0  0  0  0
   -0.7948   -5.5541   -3.3276 H   0  0  0  0  0  0  0  0  0  0  0  0
   -0.9430   -5.4027   -5.0835 H   0  0  0  0  0  0  0  0  0  0  0  0
   -1.1913   -6.9626   -4.3091 H   0  0  0  0  0  0  0  0  0  0  0  0
   -0.4152   -3.2707   -2.7770 H   0  0  0  0  0  0  0  0  0  0  0  0
    3.2381   -3.9078   -0.9488 H   0  0  0  0  0  0  0  0  0  0  0  0
    3.2844   -2.6555   -2.2234 H   0  0  0  0  0  0  0  0  0  0  0  0
    2.1830   -4.2298   -3.8064 H   0  0  0  0  0  0  0  0  0  0  0  0
    3.6773   -4.9312   -3.1712 H   0  0  0  0  0  0  0  0  0  0  0  0
    2.1094   -5.4637   -2.5459 H   0  0  0  0  0  0  0  0  0  0  0  0
    3.1779   -1.7550   -0.1366 H   0  0  0  0  0  0  0  0  0  0  0  0
   -1.6433   -0.1609    3.0853 H   0  0  0  0  0  0  0  0  0  0  0  0
   -0.8526    1.1603    3.9711 H   0  0  0  0  0  0  0  0  0  0  0  0
   -2.5420    2.0557    2.3736 H   0  0  0  0  0  0  0  0  0  0  0  0
   -1.6775    1.3141    1.0212 H   0  0  0  0  0  0  0  0  0  0  0  0
   -0.9097    2.5974    1.9588 H   0  0  0  0  0  0  0  0  0  0  0  0
   -1.4982   -1.0461    1.1518 H   0  0  0  0  0  0  0  0  0  0  0  0
    4.7316   -0.7475    0.8935 H   0  0  0  0  0  0  0  0  0  0  0  0
    8.2516    5.4789    5.0230 H   0  0  0  0  0  0  0  0  0  0  0  0
    3.2108    8.2362    7.5601 H   0  0  0  0  0  0  0  0  0  0  0  0
    6.9420   11.9098    9.4114 H   0  0  0  0  0  0  0  0  0  0  0  0
    2.7578   12.2105   10.1923 H   0  0  0  0  0  0  0  0  0  0  0  0
    2.3473   10.1280    8.9042 H   0  0  0  0  0  0  0  0  0  0  0  0
    7.8210   10.0593    8.0893 H   0  0  0  0  0  0  0  0  0  0  0  0
    8.2537    3.5438    3.6587 H   0  0  0  0  0  0  0  0  0  0  0  0
    7.4279   -0.5079    2.1257 H   0  0  0  0  0  0  0  0  0  0  0  0
    8.3686    0.7219    2.9798 H   0  0  0  0  0  0  0  0  0  0  0  0
    7.5384   -0.9736    4.5626 H   0  0  0  0  0  0  0  0  0  0  0  0
    6.7960    0.5883    4.9103 H   0  0  0  0  0  0  0  0  0  0  0  0
    5.8729   -0.6590    4.0720 H   0  0  0  0  0  0  0  0  0  0  0  0
    6.8653    0.9310    0.2071 H   0  0  0  0  0  0  0  0  0  0  0  0
    6.1663    2.5319    0.4520 H   0  0  0  0  0  0  0  0  0  0  0  0
    8.3339    3.3696    1.3180 H   0  0  0  0  0  0  0  0  0  0  0  0
    8.5057    2.6855   -0.2939 H   0  0  0  0  0  0  0  0  0  0  0  0
    9.0549    1.7696    1.1044 H   0  0  0  0  0  0  0  0  0  0  0  0
  1  2  2  0  0  0  0
  2  3  1  0  0  0  0
  3  4  2  0  0  0  0
  4  5  1  0  0  0  0
  5  6  2  0  0  0  0
  6  7  1  0  0  0  0
  7  8  2  0  0  0  0
  8  9  1  0  0  0  0
  8 10  1  0  0  0  0
 10 11  2  0  0  0  0
  5 11  1  0  0  0  0
 11 12  1  0  0  0  0
 12 13  2  0  0  0  0
  3 13  1  0  0  0  0
 13 14  1  0  0  0  0
 14 15  2  0  0  0  0
 15 16  1  0  0  0  0
 16 17  3  0  0  0  0
 15 18  1  0  0  0  0
 18 19  3  0  0  0  0
  2 20  1  0  0  0  0
 14 20  1  0  0  0  0
 20 21  2  0  0  0  0
 21 22  1  0  0  0  0
 22 23  2  0  0  0  0
 23 24  1  0  0  0  0
 24 25  1  0  0  0  0
 25 26  1  0  0  0  0
 26 27  1  0  0  0  0
 25 28  1  0  0  0  0
 28 29  1  0  0  0  0
 24 30  2  0  0  0  0
 30 31  1  0  0  0  0
 22 31  1  0  0  0  0
 30 32  1  0  0  0  0
 32 33  2  0  0  0  0
 25 33  1  0  0  0  0
 33 34  1  0  0  0  0
 34 35  2  0  0  0  0
 35 36  1  0  0  0  0
 36 37  2  0  0  0  0
 37 38  1  0  0  0  0
 38 39  1  0  0  0  0
 39 40  1  0  0  0  0
 37 41  1  0  0  0  0
 41 42  2  0  0  0  0
 42 43  1  0  0  0  0
 43 44  1  0  0  0  0
 44 45  1  0  0  0  0
 45 46  1  0  0  0  0
 43 47  2  0  0  0  0
 36 47  1  0  0  0  0
 42 48  1  0  0  0  0
 48 49  1  0  0  0  0
 48 50  2  0  0  0  0
 50 51  1  0  0  0  0
 51 52  2  0  0  0  0
 49 52  1  0  0  0  0
 52 53  1  0  0  0  0
 53 54  1  0  0  0  0
 54 55  1  0  0  0  0
 55 56  1  0  0  0  0
 56 57  2  0  0  0  0
 57 58  1  0  0  0  0
 58 59  2  0  0  0  0
 59 60  1  0  0  0  0
 60 61  3  0  0  0  0
 59 62  1  0  0  0  0
 62 63  3  0  0  0  0
 58 64  1  0  0  0  0
 64 65  2  0  0  0  0
 65 66  1  0  0  0  0
 66 67  2  0  0  0  0
 67 68  1  0  0  0  0
 68 69  1  0  0  0  0
 69 70  2  0  0  0  0
 70 71  1  0  0  0  0
 71 72  2  0  0  0  0
 67 72  1  0  0  0  0
 70 73  1  0  0  0  0
 68 74  2  0  0  0  0
 64 74  1  0  0  0  0
 65 75  1  0  0  0  0
 57 75  1  0  0  0  0
 75 76  2  0  0  0  0
 55 77  2  0  0  0  0
 53 78  2  0  0  0  0
 77 78  1  0  0  0  0
 78 79  1  0  0  0  0
 51 79  1  0  0  0  0
 79 80  1  0  0  0  0
 80 81  1  0  0  0  0
 79 82  1  0  0  0  0
 82 83  1  0  0  0  0
 35 84  1  0  0  0  0
 32 84  1  0  0  0  0
  4 85  1  0  0  0  0
  6 86  1  0  0  0  0
  7 87  1  0  0  0  0
 10 88  1  0  0  0  0
 12 89  1  0  0  0  0
 21 90  1  0  0  0  0
 23 91  1  0  0  0  0
 26 92  1  0  0  0  0
 26 93  1  0  0  0  0
 27 94  1  0  0  0  0
 27 95  1  0  0  0  0
 27 96  1  0  0  0  0
 28 97  1  0  0  0  0
 28 98  1  0  0  0  0
 29 99  1  0  0  0  0
 29100  1  0  0  0  0
 29101  1  0  0  0  0
 34102  1  0  0  0  0
 39103  1  0  0  0  0
 39104  1  0  0  0  0
 40105  1  0  0  0  0
 40106  1  0  0  0  0
 40107  1  0  0  0  0
 41108  1  0  0  0  0
 45109  1  0  0  0  0
 45110  1  0  0  0  0
 46111  1  0  0  0  0
 46112  1  0  0  0  0
 46113  1  0  0  0  0
 47114  1  0  0  0  0
 50115  1  0  0  0  0
 56116  1  0  0  0  0
 66117  1  0  0  0  0
 69118  1  0  0  0  0
 71119  1  0  0  0  0
 72120  1  0  0  0  0
 74121  1  0  0  0  0
 77122  1  0  0  0  0
 80123  1  0  0  0  0
 80124  1  0  0  0  0
 81125  1  0  0  0  0
 81126  1  0  0  0  0
 81127  1  0  0  0  0
 82128  1  0  0  0  0
 82129  1  0  0  0  0
 83130  1  0  0  0  0
 83131  1  0  0  0  0
 83132  1  0  0  0  0
M  END
