BT3.mol
  xtb     01102217263D
 energy: -252.394073892020 gnorm: 0.000510240335 xtb: 6.4.1 (unknown)
152166  0     0  0            999 V2000
    6.1227    0.1035    9.9490 O   0  0  0  0  0  0  0  0  0  0  0  0
    6.1977   -0.9272   10.5858 C   0  0  0  0  0  0  0  0  0  0  0  0
    7.0153   -1.0204   11.7076 N   0  0  0  0  0  0  0  0  0  0  0  0
    7.8281    0.1262   12.0709 C   0  0  0  0  0  0  0  0  0  0  0  0
    9.2418    0.0087   11.5140 C   0  0  0  0  0  0  0  0  0  0  0  0
    7.0271   -2.2115   12.3595 C   0  0  0  0  0  0  0  0  0  0  0  0
    7.7335   -2.5653   13.4825 C   0  0  0  0  0  0  0  0  0  0  0  0
    8.6316   -1.7601   14.2025 C   0  0  0  0  0  0  0  0  0  0  0  0
    9.3822   -1.1644   14.8365 N   0  0  0  0  0  0  0  0  0  0  0  0
    7.5842   -3.8646   14.0114 C   0  0  0  0  0  0  0  0  0  0  0  0
    7.4733   -4.9178   14.4521 N   0  0  0  0  0  0  0  0  0  0  0  0
    5.5023   -2.1864   10.3471 C   0  0  0  0  0  0  0  0  0  0  0  0
    5.9590   -3.3554   11.5893 S   0  0  0  0  0  0  0  0  0  0  0  0
    4.6283   -2.5975    9.3873 C   0  0  0  0  0  0  0  0  0  0  0  0
    4.0536   -1.9634    8.2495 C   0  0  0  0  0  0  0  0  0  0  0  0
    3.1867   -2.7566    7.4419 C   0  0  0  0  0  0  0  0  0  0  0  0
    2.8472   -4.0278    7.6416 N   0  0  0  0  0  0  0  0  0  0  0  0
    1.8536   -4.4987    6.4669 S   0  0  0  0  0  0  0  0  0  0  0  0
    1.8050   -3.1164    5.6463 N   0  0  0  0  0  0  0  0  0  0  0  0
    2.5701   -2.2201    6.2626 C   0  0  0  0  0  0  0  0  0  0  0  0
    4.2408   -0.6497    7.8207 C   0  0  0  0  0  0  0  0  0  0  0  0
    3.6396   -0.1337    6.6813 C   0  0  0  0  0  0  0  0  0  0  0  0
    2.7959   -0.8772    5.8570 C   0  0  0  0  0  0  0  0  0  0  0  0
    2.1991   -0.3603    4.6707 C   0  0  0  0  0  0  0  0  0  0  0  0
    2.3092    0.9243    4.1537 C   0  0  0  0  0  0  0  0  0  0  0  0
    1.6182    1.0685    2.9604 C   0  0  0  0  0  0  0  0  0  0  0  0
    0.9845   -0.0990    2.5532 C   0  0  0  0  0  0  0  0  0  0  0  0
    1.2167   -1.3936    3.6531 S   0  0  0  0  0  0  0  0  0  0  0  0
    0.3339    0.0945    1.2965 C   0  0  0  0  0  0  0  0  0  0  0  0
    0.5934    1.4270    0.8946 C   0  0  0  0  0  0  0  0  0  0  0  0
    1.4195    2.1597    1.9395 C   0  0  0  0  0  0  0  0  0  0  0  0
    2.7887    2.5959    1.4530 C   0  0  0  0  0  0  0  0  0  0  0  0
    3.3601    2.0701    0.3038 C   0  0  0  0  0  0  0  0  0  0  0  0
    4.6306    2.4560   -0.0852 C   0  0  0  0  0  0  0  0  0  0  0  0
    5.3657    3.3615    0.6667 C   0  0  0  0  0  0  0  0  0  0  0  0
    6.7230    3.8175    0.2156 C   0  0  0  0  0  0  0  0  0  0  0  0
    6.6037    5.0829   -0.6364 C   0  0  0  0  0  0  0  0  0  0  0  0
    4.7947    3.8726    1.8258 C   0  0  0  0  0  0  0  0  0  0  0  0
    3.5260    3.4931    2.2171 C   0  0  0  0  0  0  0  0  0  0  0  0
    0.6018    3.3325    2.4487 C   0  0  0  0  0  0  0  0  0  0  0  0
   -0.2388    3.2006    3.5451 C   0  0  0  0  0  0  0  0  0  0  0  0
   -1.0042    4.2690    3.9747 C   0  0  0  0  0  0  0  0  0  0  0  0
   -0.9590    5.4909    3.3172 C   0  0  0  0  0  0  0  0  0  0  0  0
   -1.7499    6.6633    3.8215 C   0  0  0  0  0  0  0  0  0  0  0  0
   -0.9618    7.4147    4.8966 C   0  0  0  0  0  0  0  0  0  0  0  0
   -0.1268    5.6136    2.2121 C   0  0  0  0  0  0  0  0  0  0  0  0
    0.6406    4.5492    1.7792 C   0  0  0  0  0  0  0  0  0  0  0  0
    0.1204    1.9086   -0.3029 C   0  0  0  0  0  0  0  0  0  0  0  0
   -0.6071    1.0286   -1.1007 C   0  0  0  0  0  0  0  0  0  0  0  0
   -0.8852   -0.2972   -0.6898 C   0  0  0  0  0  0  0  0  0  0  0  0
   -1.6853   -1.0375   -1.7503 C   0  0  0  0  0  0  0  0  0  0  0  0
   -1.7586    0.0094   -2.8335 C   0  0  0  0  0  0  0  0  0  0  0  0
   -1.1602    1.1884   -2.4072 C   0  0  0  0  0  0  0  0  0  0  0  0
   -1.2238    2.4279   -3.5891 S   0  0  0  0  0  0  0  0  0  0  0  0
   -2.0533    1.3446   -4.6871 C   0  0  0  0  0  0  0  0  0  0  0  0
   -2.3812    1.7784   -6.0050 C   0  0  0  0  0  0  0  0  0  0  0  0
   -2.9532    0.9493   -6.9689 C   0  0  0  0  0  0  0  0  0  0  0  0
   -3.2198    1.3688   -8.2648 C   0  0  0  0  0  0  0  0  0  0  0  0
   -2.9498    2.6581   -8.7194 C   0  0  0  0  0  0  0  0  0  0  0  0
   -3.1663    3.1425  -10.0407 C   0  0  0  0  0  0  0  0  0  0  0  0
   -3.5551    2.4803  -11.1568 C   0  0  0  0  0  0  0  0  0  0  0  0
   -3.6863    3.1713  -12.4393 C   0  0  0  0  0  0  0  0  0  0  0  0
   -4.0491    2.2812  -13.4453 N   0  0  0  0  0  0  0  0  0  0  0  0
   -4.1715    2.7758  -14.8044 C   0  0  0  0  0  0  0  0  0  0  0  0
   -2.8883    2.5567  -15.5967 C   0  0  0  0  0  0  0  0  0  0  0  0
   -4.2034    0.9876  -13.0695 C   0  0  0  0  0  0  0  0  0  0  0  0
   -3.9208    0.7793  -11.3515 S   0  0  0  0  0  0  0  0  0  0  0  0
   -4.5473   -0.0964  -13.8365 C   0  0  0  0  0  0  0  0  0  0  0  0
   -4.7990   -0.1013  -15.2189 C   0  0  0  0  0  0  0  0  0  0  0  0
   -5.0114   -0.1769  -16.3452 N   0  0  0  0  0  0  0  0  0  0  0  0
   -4.6667   -1.3613  -13.2235 C   0  0  0  0  0  0  0  0  0  0  0  0
   -4.7610   -2.3920  -12.7287 N   0  0  0  0  0  0  0  0  0  0  0  0
   -3.5143    4.3519  -12.6356 O   0  0  0  0  0  0  0  0  0  0  0  0
   -2.3949    3.5471   -7.7576 C   0  0  0  0  0  0  0  0  0  0  0  0
   -2.0633    4.8224   -7.9430 N   0  0  0  0  0  0  0  0  0  0  0  0
   -1.4559    5.4110   -6.5764 S   0  0  0  0  0  0  0  0  0  0  0  0
   -1.5786    4.0798   -5.6820 N   0  0  0  0  0  0  0  0  0  0  0  0
   -2.1081    3.1092   -6.4216 C   0  0  0  0  0  0  0  0  0  0  0  0
   -2.2709    0.0957   -4.1195 C   0  0  0  0  0  0  0  0  0  0  0  0
   -3.1089   -1.3527   -1.3254 C   0  0  0  0  0  0  0  0  0  0  0  0
   -3.6945   -0.7525   -0.2205 C   0  0  0  0  0  0  0  0  0  0  0  0
   -5.0078   -1.0318    0.1131 C   0  0  0  0  0  0  0  0  0  0  0  0
   -5.7695   -1.9075   -0.6477 C   0  0  0  0  0  0  0  0  0  0  0  0
   -7.2058   -2.1781   -0.3037 C   0  0  0  0  0  0  0  0  0  0  0  0
   -8.1240   -1.1806   -1.0130 C   0  0  0  0  0  0  0  0  0  0  0  0
   -5.1834   -2.4916   -1.7639 C   0  0  0  0  0  0  0  0  0  0  0  0
   -3.8725   -2.2173   -2.1010 C   0  0  0  0  0  0  0  0  0  0  0  0
   -0.9242   -2.2868   -2.1485 C   0  0  0  0  0  0  0  0  0  0  0  0
   -1.1031   -3.4677   -1.4385 C   0  0  0  0  0  0  0  0  0  0  0  0
   -0.3846   -4.6007   -1.7688 C   0  0  0  0  0  0  0  0  0  0  0  0
    0.5319   -4.5863   -2.8124 C   0  0  0  0  0  0  0  0  0  0  0  0
    1.3383   -5.8086   -3.1435 C   0  0  0  0  0  0  0  0  0  0  0  0
    2.6271   -5.8371   -2.3193 C   0  0  0  0  0  0  0  0  0  0  0  0
    0.7180   -3.4000   -3.5088 C   0  0  0  0  0  0  0  0  0  0  0  0
    0.0033   -2.2626   -3.1805 C   0  0  0  0  0  0  0  0  0  0  0  0
   -0.4144   -0.7779    0.5090 C   0  0  0  0  0  0  0  0  0  0  0  0
    7.3305    0.9958   11.6327 H   0  0  0  0  0  0  0  0  0  0  0  0
    7.8427    0.2271   13.1570 H   0  0  0  0  0  0  0  0  0  0  0  0
    9.7547   -0.8572   11.9257 H   0  0  0  0  0  0  0  0  0  0  0  0
    9.2117   -0.0769   10.4300 H   0  0  0  0  0  0  0  0  0  0  0  0
    9.8068    0.8970   11.7794 H   0  0  0  0  0  0  0  0  0  0  0  0
    4.2954   -3.6255    9.4913 H   0  0  0  0  0  0  0  0  0  0  0  0
    4.8844   -0.0056    8.3958 H   0  0  0  0  0  0  0  0  0  0  0  0
    3.8471    0.8924    6.4227 H   0  0  0  0  0  0  0  0  0  0  0  0
    2.8683    1.7081    4.6299 H   0  0  0  0  0  0  0  0  0  0  0  0
    2.8126    1.3565   -0.2944 H   0  0  0  0  0  0  0  0  0  0  0  0
    5.0578    2.0414   -0.9872 H   0  0  0  0  0  0  0  0  0  0  0  0
    7.3512    4.0269    1.0838 H   0  0  0  0  0  0  0  0  0  0  0  0
    7.2020    3.0317   -0.3717 H   0  0  0  0  0  0  0  0  0  0  0  0
    5.9884    4.8915   -1.5128 H   0  0  0  0  0  0  0  0  0  0  0  0
    7.5855    5.4140   -0.9665 H   0  0  0  0  0  0  0  0  0  0  0  0
    6.1417    5.8833   -0.0626 H   0  0  0  0  0  0  0  0  0  0  0  0
    5.3524    4.5739    2.4302 H   0  0  0  0  0  0  0  0  0  0  0  0
    3.0961    3.9047    3.1191 H   0  0  0  0  0  0  0  0  0  0  0  0
   -0.2949    2.2588    4.0713 H   0  0  0  0  0  0  0  0  0  0  0  0
   -1.6486    4.1499    4.8342 H   0  0  0  0  0  0  0  0  0  0  0  0
   -1.9719    7.3432    2.9966 H   0  0  0  0  0  0  0  0  0  0  0  0
   -2.6955    6.3181    4.2446 H   0  0  0  0  0  0  0  0  0  0  0  0
   -0.7424    6.7566    5.7345 H   0  0  0  0  0  0  0  0  0  0  0  0
   -1.5322    8.2650    5.2629 H   0  0  0  0  0  0  0  0  0  0  0  0
   -0.0197    7.7770    4.4909 H   0  0  0  0  0  0  0  0  0  0  0  0
   -0.0796    6.5543    1.6822 H   0  0  0  0  0  0  0  0  0  0  0  0
    1.2871    4.6691    0.9219 H   0  0  0  0  0  0  0  0  0  0  0  0
    0.3138    2.9178   -0.6315 H   0  0  0  0  0  0  0  0  0  0  0  0
   -3.1903   -0.0693   -6.7065 H   0  0  0  0  0  0  0  0  0  0  0  0
   -3.6604    0.6538   -8.9421 H   0  0  0  0  0  0  0  0  0  0  0  0
   -2.9660    4.1987  -10.1837 H   0  0  0  0  0  0  0  0  0  0  0  0
   -4.3699    3.8473  -14.7126 H   0  0  0  0  0  0  0  0  0  0  0  0
   -5.0191    2.2898  -15.2901 H   0  0  0  0  0  0  0  0  0  0  0  0
   -2.6592    1.4975  -15.6875 H   0  0  0  0  0  0  0  0  0  0  0  0
   -2.0568    3.0614  -15.1096 H   0  0  0  0  0  0  0  0  0  0  0  0
   -3.0094    2.9659  -16.5950 H   0  0  0  0  0  0  0  0  0  0  0  0
   -2.7702   -0.7070   -4.6296 H   0  0  0  0  0  0  0  0  0  0  0  0
   -3.1243   -0.0657    0.3878 H   0  0  0  0  0  0  0  0  0  0  0  0
   -5.4455   -0.5615    0.9823 H   0  0  0  0  0  0  0  0  0  0  0  0
   -7.4744   -3.1920   -0.6069 H   0  0  0  0  0  0  0  0  0  0  0  0
   -7.3498   -2.0943    0.7754 H   0  0  0  0  0  0  0  0  0  0  0  0
   -8.0068   -1.2590   -2.0915 H   0  0  0  0  0  0  0  0  0  0  0  0
   -7.8787   -0.1634   -0.7158 H   0  0  0  0  0  0  0  0  0  0  0  0
   -9.1638   -1.3754   -0.7614 H   0  0  0  0  0  0  0  0  0  0  0  0
   -5.7600   -3.1723   -2.3741 H   0  0  0  0  0  0  0  0  0  0  0  0
   -3.4303   -2.6892   -2.9667 H   0  0  0  0  0  0  0  0  0  0  0  0
   -1.8205   -3.5046   -0.6313 H   0  0  0  0  0  0  0  0  0  0  0  0
   -0.5418   -5.5125   -1.2103 H   0  0  0  0  0  0  0  0  0  0  0  0
    0.7549   -6.7063   -2.9296 H   0  0  0  0  0  0  0  0  0  0  0  0
    1.5905   -5.8099   -4.2058 H   0  0  0  0  0  0  0  0  0  0  0  0
    3.2105   -6.7238   -2.5556 H   0  0  0  0  0  0  0  0  0  0  0  0
    3.2305   -4.9570   -2.5304 H   0  0  0  0  0  0  0  0  0  0  0  0
    2.3962   -5.8454   -1.2564 H   0  0  0  0  0  0  0  0  0  0  0  0
    1.4295   -3.3649   -4.3217 H   0  0  0  0  0  0  0  0  0  0  0  0
    0.1672   -1.3508   -3.7365 H   0  0  0  0  0  0  0  0  0  0  0  0
   -0.6022   -1.7897    0.8333 H   0  0  0  0  0  0  0  0  0  0  0  0
  1  2  2  0  0  0  0
  2  3  1  0  0  0  0
  3  4  1  0  0  0  0
  4  5  1  0  0  0  0
  3  6  1  0  0  0  0
  6  7  2  0  0  0  0
  7  8  1  0  0  0  0
  8  9  3  0  0  0  0
  7 10  1  0  0  0  0
 10 11  3  0  0  0  0
  2 12  1  0  0  0  0
 12 13  1  0  0  0  0
  6 13  1  0  0  0  0
 12 14  2  0  0  0  0
 14 15  1  0  0  0  0
 15 16  1  0  0  0  0
 16 17  2  0  0  0  0
 17 18  1  0  0  0  0
 18 19  1  0  0  0  0
 19 20  2  0  0  0  0
 16 20  1  0  0  0  0
 15 21  2  0  0  0  0
 21 22  1  0  0  0  0
 22 23  2  0  0  0  0
 20 23  1  0  0  0  0
 23 24  1  0  0  0  0
 24 25  2  0  0  0  0
 25 26  1  0  0  0  0
 26 27  2  0  0  0  0
 27 28  1  0  0  0  0
 24 28  1  0  0  0  0
 27 29  1  0  0  0  0
 29 30  2  0  0  0  0
 30 31  1  0  0  0  0
 26 31  1  0  0  0  0
 31 32  1  0  0  0  0
 32 33  2  0  0  0  0
 33 34  1  0  0  0  0
 34 35  2  0  0  0  0
 35 36  1  0  0  0  0
 36 37  1  0  0  0  0
 35 38  1  0  0  0  0
 38 39  2  0  0  0  0
 32 39  1  0  0  0  0
 31 40  1  0  0  0  0
 40 41  2  0  0  0  0
 41 42  1  0  0  0  0
 42 43  2  0  0  0  0
 43 44  1  0  0  0  0
 44 45  1  0  0  0  0
 43 46  1  0  0  0  0
 46 47  2  0  0  0  0
 40 47  1  0  0  0  0
 30 48  1  0  0  0  0
 48 49  2  0  0  0  0
 49 50  1  0  0  0  0
 50 51  1  0  0  0  0
 51 52  1  0  0  0  0
 52 53  2  0  0  0  0
 49 53  1  0  0  0  0
 53 54  1  0  0  0  0
 54 55  1  0  0  0  0
 55 56  1  0  0  0  0
 56 57  2  0  0  0  0
 57 58  1  0  0  0  0
 58 59  2  0  0  0  0
 59 60  1  0  0  0  0
 60 61  2  0  0  0  0
 61 62  1  0  0  0  0
 62 63  1  0  0  0  0
 63 64  1  0  0  0  0
 64 65  1  0  0  0  0
 63 66  1  0  0  0  0
 66 67  1  0  0  0  0
 61 67  1  0  0  0  0
 66 68  2  0  0  0  0
 68 69  1  0  0  0  0
 69 70  3  0  0  0  0
 68 71  1  0  0  0  0
 71 72  3  0  0  0  0
 62 73  2  0  0  0  0
 59 74  1  0  0  0  0
 74 75  2  0  0  0  0
 75 76  1  0  0  0  0
 76 77  1  0  0  0  0
 77 78  2  0  0  0  0
 74 78  1  0  0  0  0
 56 78  1  0  0  0  0
 55 79  2  0  0  0  0
 52 79  1  0  0  0  0
 51 80  1  0  0  0  0
 80 81  2  0  0  0  0
 81 82  1  0  0  0  0
 82 83  2  0  0  0  0
 83 84  1  0  0  0  0
 84 85  1  0  0  0  0
 83 86  1  0  0  0  0
 86 87  2  0  0  0  0
 80 87  1  0  0  0  0
 51 88  1  0  0  0  0
 88 89  2  0  0  0  0
 89 90  1  0  0  0  0
 90 91  2  0  0  0  0
 91 92  1  0  0  0  0
 92 93  1  0  0  0  0
 91 94  1  0  0  0  0
 94 95  2  0  0  0  0
 88 95  1  0  0  0  0
 50 96  2  0  0  0  0
 29 96  1  0  0  0  0
  4 97  1  0  0  0  0
  4 98  1  0  0  0  0
  5 99  1  0  0  0  0
  5100  1  0  0  0  0
  5101  1  0  0  0  0
 14102  1  0  0  0  0
 21103  1  0  0  0  0
 22104  1  0  0  0  0
 25105  1  0  0  0  0
 33106  1  0  0  0  0
 34107  1  0  0  0  0
 36108  1  0  0  0  0
 36109  1  0  0  0  0
 37110  1  0  0  0  0
 37111  1  0  0  0  0
 37112  1  0  0  0  0
 38113  1  0  0  0  0
 39114  1  0  0  0  0
 41115  1  0  0  0  0
 42116  1  0  0  0  0
 44117  1  0  0  0  0
 44118  1  0  0  0  0
 45119  1  0  0  0  0
 45120  1  0  0  0  0
 45121  1  0  0  0  0
 46122  1  0  0  0  0
 47123  1  0  0  0  0
 48124  1  0  0  0  0
 57125  1  0  0  0  0
 58126  1  0  0  0  0
 60127  1  0  0  0  0
 64128  1  0  0  0  0
 64129  1  0  0  0  0
 65130  1  0  0  0  0
 65131  1  0  0  0  0
 65132  1  0  0  0  0
 79133  1  0  0  0  0
 81134  1  0  0  0  0
 82135  1  0  0  0  0
 84136  1  0  0  0  0
 84137  1  0  0  0  0
 85138  1  0  0  0  0
 85139  1  0  0  0  0
 85140  1  0  0  0  0
 86141  1  0  0  0  0
 87142  1  0  0  0  0
 89143  1  0  0  0  0
 90144  1  0  0  0  0
 92145  1  0  0  0  0
 92146  1  0  0  0  0
 93147  1  0  0  0  0
 93148  1  0  0  0  0
 93149  1  0  0  0  0
 94150  1  0  0  0  0
 95151  1  0  0  0  0
 96152  1  0  0  0  0
M  END
