BTA103.mol
  xtb     01102217323D
 energy: -294.328106282930 gnorm: 0.000315105125 xtb: 6.4.1 (unknown)
182196  0     0  0            999 V2000
   -8.9661    8.2296   -3.3325 O   0  0  0  0  0  0  0  0  0  0  0  0
   -8.6555    7.4942   -4.2440 C   0  0  0  0  0  0  0  0  0  0  0  0
   -9.4190    7.3535   -5.3951 N   0  0  0  0  0  0  0  0  0  0  0  0
  -10.6832    8.0583   -5.4950 C   0  0  0  0  0  0  0  0  0  0  0  0
  -11.8530    7.1648   -5.0996 C   0  0  0  0  0  0  0  0  0  0  0  0
   -8.9169    6.5046   -6.3239 C   0  0  0  0  0  0  0  0  0  0  0  0
   -9.4307    6.1747   -7.5552 C   0  0  0  0  0  0  0  0  0  0  0  0
  -10.6265    6.6380   -8.1251 C   0  0  0  0  0  0  0  0  0  0  0  0
  -11.5960    6.9761   -8.6417 N   0  0  0  0  0  0  0  0  0  0  0  0
   -8.7015    5.2763   -8.3597 C   0  0  0  0  0  0  0  0  0  0  0  0
   -8.0993    4.5475   -9.0111 N   0  0  0  0  0  0  0  0  0  0  0  0
   -7.4551    6.6580   -4.3036 C   0  0  0  0  0  0  0  0  0  0  0  0
   -7.3989    5.7818   -5.8141 S   0  0  0  0  0  0  0  0  0  0  0  0
   -6.5938    6.6518   -3.2555 C   0  0  0  0  0  0  0  0  0  0  0  0
   -5.3908    5.9240   -3.0533 C   0  0  0  0  0  0  0  0  0  0  0  0
   -4.8491    5.0007   -3.9727 C   0  0  0  0  0  0  0  0  0  0  0  0
   -5.2834    4.6294   -5.1791 N   0  0  0  0  0  0  0  0  0  0  0  0
   -4.4131    3.7524   -5.5954 N   0  0  0  0  0  0  0  0  0  0  0  0
   -4.5406    3.1077   -6.8723 C   0  0  0  0  0  0  0  0  0  0  0  0
   -4.5699    4.1338   -7.9972 C   0  0  0  0  0  0  0  0  0  0  0  0
   -4.6576    6.0845   -1.8641 C   0  0  0  0  0  0  0  0  0  0  0  0
   -5.0964    7.0210   -0.9458 O   0  0  0  0  0  0  0  0  0  0  0  0
   -4.5182    8.3008   -1.1266 C   0  0  0  0  0  0  0  0  0  0  0  0
   -3.5135    5.3200   -1.5693 C   0  0  0  0  0  0  0  0  0  0  0  0
   -2.8255    5.4427   -0.3971 O   0  0  0  0  0  0  0  0  0  0  0  0
   -3.5210    5.6368    0.8203 C   0  0  0  0  0  0  0  0  0  0  0  0
   -2.9730    4.3904   -2.4783 C   0  0  0  0  0  0  0  0  0  0  0  0
   -3.6563    4.2712   -3.7114 C   0  0  0  0  0  0  0  0  0  0  0  0
   -3.4293    3.4927   -4.7816 N   0  0  0  0  0  0  0  0  0  0  0  0
   -1.8629    3.5617   -2.1559 C   0  0  0  0  0  0  0  0  0  0  0  0
   -1.2666    2.6245   -2.9878 C   0  0  0  0  0  0  0  0  0  0  0  0
   -0.3136    1.8680   -2.3223 C   0  0  0  0  0  0  0  0  0  0  0  0
   -0.1611    2.2296   -0.9899 C   0  0  0  0  0  0  0  0  0  0  0  0
   -1.1820    3.5325   -0.5417 S   0  0  0  0  0  0  0  0  0  0  0  0
    0.7436    1.3429   -0.3293 C   0  0  0  0  0  0  0  0  0  0  0  0
    1.1893    0.4081   -1.2939 C   0  0  0  0  0  0  0  0  0  0  0  0
    0.6124    0.7278   -2.6644 C   0  0  0  0  0  0  0  0  0  0  0  0
    1.6417    1.2695   -3.6410 C   0  0  0  0  0  0  0  0  0  0  0  0
    2.9080    1.6636   -3.2355 C   0  0  0  0  0  0  0  0  0  0  0  0
    3.7995    2.1984   -4.1487 C   0  0  0  0  0  0  0  0  0  0  0  0
    3.4482    2.3622   -5.4810 C   0  0  0  0  0  0  0  0  0  0  0  0
    4.4341    2.9021   -6.4769 C   0  0  0  0  0  0  0  0  0  0  0  0
    5.2493    1.7637   -7.0940 C   0  0  0  0  0  0  0  0  0  0  0  0
    2.1754    1.9729   -5.8798 C   0  0  0  0  0  0  0  0  0  0  0  0
    1.2817    1.4381   -4.9731 C   0  0  0  0  0  0  0  0  0  0  0  0
   -0.0809   -0.5033   -3.2086 C   0  0  0  0  0  0  0  0  0  0  0  0
    0.6440   -1.4496   -3.9228 C   0  0  0  0  0  0  0  0  0  0  0  0
    0.0349   -2.6022   -4.3801 C   0  0  0  0  0  0  0  0  0  0  0  0
   -1.3114   -2.8423   -4.1372 C   0  0  0  0  0  0  0  0  0  0  0  0
   -1.9578   -4.1176   -4.5962 C   0  0  0  0  0  0  0  0  0  0  0  0
   -1.7880   -5.2107   -3.5391 C   0  0  0  0  0  0  0  0  0  0  0  0
   -2.0294   -1.8978   -3.4168 C   0  0  0  0  0  0  0  0  0  0  0  0
   -1.4234   -0.7441   -2.9539 C   0  0  0  0  0  0  0  0  0  0  0  0
    1.9780   -0.6584   -0.9330 C   0  0  0  0  0  0  0  0  0  0  0  0
    2.3153   -0.7763    0.4131 C   0  0  0  0  0  0  0  0  0  0  0  0
    1.9023    0.1798    1.3709 C   0  0  0  0  0  0  0  0  0  0  0  0
    2.4147   -0.1867    2.7557 C   0  0  0  0  0  0  0  0  0  0  0  0
    3.0729   -1.5136    2.4728 C   0  0  0  0  0  0  0  0  0  0  0  0
    3.0146   -1.8048    1.1173 C   0  0  0  0  0  0  0  0  0  0  0  0
    3.6985   -3.3331    0.7414 S   0  0  0  0  0  0  0  0  0  0  0  0
    4.0335   -3.6019    2.4375 C   0  0  0  0  0  0  0  0  0  0  0  0
    4.5824   -4.8371    2.8945 C   0  0  0  0  0  0  0  0  0  0  0  0
    4.9853   -5.8470    2.0215 C   0  0  0  0  0  0  0  0  0  0  0  0
    5.4321   -7.1225    2.4627 C   0  0  0  0  0  0  0  0  0  0  0  0
    5.7044   -7.9925    1.4480 O   0  0  0  0  0  0  0  0  0  0  0  0
    5.4496   -9.3738    1.5979 C   0  0  0  0  0  0  0  0  0  0  0  0
    5.5159   -7.4391    3.8178 C   0  0  0  0  0  0  0  0  0  0  0  0
    6.0178   -8.6808    4.3515 C   0  0  0  0  0  0  0  0  0  0  0  0
    5.4831   -9.3172    5.4171 C   0  0  0  0  0  0  0  0  0  0  0  0
    4.1663   -9.0870    6.0080 C   0  0  0  0  0  0  0  0  0  0  0  0
    3.9735   -9.9300    7.0994 N   0  0  0  0  0  0  0  0  0  0  0  0
    2.7081   -9.8669    7.8072 C   0  0  0  0  0  0  0  0  0  0  0  0
    1.7328  -10.9285    7.3122 C   0  0  0  0  0  0  0  0  0  0  0  0
    4.9647  -10.8202    7.3599 C   0  0  0  0  0  0  0  0  0  0  0  0
    6.2778  -10.6670    6.2138 S   0  0  0  0  0  0  0  0  0  0  0  0
    5.0314  -11.7564    8.3613 C   0  0  0  0  0  0  0  0  0  0  0  0
    6.1611  -12.5966    8.4496 C   0  0  0  0  0  0  0  0  0  0  0  0
    7.0725  -13.2881    8.5323 N   0  0  0  0  0  0  0  0  0  0  0  0
    4.0689  -11.9916    9.3572 C   0  0  0  0  0  0  0  0  0  0  0  0
    3.3260  -12.2367   10.1987 N   0  0  0  0  0  0  0  0  0  0  0  0
    3.3047   -8.3358    5.6129 O   0  0  0  0  0  0  0  0  0  0  0  0
    5.1369   -6.4131    4.7150 C   0  0  0  0  0  0  0  0  0  0  0  0
    5.1620   -6.3905    6.0537 N   0  0  0  0  0  0  0  0  0  0  0  0
    4.7362   -5.1958    6.3607 N   0  0  0  0  0  0  0  0  0  0  0  0
    4.6351   -4.7571    7.7228 C   0  0  0  0  0  0  0  0  0  0  0  0
    5.9115   -4.0390    8.1510 C   0  0  0  0  0  0  0  0  0  0  0  0
    4.4407   -4.4057    5.3669 N   0  0  0  0  0  0  0  0  0  0  0  0
    4.6874   -5.1399    4.2741 C   0  0  0  0  0  0  0  0  0  0  0  0
    4.8386   -5.6085    0.6754 O   0  0  0  0  0  0  0  0  0  0  0  0
    6.0248   -5.5753   -0.0971 C   0  0  0  0  0  0  0  0  0  0  0  0
    3.6435   -2.5315    3.2254 C   0  0  0  0  0  0  0  0  0  0  0  0
    1.3356   -0.4024    3.7966 C   0  0  0  0  0  0  0  0  0  0  0  0
    0.0072   -0.6004    3.4508 C   0  0  0  0  0  0  0  0  0  0  0  0
   -0.9421   -0.8400    4.4284 C   0  0  0  0  0  0  0  0  0  0  0  0
   -0.5894   -0.9020    5.7691 C   0  0  0  0  0  0  0  0  0  0  0  0
   -1.6303   -1.1110    6.8313 C   0  0  0  0  0  0  0  0  0  0  0  0
   -2.1838    0.2333    7.3084 C   0  0  0  0  0  0  0  0  0  0  0  0
    0.7454   -0.7202    6.1084 C   0  0  0  0  0  0  0  0  0  0  0  0
    1.6965   -0.4779    5.1371 C   0  0  0  0  0  0  0  0  0  0  0  0
    3.3925    0.8960    3.1762 C   0  0  0  0  0  0  0  0  0  0  0  0
    2.9244    2.0543    3.7844 C   0  0  0  0  0  0  0  0  0  0  0  0
    3.7967    3.0688    4.1289 C   0  0  0  0  0  0  0  0  0  0  0  0
    5.1570    2.9591    3.8702 C   0  0  0  0  0  0  0  0  0  0  0  0
    6.1095    4.0411    4.2914 C   0  0  0  0  0  0  0  0  0  0  0  0
    6.6007    3.7935    5.7191 C   0  0  0  0  0  0  0  0  0  0  0  0
    5.6189    1.8031    3.2565 C   0  0  0  0  0  0  0  0  0  0  0  0
    4.7494    0.7857    2.9082 C   0  0  0  0  0  0  0  0  0  0  0  0
    1.1239    1.2534    1.0078 C   0  0  0  0  0  0  0  0  0  0  0  0
  -10.6104    8.9009   -4.8018 H   0  0  0  0  0  0  0  0  0  0  0  0
  -10.8069    8.4334   -6.5124 H   0  0  0  0  0  0  0  0  0  0  0  0
  -11.9394    6.3143   -5.7718 H   0  0  0  0  0  0  0  0  0  0  0  0
  -12.7752    7.7357   -5.1515 H   0  0  0  0  0  0  0  0  0  0  0  0
  -11.7210    6.8034   -4.0822 H   0  0  0  0  0  0  0  0  0  0  0  0
   -6.8959    7.2913   -2.4323 H   0  0  0  0  0  0  0  0  0  0  0  0
   -5.4717    2.5339   -6.8782 H   0  0  0  0  0  0  0  0  0  0  0  0
   -3.6905    2.4297   -6.9647 H   0  0  0  0  0  0  0  0  0  0  0  0
   -4.6629    3.6254   -8.9517 H   0  0  0  0  0  0  0  0  0  0  0  0
   -3.6589    4.7274   -7.9997 H   0  0  0  0  0  0  0  0  0  0  0  0
   -5.4258    4.7918   -7.8753 H   0  0  0  0  0  0  0  0  0  0  0  0
   -3.4298    8.2677   -1.0057 H   0  0  0  0  0  0  0  0  0  0  0  0
   -4.9549    8.9381   -0.3599 H   0  0  0  0  0  0  0  0  0  0  0  0
   -4.7532    8.7056   -2.1164 H   0  0  0  0  0  0  0  0  0  0  0  0
   -4.5035    5.1630    0.8008 H   0  0  0  0  0  0  0  0  0  0  0  0
   -3.6383    6.6978    1.0490 H   0  0  0  0  0  0  0  0  0  0  0  0
   -2.9013    5.1686    1.5861 H   0  0  0  0  0  0  0  0  0  0  0  0
   -1.5594    2.5100   -4.0141 H   0  0  0  0  0  0  0  0  0  0  0  0
    3.2039    1.5535   -2.2025 H   0  0  0  0  0  0  0  0  0  0  0  0
    4.7836    2.4979   -3.8162 H   0  0  0  0  0  0  0  0  0  0  0  0
    3.9055    3.4360   -7.2692 H   0  0  0  0  0  0  0  0  0  0  0  0
    5.1112    3.6034   -5.9849 H   0  0  0  0  0  0  0  0  0  0  0  0
    5.7941    1.2270   -6.3205 H   0  0  0  0  0  0  0  0  0  0  0  0
    4.5925    1.0599   -7.6004 H   0  0  0  0  0  0  0  0  0  0  0  0
    5.9636    2.1537   -7.8155 H   0  0  0  0  0  0  0  0  0  0  0  0
    1.8799    2.0950   -6.9124 H   0  0  0  0  0  0  0  0  0  0  0  0
    0.2960    1.1399   -5.2997 H   0  0  0  0  0  0  0  0  0  0  0  0
    1.6900   -1.2766   -4.1321 H   0  0  0  0  0  0  0  0  0  0  0  0
    0.6131   -3.3261   -4.9369 H   0  0  0  0  0  0  0  0  0  0  0  0
   -3.0221   -3.9513   -4.7745 H   0  0  0  0  0  0  0  0  0  0  0  0
   -1.5020   -4.4484   -5.5318 H   0  0  0  0  0  0  0  0  0  0  0  0
   -2.2540   -6.1363   -3.8693 H   0  0  0  0  0  0  0  0  0  0  0  0
   -0.7326   -5.3983   -3.3551 H   0  0  0  0  0  0  0  0  0  0  0  0
   -2.2476   -4.9045   -2.6020 H   0  0  0  0  0  0  0  0  0  0  0  0
   -3.0779   -2.0659   -3.2148 H   0  0  0  0  0  0  0  0  0  0  0  0
   -2.0021   -0.0243   -2.3936 H   0  0  0  0  0  0  0  0  0  0  0  0
    2.3040   -1.3969   -1.6491 H   0  0  0  0  0  0  0  0  0  0  0  0
    4.7154   -9.5649    2.3821 H   0  0  0  0  0  0  0  0  0  0  0  0
    6.3697   -9.9236    1.8112 H   0  0  0  0  0  0  0  0  0  0  0  0
    5.0515   -9.7149    0.6401 H   0  0  0  0  0  0  0  0  0  0  0  0
    6.9223   -9.0858    3.9162 H   0  0  0  0  0  0  0  0  0  0  0  0
    2.3034   -8.8723    7.6004 H   0  0  0  0  0  0  0  0  0  0  0  0
    2.8883   -9.9712    8.8782 H   0  0  0  0  0  0  0  0  0  0  0  0
    1.5474  -10.7986    6.2484 H   0  0  0  0  0  0  0  0  0  0  0  0
    2.1196  -11.9296    7.4878 H   0  0  0  0  0  0  0  0  0  0  0  0
    0.7924  -10.8284    7.8457 H   0  0  0  0  0  0  0  0  0  0  0  0
    4.4661   -5.6419    8.3389 H   0  0  0  0  0  0  0  0  0  0  0  0
    3.7779   -4.0841    7.7895 H   0  0  0  0  0  0  0  0  0  0  0  0
    6.0836   -3.1731    7.5166 H   0  0  0  0  0  0  0  0  0  0  0  0
    5.8211   -3.7074    9.1814 H   0  0  0  0  0  0  0  0  0  0  0  0
    6.7645   -4.7085    8.0718 H   0  0  0  0  0  0  0  0  0  0  0  0
    6.5331   -6.5407   -0.0908 H   0  0  0  0  0  0  0  0  0  0  0  0
    6.7060   -4.7999    0.2691 H   0  0  0  0  0  0  0  0  0  0  0  0
    5.7069   -5.3302   -1.1084 H   0  0  0  0  0  0  0  0  0  0  0  0
    3.7673   -2.5356    4.2917 H   0  0  0  0  0  0  0  0  0  0  0  0
   -0.2915   -0.5676    2.4133 H   0  0  0  0  0  0  0  0  0  0  0  0
   -1.9740   -0.9861    4.1418 H   0  0  0  0  0  0  0  0  0  0  0  0
   -1.1929   -1.6411    7.6798 H   0  0  0  0  0  0  0  0  0  0  0  0
   -2.4480   -1.7164    6.4351 H   0  0  0  0  0  0  0  0  0  0  0  0
   -1.3843    0.8477    7.7169 H   0  0  0  0  0  0  0  0  0  0  0  0
   -2.9363    0.0844    8.0794 H   0  0  0  0  0  0  0  0  0  0  0  0
   -2.6376    0.7706    6.4787 H   0  0  0  0  0  0  0  0  0  0  0  0
    1.0428   -0.7714    7.1466 H   0  0  0  0  0  0  0  0  0  0  0  0
    2.7301   -0.3369    5.4188 H   0  0  0  0  0  0  0  0  0  0  0  0
    1.8709    2.1573    4.0009 H   0  0  0  0  0  0  0  0  0  0  0  0
    3.4151    3.9619    4.6034 H   0  0  0  0  0  0  0  0  0  0  0  0
    6.9664    4.0645    3.6152 H   0  0  0  0  0  0  0  0  0  0  0  0
    5.6114    5.0116    4.2457 H   0  0  0  0  0  0  0  0  0  0  0  0
    5.7610    3.7792    6.4105 H   0  0  0  0  0  0  0  0  0  0  0  0
    7.2909    4.5758    6.0264 H   0  0  0  0  0  0  0  0  0  0  0  0
    7.1113    2.8350    5.7820 H   0  0  0  0  0  0  0  0  0  0  0  0
    6.6736    1.6977    3.0439 H   0  0  0  0  0  0  0  0  0  0  0  0
    5.1324   -0.1022    2.4270 H   0  0  0  0  0  0  0  0  0  0  0  0
    0.7830    1.9832    1.7259 H   0  0  0  0  0  0  0  0  0  0  0  0
  1  2  2  0  0  0  0
  2  3  1  0  0  0  0
  3  4  1  0  0  0  0
  4  5  1  0  0  0  0
  3  6  1  0  0  0  0
  6  7  2  0  0  0  0
  7  8  1  0  0  0  0
  8  9  3  0  0  0  0
  7 10  1  0  0  0  0
 10 11  3  0  0  0  0
  2 12  1  0  0  0  0
 12 13  1  0  0  0  0
  6 13  1  0  0  0  0
 12 14  2  0  0  0  0
 14 15  1  0  0  0  0
 15 16  1  0  0  0  0
 16 17  2  0  0  0  0
 17 18  1  0  0  0  0
 18 19  1  0  0  0  0
 19 20  1  0  0  0  0
 15 21  2  0  0  0  0
 21 22  1  0  0  0  0
 22 23  1  0  0  0  0
 21 24  1  0  0  0  0
 24 25  1  0  0  0  0
 25 26  1  0  0  0  0
 24 27  2  0  0  0  0
 27 28  1  0  0  0  0
 16 28  1  0  0  0  0
 28 29  2  0  0  0  0
 18 29  1  0  0  0  0
 27 30  1  0  0  0  0
 30 31  2  0  0  0  0
 31 32  1  0  0  0  0
 32 33  2  0  0  0  0
 33 34  1  0  0  0  0
 30 34  1  0  0  0  0
 33 35  1  0  0  0  0
 35 36  2  0  0  0  0
 36 37  1  0  0  0  0
 32 37  1  0  0  0  0
 37 38  1  0  0  0  0
 38 39  2  0  0  0  0
 39 40  1  0  0  0  0
 40 41  2  0  0  0  0
 41 42  1  0  0  0  0
 42 43  1  0  0  0  0
 41 44  1  0  0  0  0
 44 45  2  0  0  0  0
 38 45  1  0  0  0  0
 37 46  1  0  0  0  0
 46 47  2  0  0  0  0
 47 48  1  0  0  0  0
 48 49  2  0  0  0  0
 49 50  1  0  0  0  0
 50 51  1  0  0  0  0
 49 52  1  0  0  0  0
 52 53  2  0  0  0  0
 46 53  1  0  0  0  0
 36 54  1  0  0  0  0
 54 55  2  0  0  0  0
 55 56  1  0  0  0  0
 56 57  1  0  0  0  0
 57 58  1  0  0  0  0
 58 59  2  0  0  0  0
 55 59  1  0  0  0  0
 59 60  1  0  0  0  0
 60 61  1  0  0  0  0
 61 62  1  0  0  0  0
 62 63  2  0  0  0  0
 63 64  1  0  0  0  0
 64 65  1  0  0  0  0
 65 66  1  0  0  0  0
 64 67  2  0  0  0  0
 67 68  1  0  0  0  0
 68 69  2  0  0  0  0
 69 70  1  0  0  0  0
 70 71  1  0  0  0  0
 71 72  1  0  0  0  0
 72 73  1  0  0  0  0
 71 74  1  0  0  0  0
 74 75  1  0  0  0  0
 69 75  1  0  0  0  0
 74 76  2  0  0  0  0
 76 77  1  0  0  0  0
 77 78  3  0  0  0  0
 76 79  1  0  0  0  0
 79 80  3  0  0  0  0
 70 81  2  0  0  0  0
 67 82  1  0  0  0  0
 82 83  2  0  0  0  0
 83 84  1  0  0  0  0
 84 85  1  0  0  0  0
 85 86  1  0  0  0  0
 84 87  1  0  0  0  0
 87 88  2  0  0  0  0
 82 88  1  0  0  0  0
 62 88  1  0  0  0  0
 63 89  1  0  0  0  0
 89 90  1  0  0  0  0
 61 91  2  0  0  0  0
 58 91  1  0  0  0  0
 57 92  1  0  0  0  0
 92 93  2  0  0  0  0
 93 94  1  0  0  0  0
 94 95  2  0  0  0  0
 95 96  1  0  0  0  0
 96 97  1  0  0  0  0
 95 98  1  0  0  0  0
 98 99  2  0  0  0  0
 92 99  1  0  0  0  0
 57100  1  0  0  0  0
100101  2  0  0  0  0
101102  1  0  0  0  0
102103  2  0  0  0  0
103104  1  0  0  0  0
104105  1  0  0  0  0
103106  1  0  0  0  0
106107  2  0  0  0  0
100107  1  0  0  0  0
 56108  2  0  0  0  0
 35108  1  0  0  0  0
  4109  1  0  0  0  0
  4110  1  0  0  0  0
  5111  1  0  0  0  0
  5112  1  0  0  0  0
  5113  1  0  0  0  0
 14114  1  0  0  0  0
 19115  1  0  0  0  0
 19116  1  0  0  0  0
 20117  1  0  0  0  0
 20118  1  0  0  0  0
 20119  1  0  0  0  0
 23120  1  0  0  0  0
 23121  1  0  0  0  0
 23122  1  0  0  0  0
 26123  1  0  0  0  0
 26124  1  0  0  0  0
 26125  1  0  0  0  0
 31126  1  0  0  0  0
 39127  1  0  0  0  0
 40128  1  0  0  0  0
 42129  1  0  0  0  0
 42130  1  0  0  0  0
 43131  1  0  0  0  0
 43132  1  0  0  0  0
 43133  1  0  0  0  0
 44134  1  0  0  0  0
 45135  1  0  0  0  0
 47136  1  0  0  0  0
 48137  1  0  0  0  0
 50138  1  0  0  0  0
 50139  1  0  0  0  0
 51140  1  0  0  0  0
 51141  1  0  0  0  0
 51142  1  0  0  0  0
 52143  1  0  0  0  0
 53144  1  0  0  0  0
 54145  1  0  0  0  0
 66146  1  0  0  0  0
 66147  1  0  0  0  0
 66148  1  0  0  0  0
 68149  1  0  0  0  0
 72150  1  0  0  0  0
 72151  1  0  0  0  0
 73152  1  0  0  0  0
 73153  1  0  0  0  0
 73154  1  0  0  0  0
 85155  1  0  0  0  0
 85156  1  0  0  0  0
 86157  1  0  0  0  0
 86158  1  0  0  0  0
 86159  1  0  0  0  0
 90160  1  0  0  0  0
 90161  1  0  0  0  0
 90162  1  0  0  0  0
 91163  1  0  0  0  0
 93164  1  0  0  0  0
 94165  1  0  0  0  0
 96166  1  0  0  0  0
 96167  1  0  0  0  0
 97168  1  0  0  0  0
 97169  1  0  0  0  0
 97170  1  0  0  0  0
 98171  1  0  0  0  0
 99172  1  0  0  0  0
101173  1  0  0  0  0
102174  1  0  0  0  0
104175  1  0  0  0  0
104176  1  0  0  0  0
105177  1  0  0  0  0
105178  1  0  0  0  0
105179  1  0  0  0  0
106180  1  0  0  0  0
107181  1  0  0  0  0
108182  1  0  0  0  0
M  END
