BTA13.sdf
  xtb     12202113563D
 energy: -280.498033949505 gnorm: 0.000743447150 xtb: 6.4.1 (unknown)
172188  0     0  0            999 V2000
   -2.9651    6.1796   -2.3229 C   0  0  0  0  0  0  0  0  0  0  0  0
   -3.1491    5.1051   -3.1703 C   0  0  0  0  0  0  0  0  0  0  0  0
   -3.2493    3.9048   -2.4723 C   0  0  0  0  0  0  0  0  0  0  0  0
   -3.1584    4.0496   -1.0775 C   0  0  0  0  0  0  0  0  0  0  0  0
   -2.9676    5.7040   -0.6318 S   0  0  0  0  0  0  0  0  0  0  0  0
   -3.1416    2.8198   -0.4206 C   0  0  0  0  0  0  0  0  0  0  0  0
   -2.9426    2.3199    0.9852 C   0  0  0  0  0  0  0  0  0  0  0  0
   -4.1892    2.4429    1.8460 C   0  0  0  0  0  0  0  0  0  0  0  0
   -5.4351    2.6971    1.2913 C   0  0  0  0  0  0  0  0  0  0  0  0
   -6.5603    2.7598    2.0930 C   0  0  0  0  0  0  0  0  0  0  0  0
   -6.4729    2.5647    3.4643 C   0  0  0  0  0  0  0  0  0  0  0  0
   -7.7047    2.5830    4.3228 C   0  0  0  0  0  0  0  0  0  0  0  0
   -8.3408    1.1922    4.3713 C   0  0  0  0  0  0  0  0  0  0  0  0
   -5.2241    2.3043    4.0140 C   0  0  0  0  0  0  0  0  0  0  0  0
   -4.0966    2.2443    3.2182 C   0  0  0  0  0  0  0  0  0  0  0  0
   -1.7635    3.0497    1.5938 C   0  0  0  0  0  0  0  0  0  0  0  0
   -1.9652    4.2826    2.2021 C   0  0  0  0  0  0  0  0  0  0  0  0
   -0.8982    4.9897    2.7217 C   0  0  0  0  0  0  0  0  0  0  0  0
    0.3959    4.4939    2.6370 C   0  0  0  0  0  0  0  0  0  0  0  0
    1.5608    5.2847    3.1593 C   0  0  0  0  0  0  0  0  0  0  0  0
    2.1758    6.1289    2.0413 C   0  0  0  0  0  0  0  0  0  0  0  0
    0.5935    3.2716    2.0088 C   0  0  0  0  0  0  0  0  0  0  0  0
   -0.4705    2.5572    1.4893 C   0  0  0  0  0  0  0  0  0  0  0  0
   -2.7211    0.8369    0.7278 C   0  0  0  0  0  0  0  0  0  0  0  0
   -2.9500    0.5250   -0.6331 C   0  0  0  0  0  0  0  0  0  0  0  0
   -3.1963    1.7608   -1.3089 C   0  0  0  0  0  0  0  0  0  0  0  0
   -3.3367    2.2379   -2.9681 S   0  0  0  0  0  0  0  0  0  0  0  0
   -2.7998   -0.7679   -1.1274 C   0  0  0  0  0  0  0  0  0  0  0  0
   -2.3495   -1.7254   -0.2500 C   0  0  0  0  0  0  0  0  0  0  0  0
   -1.9696   -3.1649   -0.5510 C   0  0  0  0  0  0  0  0  0  0  0  0
   -3.1687   -4.0931   -0.6676 C   0  0  0  0  0  0  0  0  0  0  0  0
   -4.4631   -3.6719   -0.4047 C   0  0  0  0  0  0  0  0  0  0  0  0
   -5.5182   -4.5631   -0.4949 C   0  0  0  0  0  0  0  0  0  0  0  0
   -5.3075   -5.8898   -0.8422 C   0  0  0  0  0  0  0  0  0  0  0  0
   -6.4501   -6.8626   -0.8985 C   0  0  0  0  0  0  0  0  0  0  0  0
   -6.6513   -7.5313    0.4628 C   0  0  0  0  0  0  0  0  0  0  0  0
   -4.0057   -6.3081   -1.0907 C   0  0  0  0  0  0  0  0  0  0  0  0
   -2.9490   -5.4238   -1.0047 C   0  0  0  0  0  0  0  0  0  0  0  0
   -1.1023   -3.2327   -1.7899 C   0  0  0  0  0  0  0  0  0  0  0  0
    0.2766   -3.1002   -1.7087 C   0  0  0  0  0  0  0  0  0  0  0  0
    1.0545   -3.1492   -2.8507 C   0  0  0  0  0  0  0  0  0  0  0  0
    0.4763   -3.3138   -4.1019 C   0  0  0  0  0  0  0  0  0  0  0  0
    1.3247   -3.4200   -5.3363 C   0  0  0  0  0  0  0  0  0  0  0  0
    1.6994   -4.8797   -5.6009 C   0  0  0  0  0  0  0  0  0  0  0  0
   -0.9060   -3.4236   -4.1801 C   0  0  0  0  0  0  0  0  0  0  0  0
   -1.6870   -3.3823   -3.0412 C   0  0  0  0  0  0  0  0  0  0  0  0
   -1.2589   -3.5344    0.7235 C   0  0  0  0  0  0  0  0  0  0  0  0
   -1.4135   -2.5386    1.6708 C   0  0  0  0  0  0  0  0  0  0  0  0
   -2.0670   -1.4018    1.0985 C   0  0  0  0  0  0  0  0  0  0  0  0
   -2.2940   -0.1272    1.6106 C   0  0  0  0  0  0  0  0  0  0  0  0
   -0.6030   -2.8623    3.1684 S   0  0  0  0  0  0  0  0  0  0  0  0
    0.0160   -4.3432    2.4908 C   0  0  0  0  0  0  0  0  0  0  0  0
   -0.4462   -4.5686    1.1837 C   0  0  0  0  0  0  0  0  0  0  0  0
    0.2776   -5.9741    0.4966 S   0  0  0  0  0  0  0  0  0  0  0  0
    1.2322   -6.2172    1.9499 C   0  0  0  0  0  0  0  0  0  0  0  0
    0.9537   -5.2781    2.9233 C   0  0  0  0  0  0  0  0  0  0  0  0
    2.2459   -7.2219    1.9489 C   0  0  0  0  0  0  0  0  0  0  0  0
    3.1569   -7.4252    2.9845 C   0  0  0  0  0  0  0  0  0  0  0  0
    4.2298   -8.3018    2.8822 C   0  0  0  0  0  0  0  0  0  0  0  0
    4.4927   -9.0638    1.7432 C   0  0  0  0  0  0  0  0  0  0  0  0
    3.5416   -8.9323    0.7013 C   0  0  0  0  0  0  0  0  0  0  0  0
    2.4480   -8.0289    0.8069 C   0  0  0  0  0  0  0  0  0  0  0  0
    3.4664   -9.5045   -0.5085 N   0  0  0  0  0  0  0  0  0  0  0  0
    2.4060   -8.9741   -1.0523 N   0  0  0  0  0  0  0  0  0  0  0  0
    1.7581   -8.0975   -0.3383 N   0  0  0  0  0  0  0  0  0  0  0  0
   -2.6693    7.5325   -2.6693 C   0  0  0  0  0  0  0  0  0  0  0  0
   -2.5179    7.9912   -3.9774 C   0  0  0  0  0  0  0  0  0  0  0  0
   -2.0872    9.2762   -4.2814 C   0  0  0  0  0  0  0  0  0  0  0  0
   -1.7744   10.2299   -3.3122 C   0  0  0  0  0  0  0  0  0  0  0  0
   -1.9850    9.8144   -1.9740 C   0  0  0  0  0  0  0  0  0  0  0  0
   -2.4179    8.4943   -1.6656 C   0  0  0  0  0  0  0  0  0  0  0  0
   -1.8076   10.4546   -0.8102 N   0  0  0  0  0  0  0  0  0  0  0  0
   -2.1215    9.5707    0.0963 N   0  0  0  0  0  0  0  0  0  0  0  0
   -2.4867    8.3956   -0.3322 N   0  0  0  0  0  0  0  0  0  0  0  0
   -1.2360   11.5255   -3.5545 C   0  0  0  0  0  0  0  0  0  0  0  0
   -0.7440   12.0528   -4.7018 C   0  0  0  0  0  0  0  0  0  0  0  0
   -0.1549   13.3898   -4.7356 C   0  0  0  0  0  0  0  0  0  0  0  0
    0.3699   13.6667   -5.9947 N   0  0  0  0  0  0  0  0  0  0  0  0
    0.2281   12.6919   -6.9268 C   0  0  0  0  0  0  0  0  0  0  0  0
   -0.6208   11.3019   -6.2797 S   0  0  0  0  0  0  0  0  0  0  0  0
    0.6624   12.6765   -8.2282 C   0  0  0  0  0  0  0  0  0  0  0  0
    0.9820   14.9611   -6.2308 C   0  0  0  0  0  0  0  0  0  0  0  0
    0.0128   15.9264   -6.9023 C   0  0  0  0  0  0  0  0  0  0  0  0
   -0.0931   14.1681   -3.8115 O   0  0  0  0  0  0  0  0  0  0  0  0
    0.4168   11.5358   -9.0210 C   0  0  0  0  0  0  0  0  0  0  0  0
    1.3593   13.6982   -8.8946 C   0  0  0  0  0  0  0  0  0  0  0  0
    1.9267   14.4923   -9.5006 N   0  0  0  0  0  0  0  0  0  0  0  0
    0.2167   10.6127   -9.6720 N   0  0  0  0  0  0  0  0  0  0  0  0
    5.6293   -9.8957    1.5347 C   0  0  0  0  0  0  0  0  0  0  0  0
    6.7704   -9.9910    2.2589 C   0  0  0  0  0  0  0  0  0  0  0  0
    7.8738  -10.8496    1.8332 C   0  0  0  0  0  0  0  0  0  0  0  0
    8.9718  -10.6957    2.6745 N   0  0  0  0  0  0  0  0  0  0  0  0
    8.8157   -9.8285    3.7054 C   0  0  0  0  0  0  0  0  0  0  0  0
    7.2132   -9.1185    3.7118 S   0  0  0  0  0  0  0  0  0  0  0  0
    9.7229   -9.4646    4.6683 C   0  0  0  0  0  0  0  0  0  0  0  0
   10.1632  -11.4854    2.4233 C   0  0  0  0  0  0  0  0  0  0  0  0
   10.2046  -12.7316    3.2992 C   0  0  0  0  0  0  0  0  0  0  0  0
    7.8776  -11.5873    0.8745 O   0  0  0  0  0  0  0  0  0  0  0  0
    9.3435   -8.5236    5.6483 C   0  0  0  0  0  0  0  0  0  0  0  0
   11.0416   -9.9307    4.8001 C   0  0  0  0  0  0  0  0  0  0  0  0
   12.1261  -10.2705    4.9679 N   0  0  0  0  0  0  0  0  0  0  0  0
    9.0439   -7.7543    6.4448 N   0  0  0  0  0  0  0  0  0  0  0  0
    1.9867   -9.3085   -2.3835 C   0  0  0  0  0  0  0  0  0  0  0  0
    2.0826   -8.0841   -3.2871 C   0  0  0  0  0  0  0  0  0  0  0  0
   -2.0283    9.8553    1.4995 C   0  0  0  0  0  0  0  0  0  0  0  0
   -0.8782    9.0655    2.1152 C   0  0  0  0  0  0  0  0  0  0  0  0
   -3.1804    5.1807   -4.2412 H   0  0  0  0  0  0  0  0  0  0  0  0
   -5.5324    2.8523    0.2268 H   0  0  0  0  0  0  0  0  0  0  0  0
   -7.5215    2.9664    1.6440 H   0  0  0  0  0  0  0  0  0  0  0  0
   -8.4276    3.2948    3.9190 H   0  0  0  0  0  0  0  0  0  0  0  0
   -7.4459    2.8958    5.3363 H   0  0  0  0  0  0  0  0  0  0  0  0
   -8.6207    0.8693    3.3709 H   0  0  0  0  0  0  0  0  0  0  0  0
   -7.6378    0.4690    4.7788 H   0  0  0  0  0  0  0  0  0  0  0  0
   -9.2312    1.2019    4.9955 H   0  0  0  0  0  0  0  0  0  0  0  0
   -5.1325    2.1494    5.0798 H   0  0  0  0  0  0  0  0  0  0  0  0
   -3.1330    2.0552    3.6680 H   0  0  0  0  0  0  0  0  0  0  0  0
   -2.9642    4.6869    2.2746 H   0  0  0  0  0  0  0  0  0  0  0  0
   -1.0752    5.9385    3.2079 H   0  0  0  0  0  0  0  0  0  0  0  0
    2.3199    4.6078    3.5565 H   0  0  0  0  0  0  0  0  0  0  0  0
    1.2315    5.9411    3.9672 H   0  0  0  0  0  0  0  0  0  0  0  0
    3.0185    6.7042    2.4174 H   0  0  0  0  0  0  0  0  0  0  0  0
    2.5242    5.4895    1.2335 H   0  0  0  0  0  0  0  0  0  0  0  0
    1.4367    6.8169    1.6368 H   0  0  0  0  0  0  0  0  0  0  0  0
    1.5936    2.8704    1.9260 H   0  0  0  0  0  0  0  0  0  0  0  0
   -0.2918    1.6101    1.0012 H   0  0  0  0  0  0  0  0  0  0  0  0
   -2.9790   -0.9882   -2.1686 H   0  0  0  0  0  0  0  0  0  0  0  0
   -4.6542   -2.6444   -0.1319 H   0  0  0  0  0  0  0  0  0  0  0  0
   -6.5223   -4.2174   -0.2937 H   0  0  0  0  0  0  0  0  0  0  0  0
   -6.2464   -7.6293   -1.6488 H   0  0  0  0  0  0  0  0  0  0  0  0
   -7.3668   -6.3416   -1.1821 H   0  0  0  0  0  0  0  0  0  0  0  0
   -6.8732   -6.7844    1.2218 H   0  0  0  0  0  0  0  0  0  0  0  0
   -7.4751   -8.2401    0.4211 H   0  0  0  0  0  0  0  0  0  0  0  0
   -5.7499   -8.0626    0.7601 H   0  0  0  0  0  0  0  0  0  0  0  0
   -3.8181   -7.3385   -1.3569 H   0  0  0  0  0  0  0  0  0  0  0  0
   -1.9430   -5.7634   -1.2056 H   0  0  0  0  0  0  0  0  0  0  0  0
    0.7496   -2.9582   -0.7479 H   0  0  0  0  0  0  0  0  0  0  0  0
    2.1279   -3.0536   -2.7676 H   0  0  0  0  0  0  0  0  0  0  0  0
    0.7777   -3.0274   -6.1957 H   0  0  0  0  0  0  0  0  0  0  0  0
    2.2357   -2.8312   -5.2130 H   0  0  0  0  0  0  0  0  0  0  0  0
    2.2691   -5.2807   -4.7658 H   0  0  0  0  0  0  0  0  0  0  0  0
    2.3004   -4.9612   -6.5035 H   0  0  0  0  0  0  0  0  0  0  0  0
    0.8027   -5.4831   -5.7241 H   0  0  0  0  0  0  0  0  0  0  0  0
   -1.3775   -3.5423   -5.1453 H   0  0  0  0  0  0  0  0  0  0  0  0
   -2.7603   -3.4771   -3.1231 H   0  0  0  0  0  0  0  0  0  0  0  0
   -2.0769    0.0972    2.6433 H   0  0  0  0  0  0  0  0  0  0  0  0
    1.4283   -5.2522    3.8864 H   0  0  0  0  0  0  0  0  0  0  0  0
    3.0477   -6.8602    3.8967 H   0  0  0  0  0  0  0  0  0  0  0  0
    4.8895   -8.3838    3.7322 H   0  0  0  0  0  0  0  0  0  0  0  0
   -2.7160    7.3166   -4.7952 H   0  0  0  0  0  0  0  0  0  0  0  0
   -1.9895    9.5353   -5.3242 H   0  0  0  0  0  0  0  0  0  0  0  0
   -1.1621   12.1691   -2.6851 H   0  0  0  0  0  0  0  0  0  0  0  0
    1.8822   14.8296   -6.8337 H   0  0  0  0  0  0  0  0  0  0  0  0
    1.2581   15.3416   -5.2433 H   0  0  0  0  0  0  0  0  0  0  0  0
   -0.8708   16.0624   -6.2826 H   0  0  0  0  0  0  0  0  0  0  0  0
   -0.2906   15.5610   -7.8806 H   0  0  0  0  0  0  0  0  0  0  0  0
    0.4994   16.8880   -7.0343 H   0  0  0  0  0  0  0  0  0  0  0  0
    5.6033  -10.5032    0.6369 H   0  0  0  0  0  0  0  0  0  0  0  0
   10.1087  -11.7753    1.3701 H   0  0  0  0  0  0  0  0  0  0  0  0
   11.0471  -10.8658    2.5837 H   0  0  0  0  0  0  0  0  0  0  0  0
   11.0923  -13.3088    3.0589 H   0  0  0  0  0  0  0  0  0  0  0  0
    9.3262  -13.3469    3.1173 H   0  0  0  0  0  0  0  0  0  0  0  0
   10.2439  -12.4689    4.3538 H   0  0  0  0  0  0  0  0  0  0  0  0
    0.9525   -9.6608   -2.3411 H   0  0  0  0  0  0  0  0  0  0  0  0
    2.6383  -10.1130   -2.7277 H   0  0  0  0  0  0  0  0  0  0  0  0
    1.4729   -7.2795   -2.8825 H   0  0  0  0  0  0  0  0  0  0  0  0
    3.1134   -7.7449   -3.3571 H   0  0  0  0  0  0  0  0  0  0  0  0
    1.7281   -8.3300   -4.2838 H   0  0  0  0  0  0  0  0  0  0  0  0
   -1.8722   10.9304    1.5981 H   0  0  0  0  0  0  0  0  0  0  0  0
   -2.9727    9.5689    1.9694 H   0  0  0  0  0  0  0  0  0  0  0  0
   -0.8428    9.2357    3.1874 H   0  0  0  0  0  0  0  0  0  0  0  0
    0.0700    9.3742    1.6810 H   0  0  0  0  0  0  0  0  0  0  0  0
   -1.0248    8.0045    1.9260 H   0  0  0  0  0  0  0  0  0  0  0  0
  1  2  2  0  0  0  0
  2  3  1  0  0  0  0
  3  4  2  0  0  0  0
  4  5  1  0  0  0  0
  1  5  1  0  0  0  0
  4  6  1  0  0  0  0
  6  7  1  0  0  0  0
  7  8  1  0  0  0  0
  8  9  2  0  0  0  0
  9 10  1  0  0  0  0
 10 11  2  0  0  0  0
 11 12  1  0  0  0  0
 12 13  1  0  0  0  0
 11 14  1  0  0  0  0
 14 15  2  0  0  0  0
  8 15  1  0  0  0  0
  7 16  1  0  0  0  0
 16 17  2  0  0  0  0
 17 18  1  0  0  0  0
 18 19  2  0  0  0  0
 19 20  1  0  0  0  0
 20 21  1  0  0  0  0
 19 22  1  0  0  0  0
 22 23  2  0  0  0  0
 16 23  1  0  0  0  0
  7 24  1  0  0  0  0
 24 25  2  0  0  0  0
 25 26  1  0  0  0  0
  6 26  2  0  0  0  0
 26 27  1  0  0  0  0
  3 27  1  0  0  0  0
 25 28  1  0  0  0  0
 28 29  2  0  0  0  0
 29 30  1  0  0  0  0
 30 31  1  0  0  0  0
 31 32  2  0  0  0  0
 32 33  1  0  0  0  0
 33 34  2  0  0  0  0
 34 35  1  0  0  0  0
 35 36  1  0  0  0  0
 34 37  1  0  0  0  0
 37 38  2  0  0  0  0
 31 38  1  0  0  0  0
 30 39  1  0  0  0  0
 39 40  2  0  0  0  0
 40 41  1  0  0  0  0
 41 42  2  0  0  0  0
 42 43  1  0  0  0  0
 43 44  1  0  0  0  0
 42 45  1  0  0  0  0
 45 46  2  0  0  0  0
 39 46  1  0  0  0  0
 30 47  1  0  0  0  0
 47 48  2  0  0  0  0
 48 49  1  0  0  0  0
 29 49  1  0  0  0  0
 49 50  2  0  0  0  0
 24 50  1  0  0  0  0
 48 51  1  0  0  0  0
 51 52  1  0  0  0  0
 52 53  2  0  0  0  0
 47 53  1  0  0  0  0
 53 54  1  0  0  0  0
 54 55  1  0  0  0  0
 55 56  2  0  0  0  0
 52 56  1  0  0  0  0
 57 58  2  0  0  0  0
 58 59  1  0  0  0  0
 59 60  2  0  0  0  0
 60 61  1  0  0  0  0
 61 62  1  0  0  0  0
 62 57  1  0  0  0  0
 61 63  2  0  0  0  0
 63 64  1  0  0  0  0
 64 65  1  0  0  0  0
 65 62  2  0  0  0  0
 66 67  2  0  0  0  0
 67 68  1  0  0  0  0
 68 69  2  0  0  0  0
 69 70  1  0  0  0  0
 70 71  1  0  0  0  0
 71 66  1  0  0  0  0
 70 72  2  0  0  0  0
 72 73  1  0  0  0  0
 73 74  1  0  0  0  0
 74 71  2  0  0  0  0
 57 55  1  0  0  0  0
  1 66  1  0  0  0  0
 75 76  2  0  0  0  0
 76 77  1  0  0  0  0
 77 78  1  0  0  0  0
 78 79  1  0  0  0  0
 79 80  1  0  0  0  0
 80 76  1  0  0  0  0
 79 81  2  0  0  0  0
 78 82  1  0  0  0  0
 82 83  1  0  0  0  0
 77 84  2  0  0  0  0
 81 85  1  0  0  0  0
 81 86  1  0  0  0  0
 86 87  3  0  0  0  0
 85 88  3  0  0  0  0
 89 90  2  0  0  0  0
 90 91  1  0  0  0  0
 91 92  1  0  0  0  0
 92 93  1  0  0  0  0
 93 94  1  0  0  0  0
 94 90  1  0  0  0  0
 93 95  2  0  0  0  0
 92 96  1  0  0  0  0
 96 97  1  0  0  0  0
 91 98  2  0  0  0  0
 95 99  1  0  0  0  0
 95100  1  0  0  0  0
100101  3  0  0  0  0
 99102  3  0  0  0  0
 69 75  1  0  0  0  0
 89 60  1  0  0  0  0
 64103  1  0  0  0  0
103104  1  0  0  0  0
 73105  1  0  0  0  0
105106  1  0  0  0  0
  2107  1  0  0  0  0
  9108  1  0  0  0  0
 10109  1  0  0  0  0
 12110  1  0  0  0  0
 12111  1  0  0  0  0
 13112  1  0  0  0  0
 13113  1  0  0  0  0
 13114  1  0  0  0  0
 14115  1  0  0  0  0
 15116  1  0  0  0  0
 17117  1  0  0  0  0
 18118  1  0  0  0  0
 20119  1  0  0  0  0
 20120  1  0  0  0  0
 21121  1  0  0  0  0
 21122  1  0  0  0  0
 21123  1  0  0  0  0
 22124  1  0  0  0  0
 23125  1  0  0  0  0
 28126  1  0  0  0  0
 32127  1  0  0  0  0
 33128  1  0  0  0  0
 35129  1  0  0  0  0
 35130  1  0  0  0  0
 36131  1  0  0  0  0
 36132  1  0  0  0  0
 36133  1  0  0  0  0
 37134  1  0  0  0  0
 38135  1  0  0  0  0
 40136  1  0  0  0  0
 41137  1  0  0  0  0
 43138  1  0  0  0  0
 43139  1  0  0  0  0
 44140  1  0  0  0  0
 44141  1  0  0  0  0
 44142  1  0  0  0  0
 45143  1  0  0  0  0
 46144  1  0  0  0  0
 50145  1  0  0  0  0
 56146  1  0  0  0  0
 58147  1  0  0  0  0
 59148  1  0  0  0  0
 67149  1  0  0  0  0
 68150  1  0  0  0  0
 75151  1  0  0  0  0
 82152  1  0  0  0  0
 82153  1  0  0  0  0
 83154  1  0  0  0  0
 83155  1  0  0  0  0
 83156  1  0  0  0  0
 89157  1  0  0  0  0
 96158  1  0  0  0  0
 96159  1  0  0  0  0
 97160  1  0  0  0  0
 97161  1  0  0  0  0
 97162  1  0  0  0  0
103163  1  0  0  0  0
103164  1  0  0  0  0
104165  1  0  0  0  0
104166  1  0  0  0  0
104167  1  0  0  0  0
105168  1  0  0  0  0
105169  1  0  0  0  0
106170  1  0  0  0  0
106171  1  0  0  0  0
106172  1  0  0  0  0
M  END
