BTA4.sdf
  xtb     12202114023D
 energy: -282.512151600562 gnorm: 0.000261260111 xtb: 6.4.1 (unknown)
174190  0     0  0            999 V2000
    0.1060    2.2134   -0.0143 C   0  0  0  0  0  0  0  0  0  0  0  0
   -0.7206    2.6283    1.0571 C   0  0  0  0  0  0  0  0  0  0  0  0
   -2.1001    2.4360    1.0355 C   0  0  0  0  0  0  0  0  0  0  0  0
   -2.6218    1.7488   -0.0362 C   0  0  0  0  0  0  0  0  0  0  0  0
   -1.7778    1.2417   -1.0511 C   0  0  0  0  0  0  0  0  0  0  0  0
   -0.4114    1.5056   -1.0721 C   0  0  0  0  0  0  0  0  0  0  0  0
    1.5622    2.5540    0.2593 C   0  0  0  0  0  0  0  0  0  0  0  0
    1.4774    3.0133    1.6928 C   0  0  0  0  0  0  0  0  0  0  0  0
    0.1502    3.1174    2.0802 C   0  0  0  0  0  0  0  0  0  0  0  0
    2.3736    3.3398    2.7043 C   0  0  0  0  0  0  0  0  0  0  0  0
    1.7310    3.6791    3.8806 C   0  0  0  0  0  0  0  0  0  0  0  0
   -0.0162    3.6368    3.7062 S   0  0  0  0  0  0  0  0  0  0  0  0
   -4.0630    1.3166   -0.2674 C   0  0  0  0  0  0  0  0  0  0  0  0
   -3.8942    0.3824   -1.4417 C   0  0  0  0  0  0  0  0  0  0  0  0
   -2.5800    0.4040   -1.8841 C   0  0  0  0  0  0  0  0  0  0  0  0
   -4.6900   -0.5095   -2.1520 C   0  0  0  0  0  0  0  0  0  0  0  0
   -3.9670   -1.2050   -3.1083 C   0  0  0  0  0  0  0  0  0  0  0  0
   -2.2910   -0.7047   -3.1580 S   0  0  0  0  0  0  0  0  0  0  0  0
    2.3351    3.9257    5.1505 C   0  0  0  0  0  0  0  0  0  0  0  0
   -4.3955   -2.3008   -3.9189 C   0  0  0  0  0  0  0  0  0  0  0  0
   -4.5781    0.6445    0.9889 C   0  0  0  0  0  0  0  0  0  0  0  0
   -4.9679    2.4519   -0.7114 C   0  0  0  0  0  0  0  0  0  0  0  0
    2.4126    1.3268    0.0194 C   0  0  0  0  0  0  0  0  0  0  0  0
    2.0543    3.7461   -0.5458 C   0  0  0  0  0  0  0  0  0  0  0  0
    1.6083    4.2877    6.2811 C   0  0  0  0  0  0  0  0  0  0  0  0
    2.1765    4.3912    7.5457 C   0  0  0  0  0  0  0  0  0  0  0  0
    3.5120    4.0943    7.7930 C   0  0  0  0  0  0  0  0  0  0  0  0
    4.2986    3.8201    6.6535 C   0  0  0  0  0  0  0  0  0  0  0  0
    3.7249    3.7426    5.3518 C   0  0  0  0  0  0  0  0  0  0  0  0
   -5.7212   -2.7077   -4.0534 C   0  0  0  0  0  0  0  0  0  0  0  0
   -6.0852   -3.8379   -4.7750 C   0  0  0  0  0  0  0  0  0  0  0  0
   -5.1713   -4.6554   -5.4383 C   0  0  0  0  0  0  0  0  0  0  0  0
   -3.8141   -4.2897   -5.2933 C   0  0  0  0  0  0  0  0  0  0  0  0
   -3.4469   -3.1189   -4.5725 C   0  0  0  0  0  0  0  0  0  0  0  0
    5.6179    3.6242    6.5225 N   0  0  0  0  0  0  0  0  0  0  0  0
    5.7862    3.4271    5.2465 N   0  0  0  0  0  0  0  0  0  0  0  0
    4.7226    3.4783    4.4958 N   0  0  0  0  0  0  0  0  0  0  0  0
   -2.6767   -4.8922   -5.6709 N   0  0  0  0  0  0  0  0  0  0  0  0
   -1.7336   -4.1073   -5.2305 N   0  0  0  0  0  0  0  0  0  0  0  0
   -2.1098   -3.0465   -4.5780 N   0  0  0  0  0  0  0  0  0  0  0  0
    4.0503    4.0666    9.1233 C   0  0  0  0  0  0  0  0  0  0  0  0
    4.9791    3.1853    9.5581 C   0  0  0  0  0  0  0  0  0  0  0  0
   -5.6002   -5.8267   -6.1401 C   0  0  0  0  0  0  0  0  0  0  0  0
   -4.9608   -6.4202   -7.1745 C   0  0  0  0  0  0  0  0  0  0  0  0
   -0.3484   -4.3836   -5.4945 C   0  0  0  0  0  0  0  0  0  0  0  0
    7.0852    3.1805    4.6882 C   0  0  0  0  0  0  0  0  0  0  0  0
   -3.8929   -5.8746   -8.0131 C   0  0  0  0  0  0  0  0  0  0  0  0
   -3.3945   -6.8782   -8.8461 N   0  0  0  0  0  0  0  0  0  0  0  0
   -4.0199   -8.0831   -8.7959 C   0  0  0  0  0  0  0  0  0  0  0  0
   -5.4014   -8.0347   -7.7275 S   0  0  0  0  0  0  0  0  0  0  0  0
    5.4091    1.9511    8.8962 C   0  0  0  0  0  0  0  0  0  0  0  0
    6.3957    1.3282    9.6591 N   0  0  0  0  0  0  0  0  0  0  0  0
    6.7338    1.9232   10.8332 C   0  0  0  0  0  0  0  0  0  0  0  0
    5.7501    3.3345   11.1347 S   0  0  0  0  0  0  0  0  0  0  0  0
    6.9205    0.0739    9.2327 C   0  0  0  0  0  0  0  0  0  0  0  0
    4.9586    1.4521    7.8928 O   0  0  0  0  0  0  0  0  0  0  0  0
    7.7300    1.5316   11.6906 C   0  0  0  0  0  0  0  0  0  0  0  0
    7.9451    2.2352   12.8921 C   0  0  0  0  0  0  0  0  0  0  0  0
    8.6234    0.4730   11.4494 C   0  0  0  0  0  0  0  0  0  0  0  0
    2.8888    1.0573   -1.2585 C   0  0  0  0  0  0  0  0  0  0  0  0
    3.5975   -0.1004   -1.5135 C   0  0  0  0  0  0  0  0  0  0  0  0
    3.8493   -1.0196   -0.5029 C   0  0  0  0  0  0  0  0  0  0  0  0
    3.3745   -0.7446    0.7719 C   0  0  0  0  0  0  0  0  0  0  0  0
    2.6614    0.4120    1.0321 C   0  0  0  0  0  0  0  0  0  0  0  0
    3.4027    4.0798   -0.4953 C   0  0  0  0  0  0  0  0  0  0  0  0
    3.8776    5.1869   -1.1705 C   0  0  0  0  0  0  0  0  0  0  0  0
    3.0199    5.9957   -1.9059 C   0  0  0  0  0  0  0  0  0  0  0  0
    1.6743    5.6593   -1.9502 C   0  0  0  0  0  0  0  0  0  0  0  0
    1.1931    4.5512   -1.2761 C   0  0  0  0  0  0  0  0  0  0  0  0
   -5.1762    1.4014    1.9891 C   0  0  0  0  0  0  0  0  0  0  0  0
   -5.6027    0.8056    3.1606 C   0  0  0  0  0  0  0  0  0  0  0  0
   -5.4421   -0.5583    3.3674 C   0  0  0  0  0  0  0  0  0  0  0  0
   -4.8318   -1.3078    2.3711 C   0  0  0  0  0  0  0  0  0  0  0  0
   -4.4007   -0.7159    1.1981 C   0  0  0  0  0  0  0  0  0  0  0  0
   -6.3387    2.2331   -0.7856 C   0  0  0  0  0  0  0  0  0  0  0  0
   -7.1873    3.2312   -1.2218 C   0  0  0  0  0  0  0  0  0  0  0  0
   -6.6918    4.4730   -1.6002 C   0  0  0  0  0  0  0  0  0  0  0  0
   -5.3215    4.6820   -1.5369 C   0  0  0  0  0  0  0  0  0  0  0  0
   -4.4668    3.6851   -1.1007 C   0  0  0  0  0  0  0  0  0  0  0  0
   -3.5179   -4.7293   -8.0822 O   0  0  0  0  0  0  0  0  0  0  0  0
   -2.3196   -6.5866   -9.7328 C   0  0  0  0  0  0  0  0  0  0  0  0
   -3.6421   -9.2331   -9.4410 C   0  0  0  0  0  0  0  0  0  0  0  0
   -4.4158  -10.4029   -9.3074 C   0  0  0  0  0  0  0  0  0  0  0  0
   -2.4746   -9.3747  -10.2111 C   0  0  0  0  0  0  0  0  0  0  0  0
    8.1202    2.7974   13.8766 N   0  0  0  0  0  0  0  0  0  0  0  0
    9.4036   -0.3571   11.3036 N   0  0  0  0  0  0  0  0  0  0  0  0
   -1.5233   -9.5716  -10.8239 N   0  0  0  0  0  0  0  0  0  0  0  0
   -5.0449  -11.3573   -9.2092 N   0  0  0  0  0  0  0  0  0  0  0  0
   -5.8678   -1.1946    4.6591 C   0  0  0  0  0  0  0  0  0  0  0  0
   -7.6125    5.5426   -2.1130 C   0  0  0  0  0  0  0  0  0  0  0  0
    3.5420    7.1768   -2.6723 C   0  0  0  0  0  0  0  0  0  0  0  0
    4.5665   -2.3043   -0.8040 C   0  0  0  0  0  0  0  0  0  0  0  0
    6.6368   -1.0755    9.9559 C   0  0  0  0  0  0  0  0  0  0  0  0
    7.1295   -2.2896    9.5150 C   0  0  0  0  0  0  0  0  0  0  0  0
    7.8854   -2.3539    8.3568 C   0  0  0  0  0  0  0  0  0  0  0  0
    8.1461   -1.2047    7.6302 C   0  0  0  0  0  0  0  0  0  0  0  0
    7.6630    0.0162    8.0642 C   0  0  0  0  0  0  0  0  0  0  0  0
   -1.0875   -6.2448   -9.1981 C   0  0  0  0  0  0  0  0  0  0  0  0
   -0.0420   -5.9404  -10.0501 C   0  0  0  0  0  0  0  0  0  0  0  0
   -0.2303   -5.9753  -11.4213 C   0  0  0  0  0  0  0  0  0  0  0  0
   -1.4691   -6.3009  -11.9467 C   0  0  0  0  0  0  0  0  0  0  0  0
   -2.5235   -6.6024  -11.1047 C   0  0  0  0  0  0  0  0  0  0  0  0
    0.5205   -3.9556   -4.3220 C   0  0  0  0  0  0  0  0  0  0  0  0
   -7.8008    5.4060   -3.6253 C   0  0  0  0  0  0  0  0  0  0  0  0
   -4.7314   -1.1365    5.6819 C   0  0  0  0  0  0  0  0  0  0  0  0
    3.9142    6.7683   -4.0990 C   0  0  0  0  0  0  0  0  0  0  0  0
    3.5817   -3.3499   -1.3317 C   0  0  0  0  0  0  0  0  0  0  0  0
    7.5053    4.3315    3.7811 C   0  0  0  0  0  0  0  0  0  0  0  0
   -2.7196    2.7782    1.8503 H   0  0  0  0  0  0  0  0  0  0  0  0
    0.2120    1.1287   -1.8681 H   0  0  0  0  0  0  0  0  0  0  0  0
    3.4445    3.3073    2.6342 H   0  0  0  0  0  0  0  0  0  0  0  0
   -5.7319   -0.6872   -1.9584 H   0  0  0  0  0  0  0  0  0  0  0  0
    0.5482    4.4668    6.1732 H   0  0  0  0  0  0  0  0  0  0  0  0
    1.5390    4.6429    8.3809 H   0  0  0  0  0  0  0  0  0  0  0  0
   -6.4982   -2.1271   -3.5810 H   0  0  0  0  0  0  0  0  0  0  0  0
   -7.1348   -4.0856   -4.8447 H   0  0  0  0  0  0  0  0  0  0  0  0
    3.6734    4.8027    9.8231 H   0  0  0  0  0  0  0  0  0  0  0  0
   -6.5067   -6.2958   -5.7754 H   0  0  0  0  0  0  0  0  0  0  0  0
   -0.0563   -3.8416   -6.4011 H   0  0  0  0  0  0  0  0  0  0  0  0
   -0.2691   -5.4557   -5.6873 H   0  0  0  0  0  0  0  0  0  0  0  0
    7.0424    2.2479    4.1187 H   0  0  0  0  0  0  0  0  0  0  0  0
    7.7730    3.0686    5.5275 H   0  0  0  0  0  0  0  0  0  0  0  0
    2.7082    1.7631   -2.0568 H   0  0  0  0  0  0  0  0  0  0  0  0
    3.9607   -0.2942   -2.5131 H   0  0  0  0  0  0  0  0  0  0  0  0
    3.5613   -1.4450    1.5737 H   0  0  0  0  0  0  0  0  0  0  0  0
    2.2962    0.6017    2.0308 H   0  0  0  0  0  0  0  0  0  0  0  0
    4.0824    3.4612    0.0724 H   0  0  0  0  0  0  0  0  0  0  0  0
    4.9294    5.4316   -1.1221 H   0  0  0  0  0  0  0  0  0  0  0  0
    0.9896    6.2752   -2.5161 H   0  0  0  0  0  0  0  0  0  0  0  0
    0.1403    4.3142   -1.3225 H   0  0  0  0  0  0  0  0  0  0  0  0
   -5.3190    2.4629    1.8451 H   0  0  0  0  0  0  0  0  0  0  0  0
   -6.0705    1.4092    3.9255 H   0  0  0  0  0  0  0  0  0  0  0  0
   -4.6919   -2.3702    2.5132 H   0  0  0  0  0  0  0  0  0  0  0  0
   -3.9239   -1.3196    0.4395 H   0  0  0  0  0  0  0  0  0  0  0  0
   -6.7422    1.2768   -0.4851 H   0  0  0  0  0  0  0  0  0  0  0  0
   -8.2512    3.0460   -1.2664 H   0  0  0  0  0  0  0  0  0  0  0  0
   -4.9145    5.6396   -1.8296 H   0  0  0  0  0  0  0  0  0  0  0  0
   -3.4040    3.8732   -1.0595 H   0  0  0  0  0  0  0  0  0  0  0  0
   -6.7393   -0.6727    5.0598 H   0  0  0  0  0  0  0  0  0  0  0  0
   -6.1431   -2.2369    4.4860 H   0  0  0  0  0  0  0  0  0  0  0  0
   -8.5840    5.4618   -1.6212 H   0  0  0  0  0  0  0  0  0  0  0  0
   -7.1972    6.5274   -1.8897 H   0  0  0  0  0  0  0  0  0  0  0  0
    2.7809    7.9589   -2.7099 H   0  0  0  0  0  0  0  0  0  0  0  0
    4.4239    7.5823   -2.1724 H   0  0  0  0  0  0  0  0  0  0  0  0
    5.3406   -2.1294   -1.5545 H   0  0  0  0  0  0  0  0  0  0  0  0
    5.0462   -2.6840    0.1000 H   0  0  0  0  0  0  0  0  0  0  0  0
    6.0403   -1.0168   10.8547 H   0  0  0  0  0  0  0  0  0  0  0  0
    6.9201   -3.1859   10.0779 H   0  0  0  0  0  0  0  0  0  0  0  0
    8.2700   -3.3038    8.0182 H   0  0  0  0  0  0  0  0  0  0  0  0
    8.7306   -1.2566    6.7242 H   0  0  0  0  0  0  0  0  0  0  0  0
    7.8540    0.9216    7.5085 H   0  0  0  0  0  0  0  0  0  0  0  0
   -0.9628   -6.2212   -8.1263 H   0  0  0  0  0  0  0  0  0  0  0  0
    0.9231   -5.6813   -9.6416 H   0  0  0  0  0  0  0  0  0  0  0  0
    0.5906   -5.7458  -12.0834 H   0  0  0  0  0  0  0  0  0  0  0  0
   -1.6178   -6.3215  -13.0151 H   0  0  0  0  0  0  0  0  0  0  0  0
   -3.4948   -6.8522  -11.5058 H   0  0  0  0  0  0  0  0  0  0  0  0
    1.5667   -4.1280   -4.5579 H   0  0  0  0  0  0  0  0  0  0  0  0
    0.2652   -4.5213   -3.4295 H   0  0  0  0  0  0  0  0  0  0  0  0
    0.3675   -2.8999   -4.1158 H   0  0  0  0  0  0  0  0  0  0  0  0
   -8.2249    4.4341   -3.8674 H   0  0  0  0  0  0  0  0  0  0  0  0
   -8.4687    6.1793   -3.9976 H   0  0  0  0  0  0  0  0  0  0  0  0
   -6.8442    5.4972   -4.1350 H   0  0  0  0  0  0  0  0  0  0  0  0
   -5.0376   -1.5972    6.6183 H   0  0  0  0  0  0  0  0  0  0  0  0
   -3.8565   -1.6616    5.3052 H   0  0  0  0  0  0  0  0  0  0  0  0
   -4.4509   -0.1039    5.8774 H   0  0  0  0  0  0  0  0  0  0  0  0
    3.0437    6.3743   -4.6188 H   0  0  0  0  0  0  0  0  0  0  0  0
    4.2926    7.6237   -4.6538 H   0  0  0  0  0  0  0  0  0  0  0  0
    4.6812    5.9970   -4.0835 H   0  0  0  0  0  0  0  0  0  0  0  0
    2.8120   -3.5506   -0.5899 H   0  0  0  0  0  0  0  0  0  0  0  0
    3.0963   -2.9902   -2.2363 H   0  0  0  0  0  0  0  0  0  0  0  0
    4.0978   -4.2800   -1.5585 H   0  0  0  0  0  0  0  0  0  0  0  0
    7.5734    5.2570    4.3479 H   0  0  0  0  0  0  0  0  0  0  0  0
    6.7754    4.4607    2.9861 H   0  0  0  0  0  0  0  0  0  0  0  0
    8.4750    4.1197    3.3397 H   0  0  0  0  0  0  0  0  0  0  0  0
  1  2  1  0  0  0  0
  2  3  2  0  0  0  0
  3  4  1  0  0  0  0
  4  5  2  0  0  0  0
  5  6  1  0  0  0  0
  6  1  2  0  0  0  0
  1  7  1  0  0  0  0
  7  8  1  0  0  0  0
  8  9  2  0  0  0  0
  9  2  1  0  0  0  0
  8 10  1  0  0  0  0
 10 11  2  0  0  0  0
 11 12  1  0  0  0  0
 12  9  1  0  0  0  0
  4 13  1  0  0  0  0
 13 14  1  0  0  0  0
 14 15  2  0  0  0  0
 15  5  1  0  0  0  0
 14 16  1  0  0  0  0
 16 17  2  0  0  0  0
 17 18  1  0  0  0  0
 18 15  1  0  0  0  0
 11 19  1  0  0  0  0
 17 20  1  0  0  0  0
 13 21  1  0  0  0  0
 13 22  1  0  0  0  0
  7 23  1  0  0  0  0
  7 24  1  0  0  0  0
 19 25  2  0  0  0  0
 25 26  1  0  0  0  0
 26 27  2  0  0  0  0
 27 28  1  0  0  0  0
 28 29  1  0  0  0  0
 29 19  1  0  0  0  0
 20 30  2  0  0  0  0
 30 31  1  0  0  0  0
 31 32  2  0  0  0  0
 32 33  1  0  0  0  0
 33 34  1  0  0  0  0
 34 20  1  0  0  0  0
 28 35  2  0  0  0  0
 35 36  1  0  0  0  0
 36 37  1  0  0  0  0
 37 29  2  0  0  0  0
 33 38  2  0  0  0  0
 38 39  1  0  0  0  0
 39 40  1  0  0  0  0
 40 34  2  0  0  0  0
 27 41  1  0  0  0  0
 41 42  2  0  0  0  0
 32 43  1  0  0  0  0
 43 44  2  0  0  0  0
 39 45  1  0  0  0  0
 36 46  1  0  0  0  0
 44 47  1  0  0  0  0
 47 48  1  0  0  0  0
 48 49  1  0  0  0  0
 49 50  1  0  0  0  0
 50 44  1  0  0  0  0
 42 51  1  0  0  0  0
 51 52  1  0  0  0  0
 52 53  1  0  0  0  0
 53 54  1  0  0  0  0
 54 42  1  0  0  0  0
 52 55  1  0  0  0  0
 51 56  2  0  0  0  0
 53 57  2  0  0  0  0
 57 58  1  0  0  0  0
 57 59  1  0  0  0  0
 23 60  2  0  0  0  0
 60 61  1  0  0  0  0
 61 62  2  0  0  0  0
 62 63  1  0  0  0  0
 63 64  2  0  0  0  0
 64 23  1  0  0  0  0
 24 65  2  0  0  0  0
 65 66  1  0  0  0  0
 66 67  2  0  0  0  0
 67 68  1  0  0  0  0
 68 69  2  0  0  0  0
 69 24  1  0  0  0  0
 21 70  2  0  0  0  0
 70 71  1  0  0  0  0
 71 72  2  0  0  0  0
 72 73  1  0  0  0  0
 73 74  2  0  0  0  0
 74 21  1  0  0  0  0
 22 75  2  0  0  0  0
 75 76  1  0  0  0  0
 76 77  2  0  0  0  0
 77 78  1  0  0  0  0
 78 79  2  0  0  0  0
 79 22  1  0  0  0  0
 47 80  2  0  0  0  0
 48 81  1  0  0  0  0
 49 82  2  0  0  0  0
 82 83  1  0  0  0  0
 82 84  1  0  0  0  0
 58 85  3  0  0  0  0
 59 86  3  0  0  0  0
 84 87  3  0  0  0  0
 83 88  3  0  0  0  0
 72 89  1  0  0  0  0
 77 90  1  0  0  0  0
 67 91  1  0  0  0  0
 62 92  1  0  0  0  0
 55 93  2  0  0  0  0
 93 94  1  0  0  0  0
 94 95  2  0  0  0  0
 95 96  1  0  0  0  0
 96 97  2  0  0  0  0
 97 55  1  0  0  0  0
 81 98  2  0  0  0  0
 98 99  1  0  0  0  0
 99100  2  0  0  0  0
100101  1  0  0  0  0
101102  2  0  0  0  0
102 81  1  0  0  0  0
 45103  1  0  0  0  0
 90104  1  0  0  0  0
 89105  1  0  0  0  0
 91106  1  0  0  0  0
 92107  1  0  0  0  0
 46108  1  0  0  0  0
  3109  1  0  0  0  0
  6110  1  0  0  0  0
 10111  1  0  0  0  0
 16112  1  0  0  0  0
 25113  1  0  0  0  0
 26114  1  0  0  0  0
 30115  1  0  0  0  0
 31116  1  0  0  0  0
 41117  1  0  0  0  0
 43118  1  0  0  0  0
 45119  1  0  0  0  0
 45120  1  0  0  0  0
 46121  1  0  0  0  0
 46122  1  0  0  0  0
 60123  1  0  0  0  0
 61124  1  0  0  0  0
 63125  1  0  0  0  0
 64126  1  0  0  0  0
 65127  1  0  0  0  0
 66128  1  0  0  0  0
 68129  1  0  0  0  0
 69130  1  0  0  0  0
 70131  1  0  0  0  0
 71132  1  0  0  0  0
 73133  1  0  0  0  0
 74134  1  0  0  0  0
 75135  1  0  0  0  0
 76136  1  0  0  0  0
 78137  1  0  0  0  0
 79138  1  0  0  0  0
 89139  1  0  0  0  0
 89140  1  0  0  0  0
 90141  1  0  0  0  0
 90142  1  0  0  0  0
 91143  1  0  0  0  0
 91144  1  0  0  0  0
 92145  1  0  0  0  0
 92146  1  0  0  0  0
 93147  1  0  0  0  0
 94148  1  0  0  0  0
 95149  1  0  0  0  0
 96150  1  0  0  0  0
 97151  1  0  0  0  0
 98152  1  0  0  0  0
 99153  1  0  0  0  0
100154  1  0  0  0  0
101155  1  0  0  0  0
102156  1  0  0  0  0
103157  1  0  0  0  0
103158  1  0  0  0  0
103159  1  0  0  0  0
104160  1  0  0  0  0
104161  1  0  0  0  0
104162  1  0  0  0  0
105163  1  0  0  0  0
105164  1  0  0  0  0
105165  1  0  0  0  0
106166  1  0  0  0  0
106167  1  0  0  0  0
106168  1  0  0  0  0
107169  1  0  0  0  0
107170  1  0  0  0  0
107171  1  0  0  0  0
108172  1  0  0  0  0
108173  1  0  0  0  0
108174  1  0  0  0  0
M  END
