SCF done       -184.308933424867          0.000597020151
 OpenBabel12282109493D

107118  0  0  0  0  0  0  0  0999 V2000
    0.8597    0.1828   -0.7106 S   0  0  0  0  0  0  0  0  0  0  0  0
   -0.0475   -1.1435   -0.6748 N   0  0  0  0  0  0  0  0  0  0  0  0
   -1.2894   -0.8169   -0.3224 C   0  0  0  0  0  0  0  0  0  0  0  0
   -1.4222    0.5995   -0.0888 C   0  0  0  0  0  0  0  0  0  0  0  0
   -0.2714    1.2408   -0.2820 N   0  0  0  0  0  0  0  0  0  0  0  0
   -2.4022   -1.6908   -0.1772 C   0  0  0  0  0  0  0  0  0  0  0  0
   -3.5965   -1.0931    0.2089 C   0  0  0  0  0  0  0  0  0  0  0  0
   -3.7213    0.2685    0.4457 C   0  0  0  0  0  0  0  0  0  0  0  0
   -2.6660    1.1631    0.3088 C   0  0  0  0  0  0  0  0  0  0  0  0
   -2.8187    2.5624    0.5579 C   0  0  0  0  0  0  0  0  0  0  0  0
   -2.2985   -3.0963   -0.4164 C   0  0  0  0  0  0  0  0  0  0  0  0
   -1.1651   -3.8212   -0.7480 C   0  0  0  0  0  0  0  0  0  0  0  0
   -1.4223   -5.1772   -0.8969 C   0  0  0  0  0  0  0  0  0  0  0  0
   -2.7709   -5.4893   -0.7062 C   0  0  0  0  0  0  0  0  0  0  0  0
   -3.7198   -4.1185   -0.3053 S   0  0  0  0  0  0  0  0  0  0  0  0
   -0.6307   -6.4129   -1.2617 C   0  0  0  0  0  0  0  0  0  0  0  0
   -1.7305   -7.4521   -1.2569 C   0  0  0  0  0  0  0  0  0  0  0  0
   -2.9646   -6.8669   -0.9252 C   0  0  0  0  0  0  0  0  0  0  0  0
   -1.8214   -8.8141   -1.4559 C   0  0  0  0  0  0  0  0  0  0  0  0
   -3.1228   -9.2943   -1.3095 C   0  0  0  0  0  0  0  0  0  0  0  0
   -4.2457   -7.9916   -0.8919 S   0  0  0  0  0  0  0  0  0  0  0  0
   -1.8831    3.5683    0.3755 C   0  0  0  0  0  0  0  0  0  0  0  0
   -2.3760    4.8195    0.7163 C   0  0  0  0  0  0  0  0  0  0  0  0
   -3.6939    4.7759    1.1757 C   0  0  0  0  0  0  0  0  0  0  0  0
   -4.3394    3.1870    1.1733 S   0  0  0  0  0  0  0  0  0  0  0  0
   -1.8406    6.2317    0.7489 C   0  0  0  0  0  0  0  0  0  0  0  0
   -3.0570    6.9750    1.2478 C   0  0  0  0  0  0  0  0  0  0  0  0
   -4.1126    6.0812    1.5020 C   0  0  0  0  0  0  0  0  0  0  0  0
   -3.3953    8.2884    1.4978 C   0  0  0  0  0  0  0  0  0  0  0  0
   -4.7013    8.4273    1.9688 C   0  0  0  0  0  0  0  0  0  0  0  0
   -5.5151    6.8592    2.0802 S   0  0  0  0  0  0  0  0  0  0  0  0
   -3.6888  -10.5698   -1.4505 C   0  0  0  0  0  0  0  0  0  0  0  0
   -3.1325  -11.7966   -1.7182 C   0  0  0  0  0  0  0  0  0  0  0  0
   -3.9174  -13.0126   -1.8510 C   0  0  0  0  0  0  0  0  0  0  0  0
   -2.9876  -14.1380   -1.9337 C   0  0  0  0  0  0  0  0  0  0  0  0
   -1.6767  -13.6355   -1.9392 C   0  0  0  0  0  0  0  0  0  0  0  0
   -1.7049  -12.1632   -1.8383 C   0  0  0  0  0  0  0  0  0  0  0  0
   -3.1950  -15.5067   -2.0044 C   0  0  0  0  0  0  0  0  0  0  0  0
   -2.0879  -16.3417   -2.0847 C   0  0  0  0  0  0  0  0  0  0  0  0
   -0.7962  -15.8357   -2.0973 C   0  0  0  0  0  0  0  0  0  0  0  0
   -0.5777  -14.4676   -2.0230 C   0  0  0  0  0  0  0  0  0  0  0  0
   -5.2808  -13.1201   -1.9499 C   0  0  0  0  0  0  0  0  0  0  0  0
   -0.7257  -11.4422   -1.8505 O   0  0  0  0  0  0  0  0  0  0  0  0
   -5.9694  -14.3435   -2.0942 C   0  0  0  0  0  0  0  0  0  0  0  0
   -6.2090  -12.0571   -1.9633 C   0  0  0  0  0  0  0  0  0  0  0  0
   -6.6016  -15.2950   -2.2091 N   0  0  0  0  0  0  0  0  0  0  0  0
   -7.0387  -11.2634   -2.0085 N   0  0  0  0  0  0  0  0  0  0  0  0
    0.4013   -6.7847   -0.1784 C   0  0  0  0  0  0  0  0  0  0  0  0
   -0.0211   -6.2143   -2.6638 C   0  0  0  0  0  0  0  0  0  0  0  0
    1.5413   -5.7891   -0.0114 C   0  0  0  0  0  0  0  0  0  0  0  0
    0.7802   -7.3977   -3.1890 C   0  0  0  0  0  0  0  0  0  0  0  0
   -1.4024    6.7178   -0.6416 C   0  0  0  0  0  0  0  0  0  0  0  0
   -2.4850    6.5296   -1.6981 C   0  0  0  0  0  0  0  0  0  0  0  0
   -0.6783    6.2787    1.7657 C   0  0  0  0  0  0  0  0  0  0  0  0
   -5.4507    9.5379    2.3831 C   0  0  0  0  0  0  0  0  0  0  0  0
   -5.1692   10.8821    2.3943 C   0  0  0  0  0  0  0  0  0  0  0  0
   -6.0898   11.8820    2.9085 C   0  0  0  0  0  0  0  0  0  0  0  0
   -5.5553   13.1994    2.5673 C   0  0  0  0  0  0  0  0  0  0  0  0
   -4.3074   13.0283    1.9472 C   0  0  0  0  0  0  0  0  0  0  0  0
   -3.9939   11.5897    1.8422 C   0  0  0  0  0  0  0  0  0  0  0  0
   -6.0561   14.4783    2.7541 C   0  0  0  0  0  0  0  0  0  0  0  0
   -5.2958   15.5575    2.3221 C   0  0  0  0  0  0  0  0  0  0  0  0
   -4.0600   15.3793    1.7173 C   0  0  0  0  0  0  0  0  0  0  0  0
   -3.5516   14.1031    1.5220 C   0  0  0  0  0  0  0  0  0  0  0  0
   -2.9674   11.1288    1.3812 O   0  0  0  0  0  0  0  0  0  0  0  0
   -7.2262   11.6687    3.6457 C   0  0  0  0  0  0  0  0  0  0  0  0
   -8.0611   12.6994    4.1275 C   0  0  0  0  0  0  0  0  0  0  0  0
   -7.7243   10.4207    4.0770 C   0  0  0  0  0  0  0  0  0  0  0  0
   -8.1947    9.4586    4.4934 N   0  0  0  0  0  0  0  0  0  0  0  0
   -8.7907   13.4801    4.5477 N   0  0  0  0  0  0  0  0  0  0  0  0
   -0.0859    7.6612    2.0026 C   0  0  0  0  0  0  0  0  0  0  0  0
   -4.4680   -1.7193    0.3323 H   0  0  0  0  0  0  0  0  0  0  0  0
   -4.6849    0.6527    0.7469 H   0  0  0  0  0  0  0  0  0  0  0  0
   -0.2139   -3.3395   -0.8749 H   0  0  0  0  0  0  0  0  0  0  0  0
   -1.0064   -9.4739   -1.6885 H   0  0  0  0  0  0  0  0  0  0  0  0
   -0.8973    3.3615    0.0033 H   0  0  0  0  0  0  0  0  0  0  0  0
   -2.7618    9.1424    1.3448 H   0  0  0  0  0  0  0  0  0  0  0  0
   -4.7631  -10.5672   -1.3071 H   0  0  0  0  0  0  0  0  0  0  0  0
   -4.1853  -15.9309   -1.9934 H   0  0  0  0  0  0  0  0  0  0  0  0
   -2.2411  -17.4092   -2.1385 H   0  0  0  0  0  0  0  0  0  0  0  0
    0.0426  -16.5122   -2.1634 H   0  0  0  0  0  0  0  0  0  0  0  0
    0.4175  -14.0499   -2.0283 H   0  0  0  0  0  0  0  0  0  0  0  0
   -0.1337   -6.8746    0.7708 H   0  0  0  0  0  0  0  0  0  0  0  0
    0.8044   -7.7690   -0.4196 H   0  0  0  0  0  0  0  0  0  0  0  0
   -0.8431   -6.0059   -3.3539 H   0  0  0  0  0  0  0  0  0  0  0  0
    0.6124   -5.3263   -2.6350 H   0  0  0  0  0  0  0  0  0  0  0  0
    1.1640   -4.8101    0.2705 H   0  0  0  0  0  0  0  0  0  0  0  0
    2.2082   -6.1344    0.7756 H   0  0  0  0  0  0  0  0  0  0  0  0
    2.1203   -5.6920   -0.9254 H   0  0  0  0  0  0  0  0  0  0  0  0
    0.1645   -8.2899   -3.2512 H   0  0  0  0  0  0  0  0  0  0  0  0
    1.1464   -7.1689   -4.1876 H   0  0  0  0  0  0  0  0  0  0  0  0
    1.6373   -7.6092   -2.5561 H   0  0  0  0  0  0  0  0  0  0  0  0
   -1.1521    7.7767   -0.5764 H   0  0  0  0  0  0  0  0  0  0  0  0
   -0.5064    6.1676   -0.9355 H   0  0  0  0  0  0  0  0  0  0  0  0
   -3.3879    7.0703   -1.4234 H   0  0  0  0  0  0  0  0  0  0  0  0
   -2.1386    6.9086   -2.6564 H   0  0  0  0  0  0  0  0  0  0  0  0
   -2.7356    5.4776   -1.8161 H   0  0  0  0  0  0  0  0  0  0  0  0
   -1.0469    5.8823    2.7153 H   0  0  0  0  0  0  0  0  0  0  0  0
    0.1033    5.6052    1.4073 H   0  0  0  0  0  0  0  0  0  0  0  0
   -6.4332    9.2649    2.7503 H   0  0  0  0  0  0  0  0  0  0  0  0
   -7.0137   14.6495    3.2171 H   0  0  0  0  0  0  0  0  0  0  0  0
   -5.6797   16.5569    2.4622 H   0  0  0  0  0  0  0  0  0  0  0  0
   -3.4929   16.2399    1.3955 H   0  0  0  0  0  0  0  0  0  0  0  0
   -2.5942   13.9386    1.0519 H   0  0  0  0  0  0  0  0  0  0  0  0
   -0.8401    8.3515    2.3688 H   0  0  0  0  0  0  0  0  0  0  0  0
    0.7011    7.5910    2.7502 H   0  0  0  0  0  0  0  0  0  0  0  0
    0.3486    8.0672    1.0936 H   0  0  0  0  0  0  0  0  0  0  0  0
  1  2  1  0  0  0  0
  1  5  1  0  0  0  0
  2  3  2  0  0  0  0
  3  6  1  0  0  0  0
  3  4  1  0  0  0  0
  4  9  1  0  0  0  0
  5  4  2  0  0  0  0
  6  7  2  0  0  0  0
  7 72  1  0  0  0  0
  7  8  1  0  0  0  0
  8 73  1  0  0  0  0
  9  8  2  0  0  0  0
  9 10  1  0  0  0  0
 10 25  1  0  0  0  0
 11 15  1  0  0  0  0
 11  6  1  0  0  0  0
 12 11  2  0  0  0  0
 13 12  1  0  0  0  0
 13 14  2  0  0  0  0
 14 15  1  0  0  0  0
 16 17  1  0  0  0  0
 16 13  1  0  0  0  0
 16 48  1  0  0  0  0
 17 18  2  0  0  0  0
 18 21  1  0  0  0  0
 18 14  1  0  0  0  0
 19 20  2  0  0  0  0
 19 17  1  0  0  0  0
 20 21  1  0  0  0  0
 22 10  2  0  0  0  0
 22 23  1  0  0  0  0
 23 26  1  0  0  0  0
 23 24  2  0  0  0  0
 24 28  1  0  0  0  0
 25 24  1  0  0  0  0
 26 27  1  0  0  0  0
 26 54  1  0  0  0  0
 27 29  1  0  0  0  0
 27 28  2  0  0  0  0
 28 31  1  0  0  0  0
 29 30  2  0  0  0  0
 30 31  1  0  0  0  0
 30 55  1  0  0  0  0
 32 20  1  0  0  0  0
 32 78  1  0  0  0  0
 33 32  2  0  0  0  0
 34 33  1  0  0  0  0
 35 34  1  0  0  0  0
 36 35  1  0  0  0  0
 36 37  1  0  0  0  0
 37 33  1  0  0  0  0
 38 79  1  0  0  0  0
 38 35  2  0  0  0  0
 39 38  1  0  0  0  0
 40 39  2  0  0  0  0
 40 41  1  0  0  0  0
 41 36  2  0  0  0  0
 42 34  2  0  0  0  0
 43 37  2  0  0  0  0
 44 42  1  0  0  0  0
 45 42  1  0  0  0  0
 46 44  3  0  0  0  0
 47 45  3  0  0  0  0
 48 50  1  0  0  0  0
 48 83  1  0  0  0  0
 49 86  1  0  0  0  0
 49 16  1  0  0  0  0
 50 87  1  0  0  0  0
 50 88  1  0  0  0  0
 51 49  1  0  0  0  0
 51 92  1  0  0  0  0
 52 93  1  0  0  0  0
 52 26  1  0  0  0  0
 53 95  1  0  0  0  0
 53 52  1  0  0  0  0
 54 71  1  0  0  0  0
 54 98  1  0  0  0  0
 55 56  2  0  0  0  0
 55100  1  0  0  0  0
 56 57  1  0  0  0  0
 57 66  2  0  0  0  0
 58 61  1  0  0  0  0
 58 57  1  0  0  0  0
 59 58  2  0  0  0  0
 60 59  1  0  0  0  0
 60 56  1  0  0  0  0
 61101  1  0  0  0  0
 62102  1  0  0  0  0
 62 61  2  0  0  0  0
 63 62  1  0  0  0  0
 64 63  2  0  0  0  0
 64 59  1  0  0  0  0
 65 60  2  0  0  0  0
 66 68  1  0  0  0  0
 66 67  1  0  0  0  0
 67 70  3  0  0  0  0
 68 69  3  0  0  0  0
 71105  1  0  0  0  0
 71106  1  0  0  0  0
 74 12  1  0  0  0  0
 75 19  1  0  0  0  0
 76 22  1  0  0  0  0
 77 29  1  0  0  0  0
 80 39  1  0  0  0  0
 81 40  1  0  0  0  0
 82 41  1  0  0  0  0
 84 48  1  0  0  0  0
 85 49  1  0  0  0  0
 89 50  1  0  0  0  0
 90 51  1  0  0  0  0
 91 51  1  0  0  0  0
 94 52  1  0  0  0  0
 96 53  1  0  0  0  0
 97 53  1  0  0  0  0
 99 54  1  0  0  0  0
103 63  1  0  0  0  0
104 64  1  0  0  0  0
107 71  1  0  0  0  0
M  END
