BTIC-4F.mol
  xtb     01102217433D
 energy: -225.091221823149 gnorm: 0.000296182134 xtb: 6.4.1 (unknown)
120132  0     0  0            999 V2000
    2.4856   -4.9624    7.5425 O   0  0  0  0  0  0  0  0  0  0  0  0
    2.7528   -5.7286    8.4508 C   0  0  0  0  0  0  0  0  0  0  0  0
    3.1055   -7.1453    8.3591 C   0  0  0  0  0  0  0  0  0  0  0  0
    3.1821   -7.8792    7.1964 C   0  0  0  0  0  0  0  0  0  0  0  0
    2.9461   -7.5108    5.8705 C   0  0  0  0  0  0  0  0  0  0  0  0
    3.0461   -8.4392    4.8167 C   0  0  0  0  0  0  0  0  0  0  0  0
    2.7427   -7.8969    3.5927 C   0  0  0  0  0  0  0  0  0  0  0  0
    2.6612   -8.3667    2.1585 C   0  0  0  0  0  0  0  0  0  0  0  0
    1.4922   -9.3530    1.9378 C   0  0  0  0  0  0  0  0  0  0  0  0
    1.5999  -10.6642    2.7041 C   0  0  0  0  0  0  0  0  0  0  0  0
    3.9964   -8.9439    1.6628 C   0  0  0  0  0  0  0  0  0  0  0  0
    5.1354   -7.9335    1.7324 C   0  0  0  0  0  0  0  0  0  0  0  0
    2.4338   -6.5250    3.6918 C   0  0  0  0  0  0  0  0  0  0  0  0
    2.4841   -5.9161    5.2859 S   0  0  0  0  0  0  0  0  0  0  0  0
    2.1747   -6.0343    2.3963 C   0  0  0  0  0  0  0  0  0  0  0  0
    2.3110   -7.0685    1.4679 C   0  0  0  0  0  0  0  0  0  0  0  0
    2.0521   -6.6625    0.1663 C   0  0  0  0  0  0  0  0  0  0  0  0
    1.7253   -5.3159    0.0946 C   0  0  0  0  0  0  0  0  0  0  0  0
    1.7420   -4.5443    1.6641 S   0  0  0  0  0  0  0  0  0  0  0  0
    1.3648   -4.5763   -1.0641 C   0  0  0  0  0  0  0  0  0  0  0  0
    1.0498   -2.8648   -0.9755 S   0  0  0  0  0  0  0  0  0  0  0  0
    1.1795   -5.0394   -2.3449 C   0  0  0  0  0  0  0  0  0  0  0  0
    0.7499   -4.0545   -3.2548 C   0  0  0  0  0  0  0  0  0  0  0  0
    0.5701   -4.4385   -4.6626 C   0  0  0  0  0  0  0  0  0  0  0  0
   -0.2975   -3.7526   -5.5031 N   0  0  0  0  0  0  0  0  0  0  0  0
   -0.6175   -4.4893   -6.7353 C   0  0  0  0  0  0  0  0  0  0  0  0
    0.3560   -4.1390   -7.8523 C   0  0  0  0  0  0  0  0  0  0  0  0
    1.1254   -5.4404   -5.0692 O   0  0  0  0  0  0  0  0  0  0  0  0
    0.6296   -2.8085   -2.6583 C   0  0  0  0  0  0  0  0  0  0  0  0
    0.2219   -1.6097   -3.2718 C   0  0  0  0  0  0  0  0  0  0  0  0
    0.4417   -0.0793   -2.4824 S   0  0  0  0  0  0  0  0  0  0  0  0
   -0.3904    0.7536   -3.7699 C   0  0  0  0  0  0  0  0  0  0  0  0
   -0.5963    2.1575   -3.7062 C   0  0  0  0  0  0  0  0  0  0  0  0
   -0.0136    3.0446   -2.8154 C   0  0  0  0  0  0  0  0  0  0  0  0
   -0.4724    4.3435   -2.9884 C   0  0  0  0  0  0  0  0  0  0  0  0
   -1.4040    4.4460   -4.0251 C   0  0  0  0  0  0  0  0  0  0  0  0
   -1.7190    2.9419   -4.7918 S   0  0  0  0  0  0  0  0  0  0  0  0
   -1.8381    5.7827   -4.1420 C   0  0  0  0  0  0  0  0  0  0  0  0
   -1.1572    6.5520   -3.1784 C   0  0  0  0  0  0  0  0  0  0  0  0
   -0.2000    5.6987   -2.3749 C   0  0  0  0  0  0  0  0  0  0  0  0
   -0.5954    5.7752   -0.8876 C   0  0  0  0  0  0  0  0  0  0  0  0
    0.2421    4.9176    0.0512 C   0  0  0  0  0  0  0  0  0  0  0  0
    1.2723    6.0669   -2.6528 C   0  0  0  0  0  0  0  0  0  0  0  0
    1.6826    7.4573   -2.1878 C   0  0  0  0  0  0  0  0  0  0  0  0
   -1.5812    7.8576   -3.1747 C   0  0  0  0  0  0  0  0  0  0  0  0
   -2.5801    8.1142   -4.1318 C   0  0  0  0  0  0  0  0  0  0  0  0
   -2.9801    6.6689   -5.0527 S   0  0  0  0  0  0  0  0  0  0  0  0
   -3.1637    9.3771   -4.2547 C   0  0  0  0  0  0  0  0  0  0  0  0
   -4.1832    9.8205   -5.0658 C   0  0  0  0  0  0  0  0  0  0  0  0
   -4.9093    9.0081   -6.0426 C   0  0  0  0  0  0  0  0  0  0  0  0
   -5.9475    9.8917   -6.6146 C   0  0  0  0  0  0  0  0  0  0  0  0
   -6.9035    9.5907   -7.5636 C   0  0  0  0  0  0  0  0  0  0  0  0
   -7.7813   10.5977   -7.9323 C   0  0  0  0  0  0  0  0  0  0  0  0
   -8.7269   10.3513   -8.8471 F   0  0  0  0  0  0  0  0  0  0  0  0
   -7.6899   11.8652   -7.3576 C   0  0  0  0  0  0  0  0  0  0  0  0
   -6.7269   12.1672   -6.4054 C   0  0  0  0  0  0  0  0  0  0  0  0
   -5.8455   11.1656   -6.0308 C   0  0  0  0  0  0  0  0  0  0  0  0
   -8.5519   12.8181   -7.7297 F   0  0  0  0  0  0  0  0  0  0  0  0
   -4.7153    7.8428   -6.3377 O   0  0  0  0  0  0  0  0  0  0  0  0
   -4.7410   11.1564   -5.0687 C   0  0  0  0  0  0  0  0  0  0  0  0
   -4.3356   12.2364   -4.3273 C   0  0  0  0  0  0  0  0  0  0  0  0
   -4.9405   13.5100   -4.3881 C   0  0  0  0  0  0  0  0  0  0  0  0
   -5.3863   14.5677   -4.3875 N   0  0  0  0  0  0  0  0  0  0  0  0
   -3.2671   12.2517   -3.4065 C   0  0  0  0  0  0  0  0  0  0  0  0
   -2.4155   12.3516   -2.6417 N   0  0  0  0  0  0  0  0  0  0  0  0
   -0.8009   -0.1301   -4.7352 C   0  0  0  0  0  0  0  0  0  0  0  0
   -0.4501   -1.4713   -4.4778 C   0  0  0  0  0  0  0  0  0  0  0  0
   -0.8896   -2.4935   -5.4400 C   0  0  0  0  0  0  0  0  0  0  0  0
   -1.7445   -2.1965   -6.2504 O   0  0  0  0  0  0  0  0  0  0  0  0
    3.3501   -7.6477    9.6947 C   0  0  0  0  0  0  0  0  0  0  0  0
    3.7063   -8.9203   10.0611 C   0  0  0  0  0  0  0  0  0  0  0  0
    3.9040  -10.0076    9.1845 C   0  0  0  0  0  0  0  0  0  0  0  0
    4.0814  -10.9432    8.5418 N   0  0  0  0  0  0  0  0  0  0  0  0
    3.9274   -9.3270   11.3943 C   0  0  0  0  0  0  0  0  0  0  0  0
    4.1222   -9.7246   12.4532 N   0  0  0  0  0  0  0  0  0  0  0  0
    3.1414   -6.5353   10.6250 C   0  0  0  0  0  0  0  0  0  0  0  0
    2.7847   -5.3927    9.8898 C   0  0  0  0  0  0  0  0  0  0  0  0
    2.5184   -4.1804   10.4936 C   0  0  0  0  0  0  0  0  0  0  0  0
    2.6135   -4.1170   11.8746 C   0  0  0  0  0  0  0  0  0  0  0  0
    2.3629   -2.9625   12.5042 F   0  0  0  0  0  0  0  0  0  0  0  0
    2.9672   -5.2452   12.6143 C   0  0  0  0  0  0  0  0  0  0  0  0
    3.0514   -5.1561   13.9465 F   0  0  0  0  0  0  0  0  0  0  0  0
    3.2350   -6.4631   12.0057 C   0  0  0  0  0  0  0  0  0  0  0  0
    3.4591   -8.9210    7.3025 H   0  0  0  0  0  0  0  0  0  0  0  0
    3.3413   -9.4574    4.9982 H   0  0  0  0  0  0  0  0  0  0  0  0
    0.5670   -8.8488    2.2281 H   0  0  0  0  0  0  0  0  0  0  0  0
    1.4332   -9.5633    0.8679 H   0  0  0  0  0  0  0  0  0  0  0  0
    0.7392  -11.2870    2.4720 H   0  0  0  0  0  0  0  0  0  0  0  0
    2.4959  -11.2131    2.4287 H   0  0  0  0  0  0  0  0  0  0  0  0
    1.6090  -10.4878    3.7757 H   0  0  0  0  0  0  0  0  0  0  0  0
    4.2516   -9.8095    2.2744 H   0  0  0  0  0  0  0  0  0  0  0  0
    3.8690   -9.2791    0.6317 H   0  0  0  0  0  0  0  0  0  0  0  0
    4.9305   -7.0727    1.1001 H   0  0  0  0  0  0  0  0  0  0  0  0
    5.2787   -7.5844    2.7525 H   0  0  0  0  0  0  0  0  0  0  0  0
    6.0607   -8.3936    1.3948 H   0  0  0  0  0  0  0  0  0  0  0  0
    2.0990   -7.2956   -0.7001 H   0  0  0  0  0  0  0  0  0  0  0  0
    1.3291   -6.0598   -2.6450 H   0  0  0  0  0  0  0  0  0  0  0  0
   -0.5599   -5.5540   -6.5077 H   0  0  0  0  0  0  0  0  0  0  0  0
   -1.6360   -4.2231   -7.0191 H   0  0  0  0  0  0  0  0  0  0  0  0
    1.3702   -4.4021   -7.5621 H   0  0  0  0  0  0  0  0  0  0  0  0
    0.3098   -3.0751   -8.0738 H   0  0  0  0  0  0  0  0  0  0  0  0
    0.0934   -4.6937   -8.7485 H   0  0  0  0  0  0  0  0  0  0  0  0
    0.7162    2.7236   -2.0939 H   0  0  0  0  0  0  0  0  0  0  0  0
   -1.6423    5.4711   -0.8084 H   0  0  0  0  0  0  0  0  0  0  0  0
   -0.5352    6.8188   -0.5765 H   0  0  0  0  0  0  0  0  0  0  0  0
    1.2916    5.1959    0.0138 H   0  0  0  0  0  0  0  0  0  0  0  0
    0.1479    3.8639   -0.1946 H   0  0  0  0  0  0  0  0  0  0  0  0
   -0.1069    5.0569    1.0719 H   0  0  0  0  0  0  0  0  0  0  0  0
    1.4326    5.9920   -3.7315 H   0  0  0  0  0  0  0  0  0  0  0  0
    1.9069    5.3185   -2.1761 H   0  0  0  0  0  0  0  0  0  0  0  0
    1.0955    8.2220   -2.6883 H   0  0  0  0  0  0  0  0  0  0  0  0
    1.5634    7.5689   -1.1139 H   0  0  0  0  0  0  0  0  0  0  0  0
    2.7297    7.6236   -2.4301 H   0  0  0  0  0  0  0  0  0  0  0  0
   -1.2313    8.6314   -2.5148 H   0  0  0  0  0  0  0  0  0  0  0  0
   -2.7414   10.1045   -3.5722 H   0  0  0  0  0  0  0  0  0  0  0  0
   -6.9708    8.6088   -8.0042 H   0  0  0  0  0  0  0  0  0  0  0  0
   -6.7007   13.1620   -5.9925 H   0  0  0  0  0  0  0  0  0  0  0  0
   -1.3441    0.1621   -5.6161 H   0  0  0  0  0  0  0  0  0  0  0  0
    2.2450   -3.3114    9.9166 H   0  0  0  0  0  0  0  0  0  0  0  0
    3.5035   -7.3031   12.6246 H   0  0  0  0  0  0  0  0  0  0  0  0
  1  2  2  0  0  0  0
  2  3  1  0  0  0  0
  3  4  2  0  0  0  0
  4  5  1  0  0  0  0
  5  6  2  0  0  0  0
  6  7  1  0  0  0  0
  7  8  1  0  0  0  0
  8  9  1  0  0  0  0
  9 10  1  0  0  0  0
  8 11  1  0  0  0  0
 11 12  1  0  0  0  0
  7 13  2  0  0  0  0
 13 14  1  0  0  0  0
  5 14  1  0  0  0  0
 13 15  1  0  0  0  0
 15 16  2  0  0  0  0
  8 16  1  0  0  0  0
 16 17  1  0  0  0  0
 17 18  2  0  0  0  0
 18 19  1  0  0  0  0
 15 19  1  0  0  0  0
 18 20  1  0  0  0  0
 20 21  1  0  0  0  0
 20 22  2  0  0  0  0
 22 23  1  0  0  0  0
 23 24  1  0  0  0  0
 24 25  1  0  0  0  0
 25 26  1  0  0  0  0
 26 27  1  0  0  0  0
 24 28  2  0  0  0  0
 23 29  2  0  0  0  0
 21 29  1  0  0  0  0
 29 30  1  0  0  0  0
 30 31  1  0  0  0  0
 31 32  1  0  0  0  0
 32 33  1  0  0  0  0
 33 34  2  0  0  0  0
 34 35  1  0  0  0  0
 35 36  2  0  0  0  0
 36 37  1  0  0  0  0
 33 37  1  0  0  0  0
 36 38  1  0  0  0  0
 38 39  2  0  0  0  0
 39 40  1  0  0  0  0
 35 40  1  0  0  0  0
 40 41  1  0  0  0  0
 41 42  1  0  0  0  0
 40 43  1  0  0  0  0
 43 44  1  0  0  0  0
 39 45  1  0  0  0  0
 45 46  2  0  0  0  0
 46 47  1  0  0  0  0
 38 47  1  0  0  0  0
 46 48  1  0  0  0  0
 48 49  2  0  0  0  0
 49 50  1  0  0  0  0
 50 51  1  0  0  0  0
 51 52  2  0  0  0  0
 52 53  1  0  0  0  0
 53 54  1  0  0  0  0
 53 55  2  0  0  0  0
 55 56  1  0  0  0  0
 56 57  2  0  0  0  0
 51 57  1  0  0  0  0
 55 58  1  0  0  0  0
 50 59  2  0  0  0  0
 49 60  1  0  0  0  0
 57 60  1  0  0  0  0
 60 61  2  0  0  0  0
 61 62  1  0  0  0  0
 62 63  3  0  0  0  0
 61 64  1  0  0  0  0
 64 65  3  0  0  0  0
 32 66  2  0  0  0  0
 30 67  2  0  0  0  0
 66 67  1  0  0  0  0
 67 68  1  0  0  0  0
 25 68  1  0  0  0  0
 68 69  2  0  0  0  0
  3 70  1  0  0  0  0
 70 71  2  0  0  0  0
 71 72  1  0  0  0  0
 72 73  3  0  0  0  0
 71 74  1  0  0  0  0
 74 75  3  0  0  0  0
 70 76  1  0  0  0  0
 76 77  2  0  0  0  0
  2 77  1  0  0  0  0
 77 78  1  0  0  0  0
 78 79  2  0  0  0  0
 79 80  1  0  0  0  0
 79 81  1  0  0  0  0
 81 82  1  0  0  0  0
 81 83  2  0  0  0  0
 76 83  1  0  0  0  0
  4 84  1  0  0  0  0
  6 85  1  0  0  0  0
  9 86  1  0  0  0  0
  9 87  1  0  0  0  0
 10 88  1  0  0  0  0
 10 89  1  0  0  0  0
 10 90  1  0  0  0  0
 11 91  1  0  0  0  0
 11 92  1  0  0  0  0
 12 93  1  0  0  0  0
 12 94  1  0  0  0  0
 12 95  1  0  0  0  0
 17 96  1  0  0  0  0
 22 97  1  0  0  0  0
 26 98  1  0  0  0  0
 26 99  1  0  0  0  0
 27100  1  0  0  0  0
 27101  1  0  0  0  0
 27102  1  0  0  0  0
 34103  1  0  0  0  0
 41104  1  0  0  0  0
 41105  1  0  0  0  0
 42106  1  0  0  0  0
 42107  1  0  0  0  0
 42108  1  0  0  0  0
 43109  1  0  0  0  0
 43110  1  0  0  0  0
 44111  1  0  0  0  0
 44112  1  0  0  0  0
 44113  1  0  0  0  0
 45114  1  0  0  0  0
 48115  1  0  0  0  0
 52116  1  0  0  0  0
 56117  1  0  0  0  0
 66118  1  0  0  0  0
 78119  1  0  0  0  0
 83120  1  0  0  0  0
M  END
