BTIC-2Br-m.sdf
  xtb     12202114113D
 energy: -181.480978876702 gnorm: 0.000565382287 xtb: 6.4.1 (unknown)
 97108  0     0  0            999 V2000
   -1.9121   -8.0961    1.4626 C   0  0  0  0  0  0  0  0  0  0  0  0
   -1.2313   -7.0881    1.5566 O   0  0  0  0  0  0  0  0  0  0  0  0
   -1.6341   -9.3928    2.1073 C   0  0  0  0  0  0  0  0  0  0  0  0
   -0.5827   -9.7440    2.9317 C   0  0  0  0  0  0  0  0  0  0  0  0
   -0.5338  -11.0380    3.4256 C   0  0  0  0  0  0  0  0  0  0  0  0
   -1.5325  -11.9394    3.0829 C   0  0  0  0  0  0  0  0  0  0  0  0
   -1.4459  -13.7076    3.7735 Br  0  0  0  0  0  0  0  0  0  0  0  0
   -2.5961  -11.6014    2.2533 C   0  0  0  0  0  0  0  0  0  0  0  0
   -2.6426  -10.3085    1.7608 C   0  0  0  0  0  0  0  0  0  0  0  0
   -3.6045   -9.6397    0.8804 C   0  0  0  0  0  0  0  0  0  0  0  0
   -4.7214  -10.2291    0.3456 C   0  0  0  0  0  0  0  0  0  0  0  0
   -5.0947  -11.5710    0.5725 C   0  0  0  0  0  0  0  0  0  0  0  0
   -5.4579  -12.6499    0.7194 N   0  0  0  0  0  0  0  0  0  0  0  0
   -5.6598   -9.6043   -0.5022 C   0  0  0  0  0  0  0  0  0  0  0  0
   -6.4696   -9.1692   -1.1917 N   0  0  0  0  0  0  0  0  0  0  0  0
   -3.1485   -8.2774    0.7014 C   0  0  0  0  0  0  0  0  0  0  0  0
   -3.7813   -7.3227   -0.0618 C   0  0  0  0  0  0  0  0  0  0  0  0
   -3.4643   -5.9855   -0.3055 C   0  0  0  0  0  0  0  0  0  0  0  0
   -2.0585   -5.1426    0.3501 S   0  0  0  0  0  0  0  0  0  0  0  0
   -2.5477   -3.6908   -0.4372 C   0  0  0  0  0  0  0  0  0  0  0  0
   -3.7355   -3.8627   -1.1716 C   0  0  0  0  0  0  0  0  0  0  0  0
   -4.2584   -5.1457   -1.1105 C   0  0  0  0  0  0  0  0  0  0  0  0
   -5.5401   -5.5293   -1.7736 C   0  0  0  0  0  0  0  0  0  0  0  0
   -6.7132   -5.4079   -0.7966 C   0  0  0  0  0  0  0  0  0  0  0  0
   -4.2736   -2.4064   -1.9899 S   0  0  0  0  0  0  0  0  0  0  0  0
   -2.9032   -1.5761   -1.3403 C   0  0  0  0  0  0  0  0  0  0  0  0
   -2.0845   -2.3768   -0.5359 C   0  0  0  0  0  0  0  0  0  0  0  0
   -1.0218   -1.6465   -0.0800 N   0  0  0  0  0  0  0  0  0  0  0  0
    0.0063   -2.3315    0.6690 C   0  0  0  0  0  0  0  0  0  0  0  0
   -1.1435   -0.3563   -0.5598 C   0  0  0  0  0  0  0  0  0  0  0  0
   -2.3157   -0.3074   -1.3791 C   0  0  0  0  0  0  0  0  0  0  0  0
   -2.6926    0.8447   -2.1030 C   0  0  0  0  0  0  0  0  0  0  0  0
   -3.7307    1.0143   -2.9068 N   0  0  0  0  0  0  0  0  0  0  0  0
   -3.6666    2.5130   -3.5148 S   0  0  0  0  0  0  0  0  0  0  0  0
   -2.3129    3.0024   -2.7740 N   0  0  0  0  0  0  0  0  0  0  0  0
   -1.8643    2.0077   -2.0244 C   0  0  0  0  0  0  0  0  0  0  0  0
   -0.7398    1.9833   -1.1713 C   0  0  0  0  0  0  0  0  0  0  0  0
   -0.3795    0.8354   -0.3999 C   0  0  0  0  0  0  0  0  0  0  0  0
    0.6982    1.1860    0.3940 N   0  0  0  0  0  0  0  0  0  0  0  0
    1.4185    0.5021    1.4422 C   0  0  0  0  0  0  0  0  0  0  0  0
    2.7585   -0.0408    0.9451 C   0  0  0  0  0  0  0  0  0  0  0  0
    1.0297    2.4838    0.1183 C   0  0  0  0  0  0  0  0  0  0  0  0
    0.1628    3.0030   -0.8475 C   0  0  0  0  0  0  0  0  0  0  0  0
    0.4689    4.6565   -1.2383 S   0  0  0  0  0  0  0  0  0  0  0  0
    1.7871    4.6711   -0.0836 C   0  0  0  0  0  0  0  0  0  0  0  0
    1.9533    3.4340    0.5604 C   0  0  0  0  0  0  0  0  0  0  0  0
    3.2431    3.4837    1.6973 S   0  0  0  0  0  0  0  0  0  0  0  0
    3.6108    5.1486    1.2399 C   0  0  0  0  0  0  0  0  0  0  0  0
    2.7119    5.6522    0.2990 C   0  0  0  0  0  0  0  0  0  0  0  0
    2.6704    7.0772   -0.1348 C   0  0  0  0  0  0  0  0  0  0  0  0
    1.2579    7.6507   -0.2041 C   0  0  0  0  0  0  0  0  0  0  0  0
    4.6749    5.7536    1.9326 C   0  0  0  0  0  0  0  0  0  0  0  0
    5.5223    6.7304    1.4751 C   0  0  0  0  0  0  0  0  0  0  0  0
    6.4704    7.4687    2.2806 C   0  0  0  0  0  0  0  0  0  0  0  0
    6.4881    7.5500    3.6484 C   0  0  0  0  0  0  0  0  0  0  0  0
    7.4262    8.3028    4.3851 C   0  0  0  0  0  0  0  0  0  0  0  0
    8.1660    8.8914    5.0359 N   0  0  0  0  0  0  0  0  0  0  0  0
    5.5583    6.9184    4.5014 C   0  0  0  0  0  0  0  0  0  0  0  0
    4.8235    6.4551    5.2524 N   0  0  0  0  0  0  0  0  0  0  0  0
    7.3531    8.1955    1.3685 C   0  0  0  0  0  0  0  0  0  0  0  0
    8.4301    9.0307    1.6120 C   0  0  0  0  0  0  0  0  0  0  0  0
    9.0735    9.5898    0.5139 C   0  0  0  0  0  0  0  0  0  0  0  0
   10.5553   10.7405    0.8171 Br  0  0  0  0  0  0  0  0  0  0  0  0
    8.6777    9.3385   -0.7930 C   0  0  0  0  0  0  0  0  0  0  0  0
    7.6037    8.4958   -1.0331 C   0  0  0  0  0  0  0  0  0  0  0  0
    6.9496    7.9360    0.0474 C   0  0  0  0  0  0  0  0  0  0  0  0
    5.7988    7.0082    0.0504 C   0  0  0  0  0  0  0  0  0  0  0  0
    5.2751    6.5062   -0.9231 O   0  0  0  0  0  0  0  0  0  0  0  0
   -0.3829   -2.5093    2.1368 C   0  0  0  0  0  0  0  0  0  0  0  0
    0.1784   -9.0209    3.1804 H   0  0  0  0  0  0  0  0  0  0  0  0
    0.2711  -11.3503    4.0727 H   0  0  0  0  0  0  0  0  0  0  0  0
   -3.3471  -12.3367    2.0155 H   0  0  0  0  0  0  0  0  0  0  0  0
   -4.6853   -7.6439   -0.5603 H   0  0  0  0  0  0  0  0  0  0  0  0
   -5.7054   -4.8515   -2.6134 H   0  0  0  0  0  0  0  0  0  0  0  0
   -5.4949   -6.5483   -2.1603 H   0  0  0  0  0  0  0  0  0  0  0  0
   -7.6379   -5.6778   -1.2981 H   0  0  0  0  0  0  0  0  0  0  0  0
   -6.5770   -6.0716    0.0539 H   0  0  0  0  0  0  0  0  0  0  0  0
   -6.7972   -4.3869   -0.4317 H   0  0  0  0  0  0  0  0  0  0  0  0
    0.9518   -1.8096    0.5565 H   0  0  0  0  0  0  0  0  0  0  0  0
    0.1216   -3.3243    0.2219 H   0  0  0  0  0  0  0  0  0  0  0  0
    1.6125    1.2369    2.2308 H   0  0  0  0  0  0  0  0  0  0  0  0
    0.7962   -0.2782    1.8690 H   0  0  0  0  0  0  0  0  0  0  0  0
    3.2340   -0.6239    1.7287 H   0  0  0  0  0  0  0  0  0  0  0  0
    2.6340   -0.6669    0.0637 H   0  0  0  0  0  0  0  0  0  0  0  0
    3.4185    0.7809    0.6802 H   0  0  0  0  0  0  0  0  0  0  0  0
    3.1472    7.1503   -1.1176 H   0  0  0  0  0  0  0  0  0  0  0  0
    3.2704    7.6713    0.5587 H   0  0  0  0  0  0  0  0  0  0  0  0
    0.6842    7.1954   -1.0060 H   0  0  0  0  0  0  0  0  0  0  0  0
    0.7330    7.4908    0.7351 H   0  0  0  0  0  0  0  0  0  0  0  0
    1.3116    8.7203   -0.3907 H   0  0  0  0  0  0  0  0  0  0  0  0
    4.8624    5.3476    2.9204 H   0  0  0  0  0  0  0  0  0  0  0  0
    8.7757    9.2481    2.6095 H   0  0  0  0  0  0  0  0  0  0  0  0
    9.2090    9.7989   -1.6114 H   0  0  0  0  0  0  0  0  0  0  0  0
    7.2765    8.2791   -2.0381 H   0  0  0  0  0  0  0  0  0  0  0  0
   -0.6860   -1.5666    2.5887 H   0  0  0  0  0  0  0  0  0  0  0  0
    0.4565   -2.9163    2.6932 H   0  0  0  0  0  0  0  0  0  0  0  0
   -1.2139   -3.2043    2.2190 H   0  0  0  0  0  0  0  0  0  0  0  0
  1  2  2  0  0  0  0
  1  3  1  0  0  0  0
  3  4  2  0  0  0  0
  4  5  1  0  0  0  0
  5  6  2  0  0  0  0
  6  7  1  0  0  0  0
  6  8  1  0  0  0  0
  8  9  2  0  0  0  0
  3  9  1  0  0  0  0
  9 10  1  0  0  0  0
 10 11  2  0  0  0  0
 11 12  1  0  0  0  0
 12 13  3  0  0  0  0
 11 14  1  0  0  0  0
 14 15  3  0  0  0  0
 10 16  1  0  0  0  0
  1 16  1  0  0  0  0
 16 17  2  0  0  0  0
 17 18  1  0  0  0  0
 18 19  1  0  0  0  0
 19 20  1  0  0  0  0
 20 21  2  0  0  0  0
 21 22  1  0  0  0  0
 22 23  1  0  0  0  0
 23 24  1  0  0  0  0
 18 22  2  0  0  0  0
 21 25  1  0  0  0  0
 25 26  1  0  0  0  0
 26 27  2  0  0  0  0
 20 27  1  0  0  0  0
 27 28  1  0  0  0  0
 28 29  1  0  0  0  0
 28 30  1  0  0  0  0
 30 31  2  0  0  0  0
 26 31  1  0  0  0  0
 31 32  1  0  0  0  0
 32 33  2  0  0  0  0
 33 34  1  0  0  0  0
 34 35  1  0  0  0  0
 35 36  2  0  0  0  0
 32 36  1  0  0  0  0
 36 37  1  0  0  0  0
 37 38  2  0  0  0  0
 30 38  1  0  0  0  0
 38 39  1  0  0  0  0
 39 40  1  0  0  0  0
 40 41  1  0  0  0  0
 39 42  1  0  0  0  0
 42 43  2  0  0  0  0
 37 43  1  0  0  0  0
 43 44  1  0  0  0  0
 44 45  1  0  0  0  0
 45 46  2  0  0  0  0
 42 46  1  0  0  0  0
 46 47  1  0  0  0  0
 47 48  1  0  0  0  0
 48 49  2  0  0  0  0
 45 49  1  0  0  0  0
 49 50  1  0  0  0  0
 50 51  1  0  0  0  0
 48 52  1  0  0  0  0
 52 53  2  0  0  0  0
 53 54  1  0  0  0  0
 54 55  2  0  0  0  0
 55 56  1  0  0  0  0
 56 57  3  0  0  0  0
 55 58  1  0  0  0  0
 58 59  3  0  0  0  0
 54 60  1  0  0  0  0
 60 61  2  0  0  0  0
 61 62  1  0  0  0  0
 62 63  1  0  0  0  0
 62 64  2  0  0  0  0
 64 65  1  0  0  0  0
 65 66  2  0  0  0  0
 60 66  1  0  0  0  0
 66 67  1  0  0  0  0
 67 68  2  0  0  0  0
 53 67  1  0  0  0  0
 29 69  1  0  0  0  0
  4 70  1  0  0  0  0
  5 71  1  0  0  0  0
  8 72  1  0  0  0  0
 17 73  1  0  0  0  0
 23 74  1  0  0  0  0
 23 75  1  0  0  0  0
 24 76  1  0  0  0  0
 24 77  1  0  0  0  0
 24 78  1  0  0  0  0
 29 79  1  0  0  0  0
 29 80  1  0  0  0  0
 40 81  1  0  0  0  0
 40 82  1  0  0  0  0
 41 83  1  0  0  0  0
 41 84  1  0  0  0  0
 41 85  1  0  0  0  0
 50 86  1  0  0  0  0
 50 87  1  0  0  0  0
 51 88  1  0  0  0  0
 51 89  1  0  0  0  0
 51 90  1  0  0  0  0
 52 91  1  0  0  0  0
 61 92  1  0  0  0  0
 64 93  1  0  0  0  0
 65 94  1  0  0  0  0
 69 95  1  0  0  0  0
 69 96  1  0  0  0  0
 69 97  1  0  0  0  0
M  END
