BTIC-4EO-4Br.mol
  xtb     01102217423D
 energy: -188.640882141617 gnorm: 0.000787188737 xtb: 6.4.1 (unknown)
 97108  0     0  0            999 V2000
   -5.1955    3.4553    0.0492 O   0  0  0  0  0  0  0  0  0  0  0  0
   -6.1650    4.0855   -0.3361 C   0  0  0  0  0  0  0  0  0  0  0  0
   -6.4747    4.5252   -1.6948 C   0  0  0  0  0  0  0  0  0  0  0  0
   -5.6960    4.3189   -2.8121 C   0  0  0  0  0  0  0  0  0  0  0  0
   -4.4754    3.6639   -2.9715 C   0  0  0  0  0  0  0  0  0  0  0  0
   -3.8129    3.5763   -4.2118 C   0  0  0  0  0  0  0  0  0  0  0  0
   -4.2706    4.1941   -5.4918 C   0  0  0  0  0  0  0  0  0  0  0  0
   -3.8601    5.6679   -5.5626 C   0  0  0  0  0  0  0  0  0  0  0  0
   -2.6211    2.8778   -4.0991 C   0  0  0  0  0  0  0  0  0  0  0  0
   -1.3843    2.4678   -5.2732 S   0  0  0  0  0  0  0  0  0  0  0  0
   -0.5109    1.6635   -4.0178 C   0  0  0  0  0  0  0  0  0  0  0  0
   -1.1406    1.7046   -2.7667 C   0  0  0  0  0  0  0  0  0  0  0  0
   -0.3827    1.0394   -1.8406 N   0  0  0  0  0  0  0  0  0  0  0  0
   -0.6625    1.2251   -0.4334 C   0  0  0  0  0  0  0  0  0  0  0  0
    0.3840    2.1166    0.2301 C   0  0  0  0  0  0  0  0  0  0  0  0
    0.7520    0.5676   -2.4776 C   0  0  0  0  0  0  0  0  0  0  0  0
    0.6936    0.9742   -3.8456 C   0  0  0  0  0  0  0  0  0  0  0  0
    1.7534    0.7426   -4.7505 C   0  0  0  0  0  0  0  0  0  0  0  0
    1.8437    1.0887   -6.0249 N   0  0  0  0  0  0  0  0  0  0  0  0
    3.2991    0.6422   -6.5748 S   0  0  0  0  0  0  0  0  0  0  0  0
    3.8682   -0.0115   -5.2079 N   0  0  0  0  0  0  0  0  0  0  0  0
    2.9373    0.0962   -4.2731 C   0  0  0  0  0  0  0  0  0  0  0  0
    2.9622   -0.3796   -2.9431 C   0  0  0  0  0  0  0  0  0  0  0  0
    1.8613   -0.2110   -2.0485 C   0  0  0  0  0  0  0  0  0  0  0  0
    2.1544   -0.8848   -0.8759 N   0  0  0  0  0  0  0  0  0  0  0  0
    1.2921   -1.3200    0.2008 C   0  0  0  0  0  0  0  0  0  0  0  0
    0.1744   -2.2250   -0.3109 C   0  0  0  0  0  0  0  0  0  0  0  0
    3.3937   -1.4501   -1.0118 C   0  0  0  0  0  0  0  0  0  0  0  0
    3.9251   -1.1384   -2.2705 C   0  0  0  0  0  0  0  0  0  0  0  0
    5.4956   -1.7999   -2.5560 S   0  0  0  0  0  0  0  0  0  0  0  0
    4.2522   -2.2512   -0.2544 C   0  0  0  0  0  0  0  0  0  0  0  0
    5.4394   -2.5251   -0.9602 C   0  0  0  0  0  0  0  0  0  0  0  0
    6.3385   -3.3247   -0.2722 C   0  0  0  0  0  0  0  0  0  0  0  0
    7.6768   -3.6934   -0.8221 C   0  0  0  0  0  0  0  0  0  0  0  0
    8.7522   -2.7201   -0.3304 C   0  0  0  0  0  0  0  0  0  0  0  0
    5.8438   -3.6763    0.9991 C   0  0  0  0  0  0  0  0  0  0  0  0
    6.5583   -4.4728    1.8932 C   0  0  0  0  0  0  0  0  0  0  0  0
    6.2502   -4.9134    3.1613 C   0  0  0  0  0  0  0  0  0  0  0  0
    7.1022   -5.7469    3.9832 C   0  0  0  0  0  0  0  0  0  0  0  0
    6.3996   -5.9734    5.2473 C   0  0  0  0  0  0  0  0  0  0  0  0
    6.7505   -6.6858    6.3812 C   0  0  0  0  0  0  0  0  0  0  0  0
    5.8578   -6.7237    7.4474 C   0  0  0  0  0  0  0  0  0  0  0  0
    6.3382   -7.6972    8.9964 Br  0  0  0  0  0  0  0  0  0  0  0  0
    4.6305   -6.0629    7.3895 C   0  0  0  0  0  0  0  0  0  0  0  0
    3.4354   -6.1328    8.8531 Br  0  0  0  0  0  0  0  0  0  0  0  0
    4.2732   -5.3458    6.2547 C   0  0  0  0  0  0  0  0  0  0  0  0
    5.1610   -5.3100    5.2009 C   0  0  0  0  0  0  0  0  0  0  0  0
    8.3379   -6.2546    3.6706 C   0  0  0  0  0  0  0  0  0  0  0  0
    9.0992   -7.0673    4.5372 C   0  0  0  0  0  0  0  0  0  0  0  0
    9.7653   -7.7319    5.1944 N   0  0  0  0  0  0  0  0  0  0  0  0
    9.0305   -6.0541    2.4583 C   0  0  0  0  0  0  0  0  0  0  0  0
    9.6571   -5.9382    1.5019 N   0  0  0  0  0  0  0  0  0  0  0  0
    5.0214   -4.6266    3.8984 C   0  0  0  0  0  0  0  0  0  0  0  0
    4.0625   -3.9673    3.5359 O   0  0  0  0  0  0  0  0  0  0  0  0
    4.2421   -2.9943    1.2999 S   0  0  0  0  0  0  0  0  0  0  0  0
   -2.3485    2.4060   -2.8007 C   0  0  0  0  0  0  0  0  0  0  0  0
   -3.5819    2.8501   -1.6828 S   0  0  0  0  0  0  0  0  0  0  0  0
   -7.7394    5.2297   -1.6789 C   0  0  0  0  0  0  0  0  0  0  0  0
   -8.4040    5.7908   -2.7399 C   0  0  0  0  0  0  0  0  0  0  0  0
   -7.9699    5.7854   -4.0819 C   0  0  0  0  0  0  0  0  0  0  0  0
   -7.6870    5.8225   -5.1951 N   0  0  0  0  0  0  0  0  0  0  0  0
   -9.6417    6.4599   -2.6306 C   0  0  0  0  0  0  0  0  0  0  0  0
  -10.6456    7.0161   -2.6094 N   0  0  0  0  0  0  0  0  0  0  0  0
   -8.2144    5.2390   -0.2942 C   0  0  0  0  0  0  0  0  0  0  0  0
   -9.3517    5.7743    0.2862 C   0  0  0  0  0  0  0  0  0  0  0  0
   -9.5352    5.6224    1.6569 C   0  0  0  0  0  0  0  0  0  0  0  0
  -11.0883    6.3555    2.4497 Br  0  0  0  0  0  0  0  0  0  0  0  0
   -8.6016    4.9464    2.4431 C   0  0  0  0  0  0  0  0  0  0  0  0
   -8.8761    4.7555    4.3040 Br  0  0  0  0  0  0  0  0  0  0  0  0
   -7.4589    4.4068    1.8663 C   0  0  0  0  0  0  0  0  0  0  0  0
   -7.2808    4.5601    0.5081 C   0  0  0  0  0  0  0  0  0  0  0  0
   -6.0808    4.7335   -3.7335 H   0  0  0  0  0  0  0  0  0  0  0  0
   -5.3529    4.1140   -5.6028 H   0  0  0  0  0  0  0  0  0  0  0  0
   -3.8014    3.6548   -6.3169 H   0  0  0  0  0  0  0  0  0  0  0  0
   -4.3088    6.2334   -4.7494 H   0  0  0  0  0  0  0  0  0  0  0  0
   -2.7788    5.7630   -5.4975 H   0  0  0  0  0  0  0  0  0  0  0  0
   -4.1928    6.0960   -6.5036 H   0  0  0  0  0  0  0  0  0  0  0  0
   -0.7530    0.2634    0.0710 H   0  0  0  0  0  0  0  0  0  0  0  0
   -1.6388    1.7118   -0.3727 H   0  0  0  0  0  0  0  0  0  0  0  0
    1.3842    1.7032    0.1219 H   0  0  0  0  0  0  0  0  0  0  0  0
    0.1597    2.2249    1.2876 H   0  0  0  0  0  0  0  0  0  0  0  0
    0.3742    3.1032   -0.2270 H   0  0  0  0  0  0  0  0  0  0  0  0
    1.9211   -1.8831    0.8942 H   0  0  0  0  0  0  0  0  0  0  0  0
    0.9001   -0.4634    0.7483 H   0  0  0  0  0  0  0  0  0  0  0  0
    0.5980   -3.1230   -0.7544 H   0  0  0  0  0  0  0  0  0  0  0  0
   -0.4689   -2.5192    0.5138 H   0  0  0  0  0  0  0  0  0  0  0  0
   -0.4267   -1.7246   -1.0669 H   0  0  0  0  0  0  0  0  0  0  0  0
    7.6231   -3.6426   -1.9114 H   0  0  0  0  0  0  0  0  0  0  0  0
    7.9530   -4.7104   -0.5406 H   0  0  0  0  0  0  0  0  0  0  0  0
    9.7155   -2.9963   -0.7489 H   0  0  0  0  0  0  0  0  0  0  0  0
    8.5137   -1.7051   -0.6395 H   0  0  0  0  0  0  0  0  0  0  0  0
    8.8285   -2.7449    0.7541 H   0  0  0  0  0  0  0  0  0  0  0  0
    7.5186   -4.7878    1.5092 H   0  0  0  0  0  0  0  0  0  0  0  0
    7.6887   -7.2096    6.4646 H   0  0  0  0  0  0  0  0  0  0  0  0
    3.3272   -4.8303    6.1977 H   0  0  0  0  0  0  0  0  0  0  0  0
  -10.0961    6.3030   -0.2863 H   0  0  0  0  0  0  0  0  0  0  0  0
   -6.7293    3.8819    2.4632 H   0  0  0  0  0  0  0  0  0  0  0  0
  1  2  2  0  0  0  0
  2  3  1  0  0  0  0
  3  4  2  0  0  0  0
  4  5  1  0  0  0  0
  5  6  2  0  0  0  0
  6  7  1  0  0  0  0
  7  8  1  0  0  0  0
  6  9  1  0  0  0  0
  9 10  1  0  0  0  0
 10 11  1  0  0  0  0
 11 12  2  0  0  0  0
 12 13  1  0  0  0  0
 13 14  1  0  0  0  0
 14 15  1  0  0  0  0
 13 16  1  0  0  0  0
 16 17  2  0  0  0  0
 11 17  1  0  0  0  0
 17 18  1  0  0  0  0
 18 19  2  0  0  0  0
 19 20  1  0  0  0  0
 20 21  1  0  0  0  0
 21 22  2  0  0  0  0
 18 22  1  0  0  0  0
 22 23  1  0  0  0  0
 23 24  2  0  0  0  0
 16 24  1  0  0  0  0
 24 25  1  0  0  0  0
 25 26  1  0  0  0  0
 26 27  1  0  0  0  0
 25 28  1  0  0  0  0
 28 29  2  0  0  0  0
 23 29  1  0  0  0  0
 29 30  1  0  0  0  0
 28 31  1  0  0  0  0
 31 32  2  0  0  0  0
 30 32  1  0  0  0  0
 32 33  1  0  0  0  0
 33 34  1  0  0  0  0
 34 35  1  0  0  0  0
 33 36  2  0  0  0  0
 36 37  1  0  0  0  0
 37 38  2  0  0  0  0
 38 39  1  0  0  0  0
 39 40  1  0  0  0  0
 40 41  2  0  0  0  0
 41 42  1  0  0  0  0
 42 43  1  0  0  0  0
 42 44  2  0  0  0  0
 44 45  1  0  0  0  0
 44 46  1  0  0  0  0
 46 47  2  0  0  0  0
 40 47  1  0  0  0  0
 39 48  2  0  0  0  0
 48 49  1  0  0  0  0
 49 50  3  0  0  0  0
 48 51  1  0  0  0  0
 51 52  3  0  0  0  0
 38 53  1  0  0  0  0
 47 53  1  0  0  0  0
 53 54  2  0  0  0  0
 36 55  1  0  0  0  0
 31 55  1  0  0  0  0
  9 56  2  0  0  0  0
 12 56  1  0  0  0  0
 56 57  1  0  0  0  0
  5 57  1  0  0  0  0
  3 58  1  0  0  0  0
 58 59  2  0  0  0  0
 59 60  1  0  0  0  0
 60 61  3  0  0  0  0
 59 62  1  0  0  0  0
 62 63  3  0  0  0  0
 58 64  1  0  0  0  0
 64 65  2  0  0  0  0
 65 66  1  0  0  0  0
 66 67  1  0  0  0  0
 66 68  2  0  0  0  0
 68 69  1  0  0  0  0
 68 70  1  0  0  0  0
 70 71  2  0  0  0  0
 64 71  1  0  0  0  0
  2 71  1  0  0  0  0
  4 72  1  0  0  0  0
  7 73  1  0  0  0  0
  7 74  1  0  0  0  0
  8 75  1  0  0  0  0
  8 76  1  0  0  0  0
  8 77  1  0  0  0  0
 14 78  1  0  0  0  0
 14 79  1  0  0  0  0
 15 80  1  0  0  0  0
 15 81  1  0  0  0  0
 15 82  1  0  0  0  0
 26 83  1  0  0  0  0
 26 84  1  0  0  0  0
 27 85  1  0  0  0  0
 27 86  1  0  0  0  0
 27 87  1  0  0  0  0
 34 88  1  0  0  0  0
 34 89  1  0  0  0  0
 35 90  1  0  0  0  0
 35 91  1  0  0  0  0
 35 92  1  0  0  0  0
 37 93  1  0  0  0  0
 41 94  1  0  0  0  0
 46 95  1  0  0  0  0
 65 96  1  0  0  0  0
 70 97  1  0  0  0  0
M  END
