BTP-S1.sdf
  xtb     12202113103D
 energy: -198.960283955449 gnorm: 0.000539217383 xtb: 6.4.1 (unknown)
 97108  0     0  0            999 V2000
    0.5737    4.0351   -6.4504 C   0  0  0  0  0  0  0  0  0  0  0  0
    0.5961    3.6548   -5.2942 O   0  0  0  0  0  0  0  0  0  0  0  0
    0.5084    5.4407   -6.9087 C   0  0  0  0  0  0  0  0  0  0  0  0
    0.3866    6.5913   -6.1510 C   0  0  0  0  0  0  0  0  0  0  0  0
    0.1894    7.8074   -6.8205 C   0  0  0  0  0  0  0  0  0  0  0  0
    0.0710    9.2622   -5.9300 Cl  0  0  0  0  0  0  0  0  0  0  0  0
    0.0425    7.8248   -8.2063 C   0  0  0  0  0  0  0  0  0  0  0  0
   -0.3040    9.3045   -8.9913 Cl  0  0  0  0  0  0  0  0  0  0  0  0
    0.1578    6.6503   -8.9691 C   0  0  0  0  0  0  0  0  0  0  0  0
    0.4717    5.4638   -8.3184 C   0  0  0  0  0  0  0  0  0  0  0  0
    0.6971    4.1029   -8.8039 C   0  0  0  0  0  0  0  0  0  0  0  0
    1.1445    3.7494  -10.0518 C   0  0  0  0  0  0  0  0  0  0  0  0
    1.6490    4.6355  -11.0286 C   0  0  0  0  0  0  0  0  0  0  0  0
    2.1809    5.2493  -11.8392 N   0  0  0  0  0  0  0  0  0  0  0  0
    1.3312    2.4217  -10.4937 C   0  0  0  0  0  0  0  0  0  0  0  0
    1.4899    1.3739  -10.9378 N   0  0  0  0  0  0  0  0  0  0  0  0
    0.5795    3.2184   -7.6598 C   0  0  0  0  0  0  0  0  0  0  0  0
    0.5124    1.8455   -7.7168 C   0  0  0  0  0  0  0  0  0  0  0  0
    0.4374    0.8872   -6.7052 C   0  0  0  0  0  0  0  0  0  0  0  0
    0.4319    1.2386   -4.9754 S   0  0  0  0  0  0  0  0  0  0  0  0
    0.2929   -0.4411   -4.6220 C   0  0  0  0  0  0  0  0  0  0  0  0
    0.2630   -1.2248   -5.7914 C   0  0  0  0  0  0  0  0  0  0  0  0
    0.3511   -0.4942   -6.9663 C   0  0  0  0  0  0  0  0  0  0  0  0
    0.3010   -1.1237   -8.3197 C   0  0  0  0  0  0  0  0  0  0  0  0
   -1.1269   -1.1117   -8.8733 C   0  0  0  0  0  0  0  0  0  0  0  0
    0.1040   -2.9440   -5.4820 S   0  0  0  0  0  0  0  0  0  0  0  0
    0.0612   -2.6017   -3.7880 C   0  0  0  0  0  0  0  0  0  0  0  0
    0.1870   -1.2391   -3.4808 C   0  0  0  0  0  0  0  0  0  0  0  0
    0.1032   -1.0594   -2.1264 N   0  0  0  0  0  0  0  0  0  0  0  0
   -0.0782    0.2704   -1.5880 C   0  0  0  0  0  0  0  0  0  0  0  0
   -0.0734   -2.2964   -1.5431 C   0  0  0  0  0  0  0  0  0  0  0  0
   -0.1339   -3.2777   -2.5782 C   0  0  0  0  0  0  0  0  0  0  0  0
   -0.4784   -4.6221   -2.3099 C   0  0  0  0  0  0  0  0  0  0  0  0
   -0.5982   -5.6287   -3.1605 N   0  0  0  0  0  0  0  0  0  0  0  0
   -1.1189   -6.9285   -2.3484 S   0  0  0  0  0  0  0  0  0  0  0  0
   -1.2124   -6.2562   -0.8792 N   0  0  0  0  0  0  0  0  0  0  0  0
   -0.8350   -4.9911   -0.9710 C   0  0  0  0  0  0  0  0  0  0  0  0
   -0.7029   -4.0338    0.0603 C   0  0  0  0  0  0  0  0  0  0  0  0
   -0.2276   -2.7132   -0.1961 C   0  0  0  0  0  0  0  0  0  0  0  0
   -0.0833   -2.0528    1.0117 N   0  0  0  0  0  0  0  0  0  0  0  0
    0.8319   -0.9929    1.3820 C   0  0  0  0  0  0  0  0  0  0  0  0
    2.2192   -1.5565    1.6868 C   0  0  0  0  0  0  0  0  0  0  0  0
   -0.4896   -2.9124    2.0005 C   0  0  0  0  0  0  0  0  0  0  0  0
   -0.8913   -4.1341    1.4451 C   0  0  0  0  0  0  0  0  0  0  0  0
   -1.4379   -5.2854    2.6135 S   0  0  0  0  0  0  0  0  0  0  0  0
   -1.1160   -4.1092    3.8757 C   0  0  0  0  0  0  0  0  0  0  0  0
   -0.6050   -2.8902    3.3912 C   0  0  0  0  0  0  0  0  0  0  0  0
   -0.3047   -1.7629    4.6565 S   0  0  0  0  0  0  0  0  0  0  0  0
   -0.8761   -2.9348    5.8485 C   0  0  0  0  0  0  0  0  0  0  0  0
   -1.2686   -4.1503    5.2529 C   0  0  0  0  0  0  0  0  0  0  0  0
   -1.8456   -5.3265    5.9694 C   0  0  0  0  0  0  0  0  0  0  0  0
   -3.3497   -5.1417    6.1914 C   0  0  0  0  0  0  0  0  0  0  0  0
   -0.9536   -2.7065    7.2224 C   0  0  0  0  0  0  0  0  0  0  0  0
   -0.6532   -1.5923    7.9741 C   0  0  0  0  0  0  0  0  0  0  0  0
   -0.8073   -1.4892    9.4102 C   0  0  0  0  0  0  0  0  0  0  0  0
   -1.2412   -2.4570   10.2801 C   0  0  0  0  0  0  0  0  0  0  0  0
   -1.6271   -3.7684    9.9323 C   0  0  0  0  0  0  0  0  0  0  0  0
   -1.9593   -4.8507    9.7349 N   0  0  0  0  0  0  0  0  0  0  0  0
   -1.3606   -2.2712   11.6739 C   0  0  0  0  0  0  0  0  0  0  0  0
   -1.4807   -2.1885   12.8123 N   0  0  0  0  0  0  0  0  0  0  0  0
   -0.4046   -0.1349    9.7966 C   0  0  0  0  0  0  0  0  0  0  0  0
   -0.3689    0.4961   11.0298 C   0  0  0  0  0  0  0  0  0  0  0  0
    0.0688    1.8120   11.0763 C   0  0  0  0  0  0  0  0  0  0  0  0
    0.1087    2.4387   12.2575 F   0  0  0  0  0  0  0  0  0  0  0  0
    0.4660    2.4943    9.9266 C   0  0  0  0  0  0  0  0  0  0  0  0
    0.8821    3.7634   10.0181 F   0  0  0  0  0  0  0  0  0  0  0  0
    0.4329    1.8708    8.6895 C   0  0  0  0  0  0  0  0  0  0  0  0
   -0.0046    0.5625    8.6446 C   0  0  0  0  0  0  0  0  0  0  0  0
   -0.1396   -0.3210    7.4674 C   0  0  0  0  0  0  0  0  0  0  0  0
    0.1344   -0.0252    6.3173 O   0  0  0  0  0  0  0  0  0  0  0  0
    1.2377    1.0458   -1.5195 C   0  0  0  0  0  0  0  0  0  0  0  0
   -0.2214    6.7290  -10.6396 Cl  0  0  0  0  0  0  0  0  0  0  0  0
    0.4603    6.5484   -4.4473 Cl  0  0  0  0  0  0  0  0  0  0  0  0
    0.4874    1.4193   -8.7100 H   0  0  0  0  0  0  0  0  0  0  0  0
    0.9675   -0.6111   -9.0151 H   0  0  0  0  0  0  0  0  0  0  0  0
    0.6354   -2.1587   -8.2259 H   0  0  0  0  0  0  0  0  0  0  0  0
   -1.1451   -1.5799   -9.8533 H   0  0  0  0  0  0  0  0  0  0  0  0
   -1.7930   -1.6610   -8.2120 H   0  0  0  0  0  0  0  0  0  0  0  0
   -1.4967   -0.0934   -8.9692 H   0  0  0  0  0  0  0  0  0  0  0  0
   -0.7589    0.8064   -2.2583 H   0  0  0  0  0  0  0  0  0  0  0  0
   -0.5675    0.1944   -0.6161 H   0  0  0  0  0  0  0  0  0  0  0  0
    0.9118   -0.2586    0.5906 H   0  0  0  0  0  0  0  0  0  0  0  0
    0.4252   -0.5102    2.2750 H   0  0  0  0  0  0  0  0  0  0  0  0
    2.6253   -2.0605    0.8117 H   0  0  0  0  0  0  0  0  0  0  0  0
    2.1729   -2.2680    2.5073 H   0  0  0  0  0  0  0  0  0  0  0  0
    2.8880   -0.7484    1.9688 H   0  0  0  0  0  0  0  0  0  0  0  0
   -1.6839   -6.2136    5.3538 H   0  0  0  0  0  0  0  0  0  0  0  0
   -1.3541   -5.4829    6.9305 H   0  0  0  0  0  0  0  0  0  0  0  0
   -3.8613   -5.0256    5.2389 H   0  0  0  0  0  0  0  0  0  0  0  0
   -3.5448   -4.2622    6.8005 H   0  0  0  0  0  0  0  0  0  0  0  0
   -3.7545   -6.0103    6.7025 H   0  0  0  0  0  0  0  0  0  0  0  0
   -1.3257   -3.5576    7.7758 H   0  0  0  0  0  0  0  0  0  0  0  0
   -0.6642    0.0157   11.9480 H   0  0  0  0  0  0  0  0  0  0  0  0
    0.7383    2.3942    7.7976 H   0  0  0  0  0  0  0  0  0  0  0  0
    2.0207    0.4663   -1.0349 H   0  0  0  0  0  0  0  0  0  0  0  0
    1.0907    1.9721   -0.9714 H   0  0  0  0  0  0  0  0  0  0  0  0
    1.5744    1.2956   -2.5217 H   0  0  0  0  0  0  0  0  0  0  0  0
  1  2  2  0  0  0  0
  1  3  1  0  0  0  0
  3  4  2  0  0  0  0
  4  5  1  0  0  0  0
  5  6  1  0  0  0  0
  5  7  2  0  0  0  0
  7  8  1  0  0  0  0
  7  9  1  0  0  0  0
  9 10  2  0  0  0  0
  3 10  1  0  0  0  0
 10 11  1  0  0  0  0
 11 12  2  0  0  0  0
 12 13  1  0  0  0  0
 13 14  3  0  0  0  0
 12 15  1  0  0  0  0
 15 16  3  0  0  0  0
 11 17  1  0  0  0  0
  1 17  1  0  0  0  0
 17 18  2  0  0  0  0
 18 19  1  0  0  0  0
 19 20  1  0  0  0  0
 20 21  1  0  0  0  0
 21 22  2  0  0  0  0
 22 23  1  0  0  0  0
 23 24  1  0  0  0  0
 24 25  1  0  0  0  0
 19 23  2  0  0  0  0
 22 26  1  0  0  0  0
 26 27  1  0  0  0  0
 27 28  2  0  0  0  0
 21 28  1  0  0  0  0
 28 29  1  0  0  0  0
 29 30  1  0  0  0  0
 29 31  1  0  0  0  0
 31 32  2  0  0  0  0
 27 32  1  0  0  0  0
 32 33  1  0  0  0  0
 33 34  2  0  0  0  0
 34 35  1  0  0  0  0
 35 36  1  0  0  0  0
 36 37  2  0  0  0  0
 33 37  1  0  0  0  0
 37 38  1  0  0  0  0
 38 39  2  0  0  0  0
 31 39  1  0  0  0  0
 39 40  1  0  0  0  0
 40 41  1  0  0  0  0
 41 42  1  0  0  0  0
 40 43  1  0  0  0  0
 43 44  2  0  0  0  0
 38 44  1  0  0  0  0
 44 45  1  0  0  0  0
 45 46  1  0  0  0  0
 46 47  2  0  0  0  0
 43 47  1  0  0  0  0
 47 48  1  0  0  0  0
 48 49  1  0  0  0  0
 49 50  2  0  0  0  0
 46 50  1  0  0  0  0
 50 51  1  0  0  0  0
 51 52  1  0  0  0  0
 49 53  1  0  0  0  0
 53 54  2  0  0  0  0
 54 55  1  0  0  0  0
 55 56  2  0  0  0  0
 56 57  1  0  0  0  0
 57 58  3  0  0  0  0
 56 59  1  0  0  0  0
 59 60  3  0  0  0  0
 55 61  1  0  0  0  0
 61 62  2  0  0  0  0
 62 63  1  0  0  0  0
 63 64  1  0  0  0  0
 63 65  2  0  0  0  0
 65 66  1  0  0  0  0
 65 67  1  0  0  0  0
 67 68  2  0  0  0  0
 61 68  1  0  0  0  0
 68 69  1  0  0  0  0
 69 70  2  0  0  0  0
 54 69  1  0  0  0  0
 30 71  1  0  0  0  0
  9 72  1  0  0  0  0
  4 73  1  0  0  0  0
 18 74  1  0  0  0  0
 24 75  1  0  0  0  0
 24 76  1  0  0  0  0
 25 77  1  0  0  0  0
 25 78  1  0  0  0  0
 25 79  1  0  0  0  0
 30 80  1  0  0  0  0
 30 81  1  0  0  0  0
 41 82  1  0  0  0  0
 41 83  1  0  0  0  0
 42 84  1  0  0  0  0
 42 85  1  0  0  0  0
 42 86  1  0  0  0  0
 51 87  1  0  0  0  0
 51 88  1  0  0  0  0
 52 89  1  0  0  0  0
 52 90  1  0  0  0  0
 52 91  1  0  0  0  0
 53 92  1  0  0  0  0
 62 93  1  0  0  0  0
 67 94  1  0  0  0  0
 71 95  1  0  0  0  0
 71 96  1  0  0  0  0
 71 97  1  0  0  0  0
M  END
