BTP-M.sdf
  xtb     12202113083D
 energy: -180.679800387411 gnorm: 0.000577395094 xtb: 6.4.1 (unknown)
103114  0     0  0            999 V2000
    2.3754    6.2106   -3.3368 C   0  0  0  0  0  0  0  0  0  0  0  0
    2.2726    5.0408   -3.0042 O   0  0  0  0  0  0  0  0  0  0  0  0
    3.0586    6.7204   -4.5355 C   0  0  0  0  0  0  0  0  0  0  0  0
    3.7385    6.0260   -5.5163 C   0  0  0  0  0  0  0  0  0  0  0  0
    4.3154    6.7451   -6.5519 C   0  0  0  0  0  0  0  0  0  0  0  0
    4.2173    8.1326   -6.6107 C   0  0  0  0  0  0  0  0  0  0  0  0
    4.8684    8.8956   -7.7201 C   0  0  0  0  0  0  0  0  0  0  0  0
    3.5263    8.8256   -5.6156 C   0  0  0  0  0  0  0  0  0  0  0  0
    2.9455    8.1216   -4.5766 C   0  0  0  0  0  0  0  0  0  0  0  0
    2.1809    8.5661   -3.4104 C   0  0  0  0  0  0  0  0  0  0  0  0
    1.8366    9.8669   -3.1426 C   0  0  0  0  0  0  0  0  0  0  0  0
    2.1771   10.9614   -3.9646 C   0  0  0  0  0  0  0  0  0  0  0  0
    2.4148   11.8981   -4.5850 N   0  0  0  0  0  0  0  0  0  0  0  0
    1.0908   10.3136   -2.0327 C   0  0  0  0  0  0  0  0  0  0  0  0
    0.4899   10.7605   -1.1605 N   0  0  0  0  0  0  0  0  0  0  0  0
    1.8573    7.3879   -2.6322 C   0  0  0  0  0  0  0  0  0  0  0  0
    1.2053    7.3895   -1.4233 C   0  0  0  0  0  0  0  0  0  0  0  0
    0.8418    6.3400   -0.5739 C   0  0  0  0  0  0  0  0  0  0  0  0
    1.1344    4.6292   -0.8946 S   0  0  0  0  0  0  0  0  0  0  0  0
    0.3800    4.2070    0.5972 C   0  0  0  0  0  0  0  0  0  0  0  0
   -0.0611    5.3416    1.3005 C   0  0  0  0  0  0  0  0  0  0  0  0
    0.1894    6.5442    0.6548 C   0  0  0  0  0  0  0  0  0  0  0  0
   -0.2485    7.8614    1.2066 C   0  0  0  0  0  0  0  0  0  0  0  0
   -1.6024    8.2727    0.6215 C   0  0  0  0  0  0  0  0  0  0  0  0
   -0.8135    4.9692    2.8408 S   0  0  0  0  0  0  0  0  0  0  0  0
   -0.5259    3.2922    2.5353 C   0  0  0  0  0  0  0  0  0  0  0  0
    0.0975    3.0368    1.3083 C   0  0  0  0  0  0  0  0  0  0  0  0
    0.3007    1.6914    1.1635 N   0  0  0  0  0  0  0  0  0  0  0  0
    1.0907    1.2222    0.0487 C   0  0  0  0  0  0  0  0  0  0  0  0
   -0.1956    1.0545    2.2848 C   0  0  0  0  0  0  0  0  0  0  0  0
   -0.6940    2.0581    3.1721 C   0  0  0  0  0  0  0  0  0  0  0  0
   -1.1601    1.7592    4.4712 C   0  0  0  0  0  0  0  0  0  0  0  0
   -1.6189    2.5875    5.3959 N   0  0  0  0  0  0  0  0  0  0  0  0
   -1.9517    1.7312    6.7296 S   0  0  0  0  0  0  0  0  0  0  0  0
   -1.5238    0.2707    6.1756 N   0  0  0  0  0  0  0  0  0  0  0  0
   -1.1065    0.4035    4.9267 C   0  0  0  0  0  0  0  0  0  0  0  0
   -0.6861   -0.5994    4.0257 C   0  0  0  0  0  0  0  0  0  0  0  0
   -0.2859   -0.3090    2.6846 C   0  0  0  0  0  0  0  0  0  0  0  0
   -0.0702   -1.5114    2.0388 N   0  0  0  0  0  0  0  0  0  0  0  0
    0.1471   -1.8462    0.6501 C   0  0  0  0  0  0  0  0  0  0  0  0
    1.5795   -2.3122    0.3901 C   0  0  0  0  0  0  0  0  0  0  0  0
   -0.2887   -2.5241    2.9327 C   0  0  0  0  0  0  0  0  0  0  0  0
   -0.6574   -1.9903    4.1729 C   0  0  0  0  0  0  0  0  0  0  0  0
   -0.9854   -3.1830    5.3807 S   0  0  0  0  0  0  0  0  0  0  0  0
   -0.6423   -4.4279    4.1932 C   0  0  0  0  0  0  0  0  0  0  0  0
   -0.2904   -3.9222    2.9294 C   0  0  0  0  0  0  0  0  0  0  0  0
   -0.0018   -5.1836    1.7901 S   0  0  0  0  0  0  0  0  0  0  0  0
   -0.3372   -6.3956    3.0277 C   0  0  0  0  0  0  0  0  0  0  0  0
   -0.6587   -5.8136    4.2665 C   0  0  0  0  0  0  0  0  0  0  0  0
   -1.0383   -6.5532    5.5077 C   0  0  0  0  0  0  0  0  0  0  0  0
   -2.5223   -6.9297    5.4858 C   0  0  0  0  0  0  0  0  0  0  0  0
   -0.2966   -7.7789    2.8281 C   0  0  0  0  0  0  0  0  0  0  0  0
   -0.0550   -8.5208    1.6980 C   0  0  0  0  0  0  0  0  0  0  0  0
   -0.0585   -9.9678    1.6310 C   0  0  0  0  0  0  0  0  0  0  0  0
   -0.2066  -10.8528    2.6690 C   0  0  0  0  0  0  0  0  0  0  0  0
   -0.3885  -10.5127    4.0252 C   0  0  0  0  0  0  0  0  0  0  0  0
   -0.5330  -10.3227    5.1497 N   0  0  0  0  0  0  0  0  0  0  0  0
   -0.1844  -12.2555    2.5233 C   0  0  0  0  0  0  0  0  0  0  0  0
   -0.1789  -13.4031    2.4802 N   0  0  0  0  0  0  0  0  0  0  0  0
    0.1519  -10.3395    0.2312 C   0  0  0  0  0  0  0  0  0  0  0  0
    0.2031  -11.5733   -0.3924 C   0  0  0  0  0  0  0  0  0  0  0  0
    0.4221  -11.6361   -1.7687 C   0  0  0  0  0  0  0  0  0  0  0  0
    0.4526  -12.9650   -2.4542 C   0  0  0  0  0  0  0  0  0  0  0  0
    0.5878  -10.4629   -2.5010 C   0  0  0  0  0  0  0  0  0  0  0  0
    0.5373   -9.2198   -1.8901 C   0  0  0  0  0  0  0  0  0  0  0  0
    0.3179   -9.1675   -0.5276 C   0  0  0  0  0  0  0  0  0  0  0  0
    0.2119   -7.9955    0.3550 C   0  0  0  0  0  0  0  0  0  0  0  0
    0.3254   -6.8263    0.0238 O   0  0  0  0  0  0  0  0  0  0  0  0
    0.2843    1.1825   -1.2494 C   0  0  0  0  0  0  0  0  0  0  0  0
    3.8129    4.9505   -5.4664 H   0  0  0  0  0  0  0  0  0  0  0  0
    4.8531    6.2221   -7.3293 H   0  0  0  0  0  0  0  0  0  0  0  0
    5.0298    8.2635   -8.5895 H   0  0  0  0  0  0  0  0  0  0  0  0
    4.2624    9.7517   -8.0071 H   0  0  0  0  0  0  0  0  0  0  0  0
    5.8370    9.2711   -7.3883 H   0  0  0  0  0  0  0  0  0  0  0  0
    3.4604    9.9000   -5.6739 H   0  0  0  0  0  0  0  0  0  0  0  0
    0.9232    8.3614   -1.0420 H   0  0  0  0  0  0  0  0  0  0  0  0
    0.4867    8.6402    0.9992 H   0  0  0  0  0  0  0  0  0  0  0  0
   -0.3444    7.7610    2.2896 H   0  0  0  0  0  0  0  0  0  0  0  0
   -1.9180    9.2174    1.0545 H   0  0  0  0  0  0  0  0  0  0  0  0
   -2.3539    7.5178    0.8407 H   0  0  0  0  0  0  0  0  0  0  0  0
   -1.5349    8.3955   -0.4568 H   0  0  0  0  0  0  0  0  0  0  0  0
    1.5169    0.2531    0.2916 H   0  0  0  0  0  0  0  0  0  0  0  0
    1.9182    1.9276   -0.0832 H   0  0  0  0  0  0  0  0  0  0  0  0
   -0.5308   -2.6709    0.4048 H   0  0  0  0  0  0  0  0  0  0  0  0
   -0.1228   -0.9985    0.0272 H   0  0  0  0  0  0  0  0  0  0  0  0
    1.7337   -2.4407   -0.6773 H   0  0  0  0  0  0  0  0  0  0  0  0
    2.3096   -1.6004    0.7703 H   0  0  0  0  0  0  0  0  0  0  0  0
    1.7552   -3.2675    0.8765 H   0  0  0  0  0  0  0  0  0  0  0  0
   -0.8499   -5.9010    6.3629 H   0  0  0  0  0  0  0  0  0  0  0  0
   -0.4368   -7.4556    5.6272 H   0  0  0  0  0  0  0  0  0  0  0  0
   -3.1376   -6.0368    5.4028 H   0  0  0  0  0  0  0  0  0  0  0  0
   -2.7833   -7.4502    6.4027 H   0  0  0  0  0  0  0  0  0  0  0  0
   -2.7421   -7.5826    4.6442 H   0  0  0  0  0  0  0  0  0  0  0  0
   -0.5081   -8.3438    3.7256 H   0  0  0  0  0  0  0  0  0  0  0  0
    0.0752  -12.4888    0.1621 H   0  0  0  0  0  0  0  0  0  0  0  0
    1.1176  -12.9455   -3.3143 H   0  0  0  0  0  0  0  0  0  0  0  0
   -0.5473  -13.2184   -2.8083 H   0  0  0  0  0  0  0  0  0  0  0  0
    0.7736  -13.7471   -1.7709 H   0  0  0  0  0  0  0  0  0  0  0  0
    0.7580  -10.5281   -3.5658 H   0  0  0  0  0  0  0  0  0  0  0  0
    0.6647   -8.3085   -2.4540 H   0  0  0  0  0  0  0  0  0  0  0  0
    0.8667    0.6973   -2.0272 H   0  0  0  0  0  0  0  0  0  0  0  0
   -0.6542    0.6463   -1.1227 H   0  0  0  0  0  0  0  0  0  0  0  0
    0.0539    2.1923   -1.5768 H   0  0  0  0  0  0  0  0  0  0  0  0
  1  2  2  0  0  0  0
  1  3  1  0  0  0  0
  3  4  2  0  0  0  0
  4  5  1  0  0  0  0
  5  6  2  0  0  0  0
  6  7  1  0  0  0  0
  6  8  1  0  0  0  0
  8  9  2  0  0  0  0
  3  9  1  0  0  0  0
  9 10  1  0  0  0  0
 10 11  2  0  0  0  0
 11 12  1  0  0  0  0
 12 13  3  0  0  0  0
 11 14  1  0  0  0  0
 14 15  3  0  0  0  0
 10 16  1  0  0  0  0
  1 16  1  0  0  0  0
 16 17  2  0  0  0  0
 17 18  1  0  0  0  0
 18 19  1  0  0  0  0
 19 20  1  0  0  0  0
 20 21  2  0  0  0  0
 21 22  1  0  0  0  0
 22 23  1  0  0  0  0
 23 24  1  0  0  0  0
 18 22  2  0  0  0  0
 21 25  1  0  0  0  0
 25 26  1  0  0  0  0
 26 27  2  0  0  0  0
 20 27  1  0  0  0  0
 27 28  1  0  0  0  0
 28 29  1  0  0  0  0
 28 30  1  0  0  0  0
 30 31  2  0  0  0  0
 26 31  1  0  0  0  0
 31 32  1  0  0  0  0
 32 33  2  0  0  0  0
 33 34  1  0  0  0  0
 34 35  1  0  0  0  0
 35 36  2  0  0  0  0
 32 36  1  0  0  0  0
 36 37  1  0  0  0  0
 37 38  2  0  0  0  0
 30 38  1  0  0  0  0
 38 39  1  0  0  0  0
 39 40  1  0  0  0  0
 40 41  1  0  0  0  0
 39 42  1  0  0  0  0
 42 43  2  0  0  0  0
 37 43  1  0  0  0  0
 43 44  1  0  0  0  0
 44 45  1  0  0  0  0
 45 46  2  0  0  0  0
 42 46  1  0  0  0  0
 46 47  1  0  0  0  0
 47 48  1  0  0  0  0
 48 49  2  0  0  0  0
 45 49  1  0  0  0  0
 49 50  1  0  0  0  0
 50 51  1  0  0  0  0
 48 52  1  0  0  0  0
 52 53  2  0  0  0  0
 53 54  1  0  0  0  0
 54 55  2  0  0  0  0
 55 56  1  0  0  0  0
 56 57  3  0  0  0  0
 55 58  1  0  0  0  0
 58 59  3  0  0  0  0
 54 60  1  0  0  0  0
 60 61  2  0  0  0  0
 61 62  1  0  0  0  0
 62 63  1  0  0  0  0
 62 64  2  0  0  0  0
 64 65  1  0  0  0  0
 65 66  2  0  0  0  0
 60 66  1  0  0  0  0
 66 67  1  0  0  0  0
 67 68  2  0  0  0  0
 53 67  1  0  0  0  0
 29 69  1  0  0  0  0
  4 70  1  0  0  0  0
  5 71  1  0  0  0  0
  7 72  1  0  0  0  0
  7 73  1  0  0  0  0
  7 74  1  0  0  0  0
  8 75  1  0  0  0  0
 17 76  1  0  0  0  0
 23 77  1  0  0  0  0
 23 78  1  0  0  0  0
 24 79  1  0  0  0  0
 24 80  1  0  0  0  0
 24 81  1  0  0  0  0
 29 82  1  0  0  0  0
 29 83  1  0  0  0  0
 40 84  1  0  0  0  0
 40 85  1  0  0  0  0
 41 86  1  0  0  0  0
 41 87  1  0  0  0  0
 41 88  1  0  0  0  0
 50 89  1  0  0  0  0
 50 90  1  0  0  0  0
 51 91  1  0  0  0  0
 51 92  1  0  0  0  0
 51 93  1  0  0  0  0
 52 94  1  0  0  0  0
 61 95  1  0  0  0  0
 63 96  1  0  0  0  0
 63 97  1  0  0  0  0
 63 98  1  0  0  0  0
 64 99  1  0  0  0  0
 65100  1  0  0  0  0
 69101  1  0  0  0  0
 69102  1  0  0  0  0
 69103  1  0  0  0  0
M  END
