BTP-ClBr1.mol
  xtb     01102217483D
 energy: -189.585534039228 gnorm: 0.000828329377 xtb: 6.4.1 (unknown)
 97108  0     0  0            999 V2000
   -5.2165   -2.4364   -1.9508 O   0  0  0  0  0  0  0  0  0  0  0  0
   -6.4160   -2.5102   -2.1554 C   0  0  0  0  0  0  0  0  0  0  0  0
   -7.4964   -1.8397   -1.4345 C   0  0  0  0  0  0  0  0  0  0  0  0
   -7.3518   -0.9898   -0.3607 C   0  0  0  0  0  0  0  0  0  0  0  0
   -6.2118   -0.5370    0.3037 C   0  0  0  0  0  0  0  0  0  0  0  0
   -6.2683    0.3336    1.4099 C   0  0  0  0  0  0  0  0  0  0  0  0
   -7.5148    0.8391    2.0585 C   0  0  0  0  0  0  0  0  0  0  0  0
   -8.0894   -0.2018    3.0236 C   0  0  0  0  0  0  0  0  0  0  0  0
   -4.9995    0.6366    1.8791 C   0  0  0  0  0  0  0  0  0  0  0  0
   -4.4405    1.6398    3.2052 S   0  0  0  0  0  0  0  0  0  0  0  0
   -2.8138    1.2450    2.7740 C   0  0  0  0  0  0  0  0  0  0  0  0
   -1.5096    1.4960    3.2186 C   0  0  0  0  0  0  0  0  0  0  0  0
   -1.0319    2.1711    4.3648 C   0  0  0  0  0  0  0  0  0  0  0  0
   -1.7247    2.8056    5.2969 N   0  0  0  0  0  0  0  0  0  0  0  0
   -0.6984    3.3250    6.4355 S   0  0  0  0  0  0  0  0  0  0  0  0
    0.6707    2.7623    5.7815 N   0  0  0  0  0  0  0  0  0  0  0  0
    0.3735    2.1487    4.6471 C   0  0  0  0  0  0  0  0  0  0  0  0
   -2.7108    0.3931    1.6663 C   0  0  0  0  0  0  0  0  0  0  0  0
   -1.3926    0.1386    1.3863 N   0  0  0  0  0  0  0  0  0  0  0  0
   -1.0718   -1.0659    0.6480 C   0  0  0  0  0  0  0  0  0  0  0  0
   -0.8712   -2.2454    1.5971 C   0  0  0  0  0  0  0  0  0  0  0  0
   -0.6309    0.8191    2.3220 C   0  0  0  0  0  0  0  0  0  0  0  0
    0.7682    0.9751    2.4962 C   0  0  0  0  0  0  0  0  0  0  0  0
    1.2497    1.5695    3.7016 C   0  0  0  0  0  0  0  0  0  0  0  0
    2.6475    1.5490    3.6319 C   0  0  0  0  0  0  0  0  0  0  0  0
    4.0095    2.0434    4.5745 S   0  0  0  0  0  0  0  0  0  0  0  0
    2.9880    1.0001    2.3871 C   0  0  0  0  0  0  0  0  0  0  0  0
    1.8518    0.6612    1.7026 N   0  0  0  0  0  0  0  0  0  0  0  0
    1.9245    0.3793    0.2863 C   0  0  0  0  0  0  0  0  0  0  0  0
    2.3772   -1.0522    0.0034 C   0  0  0  0  0  0  0  0  0  0  0  0
    4.3661    0.9961    2.1628 C   0  0  0  0  0  0  0  0  0  0  0  0
    5.0590    1.5300    3.2661 C   0  0  0  0  0  0  0  0  0  0  0  0
   -3.9574    0.0302    1.1523 C   0  0  0  0  0  0  0  0  0  0  0  0
   -4.5511   -0.9552   -0.1290 S   0  0  0  0  0  0  0  0  0  0  0  0
   -8.7591   -2.2183   -2.0346 C   0  0  0  0  0  0  0  0  0  0  0  0
  -10.0177   -1.8091   -1.6728 C   0  0  0  0  0  0  0  0  0  0  0  0
  -11.1990   -2.2264   -2.3222 C   0  0  0  0  0  0  0  0  0  0  0  0
  -12.1944   -2.5275   -2.8079 N   0  0  0  0  0  0  0  0  0  0  0  0
  -10.3283   -0.9247   -0.6191 C   0  0  0  0  0  0  0  0  0  0  0  0
  -10.6634   -0.2139    0.2194 N   0  0  0  0  0  0  0  0  0  0  0  0
   -8.4600   -3.1378   -3.1331 C   0  0  0  0  0  0  0  0  0  0  0  0
   -9.2797   -3.8003   -4.0311 C   0  0  0  0  0  0  0  0  0  0  0  0
   -8.6918   -4.6249   -4.9835 C   0  0  0  0  0  0  0  0  0  0  0  0
   -9.8140   -5.5292   -6.2085 Br  0  0  0  0  0  0  0  0  0  0  0  0
   -7.3075   -4.7976   -5.0531 C   0  0  0  0  0  0  0  0  0  0  0  0
   -6.6164   -5.8251   -6.2445 Cl  0  0  0  0  0  0  0  0  0  0  0  0
   -6.4828   -4.1332   -4.1521 C   0  0  0  0  0  0  0  0  0  0  0  0
   -7.0678   -3.3158   -3.2083 C   0  0  0  0  0  0  0  0  0  0  0  0
    8.7165    0.4988    0.2821 C   0  0  0  0  0  0  0  0  0  0  0  0
   10.1336    0.4996   -0.0180 C   0  0  0  0  0  0  0  0  0  0  0  0
   10.2967   -0.0885   -1.3481 C   0  0  0  0  0  0  0  0  0  0  0  0
   11.4219   -0.3283   -2.1185 C   0  0  0  0  0  0  0  0  0  0  0  0
   11.2580   -0.9132   -3.3691 C   0  0  0  0  0  0  0  0  0  0  0  0
   12.7965   -1.2389   -4.4203 Br  0  0  0  0  0  0  0  0  0  0  0  0
    9.9968   -1.2604   -3.8589 C   0  0  0  0  0  0  0  0  0  0  0  0
    9.8331   -1.9830   -5.4091 Cl  0  0  0  0  0  0  0  0  0  0  0  0
   11.1593    0.9588    0.7690 C   0  0  0  0  0  0  0  0  0  0  0  0
   11.0260    1.5234    2.0545 C   0  0  0  0  0  0  0  0  0  0  0  0
   11.0020    1.9913    3.1038 N   0  0  0  0  0  0  0  0  0  0  0  0
   12.5183    0.9294    0.3905 C   0  0  0  0  0  0  0  0  0  0  0  0
   13.6395    0.9375    0.1456 N   0  0  0  0  0  0  0  0  0  0  0  0
    7.9990   -0.0842   -0.8502 C   0  0  0  0  0  0  0  0  0  0  0  0
    9.0303   -0.4392   -1.8467 C   0  0  0  0  0  0  0  0  0  0  0  0
    8.8657   -1.0196   -3.0866 C   0  0  0  0  0  0  0  0  0  0  0  0
    6.4359    1.5655    3.1085 C   0  0  0  0  0  0  0  0  0  0  0  0
    6.8222    1.0450    1.8576 C   0  0  0  0  0  0  0  0  0  0  0  0
    5.4350    0.5196    0.8996 S   0  0  0  0  0  0  0  0  0  0  0  0
    7.3613    2.0476    4.1765 C   0  0  0  0  0  0  0  0  0  0  0  0
    7.9012    0.8745    4.9998 C   0  0  0  0  0  0  0  0  0  0  0  0
    6.7977   -0.2517   -0.9735 O   0  0  0  0  0  0  0  0  0  0  0  0
    8.1528    0.9748    1.4447 C   0  0  0  0  0  0  0  0  0  0  0  0
   -8.2702   -0.5951    0.0513 H   0  0  0  0  0  0  0  0  0  0  0  0
   -7.2648    1.7427    2.6178 H   0  0  0  0  0  0  0  0  0  0  0  0
   -8.2688    1.0962    1.3130 H   0  0  0  0  0  0  0  0  0  0  0  0
   -7.3644   -0.4407    3.7981 H   0  0  0  0  0  0  0  0  0  0  0  0
   -8.3489   -1.1165    2.4959 H   0  0  0  0  0  0  0  0  0  0  0  0
   -8.9868    0.1900    3.4933 H   0  0  0  0  0  0  0  0  0  0  0  0
   -1.9195   -1.2641   -0.0124 H   0  0  0  0  0  0  0  0  0  0  0  0
   -0.1911   -0.9278    0.0289 H   0  0  0  0  0  0  0  0  0  0  0  0
   -0.0472   -2.0524    2.2817 H   0  0  0  0  0  0  0  0  0  0  0  0
   -0.6547   -3.1450    1.0279 H   0  0  0  0  0  0  0  0  0  0  0  0
   -1.7714   -2.4154    2.1832 H   0  0  0  0  0  0  0  0  0  0  0  0
    0.9585    0.6080   -0.1657 H   0  0  0  0  0  0  0  0  0  0  0  0
    2.6603    1.0657   -0.1474 H   0  0  0  0  0  0  0  0  0  0  0  0
    3.4168   -1.1764    0.2936 H   0  0  0  0  0  0  0  0  0  0  0  0
    2.2971   -1.2587   -1.0602 H   0  0  0  0  0  0  0  0  0  0  0  0
    1.7806   -1.7762    0.5517 H   0  0  0  0  0  0  0  0  0  0  0  0
  -10.3526   -3.6975   -4.0149 H   0  0  0  0  0  0  0  0  0  0  0  0
   -5.4116   -4.2522   -4.1890 H   0  0  0  0  0  0  0  0  0  0  0  0
   12.4143   -0.0772   -1.7810 H   0  0  0  0  0  0  0  0  0  0  0  0
    7.8832   -1.2798   -3.4470 H   0  0  0  0  0  0  0  0  0  0  0  0
    8.1968    2.6055    3.7512 H   0  0  0  0  0  0  0  0  0  0  0  0
    6.8027    2.7163    4.8343 H   0  0  0  0  0  0  0  0  0  0  0  0
    8.5623    1.2460    5.7772 H   0  0  0  0  0  0  0  0  0  0  0  0
    8.4622    0.1872    4.3710 H   0  0  0  0  0  0  0  0  0  0  0  0
    7.0829    0.3308    5.4659 H   0  0  0  0  0  0  0  0  0  0  0  0
    8.8466    1.3658    2.1761 H   0  0  0  0  0  0  0  0  0  0  0  0
  1  2  2  0  0  0  0
  2  3  1  0  0  0  0
  3  4  2  0  0  0  0
  4  5  1  0  0  0  0
  5  6  2  0  0  0  0
  6  7  1  0  0  0  0
  7  8  1  0  0  0  0
  6  9  1  0  0  0  0
  9 10  1  0  0  0  0
 10 11  1  0  0  0  0
 11 12  1  0  0  0  0
 12 13  1  0  0  0  0
 13 14  2  0  0  0  0
 14 15  1  0  0  0  0
 15 16  1  0  0  0  0
 16 17  2  0  0  0  0
 13 17  1  0  0  0  0
 11 18  2  0  0  0  0
 18 19  1  0  0  0  0
 19 20  1  0  0  0  0
 20 21  1  0  0  0  0
 19 22  1  0  0  0  0
 12 22  2  0  0  0  0
 22 23  1  0  0  0  0
 23 24  2  0  0  0  0
 17 24  1  0  0  0  0
 24 25  1  0  0  0  0
 25 26  1  0  0  0  0
 25 27  2  0  0  0  0
 27 28  1  0  0  0  0
 23 28  1  0  0  0  0
 28 29  1  0  0  0  0
 29 30  1  0  0  0  0
 27 31  1  0  0  0  0
 31 32  2  0  0  0  0
 26 32  1  0  0  0  0
  9 33  2  0  0  0  0
 18 33  1  0  0  0  0
 33 34  1  0  0  0  0
  5 34  1  0  0  0  0
  3 35  1  0  0  0  0
 35 36  2  0  0  0  0
 36 37  1  0  0  0  0
 37 38  3  0  0  0  0
 36 39  1  0  0  0  0
 39 40  3  0  0  0  0
 35 41  1  0  0  0  0
 41 42  2  0  0  0  0
 42 43  1  0  0  0  0
 43 44  1  0  0  0  0
 43 45  2  0  0  0  0
 45 46  1  0  0  0  0
 45 47  1  0  0  0  0
 47 48  2  0  0  0  0
 41 48  1  0  0  0  0
  2 48  1  0  0  0  0
 49 50  1  0  0  0  0
 50 51  1  0  0  0  0
 51 52  1  0  0  0  0
 52 53  2  0  0  0  0
 53 54  1  0  0  0  0
 53 55  1  0  0  0  0
 55 56  1  0  0  0  0
 50 57  2  0  0  0  0
 57 58  1  0  0  0  0
 58 59  3  0  0  0  0
 57 60  1  0  0  0  0
 60 61  3  0  0  0  0
 49 62  1  0  0  0  0
 62 63  1  0  0  0  0
 51 63  2  0  0  0  0
 63 64  1  0  0  0  0
 55 64  2  0  0  0  0
 32 65  1  0  0  0  0
 65 66  2  0  0  0  0
 66 67  1  0  0  0  0
 67 31  1  0  0  0  0
 65 68  1  0  0  0  0
 68 69  1  0  0  0  0
 62 70  2  0  0  0  0
 49 71  2  0  0  0  0
 66 71  1  0  0  0  0
  4 72  1  0  0  0  0
  7 73  1  0  0  0  0
  7 74  1  0  0  0  0
  8 75  1  0  0  0  0
  8 76  1  0  0  0  0
  8 77  1  0  0  0  0
 20 78  1  0  0  0  0
 20 79  1  0  0  0  0
 21 80  1  0  0  0  0
 21 81  1  0  0  0  0
 21 82  1  0  0  0  0
 29 83  1  0  0  0  0
 29 84  1  0  0  0  0
 30 85  1  0  0  0  0
 30 86  1  0  0  0  0
 30 87  1  0  0  0  0
 42 88  1  0  0  0  0
 47 89  1  0  0  0  0
 52 90  1  0  0  0  0
 64 91  1  0  0  0  0
 68 92  1  0  0  0  0
 68 93  1  0  0  0  0
 69 94  1  0  0  0  0
 69 95  1  0  0  0  0
 69 96  1  0  0  0  0
 71 97  1  0  0  0  0
M  END
