BTTIC.sdf
  xtb     12202113213D
 energy: -265.756926920208 gnorm: 0.000771589249 xtb: 6.4.1 (unknown)
164180  0     0  0            999 V2000
    5.7674   -7.6077    2.8048 C   0  0  0  0  0  0  0  0  0  0  0  0
    6.0967   -6.4417    2.9072 O   0  0  0  0  0  0  0  0  0  0  0  0
    6.5497   -8.7666    3.2386 C   0  0  0  0  0  0  0  0  0  0  0  0
    5.8290   -9.9706    2.9576 C   0  0  0  0  0  0  0  0  0  0  0  0
    4.5669   -9.6267    2.3361 C   0  0  0  0  0  0  0  0  0  0  0  0
    3.6317  -10.5552    1.9529 C   0  0  0  0  0  0  0  0  0  0  0  0
    3.8574  -11.9339    2.1466 C   0  0  0  0  0  0  0  0  0  0  0  0
    4.0186  -13.0610    2.2935 N   0  0  0  0  0  0  0  0  0  0  0  0
    2.3825  -10.3129    1.3504 C   0  0  0  0  0  0  0  0  0  0  0  0
    1.3488  -10.2092    0.8586 N   0  0  0  0  0  0  0  0  0  0  0  0
    4.5192   -8.1742    2.2269 C   0  0  0  0  0  0  0  0  0  0  0  0
    3.4637   -7.5146    1.6531 C   0  0  0  0  0  0  0  0  0  0  0  0
    3.2010   -6.1490    1.4458 C   0  0  0  0  0  0  0  0  0  0  0  0
    3.8936   -4.9918    1.7704 C   0  0  0  0  0  0  0  0  0  0  0  0
    3.2244   -3.8514    1.3554 C   0  0  0  0  0  0  0  0  0  0  0  0
    2.0005   -4.1024    0.6969 C   0  0  0  0  0  0  0  0  0  0  0  0
    1.6834   -5.7858    0.6054 S   0  0  0  0  0  0  0  0  0  0  0  0
    1.3601   -2.9305    0.3081 C   0  0  0  0  0  0  0  0  0  0  0  0
    0.1117   -2.5401   -0.4406 C   0  0  0  0  0  0  0  0  0  0  0  0
   -1.1678   -2.9898    0.2383 C   0  0  0  0  0  0  0  0  0  0  0  0
   -2.2768   -3.4153   -0.4782 C   0  0  0  0  0  0  0  0  0  0  0  0
   -3.4580   -3.7161    0.1745 C   0  0  0  0  0  0  0  0  0  0  0  0
   -3.5637   -3.6028    1.5533 C   0  0  0  0  0  0  0  0  0  0  0  0
   -4.8666   -3.8608    2.2526 C   0  0  0  0  0  0  0  0  0  0  0  0
   -5.6164   -2.5462    2.4766 C   0  0  0  0  0  0  0  0  0  0  0  0
   -2.4473   -3.1868    2.2674 C   0  0  0  0  0  0  0  0  0  0  0  0
   -1.2666   -2.8805    1.6201 C   0  0  0  0  0  0  0  0  0  0  0  0
    0.2981   -3.0795   -1.8471 C   0  0  0  0  0  0  0  0  0  0  0  0
    0.7695   -2.2779   -2.8771 C   0  0  0  0  0  0  0  0  0  0  0  0
    0.9862   -2.8104   -4.1357 C   0  0  0  0  0  0  0  0  0  0  0  0
    0.7511   -4.1536   -4.3946 C   0  0  0  0  0  0  0  0  0  0  0  0
    1.0240   -4.7361   -5.7511 C   0  0  0  0  0  0  0  0  0  0  0  0
    2.4649   -5.2441   -5.8344 C   0  0  0  0  0  0  0  0  0  0  0  0
    0.3097   -4.9579   -3.3514 C   0  0  0  0  0  0  0  0  0  0  0  0
    0.0905   -4.4317   -2.0933 C   0  0  0  0  0  0  0  0  0  0  0  0
    0.1929   -1.0241   -0.3499 C   0  0  0  0  0  0  0  0  0  0  0  0
    1.3889   -0.6199    0.2834 C   0  0  0  0  0  0  0  0  0  0  0  0
    2.0925   -1.8067    0.6563 C   0  0  0  0  0  0  0  0  0  0  0  0
    3.5769   -2.1482    1.4749 S   0  0  0  0  0  0  0  0  0  0  0  0
    1.7044    0.7244    0.5265 C   0  0  0  0  0  0  0  0  0  0  0  0
    0.7621    1.6559    0.1273 C   0  0  0  0  0  0  0  0  0  0  0  0
    0.8533    3.1723    0.1999 C   0  0  0  0  0  0  0  0  0  0  0  0
    2.1584    3.6055   -0.4413 C   0  0  0  0  0  0  0  0  0  0  0  0
    3.2182    4.1204    0.2908 C   0  0  0  0  0  0  0  0  0  0  0  0
    4.4190    4.4107   -0.3278 C   0  0  0  0  0  0  0  0  0  0  0  0
    4.5973    4.1947   -1.6871 C   0  0  0  0  0  0  0  0  0  0  0  0
    5.9308    4.4455   -2.3291 C   0  0  0  0  0  0  0  0  0  0  0  0
    6.8562    3.2475   -2.1062 C   0  0  0  0  0  0  0  0  0  0  0  0
    3.5316    3.6870   -2.4177 C   0  0  0  0  0  0  0  0  0  0  0  0
    2.3286    3.3953   -1.8041 C   0  0  0  0  0  0  0  0  0  0  0  0
    0.6247    3.7294    1.5942 C   0  0  0  0  0  0  0  0  0  0  0  0
    0.1846    2.9283    2.6378 C   0  0  0  0  0  0  0  0  0  0  0  0
   -0.0526    3.4743    3.8863 C   0  0  0  0  0  0  0  0  0  0  0  0
    0.1319    4.8292    4.1221 C   0  0  0  0  0  0  0  0  0  0  0  0
   -0.1612    5.4235    5.4693 C   0  0  0  0  0  0  0  0  0  0  0  0
   -1.6240    5.8644    5.5517 C   0  0  0  0  0  0  0  0  0  0  0  0
    0.5426    5.6321    3.0653 C   0  0  0  0  0  0  0  0  0  0  0  0
    0.7811    5.0927    1.8164 C   0  0  0  0  0  0  0  0  0  0  0  0
   -0.3641    3.5613   -0.5999 C   0  0  0  0  0  0  0  0  0  0  0  0
   -1.1065    2.4390   -0.9331 C   0  0  0  0  0  0  0  0  0  0  0  0
   -0.4280    1.2523   -0.5159 C   0  0  0  0  0  0  0  0  0  0  0  0
   -0.7496   -0.0929   -0.7480 C   0  0  0  0  0  0  0  0  0  0  0  0
   -2.5472    2.7772   -1.8269 S   0  0  0  0  0  0  0  0  0  0  0  0
   -2.1589    4.4740   -1.7686 C   0  0  0  0  0  0  0  0  0  0  0  0
   -0.9598    4.7281   -1.0667 C   0  0  0  0  0  0  0  0  0  0  0  0
   -0.6012    6.4063   -1.0504 S   0  0  0  0  0  0  0  0  0  0  0  0
   -2.0629    6.7610   -1.9877 C   0  0  0  0  0  0  0  0  0  0  0  0
   -2.7741    5.6061   -2.2785 C   0  0  0  0  0  0  0  0  0  0  0  0
   -2.2706    8.1171   -2.2943 C   0  0  0  0  0  0  0  0  0  0  0  0
   -3.2591    8.7643   -2.9893 C   0  0  0  0  0  0  0  0  0  0  0  0
   -3.2531   10.2070   -3.1966 C   0  0  0  0  0  0  0  0  0  0  0  0
   -2.3326   11.1379   -2.7842 C   0  0  0  0  0  0  0  0  0  0  0  0
   -1.1561   10.9084   -2.0462 C   0  0  0  0  0  0  0  0  0  0  0  0
   -0.1785   10.8154   -1.4489 N   0  0  0  0  0  0  0  0  0  0  0  0
   -2.4993   12.5048   -3.0892 C   0  0  0  0  0  0  0  0  0  0  0  0
   -2.6117   13.6228   -3.3241 N   0  0  0  0  0  0  0  0  0  0  0  0
   -4.4391   10.5377   -3.9593 C   0  0  0  0  0  0  0  0  0  0  0  0
   -5.1675    9.3352   -4.2261 C   0  0  0  0  0  0  0  0  0  0  0  0
   -4.4689    8.1912   -3.6377 C   0  0  0  0  0  0  0  0  0  0  0  0
   -4.8301    7.0309   -3.6838 O   0  0  0  0  0  0  0  0  0  0  0  0
    7.7599   -8.9630    3.8278 C   0  0  0  0  0  0  0  0  0  0  0  0
    8.0254  -10.6762    4.0453 S   0  0  0  0  0  0  0  0  0  0  0  0
    6.5039  -11.0876    3.3396 C   0  0  0  0  0  0  0  0  0  0  0  0
   -6.3105    9.5188   -4.9402 C   0  0  0  0  0  0  0  0  0  0  0  0
   -6.5007   11.2184   -5.2981 S   0  0  0  0  0  0  0  0  0  0  0  0
   -5.0404   11.6411   -4.4787 C   0  0  0  0  0  0  0  0  0  0  0  0
   -7.2926    8.5064   -5.3880 C   0  0  0  0  0  0  0  0  0  0  0  0
    8.7561   -7.9539    4.2514 C   0  0  0  0  0  0  0  0  0  0  0  0
    2.9912    1.0712    1.1212 C   0  0  0  0  0  0  0  0  0  0  0  0
   -2.0369   -0.4426   -1.3421 C   0  0  0  0  0  0  0  0  0  0  0  0
    4.2202    0.8899    0.5626 C   0  0  0  0  0  0  0  0  0  0  0  0
    5.2730    1.3423    1.3856 C   0  0  0  0  0  0  0  0  0  0  0  0
    4.8493    1.8415    2.5763 C   0  0  0  0  0  0  0  0  0  0  0  0
    3.1213    1.7728    2.7023 S   0  0  0  0  0  0  0  0  0  0  0  0
   -2.3247   -0.9450   -2.5721 C   0  0  0  0  0  0  0  0  0  0  0  0
   -3.7090   -1.1319   -2.7807 C   0  0  0  0  0  0  0  0  0  0  0  0
   -4.4710   -0.7814   -1.7120 C   0  0  0  0  0  0  0  0  0  0  0  0
   -3.4864   -0.1920   -0.4127 S   0  0  0  0  0  0  0  0  0  0  0  0
    5.6527    2.4350    3.6816 C   0  0  0  0  0  0  0  0  0  0  0  0
    5.3635    3.9292    3.8369 C   0  0  0  0  0  0  0  0  0  0  0  0
   -5.9542   -0.8164   -1.5793 C   0  0  0  0  0  0  0  0  0  0  0  0
   -6.5349    0.5926   -1.4533 C   0  0  0  0  0  0  0  0  0  0  0  0
    2.6693   -8.1491    1.2768 H   0  0  0  0  0  0  0  0  0  0  0  0
    4.8378   -5.0032    2.2828 H   0  0  0  0  0  0  0  0  0  0  0  0
   -2.2297   -3.4997   -1.5530 H   0  0  0  0  0  0  0  0  0  0  0  0
   -4.3131   -4.0365   -0.4037 H   0  0  0  0  0  0  0  0  0  0  0  0
   -5.4835   -4.5316    1.6516 H   0  0  0  0  0  0  0  0  0  0  0  0
   -4.6826   -4.3382    3.2173 H   0  0  0  0  0  0  0  0  0  0  0  0
   -5.0278   -1.8741    3.0967 H   0  0  0  0  0  0  0  0  0  0  0  0
   -5.8017   -2.0505    1.5262 H   0  0  0  0  0  0  0  0  0  0  0  0
   -6.5700   -2.7287    2.9667 H   0  0  0  0  0  0  0  0  0  0  0  0
   -2.5050   -3.0952    3.3426 H   0  0  0  0  0  0  0  0  0  0  0  0
   -0.4133   -2.5446    2.1929 H   0  0  0  0  0  0  0  0  0  0  0  0
    0.9691   -1.2308   -2.6991 H   0  0  0  0  0  0  0  0  0  0  0  0
    1.3438   -2.1687   -4.9289 H   0  0  0  0  0  0  0  0  0  0  0  0
    0.8650   -3.9770   -6.5198 H   0  0  0  0  0  0  0  0  0  0  0  0
    0.3397   -5.5651   -5.9417 H   0  0  0  0  0  0  0  0  0  0  0  0
    2.6392   -6.0111   -5.0832 H   0  0  0  0  0  0  0  0  0  0  0  0
    2.6628   -5.6676   -6.8162 H   0  0  0  0  0  0  0  0  0  0  0  0
    3.1642   -4.4293   -5.6596 H   0  0  0  0  0  0  0  0  0  0  0  0
    0.1352   -6.0099   -3.5247 H   0  0  0  0  0  0  0  0  0  0  0  0
   -0.2497   -5.0756   -1.2955 H   0  0  0  0  0  0  0  0  0  0  0  0
    3.1151    4.2889    1.3514 H   0  0  0  0  0  0  0  0  0  0  0  0
    5.2352    4.8082    0.2584 H   0  0  0  0  0  0  0  0  0  0  0  0
    5.8045    4.6114   -3.4005 H   0  0  0  0  0  0  0  0  0  0  0  0
    6.3880    5.3379   -1.8964 H   0  0  0  0  0  0  0  0  0  0  0  0
    6.4238    2.3499   -2.5428 H   0  0  0  0  0  0  0  0  0  0  0  0
    7.8270    3.4241   -2.5635 H   0  0  0  0  0  0  0  0  0  0  0  0
    6.9981    3.0744   -1.0418 H   0  0  0  0  0  0  0  0  0  0  0  0
    3.6451    3.5132   -3.4784 H   0  0  0  0  0  0  0  0  0  0  0  0
    1.5135    2.9908   -2.3886 H   0  0  0  0  0  0  0  0  0  0  0  0
    0.0282    1.8710    2.4825 H   0  0  0  0  0  0  0  0  0  0  0  0
   -0.3837    2.8327    4.6902 H   0  0  0  0  0  0  0  0  0  0  0  0
    0.0370    4.6862    6.2499 H   0  0  0  0  0  0  0  0  0  0  0  0
    0.4843    6.2870    5.6416 H   0  0  0  0  0  0  0  0  0  0  0  0
   -1.8379    6.2942    6.5275 H   0  0  0  0  0  0  0  0  0  0  0  0
   -1.8376    6.6100    4.7891 H   0  0  0  0  0  0  0  0  0  0  0  0
   -2.2845    5.0148    5.3932 H   0  0  0  0  0  0  0  0  0  0  0  0
    0.6794    6.6926    3.2203 H   0  0  0  0  0  0  0  0  0  0  0  0
    1.0987    5.7355    1.0082 H   0  0  0  0  0  0  0  0  0  0  0  0
   -3.6912    5.6130   -2.8377 H   0  0  0  0  0  0  0  0  0  0  0  0
   -1.4862    8.7542   -1.9015 H   0  0  0  0  0  0  0  0  0  0  0  0
    6.2271  -12.1196    3.2613 H   0  0  0  0  0  0  0  0  0  0  0  0
   -4.7408   12.6692   -4.4446 H   0  0  0  0  0  0  0  0  0  0  0  0
   -8.2823    8.7274   -4.9892 H   0  0  0  0  0  0  0  0  0  0  0  0
   -6.9751    7.5259   -5.0405 H   0  0  0  0  0  0  0  0  0  0  0  0
   -7.3662    8.4964   -6.4752 H   0  0  0  0  0  0  0  0  0  0  0  0
    9.7076   -8.1159    3.7452 H   0  0  0  0  0  0  0  0  0  0  0  0
    8.3824   -6.9617    4.0075 H   0  0  0  0  0  0  0  0  0  0  0  0
    8.9345   -8.0172    5.3248 H   0  0  0  0  0  0  0  0  0  0  0  0
    4.3622    0.4756   -0.4197 H   0  0  0  0  0  0  0  0  0  0  0  0
    6.3088    1.2906    1.1007 H   0  0  0  0  0  0  0  0  0  0  0  0
   -1.5748   -1.1686   -3.3096 H   0  0  0  0  0  0  0  0  0  0  0  0
   -4.1195   -1.5186   -3.6967 H   0  0  0  0  0  0  0  0  0  0  0  0
    6.7124    2.2821    3.4666 H   0  0  0  0  0  0  0  0  0  0  0  0
    5.4189    1.9270    4.6211 H   0  0  0  0  0  0  0  0  0  0  0  0
    5.5978    4.4575    2.9154 H   0  0  0  0  0  0  0  0  0  0  0  0
    5.9630    4.3495    4.6404 H   0  0  0  0  0  0  0  0  0  0  0  0
    4.3117    4.0873    4.0676 H   0  0  0  0  0  0  0  0  0  0  0  0
   -6.2328   -1.3990   -0.6966 H   0  0  0  0  0  0  0  0  0  0  0  0
   -6.3716   -1.3130   -2.4579 H   0  0  0  0  0  0  0  0  0  0  0  0
   -6.2740    1.1877   -2.3254 H   0  0  0  0  0  0  0  0  0  0  0  0
   -6.1359    1.0852   -0.5694 H   0  0  0  0  0  0  0  0  0  0  0  0
   -7.6181    0.5500   -1.3705 H   0  0  0  0  0  0  0  0  0  0  0  0
  1  2  2  0  0  0  0
  1  3  1  0  0  0  0
  3  4  1  0  0  0  0
  4  5  1  0  0  0  0
  5  6  2  0  0  0  0
  6  7  1  0  0  0  0
  7  8  3  0  0  0  0
  6  9  1  0  0  0  0
  9 10  3  0  0  0  0
  5 11  1  0  0  0  0
  1 11  1  0  0  0  0
 11 12  2  0  0  0  0
 12 13  1  0  0  0  0
 13 14  2  0  0  0  0
 14 15  1  0  0  0  0
 15 16  2  0  0  0  0
 16 17  1  0  0  0  0
 13 17  1  0  0  0  0
 16 18  1  0  0  0  0
 18 19  1  0  0  0  0
 19 20  1  0  0  0  0
 20 21  2  0  0  0  0
 21 22  1  0  0  0  0
 22 23  2  0  0  0  0
 23 24  1  0  0  0  0
 24 25  1  0  0  0  0
 23 26  1  0  0  0  0
 26 27  2  0  0  0  0
 20 27  1  0  0  0  0
 19 28  1  0  0  0  0
 28 29  2  0  0  0  0
 29 30  1  0  0  0  0
 30 31  2  0  0  0  0
 31 32  1  0  0  0  0
 32 33  1  0  0  0  0
 31 34  1  0  0  0  0
 34 35  2  0  0  0  0
 28 35  1  0  0  0  0
 19 36  1  0  0  0  0
 36 37  2  0  0  0  0
 37 38  1  0  0  0  0
 18 38  2  0  0  0  0
 38 39  1  0  0  0  0
 15 39  1  0  0  0  0
 37 40  1  0  0  0  0
 40 41  2  0  0  0  0
 41 42  1  0  0  0  0
 42 43  1  0  0  0  0
 43 44  2  0  0  0  0
 44 45  1  0  0  0  0
 45 46  2  0  0  0  0
 46 47  1  0  0  0  0
 47 48  1  0  0  0  0
 46 49  1  0  0  0  0
 49 50  2  0  0  0  0
 43 50  1  0  0  0  0
 42 51  1  0  0  0  0
 51 52  2  0  0  0  0
 52 53  1  0  0  0  0
 53 54  2  0  0  0  0
 54 55  1  0  0  0  0
 55 56  1  0  0  0  0
 54 57  1  0  0  0  0
 57 58  2  0  0  0  0
 51 58  1  0  0  0  0
 42 59  1  0  0  0  0
 59 60  2  0  0  0  0
 60 61  1  0  0  0  0
 41 61  1  0  0  0  0
 61 62  2  0  0  0  0
 36 62  1  0  0  0  0
 60 63  1  0  0  0  0
 63 64  1  0  0  0  0
 64 65  2  0  0  0  0
 59 65  1  0  0  0  0
 65 66  1  0  0  0  0
 66 67  1  0  0  0  0
 67 68  2  0  0  0  0
 64 68  1  0  0  0  0
 67 69  1  0  0  0  0
 69 70  2  0  0  0  0
 70 71  1  0  0  0  0
 71 72  2  0  0  0  0
 72 73  1  0  0  0  0
 73 74  3  0  0  0  0
 72 75  1  0  0  0  0
 75 76  3  0  0  0  0
 71 77  1  0  0  0  0
 77 78  1  0  0  0  0
 78 79  1  0  0  0  0
 70 79  1  0  0  0  0
 79 80  2  0  0  0  0
  3 81  2  0  0  0  0
 81 82  1  0  0  0  0
 82 83  1  0  0  0  0
 83  4  2  0  0  0  0
 78 84  2  0  0  0  0
 84 85  1  0  0  0  0
 85 86  1  0  0  0  0
 86 77  2  0  0  0  0
 84 87  1  0  0  0  0
 81 88  1  0  0  0  0
 40 89  1  0  0  0  0
 62 90  1  0  0  0  0
 89 91  2  0  0  0  0
 91 92  1  0  0  0  0
 92 93  2  0  0  0  0
 93 94  1  0  0  0  0
 94 89  1  0  0  0  0
 90 95  2  0  0  0  0
 95 96  1  0  0  0  0
 96 97  2  0  0  0  0
 97 98  1  0  0  0  0
 98 90  1  0  0  0  0
 93 99  1  0  0  0  0
 99100  1  0  0  0  0
 97101  1  0  0  0  0
101102  1  0  0  0  0
 12103  1  0  0  0  0
 14104  1  0  0  0  0
 21105  1  0  0  0  0
 22106  1  0  0  0  0
 24107  1  0  0  0  0
 24108  1  0  0  0  0
 25109  1  0  0  0  0
 25110  1  0  0  0  0
 25111  1  0  0  0  0
 26112  1  0  0  0  0
 27113  1  0  0  0  0
 29114  1  0  0  0  0
 30115  1  0  0  0  0
 32116  1  0  0  0  0
 32117  1  0  0  0  0
 33118  1  0  0  0  0
 33119  1  0  0  0  0
 33120  1  0  0  0  0
 34121  1  0  0  0  0
 35122  1  0  0  0  0
 44123  1  0  0  0  0
 45124  1  0  0  0  0
 47125  1  0  0  0  0
 47126  1  0  0  0  0
 48127  1  0  0  0  0
 48128  1  0  0  0  0
 48129  1  0  0  0  0
 49130  1  0  0  0  0
 50131  1  0  0  0  0
 52132  1  0  0  0  0
 53133  1  0  0  0  0
 55134  1  0  0  0  0
 55135  1  0  0  0  0
 56136  1  0  0  0  0
 56137  1  0  0  0  0
 56138  1  0  0  0  0
 57139  1  0  0  0  0
 58140  1  0  0  0  0
 68141  1  0  0  0  0
 69142  1  0  0  0  0
 83143  1  0  0  0  0
 86144  1  0  0  0  0
 87145  1  0  0  0  0
 87146  1  0  0  0  0
 87147  1  0  0  0  0
 88148  1  0  0  0  0
 88149  1  0  0  0  0
 88150  1  0  0  0  0
 91151  1  0  0  0  0
 92152  1  0  0  0  0
 95153  1  0  0  0  0
 96154  1  0  0  0  0
 99155  1  0  0  0  0
 99156  1  0  0  0  0
100157  1  0  0  0  0
100158  1  0  0  0  0
100159  1  0  0  0  0
101160  1  0  0  0  0
101161  1  0  0  0  0
102162  1  0  0  0  0
102163  1  0  0  0  0
102164  1  0  0  0  0
M  END
