CH3-2F.mol
  xtb     01102217503D
 energy: -235.119190299286 gnorm: 0.000895660437 xtb: 6.4.1 (unknown)
134145  0     0  0            999 V2000
    6.0987   -0.4160   -1.7530 O   0  0  0  0  0  0  0  0  0  0  0  0
    7.1196    0.0430   -2.2361 C   0  0  0  0  0  0  0  0  0  0  0  0
    8.4048   -0.6773   -2.3726 C   0  0  0  0  0  0  0  0  0  0  0  0
    8.7133   -1.9628   -1.9779 C   0  0  0  0  0  0  0  0  0  0  0  0
    9.9982   -2.4192   -2.2258 C   0  0  0  0  0  0  0  0  0  0  0  0
   10.3440   -3.6603   -1.8564 F   0  0  0  0  0  0  0  0  0  0  0  0
   10.9325   -1.5992   -2.8560 C   0  0  0  0  0  0  0  0  0  0  0  0
   12.1655   -2.0671   -3.0873 F   0  0  0  0  0  0  0  0  0  0  0  0
   10.6204   -0.3061   -3.2520 C   0  0  0  0  0  0  0  0  0  0  0  0
    9.3394    0.1592   -3.0033 C   0  0  0  0  0  0  0  0  0  0  0  0
    8.6983    1.4475   -3.2842 C   0  0  0  0  0  0  0  0  0  0  0  0
    7.3397    1.3694   -2.8025 C   0  0  0  0  0  0  0  0  0  0  0  0
    6.4109    2.3913   -2.8699 C   0  0  0  0  0  0  0  0  0  0  0  0
    5.0960    2.4560   -2.4241 C   0  0  0  0  0  0  0  0  0  0  0  0
    4.2336    1.1696   -1.6038 S   0  0  0  0  0  0  0  0  0  0  0  0
    4.2800    3.6048   -2.5476 C   0  0  0  0  0  0  0  0  0  0  0  0
    4.6874    4.8609   -3.2492 C   0  0  0  0  0  0  0  0  0  0  0  0
    4.5097    4.7157   -4.7633 C   0  0  0  0  0  0  0  0  0  0  0  0
    3.0309    3.4297   -1.9934 C   0  0  0  0  0  0  0  0  0  0  0  0
    2.8351    2.1721   -1.4172 C   0  0  0  0  0  0  0  0  0  0  0  0
    1.6290    1.7258   -0.8426 C   0  0  0  0  0  0  0  0  0  0  0  0
    1.3206    0.5200   -0.1976 C   0  0  0  0  0  0  0  0  0  0  0  0
   -0.0816    0.3945   -0.0298 C   0  0  0  0  0  0  0  0  0  0  0  0
   -1.0890   -0.8468    0.6189 S   0  0  0  0  0  0  0  0  0  0  0  0
   -2.5306    0.1040    0.2791 C   0  0  0  0  0  0  0  0  0  0  0  0
   -3.7606   -0.5699    0.4535 C   0  0  0  0  0  0  0  0  0  0  0  0
   -3.7214   -2.1884    1.0773 S   0  0  0  0  0  0  0  0  0  0  0  0
   -5.0571   -0.1887    0.1194 C   0  0  0  0  0  0  0  0  0  0  0  0
   -6.0098   -1.1515    0.3949 C   0  0  0  0  0  0  0  0  0  0  0  0
   -7.4700   -0.8953    0.2051 C   0  0  0  0  0  0  0  0  0  0  0  0
   -8.0902   -0.4024    1.5157 C   0  0  0  0  0  0  0  0  0  0  0  0
   -5.4587   -2.3401    0.9197 C   0  0  0  0  0  0  0  0  0  0  0  0
   -6.2110   -3.4687    1.2328 C   0  0  0  0  0  0  0  0  0  0  0  0
   -5.8241   -4.7234    1.6599 C   0  0  0  0  0  0  0  0  0  0  0  0
   -6.7238   -5.8258    1.9140 C   0  0  0  0  0  0  0  0  0  0  0  0
   -8.0964   -5.8191    1.8700 C   0  0  0  0  0  0  0  0  0  0  0  0
   -8.9005   -6.9488    2.1275 C   0  0  0  0  0  0  0  0  0  0  0  0
   -9.6137   -7.8260    2.3272 N   0  0  0  0  0  0  0  0  0  0  0  0
   -8.9085   -4.7063    1.5711 C   0  0  0  0  0  0  0  0  0  0  0  0
   -9.6445   -3.8524    1.3459 N   0  0  0  0  0  0  0  0  0  0  0  0
   -5.9045   -6.9946    2.2452 C   0  0  0  0  0  0  0  0  0  0  0  0
   -4.5524   -6.6160    2.2192 C   0  0  0  0  0  0  0  0  0  0  0  0
   -3.5326   -7.5071    2.4845 C   0  0  0  0  0  0  0  0  0  0  0  0
   -3.8836   -8.8144    2.7818 C   0  0  0  0  0  0  0  0  0  0  0  0
   -5.2224   -9.2009    2.8104 C   0  0  0  0  0  0  0  0  0  0  0  0
   -5.5333  -10.4704    3.0984 F   0  0  0  0  0  0  0  0  0  0  0  0
   -6.2470   -8.3029    2.5454 C   0  0  0  0  0  0  0  0  0  0  0  0
   -2.9251   -9.7140    3.0419 F   0  0  0  0  0  0  0  0  0  0  0  0
   -4.4540   -5.1829    1.8660 C   0  0  0  0  0  0  0  0  0  0  0  0
   -3.4173   -4.5479    1.7655 O   0  0  0  0  0  0  0  0  0  0  0  0
   -2.2183    1.3775   -0.2152 C   0  0  0  0  0  0  0  0  0  0  0  0
   -3.0977    2.4107   -0.4525 N   0  0  0  0  0  0  0  0  0  0  0  0
   -2.8027    3.3016   -1.5040 C   0  0  0  0  0  0  0  0  0  0  0  0
   -2.8758    4.6782   -1.3167 C   0  0  0  0  0  0  0  0  0  0  0  0
   -2.5719    5.5332   -2.3572 C   0  0  0  0  0  0  0  0  0  0  0  0
   -2.1829    5.0451   -3.5991 C   0  0  0  0  0  0  0  0  0  0  0  0
   -1.8638    5.9755   -4.7277 C   0  0  0  0  0  0  0  0  0  0  0  0
   -2.1159    3.6679   -3.7767 C   0  0  0  0  0  0  0  0  0  0  0  0
   -2.4245    2.8018   -2.7473 C   0  0  0  0  0  0  0  0  0  0  0  0
   -4.1645    2.6911    0.4119 C   0  0  0  0  0  0  0  0  0  0  0  0
   -4.1068    2.3604    1.7628 C   0  0  0  0  0  0  0  0  0  0  0  0
   -5.1883    2.6070    2.5857 C   0  0  0  0  0  0  0  0  0  0  0  0
   -6.3479    3.1944    2.0959 C   0  0  0  0  0  0  0  0  0  0  0  0
   -7.5186    3.4680    2.9885 C   0  0  0  0  0  0  0  0  0  0  0  0
   -6.3901    3.5418    0.7495 C   0  0  0  0  0  0  0  0  0  0  0  0
   -5.3204    3.2946   -0.0856 C   0  0  0  0  0  0  0  0  0  0  0  0
   -0.8233    1.4942   -0.4317 C   0  0  0  0  0  0  0  0  0  0  0  0
    0.1938    2.7382   -1.0709 S   0  0  0  0  0  0  0  0  0  0  0  0
    2.1957   -0.4362    0.2496 N   0  0  0  0  0  0  0  0  0  0  0  0
    3.4428   -0.1451    0.8147 C   0  0  0  0  0  0  0  0  0  0  0  0
    3.6934    1.0712    1.4454 C   0  0  0  0  0  0  0  0  0  0  0  0
    4.9448    1.3369    1.9654 C   0  0  0  0  0  0  0  0  0  0  0  0
    5.9696    0.4032    1.8830 C   0  0  0  0  0  0  0  0  0  0  0  0
    7.3283    0.6954    2.4405 C   0  0  0  0  0  0  0  0  0  0  0  0
    5.6990   -0.8226    1.2838 C   0  0  0  0  0  0  0  0  0  0  0  0
    4.4573   -1.0994    0.7551 C   0  0  0  0  0  0  0  0  0  0  0  0
    1.6933   -1.7546    0.3637 C   0  0  0  0  0  0  0  0  0  0  0  0
    1.1143   -2.3716   -0.7406 C   0  0  0  0  0  0  0  0  0  0  0  0
    0.5149   -3.6084   -0.6042 C   0  0  0  0  0  0  0  0  0  0  0  0
    0.4807   -4.2547    0.6259 C   0  0  0  0  0  0  0  0  0  0  0  0
   -0.2727   -5.5337    0.7986 C   0  0  0  0  0  0  0  0  0  0  0  0
    1.1164   -3.6547    1.7076 C   0  0  0  0  0  0  0  0  0  0  0  0
    1.7196   -2.4193    1.5852 C   0  0  0  0  0  0  0  0  0  0  0  0
    9.3174    2.5113   -3.8955 C   0  0  0  0  0  0  0  0  0  0  0  0
   10.6569    2.4989   -4.3349 C   0  0  0  0  0  0  0  0  0  0  0  0
   11.7389    2.5581   -4.7152 N   0  0  0  0  0  0  0  0  0  0  0  0
    8.7284    3.7601   -4.1772 C   0  0  0  0  0  0  0  0  0  0  0  0
    8.3287    4.8051   -4.4419 N   0  0  0  0  0  0  0  0  0  0  0  0
    7.9837   -2.5943   -1.4968 H   0  0  0  0  0  0  0  0  0  0  0  0
   11.3801    0.2847   -3.7363 H   0  0  0  0  0  0  0  0  0  0  0  0
    6.7565    3.3026   -3.3383 H   0  0  0  0  0  0  0  0  0  0  0  0
    5.7262    5.1134   -3.0320 H   0  0  0  0  0  0  0  0  0  0  0  0
    4.0598    5.6795   -2.8931 H   0  0  0  0  0  0  0  0  0  0  0  0
    5.1280    3.9083   -5.1471 H   0  0  0  0  0  0  0  0  0  0  0  0
    3.4710    4.4991   -5.0029 H   0  0  0  0  0  0  0  0  0  0  0  0
    4.8005    5.6367   -5.2607 H   0  0  0  0  0  0  0  0  0  0  0  0
    2.2663    4.1881   -1.9866 H   0  0  0  0  0  0  0  0  0  0  0  0
   -5.3060    0.7547   -0.3270 H   0  0  0  0  0  0  0  0  0  0  0  0
   -7.5929   -0.1251   -0.5582 H   0  0  0  0  0  0  0  0  0  0  0  0
   -7.9944   -1.7909   -0.1298 H   0  0  0  0  0  0  0  0  0  0  0  0
   -7.5875    0.5021    1.8514 H   0  0  0  0  0  0  0  0  0  0  0  0
   -9.1451   -0.1882    1.3692 H   0  0  0  0  0  0  0  0  0  0  0  0
   -7.9988   -1.1596    2.2904 H   0  0  0  0  0  0  0  0  0  0  0  0
   -7.2743   -3.3331    1.0906 H   0  0  0  0  0  0  0  0  0  0  0  0
   -2.4976   -7.2058    2.4616 H   0  0  0  0  0  0  0  0  0  0  0  0
   -7.2650   -8.6540    2.5796 H   0  0  0  0  0  0  0  0  0  0  0  0
   -3.1628    5.0709   -0.3526 H   0  0  0  0  0  0  0  0  0  0  0  0
   -2.6279    6.6001   -2.1977 H   0  0  0  0  0  0  0  0  0  0  0  0
   -2.7281    6.0756   -5.3849 H   0  0  0  0  0  0  0  0  0  0  0  0
   -1.6059    6.9638   -4.3560 H   0  0  0  0  0  0  0  0  0  0  0  0
   -1.0364    5.5930   -5.3213 H   0  0  0  0  0  0  0  0  0  0  0  0
   -1.8212    3.2683   -4.7359 H   0  0  0  0  0  0  0  0  0  0  0  0
   -2.3755    1.7331   -2.8980 H   0  0  0  0  0  0  0  0  0  0  0  0
   -3.2134    1.9103    2.1682 H   0  0  0  0  0  0  0  0  0  0  0  0
   -5.1265    2.3388    3.6303 H   0  0  0  0  0  0  0  0  0  0  0  0
   -8.4530    3.2346    2.4819 H   0  0  0  0  0  0  0  0  0  0  0  0
   -7.5426    4.5235    3.2606 H   0  0  0  0  0  0  0  0  0  0  0  0
   -7.4572    2.8830    3.9026 H   0  0  0  0  0  0  0  0  0  0  0  0
   -7.2808    4.0019    0.3470 H   0  0  0  0  0  0  0  0  0  0  0  0
   -5.3774    3.5533   -1.1329 H   0  0  0  0  0  0  0  0  0  0  0  0
    2.9094    1.8102    1.5232 H   0  0  0  0  0  0  0  0  0  0  0  0
    5.1269    2.2903    2.4403 H   0  0  0  0  0  0  0  0  0  0  0  0
    7.4286    0.2559    3.4336 H   0  0  0  0  0  0  0  0  0  0  0  0
    8.1036    0.2687    1.8073 H   0  0  0  0  0  0  0  0  0  0  0  0
    7.4925    1.7667    2.5266 H   0  0  0  0  0  0  0  0  0  0  0  0
    6.4812   -1.5638    1.2165 H   0  0  0  0  0  0  0  0  0  0  0  0
    4.2701   -2.0428    0.2672 H   0  0  0  0  0  0  0  0  0  0  0  0
    1.1215   -1.8643   -1.6945 H   0  0  0  0  0  0  0  0  0  0  0  0
    0.0504   -4.0711   -1.4623 H   0  0  0  0  0  0  0  0  0  0  0  0
   -1.2970   -5.2936    1.0896 H   0  0  0  0  0  0  0  0  0  0  0  0
    0.1725   -6.1475    1.5782 H   0  0  0  0  0  0  0  0  0  0  0  0
   -0.3053   -6.1008   -0.1286 H   0  0  0  0  0  0  0  0  0  0  0  0
    1.1155   -4.1507    2.6668 H   0  0  0  0  0  0  0  0  0  0  0  0
    2.1882   -1.9487    2.4370 H   0  0  0  0  0  0  0  0  0  0  0  0
  1  2  2  0  0  0  0
  2  3  1  0  0  0  0
  3  4  2  0  0  0  0
  4  5  1  0  0  0  0
  5  6  1  0  0  0  0
  5  7  2  0  0  0  0
  7  8  1  0  0  0  0
  7  9  1  0  0  0  0
  9 10  2  0  0  0  0
  3 10  1  0  0  0  0
 10 11  1  0  0  0  0
 11 12  1  0  0  0  0
  2 12  1  0  0  0  0
 12 13  2  0  0  0  0
 13 14  1  0  0  0  0
 14 15  1  0  0  0  0
 14 16  2  0  0  0  0
 16 17  1  0  0  0  0
 17 18  1  0  0  0  0
 16 19  1  0  0  0  0
 19 20  2  0  0  0  0
 15 20  1  0  0  0  0
 20 21  1  0  0  0  0
 21 22  2  0  0  0  0
 22 23  1  0  0  0  0
 23 24  1  0  0  0  0
 24 25  1  0  0  0  0
 25 26  1  0  0  0  0
 26 27  1  0  0  0  0
 26 28  2  0  0  0  0
 28 29  1  0  0  0  0
 29 30  1  0  0  0  0
 30 31  1  0  0  0  0
 29 32  2  0  0  0  0
 27 32  1  0  0  0  0
 32 33  1  0  0  0  0
 33 34  2  0  0  0  0
 34 35  1  0  0  0  0
 35 36  2  0  0  0  0
 36 37  1  0  0  0  0
 37 38  3  0  0  0  0
 36 39  1  0  0  0  0
 39 40  3  0  0  0  0
 35 41  1  0  0  0  0
 41 42  2  0  0  0  0
 42 43  1  0  0  0  0
 43 44  2  0  0  0  0
 44 45  1  0  0  0  0
 45 46  1  0  0  0  0
 45 47  2  0  0  0  0
 41 47  1  0  0  0  0
 44 48  1  0  0  0  0
 42 49  1  0  0  0  0
 34 49  1  0  0  0  0
 49 50  2  0  0  0  0
 25 51  2  0  0  0  0
 51 52  1  0  0  0  0
 52 53  1  0  0  0  0
 53 54  2  0  0  0  0
 54 55  1  0  0  0  0
 55 56  2  0  0  0  0
 56 57  1  0  0  0  0
 56 58  1  0  0  0  0
 58 59  2  0  0  0  0
 53 59  1  0  0  0  0
 52 60  1  0  0  0  0
 60 61  2  0  0  0  0
 61 62  1  0  0  0  0
 62 63  2  0  0  0  0
 63 64  1  0  0  0  0
 63 65  1  0  0  0  0
 65 66  2  0  0  0  0
 60 66  1  0  0  0  0
 23 67  2  0  0  0  0
 51 67  1  0  0  0  0
 67 68  1  0  0  0  0
 21 68  1  0  0  0  0
 22 69  1  0  0  0  0
 69 70  1  0  0  0  0
 70 71  2  0  0  0  0
 71 72  1  0  0  0  0
 72 73  2  0  0  0  0
 73 74  1  0  0  0  0
 73 75  1  0  0  0  0
 75 76  2  0  0  0  0
 70 76  1  0  0  0  0
 69 77  1  0  0  0  0
 77 78  2  0  0  0  0
 78 79  1  0  0  0  0
 79 80  2  0  0  0  0
 80 81  1  0  0  0  0
 80 82  1  0  0  0  0
 82 83  2  0  0  0  0
 77 83  1  0  0  0  0
 11 84  2  0  0  0  0
 84 85  1  0  0  0  0
 85 86  3  0  0  0  0
 84 87  1  0  0  0  0
 87 88  3  0  0  0  0
  4 89  1  0  0  0  0
  9 90  1  0  0  0  0
 13 91  1  0  0  0  0
 17 92  1  0  0  0  0
 17 93  1  0  0  0  0
 18 94  1  0  0  0  0
 18 95  1  0  0  0  0
 18 96  1  0  0  0  0
 19 97  1  0  0  0  0
 28 98  1  0  0  0  0
 30 99  1  0  0  0  0
 30100  1  0  0  0  0
 31101  1  0  0  0  0
 31102  1  0  0  0  0
 31103  1  0  0  0  0
 33104  1  0  0  0  0
 43105  1  0  0  0  0
 47106  1  0  0  0  0
 54107  1  0  0  0  0
 55108  1  0  0  0  0
 57109  1  0  0  0  0
 57110  1  0  0  0  0
 57111  1  0  0  0  0
 58112  1  0  0  0  0
 59113  1  0  0  0  0
 61114  1  0  0  0  0
 62115  1  0  0  0  0
 64116  1  0  0  0  0
 64117  1  0  0  0  0
 64118  1  0  0  0  0
 65119  1  0  0  0  0
 66120  1  0  0  0  0
 71121  1  0  0  0  0
 72122  1  0  0  0  0
 74123  1  0  0  0  0
 74124  1  0  0  0  0
 74125  1  0  0  0  0
 75126  1  0  0  0  0
 76127  1  0  0  0  0
 78128  1  0  0  0  0
 79129  1  0  0  0  0
 81130  1  0  0  0  0
 81131  1  0  0  0  0
 81132  1  0  0  0  0
 82133  1  0  0  0  0
 83134  1  0  0  0  0
M  END
