Cl-ITIC.sdf
  xtb     12202114023D
 energy: -233.303987769445 gnorm: 0.000748728998 xtb: 6.4.1 (unknown)
138152  0     0  0            999 V2000
   -1.9485    8.4135   -2.8620 C   0  0  0  0  0  0  0  0  0  0  0  0
   -2.6295    7.4097   -2.8083 O   0  0  0  0  0  0  0  0  0  0  0  0
   -2.4661    9.7910   -2.9737 C   0  0  0  0  0  0  0  0  0  0  0  0
   -3.7809   10.2172   -2.9843 C   0  0  0  0  0  0  0  0  0  0  0  0
   -4.0364   11.5752   -3.0812 C   0  0  0  0  0  0  0  0  0  0  0  0
   -2.9771   12.4723   -3.1637 C   0  0  0  0  0  0  0  0  0  0  0  0
   -1.6495   12.0551   -3.1595 C   0  0  0  0  0  0  0  0  0  0  0  0
   -1.3972   10.6967   -3.0656 C   0  0  0  0  0  0  0  0  0  0  0  0
   -0.1437    9.9429   -3.0385 C   0  0  0  0  0  0  0  0  0  0  0  0
    1.0984   10.4829   -3.2452 C   0  0  0  0  0  0  0  0  0  0  0  0
    1.3369   11.8576   -3.4609 C   0  0  0  0  0  0  0  0  0  0  0  0
    1.6049   12.9599   -3.6354 N   0  0  0  0  0  0  0  0  0  0  0  0
    2.3162    9.7722   -3.3157 C   0  0  0  0  0  0  0  0  0  0  0  0
    3.3512    9.2828   -3.4094 N   0  0  0  0  0  0  0  0  0  0  0  0
   -0.4742    8.5437   -2.8231 C   0  0  0  0  0  0  0  0  0  0  0  0
    0.4622    7.5872   -2.5265 C   0  0  0  0  0  0  0  0  0  0  0  0
    0.3449    6.2108   -2.2673 C   0  0  0  0  0  0  0  0  0  0  0  0
   -0.7195    5.3237   -2.3426 C   0  0  0  0  0  0  0  0  0  0  0  0
   -0.3574    4.0445   -1.9520 C   0  0  0  0  0  0  0  0  0  0  0  0
    0.9965    3.9119   -1.5718 C   0  0  0  0  0  0  0  0  0  0  0  0
    1.8277    5.4053   -1.7246 S   0  0  0  0  0  0  0  0  0  0  0  0
    1.2967    2.6299   -1.1222 C   0  0  0  0  0  0  0  0  0  0  0  0
    2.4963    1.8839   -0.6023 C   0  0  0  0  0  0  0  0  0  0  0  0
    3.4871    1.8000   -1.7533 C   0  0  0  0  0  0  0  0  0  0  0  0
    4.2332    2.9279   -2.0750 C   0  0  0  0  0  0  0  0  0  0  0  0
    5.0960    2.9138   -3.1528 C   0  0  0  0  0  0  0  0  0  0  0  0
    5.2347    1.7766   -3.9395 C   0  0  0  0  0  0  0  0  0  0  0  0
    6.2022    1.7520   -5.0872 C   0  0  0  0  0  0  0  0  0  0  0  0
    7.5888    1.3149   -4.6104 C   0  0  0  0  0  0  0  0  0  0  0  0
    4.4882    0.6534   -3.6119 C   0  0  0  0  0  0  0  0  0  0  0  0
    3.6178    0.6631   -2.5361 C   0  0  0  0  0  0  0  0  0  0  0  0
    3.1264    2.4960    0.6321 C   0  0  0  0  0  0  0  0  0  0  0  0
    4.4385    2.1852    0.9664 C   0  0  0  0  0  0  0  0  0  0  0  0
    5.0115    2.7056    2.1105 C   0  0  0  0  0  0  0  0  0  0  0  0
    4.2916    3.5450    2.9511 C   0  0  0  0  0  0  0  0  0  0  0  0
    4.9370    4.1531    4.1622 C   0  0  0  0  0  0  0  0  0  0  0  0
    5.6342    5.4636    3.7910 C   0  0  0  0  0  0  0  0  0  0  0  0
    2.9782    3.8446    2.6166 C   0  0  0  0  0  0  0  0  0  0  0  0
    2.3978    3.3218    1.4756 C   0  0  0  0  0  0  0  0  0  0  0  0
    1.8648    0.5507   -0.2412 C   0  0  0  0  0  0  0  0  0  0  0  0
    0.5036    0.5139   -0.6292 C   0  0  0  0  0  0  0  0  0  0  0  0
    0.1897    1.7972   -1.1740 C   0  0  0  0  0  0  0  0  0  0  0  0
   -1.2430    2.5543   -1.7787 S   0  0  0  0  0  0  0  0  0  0  0  0
   -0.2963   -0.6043   -0.4067 C   0  0  0  0  0  0  0  0  0  0  0  0
    0.2774   -1.6647    0.2540 C   0  0  0  0  0  0  0  0  0  0  0  0
   -0.3702   -2.9732    0.6698 C   0  0  0  0  0  0  0  0  0  0  0  0
   -1.6722   -2.7046    1.3941 C   0  0  0  0  0  0  0  0  0  0  0  0
   -1.7084   -2.5420    2.7711 C   0  0  0  0  0  0  0  0  0  0  0  0
   -2.9036   -2.2749    3.4132 C   0  0  0  0  0  0  0  0  0  0  0  0
   -4.0873   -2.1548    2.6981 C   0  0  0  0  0  0  0  0  0  0  0  0
   -5.3775   -1.8268    3.3924 C   0  0  0  0  0  0  0  0  0  0  0  0
   -5.5831   -0.3118    3.4519 C   0  0  0  0  0  0  0  0  0  0  0  0
   -4.0416   -2.2989    1.3174 C   0  0  0  0  0  0  0  0  0  0  0  0
   -2.8511   -2.5707    0.6715 C   0  0  0  0  0  0  0  0  0  0  0  0
   -0.5650   -3.9445   -0.4860 C   0  0  0  0  0  0  0  0  0  0  0  0
    0.0030   -3.7328   -1.7330 C   0  0  0  0  0  0  0  0  0  0  0  0
   -0.1436   -4.6754   -2.7354 C   0  0  0  0  0  0  0  0  0  0  0  0
   -0.8453   -5.8519   -2.5142 C   0  0  0  0  0  0  0  0  0  0  0  0
   -1.0313   -6.8572   -3.6137 C   0  0  0  0  0  0  0  0  0  0  0  0
   -2.3287   -6.5818   -4.3765 C   0  0  0  0  0  0  0  0  0  0  0  0
   -1.4089   -6.0586   -1.2607 C   0  0  0  0  0  0  0  0  0  0  0  0
   -1.2703   -5.1204   -0.2573 C   0  0  0  0  0  0  0  0  0  0  0  0
    0.7173   -3.5647    1.5257 C   0  0  0  0  0  0  0  0  0  0  0  0
    1.8608   -2.7847    1.4647 C   0  0  0  0  0  0  0  0  0  0  0  0
    1.6201   -1.6013    0.7010 C   0  0  0  0  0  0  0  0  0  0  0  0
    2.4334   -0.5022    0.4362 C   0  0  0  0  0  0  0  0  0  0  0  0
    3.1927   -3.4047    2.3811 S   0  0  0  0  0  0  0  0  0  0  0  0
    2.1888   -4.7395    2.8866 C   0  0  0  0  0  0  0  0  0  0  0  0
    0.8908   -4.6870    2.3314 C   0  0  0  0  0  0  0  0  0  0  0  0
   -0.0991   -5.9833    2.8791 S   0  0  0  0  0  0  0  0  0  0  0  0
    1.2231   -6.5902    3.8717 C   0  0  0  0  0  0  0  0  0  0  0  0
    2.3746   -5.8072    3.7402 C   0  0  0  0  0  0  0  0  0  0  0  0
    1.1783   -7.6855    4.7450 C   0  0  0  0  0  0  0  0  0  0  0  0
    0.1465   -8.5338    5.0611 C   0  0  0  0  0  0  0  0  0  0  0  0
    0.1968   -9.5996    6.0422 C   0  0  0  0  0  0  0  0  0  0  0  0
    1.2609   -9.9717    6.8216 C   0  0  0  0  0  0  0  0  0  0  0  0
    2.5431   -9.3829    6.8088 C   0  0  0  0  0  0  0  0  0  0  0  0
    3.6108   -8.9630    6.8640 N   0  0  0  0  0  0  0  0  0  0  0  0
    1.2233  -11.0162    7.7703 C   0  0  0  0  0  0  0  0  0  0  0  0
    1.2683  -11.8494    8.5584 N   0  0  0  0  0  0  0  0  0  0  0  0
   -1.1273  -10.2259    6.0743 C   0  0  0  0  0  0  0  0  0  0  0  0
   -1.6270  -11.2705    6.8328 C   0  0  0  0  0  0  0  0  0  0  0  0
   -2.9540  -11.6428    6.6367 C   0  0  0  0  0  0  0  0  0  0  0  0
   -3.7742  -11.0042    5.7135 C   0  0  0  0  0  0  0  0  0  0  0  0
   -3.2724   -9.9590    4.9548 C   0  0  0  0  0  0  0  0  0  0  0  0
   -1.9571   -9.5792    5.1421 C   0  0  0  0  0  0  0  0  0  0  0  0
   -1.1995   -8.5061    4.4746 C   0  0  0  0  0  0  0  0  0  0  0  0
   -1.6198   -7.7598    3.6085 O   0  0  0  0  0  0  0  0  0  0  0  0
   -3.5958  -12.9382    7.5733 Cl  0  0  0  0  0  0  0  0  0  0  0  0
   -3.3136   14.1582   -3.2729 Cl  0  0  0  0  0  0  0  0  0  0  0  0
   -4.5828    9.4985   -2.9164 H   0  0  0  0  0  0  0  0  0  0  0  0
   -5.0492   11.9454   -3.0911 H   0  0  0  0  0  0  0  0  0  0  0  0
   -0.8602   12.7855   -3.2221 H   0  0  0  0  0  0  0  0  0  0  0  0
    1.4823    7.9418   -2.4322 H   0  0  0  0  0  0  0  0  0  0  0  0
   -1.7040    5.6188   -2.6549 H   0  0  0  0  0  0  0  0  0  0  0  0
    4.1386    3.8205   -1.4733 H   0  0  0  0  0  0  0  0  0  0  0  0
    5.6646    3.8010   -3.3904 H   0  0  0  0  0  0  0  0  0  0  0  0
    6.2726    2.7467   -5.5314 H   0  0  0  0  0  0  0  0  0  0  0  0
    5.8502    1.0587   -5.8537 H   0  0  0  0  0  0  0  0  0  0  0  0
    7.5425    0.3203   -4.1721 H   0  0  0  0  0  0  0  0  0  0  0  0
    7.9643    2.0038   -3.8572 H   0  0  0  0  0  0  0  0  0  0  0  0
    8.2881    1.2955   -5.4429 H   0  0  0  0  0  0  0  0  0  0  0  0
    4.5814   -0.2419   -4.2101 H   0  0  0  0  0  0  0  0  0  0  0  0
    3.0406   -0.2212   -2.3082 H   0  0  0  0  0  0  0  0  0  0  0  0
    5.0181    1.5417    0.3202 H   0  0  0  0  0  0  0  0  0  0  0  0
    6.0339    2.4554    2.3553 H   0  0  0  0  0  0  0  0  0  0  0  0
    4.1820    4.3501    4.9258 H   0  0  0  0  0  0  0  0  0  0  0  0
    5.6714    3.4602    4.5778 H   0  0  0  0  0  0  0  0  0  0  0  0
    6.1022    5.9071    4.6665 H   0  0  0  0  0  0  0  0  0  0  0  0
    6.4003    5.2848    3.0399 H   0  0  0  0  0  0  0  0  0  0  0  0
    4.9160    6.1718    3.3839 H   0  0  0  0  0  0  0  0  0  0  0  0
    2.3987    4.4927    3.2585 H   0  0  0  0  0  0  0  0  0  0  0  0
    1.3699    3.5608    1.2433 H   0  0  0  0  0  0  0  0  0  0  0  0
   -1.3287   -0.6186   -0.7201 H   0  0  0  0  0  0  0  0  0  0  0  0
   -0.7998   -2.6273    3.3493 H   0  0  0  0  0  0  0  0  0  0  0  0
   -2.9162   -2.1623    4.4879 H   0  0  0  0  0  0  0  0  0  0  0  0
   -6.2123   -2.2818    2.8555 H   0  0  0  0  0  0  0  0  0  0  0  0
   -5.3642   -2.2286    4.4074 H   0  0  0  0  0  0  0  0  0  0  0  0
   -6.5144   -0.0738    3.9604 H   0  0  0  0  0  0  0  0  0  0  0  0
   -5.6187    0.1052    2.4479 H   0  0  0  0  0  0  0  0  0  0  0  0
   -4.7631    0.1602    3.9886 H   0  0  0  0  0  0  0  0  0  0  0  0
   -4.9509   -2.2042    0.7410 H   0  0  0  0  0  0  0  0  0  0  0  0
   -2.8388   -2.6958   -0.4018 H   0  0  0  0  0  0  0  0  0  0  0  0
    0.5630   -2.8298   -1.9281 H   0  0  0  0  0  0  0  0  0  0  0  0
    0.3030   -4.4943   -3.7029 H   0  0  0  0  0  0  0  0  0  0  0  0
   -1.0695   -7.8633   -3.1913 H   0  0  0  0  0  0  0  0  0  0  0  0
   -0.1890   -6.8088   -4.3068 H   0  0  0  0  0  0  0  0  0  0  0  0
   -2.4628   -7.3085   -5.1743 H   0  0  0  0  0  0  0  0  0  0  0  0
   -3.1820   -6.6414   -3.7046 H   0  0  0  0  0  0  0  0  0  0  0  0
   -2.3062   -5.5859   -4.8134 H   0  0  0  0  0  0  0  0  0  0  0  0
   -1.9565   -6.9688   -1.0639 H   0  0  0  0  0  0  0  0  0  0  0  0
   -1.7126   -5.3003    0.7116 H   0  0  0  0  0  0  0  0  0  0  0  0
    3.4576   -0.4761    0.7749 H   0  0  0  0  0  0  0  0  0  0  0  0
    3.2858   -6.0233    4.2686 H   0  0  0  0  0  0  0  0  0  0  0  0
    2.1181   -7.8521    5.2576 H   0  0  0  0  0  0  0  0  0  0  0  0
   -1.0281  -11.7939    7.5593 H   0  0  0  0  0  0  0  0  0  0  0  0
   -4.7963  -11.3277    5.5966 H   0  0  0  0  0  0  0  0  0  0  0  0
   -3.8866   -9.4449    4.2321 H   0  0  0  0  0  0  0  0  0  0  0  0
  1  2  2  0  0  0  0
  1  3  1  0  0  0  0
  3  4  2  0  0  0  0
  4  5  1  0  0  0  0
  5  6  2  0  0  0  0
  6  7  1  0  0  0  0
  7  8  2  0  0  0  0
  3  8  1  0  0  0  0
  8  9  1  0  0  0  0
  9 10  2  0  0  0  0
 10 11  1  0  0  0  0
 11 12  3  0  0  0  0
 10 13  1  0  0  0  0
 13 14  3  0  0  0  0
  9 15  1  0  0  0  0
  1 15  1  0  0  0  0
 15 16  2  0  0  0  0
 16 17  1  0  0  0  0
 17 18  2  0  0  0  0
 18 19  1  0  0  0  0
 19 20  2  0  0  0  0
 20 21  1  0  0  0  0
 17 21  1  0  0  0  0
 20 22  1  0  0  0  0
 22 23  1  0  0  0  0
 23 24  1  0  0  0  0
 24 25  2  0  0  0  0
 25 26  1  0  0  0  0
 26 27  2  0  0  0  0
 27 28  1  0  0  0  0
 28 29  1  0  0  0  0
 27 30  1  0  0  0  0
 30 31  2  0  0  0  0
 24 31  1  0  0  0  0
 23 32  1  0  0  0  0
 32 33  2  0  0  0  0
 33 34  1  0  0  0  0
 34 35  2  0  0  0  0
 35 36  1  0  0  0  0
 36 37  1  0  0  0  0
 35 38  1  0  0  0  0
 38 39  2  0  0  0  0
 32 39  1  0  0  0  0
 23 40  1  0  0  0  0
 40 41  2  0  0  0  0
 41 42  1  0  0  0  0
 22 42  2  0  0  0  0
 42 43  1  0  0  0  0
 19 43  1  0  0  0  0
 41 44  1  0  0  0  0
 44 45  2  0  0  0  0
 45 46  1  0  0  0  0
 46 47  1  0  0  0  0
 47 48  2  0  0  0  0
 48 49  1  0  0  0  0
 49 50  2  0  0  0  0
 50 51  1  0  0  0  0
 51 52  1  0  0  0  0
 50 53  1  0  0  0  0
 53 54  2  0  0  0  0
 47 54  1  0  0  0  0
 46 55  1  0  0  0  0
 55 56  2  0  0  0  0
 56 57  1  0  0  0  0
 57 58  2  0  0  0  0
 58 59  1  0  0  0  0
 59 60  1  0  0  0  0
 58 61  1  0  0  0  0
 61 62  2  0  0  0  0
 55 62  1  0  0  0  0
 46 63  1  0  0  0  0
 63 64  2  0  0  0  0
 64 65  1  0  0  0  0
 45 65  1  0  0  0  0
 65 66  2  0  0  0  0
 40 66  1  0  0  0  0
 64 67  1  0  0  0  0
 67 68  1  0  0  0  0
 68 69  2  0  0  0  0
 63 69  1  0  0  0  0
 69 70  1  0  0  0  0
 70 71  1  0  0  0  0
 71 72  2  0  0  0  0
 68 72  1  0  0  0  0
 71 73  1  0  0  0  0
 73 74  2  0  0  0  0
 74 75  1  0  0  0  0
 75 76  2  0  0  0  0
 76 77  1  0  0  0  0
 77 78  3  0  0  0  0
 76 79  1  0  0  0  0
 79 80  3  0  0  0  0
 75 81  1  0  0  0  0
 81 82  2  0  0  0  0
 82 83  1  0  0  0  0
 83 84  2  0  0  0  0
 84 85  1  0  0  0  0
 85 86  2  0  0  0  0
 81 86  1  0  0  0  0
 86 87  1  0  0  0  0
 74 87  1  0  0  0  0
 87 88  2  0  0  0  0
 83 89  1  0  0  0  0
  6 90  1  0  0  0  0
  4 91  1  0  0  0  0
  5 92  1  0  0  0  0
  7 93  1  0  0  0  0
 16 94  1  0  0  0  0
 18 95  1  0  0  0  0
 25 96  1  0  0  0  0
 26 97  1  0  0  0  0
 28 98  1  0  0  0  0
 28 99  1  0  0  0  0
 29100  1  0  0  0  0
 29101  1  0  0  0  0
 29102  1  0  0  0  0
 30103  1  0  0  0  0
 31104  1  0  0  0  0
 33105  1  0  0  0  0
 34106  1  0  0  0  0
 36107  1  0  0  0  0
 36108  1  0  0  0  0
 37109  1  0  0  0  0
 37110  1  0  0  0  0
 37111  1  0  0  0  0
 38112  1  0  0  0  0
 39113  1  0  0  0  0
 44114  1  0  0  0  0
 48115  1  0  0  0  0
 49116  1  0  0  0  0
 51117  1  0  0  0  0
 51118  1  0  0  0  0
 52119  1  0  0  0  0
 52120  1  0  0  0  0
 52121  1  0  0  0  0
 53122  1  0  0  0  0
 54123  1  0  0  0  0
 56124  1  0  0  0  0
 57125  1  0  0  0  0
 59126  1  0  0  0  0
 59127  1  0  0  0  0
 60128  1  0  0  0  0
 60129  1  0  0  0  0
 60130  1  0  0  0  0
 61131  1  0  0  0  0
 62132  1  0  0  0  0
 66133  1  0  0  0  0
 72134  1  0  0  0  0
 73135  1  0  0  0  0
 82136  1  0  0  0  0
 84137  1  0  0  0  0
 85138  1  0  0  0  0
M  END
