CNDTBT-C8IDT-FINCN.mol
  xtb     01102217593D
 energy: -295.321872030257 gnorm: 0.001255447657 xtb: 6.4.1 (unknown)
169186  0     0  0            999 V2000
   -3.7105    6.7110   -7.3741 O   0  0  0  0  0  0  0  0  0  0  0  0
   -3.4752    7.5631   -8.2072 C   0  0  0  0  0  0  0  0  0  0  0  0
   -3.8658    8.9873   -8.0963 C   0  0  0  0  0  0  0  0  0  0  0  0
   -4.5151    9.6107   -7.0492 C   0  0  0  0  0  0  0  0  0  0  0  0
   -4.7629   10.9687   -7.1649 C   0  0  0  0  0  0  0  0  0  0  0  0
   -5.3872   11.6165   -6.1728 F   0  0  0  0  0  0  0  0  0  0  0  0
   -4.3651   11.6681   -8.3044 C   0  0  0  0  0  0  0  0  0  0  0  0
   -4.6110   12.9809   -8.3871 F   0  0  0  0  0  0  0  0  0  0  0  0
   -3.7169   11.0395   -9.3574 C   0  0  0  0  0  0  0  0  0  0  0  0
   -3.4657    9.6805   -9.2487 C   0  0  0  0  0  0  0  0  0  0  0  0
   -2.8162    8.7357  -10.1575 C   0  0  0  0  0  0  0  0  0  0  0  0
   -2.7557    7.4483   -9.4895 C   0  0  0  0  0  0  0  0  0  0  0  0
   -2.0208    6.3868   -9.9657 C   0  0  0  0  0  0  0  0  0  0  0  0
   -1.8385    5.0890   -9.4721 C   0  0  0  0  0  0  0  0  0  0  0  0
   -2.4536    4.3732   -8.4448 C   0  0  0  0  0  0  0  0  0  0  0  0
   -1.9029    3.1191   -8.2694 C   0  0  0  0  0  0  0  0  0  0  0  0
   -0.8836    2.8353   -9.1815 C   0  0  0  0  0  0  0  0  0  0  0  0
   -0.5851    4.1207  -10.2613 S   0  0  0  0  0  0  0  0  0  0  0  0
   -0.3229    1.5498   -8.9285 C   0  0  0  0  0  0  0  0  0  0  0  0
    0.7516    0.8967   -9.5348 C   0  0  0  0  0  0  0  0  0  0  0  0
    1.1674   -0.2915   -8.9831 C   0  0  0  0  0  0  0  0  0  0  0  0
    0.4696   -0.8332   -7.8748 C   0  0  0  0  0  0  0  0  0  0  0  0
    1.1292   -2.0470   -7.5202 C   0  0  0  0  0  0  0  0  0  0  0  0
    0.9752   -3.2266   -6.2839 S   0  0  0  0  0  0  0  0  0  0  0  0
    2.4177   -4.0314   -6.8643 C   0  0  0  0  0  0  0  0  0  0  0  0
    2.9759   -5.0931   -6.0987 C   0  0  0  0  0  0  0  0  0  0  0  0
    4.2461   -5.6303   -6.1768 C   0  0  0  0  0  0  0  0  0  0  0  0
    4.5478   -6.4919   -5.1209 C   0  0  0  0  0  0  0  0  0  0  0  0
    3.5072   -6.6529   -4.2346 C   0  0  0  0  0  0  0  0  0  0  0  0
    3.4545   -7.2631   -2.9364 C   0  0  0  0  0  0  0  0  0  0  0  0
    4.5234   -7.2782   -2.0402 C   0  0  0  0  0  0  0  0  0  0  0  0
    5.8208   -6.8886   -2.4405 C   0  0  0  0  0  0  0  0  0  0  0  0
    6.8807   -6.5775   -2.7482 N   0  0  0  0  0  0  0  0  0  0  0  0
    4.3395   -7.5612   -0.6578 C   0  0  0  0  0  0  0  0  0  0  0  0
    5.4804   -7.4847    0.1744 C   0  0  0  0  0  0  0  0  0  0  0  0
    6.4215   -7.4709    0.8292 N   0  0  0  0  0  0  0  0  0  0  0  0
    3.0975   -7.8817   -0.1116 C   0  0  0  0  0  0  0  0  0  0  0  0
    2.8007   -7.8234    1.2927 C   0  0  0  0  0  0  0  0  0  0  0  0
    1.8284   -8.4964    1.9968 C   0  0  0  0  0  0  0  0  0  0  0  0
    1.6251   -7.9918    3.2811 C   0  0  0  0  0  0  0  0  0  0  0  0
    2.4130   -6.8932    3.5674 C   0  0  0  0  0  0  0  0  0  0  0  0
    3.4955   -6.5487    2.2556 S   0  0  0  0  0  0  0  0  0  0  0  0
    2.3098   -5.9942    4.6647 C   0  0  0  0  0  0  0  0  0  0  0  0
    1.4570   -6.0680    5.7535 C   0  0  0  0  0  0  0  0  0  0  0  0
    1.4681   -4.8967    6.5061 C   0  0  0  0  0  0  0  0  0  0  0  0
    2.3373   -3.9401    6.0077 C   0  0  0  0  0  0  0  0  0  0  0  0
    2.2037   -2.7106    6.7190 C   0  0  0  0  0  0  0  0  0  0  0  0
    2.7953   -1.4702    6.4937 C   0  0  0  0  0  0  0  0  0  0  0  0
    2.3508   -0.4094    7.2483 C   0  0  0  0  0  0  0  0  0  0  0  0
    1.3043   -0.5939    8.1852 C   0  0  0  0  0  0  0  0  0  0  0  0
    0.9465    0.6938    8.6840 C   0  0  0  0  0  0  0  0  0  0  0  0
   -0.2439    1.3249    9.7322 S   0  0  0  0  0  0  0  0  0  0  0  0
    0.3224    2.9563    9.3902 C   0  0  0  0  0  0  0  0  0  0  0  0
   -0.2033    4.1480    9.8915 C   0  0  0  0  0  0  0  0  0  0  0  0
   -1.2717    4.3811   10.7285 C   0  0  0  0  0  0  0  0  0  0  0  0
   -2.1502    3.3607   11.3012 C   0  0  0  0  0  0  0  0  0  0  0  0
   -3.1775    4.0956   12.0712 C   0  0  0  0  0  0  0  0  0  0  0  0
   -2.9250    5.4746   11.9842 C   0  0  0  0  0  0  0  0  0  0  0  0
   -3.7649    6.3701   12.6268 C   0  0  0  0  0  0  0  0  0  0  0  0
   -4.2449    3.5857   12.7821 C   0  0  0  0  0  0  0  0  0  0  0  0
   -5.0807    4.4879   13.4207 C   0  0  0  0  0  0  0  0  0  0  0  0
   -6.1310    4.0385   14.1198 F   0  0  0  0  0  0  0  0  0  0  0  0
   -4.8392    5.8588   13.3407 C   0  0  0  0  0  0  0  0  0  0  0  0
   -5.6632    6.7080   13.9660 F   0  0  0  0  0  0  0  0  0  0  0  0
   -2.0745    2.1511   11.1833 O   0  0  0  0  0  0  0  0  0  0  0  0
   -1.7314    5.6833   11.1610 C   0  0  0  0  0  0  0  0  0  0  0  0
   -1.1751    6.9056   10.8825 C   0  0  0  0  0  0  0  0  0  0  0  0
   -0.0208    7.1324   10.1042 C   0  0  0  0  0  0  0  0  0  0  0  0
    0.9076    7.4103    9.4873 N   0  0  0  0  0  0  0  0  0  0  0  0
   -1.6886    8.1334   11.3512 C   0  0  0  0  0  0  0  0  0  0  0  0
   -2.0527    9.1662   11.6953 N   0  0  0  0  0  0  0  0  0  0  0  0
    1.4068    2.9446    8.4943 C   0  0  0  0  0  0  0  0  0  0  0  0
    1.7476    1.6763    8.0914 C   0  0  0  0  0  0  0  0  0  0  0  0
    2.7676    1.0475    7.1783 C   0  0  0  0  0  0  0  0  0  0  0  0
    2.6868    1.6091    5.7509 C   0  0  0  0  0  0  0  0  0  0  0  0
    1.2904    1.4856    5.1517 C   0  0  0  0  0  0  0  0  0  0  0  0
    4.1617    1.2801    7.8069 C   0  0  0  0  0  0  0  0  0  0  0  0
    5.3195    0.5691    7.1196 C   0  0  0  0  0  0  0  0  0  0  0  0
    0.7391   -1.8453    8.4354 C   0  0  0  0  0  0  0  0  0  0  0  0
    1.2075   -2.9120    7.7063 C   0  0  0  0  0  0  0  0  0  0  0  0
    0.7440   -4.3584    7.7139 C   0  0  0  0  0  0  0  0  0  0  0  0
   -0.7797   -4.4897    7.5827 C   0  0  0  0  0  0  0  0  0  0  0  0
   -1.3136   -3.8583    6.3019 C   0  0  0  0  0  0  0  0  0  0  0  0
    1.2795   -5.1151    8.9526 C   0  0  0  0  0  0  0  0  0  0  0  0
    0.7944   -4.5904   10.2970 C   0  0  0  0  0  0  0  0  0  0  0  0
    3.1744   -4.4727    4.6088 S   0  0  0  0  0  0  0  0  0  0  0  0
    2.0440   -8.0793   -1.0425 C   0  0  0  0  0  0  0  0  0  0  0  0
    0.8016   -8.4794   -0.7841 N   0  0  0  0  0  0  0  0  0  0  0  0
   -0.0538   -8.4457   -2.1457 S   0  0  0  0  0  0  0  0  0  0  0  0
    1.0989   -7.9061   -3.1253 N   0  0  0  0  0  0  0  0  0  0  0  0
    2.2178   -7.7369   -2.4269 C   0  0  0  0  0  0  0  0  0  0  0  0
    2.1072   -5.7533   -4.7511 S   0  0  0  0  0  0  0  0  0  0  0  0
    2.9447   -3.4097   -7.9826 C   0  0  0  0  0  0  0  0  0  0  0  0
    2.2088   -2.2857   -8.3526 C   0  0  0  0  0  0  0  0  0  0  0  0
    2.3436   -1.1753   -9.3640 C   0  0  0  0  0  0  0  0  0  0  0  0
    3.7062   -0.4926   -9.0978 C   0  0  0  0  0  0  0  0  0  0  0  0
    4.0245    0.7352   -9.9399 C   0  0  0  0  0  0  0  0  0  0  0  0
    2.2357   -1.6887  -10.8078 C   0  0  0  0  0  0  0  0  0  0  0  0
    0.9760   -2.5154  -11.0397 C   0  0  0  0  0  0  0  0  0  0  0  0
   -0.6228   -0.1985   -7.2902 C   0  0  0  0  0  0  0  0  0  0  0  0
   -1.0215    1.0055   -7.8237 C   0  0  0  0  0  0  0  0  0  0  0  0
   -2.1189    1.9445   -7.3489 C   0  0  0  0  0  0  0  0  0  0  0  0
   -1.8662    2.3042   -5.8714 C   0  0  0  0  0  0  0  0  0  0  0  0
   -2.8724    3.2653   -5.2515 C   0  0  0  0  0  0  0  0  0  0  0  0
   -3.5315    1.3840   -7.6224 C   0  0  0  0  0  0  0  0  0  0  0  0
   -3.9153    0.1452   -6.8243 C   0  0  0  0  0  0  0  0  0  0  0  0
   -2.4029    9.0363  -11.4296 C   0  0  0  0  0  0  0  0  0  0  0  0
   -2.4996   10.3205  -12.0072 C   0  0  0  0  0  0  0  0  0  0  0  0
   -2.5412   11.3392  -12.5346 N   0  0  0  0  0  0  0  0  0  0  0  0
   -1.8573    8.1307  -12.3648 C   0  0  0  0  0  0  0  0  0  0  0  0
   -1.4261    7.4679  -13.1980 N   0  0  0  0  0  0  0  0  0  0  0  0
   -4.8183    9.0650   -6.1699 H   0  0  0  0  0  0  0  0  0  0  0  0
   -3.4291   11.6271  -10.2134 H   0  0  0  0  0  0  0  0  0  0  0  0
   -1.4385    6.5858  -10.8580 H   0  0  0  0  0  0  0  0  0  0  0  0
   -3.2606    4.7918   -7.8749 H   0  0  0  0  0  0  0  0  0  0  0  0
    1.2295    1.3377  -10.3953 H   0  0  0  0  0  0  0  0  0  0  0  0
    4.9490   -5.3708   -6.9469 H   0  0  0  0  0  0  0  0  0  0  0  0
    5.4983   -6.9809   -5.0096 H   0  0  0  0  0  0  0  0  0  0  0  0
    1.2786   -9.3190    1.5780 H   0  0  0  0  0  0  0  0  0  0  0  0
    0.8965   -8.3848    3.9661 H   0  0  0  0  0  0  0  0  0  0  0  0
    0.8444   -6.9272    5.9559 H   0  0  0  0  0  0  0  0  0  0  0  0
    3.5395   -1.3610    5.7203 H   0  0  0  0  0  0  0  0  0  0  0  0
    0.3262    5.0234    9.5352 H   0  0  0  0  0  0  0  0  0  0  0  0
   -3.6243    7.4378   12.5962 H   0  0  0  0  0  0  0  0  0  0  0  0
   -4.4276    2.5245   12.8409 H   0  0  0  0  0  0  0  0  0  0  0  0
    1.8805    3.8547    8.1708 H   0  0  0  0  0  0  0  0  0  0  0  0
    2.9819    2.6601    5.7737 H   0  0  0  0  0  0  0  0  0  0  0  0
    3.3928    1.0733    5.1161 H   0  0  0  0  0  0  0  0  0  0  0  0
    0.9806    0.4434    5.1116 H   0  0  0  0  0  0  0  0  0  0  0  0
    0.5637    2.0367    5.7443 H   0  0  0  0  0  0  0  0  0  0  0  0
    1.2817    1.8858    4.1408 H   0  0  0  0  0  0  0  0  0  0  0  0
    4.1181    0.9533    8.8490 H   0  0  0  0  0  0  0  0  0  0  0  0
    4.3481    2.3563    7.8054 H   0  0  0  0  0  0  0  0  0  0  0  0
    5.4086    0.8680    6.0788 H   0  0  0  0  0  0  0  0  0  0  0  0
    6.2481    0.8280    7.6233 H   0  0  0  0  0  0  0  0  0  0  0  0
    5.1982   -0.5094    7.1693 H   0  0  0  0  0  0  0  0  0  0  0  0
   -0.0652   -1.9369    9.1486 H   0  0  0  0  0  0  0  0  0  0  0  0
   -1.2540   -4.0095    8.4387 H   0  0  0  0  0  0  0  0  0  0  0  0
   -1.0405   -5.5500    7.6025 H   0  0  0  0  0  0  0  0  0  0  0  0
   -1.0693   -2.7989    6.2667 H   0  0  0  0  0  0  0  0  0  0  0  0
   -2.3949   -3.9636    6.2566 H   0  0  0  0  0  0  0  0  0  0  0  0
   -0.8850   -4.3383    5.4249 H   0  0  0  0  0  0  0  0  0  0  0  0
    2.3712   -5.0656    8.9291 H   0  0  0  0  0  0  0  0  0  0  0  0
    0.9938   -6.1645    8.8495 H   0  0  0  0  0  0  0  0  0  0  0  0
   -0.2880   -4.6412   10.3767 H   0  0  0  0  0  0  0  0  0  0  0  0
    1.1122   -3.5626   10.4494 H   0  0  0  0  0  0  0  0  0  0  0  0
    1.2188   -5.1976   11.0935 H   0  0  0  0  0  0  0  0  0  0  0  0
    3.8256   -3.7661   -8.4839 H   0  0  0  0  0  0  0  0  0  0  0  0
    3.7395   -0.2126   -8.0416 H   0  0  0  0  0  0  0  0  0  0  0  0
    4.4809   -1.2449   -9.2632 H   0  0  0  0  0  0  0  0  0  0  0  0
    3.3414    1.5499   -9.7192 H   0  0  0  0  0  0  0  0  0  0  0  0
    3.9812    0.5114  -11.0021 H   0  0  0  0  0  0  0  0  0  0  0  0
    5.0327    1.0722   -9.7087 H   0  0  0  0  0  0  0  0  0  0  0  0
    3.1159   -2.2964  -11.0282 H   0  0  0  0  0  0  0  0  0  0  0  0
    2.2315   -0.8365  -11.4880 H   0  0  0  0  0  0  0  0  0  0  0  0
    0.0866   -1.9291  -10.8186 H   0  0  0  0  0  0  0  0  0  0  0  0
    0.9708   -3.3993  -10.4056 H   0  0  0  0  0  0  0  0  0  0  0  0
    0.9271   -2.8377  -12.0770 H   0  0  0  0  0  0  0  0  0  0  0  0
   -1.1041   -0.6433   -6.4335 H   0  0  0  0  0  0  0  0  0  0  0  0
   -1.8494    1.3793   -5.2929 H   0  0  0  0  0  0  0  0  0  0  0  0
   -0.8673    2.7443   -5.8071 H   0  0  0  0  0  0  0  0  0  0  0  0
   -2.8769    4.2206   -5.7672 H   0  0  0  0  0  0  0  0  0  0  0  0
   -2.6008    3.4458   -4.2135 H   0  0  0  0  0  0  0  0  0  0  0  0
   -3.8775    2.8533   -5.2684 H   0  0  0  0  0  0  0  0  0  0  0  0
   -3.5938    1.1497   -8.6888 H   0  0  0  0  0  0  0  0  0  0  0  0
   -4.2492    2.1809   -7.4219 H   0  0  0  0  0  0  0  0  0  0  0  0
   -4.9472   -0.1187   -7.0470 H   0  0  0  0  0  0  0  0  0  0  0  0
   -3.2879   -0.7009   -7.0907 H   0  0  0  0  0  0  0  0  0  0  0  0
   -3.8366    0.3210   -5.7549 H   0  0  0  0  0  0  0  0  0  0  0  0
  1  2  2  0  0  0  0
  2  3  1  0  0  0  0
  3  4  2  0  0  0  0
  4  5  1  0  0  0  0
  5  6  1  0  0  0  0
  5  7  2  0  0  0  0
  7  8  1  0  0  0  0
  7  9  1  0  0  0  0
  3 10  1  0  0  0  0
  9 10  2  0  0  0  0
 10 11  1  0  0  0  0
 11 12  1  0  0  0  0
  2 12  1  0  0  0  0
 12 13  2  0  0  0  0
 13 14  1  0  0  0  0
 14 15  2  0  0  0  0
 15 16  1  0  0  0  0
 16 17  2  0  0  0  0
 17 18  1  0  0  0  0
 14 18  1  0  0  0  0
 17 19  1  0  0  0  0
 19 20  2  0  0  0  0
 20 21  1  0  0  0  0
 21 22  2  0  0  0  0
 22 23  1  0  0  0  0
 23 24  1  0  0  0  0
 24 25  1  0  0  0  0
 25 26  1  0  0  0  0
 26 27  2  0  0  0  0
 27 28  1  0  0  0  0
 28 29  2  0  0  0  0
 29 30  1  0  0  0  0
 30 31  2  0  0  0  0
 31 32  1  0  0  0  0
 32 33  3  0  0  0  0
 31 34  1  0  0  0  0
 34 35  1  0  0  0  0
 35 36  3  0  0  0  0
 34 37  2  0  0  0  0
 37 38  1  0  0  0  0
 38 39  2  0  0  0  0
 39 40  1  0  0  0  0
 40 41  2  0  0  0  0
 41 42  1  0  0  0  0
 38 42  1  0  0  0  0
 41 43  1  0  0  0  0
 43 44  2  0  0  0  0
 44 45  1  0  0  0  0
 45 46  2  0  0  0  0
 46 47  1  0  0  0  0
 47 48  2  0  0  0  0
 48 49  1  0  0  0  0
 49 50  2  0  0  0  0
 50 51  1  0  0  0  0
 51 52  1  0  0  0  0
 52 53  1  0  0  0  0
 53 54  1  0  0  0  0
 54 55  2  0  0  0  0
 55 56  1  0  0  0  0
 56 57  1  0  0  0  0
 57 58  2  0  0  0  0
 58 59  1  0  0  0  0
 57 60  1  0  0  0  0
 60 61  2  0  0  0  0
 61 62  1  0  0  0  0
 61 63  1  0  0  0  0
 59 63  2  0  0  0  0
 63 64  1  0  0  0  0
 56 65  2  0  0  0  0
 55 66  1  0  0  0  0
 58 66  1  0  0  0  0
 66 67  2  0  0  0  0
 67 68  1  0  0  0  0
 68 69  3  0  0  0  0
 67 70  1  0  0  0  0
 70 71  3  0  0  0  0
 53 72  2  0  0  0  0
 51 73  2  0  0  0  0
 72 73  1  0  0  0  0
 73 74  1  0  0  0  0
 49 74  1  0  0  0  0
 74 75  1  0  0  0  0
 75 76  1  0  0  0  0
 74 77  1  0  0  0  0
 77 78  1  0  0  0  0
 50 79  1  0  0  0  0
 79 80  2  0  0  0  0
 47 80  1  0  0  0  0
 80 81  1  0  0  0  0
 45 81  1  0  0  0  0
 81 82  1  0  0  0  0
 82 83  1  0  0  0  0
 81 84  1  0  0  0  0
 84 85  1  0  0  0  0
 46 86  1  0  0  0  0
 43 86  1  0  0  0  0
 37 87  1  0  0  0  0
 87 88  2  0  0  0  0
 88 89  1  0  0  0  0
 89 90  1  0  0  0  0
 90 91  2  0  0  0  0
 30 91  1  0  0  0  0
 87 91  1  0  0  0  0
 29 92  1  0  0  0  0
 26 92  1  0  0  0  0
 25 93  2  0  0  0  0
 23 94  2  0  0  0  0
 93 94  1  0  0  0  0
 94 95  1  0  0  0  0
 21 95  1  0  0  0  0
 95 96  1  0  0  0  0
 96 97  1  0  0  0  0
 95 98  1  0  0  0  0
 98 99  1  0  0  0  0
 22100  1  0  0  0  0
 19101  1  0  0  0  0
100101  2  0  0  0  0
101102  1  0  0  0  0
 16102  1  0  0  0  0
102103  1  0  0  0  0
103104  1  0  0  0  0
102105  1  0  0  0  0
105106  1  0  0  0  0
 11107  2  0  0  0  0
107108  1  0  0  0  0
108109  3  0  0  0  0
107110  1  0  0  0  0
110111  3  0  0  0  0
  4112  1  0  0  0  0
  9113  1  0  0  0  0
 13114  1  0  0  0  0
 15115  1  0  0  0  0
 20116  1  0  0  0  0
 27117  1  0  0  0  0
 28118  1  0  0  0  0
 39119  1  0  0  0  0
 40120  1  0  0  0  0
 44121  1  0  0  0  0
 48122  1  0  0  0  0
 54123  1  0  0  0  0
 59124  1  0  0  0  0
 60125  1  0  0  0  0
 72126  1  0  0  0  0
 75127  1  0  0  0  0
 75128  1  0  0  0  0
 76129  1  0  0  0  0
 76130  1  0  0  0  0
 76131  1  0  0  0  0
 77132  1  0  0  0  0
 77133  1  0  0  0  0
 78134  1  0  0  0  0
 78135  1  0  0  0  0
 78136  1  0  0  0  0
 79137  1  0  0  0  0
 82138  1  0  0  0  0
 82139  1  0  0  0  0
 83140  1  0  0  0  0
 83141  1  0  0  0  0
 83142  1  0  0  0  0
 84143  1  0  0  0  0
 84144  1  0  0  0  0
 85145  1  0  0  0  0
 85146  1  0  0  0  0
 85147  1  0  0  0  0
 93148  1  0  0  0  0
 96149  1  0  0  0  0
 96150  1  0  0  0  0
 97151  1  0  0  0  0
 97152  1  0  0  0  0
 97153  1  0  0  0  0
 98154  1  0  0  0  0
 98155  1  0  0  0  0
 99156  1  0  0  0  0
 99157  1  0  0  0  0
 99158  1  0  0  0  0
100159  1  0  0  0  0
103160  1  0  0  0  0
103161  1  0  0  0  0
104162  1  0  0  0  0
104163  1  0  0  0  0
104164  1  0  0  0  0
105165  1  0  0  0  0
105166  1  0  0  0  0
106167  1  0  0  0  0
106168  1  0  0  0  0
106169  1  0  0  0  0
M  END
