CNDTBT-IDTT-FINCN.sdf
  xtb     12202113483D
 energy: -444.553671081972 gnorm: 0.000872130578 xtb: 6.4.1 (unknown)
261290  0     0  0            999 V2000
    3.9811   -2.4051   -6.8172 C   0  0  0  0  0  0  0  0  0  0  0  0
    3.8630   -3.1973   -7.9400 C   0  0  0  0  0  0  0  0  0  0  0  0
    4.1307   -2.5190   -9.1317 C   0  0  0  0  0  0  0  0  0  0  0  0
    4.4886   -1.2046   -8.9424 C   0  0  0  0  0  0  0  0  0  0  0  0
    4.5436   -0.8174   -7.2385 S   0  0  0  0  0  0  0  0  0  0  0  0
    4.5425   -0.0885   -9.8452 C   0  0  0  0  0  0  0  0  0  0  0  0
    5.3080    1.0593   -9.5115 C   0  0  0  0  0  0  0  0  0  0  0  0
    5.0254    2.3524  -10.0743 C   0  0  0  0  0  0  0  0  0  0  0  0
    3.8922    2.5284  -10.9133 C   0  0  0  0  0  0  0  0  0  0  0  0
    3.3258    1.3576  -11.4154 C   0  0  0  0  0  0  0  0  0  0  0  0
    3.6710    0.0674  -10.9265 C   0  0  0  0  0  0  0  0  0  0  0  0
    6.3174    1.1043   -8.6488 N   0  0  0  0  0  0  0  0  0  0  0  0
    6.8698    2.6110   -8.5645 S   0  0  0  0  0  0  0  0  0  0  0  0
    5.8372    3.2894   -9.5973 N   0  0  0  0  0  0  0  0  0  0  0  0
    2.2921    1.4441  -12.3750 C   0  0  0  0  0  0  0  0  0  0  0  0
    2.9661   -1.0294  -11.4673 C   0  0  0  0  0  0  0  0  0  0  0  0
    1.4794    1.5177  -13.1802 N   0  0  0  0  0  0  0  0  0  0  0  0
    2.4099   -1.9165  -11.9355 N   0  0  0  0  0  0  0  0  0  0  0  0
    1.5906    5.4418   -9.9713 C   0  0  0  0  0  0  0  0  0  0  0  0
    2.8234    5.9934  -10.2596 C   0  0  0  0  0  0  0  0  0  0  0  0
    3.7425    5.0656  -10.7570 C   0  0  0  0  0  0  0  0  0  0  0  0
    3.2217    3.8010  -10.8986 C   0  0  0  0  0  0  0  0  0  0  0  0
    1.5267    3.7792  -10.4749 S   0  0  0  0  0  0  0  0  0  0  0  0
   -1.3049    1.2263    0.8410 C   0  0  0  0  0  0  0  0  0  0  0  0
   -0.8367    2.5228    1.1427 C   0  0  0  0  0  0  0  0  0  0  0  0
   -0.5165    0.0052    1.7342 S   0  0  0  0  0  0  0  0  0  0  0  0
    0.5406    1.2244    2.4784 C   0  0  0  0  0  0  0  0  0  0  0  0
    0.2008    2.5038    2.0799 C   0  0  0  0  0  0  0  0  0  0  0  0
    1.6332    0.7145    3.2005 C   0  0  0  0  0  0  0  0  0  0  0  0
    2.6769    1.3454    3.8275 C   0  0  0  0  0  0  0  0  0  0  0  0
    2.8200    2.7764    4.1630 C   0  0  0  0  0  0  0  0  0  0  0  0
    4.0625    2.8724    4.9626 C   0  0  0  0  0  0  0  0  0  0  0  0
    4.6559    1.6057    5.0750 C   0  0  0  0  0  0  0  0  0  0  0  0
    3.8380    0.6401    4.3423 C   0  0  0  0  0  0  0  0  0  0  0  0
    4.6100    3.9962    5.5492 C   0  0  0  0  0  0  0  0  0  0  0  0
    5.7846    3.8395    6.2660 C   0  0  0  0  0  0  0  0  0  0  0  0
    6.3789    2.5830    6.3889 C   0  0  0  0  0  0  0  0  0  0  0  0
    5.8280    1.4550    5.8001 C   0  0  0  0  0  0  0  0  0  0  0  0
    2.0876    3.7060    3.8956 O   0  0  0  0  0  0  0  0  0  0  0  0
    4.1834   -0.6665    4.1187 C   0  0  0  0  0  0  0  0  0  0  0  0
    5.3700   -1.2624    4.5993 C   0  0  0  0  0  0  0  0  0  0  0  0
    3.4703   -1.6107    3.3506 C   0  0  0  0  0  0  0  0  0  0  0  0
    2.9938   -2.4513    2.7296 N   0  0  0  0  0  0  0  0  0  0  0  0
    6.3189   -1.8073    4.9460 N   0  0  0  0  0  0  0  0  0  0  0  0
    7.5082    2.4586    7.0946 F   0  0  0  0  0  0  0  0  0  0  0  0
    6.3535    4.9019    6.8481 F   0  0  0  0  0  0  0  0  0  0  0  0
   -1.3927    3.4600    0.2439 C   0  0  0  0  0  0  0  0  0  0  0  0
   -2.1768    2.8746   -0.7158 C   0  0  0  0  0  0  0  0  0  0  0  0
   -2.3960    1.1542   -0.4923 S   0  0  0  0  0  0  0  0  0  0  0  0
   -1.1610    4.9159   -0.0790 C   0  0  0  0  0  0  0  0  0  0  0  0
   -1.6745    4.9600   -1.5088 C   0  0  0  0  0  0  0  0  0  0  0  0
   -2.3557    3.7625   -1.8293 C   0  0  0  0  0  0  0  0  0  0  0  0
   -2.0076    5.7504    0.8696 C   0  0  0  0  0  0  0  0  0  0  0  0
    0.3185    5.2348    0.0183 C   0  0  0  0  0  0  0  0  0  0  0  0
    0.8026    6.3375    0.7045 C   0  0  0  0  0  0  0  0  0  0  0  0
    2.1652    6.5185    0.8629 C   0  0  0  0  0  0  0  0  0  0  0  0
    3.0741    5.6127    0.3360 C   0  0  0  0  0  0  0  0  0  0  0  0
    2.5856    4.5397   -0.3990 C   0  0  0  0  0  0  0  0  0  0  0  0
    1.2273    4.3549   -0.5599 C   0  0  0  0  0  0  0  0  0  0  0  0
   -1.8360    5.5975    2.2414 C   0  0  0  0  0  0  0  0  0  0  0  0
   -2.5944    6.3324    3.1308 C   0  0  0  0  0  0  0  0  0  0  0  0
   -3.5474    7.2372    2.6794 C   0  0  0  0  0  0  0  0  0  0  0  0
   -3.7192    7.3809    1.3106 C   0  0  0  0  0  0  0  0  0  0  0  0
   -2.9610    6.6484    0.4138 C   0  0  0  0  0  0  0  0  0  0  0  0
    4.5433    5.7443    0.6147 C   0  0  0  0  0  0  0  0  0  0  0  0
    4.9085    4.9184    1.8508 C   0  0  0  0  0  0  0  0  0  0  0  0
   -4.4021    7.9995    3.6501 C   0  0  0  0  0  0  0  0  0  0  0  0
   -5.6406    7.1832    4.0245 C   0  0  0  0  0  0  0  0  0  0  0  0
   -1.4197    5.9091   -2.4719 C   0  0  0  0  0  0  0  0  0  0  0  0
   -1.7938    5.6039   -3.7795 C   0  0  0  0  0  0  0  0  0  0  0  0
   -2.4869    4.4115   -4.0923 C   0  0  0  0  0  0  0  0  0  0  0  0
   -2.8149    3.5009   -3.1146 C   0  0  0  0  0  0  0  0  0  0  0  0
   -1.3840    6.1872   -5.0230 C   0  0  0  0  0  0  0  0  0  0  0  0
   -1.7654    5.3790   -6.0784 C   0  0  0  0  0  0  0  0  0  0  0  0
   -2.5982    4.2222   -5.5964 C   0  0  0  0  0  0  0  0  0  0  0  0
   -1.9242    2.9522   -6.0864 C   0  0  0  0  0  0  0  0  0  0  0  0
   -4.0559    4.2995   -6.0039 C   0  0  0  0  0  0  0  0  0  0  0  0
   -4.8799    3.1934   -5.8348 C   0  0  0  0  0  0  0  0  0  0  0  0
   -6.2163    3.2556   -6.1779 C   0  0  0  0  0  0  0  0  0  0  0  0
   -6.7668    4.4207   -6.6971 C   0  0  0  0  0  0  0  0  0  0  0  0
   -5.9421    5.5258   -6.8533 C   0  0  0  0  0  0  0  0  0  0  0  0
   -4.6034    5.4691   -6.5100 C   0  0  0  0  0  0  0  0  0  0  0  0
   -0.8853    2.3697   -5.3735 C   0  0  0  0  0  0  0  0  0  0  0  0
   -0.2345    1.2535   -5.8674 C   0  0  0  0  0  0  0  0  0  0  0  0
   -0.5949    0.6996   -7.0873 C   0  0  0  0  0  0  0  0  0  0  0  0
   -1.6171    1.3021   -7.8099 C   0  0  0  0  0  0  0  0  0  0  0  0
   -2.2709    2.4163   -7.3209 C   0  0  0  0  0  0  0  0  0  0  0  0
   -8.2274    4.4944   -7.0367 C   0  0  0  0  0  0  0  0  0  0  0  0
   -9.0403    4.9240   -5.8138 C   0  0  0  0  0  0  0  0  0  0  0  0
    0.1331   -0.4869   -7.6485 C   0  0  0  0  0  0  0  0  0  0  0  0
   -0.2537    7.4277   -5.4700 S   0  0  0  0  0  0  0  0  0  0  0  0
   -0.1794    6.7600   -7.0783 C   0  0  0  0  0  0  0  0  0  0  0  0
   -1.0667    5.6871   -7.2448 C   0  0  0  0  0  0  0  0  0  0  0  0
    0.7400    6.9004   -8.1217 C   0  0  0  0  0  0  0  0  0  0  0  0
    0.5887    5.9122   -9.0725 C   0  0  0  0  0  0  0  0  0  0  0  0
   -0.8050    4.8878   -8.7506 S   0  0  0  0  0  0  0  0  0  0  0  0
    1.1508   -0.0414   -8.6984 C   0  0  0  0  0  0  0  0  0  0  0  0
   -1.9924   -7.0873    4.5773 C   0  0  0  0  0  0  0  0  0  0  0  0
   -1.7096   -5.7192    4.7744 C   0  0  0  0  0  0  0  0  0  0  0  0
   -2.5875   -7.8587    5.9828 S   0  0  0  0  0  0  0  0  0  0  0  0
   -2.3791   -6.3528    6.9014 C   0  0  0  0  0  0  0  0  0  0  0  0
   -1.9250   -5.3255    6.0977 C   0  0  0  0  0  0  0  0  0  0  0  0
   -2.6750   -6.4188    8.2749 C   0  0  0  0  0  0  0  0  0  0  0  0
   -2.4081   -5.5411    9.2940 C   0  0  0  0  0  0  0  0  0  0  0  0
   -1.5969   -4.3056    9.2580 C   0  0  0  0  0  0  0  0  0  0  0  0
   -1.3465   -3.9590   10.6756 C   0  0  0  0  0  0  0  0  0  0  0  0
   -2.0369   -4.8471   11.5141 C   0  0  0  0  0  0  0  0  0  0  0  0
   -2.7674   -5.7996   10.6799 C   0  0  0  0  0  0  0  0  0  0  0  0
   -0.5638   -2.9357   11.1723 C   0  0  0  0  0  0  0  0  0  0  0  0
   -0.4708   -2.8082   12.5482 C   0  0  0  0  0  0  0  0  0  0  0  0
   -1.1506   -3.6888   13.3907 C   0  0  0  0  0  0  0  0  0  0  0  0
   -1.9401   -4.7136   12.8908 C   0  0  0  0  0  0  0  0  0  0  0  0
   -1.1949   -3.6698    8.3062 O   0  0  0  0  0  0  0  0  0  0  0  0
   -3.6778   -6.7113   11.1423 C   0  0  0  0  0  0  0  0  0  0  0  0
   -4.4715   -7.5639   10.3435 C   0  0  0  0  0  0  0  0  0  0  0  0
   -3.9863   -6.8927   12.5080 C   0  0  0  0  0  0  0  0  0  0  0  0
   -4.2759   -7.0903   13.6005 N   0  0  0  0  0  0  0  0  0  0  0  0
   -5.1746   -8.2701    9.7733 N   0  0  0  0  0  0  0  0  0  0  0  0
   -1.0380   -3.5458   14.7154 F   0  0  0  0  0  0  0  0  0  0  0  0
    0.2796   -1.8325   13.0744 F   0  0  0  0  0  0  0  0  0  0  0  0
   -1.1740   -5.1607    3.5930 C   0  0  0  0  0  0  0  0  0  0  0  0
   -1.0063   -6.0871    2.5977 C   0  0  0  0  0  0  0  0  0  0  0  0
   -1.5852   -7.6818    3.0120 S   0  0  0  0  0  0  0  0  0  0  0  0
   -0.6750   -3.8071    3.1468 C   0  0  0  0  0  0  0  0  0  0  0  0
   -0.0076   -4.1778    1.8323 C   0  0  0  0  0  0  0  0  0  0  0  0
   -0.2913   -5.5211    1.4911 C   0  0  0  0  0  0  0  0  0  0  0  0
    0.2491   -3.2288    4.2033 C   0  0  0  0  0  0  0  0  0  0  0  0
   -1.9087   -2.9409    2.9025 C   0  0  0  0  0  0  0  0  0  0  0  0
   -2.6903   -2.5501    3.9855 C   0  0  0  0  0  0  0  0  0  0  0  0
   -3.7966   -1.7433    3.8072 C   0  0  0  0  0  0  0  0  0  0  0  0
   -4.1713   -1.3119    2.5405 C   0  0  0  0  0  0  0  0  0  0  0  0
   -3.4200   -1.7423    1.4578 C   0  0  0  0  0  0  0  0  0  0  0  0
   -2.3077   -2.5489    1.6320 C   0  0  0  0  0  0  0  0  0  0  0  0
    0.1357   -1.9271    4.6702 C   0  0  0  0  0  0  0  0  0  0  0  0
    0.8557   -1.5084    5.7745 C   0  0  0  0  0  0  0  0  0  0  0  0
    1.7095   -2.3743    6.4444 C   0  0  0  0  0  0  0  0  0  0  0  0
    1.8976   -3.6432    5.9127 C   0  0  0  0  0  0  0  0  0  0  0  0
    1.1807   -4.0643    4.8091 C   0  0  0  0  0  0  0  0  0  0  0  0
   -5.3243   -0.3671    2.3632 C   0  0  0  0  0  0  0  0  0  0  0  0
   -4.8767    1.0743    2.6172 C   0  0  0  0  0  0  0  0  0  0  0  0
    2.3644   -1.9571    7.7316 C   0  0  0  0  0  0  0  0  0  0  0  0
    3.5076   -0.9643    7.5273 C   0  0  0  0  0  0  0  0  0  0  0  0
    0.7157   -3.3752    0.9799 C   0  0  0  0  0  0  0  0  0  0  0  0
    1.1384   -3.9376   -0.2214 C   0  0  0  0  0  0  0  0  0  0  0  0
    0.8425   -5.2770   -0.5636 C   0  0  0  0  0  0  0  0  0  0  0  0
    0.1275   -6.0837    0.2914 C   0  0  0  0  0  0  0  0  0  0  0  0
    1.8453   -3.3734   -1.3323 C   0  0  0  0  0  0  0  0  0  0  0  0
    1.9653   -4.2977   -2.3525 C   0  0  0  0  0  0  0  0  0  0  0  0
    1.3656   -5.6166   -1.9486 C   0  0  0  0  0  0  0  0  0  0  0  0
    0.1956   -6.0381   -2.8183 C   0  0  0  0  0  0  0  0  0  0  0  0
    2.4755   -6.6517   -1.9609 C   0  0  0  0  0  0  0  0  0  0  0  0
    2.8752   -7.1954   -3.1761 C   0  0  0  0  0  0  0  0  0  0  0  0
    3.9069   -8.1115   -3.2283 C   0  0  0  0  0  0  0  0  0  0  0  0
    4.5683   -8.5064   -2.0719 C   0  0  0  0  0  0  0  0  0  0  0  0
    4.1772   -7.9451   -0.8644 C   0  0  0  0  0  0  0  0  0  0  0  0
    3.1458   -7.0246   -0.8056 C   0  0  0  0  0  0  0  0  0  0  0  0
   -0.5227   -5.1075   -3.5557 C   0  0  0  0  0  0  0  0  0  0  0  0
   -1.6016   -5.5026   -4.3249 C   0  0  0  0  0  0  0  0  0  0  0  0
   -1.9999   -6.8314   -4.3668 C   0  0  0  0  0  0  0  0  0  0  0  0
   -1.2893   -7.7562   -3.6125 C   0  0  0  0  0  0  0  0  0  0  0  0
   -0.2077   -7.3671   -2.8459 C   0  0  0  0  0  0  0  0  0  0  0  0
    5.7127   -9.4763   -2.1375 C   0  0  0  0  0  0  0  0  0  0  0  0
    7.0278   -8.7355   -2.3876 C   0  0  0  0  0  0  0  0  0  0  0  0
   -3.1359   -7.2668   -5.2464 C   0  0  0  0  0  0  0  0  0  0  0  0
    2.5098   -1.8188   -1.7149 S   0  0  0  0  0  0  0  0  0  0  0  0
    2.9485   -2.4116   -3.2927 C   0  0  0  0  0  0  0  0  0  0  0  0
    2.5951   -3.7564   -3.4735 C   0  0  0  0  0  0  0  0  0  0  0  0
    3.5163   -1.8215   -4.4242 C   0  0  0  0  0  0  0  0  0  0  0  0
    3.5937   -2.7006   -5.4817 C   0  0  0  0  0  0  0  0  0  0  0  0
    2.9823   -4.2955   -5.0667 S   0  0  0  0  0  0  0  0  0  0  0  0
   -2.6179   -7.6443   -6.6359 C   0  0  0  0  0  0  0  0  0  0  0  0
    3.5466   -4.2243   -7.8937 H   0  0  0  0  0  0  0  0  0  0  0  0
    4.0596   -2.9757  -10.1019 H   0  0  0  0  0  0  0  0  0  0  0  0
    3.0668    7.0208  -10.0588 H   0  0  0  0  0  0  0  0  0  0  0  0
    4.7704    5.2942  -10.9716 H   0  0  0  0  0  0  0  0  0  0  0  0
    0.7306    3.3764    2.4153 H   0  0  0  0  0  0  0  0  0  0  0  0
    1.6652   -0.3686    3.2164 H   0  0  0  0  0  0  0  0  0  0  0  0
    4.1425    4.9636    5.4587 H   0  0  0  0  0  0  0  0  0  0  0  0
    6.3239    0.5077    5.9303 H   0  0  0  0  0  0  0  0  0  0  0  0
    0.1167    7.0514    1.1354 H   0  0  0  0  0  0  0  0  0  0  0  0
    2.5247    7.3723    1.4187 H   0  0  0  0  0  0  0  0  0  0  0  0
    3.2763    3.8340   -0.8385 H   0  0  0  0  0  0  0  0  0  0  0  0
    0.8653    3.5085   -1.1272 H   0  0  0  0  0  0  0  0  0  0  0  0
   -1.0958    4.9080    2.6166 H   0  0  0  0  0  0  0  0  0  0  0  0
   -2.4417    6.2035    4.1926 H   0  0  0  0  0  0  0  0  0  0  0  0
   -4.4544    8.0785    0.9356 H   0  0  0  0  0  0  0  0  0  0  0  0
   -3.1174    6.7838   -0.6454 H   0  0  0  0  0  0  0  0  0  0  0  0
    4.7973    6.7906    0.7932 H   0  0  0  0  0  0  0  0  0  0  0  0
    5.1222    5.3910   -0.2410 H   0  0  0  0  0  0  0  0  0  0  0  0
    4.7091    3.8629    1.6740 H   0  0  0  0  0  0  0  0  0  0  0  0
    4.3106    5.2366    2.7015 H   0  0  0  0  0  0  0  0  0  0  0  0
    5.9615    5.0373    2.0963 H   0  0  0  0  0  0  0  0  0  0  0  0
   -3.8302    8.2192    4.5537 H   0  0  0  0  0  0  0  0  0  0  0  0
   -4.7159    8.9455    3.2052 H   0  0  0  0  0  0  0  0  0  0  0  0
   -6.2605    7.7333    4.7285 H   0  0  0  0  0  0  0  0  0  0  0  0
   -5.3480    6.2404    4.4811 H   0  0  0  0  0  0  0  0  0  0  0  0
   -6.2312    6.9644    3.1377 H   0  0  0  0  0  0  0  0  0  0  0  0
   -0.8620    6.8062   -2.2483 H   0  0  0  0  0  0  0  0  0  0  0  0
   -3.3039    2.5676   -3.3470 H   0  0  0  0  0  0  0  0  0  0  0  0
   -4.4674    2.2718   -5.4513 H   0  0  0  0  0  0  0  0  0  0  0  0
   -6.8410    2.3833   -6.0476 H   0  0  0  0  0  0  0  0  0  0  0  0
   -6.3492    6.4429   -7.2548 H   0  0  0  0  0  0  0  0  0  0  0  0
   -3.9812    6.3420   -6.6451 H   0  0  0  0  0  0  0  0  0  0  0  0
   -0.5777    2.7887   -4.4262 H   0  0  0  0  0  0  0  0  0  0  0  0
    0.5669    0.8083   -5.2942 H   0  0  0  0  0  0  0  0  0  0  0  0
   -1.9028    0.8960   -8.7691 H   0  0  0  0  0  0  0  0  0  0  0  0
   -3.0597    2.8719   -7.9012 H   0  0  0  0  0  0  0  0  0  0  0  0
   -8.3842    5.2130   -7.8435 H   0  0  0  0  0  0  0  0  0  0  0  0
   -8.5777    3.5175   -7.3761 H   0  0  0  0  0  0  0  0  0  0  0  0
   -8.9067    4.2129   -5.0017 H   0  0  0  0  0  0  0  0  0  0  0  0
   -8.7144    5.9025   -5.4678 H   0  0  0  0  0  0  0  0  0  0  0  0
  -10.0983    4.9767   -6.0596 H   0  0  0  0  0  0  0  0  0  0  0  0
   -0.5785   -1.1708   -8.1154 H   0  0  0  0  0  0  0  0  0  0  0  0
    0.6502   -1.0232   -6.8497 H   0  0  0  0  0  0  0  0  0  0  0  0
    1.5361    7.6213   -8.1331 H   0  0  0  0  0  0  0  0  0  0  0  0
    0.6587    0.5085   -9.4981 H   0  0  0  0  0  0  0  0  0  0  0  0
    1.9007    0.6077   -8.2480 H   0  0  0  0  0  0  0  0  0  0  0  0
    1.6451   -0.9099   -9.1279 H   0  0  0  0  0  0  0  0  0  0  0  0
   -1.7164   -4.3439    6.4795 H   0  0  0  0  0  0  0  0  0  0  0  0
   -3.1430   -7.3526    8.5648 H   0  0  0  0  0  0  0  0  0  0  0  0
   -0.0397   -2.2600   10.5157 H   0  0  0  0  0  0  0  0  0  0  0  0
   -2.4413   -5.3685   13.5842 H   0  0  0  0  0  0  0  0  0  0  0  0
   -2.4202   -2.8617    4.9820 H   0  0  0  0  0  0  0  0  0  0  0  0
   -4.3779   -1.4422    4.6672 H   0  0  0  0  0  0  0  0  0  0  0  0
   -3.6997   -1.4401    0.4583 H   0  0  0  0  0  0  0  0  0  0  0  0
   -1.7494   -2.8592    0.7625 H   0  0  0  0  0  0  0  0  0  0  0  0
   -0.5528   -1.2407    4.2004 H   0  0  0  0  0  0  0  0  0  0  0  0
    0.7161   -0.5017    6.1447 H   0  0  0  0  0  0  0  0  0  0  0  0
    2.5872   -4.3247    6.3900 H   0  0  0  0  0  0  0  0  0  0  0  0
    1.3211   -5.0675    4.4334 H   0  0  0  0  0  0  0  0  0  0  0  0
   -6.1224   -0.6219    3.0634 H   0  0  0  0  0  0  0  0  0  0  0  0
   -5.7188   -0.4482    1.3488 H   0  0  0  0  0  0  0  0  0  0  0  0
   -5.7144    1.7590    2.5081 H   0  0  0  0  0  0  0  0  0  0  0  0
   -4.4738    1.1758    3.6225 H   0  0  0  0  0  0  0  0  0  0  0  0
   -4.1033    1.3625    1.9090 H   0  0  0  0  0  0  0  0  0  0  0  0
    1.6066   -1.4945    8.3690 H   0  0  0  0  0  0  0  0  0  0  0  0
    2.7461   -2.8404    8.2466 H   0  0  0  0  0  0  0  0  0  0  0  0
    4.3035   -1.4194    6.9426 H   0  0  0  0  0  0  0  0  0  0  0  0
    3.1556   -0.0737    7.0092 H   0  0  0  0  0  0  0  0  0  0  0  0
    3.9199   -0.6614    8.4870 H   0  0  0  0  0  0  0  0  0  0  0  0
    0.9475   -2.3511    1.2231 H   0  0  0  0  0  0  0  0  0  0  0  0
   -0.1078   -7.1080    0.0461 H   0  0  0  0  0  0  0  0  0  0  0  0
    2.3676   -6.9040   -4.0846 H   0  0  0  0  0  0  0  0  0  0  0  0
    4.2010   -8.5288   -4.1807 H   0  0  0  0  0  0  0  0  0  0  0  0
    4.6846   -8.2315    0.0458 H   0  0  0  0  0  0  0  0  0  0  0  0
    2.8634   -6.5978    0.1455 H   0  0  0  0  0  0  0  0  0  0  0  0
   -0.2396   -4.0651   -3.5345 H   0  0  0  0  0  0  0  0  0  0  0  0
   -2.1425   -4.7645   -4.9001 H   0  0  0  0  0  0  0  0  0  0  0  0
   -1.5860   -8.7953   -3.6256 H   0  0  0  0  0  0  0  0  0  0  0  0
    0.3378   -8.1049   -2.2752 H   0  0  0  0  0  0  0  0  0  0  0  0
    5.7841  -10.0295   -1.1990 H   0  0  0  0  0  0  0  0  0  0  0  0
    5.5446  -10.1922   -2.9447 H   0  0  0  0  0  0  0  0  0  0  0  0
    7.8571   -9.4374   -2.4362 H   0  0  0  0  0  0  0  0  0  0  0  0
    7.2194   -8.0253   -1.5863 H   0  0  0  0  0  0  0  0  0  0  0  0
    6.9805   -8.1872   -3.3258 H   0  0  0  0  0  0  0  0  0  0  0  0
   -3.6388   -8.1288   -4.8034 H   0  0  0  0  0  0  0  0  0  0  0  0
   -3.8627   -6.4576   -5.3410 H   0  0  0  0  0  0  0  0  0  0  0  0
    3.8379   -0.7977   -4.4883 H   0  0  0  0  0  0  0  0  0  0  0  0
   -2.1231   -6.7935   -7.0989 H   0  0  0  0  0  0  0  0  0  0  0  0
   -1.9006   -8.4588   -6.5635 H   0  0  0  0  0  0  0  0  0  0  0  0
   -3.4386   -7.9597   -7.2758 H   0  0  0  0  0  0  0  0  0  0  0  0
  1  2  2  0  0  0  0
  2  3  1  0  0  0  0
  3  4  2  0  0  0  0
  4  5  1  0  0  0  0
  5  1  1  0  0  0  0
  6  7  1  0  0  0  0
  7  8  1  0  0  0  0
  8  9  1  0  0  0  0
  9 10  2  0  0  0  0
 10 11  1  0  0  0  0
 11  6  2  0  0  0  0
  7 12  2  0  0  0  0
 12 13  1  0  0  0  0
 13 14  1  0  0  0  0
 14  8  2  0  0  0  0
  4  6  1  0  0  0  0
 10 15  1  0  0  0  0
 11 16  1  0  0  0  0
 15 17  3  0  0  0  0
 16 18  3  0  0  0  0
 19 20  2  0  0  0  0
 20 21  1  0  0  0  0
 21 22  2  0  0  0  0
 22 23  1  0  0  0  0
 23 19  1  0  0  0  0
 22  9  1  0  0  0  0
 24 26  1  0  0  0  0
 26 27  1  0  0  0  0
 27 28  2  0  0  0  0
 28 25  1  0  0  0  0
 27 29  1  0  0  0  0
 29 30  2  0  0  0  0
 30 31  1  0  0  0  0
 31 32  1  0  0  0  0
 32 33  2  0  0  0  0
 33 34  1  0  0  0  0
 34 30  1  0  0  0  0
 32 35  1  0  0  0  0
 35 36  2  0  0  0  0
 36 37  1  0  0  0  0
 37 38  2  0  0  0  0
 38 33  1  0  0  0  0
 31 39  2  0  0  0  0
 34 40  2  0  0  0  0
 40 41  1  0  0  0  0
 40 42  1  0  0  0  0
 42 43  3  0  0  0  0
 41 44  3  0  0  0  0
 37 45  1  0  0  0  0
 36 46  1  0  0  0  0
 25 24  2  0  0  0  0
 25 47  1  0  0  0  0
 47 48  2  0  0  0  0
 48 49  1  0  0  0  0
 49 24  1  0  0  0  0
 47 50  1  0  0  0  0
 50 51  1  0  0  0  0
 51 52  2  0  0  0  0
 52 48  1  0  0  0  0
 50 53  1  0  0  0  0
 50 54  1  0  0  0  0
 54 55  2  0  0  0  0
 55 56  1  0  0  0  0
 56 57  2  0  0  0  0
 57 58  1  0  0  0  0
 58 59  2  0  0  0  0
 59 54  1  0  0  0  0
 53 60  2  0  0  0  0
 60 61  1  0  0  0  0
 61 62  2  0  0  0  0
 62 63  1  0  0  0  0
 63 64  2  0  0  0  0
 64 53  1  0  0  0  0
 57 65  1  0  0  0  0
 65 66  1  0  0  0  0
 62 67  1  0  0  0  0
 67 68  1  0  0  0  0
 51 69  1  0  0  0  0
 69 70  2  0  0  0  0
 70 71  1  0  0  0  0
 71 72  2  0  0  0  0
 72 52  1  0  0  0  0
 70 73  1  0  0  0  0
 73 74  2  0  0  0  0
 74 75  1  0  0  0  0
 75 71  1  0  0  0  0
 75 76  1  0  0  0  0
 75 77  1  0  0  0  0
 77 78  2  0  0  0  0
 78 79  1  0  0  0  0
 79 80  2  0  0  0  0
 80 81  1  0  0  0  0
 81 82  2  0  0  0  0
 82 77  1  0  0  0  0
 76 83  2  0  0  0  0
 83 84  1  0  0  0  0
 84 85  2  0  0  0  0
 85 86  1  0  0  0  0
 86 87  2  0  0  0  0
 87 76  1  0  0  0  0
 80 88  1  0  0  0  0
 88 89  1  0  0  0  0
 85 90  1  0  0  0  0
 73 91  1  0  0  0  0
 91 92  1  0  0  0  0
 92 93  2  0  0  0  0
 93 74  1  0  0  0  0
 92 94  1  0  0  0  0
 94 95  2  0  0  0  0
 95 96  1  0  0  0  0
 96 93  1  0  0  0  0
 90 97  1  0  0  0  0
 95 19  1  0  0  0  0
 98100  1  0  0  0  0
100101  1  0  0  0  0
101102  2  0  0  0  0
102 99  1  0  0  0  0
101103  1  0  0  0  0
103104  2  0  0  0  0
104105  1  0  0  0  0
105106  1  0  0  0  0
106107  2  0  0  0  0
107108  1  0  0  0  0
108104  1  0  0  0  0
106109  1  0  0  0  0
109110  2  0  0  0  0
110111  1  0  0  0  0
111112  2  0  0  0  0
112107  1  0  0  0  0
105113  2  0  0  0  0
108114  2  0  0  0  0
114115  1  0  0  0  0
114116  1  0  0  0  0
116117  3  0  0  0  0
115118  3  0  0  0  0
111119  1  0  0  0  0
110120  1  0  0  0  0
 99 98  2  0  0  0  0
 99121  1  0  0  0  0
121122  2  0  0  0  0
122123  1  0  0  0  0
123 98  1  0  0  0  0
121124  1  0  0  0  0
124125  1  0  0  0  0
125126  2  0  0  0  0
126122  1  0  0  0  0
124127  1  0  0  0  0
124128  1  0  0  0  0
128129  2  0  0  0  0
129130  1  0  0  0  0
130131  2  0  0  0  0
131132  1  0  0  0  0
132133  2  0  0  0  0
133128  1  0  0  0  0
127134  2  0  0  0  0
134135  1  0  0  0  0
135136  2  0  0  0  0
136137  1  0  0  0  0
137138  2  0  0  0  0
138127  1  0  0  0  0
131139  1  0  0  0  0
139140  1  0  0  0  0
136141  1  0  0  0  0
141142  1  0  0  0  0
125143  1  0  0  0  0
143144  2  0  0  0  0
144145  1  0  0  0  0
145146  2  0  0  0  0
146126  1  0  0  0  0
144147  1  0  0  0  0
147148  2  0  0  0  0
148149  1  0  0  0  0
149145  1  0  0  0  0
149150  1  0  0  0  0
149151  1  0  0  0  0
151152  2  0  0  0  0
152153  1  0  0  0  0
153154  2  0  0  0  0
154155  1  0  0  0  0
155156  2  0  0  0  0
156151  1  0  0  0  0
150157  2  0  0  0  0
157158  1  0  0  0  0
158159  2  0  0  0  0
159160  1  0  0  0  0
160161  2  0  0  0  0
161150  1  0  0  0  0
154162  1  0  0  0  0
162163  1  0  0  0  0
159164  1  0  0  0  0
147165  1  0  0  0  0
165166  1  0  0  0  0
166167  2  0  0  0  0
167148  1  0  0  0  0
166168  1  0  0  0  0
168169  2  0  0  0  0
169170  1  0  0  0  0
170167  1  0  0  0  0
164171  1  0  0  0  0
  1169  1  0  0  0  0
  2172  1  0  0  0  0
  3173  1  0  0  0  0
 20174  1  0  0  0  0
 21175  1  0  0  0  0
 28176  1  0  0  0  0
 29177  1  0  0  0  0
 35178  1  0  0  0  0
 38179  1  0  0  0  0
 55180  1  0  0  0  0
 56181  1  0  0  0  0
 58182  1  0  0  0  0
 59183  1  0  0  0  0
 60184  1  0  0  0  0
 61185  1  0  0  0  0
 63186  1  0  0  0  0
 64187  1  0  0  0  0
 65188  1  0  0  0  0
 65189  1  0  0  0  0
 66190  1  0  0  0  0
 66191  1  0  0  0  0
 66192  1  0  0  0  0
 67193  1  0  0  0  0
 67194  1  0  0  0  0
 68195  1  0  0  0  0
 68196  1  0  0  0  0
 68197  1  0  0  0  0
 69198  1  0  0  0  0
 72199  1  0  0  0  0
 78200  1  0  0  0  0
 79201  1  0  0  0  0
 81202  1  0  0  0  0
 82203  1  0  0  0  0
 83204  1  0  0  0  0
 84205  1  0  0  0  0
 86206  1  0  0  0  0
 87207  1  0  0  0  0
 88208  1  0  0  0  0
 88209  1  0  0  0  0
 89210  1  0  0  0  0
 89211  1  0  0  0  0
 89212  1  0  0  0  0
 90213  1  0  0  0  0
 90214  1  0  0  0  0
 94215  1  0  0  0  0
 97216  1  0  0  0  0
 97217  1  0  0  0  0
 97218  1  0  0  0  0
102219  1  0  0  0  0
103220  1  0  0  0  0
109221  1  0  0  0  0
112222  1  0  0  0  0
129223  1  0  0  0  0
130224  1  0  0  0  0
132225  1  0  0  0  0
133226  1  0  0  0  0
134227  1  0  0  0  0
135228  1  0  0  0  0
137229  1  0  0  0  0
138230  1  0  0  0  0
139231  1  0  0  0  0
139232  1  0  0  0  0
140233  1  0  0  0  0
140234  1  0  0  0  0
140235  1  0  0  0  0
141236  1  0  0  0  0
141237  1  0  0  0  0
142238  1  0  0  0  0
142239  1  0  0  0  0
142240  1  0  0  0  0
143241  1  0  0  0  0
146242  1  0  0  0  0
152243  1  0  0  0  0
153244  1  0  0  0  0
155245  1  0  0  0  0
156246  1  0  0  0  0
157247  1  0  0  0  0
158248  1  0  0  0  0
160249  1  0  0  0  0
161250  1  0  0  0  0
162251  1  0  0  0  0
162252  1  0  0  0  0
163253  1  0  0  0  0
163254  1  0  0  0  0
163255  1  0  0  0  0
164256  1  0  0  0  0
164257  1  0  0  0  0
168258  1  0  0  0  0
171259  1  0  0  0  0
171260  1  0  0  0  0
171261  1  0  0  0  0
M  END
