COi6IC.mol
  xtb     01102218003D
 energy: -223.740001841614 gnorm: 0.000507439813 xtb: 6.4.1 (unknown)
134147  0     0  0            999 V2000
    6.4725   -1.3084   -0.2003 O   0  0  0  0  0  0  0  0  0  0  0  0
    7.5704   -0.9065   -0.5469 C   0  0  0  0  0  0  0  0  0  0  0  0
    8.8096   -1.7009   -0.6175 C   0  0  0  0  0  0  0  0  0  0  0  0
    8.9997   -3.0368   -0.3258 C   0  0  0  0  0  0  0  0  0  0  0  0
   10.2747   -3.5646   -0.4773 C   0  0  0  0  0  0  0  0  0  0  0  0
   11.3200   -2.7623   -0.9099 C   0  0  0  0  0  0  0  0  0  0  0  0
   11.1314   -1.4171   -1.2029 C   0  0  0  0  0  0  0  0  0  0  0  0
    9.8632   -0.8791   -1.0552 C   0  0  0  0  0  0  0  0  0  0  0  0
    9.3458    0.4722   -1.2795 C   0  0  0  0  0  0  0  0  0  0  0  0
   10.0901    1.5402   -1.7113 C   0  0  0  0  0  0  0  0  0  0  0  0
   11.4703    1.4812   -1.9973 C   0  0  0  0  0  0  0  0  0  0  0  0
   12.5900    1.5094   -2.2500 N   0  0  0  0  0  0  0  0  0  0  0  0
    9.6077    2.8459   -1.9373 C   0  0  0  0  0  0  0  0  0  0  0  0
    9.3002    3.9339   -2.1425 N   0  0  0  0  0  0  0  0  0  0  0  0
    7.9312    0.4502   -0.9693 C   0  0  0  0  0  0  0  0  0  0  0  0
    7.0664    1.5140   -1.0547 C   0  0  0  0  0  0  0  0  0  0  0  0
    5.6889    1.5804   -0.8169 C   0  0  0  0  0  0  0  0  0  0  0  0
    4.9655    2.7676   -0.9920 C   0  0  0  0  0  0  0  0  0  0  0  0
    3.6169    2.6363   -0.7392 C   0  0  0  0  0  0  0  0  0  0  0  0
    3.2775    1.3308   -0.3704 C   0  0  0  0  0  0  0  0  0  0  0  0
    1.9127    1.0179   -0.2134 C   0  0  0  0  0  0  0  0  0  0  0  0
    0.9732    1.9440   -0.6689 C   0  0  0  0  0  0  0  0  0  0  0  0
    1.2891    3.1430   -1.1743 O   0  0  0  0  0  0  0  0  0  0  0  0
    2.5518    3.7061   -0.7466 C   0  0  0  0  0  0  0  0  0  0  0  0
    2.8980    4.7762   -1.7659 C   0  0  0  0  0  0  0  0  0  0  0  0
    2.8969    4.4290   -3.1113 C   0  0  0  0  0  0  0  0  0  0  0  0
    3.2331    5.3604   -4.0737 C   0  0  0  0  0  0  0  0  0  0  0  0
    3.5832    6.6569   -3.7172 C   0  0  0  0  0  0  0  0  0  0  0  0
    4.0057    7.6520   -4.7583 C   0  0  0  0  0  0  0  0  0  0  0  0
    5.5179    7.5764   -4.9812 C   0  0  0  0  0  0  0  0  0  0  0  0
    3.5826    6.9951   -2.3707 C   0  0  0  0  0  0  0  0  0  0  0  0
    3.2412    6.0691   -1.4015 C   0  0  0  0  0  0  0  0  0  0  0  0
    2.3829    4.2644    0.6617 C   0  0  0  0  0  0  0  0  0  0  0  0
    1.1289    4.6715    1.0965 C   0  0  0  0  0  0  0  0  0  0  0  0
    0.9607    5.1771    2.3720 C   0  0  0  0  0  0  0  0  0  0  0  0
    2.0386    5.3013    3.2382 C   0  0  0  0  0  0  0  0  0  0  0  0
    1.8481    5.8090    4.6380 C   0  0  0  0  0  0  0  0  0  0  0  0
    1.5747    4.6459    5.5940 C   0  0  0  0  0  0  0  0  0  0  0  0
    3.2927    4.9031    2.7927 C   0  0  0  0  0  0  0  0  0  0  0  0
    3.4665    4.3886    1.5219 C   0  0  0  0  0  0  0  0  0  0  0  0
   -0.3239    1.4196   -0.6102 C   0  0  0  0  0  0  0  0  0  0  0  0
   -1.8890    2.0062   -1.0555 S   0  0  0  0  0  0  0  0  0  0  0  0
   -0.3666    0.1230   -0.0831 C   0  0  0  0  0  0  0  0  0  0  0  0
   -1.6635   -0.4022   -0.0247 C   0  0  0  0  0  0  0  0  0  0  0  0
   -1.9675   -1.6373    0.3887 O   0  0  0  0  0  0  0  0  0  0  0  0
   -2.5955    0.4969   -0.5442 C   0  0  0  0  0  0  0  0  0  0  0  0
   -3.9181    0.0396   -0.7102 C   0  0  0  0  0  0  0  0  0  0  0  0
   -5.1707    0.6952   -1.6837 S   0  0  0  0  0  0  0  0  0  0  0  0
   -4.2891   -1.1756   -0.1295 C   0  0  0  0  0  0  0  0  0  0  0  0
   -5.5646   -1.5799   -0.4845 C   0  0  0  0  0  0  0  0  0  0  0  0
   -6.2066   -0.6887   -1.3368 C   0  0  0  0  0  0  0  0  0  0  0  0
   -7.4665   -0.6969   -1.9569 C   0  0  0  0  0  0  0  0  0  0  0  0
   -8.4521   -1.6499   -2.0033 C   0  0  0  0  0  0  0  0  0  0  0  0
   -9.6827   -1.4827   -2.7589 C   0  0  0  0  0  0  0  0  0  0  0  0
  -10.1791   -0.3232   -3.2960 C   0  0  0  0  0  0  0  0  0  0  0  0
   -9.6029    0.9609   -3.1900 C   0  0  0  0  0  0  0  0  0  0  0  0
   -9.2265    2.0454   -3.1416 N   0  0  0  0  0  0  0  0  0  0  0  0
  -11.3912   -0.2400   -4.0139 C   0  0  0  0  0  0  0  0  0  0  0  0
  -12.3609   -0.0960   -4.6117 N   0  0  0  0  0  0  0  0  0  0  0  0
   -8.4487   -3.0197   -1.4411 C   0  0  0  0  0  0  0  0  0  0  0  0
   -9.6362   -3.6861   -2.0121 C   0  0  0  0  0  0  0  0  0  0  0  0
  -10.3591   -2.7779   -2.8019 C   0  0  0  0  0  0  0  0  0  0  0  0
  -11.5079   -3.2006   -3.4525 C   0  0  0  0  0  0  0  0  0  0  0  0
  -10.0428   -4.9962   -1.8519 C   0  0  0  0  0  0  0  0  0  0  0  0
  -11.1958   -5.4085   -2.5046 C   0  0  0  0  0  0  0  0  0  0  0  0
  -11.9114   -4.5201   -3.2944 C   0  0  0  0  0  0  0  0  0  0  0  0
   -7.6631   -3.5292   -0.6668 O   0  0  0  0  0  0  0  0  0  0  0  0
   -3.3318   -1.8476    0.8241 C   0  0  0  0  0  0  0  0  0  0  0  0
   -3.5763   -3.3448    0.8395 C   0  0  0  0  0  0  0  0  0  0  0  0
   -2.8699   -4.1821   -0.0106 C   0  0  0  0  0  0  0  0  0  0  0  0
   -3.1257   -5.5406   -0.0190 C   0  0  0  0  0  0  0  0  0  0  0  0
   -4.0980   -6.0888    0.8063 C   0  0  0  0  0  0  0  0  0  0  0  0
   -4.3409   -7.5702    0.8267 C   0  0  0  0  0  0  0  0  0  0  0  0
   -3.4132   -8.2460    1.8387 C   0  0  0  0  0  0  0  0  0  0  0  0
   -4.8052   -5.2416    1.6495 C   0  0  0  0  0  0  0  0  0  0  0  0
   -4.5498   -3.8842    1.6697 C   0  0  0  0  0  0  0  0  0  0  0  0
   -3.4593   -1.2658    2.2286 C   0  0  0  0  0  0  0  0  0  0  0  0
   -4.5702   -0.5461    2.6433 C   0  0  0  0  0  0  0  0  0  0  0  0
   -4.6329   -0.0459    3.9314 C   0  0  0  0  0  0  0  0  0  0  0  0
   -3.5916   -0.2445    4.8279 C   0  0  0  0  0  0  0  0  0  0  0  0
   -3.6859    0.2619    6.2381 C   0  0  0  0  0  0  0  0  0  0  0  0
   -4.3438   -0.7876    7.1364 C   0  0  0  0  0  0  0  0  0  0  0  0
   -2.4837   -0.9685    4.4054 C   0  0  0  0  0  0  0  0  0  0  0  0
   -2.4175   -1.4767    3.1229 C   0  0  0  0  0  0  0  0  0  0  0  0
    1.2014   -0.4753    0.3344 S   0  0  0  0  0  0  0  0  0  0  0  0
    4.6329    0.2717   -0.3213 S   0  0  0  0  0  0  0  0  0  0  0  0
    8.1705   -3.6412    0.0083 H   0  0  0  0  0  0  0  0  0  0  0  0
   10.4551   -4.6062   -0.2580 H   0  0  0  0  0  0  0  0  0  0  0  0
   12.3055   -3.1887   -1.0233 H   0  0  0  0  0  0  0  0  0  0  0  0
   11.9640   -0.8204   -1.5371 H   0  0  0  0  0  0  0  0  0  0  0  0
    7.4861    2.4620   -1.3688 H   0  0  0  0  0  0  0  0  0  0  0  0
    5.4356    3.6849   -1.3020 H   0  0  0  0  0  0  0  0  0  0  0  0
    2.6256    3.4242   -3.4005 H   0  0  0  0  0  0  0  0  0  0  0  0
    3.2255    5.0773   -5.1165 H   0  0  0  0  0  0  0  0  0  0  0  0
    3.4919    7.4454   -5.6990 H   0  0  0  0  0  0  0  0  0  0  0  0
    3.7392    8.6607   -4.4367 H   0  0  0  0  0  0  0  0  0  0  0  0
    5.8028    6.5802   -5.3114 H   0  0  0  0  0  0  0  0  0  0  0  0
    6.0485    7.7936   -4.0571 H   0  0  0  0  0  0  0  0  0  0  0  0
    5.8270    8.2947   -5.7367 H   0  0  0  0  0  0  0  0  0  0  0  0
    3.8497    7.9991   -2.0735 H   0  0  0  0  0  0  0  0  0  0  0  0
    3.2443    6.3566   -0.3609 H   0  0  0  0  0  0  0  0  0  0  0  0
    0.2828    4.5975    0.4293 H   0  0  0  0  0  0  0  0  0  0  0  0
   -0.0230    5.4867    2.6947 H   0  0  0  0  0  0  0  0  0  0  0  0
    2.7447    6.3395    4.9645 H   0  0  0  0  0  0  0  0  0  0  0  0
    1.0078    6.5053    4.6685 H   0  0  0  0  0  0  0  0  0  0  0  0
    2.4087    3.9476    5.5885 H   0  0  0  0  0  0  0  0  0  0  0  0
    1.4347    5.0123    6.6082 H   0  0  0  0  0  0  0  0  0  0  0  0
    0.6780    4.1098    5.2908 H   0  0  0  0  0  0  0  0  0  0  0  0
    4.1467    4.9984    3.4479 H   0  0  0  0  0  0  0  0  0  0  0  0
    4.4524    4.0905    1.1969 H   0  0  0  0  0  0  0  0  0  0  0  0
   -6.0276   -2.4894   -0.1479 H   0  0  0  0  0  0  0  0  0  0  0  0
   -7.6561    0.2026   -2.5312 H   0  0  0  0  0  0  0  0  0  0  0  0
  -12.0830   -2.5357   -4.0755 H   0  0  0  0  0  0  0  0  0  0  0  0
   -9.4666   -5.6686   -1.2350 H   0  0  0  0  0  0  0  0  0  0  0  0
  -11.5386   -6.4270   -2.4005 H   0  0  0  0  0  0  0  0  0  0  0  0
  -12.8035   -4.8584   -3.8000 H   0  0  0  0  0  0  0  0  0  0  0  0
   -2.1137   -3.7687   -0.6602 H   0  0  0  0  0  0  0  0  0  0  0  0
   -2.5658   -6.1830   -0.6837 H   0  0  0  0  0  0  0  0  0  0  0  0
   -4.1589   -7.9900   -0.1645 H   0  0  0  0  0  0  0  0  0  0  0  0
   -5.3787   -7.7713    1.0987 H   0  0  0  0  0  0  0  0  0  0  0  0
   -3.5851   -9.3197    1.8563 H   0  0  0  0  0  0  0  0  0  0  0  0
   -3.5889   -7.8489    2.8360 H   0  0  0  0  0  0  0  0  0  0  0  0
   -2.3730   -8.0644    1.5778 H   0  0  0  0  0  0  0  0  0  0  0  0
   -5.5690   -5.6478    2.2963 H   0  0  0  0  0  0  0  0  0  0  0  0
   -5.1094   -3.2415    2.3329 H   0  0  0  0  0  0  0  0  0  0  0  0
   -5.3951   -0.3783    1.9664 H   0  0  0  0  0  0  0  0  0  0  0  0
   -5.5050    0.5117    4.2415 H   0  0  0  0  0  0  0  0  0  0  0  0
   -4.2772    1.1794    6.2643 H   0  0  0  0  0  0  0  0  0  0  0  0
   -2.6875    0.4864    6.6187 H   0  0  0  0  0  0  0  0  0  0  0  0
   -4.4099   -0.4251    8.1595 H   0  0  0  0  0  0  0  0  0  0  0  0
   -3.7639   -1.7078    7.1298 H   0  0  0  0  0  0  0  0  0  0  0  0
   -5.3469   -1.0134    6.7819 H   0  0  0  0  0  0  0  0  0  0  0  0
   -1.6638   -1.1376    5.0886 H   0  0  0  0  0  0  0  0  0  0  0  0
   -1.5534   -2.0400    2.8026 H   0  0  0  0  0  0  0  0  0  0  0  0
  1  2  2  0  0  0  0
  2  3  1  0  0  0  0
  3  4  2  0  0  0  0
  4  5  1  0  0  0  0
  5  6  2  0  0  0  0
  6  7  1  0  0  0  0
  3  8  1  0  0  0  0
  7  8  2  0  0  0  0
  8  9  1  0  0  0  0
  9 10  2  0  0  0  0
 10 11  1  0  0  0  0
 11 12  3  0  0  0  0
 10 13  1  0  0  0  0
 13 14  3  0  0  0  0
  2 15  1  0  0  0  0
  9 15  1  0  0  0  0
 15 16  2  0  0  0  0
 16 17  1  0  0  0  0
 17 18  2  0  0  0  0
 18 19  1  0  0  0  0
 19 20  2  0  0  0  0
 20 21  1  0  0  0  0
 21 22  2  0  0  0  0
 22 23  1  0  0  0  0
 23 24  1  0  0  0  0
 24 25  1  0  0  0  0
 25 26  2  0  0  0  0
 26 27  1  0  0  0  0
 27 28  2  0  0  0  0
 28 29  1  0  0  0  0
 29 30  1  0  0  0  0
 28 31  1  0  0  0  0
 31 32  2  0  0  0  0
 25 32  1  0  0  0  0
 19 24  1  0  0  0  0
 24 33  1  0  0  0  0
 33 34  2  0  0  0  0
 34 35  1  0  0  0  0
 35 36  2  0  0  0  0
 36 37  1  0  0  0  0
 37 38  1  0  0  0  0
 36 39  1  0  0  0  0
 39 40  2  0  0  0  0
 33 40  1  0  0  0  0
 22 41  1  0  0  0  0
 41 42  1  0  0  0  0
 41 43  2  0  0  0  0
 43 44  1  0  0  0  0
 44 45  1  0  0  0  0
 44 46  2  0  0  0  0
 42 46  1  0  0  0  0
 46 47  1  0  0  0  0
 47 48  1  0  0  0  0
 47 49  2  0  0  0  0
 49 50  1  0  0  0  0
 50 51  2  0  0  0  0
 48 51  1  0  0  0  0
 51 52  1  0  0  0  0
 52 53  2  0  0  0  0
 53 54  1  0  0  0  0
 54 55  2  0  0  0  0
 55 56  1  0  0  0  0
 56 57  3  0  0  0  0
 55 58  1  0  0  0  0
 58 59  3  0  0  0  0
 53 60  1  0  0  0  0
 60 61  1  0  0  0  0
 61 62  2  0  0  0  0
 54 62  1  0  0  0  0
 62 63  1  0  0  0  0
 61 64  1  0  0  0  0
 64 65  2  0  0  0  0
 65 66  1  0  0  0  0
 63 66  2  0  0  0  0
 60 67  2  0  0  0  0
 49 68  1  0  0  0  0
 45 68  1  0  0  0  0
 68 69  1  0  0  0  0
 69 70  2  0  0  0  0
 70 71  1  0  0  0  0
 71 72  2  0  0  0  0
 72 73  1  0  0  0  0
 73 74  1  0  0  0  0
 72 75  1  0  0  0  0
 75 76  2  0  0  0  0
 69 76  1  0  0  0  0
 68 77  1  0  0  0  0
 77 78  2  0  0  0  0
 78 79  1  0  0  0  0
 79 80  2  0  0  0  0
 80 81  1  0  0  0  0
 81 82  1  0  0  0  0
 80 83  1  0  0  0  0
 83 84  2  0  0  0  0
 77 84  1  0  0  0  0
 43 85  1  0  0  0  0
 21 85  1  0  0  0  0
 20 86  1  0  0  0  0
 17 86  1  0  0  0  0
  4 87  1  0  0  0  0
  5 88  1  0  0  0  0
  6 89  1  0  0  0  0
  7 90  1  0  0  0  0
 16 91  1  0  0  0  0
 18 92  1  0  0  0  0
 26 93  1  0  0  0  0
 27 94  1  0  0  0  0
 29 95  1  0  0  0  0
 29 96  1  0  0  0  0
 30 97  1  0  0  0  0
 30 98  1  0  0  0  0
 30 99  1  0  0  0  0
 31100  1  0  0  0  0
 32101  1  0  0  0  0
 34102  1  0  0  0  0
 35103  1  0  0  0  0
 37104  1  0  0  0  0
 37105  1  0  0  0  0
 38106  1  0  0  0  0
 38107  1  0  0  0  0
 38108  1  0  0  0  0
 39109  1  0  0  0  0
 40110  1  0  0  0  0
 50111  1  0  0  0  0
 52112  1  0  0  0  0
 63113  1  0  0  0  0
 64114  1  0  0  0  0
 65115  1  0  0  0  0
 66116  1  0  0  0  0
 70117  1  0  0  0  0
 71118  1  0  0  0  0
 73119  1  0  0  0  0
 73120  1  0  0  0  0
 74121  1  0  0  0  0
 74122  1  0  0  0  0
 74123  1  0  0  0  0
 75124  1  0  0  0  0
 76125  1  0  0  0  0
 78126  1  0  0  0  0
 79127  1  0  0  0  0
 81128  1  0  0  0  0
 81129  1  0  0  0  0
 82130  1  0  0  0  0
 82131  1  0  0  0  0
 82132  1  0  0  0  0
 83133  1  0  0  0  0
 84134  1  0  0  0  0
M  END
