CPDT-4Cl.mol
  xtb     01102218013D
 energy: -177.518501305644 gnorm: 0.000339303193 xtb: 6.4.1 (unknown)
 96105  0     0  0            999 V2000
   -8.8098   -9.0360    6.9721 Cl  0  0  0  0  0  0  0  0  0  0  0  0
   -8.1406   -8.8549    5.4008 C   0  0  0  0  0  0  0  0  0  0  0  0
   -8.2771   -9.8808    4.4596 C   0  0  0  0  0  0  0  0  0  0  0  0
   -9.1100  -11.3219    4.8832 Cl  0  0  0  0  0  0  0  0  0  0  0  0
   -7.7485   -9.7603    3.1786 C   0  0  0  0  0  0  0  0  0  0  0  0
   -7.0740   -8.5973    2.8460 C   0  0  0  0  0  0  0  0  0  0  0  0
   -6.9374   -7.5760    3.7995 C   0  0  0  0  0  0  0  0  0  0  0  0
   -7.4630   -7.6882    5.0701 C   0  0  0  0  0  0  0  0  0  0  0  0
   -6.4233   -8.1691    1.6097 C   0  0  0  0  0  0  0  0  0  0  0  0
   -5.7998   -6.8816    1.8604 C   0  0  0  0  0  0  0  0  0  0  0  0
   -6.1720   -6.4497    3.2222 C   0  0  0  0  0  0  0  0  0  0  0  0
   -5.9113   -5.4129    3.7998 O   0  0  0  0  0  0  0  0  0  0  0  0
   -4.9222   -6.2881    0.9834 C   0  0  0  0  0  0  0  0  0  0  0  0
   -4.2693   -5.0493    1.0202 C   0  0  0  0  0  0  0  0  0  0  0  0
   -4.4005   -3.9429    1.8610 C   0  0  0  0  0  0  0  0  0  0  0  0
   -3.5629   -2.9036    1.5136 C   0  0  0  0  0  0  0  0  0  0  0  0
   -3.2359   -1.5248    2.0413 C   0  0  0  0  0  0  0  0  0  0  0  0
   -4.4159   -0.5267    1.9771 C   0  0  0  0  0  0  0  0  0  0  0  0
   -5.7978   -1.1220    2.2190 C   0  0  0  0  0  0  0  0  0  0  0  0
   -2.5791   -1.5976    3.4381 C   0  0  0  0  0  0  0  0  0  0  0  0
   -3.4953   -2.0187    4.5782 C   0  0  0  0  0  0  0  0  0  0  0  0
   -2.7664   -3.2060    0.3927 C   0  0  0  0  0  0  0  0  0  0  0  0
   -3.0656   -4.7587   -0.2427 S   0  0  0  0  0  0  0  0  0  0  0  0
   -1.9221   -2.1129    0.1196 C   0  0  0  0  0  0  0  0  0  0  0  0
   -2.1671   -1.1056    1.0546 C   0  0  0  0  0  0  0  0  0  0  0  0
   -1.3738    0.0146    0.8584 C   0  0  0  0  0  0  0  0  0  0  0  0
   -0.5129   -0.1321   -0.2226 C   0  0  0  0  0  0  0  0  0  0  0  0
   -0.7013   -1.6853   -1.0085 S   0  0  0  0  0  0  0  0  0  0  0  0
    0.4453    0.8003   -0.6932 C   0  0  0  0  0  0  0  0  0  0  0  0
    1.5473    0.3696   -1.9819 S   0  0  0  0  0  0  0  0  0  0  0  0
    0.6602    2.0931   -0.2310 C   0  0  0  0  0  0  0  0  0  0  0  0
    1.7068    2.7237   -0.8877 C   0  0  0  0  0  0  0  0  0  0  0  0
    2.2813    1.9168   -1.8750 C   0  0  0  0  0  0  0  0  0  0  0  0
    3.3171    2.6263   -2.5117 C   0  0  0  0  0  0  0  0  0  0  0  0
    4.4825    2.3581   -3.7263 S   0  0  0  0  0  0  0  0  0  0  0  0
    3.4107    3.9059   -1.9358 C   0  0  0  0  0  0  0  0  0  0  0  0
    2.3744    4.0806   -0.8476 C   0  0  0  0  0  0  0  0  0  0  0  0
    3.1031    4.3438    0.4850 C   0  0  0  0  0  0  0  0  0  0  0  0
    2.1968    4.4694    1.7019 C   0  0  0  0  0  0  0  0  0  0  0  0
    1.3306    5.1560   -1.2133 C   0  0  0  0  0  0  0  0  0  0  0  0
    1.8686    6.5795   -1.2660 C   0  0  0  0  0  0  0  0  0  0  0  0
    4.4416    4.6546   -2.4608 C   0  0  0  0  0  0  0  0  0  0  0  0
    5.1420    3.9801   -3.4628 C   0  0  0  0  0  0  0  0  0  0  0  0
    6.2509    4.3257   -4.2459 C   0  0  0  0  0  0  0  0  0  0  0  0
    7.0024    5.4755   -4.3207 C   0  0  0  0  0  0  0  0  0  0  0  0
    6.7880    6.7639   -3.6333 C   0  0  0  0  0  0  0  0  0  0  0  0
    7.8491    7.6642   -4.1315 C   0  0  0  0  0  0  0  0  0  0  0  0
    8.0723    8.9839   -3.7970 C   0  0  0  0  0  0  0  0  0  0  0  0
    9.1400    9.6417   -4.3939 C   0  0  0  0  0  0  0  0  0  0  0  0
    9.4561   11.2841   -4.0042 Cl  0  0  0  0  0  0  0  0  0  0  0  0
    9.9563    8.9696   -5.3097 C   0  0  0  0  0  0  0  0  0  0  0  0
   11.2728    9.7935   -6.0434 Cl  0  0  0  0  0  0  0  0  0  0  0  0
    9.7255    7.6390   -5.6428 C   0  0  0  0  0  0  0  0  0  0  0  0
    8.6626    6.9794   -5.0473 C   0  0  0  0  0  0  0  0  0  0  0  0
    8.1706    5.6084   -5.1753 C   0  0  0  0  0  0  0  0  0  0  0  0
    8.7607    4.6431   -5.9507 C   0  0  0  0  0  0  0  0  0  0  0  0
    8.3589    3.2961   -6.0780 C   0  0  0  0  0  0  0  0  0  0  0  0
    8.1226    2.1840   -6.2439 N   0  0  0  0  0  0  0  0  0  0  0  0
    9.9044    4.8619   -6.7490 C   0  0  0  0  0  0  0  0  0  0  0  0
   10.8292    4.9606   -7.4219 N   0  0  0  0  0  0  0  0  0  0  0  0
    5.9303    7.0770   -2.8311 O   0  0  0  0  0  0  0  0  0  0  0  0
   -6.4782   -8.8487    0.4201 C   0  0  0  0  0  0  0  0  0  0  0  0
   -7.1197  -10.0947    0.2533 C   0  0  0  0  0  0  0  0  0  0  0  0
   -7.6172  -11.1086    0.0480 N   0  0  0  0  0  0  0  0  0  0  0  0
   -5.9563   -8.4059   -0.8144 C   0  0  0  0  0  0  0  0  0  0  0  0
   -5.5852   -8.1176   -1.8625 N   0  0  0  0  0  0  0  0  0  0  0  0
   -7.8719  -10.5736    2.4826 H   0  0  0  0  0  0  0  0  0  0  0  0
   -7.3483   -6.8895    5.7859 H   0  0  0  0  0  0  0  0  0  0  0  0
   -4.6606   -6.8786    0.1130 H   0  0  0  0  0  0  0  0  0  0  0  0
   -5.0960   -3.9481    2.6781 H   0  0  0  0  0  0  0  0  0  0  0  0
   -4.2255    0.2665    2.7024 H   0  0  0  0  0  0  0  0  0  0  0  0
   -4.4170   -0.0679    0.9849 H   0  0  0  0  0  0  0  0  0  0  0  0
   -6.0587   -1.8230    1.4304 H   0  0  0  0  0  0  0  0  0  0  0  0
   -6.5355   -0.3223    2.2178 H   0  0  0  0  0  0  0  0  0  0  0  0
   -5.8556   -1.6375    3.1715 H   0  0  0  0  0  0  0  0  0  0  0  0
   -2.1629   -0.6117    3.6593 H   0  0  0  0  0  0  0  0  0  0  0  0
   -1.7438   -2.3001    3.3746 H   0  0  0  0  0  0  0  0  0  0  0  0
   -2.9137   -2.0854    5.4953 H   0  0  0  0  0  0  0  0  0  0  0  0
   -3.9388   -2.9916    4.3898 H   0  0  0  0  0  0  0  0  0  0  0  0
   -4.2859   -1.2908    4.7362 H   0  0  0  0  0  0  0  0  0  0  0  0
   -1.4019    0.9003    1.4653 H   0  0  0  0  0  0  0  0  0  0  0  0
    0.0579    2.5341    0.5409 H   0  0  0  0  0  0  0  0  0  0  0  0
    3.6909    5.2551    0.3710 H   0  0  0  0  0  0  0  0  0  0  0  0
    3.8037    3.5207    0.6476 H   0  0  0  0  0  0  0  0  0  0  0  0
    1.4862    5.2830    1.5857 H   0  0  0  0  0  0  0  0  0  0  0  0
    2.8026    4.6736    2.5819 H   0  0  0  0  0  0  0  0  0  0  0  0
    1.6510    3.5464    1.8766 H   0  0  0  0  0  0  0  0  0  0  0  0
    0.9180    4.8945   -2.1913 H   0  0  0  0  0  0  0  0  0  0  0  0
    0.5149    5.0995   -0.4906 H   0  0  0  0  0  0  0  0  0  0  0  0
    1.0680    7.2547   -1.5600 H   0  0  0  0  0  0  0  0  0  0  0  0
    2.6697    6.6687   -1.9934 H   0  0  0  0  0  0  0  0  0  0  0  0
    2.2399    6.9000   -0.2968 H   0  0  0  0  0  0  0  0  0  0  0  0
    4.7178    5.6475   -2.1588 H   0  0  0  0  0  0  0  0  0  0  0  0
    6.5624    3.5239   -4.9046 H   0  0  0  0  0  0  0  0  0  0  0  0
    7.4329    9.4874   -3.0894 H   0  0  0  0  0  0  0  0  0  0  0  0
   10.3770    7.1587   -6.3537 H   0  0  0  0  0  0  0  0  0  0  0  0
  1  2  1  0  0  0  0
  2  3  2  0  0  0  0
  3  4  1  0  0  0  0
  3  5  1  0  0  0  0
  5  6  2  0  0  0  0
  6  7  1  0  0  0  0
  7  8  2  0  0  0  0
  2  8  1  0  0  0  0
  6  9  1  0  0  0  0
  9 10  1  0  0  0  0
 10 11  1  0  0  0  0
  7 11  1  0  0  0  0
 11 12  2  0  0  0  0
 10 13  2  0  0  0  0
 13 14  1  0  0  0  0
 14 15  2  0  0  0  0
 15 16  1  0  0  0  0
 16 17  1  0  0  0  0
 17 18  1  0  0  0  0
 18 19  1  0  0  0  0
 17 20  1  0  0  0  0
 20 21  1  0  0  0  0
 16 22  2  0  0  0  0
 22 23  1  0  0  0  0
 14 23  1  0  0  0  0
 22 24  1  0  0  0  0
 24 25  2  0  0  0  0
 17 25  1  0  0  0  0
 25 26  1  0  0  0  0
 26 27  2  0  0  0  0
 27 28  1  0  0  0  0
 24 28  1  0  0  0  0
 27 29  1  0  0  0  0
 29 30  1  0  0  0  0
 29 31  2  0  0  0  0
 31 32  1  0  0  0  0
 32 33  2  0  0  0  0
 30 33  1  0  0  0  0
 33 34  1  0  0  0  0
 34 35  1  0  0  0  0
 34 36  2  0  0  0  0
 36 37  1  0  0  0  0
 32 37  1  0  0  0  0
 37 38  1  0  0  0  0
 38 39  1  0  0  0  0
 37 40  1  0  0  0  0
 40 41  1  0  0  0  0
 36 42  1  0  0  0  0
 42 43  2  0  0  0  0
 35 43  1  0  0  0  0
 43 44  1  0  0  0  0
 44 45  2  0  0  0  0
 45 46  1  0  0  0  0
 46 47  1  0  0  0  0
 47 48  2  0  0  0  0
 48 49  1  0  0  0  0
 49 50  1  0  0  0  0
 49 51  2  0  0  0  0
 51 52  1  0  0  0  0
 51 53  1  0  0  0  0
 53 54  2  0  0  0  0
 47 54  1  0  0  0  0
 54 55  1  0  0  0  0
 45 55  1  0  0  0  0
 55 56  2  0  0  0  0
 56 57  1  0  0  0  0
 57 58  3  0  0  0  0
 56 59  1  0  0  0  0
 59 60  3  0  0  0  0
 46 61  2  0  0  0  0
  9 62  2  0  0  0  0
 62 63  1  0  0  0  0
 63 64  3  0  0  0  0
 62 65  1  0  0  0  0
 65 66  3  0  0  0  0
  5 67  1  0  0  0  0
  8 68  1  0  0  0  0
 13 69  1  0  0  0  0
 15 70  1  0  0  0  0
 18 71  1  0  0  0  0
 18 72  1  0  0  0  0
 19 73  1  0  0  0  0
 19 74  1  0  0  0  0
 19 75  1  0  0  0  0
 20 76  1  0  0  0  0
 20 77  1  0  0  0  0
 21 78  1  0  0  0  0
 21 79  1  0  0  0  0
 21 80  1  0  0  0  0
 26 81  1  0  0  0  0
 31 82  1  0  0  0  0
 38 83  1  0  0  0  0
 38 84  1  0  0  0  0
 39 85  1  0  0  0  0
 39 86  1  0  0  0  0
 39 87  1  0  0  0  0
 40 88  1  0  0  0  0
 40 89  1  0  0  0  0
 41 90  1  0  0  0  0
 41 91  1  0  0  0  0
 41 92  1  0  0  0  0
 42 93  1  0  0  0  0
 44 94  1  0  0  0  0
 48 95  1  0  0  0  0
 53 96  1  0  0  0  0
M  END
