Cz-RH.sdf
  xtb     12202114023D
 energy: -123.060635946949 gnorm: 0.000722070438 xtb: 6.4.1 (unknown)
 72 78  0     0  0            999 V2000
    6.5402   -0.8107    1.8114 C   0  0  0  0  0  0  0  0  0  0  0  0
    5.9831    0.4543    1.7234 C   0  0  0  0  0  0  0  0  0  0  0  0
    4.7387    0.4697    1.1032 C   0  0  0  0  0  0  0  0  0  0  0  0
    4.3114   -0.7769    0.6901 C   0  0  0  0  0  0  0  0  0  0  0  0
    5.4857   -1.9911    1.0843 S   0  0  0  0  0  0  0  0  0  0  0  0
    3.0757   -1.1288    0.0300 C   0  0  0  0  0  0  0  0  0  0  0  0
    2.9618   -2.3654   -0.6327 C   0  0  0  0  0  0  0  0  0  0  0  0
    1.7993   -2.7426   -1.2620 C   0  0  0  0  0  0  0  0  0  0  0  0
    0.7086   -1.8792   -1.2320 C   0  0  0  0  0  0  0  0  0  0  0  0
    0.8163   -0.6318   -0.5634 C   0  0  0  0  0  0  0  0  0  0  0  0
    1.9899   -0.2529    0.0637 C   0  0  0  0  0  0  0  0  0  0  0  0
   -0.3773    0.0407   -0.6581 N   0  0  0  0  0  0  0  0  0  0  0  0
   -0.6831    1.3105   -0.0531 C   0  0  0  0  0  0  0  0  0  0  0  0
   -1.2359    1.1445    1.3613 C   0  0  0  0  0  0  0  0  0  0  0  0
   -1.2693   -0.7518   -1.3363 C   0  0  0  0  0  0  0  0  0  0  0  0
   -0.6275   -1.9538   -1.7328 C   0  0  0  0  0  0  0  0  0  0  0  0
   -1.3383   -2.9095   -2.4521 C   0  0  0  0  0  0  0  0  0  0  0  0
   -2.6583   -2.6719   -2.7568 C   0  0  0  0  0  0  0  0  0  0  0  0
   -3.3043   -1.4886   -2.3494 C   0  0  0  0  0  0  0  0  0  0  0  0
   -2.5990   -0.5207   -1.6342 C   0  0  0  0  0  0  0  0  0  0  0  0
   -4.7030   -1.2784   -2.6391 C   0  0  0  0  0  0  0  0  0  0  0  0
   -5.5137   -1.9372   -3.5417 C   0  0  0  0  0  0  0  0  0  0  0  0
   -6.8287   -1.4832   -3.5440 C   0  0  0  0  0  0  0  0  0  0  0  0
   -7.0653   -0.4670   -2.6330 C   0  0  0  0  0  0  0  0  0  0  0  0
   -5.6023   -0.0701   -1.7764 S   0  0  0  0  0  0  0  0  0  0  0  0
   -8.2980    0.1704   -2.3870 C   0  0  0  0  0  0  0  0  0  0  0  0
   -8.5634    1.1407   -1.4760 C   0  0  0  0  0  0  0  0  0  0  0  0
   -7.4362    1.8789   -0.3639 S   0  0  0  0  0  0  0  0  0  0  0  0
   -8.7060    2.8866    0.3291 C   0  0  0  0  0  0  0  0  0  0  0  0
   -9.8917    2.6426   -0.2792 N   0  0  0  0  0  0  0  0  0  0  0  0
   -9.9022    1.6987   -1.2951 C   0  0  0  0  0  0  0  0  0  0  0  0
   -8.4555    3.9460    1.5437 S   0  0  0  0  0  0  0  0  0  0  0  0
  -11.1053    3.3481    0.0850 C   0  0  0  0  0  0  0  0  0  0  0  0
  -11.1782    4.7109   -0.5917 C   0  0  0  0  0  0  0  0  0  0  0  0
  -10.8962    1.3928   -1.9151 O   0  0  0  0  0  0  0  0  0  0  0  0
    7.7748   -1.1344    2.4097 C   0  0  0  0  0  0  0  0  0  0  0  0
    8.3399   -2.3594    2.5514 C   0  0  0  0  0  0  0  0  0  0  0  0
    9.6269   -2.5475    3.2197 C   0  0  0  0  0  0  0  0  0  0  0  0
    9.9601   -3.8924    3.2406 N   0  0  0  0  0  0  0  0  0  0  0  0
    9.0863   -4.7573    2.6695 C   0  0  0  0  0  0  0  0  0  0  0  0
    7.6948   -3.8923    2.0178 S   0  0  0  0  0  0  0  0  0  0  0  0
    9.2734   -6.3744    2.5714 S   0  0  0  0  0  0  0  0  0  0  0  0
   11.1777   -4.3393    3.8893 C   0  0  0  0  0  0  0  0  0  0  0  0
   10.9047   -4.7990    5.3161 C   0  0  0  0  0  0  0  0  0  0  0  0
   10.3230   -1.6762    3.6916 O   0  0  0  0  0  0  0  0  0  0  0  0
    6.4768    1.3302    2.1055 H   0  0  0  0  0  0  0  0  0  0  0  0
    4.1750    1.3706    0.9408 H   0  0  0  0  0  0  0  0  0  0  0  0
    3.8175   -3.0240   -0.6433 H   0  0  0  0  0  0  0  0  0  0  0  0
    1.7294   -3.6942   -1.7658 H   0  0  0  0  0  0  0  0  0  0  0  0
    2.0618    0.6829    0.5941 H   0  0  0  0  0  0  0  0  0  0  0  0
    0.2294    1.9120   -0.0335 H   0  0  0  0  0  0  0  0  0  0  0  0
   -1.4137    1.8256   -0.6825 H   0  0  0  0  0  0  0  0  0  0  0  0
   -0.5111    0.6363    1.9932 H   0  0  0  0  0  0  0  0  0  0  0  0
   -1.4572    2.1168    1.7927 H   0  0  0  0  0  0  0  0  0  0  0  0
   -2.1497    0.5556    1.3418 H   0  0  0  0  0  0  0  0  0  0  0  0
   -0.8605   -3.8274   -2.7583 H   0  0  0  0  0  0  0  0  0  0  0  0
   -3.2204   -3.4171   -3.2964 H   0  0  0  0  0  0  0  0  0  0  0  0
   -3.0989    0.3853   -1.3258 H   0  0  0  0  0  0  0  0  0  0  0  0
   -5.1590   -2.7143   -4.1941 H   0  0  0  0  0  0  0  0  0  0  0  0
   -7.6000   -1.8757   -4.1828 H   0  0  0  0  0  0  0  0  0  0  0  0
   -9.1422   -0.1570   -2.9827 H   0  0  0  0  0  0  0  0  0  0  0  0
  -11.9364    2.7162   -0.2374 H   0  0  0  0  0  0  0  0  0  0  0  0
  -11.1181    3.4610    1.1719 H   0  0  0  0  0  0  0  0  0  0  0  0
  -10.3458    5.3350   -0.2754 H   0  0  0  0  0  0  0  0  0  0  0  0
  -12.1066    5.2026   -0.3167 H   0  0  0  0  0  0  0  0  0  0  0  0
  -11.1484    4.5972   -1.6729 H   0  0  0  0  0  0  0  0  0  0  0  0
    8.3449   -0.3082    2.8195 H   0  0  0  0  0  0  0  0  0  0  0  0
   11.5967   -5.1571    3.2980 H   0  0  0  0  0  0  0  0  0  0  0  0
   11.8590   -3.4849    3.8867 H   0  0  0  0  0  0  0  0  0  0  0  0
   10.4785   -3.9857    5.8992 H   0  0  0  0  0  0  0  0  0  0  0  0
   11.8346   -5.1129    5.7808 H   0  0  0  0  0  0  0  0  0  0  0  0
   10.2135   -5.6387    5.3165 H   0  0  0  0  0  0  0  0  0  0  0  0
  1  2  2  0  0  0  0
  2  3  1  0  0  0  0
  3  4  2  0  0  0  0
  4  5  1  0  0  0  0
  1  5  1  0  0  0  0
  4  6  1  0  0  0  0
  6  7  2  0  0  0  0
  7  8  1  0  0  0  0
  8  9  2  0  0  0  0
  9 10  1  0  0  0  0
 10 11  2  0  0  0  0
  6 11  1  0  0  0  0
 10 12  1  0  0  0  0
 12 13  1  0  0  0  0
 13 14  1  0  0  0  0
 12 15  1  0  0  0  0
 15 16  2  0  0  0  0
  9 16  1  0  0  0  0
 16 17  1  0  0  0  0
 17 18  2  0  0  0  0
 18 19  1  0  0  0  0
 19 20  2  0  0  0  0
 15 20  1  0  0  0  0
 19 21  1  0  0  0  0
 21 22  2  0  0  0  0
 22 23  1  0  0  0  0
 23 24  2  0  0  0  0
 24 25  1  0  0  0  0
 21 25  1  0  0  0  0
 24 26  1  0  0  0  0
 26 27  2  0  0  0  0
 27 28  1  0  0  0  0
 28 29  1  0  0  0  0
 29 30  1  0  0  0  0
 30 31  1  0  0  0  0
 31 27  1  0  0  0  0
 29 32  2  0  0  0  0
 30 33  1  0  0  0  0
 33 34  1  0  0  0  0
 31 35  2  0  0  0  0
  1 36  1  0  0  0  0
 36 37  2  0  0  0  0
 37 38  1  0  0  0  0
 38 39  1  0  0  0  0
 39 40  1  0  0  0  0
 40 41  1  0  0  0  0
 41 37  1  0  0  0  0
 40 42  2  0  0  0  0
 39 43  1  0  0  0  0
 43 44  1  0  0  0  0
 38 45  2  0  0  0  0
  2 46  1  0  0  0  0
  3 47  1  0  0  0  0
  7 48  1  0  0  0  0
  8 49  1  0  0  0  0
 11 50  1  0  0  0  0
 13 51  1  0  0  0  0
 13 52  1  0  0  0  0
 14 53  1  0  0  0  0
 14 54  1  0  0  0  0
 14 55  1  0  0  0  0
 17 56  1  0  0  0  0
 18 57  1  0  0  0  0
 20 58  1  0  0  0  0
 22 59  1  0  0  0  0
 23 60  1  0  0  0  0
 26 61  1  0  0  0  0
 33 62  1  0  0  0  0
 33 63  1  0  0  0  0
 34 64  1  0  0  0  0
 34 65  1  0  0  0  0
 34 66  1  0  0  0  0
 36 67  1  0  0  0  0
 43 68  1  0  0  0  0
 43 69  1  0  0  0  0
 44 70  1  0  0  0  0
 44 71  1  0  0  0  0
 44 72  1  0  0  0  0
M  END
