DTBT_TDPP2.sdf
  xtb     12202114183D
 energy: -182.083828889297 gnorm: 0.000219943993 xtb: 6.4.1 (unknown)
103114  0     0  0            999 V2000
    0.2075    0.7720   -0.2379 C   0  0  0  0  0  0  0  0  0  0  0  0
   -0.3826   -0.3150    0.3951 C   0  0  0  0  0  0  0  0  0  0  0  0
   -0.1521   -1.6270   -0.0013 C   0  0  0  0  0  0  0  0  0  0  0  0
    0.6782   -1.9747   -1.0603 C   0  0  0  0  0  0  0  0  0  0  0  0
    1.3100   -0.8954   -1.7348 C   0  0  0  0  0  0  0  0  0  0  0  0
    1.0734    0.4607   -1.3174 C   0  0  0  0  0  0  0  0  0  0  0  0
    2.1513   -0.9500   -2.7662 N   0  0  0  0  0  0  0  0  0  0  0  0
    2.5969    0.5429   -3.1665 S   0  0  0  0  0  0  0  0  0  0  0  0
    1.7474    1.3370   -2.0563 N   0  0  0  0  0  0  0  0  0  0  0  0
    0.8814   -3.3366   -1.4486 C   0  0  0  0  0  0  0  0  0  0  0  0
   -0.0229    2.1320    0.1417 C   0  0  0  0  0  0  0  0  0  0  0  0
    0.2393    5.9970    0.1621 C   0  0  0  0  0  0  0  0  0  0  0  0
    1.1165    6.6148   -0.7090 C   0  0  0  0  0  0  0  0  0  0  0  0
    1.1164    7.9999   -0.6095 C   0  0  0  0  0  0  0  0  0  0  0  0
    0.2326    8.4917    0.3397 C   0  0  0  0  0  0  0  0  0  0  0  0
   -0.6032    7.1719    1.1229 S   0  0  0  0  0  0  0  0  0  0  0  0
    0.0512    9.8665    0.6304 C   0  0  0  0  0  0  0  0  0  0  0  0
    0.7635   10.9194    0.0560 C   0  0  0  0  0  0  0  0  0  0  0  0
    0.3023   12.1372    0.6267 C   0  0  0  0  0  0  0  0  0  0  0  0
   -0.7269   11.8229    1.5766 C   0  0  0  0  0  0  0  0  0  0  0  0
   -0.8289   10.4190    1.5356 N   0  0  0  0  0  0  0  0  0  0  0  0
    1.8011   11.2516   -0.8820 C   0  0  0  0  0  0  0  0  0  0  0  0
    1.9106   12.6573   -0.8147 N   0  0  0  0  0  0  0  0  0  0  0  0
    1.0140   13.1984    0.0812 C   0  0  0  0  0  0  0  0  0  0  0  0
   -1.8386    9.7610    2.3269 C   0  0  0  0  0  0  0  0  0  0  0  0
   -3.0903    9.4531    1.5092 C   0  0  0  0  0  0  0  0  0  0  0  0
   -1.4084   12.5208    2.3053 O   0  0  0  0  0  0  0  0  0  0  0  0
    2.4996   10.5748   -1.6159 O   0  0  0  0  0  0  0  0  0  0  0  0
    0.8396   14.5707    0.4207 C   0  0  0  0  0  0  0  0  0  0  0  0
   -0.3924   14.9596    1.6023 S   0  0  0  0  0  0  0  0  0  0  0  0
   -0.0208   16.6227    1.4879 C   0  0  0  0  0  0  0  0  0  0  0  0
    0.9854   16.8811    0.6038 C   0  0  0  0  0  0  0  0  0  0  0  0
    1.4761   15.7202   -0.0053 C   0  0  0  0  0  0  0  0  0  0  0  0
    2.8410   13.3307   -1.6859 C   0  0  0  0  0  0  0  0  0  0  0  0
    2.1448   13.9449   -2.8983 C   0  0  0  0  0  0  0  0  0  0  0  0
    0.5901   -7.2115   -1.4238 C   0  0  0  0  0  0  0  0  0  0  0  0
   -0.3879   -7.7685   -0.1049 S   0  0  0  0  0  0  0  0  0  0  0  0
   -0.1803   -9.4355   -0.5795 C   0  0  0  0  0  0  0  0  0  0  0  0
    0.6188   -9.5122   -1.7108 C   0  0  0  0  0  0  0  0  0  0  0  0
    1.0470   -8.2772   -2.1789 C   0  0  0  0  0  0  0  0  0  0  0  0
   -0.7373  -10.5556    0.0861 C   0  0  0  0  0  0  0  0  0  0  0  0
   -0.5619  -11.8893   -0.2825 C   0  0  0  0  0  0  0  0  0  0  0  0
   -1.2676  -12.7070    0.6418 C   0  0  0  0  0  0  0  0  0  0  0  0
   -1.8932  -11.8494    1.6085 C   0  0  0  0  0  0  0  0  0  0  0  0
   -1.5269  -10.5474    1.2151 N   0  0  0  0  0  0  0  0  0  0  0  0
    0.0685  -12.7634   -1.2338 C   0  0  0  0  0  0  0  0  0  0  0  0
   -0.2918  -14.0640   -0.8217 N   0  0  0  0  0  0  0  0  0  0  0  0
   -1.0971  -14.0420    0.2966 C   0  0  0  0  0  0  0  0  0  0  0  0
   -2.0426   -9.4167    1.9462 C   0  0  0  0  0  0  0  0  0  0  0  0
   -3.2875   -8.8309    1.2852 C   0  0  0  0  0  0  0  0  0  0  0  0
   -2.5862  -12.0826    2.5817 O   0  0  0  0  0  0  0  0  0  0  0  0
    0.7773  -12.5562   -2.2032 O   0  0  0  0  0  0  0  0  0  0  0  0
   -1.6494  -15.1530    0.9961 C   0  0  0  0  0  0  0  0  0  0  0  0
   -2.6422  -14.8122    2.3972 S   0  0  0  0  0  0  0  0  0  0  0  0
   -2.9001  -16.4801    2.6586 C   0  0  0  0  0  0  0  0  0  0  0  0
   -2.2692  -17.2644    1.7377 C   0  0  0  0  0  0  0  0  0  0  0  0
   -1.5590  -16.5162    0.7917 C   0  0  0  0  0  0  0  0  0  0  0  0
    0.1415  -15.1923   -1.6074 C   0  0  0  0  0  0  0  0  0  0  0  0
   -0.9650  -15.7054   -2.5262 C   0  0  0  0  0  0  0  0  0  0  0  0
   -0.8651    2.6171    1.1243 C   0  0  0  0  0  0  0  0  0  0  0  0
   -0.8589    4.0043    1.2267 C   0  0  0  0  0  0  0  0  0  0  0  0
   -0.0064    4.6109    0.3253 C   0  0  0  0  0  0  0  0  0  0  0  0
    0.7964    3.4301   -0.6708 S   0  0  0  0  0  0  0  0  0  0  0  0
    0.1313   -4.6366   -0.5641 S   0  0  0  0  0  0  0  0  0  0  0  0
    0.8336   -5.8269   -1.6181 C   0  0  0  0  0  0  0  0  0  0  0  0
    1.6019   -5.2224   -2.5941 C   0  0  0  0  0  0  0  0  0  0  0  0
    1.6282   -3.8328   -2.4967 C   0  0  0  0  0  0  0  0  0  0  0  0
   -1.0465   -0.1432    1.2274 H   0  0  0  0  0  0  0  0  0  0  0  0
   -0.6473   -2.4211    0.5392 H   0  0  0  0  0  0  0  0  0  0  0  0
    1.7328    6.0566   -1.3909 H   0  0  0  0  0  0  0  0  0  0  0  0
    1.7381    8.6468   -1.2028 H   0  0  0  0  0  0  0  0  0  0  0  0
   -2.0922   10.4665    3.1243 H   0  0  0  0  0  0  0  0  0  0  0  0
   -1.4296    8.8527    2.7752 H   0  0  0  0  0  0  0  0  0  0  0  0
   -2.8611    8.7901    0.6785 H   0  0  0  0  0  0  0  0  0  0  0  0
   -3.5079   10.3765    1.1149 H   0  0  0  0  0  0  0  0  0  0  0  0
   -3.8333    8.9753    2.1411 H   0  0  0  0  0  0  0  0  0  0  0  0
   -0.5659   17.3302    2.0814 H   0  0  0  0  0  0  0  0  0  0  0  0
    1.3620   17.8664    0.3941 H   0  0  0  0  0  0  0  0  0  0  0  0
    2.2679   15.7482   -0.7282 H   0  0  0  0  0  0  0  0  0  0  0  0
    3.4026   14.0775   -1.1200 H   0  0  0  0  0  0  0  0  0  0  0  0
    3.5374   12.5568   -2.0241 H   0  0  0  0  0  0  0  0  0  0  0  0
    1.6866   13.1592   -3.4938 H   0  0  0  0  0  0  0  0  0  0  0  0
    2.8697   14.4699   -3.5147 H   0  0  0  0  0  0  0  0  0  0  0  0
    1.3685   14.6429   -2.5934 H   0  0  0  0  0  0  0  0  0  0  0  0
    0.8736  -10.4509   -2.1702 H   0  0  0  0  0  0  0  0  0  0  0  0
    1.6700   -8.1536   -3.0454 H   0  0  0  0  0  0  0  0  0  0  0  0
   -1.2647   -8.6580    2.0587 H   0  0  0  0  0  0  0  0  0  0  0  0
   -2.3072   -9.8018    2.9359 H   0  0  0  0  0  0  0  0  0  0  0  0
   -4.0668   -9.5875    1.2347 H   0  0  0  0  0  0  0  0  0  0  0  0
   -3.0694   -8.4852    0.2777 H   0  0  0  0  0  0  0  0  0  0  0  0
   -3.6521   -7.9911    1.8695 H   0  0  0  0  0  0  0  0  0  0  0  0
   -3.5076  -16.8007    3.4821 H   0  0  0  0  0  0  0  0  0  0  0  0
   -2.3115  -18.3391    1.7346 H   0  0  0  0  0  0  0  0  0  0  0  0
   -1.0087  -16.9797   -0.0037 H   0  0  0  0  0  0  0  0  0  0  0  0
    0.9722  -14.8224   -2.2169 H   0  0  0  0  0  0  0  0  0  0  0  0
    0.5187  -15.9781   -0.9491 H   0  0  0  0  0  0  0  0  0  0  0  0
   -1.8453  -15.9959   -1.9573 H   0  0  0  0  0  0  0  0  0  0  0  0
   -1.2501  -14.9237   -3.2260 H   0  0  0  0  0  0  0  0  0  0  0  0
   -0.6094  -16.5635   -3.0901 H   0  0  0  0  0  0  0  0  0  0  0  0
   -1.4710    1.9849    1.7475 H   0  0  0  0  0  0  0  0  0  0  0  0
   -1.4510    4.5611    1.9319 H   0  0  0  0  0  0  0  0  0  0  0  0
    2.1262   -5.7765   -3.3511 H   0  0  0  0  0  0  0  0  0  0  0  0
    2.1706   -3.1877   -3.1629 H   0  0  0  0  0  0  0  0  0  0  0  0
  1  2  2  0  0  0  0
  2  3  1  0  0  0  0
  3  4  2  0  0  0  0
  4  5  1  0  0  0  0
  5  6  1  0  0  0  0
  6  1  1  0  0  0  0
  5  7  2  0  0  0  0
  7  8  1  0  0  0  0
  8  9  1  0  0  0  0
  9  6  2  0  0  0  0
  4 10  1  0  0  0  0
 11  1  1  0  0  0  0
 12 13  2  0  0  0  0
 13 14  1  0  0  0  0
 14 15  2  0  0  0  0
 15 16  1  0  0  0  0
 16 12  1  0  0  0  0
 17 15  1  0  0  0  0
 17 18  2  0  0  0  0
 18 19  1  0  0  0  0
 19 20  1  0  0  0  0
 20 21  1  0  0  0  0
 21 17  1  0  0  0  0
 18 22  1  0  0  0  0
 22 23  1  0  0  0  0
 23 24  1  0  0  0  0
 24 19  2  0  0  0  0
 21 25  1  0  0  0  0
 25 26  1  0  0  0  0
 20 27  2  0  0  0  0
 22 28  2  0  0  0  0
 24 29  1  0  0  0  0
 29 30  1  0  0  0  0
 30 31  1  0  0  0  0
 31 32  2  0  0  0  0
 32 33  1  0  0  0  0
 33 29  2  0  0  0  0
 23 34  1  0  0  0  0
 34 35  1  0  0  0  0
 36 37  1  0  0  0  0
 37 38  1  0  0  0  0
 38 39  2  0  0  0  0
 39 40  1  0  0  0  0
 40 36  2  0  0  0  0
 41 42  2  0  0  0  0
 42 43  1  0  0  0  0
 43 44  1  0  0  0  0
 44 45  1  0  0  0  0
 45 41  1  0  0  0  0
 42 46  1  0  0  0  0
 46 47  1  0  0  0  0
 47 48  1  0  0  0  0
 48 43  2  0  0  0  0
 45 49  1  0  0  0  0
 49 50  1  0  0  0  0
 44 51  2  0  0  0  0
 46 52  2  0  0  0  0
 48 53  1  0  0  0  0
 53 54  1  0  0  0  0
 54 55  1  0  0  0  0
 55 56  2  0  0  0  0
 56 57  1  0  0  0  0
 57 53  2  0  0  0  0
 47 58  1  0  0  0  0
 58 59  1  0  0  0  0
 38 41  1  0  0  0  0
 11 60  2  0  0  0  0
 60 61  1  0  0  0  0
 61 62  2  0  0  0  0
 62 63  1  0  0  0  0
 63 11  1  0  0  0  0
 62 12  1  0  0  0  0
 10 64  1  0  0  0  0
 64 65  1  0  0  0  0
 65 66  2  0  0  0  0
 66 67  1  0  0  0  0
 67 10  2  0  0  0  0
 65 36  1  0  0  0  0
  2 68  1  0  0  0  0
  3 69  1  0  0  0  0
 13 70  1  0  0  0  0
 14 71  1  0  0  0  0
 25 72  1  0  0  0  0
 25 73  1  0  0  0  0
 26 74  1  0  0  0  0
 26 75  1  0  0  0  0
 26 76  1  0  0  0  0
 31 77  1  0  0  0  0
 32 78  1  0  0  0  0
 33 79  1  0  0  0  0
 34 80  1  0  0  0  0
 34 81  1  0  0  0  0
 35 82  1  0  0  0  0
 35 83  1  0  0  0  0
 35 84  1  0  0  0  0
 39 85  1  0  0  0  0
 40 86  1  0  0  0  0
 49 87  1  0  0  0  0
 49 88  1  0  0  0  0
 50 89  1  0  0  0  0
 50 90  1  0  0  0  0
 50 91  1  0  0  0  0
 55 92  1  0  0  0  0
 56 93  1  0  0  0  0
 57 94  1  0  0  0  0
 58 95  1  0  0  0  0
 58 96  1  0  0  0  0
 59 97  1  0  0  0  0
 59 98  1  0  0  0  0
 59 99  1  0  0  0  0
 60100  1  0  0  0  0
 61101  1  0  0  0  0
 66102  1  0  0  0  0
 67103  1  0  0  0  0
M  END
