SCF done       -175.814611683389          0.000569084702
 OpenBabel12282109493D

 95103  0  0  0  0  0  0  0  0999 V2000
    0.7287    0.0852    1.2110 C   0  0  0  0  0  0  0  0  0  0  0  0
    1.3691    0.6474    0.0971 C   0  0  0  0  0  0  0  0  0  0  0  0
    0.2434    0.9624   -1.1817 S   0  0  0  0  0  0  0  0  0  0  0  0
   -1.0908    0.3287   -0.2402 C   0  0  0  0  0  0  0  0  0  0  0  0
   -0.6342   -0.0846    1.0045 C   0  0  0  0  0  0  0  0  0  0  0  0
   -2.3513    0.3309   -0.8555 C   0  0  0  0  0  0  0  0  0  0  0  0
   -3.5820   -0.1144   -0.4352 C   0  0  0  0  0  0  0  0  0  0  0  0
   -4.7824   -0.0257   -1.2500 C   0  0  0  0  0  0  0  0  0  0  0  0
   -4.9109    0.5064   -2.5070 C   0  0  0  0  0  0  0  0  0  0  0  0
   -6.1254    0.5483   -3.2263 C   0  0  0  0  0  0  0  0  0  0  0  0
   -7.0736    0.6161   -3.8697 N   0  0  0  0  0  0  0  0  0  0  0  0
   -3.8919    1.0911   -3.2900 C   0  0  0  0  0  0  0  0  0  0  0  0
   -3.1424    1.5839   -4.0079 N   0  0  0  0  0  0  0  0  0  0  0  0
   -5.8834   -0.6170   -0.4882 C   0  0  0  0  0  0  0  0  0  0  0  0
   -7.2242   -0.7956   -0.7932 C   0  0  0  0  0  0  0  0  0  0  0  0
   -8.0335   -1.4027    0.1555 C   0  0  0  0  0  0  0  0  0  0  0  0
   -9.3298   -1.5845   -0.1215 F   0  0  0  0  0  0  0  0  0  0  0  0
   -7.5316   -1.8271    1.3859 C   0  0  0  0  0  0  0  0  0  0  0  0
   -8.3499   -2.4085    2.2720 F   0  0  0  0  0  0  0  0  0  0  0  0
   -6.1935   -1.6525    1.6978 C   0  0  0  0  0  0  0  0  0  0  0  0
   -5.3893   -1.0487    0.7517 C   0  0  0  0  0  0  0  0  0  0  0  0
   -3.9419   -0.7555    0.8443 C   0  0  0  0  0  0  0  0  0  0  0  0
   -3.2420   -1.0144    1.8023 O   0  0  0  0  0  0  0  0  0  0  0  0
    9.9157    3.7922   -4.5224 C   0  0  0  0  0  0  0  0  0  0  0  0
    8.5561    3.8543   -4.1978 C   0  0  0  0  0  0  0  0  0  0  0  0
    7.6994    4.8869   -5.2960 S   0  0  0  0  0  0  0  0  0  0  0  0
    9.1544    5.2275   -6.2081 C   0  0  0  0  0  0  0  0  0  0  0  0
   10.2280    4.5544   -5.6426 C   0  0  0  0  0  0  0  0  0  0  0  0
    9.0401    6.1195   -7.2861 C   0  0  0  0  0  0  0  0  0  0  0  0
    9.9429    6.4966   -8.2497 C   0  0  0  0  0  0  0  0  0  0  0  0
    9.6592    7.5043   -9.2566 C   0  0  0  0  0  0  0  0  0  0  0  0
    8.6490    8.4300   -9.2396 C   0  0  0  0  0  0  0  0  0  0  0  0
    8.4530    9.3998  -10.2462 C   0  0  0  0  0  0  0  0  0  0  0  0
    8.2385   10.2089  -11.0313 N   0  0  0  0  0  0  0  0  0  0  0  0
    7.6977    8.5952   -8.2093 C   0  0  0  0  0  0  0  0  0  0  0  0
    6.9062    8.8187   -7.4079 N   0  0  0  0  0  0  0  0  0  0  0  0
   10.7131    7.4345  -10.2675 C   0  0  0  0  0  0  0  0  0  0  0  0
   10.8843    8.1085  -11.4667 C   0  0  0  0  0  0  0  0  0  0  0  0
   12.0154    7.8234  -12.2172 C   0  0  0  0  0  0  0  0  0  0  0  0
   12.1972    8.4582  -13.3807 F   0  0  0  0  0  0  0  0  0  0  0  0
   12.9635    6.8927  -11.7910 C   0  0  0  0  0  0  0  0  0  0  0  0
   14.0419    6.6512  -12.5467 F   0  0  0  0  0  0  0  0  0  0  0  0
   12.7978    6.2145  -10.5945 C   0  0  0  0  0  0  0  0  0  0  0  0
   11.6691    6.4956   -9.8503 C   0  0  0  0  0  0  0  0  0  0  0  0
   11.2592    5.9013   -8.5571 C   0  0  0  0  0  0  0  0  0  0  0  0
   11.8997    5.0830   -7.9308 O   0  0  0  0  0  0  0  0  0  0  0  0
    1.4266   -0.2752    2.4880 C   0  0  0  0  0  0  0  0  0  0  0  0
    0.4814   -0.6773    3.6144 C   0  0  0  0  0  0  0  0  0  0  0  0
    2.7370    0.9665   -0.1131 C   0  0  0  0  0  0  0  0  0  0  0  0
    3.1766    1.8616   -1.5538 S   0  0  0  0  0  0  0  0  0  0  0  0
    4.8378    1.7983   -1.1185 C   0  0  0  0  0  0  0  0  0  0  0  0
    5.0475    1.1225    0.0803 C   0  0  0  0  0  0  0  0  0  0  0  0
    3.8616    0.6613    0.6392 C   0  0  0  0  0  0  0  0  0  0  0  0
    5.9723    2.3004   -1.7975 C   0  0  0  0  0  0  0  0  0  0  0  0
    7.2225    2.0729   -1.2293 C   0  0  0  0  0  0  0  0  0  0  0  0
    6.9808    1.0966    0.4705 Ge  0  0  0  0  0  0  0  0  0  0  0  0
    6.0744    3.1625   -3.2814 S   0  0  0  0  0  0  0  0  0  0  0  0
    7.8210    3.2122   -3.1630 C   0  0  0  0  0  0  0  0  0  0  0  0
    8.2549    2.5849   -2.0061 C   0  0  0  0  0  0  0  0  0  0  0  0
   10.9521    2.9596   -3.8328 C   0  0  0  0  0  0  0  0  0  0  0  0
   10.7449    1.4697   -4.1106 C   0  0  0  0  0  0  0  0  0  0  0  0
    7.4487    2.2269    2.0615 C   0  0  0  0  0  0  0  0  0  0  0  0
    7.7317   -0.7677    0.4581 C   0  0  0  0  0  0  0  0  0  0  0  0
    6.9695    1.6349    3.3776 C   0  0  0  0  0  0  0  0  0  0  0  0
    6.8651   -1.7510    1.2311 C   0  0  0  0  0  0  0  0  0  0  0  0
   -1.3059   -0.4991    1.7315 H   0  0  0  0  0  0  0  0  0  0  0  0
   -2.3270    0.7592   -1.8502 H   0  0  0  0  0  0  0  0  0  0  0  0
   -7.6648   -0.4877   -1.7267 H   0  0  0  0  0  0  0  0  0  0  0  0
   -5.7980   -1.9783    2.6466 H   0  0  0  0  0  0  0  0  0  0  0  0
   11.2191    4.6192   -6.0525 H   0  0  0  0  0  0  0  0  0  0  0  0
    8.0550    6.5653   -7.3647 H   0  0  0  0  0  0  0  0  0  0  0  0
   10.1811    8.8334  -11.8421 H   0  0  0  0  0  0  0  0  0  0  0  0
   13.5266    5.4929  -10.2613 H   0  0  0  0  0  0  0  0  0  0  0  0
    2.1133   -1.1048    2.2906 H   0  0  0  0  0  0  0  0  0  0  0  0
    2.0240    0.5825    2.8113 H   0  0  0  0  0  0  0  0  0  0  0  0
   -0.0758   -1.5734    3.3550 H   0  0  0  0  0  0  0  0  0  0  0  0
    1.0552   -0.8822    4.5154 H   0  0  0  0  0  0  0  0  0  0  0  0
   -0.2230    0.1215    3.8312 H   0  0  0  0  0  0  0  0  0  0  0  0
    3.8310    0.1005    1.5537 H   0  0  0  0  0  0  0  0  0  0  0  0
    9.2865    2.5159   -1.7174 H   0  0  0  0  0  0  0  0  0  0  0  0
   11.9319    3.2575   -4.2088 H   0  0  0  0  0  0  0  0  0  0  0  0
   10.9404    3.1489   -2.7583 H   0  0  0  0  0  0  0  0  0  0  0  0
   10.8107    1.2794   -5.1790 H   0  0  0  0  0  0  0  0  0  0  0  0
   11.5105    0.8844   -3.6077 H   0  0  0  0  0  0  0  0  0  0  0  0
    9.7691    1.1398   -3.7622 H   0  0  0  0  0  0  0  0  0  0  0  0
    8.5302    2.3605    2.0809 H   0  0  0  0  0  0  0  0  0  0  0  0
    7.0009    3.2087    1.9066 H   0  0  0  0  0  0  0  0  0  0  0  0
    7.8192   -1.0874   -0.5799 H   0  0  0  0  0  0  0  0  0  0  0  0
    8.7366   -0.7381    0.8777 H   0  0  0  0  0  0  0  0  0  0  0  0
    7.4452    0.6748    3.5657 H   0  0  0  0  0  0  0  0  0  0  0  0
    7.2119    2.3009    4.2036 H   0  0  0  0  0  0  0  0  0  0  0  0
    5.8916    1.4882    3.3617 H   0  0  0  0  0  0  0  0  0  0  0  0
    5.8694   -1.8041    0.7959 H   0  0  0  0  0  0  0  0  0  0  0  0
    7.3048   -2.7463    1.2029 H   0  0  0  0  0  0  0  0  0  0  0  0
    6.7675   -1.4510    2.2719 H   0  0  0  0  0  0  0  0  0  0  0  0
  1 47  1  0  0  0  0
  2  1  2  0  0  0  0
  3  4  1  0  0  0  0
  3  2  1  0  0  0  0
  4  5  2  0  0  0  0
  5  1  1  0  0  0  0
  5 66  1  0  0  0  0
  6  7  2  0  0  0  0
  6  4  1  0  0  0  0
  7 22  1  0  0  0  0
  8 14  1  0  0  0  0
  8  7  1  0  0  0  0
  9  8  2  0  0  0  0
 10  9  1  0  0  0  0
 11 10  3  0  0  0  0
 12  9  1  0  0  0  0
 13 12  3  0  0  0  0
 14 21  1  0  0  0  0
 15 14  2  0  0  0  0
 15 16  1  0  0  0  0
 16 18  2  0  0  0  0
 17 16  1  0  0  0  0
 18 20  1  0  0  0  0
 18 19  1  0  0  0  0
 20 69  1  0  0  0  0
 21 22  1  0  0  0  0
 21 20  2  0  0  0  0
 22 23  2  0  0  0  0
 24 25  2  0  0  0  0
 24 60  1  0  0  0  0
 25 58  1  0  0  0  0
 26 25  1  0  0  0  0
 27 28  2  0  0  0  0
 27 26  1  0  0  0  0
 28 24  1  0  0  0  0
 29 27  1  0  0  0  0
 30 29  2  0  0  0  0
 31 32  2  0  0  0  0
 31 30  1  0  0  0  0
 32 35  1  0  0  0  0
 33 32  1  0  0  0  0
 34 33  3  0  0  0  0
 35 36  3  0  0  0  0
 37 44  1  0  0  0  0
 37 31  1  0  0  0  0
 38 37  2  0  0  0  0
 39 41  2  0  0  0  0
 39 38  1  0  0  0  0
 40 39  1  0  0  0  0
 41 43  1  0  0  0  0
 42 41  1  0  0  0  0
 43 73  1  0  0  0  0
 43 44  2  0  0  0  0
 44 45  1  0  0  0  0
 45 30  1  0  0  0  0
 45 46  2  0  0  0  0
 47 75  1  0  0  0  0
 47 48  1  0  0  0  0
 48 78  1  0  0  0  0
 48 77  1  0  0  0  0
 49  2  1  0  0  0  0
 49 53  2  0  0  0  0
 50 51  1  0  0  0  0
 50 49  1  0  0  0  0
 51 52  2  0  0  0  0
 52 56  1  0  0  0  0
 52 53  1  0  0  0  0
 53 79  1  0  0  0  0
 54 55  2  0  0  0  0
 54 51  1  0  0  0  0
 55 56  1  0  0  0  0
 56 62  1  0  0  0  0
 57 58  1  0  0  0  0
 57 54  1  0  0  0  0
 58 59  2  0  0  0  0
 59 80  1  0  0  0  0
 59 55  1  0  0  0  0
 60 82  1  0  0  0  0
 61 60  1  0  0  0  0
 61 85  1  0  0  0  0
 61 84  1  0  0  0  0
 62 86  1  0  0  0  0
 62 64  1  0  0  0  0
 63 56  1  0  0  0  0
 63 89  1  0  0  0  0
 63 65  1  0  0  0  0
 64 90  1  0  0  0  0
 64 91  1  0  0  0  0
 65 95  1  0  0  0  0
 67  6  1  0  0  0  0
 68 15  1  0  0  0  0
 70 28  1  0  0  0  0
 71 29  1  0  0  0  0
 72 38  1  0  0  0  0
 74 47  1  0  0  0  0
 76 48  1  0  0  0  0
 81 60  1  0  0  0  0
 83 61  1  0  0  0  0
 87 62  1  0  0  0  0
 88 63  1  0  0  0  0
 92 64  1  0  0  0  0
 93 65  1  0  0  0  0
 94 65  1  0  0  0  0
M  END
