DTNIC6.mol
  xtb     01102218073D
 energy: -160.174268297943 gnorm: 0.000423554468 xtb: 6.4.1 (unknown)
 98107  0     0  0            999 V2000
    4.9582   -3.3208    5.0515 O   0  0  0  0  0  0  0  0  0  0  0  0
    4.3955   -4.2303    5.6281 C   0  0  0  0  0  0  0  0  0  0  0  0
    5.0274   -5.1455    6.5996 C   0  0  0  0  0  0  0  0  0  0  0  0
    6.3475   -5.1891    7.0027 C   0  0  0  0  0  0  0  0  0  0  0  0
    6.7188   -6.1563    7.9258 C   0  0  0  0  0  0  0  0  0  0  0  0
    5.7816   -7.0515    8.4209 C   0  0  0  0  0  0  0  0  0  0  0  0
    4.4524   -7.0074    8.0206 C   0  0  0  0  0  0  0  0  0  0  0  0
    4.0705   -6.0420    7.1022 C   0  0  0  0  0  0  0  0  0  0  0  0
    2.7781   -5.7298    6.4960 C   0  0  0  0  0  0  0  0  0  0  0  0
    1.5816   -6.2859    6.8677 C   0  0  0  0  0  0  0  0  0  0  0  0
    0.3095   -5.9197    6.3785 C   0  0  0  0  0  0  0  0  0  0  0  0
   -0.7651   -5.6714    6.0566 N   0  0  0  0  0  0  0  0  0  0  0  0
    1.4485   -7.2907    7.8493 C   0  0  0  0  0  0  0  0  0  0  0  0
    1.2647   -8.1100    8.6322 N   0  0  0  0  0  0  0  0  0  0  0  0
    2.9897   -4.6783    5.5158 C   0  0  0  0  0  0  0  0  0  0  0  0
    2.0428   -4.3086    4.5948 C   0  0  0  0  0  0  0  0  0  0  0  0
    2.0434   -3.3073    3.6109 C   0  0  0  0  0  0  0  0  0  0  0  0
    2.9202   -2.2656    3.3201 C   0  0  0  0  0  0  0  0  0  0  0  0
    2.4816   -1.4890    2.2643 C   0  0  0  0  0  0  0  0  0  0  0  0
    2.9979   -0.2956    1.5069 C   0  0  0  0  0  0  0  0  0  0  0  0
    3.2419    0.9126    2.4228 C   0  0  0  0  0  0  0  0  0  0  0  0
    2.0089    1.2842    3.2387 C   0  0  0  0  0  0  0  0  0  0  0  0
    4.2957   -0.7450    0.7926 C   0  0  0  0  0  0  0  0  0  0  0  0
    4.9159    0.2685   -0.1594 C   0  0  0  0  0  0  0  0  0  0  0  0
    1.2735   -1.9189    1.7161 C   0  0  0  0  0  0  0  0  0  0  0  0
    0.6509   -3.2896    2.5214 S   0  0  0  0  0  0  0  0  0  0  0  0
    0.8812   -1.0563    0.6468 C   0  0  0  0  0  0  0  0  0  0  0  0
    1.8621   -0.0643    0.5302 C   0  0  0  0  0  0  0  0  0  0  0  0
    1.6962    0.9792   -0.3761 C   0  0  0  0  0  0  0  0  0  0  0  0
    0.5837    1.0046   -1.1839 C   0  0  0  0  0  0  0  0  0  0  0  0
   -0.3949   -0.0041   -1.1167 C   0  0  0  0  0  0  0  0  0  0  0  0
   -1.5405   -0.0156   -1.9450 C   0  0  0  0  0  0  0  0  0  0  0  0
   -1.9346    0.8692   -2.9959 C   0  0  0  0  0  0  0  0  0  0  0  0
   -1.3311    2.2920   -3.7249 S   0  0  0  0  0  0  0  0  0  0  0  0
   -3.1309    0.4228   -3.5638 C   0  0  0  0  0  0  0  0  0  0  0  0
   -3.6352   -0.7968   -2.8380 C   0  0  0  0  0  0  0  0  0  0  0  0
   -3.8379   -1.9946   -3.7775 C   0  0  0  0  0  0  0  0  0  0  0  0
   -2.5859   -2.3226   -4.5828 C   0  0  0  0  0  0  0  0  0  0  0  0
   -4.9529   -0.3910   -2.1348 C   0  0  0  0  0  0  0  0  0  0  0  0
   -5.5534   -1.4272   -1.1946 C   0  0  0  0  0  0  0  0  0  0  0  0
   -3.5584    1.2277   -4.5949 C   0  0  0  0  0  0  0  0  0  0  0  0
   -2.6950    2.3086   -4.8323 C   0  0  0  0  0  0  0  0  0  0  0  0
   -2.9420    3.2490   -5.8389 C   0  0  0  0  0  0  0  0  0  0  0  0
   -2.2550    4.3847   -6.1912 C   0  0  0  0  0  0  0  0  0  0  0  0
   -2.6189    5.2961   -7.2578 C   0  0  0  0  0  0  0  0  0  0  0  0
   -3.6354    5.1544   -8.1671 C   0  0  0  0  0  0  0  0  0  0  0  0
   -3.9229    6.0863   -9.1867 C   0  0  0  0  0  0  0  0  0  0  0  0
   -4.2162    6.7985  -10.0383 N   0  0  0  0  0  0  0  0  0  0  0  0
   -4.5341    4.0699   -8.2412 C   0  0  0  0  0  0  0  0  0  0  0  0
   -5.3019    3.2257   -8.3770 N   0  0  0  0  0  0  0  0  0  0  0  0
   -1.6766    6.4155   -7.2175 C   0  0  0  0  0  0  0  0  0  0  0  0
   -0.7455    6.1862   -6.1896 C   0  0  0  0  0  0  0  0  0  0  0  0
    0.2705    7.0795   -5.9145 C   0  0  0  0  0  0  0  0  0  0  0  0
    0.3564    8.2310   -6.6847 C   0  0  0  0  0  0  0  0  0  0  0  0
   -0.5590    8.4668   -7.6997 C   0  0  0  0  0  0  0  0  0  0  0  0
   -1.5816    7.5688   -7.9797 C   0  0  0  0  0  0  0  0  0  0  0  0
   -1.0583    4.9087   -5.5236 C   0  0  0  0  0  0  0  0  0  0  0  0
   -0.4384    4.4060   -4.6021 O   0  0  0  0  0  0  0  0  0  0  0  0
   -2.5073   -1.0228   -1.8498 C   0  0  0  0  0  0  0  0  0  0  0  0
   -2.3381   -2.0714   -0.9501 C   0  0  0  0  0  0  0  0  0  0  0  0
   -1.2370   -2.0849   -0.1261 C   0  0  0  0  0  0  0  0  0  0  0  0
   -0.2640   -1.0704   -0.1822 C   0  0  0  0  0  0  0  0  0  0  0  0
    7.0591   -4.4842    6.6008 H   0  0  0  0  0  0  0  0  0  0  0  0
    7.7436   -6.2157    8.2602 H   0  0  0  0  0  0  0  0  0  0  0  0
    6.0886   -7.8018    9.1341 H   0  0  0  0  0  0  0  0  0  0  0  0
    3.7482   -7.7190    8.4191 H   0  0  0  0  0  0  0  0  0  0  0  0
    1.1316   -4.8963    4.5971 H   0  0  0  0  0  0  0  0  0  0  0  0
    3.8250   -2.1097    3.8769 H   0  0  0  0  0  0  0  0  0  0  0  0
    4.0670    0.6748    3.0969 H   0  0  0  0  0  0  0  0  0  0  0  0
    3.5357    1.7683    1.8142 H   0  0  0  0  0  0  0  0  0  0  0  0
    1.7138    0.4646    3.8899 H   0  0  0  0  0  0  0  0  0  0  0  0
    1.1720    1.5221    2.5852 H   0  0  0  0  0  0  0  0  0  0  0  0
    2.2194    2.1529    3.8578 H   0  0  0  0  0  0  0  0  0  0  0  0
    5.0207   -1.0015    1.5680 H   0  0  0  0  0  0  0  0  0  0  0  0
    4.0719   -1.6580    0.2345 H   0  0  0  0  0  0  0  0  0  0  0  0
    5.8435   -0.1380   -0.5566 H   0  0  0  0  0  0  0  0  0  0  0  0
    4.2538    0.4748   -0.9957 H   0  0  0  0  0  0  0  0  0  0  0  0
    5.1493    1.2005    0.3482 H   0  0  0  0  0  0  0  0  0  0  0  0
    2.4217    1.7752   -0.4361 H   0  0  0  0  0  0  0  0  0  0  0  0
    0.4461    1.8137   -1.8854 H   0  0  0  0  0  0  0  0  0  0  0  0
   -4.1195   -2.8675   -3.1877 H   0  0  0  0  0  0  0  0  0  0  0  0
   -4.6600   -1.7668   -4.4590 H   0  0  0  0  0  0  0  0  0  0  0  0
   -2.7694   -3.1814   -5.2240 H   0  0  0  0  0  0  0  0  0  0  0  0
   -1.7542   -2.5575   -3.9220 H   0  0  0  0  0  0  0  0  0  0  0  0
   -2.2981   -1.4823   -5.2105 H   0  0  0  0  0  0  0  0  0  0  0  0
   -4.7625    0.5254   -1.5700 H   0  0  0  0  0  0  0  0  0  0  0  0
   -5.6785   -0.1528   -2.9159 H   0  0  0  0  0  0  0  0  0  0  0  0
   -5.7443   -2.3664   -1.7066 H   0  0  0  0  0  0  0  0  0  0  0  0
   -4.8992   -1.6102   -0.3469 H   0  0  0  0  0  0  0  0  0  0  0  0
   -6.5017   -1.0549   -0.8131 H   0  0  0  0  0  0  0  0  0  0  0  0
   -4.4475    1.0762   -5.1813 H   0  0  0  0  0  0  0  0  0  0  0  0
   -3.8363    3.0279   -6.4094 H   0  0  0  0  0  0  0  0  0  0  0  0
    0.9704    6.8751   -5.1188 H   0  0  0  0  0  0  0  0  0  0  0  0
    1.1394    8.9491   -6.4931 H   0  0  0  0  0  0  0  0  0  0  0  0
   -0.4794    9.3684   -8.2883 H   0  0  0  0  0  0  0  0  0  0  0  0
   -2.2781    7.7816   -8.7737 H   0  0  0  0  0  0  0  0  0  0  0  0
   -3.0522   -2.8786   -0.9043 H   0  0  0  0  0  0  0  0  0  0  0  0
   -1.1014   -2.8945    0.5757 H   0  0  0  0  0  0  0  0  0  0  0  0
  1  2  2  0  0  0  0
  2  3  1  0  0  0  0
  3  4  2  0  0  0  0
  4  5  1  0  0  0  0
  5  6  2  0  0  0  0
  6  7  1  0  0  0  0
  7  8  2  0  0  0  0
  3  8  1  0  0  0  0
  8  9  1  0  0  0  0
  9 10  2  0  0  0  0
 10 11  1  0  0  0  0
 11 12  3  0  0  0  0
 10 13  1  0  0  0  0
 13 14  3  0  0  0  0
  2 15  1  0  0  0  0
  9 15  1  0  0  0  0
 15 16  2  0  0  0  0
 16 17  1  0  0  0  0
 17 18  2  0  0  0  0
 18 19  1  0  0  0  0
 19 20  1  0  0  0  0
 20 21  1  0  0  0  0
 21 22  1  0  0  0  0
 20 23  1  0  0  0  0
 23 24  1  0  0  0  0
 19 25  2  0  0  0  0
 25 26  1  0  0  0  0
 17 26  1  0  0  0  0
 25 27  1  0  0  0  0
 27 28  2  0  0  0  0
 20 28  1  0  0  0  0
 28 29  1  0  0  0  0
 29 30  2  0  0  0  0
 30 31  1  0  0  0  0
 31 32  2  0  0  0  0
 32 33  1  0  0  0  0
 33 34  1  0  0  0  0
 33 35  2  0  0  0  0
 35 36  1  0  0  0  0
 36 37  1  0  0  0  0
 37 38  1  0  0  0  0
 36 39  1  0  0  0  0
 39 40  1  0  0  0  0
 35 41  1  0  0  0  0
 41 42  2  0  0  0  0
 34 42  1  0  0  0  0
 42 43  1  0  0  0  0
 43 44  2  0  0  0  0
 44 45  1  0  0  0  0
 45 46  2  0  0  0  0
 46 47  1  0  0  0  0
 47 48  3  0  0  0  0
 46 49  1  0  0  0  0
 49 50  3  0  0  0  0
 45 51  1  0  0  0  0
 51 52  2  0  0  0  0
 52 53  1  0  0  0  0
 53 54  2  0  0  0  0
 54 55  1  0  0  0  0
 55 56  2  0  0  0  0
 51 56  1  0  0  0  0
 52 57  1  0  0  0  0
 44 57  1  0  0  0  0
 57 58  2  0  0  0  0
 32 59  1  0  0  0  0
 36 59  1  0  0  0  0
 59 60  2  0  0  0  0
 60 61  1  0  0  0  0
 61 62  2  0  0  0  0
 31 62  1  0  0  0  0
 27 62  1  0  0  0  0
  4 63  1  0  0  0  0
  5 64  1  0  0  0  0
  6 65  1  0  0  0  0
  7 66  1  0  0  0  0
 16 67  1  0  0  0  0
 18 68  1  0  0  0  0
 21 69  1  0  0  0  0
 21 70  1  0  0  0  0
 22 71  1  0  0  0  0
 22 72  1  0  0  0  0
 22 73  1  0  0  0  0
 23 74  1  0  0  0  0
 23 75  1  0  0  0  0
 24 76  1  0  0  0  0
 24 77  1  0  0  0  0
 24 78  1  0  0  0  0
 29 79  1  0  0  0  0
 30 80  1  0  0  0  0
 37 81  1  0  0  0  0
 37 82  1  0  0  0  0
 38 83  1  0  0  0  0
 38 84  1  0  0  0  0
 38 85  1  0  0  0  0
 39 86  1  0  0  0  0
 39 87  1  0  0  0  0
 40 88  1  0  0  0  0
 40 89  1  0  0  0  0
 40 90  1  0  0  0  0
 41 91  1  0  0  0  0
 43 92  1  0  0  0  0
 53 93  1  0  0  0  0
 54 94  1  0  0  0  0
 55 95  1  0  0  0  0
 56 96  1  0  0  0  0
 60 97  1  0  0  0  0
 61 98  1  0  0  0  0
M  END
