DTSiC-IC.sdf
  xtb     12202113253D
 energy: -173.353803252859 gnorm: 0.000947038551 xtb: 6.4.1 (unknown)
108118  0     0  0            999 V2000
    9.8458    0.2947    1.8242 C   0  0  0  0  0  0  0  0  0  0  0  0
    9.4667    0.7592    0.7669 O   0  0  0  0  0  0  0  0  0  0  0  0
   11.2457    0.2801    2.2932 C   0  0  0  0  0  0  0  0  0  0  0  0
   12.3644    0.7918    1.6656 C   0  0  0  0  0  0  0  0  0  0  0  0
   13.5892    0.6672    2.3053 C   0  0  0  0  0  0  0  0  0  0  0  0
   13.6743    0.0446    3.5422 C   0  0  0  0  0  0  0  0  0  0  0  0
   12.5509   -0.4723    4.1745 C   0  0  0  0  0  0  0  0  0  0  0  0
   11.3224   -0.3552    3.5426 C   0  0  0  0  0  0  0  0  0  0  0  0
    9.9804   -0.7888    3.9298 C   0  0  0  0  0  0  0  0  0  0  0  0
    9.6935   -1.5078    5.0618 C   0  0  0  0  0  0  0  0  0  0  0  0
   10.6563   -1.9016    6.0158 C   0  0  0  0  0  0  0  0  0  0  0  0
   11.3734   -2.2514    6.8417 N   0  0  0  0  0  0  0  0  0  0  0  0
    8.4294   -1.9921    5.4601 C   0  0  0  0  0  0  0  0  0  0  0  0
    7.4540   -2.4428    5.8683 N   0  0  0  0  0  0  0  0  0  0  0  0
    9.0573   -0.3541    2.8941 C   0  0  0  0  0  0  0  0  0  0  0  0
    7.6973   -0.5120    2.9848 C   0  0  0  0  0  0  0  0  0  0  0  0
    6.6495   -0.1785    2.1109 C   0  0  0  0  0  0  0  0  0  0  0  0
    6.6032    0.3862    0.8408 C   0  0  0  0  0  0  0  0  0  0  0  0
    5.3177    0.5245    0.3426 C   0  0  0  0  0  0  0  0  0  0  0  0
    4.3479    0.0659    1.2307 C   0  0  0  0  0  0  0  0  0  0  0  0
    5.0203   -0.5418    2.6822 S   0  0  0  0  0  0  0  0  0  0  0  0
    2.9689    0.1562    0.8518 C   0  0  0  0  0  0  0  0  0  0  0  0
    2.7820    0.7172   -0.4400 C   0  0  0  0  0  0  0  0  0  0  0  0
    4.4562    1.1833   -1.2028 Si  0  0  0  0  0  4  0  0  0  0  0  0
    4.8916    0.2198   -2.7878 C   0  0  0  0  0  0  0  0  0  0  0  0
    6.3094    0.5055   -3.2718 C   0  0  0  0  0  0  0  0  0  0  0  0
    4.6636    3.0728   -1.3797 C   0  0  0  0  0  0  0  0  0  0  0  0
    4.2389    3.8321   -0.1260 C   0  0  0  0  0  0  0  0  0  0  0  0
    1.5081    0.8770   -0.9330 C   0  0  0  0  0  0  0  0  0  0  0  0
    0.4222    0.4843   -0.1523 C   0  0  0  0  0  0  0  0  0  0  0  0
    0.6295   -0.0764    1.1368 C   0  0  0  0  0  0  0  0  0  0  0  0
    1.9063   -0.2484    1.6470 C   0  0  0  0  0  0  0  0  0  0  0  0
   -0.5838   -0.3632    1.7085 N   0  0  0  0  0  0  0  0  0  0  0  0
   -0.7794   -0.9932    2.9883 C   0  0  0  0  0  0  0  0  0  0  0  0
   -0.7767   -2.5163    2.8724 C   0  0  0  0  0  0  0  0  0  0  0  0
   -1.5753   -0.0284    0.8217 C   0  0  0  0  0  0  0  0  0  0  0  0
   -0.9920    0.5161   -0.3540 C   0  0  0  0  0  0  0  0  0  0  0  0
   -1.7982    0.9533   -1.4039 C   0  0  0  0  0  0  0  0  0  0  0  0
   -3.1646    0.8532   -1.2880 C   0  0  0  0  0  0  0  0  0  0  0  0
   -3.7287    0.3025   -0.1061 C   0  0  0  0  0  0  0  0  0  0  0  0
   -2.9498   -0.1446    0.9516 C   0  0  0  0  0  0  0  0  0  0  0  0
   -5.1610    0.2700   -0.1298 C   0  0  0  0  0  0  0  0  0  0  0  0
   -5.8218    0.7583   -1.2541 C   0  0  0  0  0  0  0  0  0  0  0  0
   -4.5363    1.3600   -2.4977 Si  0  0  0  0  0  4  0  0  0  0  0  0
   -4.6159    3.2494   -2.7589 C   0  0  0  0  0  0  0  0  0  0  0  0
   -5.8458    3.6918   -3.5457 C   0  0  0  0  0  0  0  0  0  0  0  0
   -4.5442    0.3517   -4.1211 C   0  0  0  0  0  0  0  0  0  0  0  0
   -5.9510    0.0185   -4.6127 C   0  0  0  0  0  0  0  0  0  0  0  0
   -7.2000    0.6804   -1.1370 C   0  0  0  0  0  0  0  0  0  0  0  0
   -7.6254    0.1379    0.0708 C   0  0  0  0  0  0  0  0  0  0  0  0
   -6.2393   -0.2920    1.0743 S   0  0  0  0  0  0  0  0  0  0  0  0
   -8.8906   -0.1227    0.6220 C   0  0  0  0  0  0  0  0  0  0  0  0
  -10.1612    0.1174    0.1624 C   0  0  0  0  0  0  0  0  0  0  0  0
  -11.3579   -0.2349    0.9092 C   0  0  0  0  0  0  0  0  0  0  0  0
  -11.4375   -0.9326    2.0872 C   0  0  0  0  0  0  0  0  0  0  0  0
  -10.3644   -1.4782    2.8235 C   0  0  0  0  0  0  0  0  0  0  0  0
   -9.5693   -1.9654    3.4956 N   0  0  0  0  0  0  0  0  0  0  0  0
  -12.6468   -1.2343    2.7495 C   0  0  0  0  0  0  0  0  0  0  0  0
  -13.5825   -1.5151    3.3531 N   0  0  0  0  0  0  0  0  0  0  0  0
  -12.5127    0.2655    0.1643 C   0  0  0  0  0  0  0  0  0  0  0  0
  -13.8724    0.2343    0.4337 C   0  0  0  0  0  0  0  0  0  0  0  0
  -14.7445    0.8009   -0.4867 C   0  0  0  0  0  0  0  0  0  0  0  0
  -14.2848    1.3883   -1.6564 C   0  0  0  0  0  0  0  0  0  0  0  0
  -12.9261    1.4270   -1.9347 C   0  0  0  0  0  0  0  0  0  0  0  0
  -12.0569    0.8664   -1.0196 C   0  0  0  0  0  0  0  0  0  0  0  0
  -10.5839    0.7915   -1.0840 C   0  0  0  0  0  0  0  0  0  0  0  0
   -9.9012    1.2176   -1.9951 O   0  0  0  0  0  0  0  0  0  0  0  0
   12.2718    1.2733    0.7041 H   0  0  0  0  0  0  0  0  0  0  0  0
   14.4822    1.0570    1.8402 H   0  0  0  0  0  0  0  0  0  0  0  0
   14.6343   -0.0425    4.0286 H   0  0  0  0  0  0  0  0  0  0  0  0
   12.6507   -0.9481    5.1359 H   0  0  0  0  0  0  0  0  0  0  0  0
    7.3436   -0.9718    3.9001 H   0  0  0  0  0  0  0  0  0  0  0  0
    7.4936    0.6823    0.3184 H   0  0  0  0  0  0  0  0  0  0  0  0
    4.7824   -0.8506   -2.6097 H   0  0  0  0  0  0  0  0  0  0  0  0
    4.1853    0.4772   -3.5774 H   0  0  0  0  0  0  0  0  0  0  0  0
    6.5346   -0.0732   -4.1657 H   0  0  0  0  0  0  0  0  0  0  0  0
    7.0362    0.2465   -2.5064 H   0  0  0  0  0  0  0  0  0  0  0  0
    6.4277    1.5592   -3.5114 H   0  0  0  0  0  0  0  0  0  0  0  0
    4.0789    3.4267   -2.2295 H   0  0  0  0  0  0  0  0  0  0  0  0
    5.7056    3.3053   -1.6004 H   0  0  0  0  0  0  0  0  0  0  0  0
    3.1945    3.6355    0.1061 H   0  0  0  0  0  0  0  0  0  0  0  0
    4.3647    4.9043   -0.2630 H   0  0  0  0  0  0  0  0  0  0  0  0
    4.8384    3.5248    0.7276 H   0  0  0  0  0  0  0  0  0  0  0  0
    1.3460    1.3034   -1.9115 H   0  0  0  0  0  0  0  0  0  0  0  0
    2.0889   -0.6756    2.6219 H   0  0  0  0  0  0  0  0  0  0  0  0
    0.0186   -0.6660    3.6599 H   0  0  0  0  0  0  0  0  0  0  0  0
   -1.7316   -0.6493    3.4000 H   0  0  0  0  0  0  0  0  0  0  0  0
   -1.5756   -2.8462    2.2124 H   0  0  0  0  0  0  0  0  0  0  0  0
   -0.9239   -2.9649    3.8508 H   0  0  0  0  0  0  0  0  0  0  0  0
    0.1714   -2.8625    2.4677 H   0  0  0  0  0  0  0  0  0  0  0  0
   -1.3510    1.3668   -2.2951 H   0  0  0  0  0  0  0  0  0  0  0  0
   -3.4168   -0.5617    1.8314 H   0  0  0  0  0  0  0  0  0  0  0  0
   -3.7188    3.5810   -3.2834 H   0  0  0  0  0  0  0  0  0  0  0  0
   -4.6119    3.7517   -1.7901 H   0  0  0  0  0  0  0  0  0  0  0  0
   -6.7573    3.3740   -3.0461 H   0  0  0  0  0  0  0  0  0  0  0  0
   -5.8359    3.2644   -4.5451 H   0  0  0  0  0  0  0  0  0  0  0  0
   -5.8704    4.7757   -3.6426 H   0  0  0  0  0  0  0  0  0  0  0  0
   -4.0200    0.9140   -4.8946 H   0  0  0  0  0  0  0  0  0  0  0  0
   -3.9896   -0.5777   -3.9831 H   0  0  0  0  0  0  0  0  0  0  0  0
   -6.4812   -0.5815   -3.8778 H   0  0  0  0  0  0  0  0  0  0  0  0
   -6.5272    0.9227   -4.7873 H   0  0  0  0  0  0  0  0  0  0  0  0
   -5.9072   -0.5427   -5.5445 H   0  0  0  0  0  0  0  0  0  0  0  0
   -7.8941    1.0025   -1.8906 H   0  0  0  0  0  0  0  0  0  0  0  0
   -8.8302   -0.5886    1.5984 H   0  0  0  0  0  0  0  0  0  0  0  0
  -14.2618   -0.2128    1.3332 H   0  0  0  0  0  0  0  0  0  0  0  0
  -15.8047    0.7814   -0.2828 H   0  0  0  0  0  0  0  0  0  0  0  0
  -14.9897    1.8184   -2.3520 H   0  0  0  0  0  0  0  0  0  0  0  0
  -12.5431    1.8793   -2.8367 H   0  0  0  0  0  0  0  0  0  0  0  0
  1  2  2  0  0  0  0
  1  3  1  0  0  0  0
  3  4  2  0  0  0  0
  4  5  1  0  0  0  0
  5  6  2  0  0  0  0
  6  7  1  0  0  0  0
  7  8  2  0  0  0  0
  3  8  1  0  0  0  0
  8  9  1  0  0  0  0
  9 10  2  0  0  0  0
 10 11  1  0  0  0  0
 11 12  3  0  0  0  0
 10 13  1  0  0  0  0
 13 14  3  0  0  0  0
  9 15  1  0  0  0  0
  1 15  1  0  0  0  0
 15 16  2  0  0  0  0
 16 17  1  0  0  0  0
 17 18  2  0  0  0  0
 18 19  1  0  0  0  0
 19 20  2  0  0  0  0
 20 21  1  0  0  0  0
 17 21  1  0  0  0  0
 20 22  1  0  0  0  0
 22 23  2  0  0  0  0
 23 24  1  0  0  0  0
 19 24  1  0  0  0  0
 24 25  1  0  0  0  0
 25 26  1  0  0  0  0
 24 27  1  0  0  0  0
 27 28  1  0  0  0  0
 23 29  1  0  0  0  0
 29 30  2  0  0  0  0
 30 31  1  0  0  0  0
 31 32  2  0  0  0  0
 22 32  1  0  0  0  0
 31 33  1  0  0  0  0
 33 34  1  0  0  0  0
 34 35  1  0  0  0  0
 33 36  1  0  0  0  0
 36 37  2  0  0  0  0
 30 37  1  0  0  0  0
 37 38  1  0  0  0  0
 38 39  2  0  0  0  0
 39 40  1  0  0  0  0
 40 41  2  0  0  0  0
 36 41  1  0  0  0  0
 40 42  1  0  0  0  0
 42 43  2  0  0  0  0
 43 44  1  0  0  0  0
 39 44  1  0  0  0  0
 44 45  1  0  0  0  0
 45 46  1  0  0  0  0
 44 47  1  0  0  0  0
 47 48  1  0  0  0  0
 43 49  1  0  0  0  0
 49 50  2  0  0  0  0
 50 51  1  0  0  0  0
 42 51  1  0  0  0  0
 50 52  1  0  0  0  0
 52 53  2  0  0  0  0
 53 54  1  0  0  0  0
 54 55  2  0  0  0  0
 55 56  1  0  0  0  0
 56 57  3  0  0  0  0
 55 58  1  0  0  0  0
 58 59  3  0  0  0  0
 54 60  1  0  0  0  0
 60 61  2  0  0  0  0
 61 62  1  0  0  0  0
 62 63  2  0  0  0  0
 63 64  1  0  0  0  0
 64 65  2  0  0  0  0
 60 65  1  0  0  0  0
 65 66  1  0  0  0  0
 53 66  1  0  0  0  0
 66 67  2  0  0  0  0
  4 68  1  0  0  0  0
  5 69  1  0  0  0  0
  6 70  1  0  0  0  0
  7 71  1  0  0  0  0
 16 72  1  0  0  0  0
 18 73  1  0  0  0  0
 25 74  1  0  0  0  0
 25 75  1  0  0  0  0
 26 76  1  0  0  0  0
 26 77  1  0  0  0  0
 26 78  1  0  0  0  0
 27 79  1  0  0  0  0
 27 80  1  0  0  0  0
 28 81  1  0  0  0  0
 28 82  1  0  0  0  0
 28 83  1  0  0  0  0
 29 84  1  0  0  0  0
 32 85  1  0  0  0  0
 34 86  1  0  0  0  0
 34 87  1  0  0  0  0
 35 88  1  0  0  0  0
 35 89  1  0  0  0  0
 35 90  1  0  0  0  0
 38 91  1  0  0  0  0
 41 92  1  0  0  0  0
 45 93  1  0  0  0  0
 45 94  1  0  0  0  0
 46 95  1  0  0  0  0
 46 96  1  0  0  0  0
 46 97  1  0  0  0  0
 47 98  1  0  0  0  0
 47 99  1  0  0  0  0
 48100  1  0  0  0  0
 48101  1  0  0  0  0
 48102  1  0  0  0  0
 49103  1  0  0  0  0
 52104  1  0  0  0  0
 61105  1  0  0  0  0
 62106  1  0  0  0  0
 63107  1  0  0  0  0
 64108  1  0  0  0  0
M  END
