F-BTA3.sdf
  xtb     12202113353D
 energy: -273.856873305591 gnorm: 0.000272887720 xtb: 6.4.1 (unknown)
166180  0     0  0            999 V2000
    1.0622    2.1191    0.8597 C   0  0  0  0  0  0  0  0  0  0  0  0
   -0.0886    1.7973    1.6186 C   0  0  0  0  0  0  0  0  0  0  0  0
   -1.3419    1.6580    1.0275 C   0  0  0  0  0  0  0  0  0  0  0  0
   -1.3982    1.7190   -0.3450 C   0  0  0  0  0  0  0  0  0  0  0  0
   -0.2218    1.9032   -1.1101 C   0  0  0  0  0  0  0  0  0  0  0  0
    1.0110    2.1576   -0.5131 C   0  0  0  0  0  0  0  0  0  0  0  0
    2.2781    2.2644    1.7617 C   0  0  0  0  0  0  0  0  0  0  0  0
    1.7222    1.7448    3.0646 C   0  0  0  0  0  0  0  0  0  0  0  0
    0.3516    1.5533    2.9560 C   0  0  0  0  0  0  0  0  0  0  0  0
    2.2304    1.3710    4.3018 C   0  0  0  0  0  0  0  0  0  0  0  0
    1.2500    0.8383    5.1252 C   0  0  0  0  0  0  0  0  0  0  0  0
   -0.3328    0.8736    4.3728 S   0  0  0  0  0  0  0  0  0  0  0  0
   -2.6070    1.5405   -1.2521 C   0  0  0  0  0  0  0  0  0  0  0  0
   -1.9341    1.4263   -2.5965 C   0  0  0  0  0  0  0  0  0  0  0  0
   -0.5732    1.6707   -2.4757 C   0  0  0  0  0  0  0  0  0  0  0  0
   -2.3085    1.0259   -3.8725 C   0  0  0  0  0  0  0  0  0  0  0  0
   -1.2194    0.9314   -4.7254 C   0  0  0  0  0  0  0  0  0  0  0  0
    0.2765    1.3984   -3.9392 S   0  0  0  0  0  0  0  0  0  0  0  0
    1.4082    0.1604    6.3718 C   0  0  0  0  0  0  0  0  0  0  0  0
   -1.1661    0.3834   -6.0427 C   0  0  0  0  0  0  0  0  0  0  0  0
   -3.4497    2.7971   -1.1054 C   0  0  0  0  0  0  0  0  0  0  0  0
   -3.4190    0.2868   -1.0045 C   0  0  0  0  0  0  0  0  0  0  0  0
    2.6626    3.7165    2.0001 C   0  0  0  0  0  0  0  0  0  0  0  0
    3.4331    1.4662    1.1984 C   0  0  0  0  0  0  0  0  0  0  0  0
    2.5733    0.1114    7.1365 C   0  0  0  0  0  0  0  0  0  0  0  0
    2.7544   -0.7053    8.2482 C   0  0  0  0  0  0  0  0  0  0  0  0
    1.7804   -1.5955    8.6796 C   0  0  0  0  0  0  0  0  0  0  0  0
    0.5399   -1.5057    8.0123 C   0  0  0  0  0  0  0  0  0  0  0  0
    0.3648   -0.6397    6.8969 C   0  0  0  0  0  0  0  0  0  0  0  0
   -2.2625    0.0558   -6.8394 C   0  0  0  0  0  0  0  0  0  0  0  0
   -2.1849   -0.6394   -8.0419 C   0  0  0  0  0  0  0  0  0  0  0  0
   -0.9820   -1.1157   -8.5460 C   0  0  0  0  0  0  0  0  0  0  0  0
    0.1717   -0.7160   -7.8380 C   0  0  0  0  0  0  0  0  0  0  0  0
    0.0725    0.0229   -6.6260 C   0  0  0  0  0  0  0  0  0  0  0  0
   -0.6370   -2.1071    8.2362 N   0  0  0  0  0  0  0  0  0  0  0  0
   -1.4197   -1.6378    7.3072 N   0  0  0  0  0  0  0  0  0  0  0  0
   -0.8996   -0.7752    6.4817 N   0  0  0  0  0  0  0  0  0  0  0  0
    1.4767   -0.8805   -8.0966 N   0  0  0  0  0  0  0  0  0  0  0  0
    2.0780   -0.2996   -7.0980 N   0  0  0  0  0  0  0  0  0  0  0  0
    1.3182    0.2489   -6.1937 N   0  0  0  0  0  0  0  0  0  0  0  0
    2.0277   -2.5465    9.7275 C   0  0  0  0  0  0  0  0  0  0  0  0
    1.5677   -3.8181    9.7266 C   0  0  0  0  0  0  0  0  0  0  0  0
   -0.9256   -1.9628   -9.7047 C   0  0  0  0  0  0  0  0  0  0  0  0
   -0.0824   -3.0106   -9.8449 C   0  0  0  0  0  0  0  0  0  0  0  0
    3.5094   -0.2702   -6.9920 C   0  0  0  0  0  0  0  0  0  0  0  0
   -2.7906   -2.0483    7.1953 C   0  0  0  0  0  0  0  0  0  0  0  0
    0.7204   -3.6488   -8.7996 C   0  0  0  0  0  0  0  0  0  0  0  0
    1.4512   -4.7078   -9.3305 N   0  0  0  0  0  0  0  0  0  0  0  0
    1.2601   -4.9781  -10.6467 C   0  0  0  0  0  0  0  0  0  0  0  0
    0.0781   -3.8972  -11.3529 S   0  0  0  0  0  0  0  0  0  0  0  0
    0.9872   -4.5490    8.5983 C   0  0  0  0  0  0  0  0  0  0  0  0
    0.6452   -5.8415    8.9843 N   0  0  0  0  0  0  0  0  0  0  0  0
    0.9423   -6.1925   10.2613 C   0  0  0  0  0  0  0  0  0  0  0  0
    1.7336   -4.8838   11.1131 S   0  0  0  0  0  0  0  0  0  0  0  0
   -0.0025   -6.7017    8.0117 C   0  0  0  0  0  0  0  0  0  0  0  0
    0.8726   -4.1694    7.4556 O   0  0  0  0  0  0  0  0  0  0  0  0
    0.7176   -7.3904   10.8913 C   0  0  0  0  0  0  0  0  0  0  0  0
    1.1413   -7.5633   12.2259 C   0  0  0  0  0  0  0  0  0  0  0  0
    0.0781   -8.5176   10.3478 C   0  0  0  0  0  0  0  0  0  0  0  0
    1.8531    4.7703    1.6032 C   0  0  0  0  0  0  0  0  0  0  0  0
    2.2154    6.0751    1.8880 C   0  0  0  0  0  0  0  0  0  0  0  0
    3.3837    6.3594    2.5805 C   0  0  0  0  0  0  0  0  0  0  0  0
    4.1886    5.2990    2.9788 C   0  0  0  0  0  0  0  0  0  0  0  0
    3.8325    3.9950    2.6974 C   0  0  0  0  0  0  0  0  0  0  0  0
    3.6175    0.1321    1.5323 C   0  0  0  0  0  0  0  0  0  0  0  0
    4.6516   -0.5950    0.9717 C   0  0  0  0  0  0  0  0  0  0  0  0
    5.5172   -0.0153    0.0544 C   0  0  0  0  0  0  0  0  0  0  0  0
    5.3201    1.3163   -0.2878 C   0  0  0  0  0  0  0  0  0  0  0  0
    4.2915    2.0483    0.2733 C   0  0  0  0  0  0  0  0  0  0  0  0
   -3.3351    3.8558   -1.9947 C   0  0  0  0  0  0  0  0  0  0  0  0
   -4.0867    5.0035   -1.8198 C   0  0  0  0  0  0  0  0  0  0  0  0
   -4.9654    5.1270   -0.7526 C   0  0  0  0  0  0  0  0  0  0  0  0
   -5.0677    4.0691    0.1417 C   0  0  0  0  0  0  0  0  0  0  0  0
   -4.3207    2.9197   -0.0297 C   0  0  0  0  0  0  0  0  0  0  0  0
   -2.8814   -0.8133   -0.3522 C   0  0  0  0  0  0  0  0  0  0  0  0
   -3.6344   -1.9606   -0.1777 C   0  0  0  0  0  0  0  0  0  0  0  0
   -4.9342   -2.0431   -0.6570 C   0  0  0  0  0  0  0  0  0  0  0  0
   -5.4590   -0.9477   -1.3315 C   0  0  0  0  0  0  0  0  0  0  0  0
   -4.7124    0.2011   -1.5064 C   0  0  0  0  0  0  0  0  0  0  0  0
    0.7275   -3.3937   -7.6175 O   0  0  0  0  0  0  0  0  0  0  0  0
    2.3574   -5.4261   -8.4541 C   0  0  0  0  0  0  0  0  0  0  0  0
    1.8447   -5.9563  -11.4108 C   0  0  0  0  0  0  0  0  0  0  0  0
    2.8189   -6.8785  -10.9921 C   0  0  0  0  0  0  0  0  0  0  0  0
    1.4763   -6.0917  -12.7660 C   0  0  0  0  0  0  0  0  0  0  0  0
    1.4818   -7.7194   13.3100 N   0  0  0  0  0  0  0  0  0  0  0  0
   -0.4444   -9.4689    9.9712 N   0  0  0  0  0  0  0  0  0  0  0  0
    1.1859   -6.2151  -13.8687 N   0  0  0  0  0  0  0  0  0  0  0  0
    3.6235   -7.6524  -10.7211 N   0  0  0  0  0  0  0  0  0  0  0  0
   -5.7476    6.3918   -0.5441 C   0  0  0  0  0  0  0  0  0  0  0  0
   -5.7359   -3.3035   -0.5031 C   0  0  0  0  0  0  0  0  0  0  0  0
    6.6697   -0.7911   -0.5155 C   0  0  0  0  0  0  0  0  0  0  0  0
    3.7924    7.7787    2.8518 C   0  0  0  0  0  0  0  0  0  0  0  0
    4.6486    8.3181    1.7042 C   0  0  0  0  0  0  0  0  0  0  0  0
    7.9131   -0.6177    0.3591 C   0  0  0  0  0  0  0  0  0  0  0  0
    4.0031    1.1622   -6.8359 C   0  0  0  0  0  0  0  0  0  0  0  0
   -5.5490   -4.2071   -1.7235 C   0  0  0  0  0  0  0  0  0  0  0  0
   -4.9376    7.3909    0.2846 C   0  0  0  0  0  0  0  0  0  0  0  0
   -3.7163   -0.8410    7.2756 C   0  0  0  0  0  0  0  0  0  0  0  0
   -1.5195   -6.6440    8.1447 C   0  0  0  0  0  0  0  0  0  0  0  0
    3.7736   -4.8709   -8.5469 C   0  0  0  0  0  0  0  0  0  0  0  0
    3.6323    0.8758    6.7842 F   0  0  0  0  0  0  0  0  0  0  0  0
   -3.5058    0.3999   -6.4325 F   0  0  0  0  0  0  0  0  0  0  0  0
   -2.2137    1.4542    1.6295 H   0  0  0  0  0  0  0  0  0  0  0  0
    1.8910    2.3306   -1.1132 H   0  0  0  0  0  0  0  0  0  0  0  0
    3.2658    1.4291    4.5795 H   0  0  0  0  0  0  0  0  0  0  0  0
   -3.3110    0.7707   -4.1601 H   0  0  0  0  0  0  0  0  0  0  0  0
    3.7200   -0.6850    8.7307 H   0  0  0  0  0  0  0  0  0  0  0  0
   -3.1113   -0.8704   -8.5459 H   0  0  0  0  0  0  0  0  0  0  0  0
    2.6341   -2.2176   10.5621 H   0  0  0  0  0  0  0  0  0  0  0  0
   -1.6181   -1.7476  -10.5089 H   0  0  0  0  0  0  0  0  0  0  0  0
    3.9012   -0.7362   -7.8977 H   0  0  0  0  0  0  0  0  0  0  0  0
    3.8025   -0.8635   -6.1204 H   0  0  0  0  0  0  0  0  0  0  0  0
   -2.9757   -2.7522    8.0084 H   0  0  0  0  0  0  0  0  0  0  0  0
   -2.9208   -2.5556    6.2347 H   0  0  0  0  0  0  0  0  0  0  0  0
    0.3632   -7.7226    8.1278 H   0  0  0  0  0  0  0  0  0  0  0  0
    0.2969   -6.3185    7.0318 H   0  0  0  0  0  0  0  0  0  0  0  0
    0.9346    4.5768    1.0687 H   0  0  0  0  0  0  0  0  0  0  0  0
    1.5736    6.8847    1.5699 H   0  0  0  0  0  0  0  0  0  0  0  0
    5.1017    5.4973    3.5219 H   0  0  0  0  0  0  0  0  0  0  0  0
    4.4700    3.1829    3.0151 H   0  0  0  0  0  0  0  0  0  0  0  0
    2.9511   -0.3438    2.2370 H   0  0  0  0  0  0  0  0  0  0  0  0
    4.7847   -1.6311    1.2491 H   0  0  0  0  0  0  0  0  0  0  0  0
    5.9798    1.7860   -1.0038 H   0  0  0  0  0  0  0  0  0  0  0  0
    4.1583    3.0850   -0.0015 H   0  0  0  0  0  0  0  0  0  0  0  0
   -2.6606    3.7846   -2.8352 H   0  0  0  0  0  0  0  0  0  0  0  0
   -3.9909    5.8143   -2.5281 H   0  0  0  0  0  0  0  0  0  0  0  0
   -5.7447    4.1444    0.9810 H   0  0  0  0  0  0  0  0  0  0  0  0
   -4.4259    2.1033    0.6698 H   0  0  0  0  0  0  0  0  0  0  0  0
   -1.8695   -0.7765    0.0242 H   0  0  0  0  0  0  0  0  0  0  0  0
   -3.2026   -2.8051    0.3406 H   0  0  0  0  0  0  0  0  0  0  0  0
   -6.4653   -0.9945   -1.7229 H   0  0  0  0  0  0  0  0  0  0  0  0
   -5.1388    1.0441   -2.0309 H   0  0  0  0  0  0  0  0  0  0  0  0
    2.3354   -6.4886   -8.6994 H   0  0  0  0  0  0  0  0  0  0  0  0
    1.9689   -5.2794   -7.4421 H   0  0  0  0  0  0  0  0  0  0  0  0
   -6.6822    6.1685   -0.0258 H   0  0  0  0  0  0  0  0  0  0  0  0
   -5.9909    6.8399   -1.5097 H   0  0  0  0  0  0  0  0  0  0  0  0
   -5.4171   -3.8389    0.3936 H   0  0  0  0  0  0  0  0  0  0  0  0
   -6.7947   -3.0581   -0.3968 H   0  0  0  0  0  0  0  0  0  0  0  0
    6.8892   -0.4398   -1.5260 H   0  0  0  0  0  0  0  0  0  0  0  0
    6.4129   -1.8510   -0.5699 H   0  0  0  0  0  0  0  0  0  0  0  0
    2.9047    8.4046    2.9631 H   0  0  0  0  0  0  0  0  0  0  0  0
    4.3641    7.8279    3.7807 H   0  0  0  0  0  0  0  0  0  0  0  0
    4.9435    9.3465    1.8995 H   0  0  0  0  0  0  0  0  0  0  0  0
    5.5464    7.7153    1.5866 H   0  0  0  0  0  0  0  0  0  0  0  0
    4.0915    8.2874    0.7704 H   0  0  0  0  0  0  0  0  0  0  0  0
    7.7176   -0.9737    1.3680 H   0  0  0  0  0  0  0  0  0  0  0  0
    8.1918    0.4323    0.4157 H   0  0  0  0  0  0  0  0  0  0  0  0
    8.7499   -1.1781   -0.0514 H   0  0  0  0  0  0  0  0  0  0  0  0
    3.5391    1.6149   -5.9638 H   0  0  0  0  0  0  0  0  0  0  0  0
    5.0818    1.1694   -6.7096 H   0  0  0  0  0  0  0  0  0  0  0  0
    3.7497    1.7511   -7.7140 H   0  0  0  0  0  0  0  0  0  0  0  0
   -6.1296   -5.1203   -1.6145 H   0  0  0  0  0  0  0  0  0  0  0  0
   -5.8729   -3.6945   -2.6264 H   0  0  0  0  0  0  0  0  0  0  0  0
   -4.5006   -4.4726   -1.8398 H   0  0  0  0  0  0  0  0  0  0  0  0
   -5.5036    8.3070    0.4367 H   0  0  0  0  0  0  0  0  0  0  0  0
   -4.0075    7.6369   -0.2231 H   0  0  0  0  0  0  0  0  0  0  0  0
   -4.6940    6.9667    1.2562 H   0  0  0  0  0  0  0  0  0  0  0  0
   -3.4587   -0.1309    6.4943 H   0  0  0  0  0  0  0  0  0  0  0  0
   -4.7472   -1.1563    7.1439 H   0  0  0  0  0  0  0  0  0  0  0  0
   -3.6209   -0.3506    8.2413 H   0  0  0  0  0  0  0  0  0  0  0  0
   -1.8418   -7.0222    9.1118 H   0  0  0  0  0  0  0  0  0  0  0  0
   -1.8628   -5.6181    8.0294 H   0  0  0  0  0  0  0  0  0  0  0  0
   -1.9723   -7.2562    7.3706 H   0  0  0  0  0  0  0  0  0  0  0  0
    4.1825   -5.0079   -9.5451 H   0  0  0  0  0  0  0  0  0  0  0  0
    3.7724   -3.8106   -8.3034 H   0  0  0  0  0  0  0  0  0  0  0  0
    4.4123   -5.3938   -7.8415 H   0  0  0  0  0  0  0  0  0  0  0  0
  1  2  1  0  0  0  0
  2  3  2  0  0  0  0
  3  4  1  0  0  0  0
  4  5  2  0  0  0  0
  5  6  1  0  0  0  0
  6  1  2  0  0  0  0
  1  7  1  0  0  0  0
  7  8  1  0  0  0  0
  8  9  2  0  0  0  0
  9  2  1  0  0  0  0
  8 10  1  0  0  0  0
 10 11  2  0  0  0  0
 11 12  1  0  0  0  0
 12  9  1  0  0  0  0
  4 13  1  0  0  0  0
 13 14  1  0  0  0  0
 14 15  2  0  0  0  0
 15  5  1  0  0  0  0
 14 16  1  0  0  0  0
 16 17  2  0  0  0  0
 17 18  1  0  0  0  0
 18 15  1  0  0  0  0
 11 19  1  0  0  0  0
 17 20  1  0  0  0  0
 13 21  1  0  0  0  0
 13 22  1  0  0  0  0
  7 23  1  0  0  0  0
  7 24  1  0  0  0  0
 19 25  2  0  0  0  0
 25 26  1  0  0  0  0
 26 27  2  0  0  0  0
 27 28  1  0  0  0  0
 28 29  1  0  0  0  0
 29 19  1  0  0  0  0
 20 30  2  0  0  0  0
 30 31  1  0  0  0  0
 31 32  2  0  0  0  0
 32 33  1  0  0  0  0
 33 34  1  0  0  0  0
 34 20  1  0  0  0  0
 28 35  2  0  0  0  0
 35 36  1  0  0  0  0
 36 37  1  0  0  0  0
 37 29  2  0  0  0  0
 33 38  2  0  0  0  0
 38 39  1  0  0  0  0
 39 40  1  0  0  0  0
 40 34  2  0  0  0  0
 27 41  1  0  0  0  0
 41 42  2  0  0  0  0
 32 43  1  0  0  0  0
 43 44  2  0  0  0  0
 39 45  1  0  0  0  0
 36 46  1  0  0  0  0
 44 47  1  0  0  0  0
 47 48  1  0  0  0  0
 48 49  1  0  0  0  0
 49 50  1  0  0  0  0
 50 44  1  0  0  0  0
 42 51  1  0  0  0  0
 51 52  1  0  0  0  0
 52 53  1  0  0  0  0
 53 54  1  0  0  0  0
 54 42  1  0  0  0  0
 52 55  1  0  0  0  0
 51 56  2  0  0  0  0
 53 57  2  0  0  0  0
 57 58  1  0  0  0  0
 57 59  1  0  0  0  0
 23 60  2  0  0  0  0
 60 61  1  0  0  0  0
 61 62  2  0  0  0  0
 62 63  1  0  0  0  0
 63 64  2  0  0  0  0
 64 23  1  0  0  0  0
 24 65  2  0  0  0  0
 65 66  1  0  0  0  0
 66 67  2  0  0  0  0
 67 68  1  0  0  0  0
 68 69  2  0  0  0  0
 69 24  1  0  0  0  0
 21 70  2  0  0  0  0
 70 71  1  0  0  0  0
 71 72  2  0  0  0  0
 72 73  1  0  0  0  0
 73 74  2  0  0  0  0
 74 21  1  0  0  0  0
 22 75  2  0  0  0  0
 75 76  1  0  0  0  0
 76 77  2  0  0  0  0
 77 78  1  0  0  0  0
 78 79  2  0  0  0  0
 79 22  1  0  0  0  0
 47 80  2  0  0  0  0
 48 81  1  0  0  0  0
 49 82  2  0  0  0  0
 82 83  1  0  0  0  0
 82 84  1  0  0  0  0
 58 85  3  0  0  0  0
 59 86  3  0  0  0  0
 84 87  3  0  0  0  0
 83 88  3  0  0  0  0
 72 89  1  0  0  0  0
 77 90  1  0  0  0  0
 67 91  1  0  0  0  0
 62 92  1  0  0  0  0
 92 93  1  0  0  0  0
 91 94  1  0  0  0  0
 45 95  1  0  0  0  0
 90 96  1  0  0  0  0
 89 97  1  0  0  0  0
 46 98  1  0  0  0  0
 55 99  1  0  0  0  0
 81100  1  0  0  0  0
 25101  1  0  0  0  0
 30102  1  0  0  0  0
  3103  1  0  0  0  0
  6104  1  0  0  0  0
 10105  1  0  0  0  0
 16106  1  0  0  0  0
 26107  1  0  0  0  0
 31108  1  0  0  0  0
 41109  1  0  0  0  0
 43110  1  0  0  0  0
 45111  1  0  0  0  0
 45112  1  0  0  0  0
 46113  1  0  0  0  0
 46114  1  0  0  0  0
 55115  1  0  0  0  0
 55116  1  0  0  0  0
 60117  1  0  0  0  0
 61118  1  0  0  0  0
 63119  1  0  0  0  0
 64120  1  0  0  0  0
 65121  1  0  0  0  0
 66122  1  0  0  0  0
 68123  1  0  0  0  0
 69124  1  0  0  0  0
 70125  1  0  0  0  0
 71126  1  0  0  0  0
 73127  1  0  0  0  0
 74128  1  0  0  0  0
 75129  1  0  0  0  0
 76130  1  0  0  0  0
 78131  1  0  0  0  0
 79132  1  0  0  0  0
 81133  1  0  0  0  0
 81134  1  0  0  0  0
 89135  1  0  0  0  0
 89136  1  0  0  0  0
 90137  1  0  0  0  0
 90138  1  0  0  0  0
 91139  1  0  0  0  0
 91140  1  0  0  0  0
 92141  1  0  0  0  0
 92142  1  0  0  0  0
 93143  1  0  0  0  0
 93144  1  0  0  0  0
 93145  1  0  0  0  0
 94146  1  0  0  0  0
 94147  1  0  0  0  0
 94148  1  0  0  0  0
 95149  1  0  0  0  0
 95150  1  0  0  0  0
 95151  1  0  0  0  0
 96152  1  0  0  0  0
 96153  1  0  0  0  0
 96154  1  0  0  0  0
 97155  1  0  0  0  0
 97156  1  0  0  0  0
 97157  1  0  0  0  0
 98158  1  0  0  0  0
 98159  1  0  0  0  0
 98160  1  0  0  0  0
 99161  1  0  0  0  0
 99162  1  0  0  0  0
 99163  1  0  0  0  0
100164  1  0  0  0  0
100165  1  0  0  0  0
100166  1  0  0  0  0
M  END
