F-Cl.sdf
  xtb     12202113373D
 energy: -188.396820811998 gnorm: 0.000846497714 xtb: 6.4.1 (unknown)
115125  0     0  0            999 V2000
    0.8850   -8.4068   -5.3115 C   0  0  0  0  0  0  0  0  0  0  0  0
    1.3270   -8.1679   -4.2049 O   0  0  0  0  0  0  0  0  0  0  0  0
    1.3512   -9.4928   -6.1954 C   0  0  0  0  0  0  0  0  0  0  0  0
    2.3765  -10.3944   -5.9818 C   0  0  0  0  0  0  0  0  0  0  0  0
    2.6536  -11.3279   -6.9669 C   0  0  0  0  0  0  0  0  0  0  0  0
    1.9039  -11.3377   -8.1379 C   0  0  0  0  0  0  0  0  0  0  0  0
    0.8659  -10.4383   -8.3621 C   0  0  0  0  0  0  0  0  0  0  0  0
    0.5888   -9.5087   -7.3739 C   0  0  0  0  0  0  0  0  0  0  0  0
   -0.4170   -8.4489   -7.2923 C   0  0  0  0  0  0  0  0  0  0  0  0
   -1.4182   -8.2543   -8.2076 C   0  0  0  0  0  0  0  0  0  0  0  0
   -1.5814   -9.0268   -9.3780 C   0  0  0  0  0  0  0  0  0  0  0  0
   -1.7767   -9.6078  -10.3485 N   0  0  0  0  0  0  0  0  0  0  0  0
   -2.4553   -7.3001   -8.1264 C   0  0  0  0  0  0  0  0  0  0  0  0
   -3.3442   -6.5727   -8.1422 N   0  0  0  0  0  0  0  0  0  0  0  0
   -0.1879   -7.7157   -6.0586 C   0  0  0  0  0  0  0  0  0  0  0  0
    1.0463    7.9617    5.7116 C   0  0  0  0  0  0  0  0  0  0  0  0
    1.4987    6.8458    5.8763 O   0  0  0  0  0  0  0  0  0  0  0  0
    1.5006    9.1738    6.4202 C   0  0  0  0  0  0  0  0  0  0  0  0
    2.5147    9.2950    7.3512 C   0  0  0  0  0  0  0  0  0  0  0  0
    2.7791   10.5463    7.8833 C   0  0  0  0  0  0  0  0  0  0  0  0
    2.0282   11.6423    7.4733 C   0  0  0  0  0  0  0  0  0  0  0  0
    1.0023   11.5317    6.5395 C   0  0  0  0  0  0  0  0  0  0  0  0
    0.7383   10.2791    6.0112 C   0  0  0  0  0  0  0  0  0  0  0  0
   -0.2534    9.8261    5.0349 C   0  0  0  0  0  0  0  0  0  0  0  0
   -1.2372   10.6174    4.5014 C   0  0  0  0  0  0  0  0  0  0  0  0
   -2.2591   10.2080    3.6177 C   0  0  0  0  0  0  0  0  0  0  0  0
   -3.1354    9.9748    2.9121 N   0  0  0  0  0  0  0  0  0  0  0  0
   -1.3939   11.9900    4.7921 C   0  0  0  0  0  0  0  0  0  0  0  0
   -1.5805   13.1081    4.9730 N   0  0  0  0  0  0  0  0  0  0  0  0
   -0.0266    8.4104    4.7981 C   0  0  0  0  0  0  0  0  0  0  0  0
   -1.2633   -2.5850   -2.3540 C   0  0  0  0  0  0  0  0  0  0  0  0
   -0.4578   -2.8214   -1.2158 C   0  0  0  0  0  0  0  0  0  0  0  0
   -0.3332   -1.8610   -0.2387 C   0  0  0  0  0  0  0  0  0  0  0  0
   -1.0149   -0.6607   -0.4212 C   0  0  0  0  0  0  0  0  0  0  0  0
   -1.8289   -0.4372   -1.5477 C   0  0  0  0  0  0  0  0  0  0  0  0
   -1.9687   -1.3970   -2.5242 C   0  0  0  0  0  0  0  0  0  0  0  0
   -2.4748    0.9288   -1.4738 C   0  0  0  0  0  0  0  0  0  0  0  0
   -3.9901    0.6982   -1.2568 C   0  0  0  0  0  0  0  0  0  0  0  0
   -4.8170    1.9470   -0.9828 C   0  0  0  0  0  0  0  0  0  0  0  0
   -2.2034    1.7690   -2.7303 C   0  0  0  0  0  0  0  0  0  0  0  0
   -0.7144    1.8998   -3.0302 C   0  0  0  0  0  0  0  0  0  0  0  0
   -1.8175    1.5089   -0.2434 C   0  0  0  0  0  0  0  0  0  0  0  0
   -1.0051    0.5418    0.3823 C   0  0  0  0  0  0  0  0  0  0  0  0
   -0.2915    0.8226    1.5445 C   0  0  0  0  0  0  0  0  0  0  0  0
   -0.3773    2.0965    2.0556 C   0  0  0  0  0  0  0  0  0  0  0  0
   -1.1631    3.0761    1.4042 C   0  0  0  0  0  0  0  0  0  0  0  0
   -1.8928    2.7917    0.2533 C   0  0  0  0  0  0  0  0  0  0  0  0
   -0.8339   -6.5437   -5.7509 C   0  0  0  0  0  0  0  0  0  0  0  0
   -0.6768    7.6986    3.8201 C   0  0  0  0  0  0  0  0  0  0  0  0
   -0.9996    4.2933    2.1346 C   0  0  0  0  0  0  0  0  0  0  0  0
   -0.1414    4.1036    3.2177 C   0  0  0  0  0  0  0  0  0  0  0  0
    0.3173    2.6737    3.2732 C   0  0  0  0  0  0  0  0  0  0  0  0
   -1.5528    5.9009    2.0113 S   0  0  0  0  0  0  0  0  0  0  0  0
   -0.6015    6.3515    3.4353 C   0  0  0  0  0  0  0  0  0  0  0  0
    0.0835    5.2527    3.9506 C   0  0  0  0  0  0  0  0  0  0  0  0
    0.1759   -4.2007   -1.2698 C   0  0  0  0  0  0  0  0  0  0  0  0
   -0.2885   -4.6773   -2.6188 C   0  0  0  0  0  0  0  0  0  0  0  0
   -1.1385   -3.7324   -3.1952 C   0  0  0  0  0  0  0  0  0  0  0  0
   -0.0637   -5.7746   -3.4292 C   0  0  0  0  0  0  0  0  0  0  0  0
   -0.7536   -5.6937   -4.6373 C   0  0  0  0  0  0  0  0  0  0  0  0
   -1.7005   -4.2020   -4.7342 S   0  0  0  0  0  0  0  0  0  0  0  0
    1.8496    2.5710    3.1586 C   0  0  0  0  0  0  0  0  0  0  0  0
   -0.1507    1.9860    4.5701 C   0  0  0  0  0  0  0  0  0  0  0  0
    1.7087   -4.1444   -1.1801 C   0  0  0  0  0  0  0  0  0  0  0  0
   -0.4331   -5.0466   -0.1285 C   0  0  0  0  0  0  0  0  0  0  0  0
    2.3210   -3.1974   -2.2058 C   0  0  0  0  0  0  0  0  0  0  0  0
   -0.0332   -6.5159   -0.1337 C   0  0  0  0  0  0  0  0  0  0  0  0
    2.3970    3.2207    1.8935 C   0  0  0  0  0  0  0  0  0  0  0  0
   -1.6608    2.0469    4.7654 C   0  0  0  0  0  0  0  0  0  0  0  0
    2.2691  -12.4993   -9.3568 Cl  0  0  0  0  0  0  0  0  0  0  0  0
    2.3756   13.1925    8.1400 Cl  0  0  0  0  0  0  0  0  0  0  0  0
    2.9434  -10.3614   -5.0643 H   0  0  0  0  0  0  0  0  0  0  0  0
    3.4469  -12.0467   -6.8369 H   0  0  0  0  0  0  0  0  0  0  0  0
    0.3133  -10.4808   -9.2858 H   0  0  0  0  0  0  0  0  0  0  0  0
    3.0825    8.4271    7.6486 H   0  0  0  0  0  0  0  0  0  0  0  0
    3.5631   10.6805    8.6116 H   0  0  0  0  0  0  0  0  0  0  0  0
    0.4481   12.4088    6.2499 H   0  0  0  0  0  0  0  0  0  0  0  0
    0.2849   -2.0196    0.6319 H   0  0  0  0  0  0  0  0  0  0  0  0
   -2.5800   -1.2443   -3.4006 H   0  0  0  0  0  0  0  0  0  0  0  0
   -4.1065    0.0089   -0.4160 H   0  0  0  0  0  0  0  0  0  0  0  0
   -4.3793    0.1996   -2.1472 H   0  0  0  0  0  0  0  0  0  0  0  0
   -5.8645    1.6691   -0.8890 H   0  0  0  0  0  0  0  0  0  0  0  0
   -4.7325    2.6657   -1.7934 H   0  0  0  0  0  0  0  0  0  0  0  0
   -4.5106    2.4217   -0.0547 H   0  0  0  0  0  0  0  0  0  0  0  0
   -2.6262    2.7645   -2.5931 H   0  0  0  0  0  0  0  0  0  0  0  0
   -2.7067    1.3044   -3.5803 H   0  0  0  0  0  0  0  0  0  0  0  0
   -0.2671    0.9230   -3.2015 H   0  0  0  0  0  0  0  0  0  0  0  0
   -0.5638    2.5072   -3.9194 H   0  0  0  0  0  0  0  0  0  0  0  0
   -0.1958    2.3729   -2.1989 H   0  0  0  0  0  0  0  0  0  0  0  0
    0.3221    0.0678    2.0124 H   0  0  0  0  0  0  0  0  0  0  0  0
   -2.4668    3.5674   -0.2292 H   0  0  0  0  0  0  0  0  0  0  0  0
   -1.5192   -6.1776   -6.5066 H   0  0  0  0  0  0  0  0  0  0  0  0
   -1.3627    8.2704    3.2059 H   0  0  0  0  0  0  0  0  0  0  0  0
    0.7138    5.3295    4.8167 H   0  0  0  0  0  0  0  0  0  0  0  0
    0.5790   -6.6042   -3.2009 H   0  0  0  0  0  0  0  0  0  0  0  0
    2.2924    3.0516    4.0328 H   0  0  0  0  0  0  0  0  0  0  0  0
    2.1306    1.5161    3.1755 H   0  0  0  0  0  0  0  0  0  0  0  0
    0.1696    0.9425    4.5449 H   0  0  0  0  0  0  0  0  0  0  0  0
    0.3442    2.4706    5.4138 H   0  0  0  0  0  0  0  0  0  0  0  0
    1.9912   -3.8252   -0.1749 H   0  0  0  0  0  0  0  0  0  0  0  0
    2.1053   -5.1466   -1.3436 H   0  0  0  0  0  0  0  0  0  0  0  0
   -1.5216   -4.9748   -0.2015 H   0  0  0  0  0  0  0  0  0  0  0  0
   -0.1363   -4.5942    0.8202 H   0  0  0  0  0  0  0  0  0  0  0  0
    1.9631   -2.1804   -2.0591 H   0  0  0  0  0  0  0  0  0  0  0  0
    2.0653   -3.5092   -3.2160 H   0  0  0  0  0  0  0  0  0  0  0  0
    3.4044   -3.1978   -2.1131 H   0  0  0  0  0  0  0  0  0  0  0  0
   -0.3448   -7.0009   -1.0543 H   0  0  0  0  0  0  0  0  0  0  0  0
   -0.5170   -7.0238    0.6977 H   0  0  0  0  0  0  0  0  0  0  0  0
    1.0406   -6.6351   -0.0223 H   0  0  0  0  0  0  0  0  0  0  0  0
    1.9712    2.7580    1.0054 H   0  0  0  0  0  0  0  0  0  0  0  0
    2.1641    4.2828    1.8740 H   0  0  0  0  0  0  0  0  0  0  0  0
    3.4777    3.1081    1.8554 H   0  0  0  0  0  0  0  0  0  0  0  0
   -1.9378    1.5358    5.6842 H   0  0  0  0  0  0  0  0  0  0  0  0
   -2.1774    1.5684    3.9360 H   0  0  0  0  0  0  0  0  0  0  0  0
   -2.0002    3.0779    4.8334 H   0  0  0  0  0  0  0  0  0  0  0  0
  1  2  2  0  0  0  0
  1  3  1  0  0  0  0
  3  4  2  0  0  0  0
  4  5  1  0  0  0  0
  5  6  2  0  0  0  0
  6  7  1  0  0  0  0
  7  8  2  0  0  0  0
  3  8  1  0  0  0  0
  8  9  1  0  0  0  0
  9 10  2  0  0  0  0
 10 11  1  0  0  0  0
 11 12  3  0  0  0  0
 10 13  1  0  0  0  0
 13 14  3  0  0  0  0
  9 15  1  0  0  0  0
  1 15  1  0  0  0  0
 16 17  2  0  0  0  0
 16 18  1  0  0  0  0
 18 19  2  0  0  0  0
 19 20  1  0  0  0  0
 20 21  2  0  0  0  0
 21 22  1  0  0  0  0
 22 23  2  0  0  0  0
 18 23  1  0  0  0  0
 23 24  1  0  0  0  0
 24 25  2  0  0  0  0
 25 26  1  0  0  0  0
 26 27  3  0  0  0  0
 25 28  1  0  0  0  0
 28 29  3  0  0  0  0
 24 30  1  0  0  0  0
 16 30  1  0  0  0  0
 31 32  1  0  0  0  0
 32 33  2  0  0  0  0
 33 34  1  0  0  0  0
 34 35  2  0  0  0  0
 35 36  1  0  0  0  0
 31 36  2  0  0  0  0
 35 37  1  0  0  0  0
 37 38  1  0  0  0  0
 38 39  1  0  0  0  0
 37 40  1  0  0  0  0
 40 41  1  0  0  0  0
 37 42  1  0  0  0  0
 42 43  2  0  0  0  0
 34 43  1  0  0  0  0
 43 44  1  0  0  0  0
 44 45  2  0  0  0  0
 45 46  1  0  0  0  0
 46 47  2  0  0  0  0
 42 47  1  0  0  0  0
 15 48  2  0  0  0  0
 30 49  2  0  0  0  0
 46 50  1  0  0  0  0
 50 51  2  0  0  0  0
 51 52  1  0  0  0  0
 52 45  1  0  0  0  0
 50 53  1  0  0  0  0
 53 54  1  0  0  0  0
 54 55  2  0  0  0  0
 55 51  1  0  0  0  0
 32 56  1  0  0  0  0
 56 57  1  0  0  0  0
 57 58  2  0  0  0  0
 58 31  1  0  0  0  0
 57 59  1  0  0  0  0
 59 60  2  0  0  0  0
 60 61  1  0  0  0  0
 61 58  1  0  0  0  0
 48 60  1  0  0  0  0
 54 49  1  0  0  0  0
 52 62  1  0  0  0  0
 52 63  1  0  0  0  0
 56 64  1  0  0  0  0
 56 65  1  0  0  0  0
 64 66  1  0  0  0  0
 65 67  1  0  0  0  0
 62 68  1  0  0  0  0
 63 69  1  0  0  0  0
  6 70  1  0  0  0  0
 21 71  1  0  0  0  0
  4 72  1  0  0  0  0
  5 73  1  0  0  0  0
  7 74  1  0  0  0  0
 19 75  1  0  0  0  0
 20 76  1  0  0  0  0
 22 77  1  0  0  0  0
 33 78  1  0  0  0  0
 36 79  1  0  0  0  0
 38 80  1  0  0  0  0
 38 81  1  0  0  0  0
 39 82  1  0  0  0  0
 39 83  1  0  0  0  0
 39 84  1  0  0  0  0
 40 85  1  0  0  0  0
 40 86  1  0  0  0  0
 41 87  1  0  0  0  0
 41 88  1  0  0  0  0
 41 89  1  0  0  0  0
 44 90  1  0  0  0  0
 47 91  1  0  0  0  0
 48 92  1  0  0  0  0
 49 93  1  0  0  0  0
 55 94  1  0  0  0  0
 59 95  1  0  0  0  0
 62 96  1  0  0  0  0
 62 97  1  0  0  0  0
 63 98  1  0  0  0  0
 63 99  1  0  0  0  0
 64100  1  0  0  0  0
 64101  1  0  0  0  0
 65102  1  0  0  0  0
 65103  1  0  0  0  0
 66104  1  0  0  0  0
 66105  1  0  0  0  0
 66106  1  0  0  0  0
 67107  1  0  0  0  0
 67108  1  0  0  0  0
 67109  1  0  0  0  0
 68110  1  0  0  0  0
 68111  1  0  0  0  0
 68112  1  0  0  0  0
 69113  1  0  0  0  0
 69114  1  0  0  0  0
 69115  1  0  0  0  0
M  END
