SCF done       -186.637263090122          0.000947923596
 OpenBabel12282109493D

121131  0  0  0  0  0  0  0  0999 V2000
   -6.1304   -1.3870    3.9261 C   0  0  0  0  0  0  0  0  0  0  0  0
   -5.7718   -2.5079    4.2429 O   0  0  0  0  0  0  0  0  0  0  0  0
   -6.9034   -0.4486    4.7608 C   0  0  0  0  0  0  0  0  0  0  0  0
   -7.3685   -0.6195    6.0462 C   0  0  0  0  0  0  0  0  0  0  0  0
   -8.0807    0.4169    6.6504 C   0  0  0  0  0  0  0  0  0  0  0  0
   -8.2992    1.5903    5.9355 C   0  0  0  0  0  0  0  0  0  0  0  0
   -7.8339    1.7679    4.6396 C   0  0  0  0  0  0  0  0  0  0  0  0
   -7.1268    0.7384    4.0400 C   0  0  0  0  0  0  0  0  0  0  0  0
   -6.5155    0.6120    2.7192 C   0  0  0  0  0  0  0  0  0  0  0  0
   -6.5590    1.5671    1.7353 C   0  0  0  0  0  0  0  0  0  0  0  0
   -7.2005    2.8157    1.8733 C   0  0  0  0  0  0  0  0  0  0  0  0
   -7.6988    3.8495    1.9135 N   0  0  0  0  0  0  0  0  0  0  0  0
   -5.9920    1.4591    0.4491 C   0  0  0  0  0  0  0  0  0  0  0  0
   -5.5621    1.4568   -0.6170 N   0  0  0  0  0  0  0  0  0  0  0  0
   -5.8879   -0.6938    2.6556 C   0  0  0  0  0  0  0  0  0  0  0  0
   -5.1716   -1.1857    1.5936 C   0  0  0  0  0  0  0  0  0  0  0  0
   -4.5284   -2.4166    1.4139 C   0  0  0  0  0  0  0  0  0  0  0  0
   -3.8268   -2.7160    0.2361 C   0  0  0  0  0  0  0  0  0  0  0  0
   -3.2835   -3.9821    0.2444 C   0  0  0  0  0  0  0  0  0  0  0  0
   -3.5423   -4.6548    1.4405 C   0  0  0  0  0  0  0  0  0  0  0  0
   -4.4734   -3.7532    2.5524 S   0  0  0  0  0  0  0  0  0  0  0  0
   -2.9295   -5.9450    1.4227 C   0  0  0  0  0  0  0  0  0  0  0  0
   -2.2705   -6.0829    0.1790 C   0  0  0  0  0  0  0  0  0  0  0  0
   -2.4226   -4.8256   -0.6635 C   0  0  0  0  0  0  0  0  0  0  0  0
   -3.1302   -5.1878   -1.9828 C   0  0  0  0  0  0  0  0  0  0  0  0
   -3.4187   -4.0125   -2.9074 C   0  0  0  0  0  0  0  0  0  0  0  0
   -1.0811   -4.0852   -0.8539 C   0  0  0  0  0  0  0  0  0  0  0  0
   -0.0356   -4.8088   -1.6918 C   0  0  0  0  0  0  0  0  0  0  0  0
   -1.6568   -7.2729   -0.1395 C   0  0  0  0  0  0  0  0  0  0  0  0
   -1.6535   -8.2824    0.8199 C   0  0  0  0  0  0  0  0  0  0  0  0
   -2.2618   -8.1205    2.0791 C   0  0  0  0  0  0  0  0  0  0  0  0
   -2.9384   -6.9583    2.3773 C   0  0  0  0  0  0  0  0  0  0  0  0
   -2.1130   -9.3794    2.9094 C   0  0  0  0  0  0  0  0  0  0  0  0
   -1.2460   -9.1599    4.1675 C   0  0  0  0  0  0  0  0  0  0  0  0
   -1.8263   -8.2362    5.2301 C   0  0  0  0  0  0  0  0  0  0  0  0
   -3.5281   -9.9168    3.2106 C   0  0  0  0  0  0  0  0  0  0  0  0
   -3.5985  -11.2276    3.9831 C   0  0  0  0  0  0  0  0  0  0  0  0
   -1.3389  -10.2745    1.9629 C   0  0  0  0  0  0  0  0  0  0  0  0
   -1.0888   -9.6109    0.7461 C   0  0  0  0  0  0  0  0  0  0  0  0
   -0.3804  -10.2135   -0.2908 C   0  0  0  0  0  0  0  0  0  0  0  0
    0.0896  -11.4895   -0.0879 C   0  0  0  0  0  0  0  0  0  0  0  0
   -0.1349  -12.1422    1.1462 C   0  0  0  0  0  0  0  0  0  0  0  0
   -0.8414  -11.5408    2.1831 C   0  0  0  0  0  0  0  0  0  0  0  0
    0.4958  -13.4216    1.0602 C   0  0  0  0  0  0  0  0  0  0  0  0
    1.1035  -13.5877   -0.1829 C   0  0  0  0  0  0  0  0  0  0  0  0
    0.8867  -12.3671   -1.0332 C   0  0  0  0  0  0  0  0  0  0  0  0
    2.2238  -11.7131   -1.4277 C   0  0  0  0  0  0  0  0  0  0  0  0
    3.0846  -11.3473   -0.2247 C   0  0  0  0  0  0  0  0  0  0  0  0
    0.0822  -12.7039   -2.3031 C   0  0  0  0  0  0  0  0  0  0  0  0
   -1.2609  -13.3575   -2.0014 C   0  0  0  0  0  0  0  0  0  0  0  0
    1.7466  -14.8038   -0.3236 C   0  0  0  0  0  0  0  0  0  0  0  0
    1.6413  -15.5923    0.8193 C   0  0  0  0  0  0  0  0  0  0  0  0
    0.7003  -14.7758    2.0759 S   0  0  0  0  0  0  0  0  0  0  0  0
    2.1117  -16.8752    1.1447 C   0  0  0  0  0  0  0  0  0  0  0  0
    2.9380  -17.7421    0.4771 C   0  0  0  0  0  0  0  0  0  0  0  0
    3.3014  -19.0519    0.9950 C   0  0  0  0  0  0  0  0  0  0  0  0
    2.7160  -19.7259    2.0359 C   0  0  0  0  0  0  0  0  0  0  0  0
    3.1246  -21.0022    2.4771 C   0  0  0  0  0  0  0  0  0  0  0  0
    3.4020  -22.0369    2.8910 N   0  0  0  0  0  0  0  0  0  0  0  0
    1.6107  -19.2908    2.7972 C   0  0  0  0  0  0  0  0  0  0  0  0
    0.7066  -19.0325    3.4580 N   0  0  0  0  0  0  0  0  0  0  0  0
    4.3759  -19.5781    0.1602 C   0  0  0  0  0  0  0  0  0  0  0  0
    5.1353  -20.7355    0.2404 C   0  0  0  0  0  0  0  0  0  0  0  0
    6.0983  -20.9668   -0.7303 C   0  0  0  0  0  0  0  0  0  0  0  0
    6.3258  -20.0808   -1.7811 C   0  0  0  0  0  0  0  0  0  0  0  0
    5.5642  -18.9169   -1.8584 C   0  0  0  0  0  0  0  0  0  0  0  0
    4.6079  -18.6793   -0.8935 C   0  0  0  0  0  0  0  0  0  0  0  0
    3.7015  -17.5205   -0.7707 C   0  0  0  0  0  0  0  0  0  0  0  0
    3.6375  -16.5933   -1.5539 O   0  0  0  0  0  0  0  0  0  0  0  0
    7.3889  -20.3613   -2.7951 C   0  0  0  0  0  0  0  0  0  0  0  0
   -8.5975    0.2524    8.0441 C   0  0  0  0  0  0  0  0  0  0  0  0
   -7.1788   -1.5442    6.5706 H   0  0  0  0  0  0  0  0  0  0  0  0
   -8.8494    2.3941    6.4030 H   0  0  0  0  0  0  0  0  0  0  0  0
   -8.0272    2.6957    4.1268 H   0  0  0  0  0  0  0  0  0  0  0  0
   -5.0655   -0.5295    0.7380 H   0  0  0  0  0  0  0  0  0  0  0  0
   -3.7426   -1.9965   -0.5590 H   0  0  0  0  0  0  0  0  0  0  0  0
   -2.5186   -5.9203   -2.5116 H   0  0  0  0  0  0  0  0  0  0  0  0
   -4.0734   -5.6776   -1.7258 H   0  0  0  0  0  0  0  0  0  0  0  0
   -3.9104   -4.3735   -3.8082 H   0  0  0  0  0  0  0  0  0  0  0  0
   -4.0791   -3.2951   -2.4295 H   0  0  0  0  0  0  0  0  0  0  0  0
   -2.5042   -3.5057   -3.2031 H   0  0  0  0  0  0  0  0  0  0  0  0
   -1.2953   -3.1148   -1.3046 H   0  0  0  0  0  0  0  0  0  0  0  0
   -0.6663   -3.8972    0.1402 H   0  0  0  0  0  0  0  0  0  0  0  0
   -0.4113   -5.0378   -2.6854 H   0  0  0  0  0  0  0  0  0  0  0  0
    0.8397   -4.1720   -1.8014 H   0  0  0  0  0  0  0  0  0  0  0  0
    0.2790   -5.7303   -1.2099 H   0  0  0  0  0  0  0  0  0  0  0  0
   -1.2003   -7.4397   -1.1024 H   0  0  0  0  0  0  0  0  0  0  0  0
   -3.4766   -6.8151    3.3007 H   0  0  0  0  0  0  0  0  0  0  0  0
   -1.0483  -10.1354    4.6147 H   0  0  0  0  0  0  0  0  0  0  0  0
   -0.2852   -8.7559    3.8359 H   0  0  0  0  0  0  0  0  0  0  0  0
   -2.7975   -8.5833    5.5718 H   0  0  0  0  0  0  0  0  0  0  0  0
   -1.1568   -8.2131    6.0876 H   0  0  0  0  0  0  0  0  0  0  0  0
   -1.9245   -7.2213    4.8559 H   0  0  0  0  0  0  0  0  0  0  0  0
   -4.0679   -9.1477    3.7649 H   0  0  0  0  0  0  0  0  0  0  0  0
   -4.0406  -10.0444    2.2529 H   0  0  0  0  0  0  0  0  0  0  0  0
   -3.0639  -11.1630    4.9269 H   0  0  0  0  0  0  0  0  0  0  0  0
   -4.6391  -11.4587    4.2013 H   0  0  0  0  0  0  0  0  0  0  0  0
   -3.1905  -12.0484    3.4003 H   0  0  0  0  0  0  0  0  0  0  0  0
   -0.2024   -9.6878   -1.2168 H   0  0  0  0  0  0  0  0  0  0  0  0
   -0.9688  -12.0625    3.1184 H   0  0  0  0  0  0  0  0  0  0  0  0
    2.7716  -12.4085   -2.0664 H   0  0  0  0  0  0  0  0  0  0  0  0
    2.0135  -10.8140   -2.0105 H   0  0  0  0  0  0  0  0  0  0  0  0
    3.3425  -12.2351    0.3480 H   0  0  0  0  0  0  0  0  0  0  0  0
    4.0065  -10.8757   -0.5561 H   0  0  0  0  0  0  0  0  0  0  0  0
    2.5592  -10.6554    0.4304 H   0  0  0  0  0  0  0  0  0  0  0  0
   -0.0817  -11.7822   -2.8650 H   0  0  0  0  0  0  0  0  0  0  0  0
    0.6812  -13.3744   -2.9223 H   0  0  0  0  0  0  0  0  0  0  0  0
   -1.8790  -12.7047   -1.3886 H   0  0  0  0  0  0  0  0  0  0  0  0
   -1.7913  -13.5634   -2.9281 H   0  0  0  0  0  0  0  0  0  0  0  0
   -1.1226  -14.2972   -1.4716 H   0  0  0  0  0  0  0  0  0  0  0  0
    2.2807  -15.1324   -1.1955 H   0  0  0  0  0  0  0  0  0  0  0  0
    1.7663  -17.2128    2.1152 H   0  0  0  0  0  0  0  0  0  0  0  0
    4.9968  -21.4494    1.0355 H   0  0  0  0  0  0  0  0  0  0  0  0
    6.6925  -21.8670   -0.6691 H   0  0  0  0  0  0  0  0  0  0  0  0
    5.7108  -18.2045   -2.6566 H   0  0  0  0  0  0  0  0  0  0  0  0
    7.1417  -19.9076   -3.7517 H   0  0  0  0  0  0  0  0  0  0  0  0
    8.3379  -19.9416   -2.4591 H   0  0  0  0  0  0  0  0  0  0  0  0
    7.5252  -21.4313   -2.9315 H   0  0  0  0  0  0  0  0  0  0  0  0
   -9.3214   -0.5610    8.0817 H   0  0  0  0  0  0  0  0  0  0  0  0
   -7.7833   -0.0001    8.7218 H   0  0  0  0  0  0  0  0  0  0  0  0
   -9.0776    1.1616    8.3957 H   0  0  0  0  0  0  0  0  0  0  0  0
  1  2  2  0  0  0  0
  1  3  1  0  0  0  0
  3  4  2  0  0  0  0
  4 72  1  0  0  0  0
  4  5  1  0  0  0  0
  5 71  1  0  0  0  0
  6 73  1  0  0  0  0
  6  5  2  0  0  0  0
  7  6  1  0  0  0  0
  8  7  2  0  0  0  0
  8  3  1  0  0  0  0
  9  8  1  0  0  0  0
 10 11  1  0  0  0  0
 10  9  2  0  0  0  0
 11 12  3  0  0  0  0
 13 10  1  0  0  0  0
 14 13  3  0  0  0  0
 15  9  1  0  0  0  0
 15  1  1  0  0  0  0
 16 15  2  0  0  0  0
 17 16  1  0  0  0  0
 17 21  1  0  0  0  0
 18 19  1  0  0  0  0
 18 17  2  0  0  0  0
 19 20  2  0  0  0  0
 20 21  1  0  0  0  0
 22 20  1  0  0  0  0
 22 32  2  0  0  0  0
 23 22  1  0  0  0  0
 24 23  1  0  0  0  0
 24 19  1  0  0  0  0
 25 78  1  0  0  0  0
 25 24  1  0  0  0  0
 26 80  1  0  0  0  0
 26 25  1  0  0  0  0
 27 24  1  0  0  0  0
 27 83  1  0  0  0  0
 28 86  1  0  0  0  0
 28 27  1  0  0  0  0
 29 23  2  0  0  0  0
 29 30  1  0  0  0  0
 30 31  2  0  0  0  0
 31 32  1  0  0  0  0
 31 33  1  0  0  0  0
 32 88  1  0  0  0  0
 33 36  1  0  0  0  0
 33 34  1  0  0  0  0
 34 89  1  0  0  0  0
 34 35  1  0  0  0  0
 35 91  1  0  0  0  0
 35 92  1  0  0  0  0
 36 94  1  0  0  0  0
 36 37  1  0  0  0  0
 37 97  1  0  0  0  0
 37 96  1  0  0  0  0
 38 43  1  0  0  0  0
 38 33  1  0  0  0  0
 39 30  1  0  0  0  0
 39 38  2  0  0  0  0
 40 41  2  0  0  0  0
 40 39  1  0  0  0  0
 41 42  1  0  0  0  0
 42 43  2  0  0  0  0
 43100  1  0  0  0  0
 44 42  1  0  0  0  0
 44 53  1  0  0  0  0
 45 44  2  0  0  0  0
 46 45  1  0  0  0  0
 46 41  1  0  0  0  0
 47 46  1  0  0  0  0
 47 48  1  0  0  0  0
 48103  1  0  0  0  0
 48105  1  0  0  0  0
 49 50  1  0  0  0  0
 49 46  1  0  0  0  0
 50110  1  0  0  0  0
 50108  1  0  0  0  0
 51 45  1  0  0  0  0
 51 52  2  0  0  0  0
 52 54  1  0  0  0  0
 52 53  1  0  0  0  0
 54112  1  0  0  0  0
 55 56  1  0  0  0  0
 55 54  2  0  0  0  0
 56 57  2  0  0  0  0
 57 58  1  0  0  0  0
 57 60  1  0  0  0  0
 58 59  3  0  0  0  0
 60 61  3  0  0  0  0
 62 63  1  0  0  0  0
 62 56  1  0  0  0  0
 63113  1  0  0  0  0
 64114  1  0  0  0  0
 64 63  2  0  0  0  0
 65 64  1  0  0  0  0
 66 65  2  0  0  0  0
 66 67  1  0  0  0  0
 67 68  1  0  0  0  0
 67 62  2  0  0  0  0
 68 55  1  0  0  0  0
 69 68  2  0  0  0  0
 70117  1  0  0  0  0
 70 65  1  0  0  0  0
 71119  1  0  0  0  0
 71121  1  0  0  0  0
 71120  1  0  0  0  0
 74  7  1  0  0  0  0
 75 16  1  0  0  0  0
 76 18  1  0  0  0  0
 77 25  1  0  0  0  0
 79 26  1  0  0  0  0
 81 26  1  0  0  0  0
 82 27  1  0  0  0  0
 84 28  1  0  0  0  0
 85 28  1  0  0  0  0
 87 29  1  0  0  0  0
 90 34  1  0  0  0  0
 93 35  1  0  0  0  0
 95 36  1  0  0  0  0
 98 37  1  0  0  0  0
 99 40  1  0  0  0  0
101 47  1  0  0  0  0
102 47  1  0  0  0  0
104 48  1  0  0  0  0
106 49  1  0  0  0  0
107 49  1  0  0  0  0
109 50  1  0  0  0  0
111 51  1  0  0  0  0
115 66  1  0  0  0  0
116 70  1  0  0  0  0
118 70  1  0  0  0  0
M  END
