FBR.sdf
  xtb     12202113423D
 energy: -149.381046183644 gnorm: 0.000164414879 xtb: 6.4.1 (unknown)
 87 95  0     0  0            999 V2000
   -1.8263   -1.2635    3.2725 C   0  0  0  0  0  0  0  0  0  0  0  0
   -0.6030   -1.7139    2.8124 C   0  0  0  0  0  0  0  0  0  0  0  0
   -0.1606   -1.2973    1.5655 C   0  0  0  0  0  0  0  0  0  0  0  0
   -0.9501   -0.4305    0.7911 C   0  0  0  0  0  0  0  0  0  0  0  0
   -2.1581    0.0260    1.2565 C   0  0  0  0  0  0  0  0  0  0  0  0
   -2.6113   -0.3904    2.5133 C   0  0  0  0  0  0  0  0  0  0  0  0
    1.0527   -1.5922    0.8275 C   0  0  0  0  0  0  0  0  0  0  0  0
    1.0000   -0.9125   -0.4011 C   0  0  0  0  0  0  0  0  0  0  0  0
   -0.2767   -0.1178   -0.5222 C   0  0  0  0  0  0  0  0  0  0  0  0
    2.1511   -2.3796    1.1404 C   0  0  0  0  0  0  0  0  0  0  0  0
    3.1841   -2.4789    0.2272 C   0  0  0  0  0  0  0  0  0  0  0  0
    3.1330   -1.8156   -1.0026 C   0  0  0  0  0  0  0  0  0  0  0  0
    2.0211   -1.0243   -1.3117 C   0  0  0  0  0  0  0  0  0  0  0  0
   -1.1207   -0.5957   -1.7184 C   0  0  0  0  0  0  0  0  0  0  0  0
    0.0066    1.3897   -0.6593 C   0  0  0  0  0  0  0  0  0  0  0  0
    0.8233    1.9458    0.5008 C   0  0  0  0  0  0  0  0  0  0  0  0
   -1.4287   -2.0872   -1.6661 C   0  0  0  0  0  0  0  0  0  0  0  0
    4.2229   -1.9338   -1.9658 C   0  0  0  0  0  0  0  0  0  0  0  0
    3.9674   -1.9620   -3.3600 C   0  0  0  0  0  0  0  0  0  0  0  0
    5.0474   -2.0520   -4.3048 C   0  0  0  0  0  0  0  0  0  0  0  0
    6.4028   -2.0818   -3.8751 C   0  0  0  0  0  0  0  0  0  0  0  0
    6.6043   -2.0707   -2.5018 C   0  0  0  0  0  0  0  0  0  0  0  0
    5.5523   -2.0085   -1.5872 C   0  0  0  0  0  0  0  0  0  0  0  0
    2.7804   -1.9430   -3.9699 N   0  0  0  0  0  0  0  0  0  0  0  0
    3.0058   -2.0266   -5.5569 S   0  0  0  0  0  0  0  0  0  0  0  0
    4.6115   -2.0879   -5.5615 N   0  0  0  0  0  0  0  0  0  0  0  0
    7.4225   -2.0996   -4.8758 C   0  0  0  0  0  0  0  0  0  0  0  0
    8.7655   -2.0038   -4.7520 C   0  0  0  0  0  0  0  0  0  0  0  0
    9.6308   -1.9923   -5.9389 C   0  0  0  0  0  0  0  0  0  0  0  0
   10.9565   -1.8357   -5.5683 N   0  0  0  0  0  0  0  0  0  0  0  0
   11.2247   -1.7305   -4.2445 C   0  0  0  0  0  0  0  0  0  0  0  0
    9.7360   -1.8369   -3.3066 S   0  0  0  0  0  0  0  0  0  0  0  0
   12.7014   -1.5448   -3.5796 S   0  0  0  0  0  0  0  0  0  0  0  0
   11.9942   -1.7418   -6.5773 C   0  0  0  0  0  0  0  0  0  0  0  0
   12.3133   -0.2882   -6.9030 C   0  0  0  0  0  0  0  0  0  0  0  0
    9.2681   -2.1014   -7.0870 O   0  0  0  0  0  0  0  0  0  0  0  0
   -3.8957    0.0911    3.0113 C   0  0  0  0  0  0  0  0  0  0  0  0
   -4.3386    1.4096    2.7368 C   0  0  0  0  0  0  0  0  0  0  0  0
   -5.6156    1.8708    3.2095 C   0  0  0  0  0  0  0  0  0  0  0  0
   -6.4868    1.0131    3.9362 C   0  0  0  0  0  0  0  0  0  0  0  0
   -6.0049   -0.2623    4.1963 C   0  0  0  0  0  0  0  0  0  0  0  0
   -4.7541   -0.6983    3.7571 C   0  0  0  0  0  0  0  0  0  0  0  0
   -3.6830    2.3670    2.0772 N   0  0  0  0  0  0  0  0  0  0  0  0
   -4.5812    3.6970    2.0556 S   0  0  0  0  0  0  0  0  0  0  0  0
   -5.8462    3.1374    2.8734 N   0  0  0  0  0  0  0  0  0  0  0  0
   -7.7676    1.5228    4.3121 C   0  0  0  0  0  0  0  0  0  0  0  0
   -8.8193    0.8974    4.8874 C   0  0  0  0  0  0  0  0  0  0  0  0
  -10.0740    1.6173    5.1423 C   0  0  0  0  0  0  0  0  0  0  0  0
  -11.0180    0.7635    5.6892 N   0  0  0  0  0  0  0  0  0  0  0  0
  -10.6489   -0.5239    5.8935 C   0  0  0  0  0  0  0  0  0  0  0  0
   -8.9774   -0.7702    5.3903 S   0  0  0  0  0  0  0  0  0  0  0  0
  -11.5861   -1.6991    6.5242 S   0  0  0  0  0  0  0  0  0  0  0  0
  -12.3570    1.2394    5.9797 C   0  0  0  0  0  0  0  0  0  0  0  0
  -13.3099    0.9334    4.8312 C   0  0  0  0  0  0  0  0  0  0  0  0
  -10.2835    2.7867    4.9179 O   0  0  0  0  0  0  0  0  0  0  0  0
   -2.1681   -1.5637    4.2521 H   0  0  0  0  0  0  0  0  0  0  0  0
   -0.0030   -2.3754    3.4194 H   0  0  0  0  0  0  0  0  0  0  0  0
   -2.7651    0.6918    0.6646 H   0  0  0  0  0  0  0  0  0  0  0  0
    2.2008   -2.9114    2.0788 H   0  0  0  0  0  0  0  0  0  0  0  0
    4.0327   -3.1081    0.4523 H   0  0  0  0  0  0  0  0  0  0  0  0
    1.9824   -0.5044   -2.2553 H   0  0  0  0  0  0  0  0  0  0  0  0
   -2.0553   -0.0311   -1.7329 H   0  0  0  0  0  0  0  0  0  0  0  0
   -0.5777   -0.3729   -2.6389 H   0  0  0  0  0  0  0  0  0  0  0  0
    0.5419    1.5597   -1.5959 H   0  0  0  0  0  0  0  0  0  0  0  0
   -0.9463    1.9196   -0.7146 H   0  0  0  0  0  0  0  0  0  0  0  0
    0.2884    1.8211    1.4395 H   0  0  0  0  0  0  0  0  0  0  0  0
    1.7804    1.4344    0.5785 H   0  0  0  0  0  0  0  0  0  0  0  0
    1.0109    3.0064    0.3508 H   0  0  0  0  0  0  0  0  0  0  0  0
   -1.9710   -2.3371   -0.7566 H   0  0  0  0  0  0  0  0  0  0  0  0
   -2.0387   -2.3726   -2.5199 H   0  0  0  0  0  0  0  0  0  0  0  0
   -0.5100   -2.6686   -1.6907 H   0  0  0  0  0  0  0  0  0  0  0  0
    7.6113   -2.1071   -2.1163 H   0  0  0  0  0  0  0  0  0  0  0  0
    5.7939   -1.9817   -0.5353 H   0  0  0  0  0  0  0  0  0  0  0  0
    7.0615   -2.1723   -5.8962 H   0  0  0  0  0  0  0  0  0  0  0  0
   11.6112   -2.2558   -7.4620 H   0  0  0  0  0  0  0  0  0  0  0  0
   12.8824   -2.2534   -6.1995 H   0  0  0  0  0  0  0  0  0  0  0  0
   12.6788    0.2267   -6.0176 H   0  0  0  0  0  0  0  0  0  0  0  0
   11.4241    0.2197   -7.2693 H   0  0  0  0  0  0  0  0  0  0  0  0
   13.0803   -0.2481   -7.6706 H   0  0  0  0  0  0  0  0  0  0  0  0
   -6.6160   -0.9529    4.7563 H   0  0  0  0  0  0  0  0  0  0  0  0
   -4.4612   -1.7127    3.9825 H   0  0  0  0  0  0  0  0  0  0  0  0
   -7.9324    2.5681    4.0733 H   0  0  0  0  0  0  0  0  0  0  0  0
  -12.6971    0.7561    6.8985 H   0  0  0  0  0  0  0  0  0  0  0  0
  -12.2746    2.3184    6.1298 H   0  0  0  0  0  0  0  0  0  0  0  0
  -13.3772   -0.1402    4.6708 H   0  0  0  0  0  0  0  0  0  0  0  0
  -14.2991    1.3124    5.0696 H   0  0  0  0  0  0  0  0  0  0  0  0
  -12.9632    1.4094    3.9168 H   0  0  0  0  0  0  0  0  0  0  0  0
  1  2  2  0  0  0  0
  2  3  1  0  0  0  0
  3  4  2  0  0  0  0
  4  5  1  0  0  0  0
  5  6  2  0  0  0  0
  6  1  1  0  0  0  0
  3  7  1  0  0  0  0
  7  8  2  0  0  0  0
  8  9  1  0  0  0  0
  9  4  1  0  0  0  0
  7 10  1  0  0  0  0
 10 11  2  0  0  0  0
 11 12  1  0  0  0  0
 12 13  2  0  0  0  0
 13  8  1  0  0  0  0
  9 14  1  0  0  0  0
  9 15  1  0  0  0  0
 15 16  1  0  0  0  0
 14 17  1  0  0  0  0
 12 18  1  0  0  0  0
 18 19  1  0  0  0  0
 19 20  1  0  0  0  0
 20 21  1  0  0  0  0
 21 22  2  0  0  0  0
 22 23  1  0  0  0  0
 23 18  2  0  0  0  0
 19 24  2  0  0  0  0
 24 25  1  0  0  0  0
 25 26  1  0  0  0  0
 26 20  2  0  0  0  0
 21 27  1  0  0  0  0
 27 28  2  0  0  0  0
 28 29  1  0  0  0  0
 29 30  1  0  0  0  0
 30 31  1  0  0  0  0
 31 32  1  0  0  0  0
 32 28  1  0  0  0  0
 31 33  2  0  0  0  0
 30 34  1  0  0  0  0
 34 35  1  0  0  0  0
 29 36  2  0  0  0  0
 37 38  1  0  0  0  0
 38 39  1  0  0  0  0
 39 40  1  0  0  0  0
 40 41  2  0  0  0  0
 41 42  1  0  0  0  0
 42 37  2  0  0  0  0
 38 43  2  0  0  0  0
 43 44  1  0  0  0  0
 44 45  1  0  0  0  0
 45 39  2  0  0  0  0
 40 46  1  0  0  0  0
 46 47  2  0  0  0  0
 47 48  1  0  0  0  0
 48 49  1  0  0  0  0
 49 50  1  0  0  0  0
 50 51  1  0  0  0  0
 51 47  1  0  0  0  0
 50 52  2  0  0  0  0
 49 53  1  0  0  0  0
 53 54  1  0  0  0  0
 48 55  2  0  0  0  0
 37  6  1  0  0  0  0
  1 56  1  0  0  0  0
  2 57  1  0  0  0  0
  5 58  1  0  0  0  0
 10 59  1  0  0  0  0
 11 60  1  0  0  0  0
 13 61  1  0  0  0  0
 14 62  1  0  0  0  0
 14 63  1  0  0  0  0
 15 64  1  0  0  0  0
 15 65  1  0  0  0  0
 16 66  1  0  0  0  0
 16 67  1  0  0  0  0
 16 68  1  0  0  0  0
 17 69  1  0  0  0  0
 17 70  1  0  0  0  0
 17 71  1  0  0  0  0
 22 72  1  0  0  0  0
 23 73  1  0  0  0  0
 27 74  1  0  0  0  0
 34 75  1  0  0  0  0
 34 76  1  0  0  0  0
 35 77  1  0  0  0  0
 35 78  1  0  0  0  0
 35 79  1  0  0  0  0
 41 80  1  0  0  0  0
 42 81  1  0  0  0  0
 46 82  1  0  0  0  0
 53 83  1  0  0  0  0
 53 84  1  0  0  0  0
 54 85  1  0  0  0  0
 54 86  1  0  0  0  0
 54 87  1  0  0  0  0
M  END
