FDNCTF.sdf
  xtb     12202113443D
 energy: -199.481127056771 gnorm: 0.000512313514 xtb: 6.4.1 (unknown)
127139  0     0  0            999 V2000
   -7.1072   -6.4530   -2.6358 C   0  0  0  0  0  0  0  0  0  0  0  0
   -6.5816   -5.5270   -3.2229 O   0  0  0  0  0  0  0  0  0  0  0  0
   -8.4774   -6.9448   -2.8689 C   0  0  0  0  0  0  0  0  0  0  0  0
   -9.4245   -6.4467   -3.7155 C   0  0  0  0  0  0  0  0  0  0  0  0
  -10.6950   -7.0631   -3.7659 C   0  0  0  0  0  0  0  0  0  0  0  0
  -10.9563   -8.1879   -2.9321 C   0  0  0  0  0  0  0  0  0  0  0  0
   -9.9515   -8.6850   -2.0698 C   0  0  0  0  0  0  0  0  0  0  0  0
   -8.7269   -8.0734   -2.0397 C   0  0  0  0  0  0  0  0  0  0  0  0
   -7.5214   -8.3466   -1.2664 C   0  0  0  0  0  0  0  0  0  0  0  0
   -7.3193   -9.4539   -0.4823 C   0  0  0  0  0  0  0  0  0  0  0  0
   -8.2900  -10.4542   -0.2701 C   0  0  0  0  0  0  0  0  0  0  0  0
   -9.0382  -11.2981   -0.0538 N   0  0  0  0  0  0  0  0  0  0  0  0
   -6.1174   -9.7843    0.1776 C   0  0  0  0  0  0  0  0  0  0  0  0
   -5.1727  -10.1412    0.7255 N   0  0  0  0  0  0  0  0  0  0  0  0
   -6.5624   -7.2921   -1.5450 C   0  0  0  0  0  0  0  0  0  0  0  0
   -5.4553   -7.0605   -0.7688 C   0  0  0  0  0  0  0  0  0  0  0  0
   -4.4294   -6.1093   -0.8936 C   0  0  0  0  0  0  0  0  0  0  0  0
   -4.0527   -5.2739   -1.9407 C   0  0  0  0  0  0  0  0  0  0  0  0
   -2.9764   -4.4649   -1.6162 C   0  0  0  0  0  0  0  0  0  0  0  0
   -2.5136   -4.6780   -0.3177 C   0  0  0  0  0  0  0  0  0  0  0  0
   -3.3769   -5.8948    0.5084 S   0  0  0  0  0  0  0  0  0  0  0  0
   -1.4495   -3.7808   -0.0004 C   0  0  0  0  0  0  0  0  0  0  0  0
   -1.2457   -2.9737   -1.1417 C   0  0  0  0  0  0  0  0  0  0  0  0
   -2.1947   -3.3549   -2.2690 C   0  0  0  0  0  0  0  0  0  0  0  0
   -3.0944   -2.1340   -2.5619 C   0  0  0  0  0  0  0  0  0  0  0  0
   -4.1307   -2.3214   -3.6613 C   0  0  0  0  0  0  0  0  0  0  0  0
   -1.3714   -3.8045   -3.4998 C   0  0  0  0  0  0  0  0  0  0  0  0
   -1.9864   -4.9279   -4.3263 C   0  0  0  0  0  0  0  0  0  0  0  0
   -0.2962   -1.9777   -1.1285 C   0  0  0  0  0  0  0  0  0  0  0  0
    0.4292   -1.7908    0.0449 C   0  0  0  0  0  0  0  0  0  0  0  0
    0.2284   -2.6048    1.1756 C   0  0  0  0  0  0  0  0  0  0  0  0
   -0.7056   -3.6155    1.1646 C   0  0  0  0  0  0  0  0  0  0  0  0
    1.1625   -2.1992    2.2946 C   0  0  0  0  0  0  0  0  0  0  0  0
    0.4116   -1.9065    3.6015 C   0  0  0  0  0  0  0  0  0  0  0  0
   -0.6834   -0.8613    3.4203 C   0  0  0  0  0  0  0  0  0  0  0  0
    2.1863   -3.3468    2.4702 C   0  0  0  0  0  0  0  0  0  0  0  0
    3.3429   -3.0566    3.4172 C   0  0  0  0  0  0  0  0  0  0  0  0
    1.8098   -0.9637    1.7147 C   0  0  0  0  0  0  0  0  0  0  0  0
    1.4067   -0.7777    0.3778 C   0  0  0  0  0  0  0  0  0  0  0  0
    1.8649    0.2904   -0.3886 C   0  0  0  0  0  0  0  0  0  0  0  0
    2.7208    1.1908    0.2051 C   0  0  0  0  0  0  0  0  0  0  0  0
    3.0687    1.0338    1.5675 C   0  0  0  0  0  0  0  0  0  0  0  0
    2.6300   -0.0450    2.3303 C   0  0  0  0  0  0  0  0  0  0  0  0
    3.8433    2.1753    1.9337 C   0  0  0  0  0  0  0  0  0  0  0  0
    3.9933    3.0385    0.8499 C   0  0  0  0  0  0  0  0  0  0  0  0
    3.3266    2.4606   -0.3730 C   0  0  0  0  0  0  0  0  0  0  0  0
    2.1976    3.3636   -0.9062 C   0  0  0  0  0  0  0  0  0  0  0  0
    2.6489    4.6962   -1.4899 C   0  0  0  0  0  0  0  0  0  0  0  0
    4.4295    2.1584   -1.4104 C   0  0  0  0  0  0  0  0  0  0  0  0
    3.9567    1.5047   -2.7018 C   0  0  0  0  0  0  0  0  0  0  0  0
    4.7237    4.1725    1.1576 C   0  0  0  0  0  0  0  0  0  0  0  0
    5.1099    4.2110    2.4946 C   0  0  0  0  0  0  0  0  0  0  0  0
    4.5907    2.7557    3.3528 S   0  0  0  0  0  0  0  0  0  0  0  0
    5.8113    5.1627    3.2521 C   0  0  0  0  0  0  0  0  0  0  0  0
    6.1723    6.4556    2.9673 C   0  0  0  0  0  0  0  0  0  0  0  0
    6.9071    7.2976    3.8958 C   0  0  0  0  0  0  0  0  0  0  0  0
    7.6132    6.8905    4.9994 C   0  0  0  0  0  0  0  0  0  0  0  0
    7.7878    5.5574    5.4257 C   0  0  0  0  0  0  0  0  0  0  0  0
    7.9989    4.5031    5.8311 N   0  0  0  0  0  0  0  0  0  0  0  0
    8.3121    7.7678    5.8541 C   0  0  0  0  0  0  0  0  0  0  0  0
    8.8977    8.4232    6.5933 N   0  0  0  0  0  0  0  0  0  0  0  0
    6.8294    8.6722    3.4142 C   0  0  0  0  0  0  0  0  0  0  0  0
    7.2660    9.8550    3.9487 C   0  0  0  0  0  0  0  0  0  0  0  0
    7.0420   11.0614    3.2452 C   0  0  0  0  0  0  0  0  0  0  0  0
    6.3713   11.0467    1.9888 C   0  0  0  0  0  0  0  0  0  0  0  0
    5.9291    9.8144    1.4575 C   0  0  0  0  0  0  0  0  0  0  0  0
    6.1547    8.6681    2.1623 C   0  0  0  0  0  0  0  0  0  0  0  0
    5.7674    7.2895    1.8139 C   0  0  0  0  0  0  0  0  0  0  0  0
    5.2113    6.9555    0.7853 O   0  0  0  0  0  0  0  0  0  0  0  0
    6.1618   12.2640    1.3120 C   0  0  0  0  0  0  0  0  0  0  0  0
    6.5924   13.4465    1.8498 C   0  0  0  0  0  0  0  0  0  0  0  0
    7.2527   13.4625    3.0872 C   0  0  0  0  0  0  0  0  0  0  0  0
    7.4728   12.2969    3.7695 C   0  0  0  0  0  0  0  0  0  0  0  0
  -12.2299   -8.7896   -2.9837 C   0  0  0  0  0  0  0  0  0  0  0  0
  -13.2000   -8.3058   -3.8189 C   0  0  0  0  0  0  0  0  0  0  0  0
  -12.9412   -7.1987   -4.6404 C   0  0  0  0  0  0  0  0  0  0  0  0
  -11.7151   -6.5911   -4.6148 C   0  0  0  0  0  0  0  0  0  0  0  0
   -9.2090   -5.5898   -4.3368 H   0  0  0  0  0  0  0  0  0  0  0  0
  -10.1826   -9.5343   -1.4467 H   0  0  0  0  0  0  0  0  0  0  0  0
   -5.3664   -7.6709    0.1232 H   0  0  0  0  0  0  0  0  0  0  0  0
   -4.5697   -5.2892   -2.8801 H   0  0  0  0  0  0  0  0  0  0  0  0
   -3.6056   -1.8687   -1.6322 H   0  0  0  0  0  0  0  0  0  0  0  0
   -2.4439   -1.2969   -2.8267 H   0  0  0  0  0  0  0  0  0  0  0  0
   -4.8159   -3.1302   -3.4268 H   0  0  0  0  0  0  0  0  0  0  0  0
   -3.6564   -2.5220   -4.6178 H   0  0  0  0  0  0  0  0  0  0  0  0
   -4.7126   -1.4073   -3.7615 H   0  0  0  0  0  0  0  0  0  0  0  0
   -0.3930   -4.1424   -3.1478 H   0  0  0  0  0  0  0  0  0  0  0  0
   -1.2050   -2.9329   -4.1357 H   0  0  0  0  0  0  0  0  0  0  0  0
   -1.3551   -5.1242   -5.1908 H   0  0  0  0  0  0  0  0  0  0  0  0
   -2.9792   -4.6709   -4.6805 H   0  0  0  0  0  0  0  0  0  0  0  0
   -2.0538   -5.8428   -3.7430 H   0  0  0  0  0  0  0  0  0  0  0  0
   -0.1238   -1.3521   -1.9911 H   0  0  0  0  0  0  0  0  0  0  0  0
   -0.8816   -4.2492    2.0206 H   0  0  0  0  0  0  0  0  0  0  0  0
   -0.0287   -2.8348    3.9706 H   0  0  0  0  0  0  0  0  0  0  0  0
    1.1209   -1.5514    4.3496 H   0  0  0  0  0  0  0  0  0  0  0  0
   -1.1782   -0.6690    4.3693 H   0  0  0  0  0  0  0  0  0  0  0  0
   -1.4293   -1.2033    2.7061 H   0  0  0  0  0  0  0  0  0  0  0  0
   -0.2640    0.0738    3.0550 H   0  0  0  0  0  0  0  0  0  0  0  0
    1.6428   -4.2251    2.8253 H   0  0  0  0  0  0  0  0  0  0  0  0
    2.5924   -3.5869    1.4839 H   0  0  0  0  0  0  0  0  0  0  0  0
    3.9778   -3.9370    3.4886 H   0  0  0  0  0  0  0  0  0  0  0  0
    3.9489   -2.2329    3.0496 H   0  0  0  0  0  0  0  0  0  0  0  0
    2.9886   -2.8168    4.4160 H   0  0  0  0  0  0  0  0  0  0  0  0
    1.5260    0.4123   -1.4053 H   0  0  0  0  0  0  0  0  0  0  0  0
    2.9065   -0.1183    3.3707 H   0  0  0  0  0  0  0  0  0  0  0  0
    1.5098    3.5525   -0.0773 H   0  0  0  0  0  0  0  0  0  0  0  0
    1.6439    2.8083   -1.6651 H   0  0  0  0  0  0  0  0  0  0  0  0
    1.7774    5.2497   -1.8336 H   0  0  0  0  0  0  0  0  0  0  0  0
    3.3120    4.5533   -2.3386 H   0  0  0  0  0  0  0  0  0  0  0  0
    3.1580    5.3014   -0.7462 H   0  0  0  0  0  0  0  0  0  0  0  0
    5.1621    1.5028   -0.9316 H   0  0  0  0  0  0  0  0  0  0  0  0
    4.9352    3.0968   -1.6427 H   0  0  0  0  0  0  0  0  0  0  0  0
    4.8039    1.3829   -3.3735 H   0  0  0  0  0  0  0  0  0  0  0  0
    3.2125    2.1148   -3.2063 H   0  0  0  0  0  0  0  0  0  0  0  0
    3.5374    0.5211   -2.5089 H   0  0  0  0  0  0  0  0  0  0  0  0
    4.9824    4.9595    0.4757 H   0  0  0  0  0  0  0  0  0  0  0  0
    6.0617    4.8119    4.2469 H   0  0  0  0  0  0  0  0  0  0  0  0
    7.7720    9.9017    4.8997 H   0  0  0  0  0  0  0  0  0  0  0  0
    5.4159    9.7821    0.5077 H   0  0  0  0  0  0  0  0  0  0  0  0
    5.6523   12.2452    0.3595 H   0  0  0  0  0  0  0  0  0  0  0  0
    6.4264   14.3756    1.3250 H   0  0  0  0  0  0  0  0  0  0  0  0
    7.5866   14.4037    3.4976 H   0  0  0  0  0  0  0  0  0  0  0  0
    7.9818   12.3040    4.7222 H   0  0  0  0  0  0  0  0  0  0  0  0
  -12.4240   -9.6426   -2.3500 H   0  0  0  0  0  0  0  0  0  0  0  0
  -14.1725   -8.7737   -3.8508 H   0  0  0  0  0  0  0  0  0  0  0  0
  -13.7181   -6.8295   -5.2933 H   0  0  0  0  0  0  0  0  0  0  0  0
  -11.5102   -5.7378   -5.2449 H   0  0  0  0  0  0  0  0  0  0  0  0
  1  2  2  0  0  0  0
  1  3  1  0  0  0  0
  3  4  2  0  0  0  0
  4  5  1  0  0  0  0
  5  6  2  0  0  0  0
  6  7  1  0  0  0  0
  7  8  2  0  0  0  0
  3  8  1  0  0  0  0
  8  9  1  0  0  0  0
  9 10  2  0  0  0  0
 10 11  1  0  0  0  0
 11 12  3  0  0  0  0
 10 13  1  0  0  0  0
 13 14  3  0  0  0  0
  9 15  1  0  0  0  0
  1 15  1  0  0  0  0
 15 16  2  0  0  0  0
 16 17  1  0  0  0  0
 17 18  2  0  0  0  0
 18 19  1  0  0  0  0
 19 20  2  0  0  0  0
 20 21  1  0  0  0  0
 17 21  1  0  0  0  0
 20 22  1  0  0  0  0
 22 23  2  0  0  0  0
 23 24  1  0  0  0  0
 19 24  1  0  0  0  0
 24 25  1  0  0  0  0
 25 26  1  0  0  0  0
 24 27  1  0  0  0  0
 27 28  1  0  0  0  0
 23 29  1  0  0  0  0
 29 30  2  0  0  0  0
 30 31  1  0  0  0  0
 31 32  2  0  0  0  0
 22 32  1  0  0  0  0
 31 33  1  0  0  0  0
 33 34  1  0  0  0  0
 34 35  1  0  0  0  0
 33 36  1  0  0  0  0
 36 37  1  0  0  0  0
 33 38  1  0  0  0  0
 38 39  2  0  0  0  0
 30 39  1  0  0  0  0
 39 40  1  0  0  0  0
 40 41  2  0  0  0  0
 41 42  1  0  0  0  0
 42 43  2  0  0  0  0
 38 43  1  0  0  0  0
 42 44  1  0  0  0  0
 44 45  2  0  0  0  0
 45 46  1  0  0  0  0
 41 46  1  0  0  0  0
 46 47  1  0  0  0  0
 47 48  1  0  0  0  0
 46 49  1  0  0  0  0
 49 50  1  0  0  0  0
 45 51  1  0  0  0  0
 51 52  2  0  0  0  0
 52 53  1  0  0  0  0
 44 53  1  0  0  0  0
 52 54  1  0  0  0  0
 54 55  2  0  0  0  0
 55 56  1  0  0  0  0
 56 57  2  0  0  0  0
 57 58  1  0  0  0  0
 58 59  3  0  0  0  0
 57 60  1  0  0  0  0
 60 61  3  0  0  0  0
 56 62  1  0  0  0  0
 62 63  2  0  0  0  0
 63 64  1  0  0  0  0
 64 65  2  0  0  0  0
 65 66  1  0  0  0  0
 66 67  2  0  0  0  0
 62 67  1  0  0  0  0
 67 68  1  0  0  0  0
 55 68  1  0  0  0  0
 68 69  2  0  0  0  0
 65 70  1  0  0  0  0
 70 71  2  0  0  0  0
 71 72  1  0  0  0  0
 72 73  2  0  0  0  0
 73 64  1  0  0  0  0
  6 74  1  0  0  0  0
 74 75  2  0  0  0  0
 75 76  1  0  0  0  0
 76 77  2  0  0  0  0
 77  5  1  0  0  0  0
  4 78  1  0  0  0  0
  7 79  1  0  0  0  0
 16 80  1  0  0  0  0
 18 81  1  0  0  0  0
 25 82  1  0  0  0  0
 25 83  1  0  0  0  0
 26 84  1  0  0  0  0
 26 85  1  0  0  0  0
 26 86  1  0  0  0  0
 27 87  1  0  0  0  0
 27 88  1  0  0  0  0
 28 89  1  0  0  0  0
 28 90  1  0  0  0  0
 28 91  1  0  0  0  0
 29 92  1  0  0  0  0
 32 93  1  0  0  0  0
 34 94  1  0  0  0  0
 34 95  1  0  0  0  0
 35 96  1  0  0  0  0
 35 97  1  0  0  0  0
 35 98  1  0  0  0  0
 36 99  1  0  0  0  0
 36100  1  0  0  0  0
 37101  1  0  0  0  0
 37102  1  0  0  0  0
 37103  1  0  0  0  0
 40104  1  0  0  0  0
 43105  1  0  0  0  0
 47106  1  0  0  0  0
 47107  1  0  0  0  0
 48108  1  0  0  0  0
 48109  1  0  0  0  0
 48110  1  0  0  0  0
 49111  1  0  0  0  0
 49112  1  0  0  0  0
 50113  1  0  0  0  0
 50114  1  0  0  0  0
 50115  1  0  0  0  0
 51116  1  0  0  0  0
 54117  1  0  0  0  0
 63118  1  0  0  0  0
 66119  1  0  0  0  0
 70120  1  0  0  0  0
 71121  1  0  0  0  0
 72122  1  0  0  0  0
 73123  1  0  0  0  0
 74124  1  0  0  0  0
 75125  1  0  0  0  0
 76126  1  0  0  0  0
 77127  1  0  0  0  0
M  END
