FNIC1.sdf
  xtb     12222116553D
 energy: -295.497552308499 gnorm: 0.000351716996 xtb: 6.4.1 (unknown)
170188  0     0  0            999 V2000
   -8.0698    6.2440    0.4500 C   0  0  0  0  0  0  0  0  0  0  0  0
   -8.0816    7.4934    1.0301 C   0  0  0  0  0  0  0  0  0  0  0  0
   -9.2536    8.3147    1.2437 C   0  0  0  0  0  0  0  0  0  0  0  0
   -8.8074    9.5559    1.8819 C   0  0  0  0  0  0  0  0  0  0  0  0
   -7.4150    9.4974    2.0579 C   0  0  0  0  0  0  0  0  0  0  0  0
   -6.9106    8.2101    1.5336 C   0  0  0  0  0  0  0  0  0  0  0  0
   -5.7486    7.8448    1.5312 O   0  0  0  0  0  0  0  0  0  0  0  0
  -10.5560    8.0186    0.9309 C   0  0  0  0  0  0  0  0  0  0  0  0
  -11.6450    8.8799    1.1819 C   0  0  0  0  0  0  0  0  0  0  0  0
  -12.5758    9.5280    1.3583 N   0  0  0  0  0  0  0  0  0  0  0  0
  -11.0110    6.8294    0.3244 C   0  0  0  0  0  0  0  0  0  0  0  0
  -11.4675    5.8940   -0.1622 N   0  0  0  0  0  0  0  0  0  0  0  0
   -9.5069   10.6769    2.2990 C   0  0  0  0  0  0  0  0  0  0  0  0
   -8.7911   11.7117    2.8839 C   0  0  0  0  0  0  0  0  0  0  0  0
   -7.4089   11.6427    3.0550 C   0  0  0  0  0  0  0  0  0  0  0  0
   -6.7017   10.5256    2.6398 C   0  0  0  0  0  0  0  0  0  0  0  0
    7.3181   -7.6364    0.8982 C   0  0  0  0  0  0  0  0  0  0  0  0
    8.5799   -7.8878    1.3873 C   0  0  0  0  0  0  0  0  0  0  0  0
    9.1478   -9.2216    1.4714 C   0  0  0  0  0  0  0  0  0  0  0  0
   10.4614   -9.1081    2.1075 C   0  0  0  0  0  0  0  0  0  0  0  0
   10.7125   -7.7547    2.3767 C   0  0  0  0  0  0  0  0  0  0  0  0
    9.5627   -6.9339    1.9336 C   0  0  0  0  0  0  0  0  0  0  0  0
   11.4060  -10.0638    2.4494 C   0  0  0  0  0  0  0  0  0  0  0  0
   12.5792   -9.6342    3.0516 C   0  0  0  0  0  0  0  0  0  0  0  0
   12.8199   -8.2852    3.3116 C   0  0  0  0  0  0  0  0  0  0  0  0
   11.8808   -7.3249    2.9737 C   0  0  0  0  0  0  0  0  0  0  0  0
    9.4981   -5.7247    2.0269 O   0  0  0  0  0  0  0  0  0  0  0  0
    8.6009  -10.4010    1.0343 C   0  0  0  0  0  0  0  0  0  0  0  0
    7.3583  -10.5705    0.3865 C   0  0  0  0  0  0  0  0  0  0  0  0
    9.2289  -11.6587    1.1637 C   0  0  0  0  0  0  0  0  0  0  0  0
    9.6738  -12.7143    1.2366 N   0  0  0  0  0  0  0  0  0  0  0  0
    6.3734  -10.8186   -0.1509 N   0  0  0  0  0  0  0  0  0  0  0  0
   -7.0167    5.3593    0.2150 C   0  0  0  0  0  0  0  0  0  0  0  0
   -5.3190    5.6081    0.6178 S   0  0  0  0  0  0  0  0  0  0  0  0
   -4.9520    4.0572    0.0054 C   0  0  0  0  0  0  0  0  0  0  0  0
   -6.0745    3.3659   -0.4917 C   0  0  0  0  0  0  0  0  0  0  0  0
   -7.2269    4.1020   -0.3815 C   0  0  0  0  0  0  0  0  0  0  0  0
   -3.8183    3.2293   -0.1401 C   0  0  0  0  0  0  0  0  0  0  0  0
   -4.2002    2.0284   -0.7370 C   0  0  0  0  0  0  0  0  0  0  0  0
   -5.6783    2.0119   -1.0373 C   0  0  0  0  0  0  0  0  0  0  0  0
   -2.1368    3.3071    0.2543 S   0  0  0  0  0  0  0  0  0  0  0  0
   -1.9301    1.6991   -0.3652 C   0  0  0  0  0  0  0  0  0  0  0  0
   -3.1255    1.1520   -0.8421 C   0  0  0  0  0  0  0  0  0  0  0  0
   -0.8355    0.8011   -0.4108 C   0  0  0  0  0  0  0  0  0  0  0  0
   -1.2573   -0.4638   -0.8965 C   0  0  0  0  0  0  0  0  0  0  0  0
   -2.9444   -0.4883   -1.3723 S   0  0  0  0  0  0  0  0  0  0  0  0
    0.5013    0.9962   -0.0252 C   0  0  0  0  0  0  0  0  0  0  0  0
    1.3336   -0.1131   -0.0732 C   0  0  0  0  0  0  0  0  0  0  0  0
    0.9008   -1.3887   -0.5146 C   0  0  0  0  0  0  0  0  0  0  0  0
   -0.4150   -1.5638   -0.9784 C   0  0  0  0  0  0  0  0  0  0  0  0
    3.0172   -0.0882    0.4178 S   0  0  0  0  0  0  0  0  0  0  0  0
    3.1351   -1.7931    0.1185 C   0  0  0  0  0  0  0  0  0  0  0  0
    1.9441   -2.3361   -0.3729 C   0  0  0  0  0  0  0  0  0  0  0  0
    4.1315   -2.7481    0.2975 C   0  0  0  0  0  0  0  0  0  0  0  0
    3.6713   -4.0232   -0.0301 C   0  0  0  0  0  0  0  0  0  0  0  0
    2.0354   -4.0552   -0.5946 S   0  0  0  0  0  0  0  0  0  0  0  0
    5.5557   -2.7901    0.7915 C   0  0  0  0  0  0  0  0  0  0  0  0
    5.8186   -4.2777    0.7330 C   0  0  0  0  0  0  0  0  0  0  0  0
    4.6968   -4.9572    0.2253 C   0  0  0  0  0  0  0  0  0  0  0  0
    6.8774   -5.1123    1.0164 C   0  0  0  0  0  0  0  0  0  0  0  0
    6.5879   -6.4519    0.7492 C   0  0  0  0  0  0  0  0  0  0  0  0
    4.9459   -6.6380    0.1049 S   0  0  0  0  0  0  0  0  0  0  0  0
   -9.4492   12.8028    3.2930 F   0  0  0  0  0  0  0  0  0  0  0  0
   -6.7588   12.6651    3.6254 F   0  0  0  0  0  0  0  0  0  0  0  0
   13.9680   -7.9159    3.8942 F   0  0  0  0  0  0  0  0  0  0  0  0
   13.5019  -10.5422    3.3912 F   0  0  0  0  0  0  0  0  0  0  0  0
   -6.2897    0.8238   -0.3179 C   0  0  0  0  0  0  0  0  0  0  0  0
   -6.0033    1.9843   -2.5207 C   0  0  0  0  0  0  0  0  0  0  0  0
   -5.0432    2.2446   -3.4866 C   0  0  0  0  0  0  0  0  0  0  0  0
   -5.3838    2.2432   -4.8273 C   0  0  0  0  0  0  0  0  0  0  0  0
   -6.6866    1.9910   -5.2339 C   0  0  0  0  0  0  0  0  0  0  0  0
   -7.6460    1.7430   -4.2599 C   0  0  0  0  0  0  0  0  0  0  0  0
   -7.3111    1.7391   -2.9200 C   0  0  0  0  0  0  0  0  0  0  0  0
   -6.8884    0.9468    0.9267 C   0  0  0  0  0  0  0  0  0  0  0  0
   -7.3823   -0.1709    1.5754 C   0  0  0  0  0  0  0  0  0  0  0  0
   -7.2743   -1.4334    1.0087 C   0  0  0  0  0  0  0  0  0  0  0  0
   -6.6658   -1.5496   -0.2348 C   0  0  0  0  0  0  0  0  0  0  0  0
   -6.1803   -0.4367   -0.8923 C   0  0  0  0  0  0  0  0  0  0  0  0
   -7.0597    2.0389   -6.6872 C   0  0  0  0  0  0  0  0  0  0  0  0
   -7.4295    3.4664   -7.0953 C   0  0  0  0  0  0  0  0  0  0  0  0
   -7.8464   -2.6380    1.6980 C   0  0  0  0  0  0  0  0  0  0  0  0
   -9.3022   -2.8509    1.2779 C   0  0  0  0  0  0  0  0  0  0  0  0
    6.5485   -2.1026   -0.1318 C   0  0  0  0  0  0  0  0  0  0  0  0
    5.6037   -2.1841    2.1824 C   0  0  0  0  0  0  0  0  0  0  0  0
    6.2038   -1.6886   -1.4090 C   0  0  0  0  0  0  0  0  0  0  0  0
    7.1472   -1.0938   -2.2279 C   0  0  0  0  0  0  0  0  0  0  0  0
    8.4522   -0.9056   -1.7954 C   0  0  0  0  0  0  0  0  0  0  0  0
    8.7928   -1.3341   -0.5180 C   0  0  0  0  0  0  0  0  0  0  0  0
    7.8554   -1.9254    0.3055 C   0  0  0  0  0  0  0  0  0  0  0  0
    5.5655   -2.9662    3.3267 C   0  0  0  0  0  0  0  0  0  0  0  0
    5.5714   -2.3727    4.5762 C   0  0  0  0  0  0  0  0  0  0  0  0
    5.5998   -0.9915    4.7126 C   0  0  0  0  0  0  0  0  0  0  0  0
    5.6273   -0.2146    3.5612 C   0  0  0  0  0  0  0  0  0  0  0  0
    5.6297   -0.8009    2.3108 C   0  0  0  0  0  0  0  0  0  0  0  0
    9.4847   -0.3024   -2.7031 C   0  0  0  0  0  0  0  0  0  0  0  0
   10.1972   -1.3958   -3.5018 C   0  0  0  0  0  0  0  0  0  0  0  0
    5.6543   -0.3536    6.0706 C   0  0  0  0  0  0  0  0  0  0  0  0
    7.1069   -0.1841    6.5207 C   0  0  0  0  0  0  0  0  0  0  0  0
   -0.8623   -2.8337   -1.5219 C   0  0  0  0  0  0  0  0  0  0  0  0
   -0.2693   -3.5817   -2.4978 C   0  0  0  0  0  0  0  0  0  0  0  0
   -0.9802   -4.7595   -2.8018 C   0  0  0  0  0  0  0  0  0  0  0  0
   -2.1112   -4.9147   -2.0614 C   0  0  0  0  0  0  0  0  0  0  0  0
   -2.3272   -3.5896   -0.9660 S   0  0  0  0  0  0  0  0  0  0  0  0
   -3.0750   -6.0502   -2.0673 C   0  0  0  0  0  0  0  0  0  0  0  0
   -2.8672   -6.9560   -0.8515 C   0  0  0  0  0  0  0  0  0  0  0  0
    1.0210    2.2857    0.3979 C   0  0  0  0  0  0  0  0  0  0  0  0
    1.7262    2.5776    1.5287 C   0  0  0  0  0  0  0  0  0  0  0  0
    2.1311    3.9263    1.5940 C   0  0  0  0  0  0  0  0  0  0  0  0
    1.7553    4.6590    0.5114 C   0  0  0  0  0  0  0  0  0  0  0  0
    0.8814    3.6857   -0.6250 S   0  0  0  0  0  0  0  0  0  0  0  0
    2.0359    6.0907    0.2130 C   0  0  0  0  0  0  0  0  0  0  0  0
    3.0831    6.2323   -0.8936 C   0  0  0  0  0  0  0  0  0  0  0  0
   -9.0261    5.8583    0.1182 H   0  0  0  0  0  0  0  0  0  0  0  0
  -10.5738   10.7817    2.1910 H   0  0  0  0  0  0  0  0  0  0  0  0
   -5.6328   10.4671    2.7693 H   0  0  0  0  0  0  0  0  0  0  0  0
    6.7650   -8.5098    0.5743 H   0  0  0  0  0  0  0  0  0  0  0  0
   11.2721  -11.1179    2.2724 H   0  0  0  0  0  0  0  0  0  0  0  0
   12.0592   -6.2801    3.1724 H   0  0  0  0  0  0  0  0  0  0  0  0
   -8.2042    3.7807   -0.6951 H   0  0  0  0  0  0  0  0  0  0  0  0
    7.8285   -4.8035    1.4085 H   0  0  0  0  0  0  0  0  0  0  0  0
   -4.0224    2.4473   -3.1974 H   0  0  0  0  0  0  0  0  0  0  0  0
   -4.6223    2.4400   -5.5684 H   0  0  0  0  0  0  0  0  0  0  0  0
   -8.6671    1.5478   -4.5544 H   0  0  0  0  0  0  0  0  0  0  0  0
   -8.0664    1.5334   -2.1755 H   0  0  0  0  0  0  0  0  0  0  0  0
   -6.9734    1.9173    1.3935 H   0  0  0  0  0  0  0  0  0  0  0  0
   -7.8529   -0.0584    2.5418 H   0  0  0  0  0  0  0  0  0  0  0  0
   -6.5661   -2.5230   -0.6927 H   0  0  0  0  0  0  0  0  0  0  0  0
   -5.7163   -0.5440   -1.8621 H   0  0  0  0  0  0  0  0  0  0  0  0
   -7.9097    1.3798   -6.8737 H   0  0  0  0  0  0  0  0  0  0  0  0
   -6.2207    1.6966   -7.2965 H   0  0  0  0  0  0  0  0  0  0  0  0
   -7.7008    3.5031   -8.1476 H   0  0  0  0  0  0  0  0  0  0  0  0
   -6.5894    4.1372   -6.9291 H   0  0  0  0  0  0  0  0  0  0  0  0
   -8.2720    3.8218   -6.5063 H   0  0  0  0  0  0  0  0  0  0  0  0
   -7.2633   -3.5237    1.4380 H   0  0  0  0  0  0  0  0  0  0  0  0
   -7.8003   -2.5032    2.7804 H   0  0  0  0  0  0  0  0  0  0  0  0
   -9.9028   -1.9832    1.5413 H   0  0  0  0  0  0  0  0  0  0  0  0
   -9.7178   -3.7246    1.7744 H   0  0  0  0  0  0  0  0  0  0  0  0
   -9.3678   -2.9980    0.2022 H   0  0  0  0  0  0  0  0  0  0  0  0
    5.1956   -1.8249   -1.7722 H   0  0  0  0  0  0  0  0  0  0  0  0
    6.8611   -0.7702   -3.2185 H   0  0  0  0  0  0  0  0  0  0  0  0
    9.8045   -1.2014   -0.1630 H   0  0  0  0  0  0  0  0  0  0  0  0
    8.1351   -2.2460    1.2979 H   0  0  0  0  0  0  0  0  0  0  0  0
    5.5374   -4.0430    3.2472 H   0  0  0  0  0  0  0  0  0  0  0  0
    5.5496   -2.9953    5.4592 H   0  0  0  0  0  0  0  0  0  0  0  0
    5.6465    0.8626    3.6431 H   0  0  0  0  0  0  0  0  0  0  0  0
    5.6591   -0.1819    1.4257 H   0  0  0  0  0  0  0  0  0  0  0  0
    9.0086    0.3960   -3.3941 H   0  0  0  0  0  0  0  0  0  0  0  0
   10.2200    0.2478   -2.1126 H   0  0  0  0  0  0  0  0  0  0  0  0
   10.9470   -0.9601   -4.1579 H   0  0  0  0  0  0  0  0  0  0  0  0
   10.6876   -2.0965   -2.8299 H   0  0  0  0  0  0  0  0  0  0  0  0
    9.4828   -1.9479   -4.1086 H   0  0  0  0  0  0  0  0  0  0  0  0
    5.1236   -0.9751    6.7945 H   0  0  0  0  0  0  0  0  0  0  0  0
    5.1709    0.6249    6.0398 H   0  0  0  0  0  0  0  0  0  0  0  0
    7.6022   -1.1510    6.5716 H   0  0  0  0  0  0  0  0  0  0  0  0
    7.1492    0.2804    7.5030 H   0  0  0  0  0  0  0  0  0  0  0  0
    7.6504    0.4414    5.8161 H   0  0  0  0  0  0  0  0  0  0  0  0
    0.6278   -3.2782   -3.0074 H   0  0  0  0  0  0  0  0  0  0  0  0
   -0.6627   -5.4653   -3.5484 H   0  0  0  0  0  0  0  0  0  0  0  0
   -2.9332   -6.6270   -2.9835 H   0  0  0  0  0  0  0  0  0  0  0  0
   -4.0975   -5.6655   -2.0579 H   0  0  0  0  0  0  0  0  0  0  0  0
   -3.0191   -6.3937    0.0671 H   0  0  0  0  0  0  0  0  0  0  0  0
   -1.8565   -7.3573   -0.8478 H   0  0  0  0  0  0  0  0  0  0  0  0
   -3.5710   -7.7841   -0.8739 H   0  0  0  0  0  0  0  0  0  0  0  0
    1.9214    1.8569    2.3028 H   0  0  0  0  0  0  0  0  0  0  0  0
    2.6806    4.3384    2.4215 H   0  0  0  0  0  0  0  0  0  0  0  0
    2.3941    6.5747    1.1238 H   0  0  0  0  0  0  0  0  0  0  0  0
    1.1144    6.5878   -0.0997 H   0  0  0  0  0  0  0  0  0  0  0  0
    4.0131    5.7518   -0.5980 H   0  0  0  0  0  0  0  0  0  0  0  0
    2.7283    5.7644   -1.8092 H   0  0  0  0  0  0  0  0  0  0  0  0
    3.2811    7.2822   -1.0929 H   0  0  0  0  0  0  0  0  0  0  0  0
  1  2  2  0  0  0  0
  2  3  1  0  0  0  0
  3  4  1  0  0  0  0
  4  5  2  0  0  0  0
  5  6  1  0  0  0  0
  6  2  1  0  0  0  0
  6  7  2  0  0  0  0
  3  8  2  0  0  0  0
  8  9  1  0  0  0  0
  9 10  3  0  0  0  0
  8 11  1  0  0  0  0
 11 12  3  0  0  0  0
  4 13  1  0  0  0  0
 13 14  2  0  0  0  0
 14 15  1  0  0  0  0
 15 16  2  0  0  0  0
 16  5  1  0  0  0  0
 17 18  2  0  0  0  0
 18 19  1  0  0  0  0
 19 20  1  0  0  0  0
 20 21  2  0  0  0  0
 21 22  1  0  0  0  0
 22 18  1  0  0  0  0
 20 23  1  0  0  0  0
 23 24  2  0  0  0  0
 24 25  1  0  0  0  0
 25 26  2  0  0  0  0
 26 21  1  0  0  0  0
 22 27  2  0  0  0  0
 19 28  2  0  0  0  0
 28 29  1  0  0  0  0
 28 30  1  0  0  0  0
 30 31  3  0  0  0  0
 29 32  3  0  0  0  0
  1 33  1  0  0  0  0
 33 34  1  0  0  0  0
 34 35  1  0  0  0  0
 35 36  2  0  0  0  0
 36 37  1  0  0  0  0
 37 33  2  0  0  0  0
 35 38  1  0  0  0  0
 38 39  2  0  0  0  0
 39 40  1  0  0  0  0
 40 36  1  0  0  0  0
 38 41  1  0  0  0  0
 41 42  1  0  0  0  0
 42 43  2  0  0  0  0
 43 39  1  0  0  0  0
 42 44  1  0  0  0  0
 44 45  2  0  0  0  0
 45 46  1  0  0  0  0
 46 43  1  0  0  0  0
 44 47  1  0  0  0  0
 47 48  2  0  0  0  0
 48 49  1  0  0  0  0
 49 50  2  0  0  0  0
 50 45  1  0  0  0  0
 48 51  1  0  0  0  0
 51 52  1  0  0  0  0
 52 53  2  0  0  0  0
 53 49  1  0  0  0  0
 52 54  1  0  0  0  0
 54 55  2  0  0  0  0
 55 56  1  0  0  0  0
 56 53  1  0  0  0  0
 54 57  1  0  0  0  0
 57 58  1  0  0  0  0
 58 59  2  0  0  0  0
 59 55  1  0  0  0  0
 58 60  1  0  0  0  0
 60 61  2  0  0  0  0
 61 62  1  0  0  0  0
 62 59  1  0  0  0  0
 61 17  1  0  0  0  0
 14 63  1  0  0  0  0
 15 64  1  0  0  0  0
 25 65  1  0  0  0  0
 24 66  1  0  0  0  0
 68 69  2  0  0  0  0
 69 70  1  0  0  0  0
 70 71  2  0  0  0  0
 71 72  1  0  0  0  0
 72 73  2  0  0  0  0
 73 68  1  0  0  0  0
 67 74  2  0  0  0  0
 74 75  1  0  0  0  0
 75 76  2  0  0  0  0
 76 77  1  0  0  0  0
 77 78  2  0  0  0  0
 78 67  1  0  0  0  0
 71 79  1  0  0  0  0
 79 80  1  0  0  0  0
 76 81  1  0  0  0  0
 81 82  1  0  0  0  0
 83 85  2  0  0  0  0
 85 86  1  0  0  0  0
 86 87  2  0  0  0  0
 87 88  1  0  0  0  0
 88 89  2  0  0  0  0
 89 83  1  0  0  0  0
 84 90  2  0  0  0  0
 90 91  1  0  0  0  0
 91 92  2  0  0  0  0
 92 93  1  0  0  0  0
 93 94  2  0  0  0  0
 94 84  1  0  0  0  0
 87 95  1  0  0  0  0
 95 96  1  0  0  0  0
 92 97  1  0  0  0  0
 97 98  1  0  0  0  0
 40 68  1  0  0  0  0
 40 67  1  0  0  0  0
 50 99  1  0  0  0  0
 99100  2  0  0  0  0
100101  1  0  0  0  0
101102  2  0  0  0  0
102103  1  0  0  0  0
103 99  1  0  0  0  0
102104  1  0  0  0  0
104105  1  0  0  0  0
 47106  1  0  0  0  0
106107  2  0  0  0  0
107108  1  0  0  0  0
108109  2  0  0  0  0
109110  1  0  0  0  0
110106  1  0  0  0  0
109111  1  0  0  0  0
111112  1  0  0  0  0
 57 83  1  0  0  0  0
 84 57  1  0  0  0  0
  1113  1  0  0  0  0
 13114  1  0  0  0  0
 16115  1  0  0  0  0
 17116  1  0  0  0  0
 23117  1  0  0  0  0
 26118  1  0  0  0  0
 37119  1  0  0  0  0
 60120  1  0  0  0  0
 69121  1  0  0  0  0
 70122  1  0  0  0  0
 72123  1  0  0  0  0
 73124  1  0  0  0  0
 74125  1  0  0  0  0
 75126  1  0  0  0  0
 77127  1  0  0  0  0
 78128  1  0  0  0  0
 79129  1  0  0  0  0
 79130  1  0  0  0  0
 80131  1  0  0  0  0
 80132  1  0  0  0  0
 80133  1  0  0  0  0
 81134  1  0  0  0  0
 81135  1  0  0  0  0
 82136  1  0  0  0  0
 82137  1  0  0  0  0
 82138  1  0  0  0  0
 85139  1  0  0  0  0
 86140  1  0  0  0  0
 88141  1  0  0  0  0
 89142  1  0  0  0  0
 90143  1  0  0  0  0
 91144  1  0  0  0  0
 93145  1  0  0  0  0
 94146  1  0  0  0  0
 95147  1  0  0  0  0
 95148  1  0  0  0  0
 96149  1  0  0  0  0
 96150  1  0  0  0  0
 96151  1  0  0  0  0
 97152  1  0  0  0  0
 97153  1  0  0  0  0
 98154  1  0  0  0  0
 98155  1  0  0  0  0
 98156  1  0  0  0  0
100157  1  0  0  0  0
101158  1  0  0  0  0
104159  1  0  0  0  0
104160  1  0  0  0  0
105161  1  0  0  0  0
105162  1  0  0  0  0
105163  1  0  0  0  0
107164  1  0  0  0  0
108165  1  0  0  0  0
111166  1  0  0  0  0
111167  1  0  0  0  0
112168  1  0  0  0  0
112169  1  0  0  0  0
112170  1  0  0  0  0
M  END
