FO-2F.sdf
  xtb     12202113513D
 energy: -205.334756297455 gnorm: 0.000313553894 xtb: 6.4.1 (unknown)
117127  0     0  0            999 V2000
    5.1607    5.2858    6.3212 C   0  0  0  0  0  0  0  0  0  0  0  0
    4.3150    4.6190    6.8828 O   0  0  0  0  0  0  0  0  0  0  0  0
    5.9591    6.3529    6.9638 C   0  0  0  0  0  0  0  0  0  0  0  0
    5.8693    6.8125    8.2627 C   0  0  0  0  0  0  0  0  0  0  0  0
    6.7208    7.8373    8.6410 C   0  0  0  0  0  0  0  0  0  0  0  0
    6.6677    8.3183    9.8892 F   0  0  0  0  0  0  0  0  0  0  0  0
    7.6322    8.3739    7.7312 C   0  0  0  0  0  0  0  0  0  0  0  0
    8.4408    9.3657    8.1214 F   0  0  0  0  0  0  0  0  0  0  0  0
    7.7236    7.9080    6.4280 C   0  0  0  0  0  0  0  0  0  0  0  0
    6.8738    6.8828    6.0416 C   0  0  0  0  0  0  0  0  0  0  0  0
    6.7152    6.1776    4.7692 C   0  0  0  0  0  0  0  0  0  0  0  0
    7.4975    6.3901    3.6636 C   0  0  0  0  0  0  0  0  0  0  0  0
    8.5377    7.3431    3.6043 C   0  0  0  0  0  0  0  0  0  0  0  0
    9.3935    8.0979    3.4815 N   0  0  0  0  0  0  0  0  0  0  0  0
    7.4225    5.7053    2.4314 C   0  0  0  0  0  0  0  0  0  0  0  0
    7.4520    5.2016    1.3993 N   0  0  0  0  0  0  0  0  0  0  0  0
    5.6244    5.2291    4.9217 C   0  0  0  0  0  0  0  0  0  0  0  0
    5.1277    4.4807    3.8809 C   0  0  0  0  0  0  0  0  0  0  0  0
    4.0686    3.5647    3.8079 C   0  0  0  0  0  0  0  0  0  0  0  0
    3.1801    3.0619    4.7526 C   0  0  0  0  0  0  0  0  0  0  0  0
    2.2500    2.1818    4.2211 C   0  0  0  0  0  0  0  0  0  0  0  0
    2.4062    1.9878    2.8527 C   0  0  0  0  0  0  0  0  0  0  0  0
    3.7176    2.8968    2.2175 S   0  0  0  0  0  0  0  0  0  0  0  0
    1.4881    1.1991    2.0977 C   0  0  0  0  0  0  0  0  0  0  0  0
    0.3110    0.8130    2.7771 C   0  0  0  0  0  0  0  0  0  0  0  0
    0.0869    1.1023    4.0724 O   0  0  0  0  0  0  0  0  0  0  0  0
    1.1917    1.3959    4.9487 C   0  0  0  0  0  0  0  0  0  0  0  0
    0.5949    2.2155    6.1031 C   0  0  0  0  0  0  0  0  0  0  0  0
   -0.5039    1.4835    6.8644 C   0  0  0  0  0  0  0  0  0  0  0  0
    1.7905    0.0405    5.3919 C   0  0  0  0  0  0  0  0  0  0  0  0
    2.9162    0.1533    6.4096 C   0  0  0  0  0  0  0  0  0  0  0  0
   -0.7010    0.1729    2.0721 C   0  0  0  0  0  0  0  0  0  0  0  0
   -0.5167   -0.0949    0.7273 C   0  0  0  0  0  0  0  0  0  0  0  0
    0.6738    0.2510    0.0499 C   0  0  0  0  0  0  0  0  0  0  0  0
    1.6681    0.8962    0.7422 C   0  0  0  0  0  0  0  0  0  0  0  0
    0.6155   -0.1964   -1.3956 C   0  0  0  0  0  0  0  0  0  0  0  0
    0.7154    0.9421   -2.4402 C   0  0  0  0  0  0  0  0  0  0  0  0
    1.6478    2.1045   -2.1214 C   0  0  0  0  0  0  0  0  0  0  0  0
    1.6010   -1.3566   -1.6698 C   0  0  0  0  0  0  0  0  0  0  0  0
    3.0815   -1.0038   -1.6850 C   0  0  0  0  0  0  0  0  0  0  0  0
   -0.7828   -0.7804   -1.4626 C   0  0  0  0  0  0  0  0  0  0  0  0
   -1.4205   -0.7224   -0.2099 C   0  0  0  0  0  0  0  0  0  0  0  0
   -2.7093   -1.1938   -0.0319 C   0  0  0  0  0  0  0  0  0  0  0  0
   -3.3891   -1.7212   -1.1246 C   0  0  0  0  0  0  0  0  0  0  0  0
   -2.7631   -1.7467   -2.3926 C   0  0  0  0  0  0  0  0  0  0  0  0
   -1.4504   -1.2854   -2.5481 C   0  0  0  0  0  0  0  0  0  0  0  0
   -3.5809   -2.1726   -3.4809 C   0  0  0  0  0  0  0  0  0  0  0  0
   -4.8567   -2.6859   -3.2814 C   0  0  0  0  0  0  0  0  0  0  0  0
   -5.3245   -2.9674   -1.8820 C   0  0  0  0  0  0  0  0  0  0  0  0
   -4.9618   -4.4243   -1.5006 C   0  0  0  0  0  0  0  0  0  0  0  0
   -5.5770   -5.4964   -2.3884 C   0  0  0  0  0  0  0  0  0  0  0  0
   -6.8214   -2.6804   -1.7003 C   0  0  0  0  0  0  0  0  0  0  0  0
   -7.1771   -1.2382   -2.0428 C   0  0  0  0  0  0  0  0  0  0  0  0
   -4.6582   -2.1213   -0.9257 O   0  0  0  0  0  0  0  0  0  0  0  0
   -5.5300   -2.9446   -4.4667 C   0  0  0  0  0  0  0  0  0  0  0  0
   -4.7862   -2.6389   -5.6008 C   0  0  0  0  0  0  0  0  0  0  0  0
   -3.2003   -2.0238   -5.1496 S   0  0  0  0  0  0  0  0  0  0  0  0
   -5.0533   -2.7429   -6.9737 C   0  0  0  0  0  0  0  0  0  0  0  0
   -6.2081   -3.0422   -7.6554 C   0  0  0  0  0  0  0  0  0  0  0  0
   -6.2779   -3.1188   -9.1043 C   0  0  0  0  0  0  0  0  0  0  0  0
   -5.2303   -3.2035   -9.9838 C   0  0  0  0  0  0  0  0  0  0  0  0
   -3.8620   -3.2607   -9.6412 C   0  0  0  0  0  0  0  0  0  0  0  0
   -2.7309   -3.3342   -9.4559 N   0  0  0  0  0  0  0  0  0  0  0  0
   -5.3829   -3.2940  -11.3842 C   0  0  0  0  0  0  0  0  0  0  0  0
   -5.4371   -3.3638  -12.5284 N   0  0  0  0  0  0  0  0  0  0  0  0
   -7.6900   -3.1748   -9.4802 C   0  0  0  0  0  0  0  0  0  0  0  0
   -8.3141   -3.1766  -10.7180 C   0  0  0  0  0  0  0  0  0  0  0  0
   -9.6993   -3.2405  -10.7478 C   0  0  0  0  0  0  0  0  0  0  0  0
  -10.3219   -3.2361  -11.9318 F   0  0  0  0  0  0  0  0  0  0  0  0
  -10.4565   -3.3060   -9.5778 C   0  0  0  0  0  0  0  0  0  0  0  0
  -11.7916   -3.3682   -9.6546 F   0  0  0  0  0  0  0  0  0  0  0  0
   -9.8395   -3.3041   -8.3376 C   0  0  0  0  0  0  0  0  0  0  0  0
   -8.4608   -3.2349   -8.3092 C   0  0  0  0  0  0  0  0  0  0  0  0
   -7.5754   -3.2013   -7.1230 C   0  0  0  0  0  0  0  0  0  0  0  0
   -7.9506   -3.2800   -5.9712 O   0  0  0  0  0  0  0  0  0  0  0  0
    5.1619    6.3931    8.9601 H   0  0  0  0  0  0  0  0  0  0  0  0
    8.4449    8.3595    5.7674 H   0  0  0  0  0  0  0  0  0  0  0  0
    5.6126    4.6350    2.9245 H   0  0  0  0  0  0  0  0  0  0  0  0
    3.2358    3.3520    5.7844 H   0  0  0  0  0  0  0  0  0  0  0  0
    1.3934    2.5007    6.7860 H   0  0  0  0  0  0  0  0  0  0  0  0
    0.1811    3.1283    5.6686 H   0  0  0  0  0  0  0  0  0  0  0  0
   -1.2546    1.1099    6.1738 H   0  0  0  0  0  0  0  0  0  0  0  0
   -0.9825    2.1678    7.5604 H   0  0  0  0  0  0  0  0  0  0  0  0
   -0.1018    0.6491    7.4327 H   0  0  0  0  0  0  0  0  0  0  0  0
    2.1616   -0.4617    4.4931 H   0  0  0  0  0  0  0  0  0  0  0  0
    0.9794   -0.5676    5.7944 H   0  0  0  0  0  0  0  0  0  0  0  0
    2.5588    0.5688    7.3473 H   0  0  0  0  0  0  0  0  0  0  0  0
    3.7188    0.7846    6.0353 H   0  0  0  0  0  0  0  0  0  0  0  0
    3.3251   -0.8342    6.6098 H   0  0  0  0  0  0  0  0  0  0  0  0
   -1.6105   -0.0966    2.5838 H   0  0  0  0  0  0  0  0  0  0  0  0
    2.5929    1.2043    0.2819 H   0  0  0  0  0  0  0  0  0  0  0  0
   -0.2880    1.3553   -2.5734 H   0  0  0  0  0  0  0  0  0  0  0  0
    1.0107    0.4955   -3.3916 H   0  0  0  0  0  0  0  0  0  0  0  0
    2.6742    1.7805   -1.9825 H   0  0  0  0  0  0  0  0  0  0  0  0
    1.6277    2.8080   -2.9514 H   0  0  0  0  0  0  0  0  0  0  0  0
    1.3207    2.6299   -1.2280 H   0  0  0  0  0  0  0  0  0  0  0  0
    1.4272   -2.1221   -0.9083 H   0  0  0  0  0  0  0  0  0  0  0  0
    1.3359   -1.7913   -2.6363 H   0  0  0  0  0  0  0  0  0  0  0  0
    3.6597   -1.9048   -1.8803 H   0  0  0  0  0  0  0  0  0  0  0  0
    3.3071   -0.2863   -2.4682 H   0  0  0  0  0  0  0  0  0  0  0  0
    3.4015   -0.6022   -0.7282 H   0  0  0  0  0  0  0  0  0  0  0  0
   -3.2055   -1.1524    0.9239 H   0  0  0  0  0  0  0  0  0  0  0  0
   -1.0032   -1.3212   -3.5306 H   0  0  0  0  0  0  0  0  0  0  0  0
   -3.8713   -4.5085   -1.5356 H   0  0  0  0  0  0  0  0  0  0  0  0
   -5.2722   -4.5771   -0.4650 H   0  0  0  0  0  0  0  0  0  0  0  0
   -6.6611   -5.4902   -2.3208 H   0  0  0  0  0  0  0  0  0  0  0  0
   -5.2241   -6.4743   -2.0701 H   0  0  0  0  0  0  0  0  0  0  0  0
   -5.2922   -5.3544   -3.4282 H   0  0  0  0  0  0  0  0  0  0  0  0
   -7.3956   -3.3589   -2.3284 H   0  0  0  0  0  0  0  0  0  0  0  0
   -7.0694   -2.8778   -0.6563 H   0  0  0  0  0  0  0  0  0  0  0  0
   -8.2255   -1.0537   -1.8245 H   0  0  0  0  0  0  0  0  0  0  0  0
   -6.5742   -0.5510   -1.4540 H   0  0  0  0  0  0  0  0  0  0  0  0
   -7.0065   -1.0374   -3.0980 H   0  0  0  0  0  0  0  0  0  0  0  0
   -6.5284   -3.3331   -4.5323 H   0  0  0  0  0  0  0  0  0  0  0  0
   -4.1929   -2.5103   -7.5903 H   0  0  0  0  0  0  0  0  0  0  0  0
   -7.7769   -3.1247  -11.6505 H   0  0  0  0  0  0  0  0  0  0  0  0
  -10.4194   -3.3526   -7.4298 H   0  0  0  0  0  0  0  0  0  0  0  0
  1  2  2  0  0  0  0
  1  3  1  0  0  0  0
  3  4  2  0  0  0  0
  4  5  1  0  0  0  0
  5  6  1  0  0  0  0
  5  7  2  0  0  0  0
  7  8  1  0  0  0  0
  7  9  1  0  0  0  0
  9 10  2  0  0  0  0
  3 10  1  0  0  0  0
 10 11  1  0  0  0  0
 11 12  2  0  0  0  0
 12 13  1  0  0  0  0
 13 14  3  0  0  0  0
 12 15  1  0  0  0  0
 15 16  3  0  0  0  0
 11 17  1  0  0  0  0
  1 17  1  0  0  0  0
 17 18  2  0  0  0  0
 18 19  1  0  0  0  0
 19 20  2  0  0  0  0
 20 21  1  0  0  0  0
 21 22  2  0  0  0  0
 22 23  1  0  0  0  0
 19 23  1  0  0  0  0
 22 24  1  0  0  0  0
 24 25  2  0  0  0  0
 25 26  1  0  0  0  0
 26 27  1  0  0  0  0
 21 27  1  0  0  0  0
 27 28  1  0  0  0  0
 28 29  1  0  0  0  0
 27 30  1  0  0  0  0
 30 31  1  0  0  0  0
 25 32  1  0  0  0  0
 32 33  2  0  0  0  0
 33 34  1  0  0  0  0
 34 35  2  0  0  0  0
 24 35  1  0  0  0  0
 34 36  1  0  0  0  0
 36 37  1  0  0  0  0
 37 38  1  0  0  0  0
 36 39  1  0  0  0  0
 39 40  1  0  0  0  0
 36 41  1  0  0  0  0
 41 42  2  0  0  0  0
 33 42  1  0  0  0  0
 42 43  1  0  0  0  0
 43 44  2  0  0  0  0
 44 45  1  0  0  0  0
 45 46  2  0  0  0  0
 41 46  1  0  0  0  0
 45 47  1  0  0  0  0
 47 48  2  0  0  0  0
 48 49  1  0  0  0  0
 49 50  1  0  0  0  0
 50 51  1  0  0  0  0
 49 52  1  0  0  0  0
 52 53  1  0  0  0  0
 49 54  1  0  0  0  0
 44 54  1  0  0  0  0
 48 55  1  0  0  0  0
 55 56  2  0  0  0  0
 56 57  1  0  0  0  0
 47 57  1  0  0  0  0
 56 58  1  0  0  0  0
 58 59  2  0  0  0  0
 59 60  1  0  0  0  0
 60 61  2  0  0  0  0
 61 62  1  0  0  0  0
 62 63  3  0  0  0  0
 61 64  1  0  0  0  0
 64 65  3  0  0  0  0
 60 66  1  0  0  0  0
 66 67  2  0  0  0  0
 67 68  1  0  0  0  0
 68 69  1  0  0  0  0
 68 70  2  0  0  0  0
 70 71  1  0  0  0  0
 70 72  1  0  0  0  0
 72 73  2  0  0  0  0
 66 73  1  0  0  0  0
 73 74  1  0  0  0  0
 59 74  1  0  0  0  0
 74 75  2  0  0  0  0
  4 76  1  0  0  0  0
  9 77  1  0  0  0  0
 18 78  1  0  0  0  0
 20 79  1  0  0  0  0
 28 80  1  0  0  0  0
 28 81  1  0  0  0  0
 29 82  1  0  0  0  0
 29 83  1  0  0  0  0
 29 84  1  0  0  0  0
 30 85  1  0  0  0  0
 30 86  1  0  0  0  0
 31 87  1  0  0  0  0
 31 88  1  0  0  0  0
 31 89  1  0  0  0  0
 32 90  1  0  0  0  0
 35 91  1  0  0  0  0
 37 92  1  0  0  0  0
 37 93  1  0  0  0  0
 38 94  1  0  0  0  0
 38 95  1  0  0  0  0
 38 96  1  0  0  0  0
 39 97  1  0  0  0  0
 39 98  1  0  0  0  0
 40 99  1  0  0  0  0
 40100  1  0  0  0  0
 40101  1  0  0  0  0
 43102  1  0  0  0  0
 46103  1  0  0  0  0
 50104  1  0  0  0  0
 50105  1  0  0  0  0
 51106  1  0  0  0  0
 51107  1  0  0  0  0
 51108  1  0  0  0  0
 52109  1  0  0  0  0
 52110  1  0  0  0  0
 53111  1  0  0  0  0
 53112  1  0  0  0  0
 53113  1  0  0  0  0
 55114  1  0  0  0  0
 58115  1  0  0  0  0
 67116  1  0  0  0  0
 72117  1  0  0  0  0
M  END
