IDFBR.sdf
  xtb     12202113253D
 energy: -179.083962313447 gnorm: 0.000165788777 xtb: 6.4.1 (unknown)
110120  0     0  0            999 V2000
    9.2765    4.9818   -3.3873 S   0  0  0  0  0  0  0  0  0  0  0  0
   10.9626    5.4464   -3.5986 C   0  0  0  0  0  0  0  0  0  0  0  0
   12.0785    4.4989   -4.3165 S   0  0  0  0  0  0  0  0  0  0  0  0
   11.1765    6.6854   -3.0950 N   0  0  0  0  0  0  0  0  0  0  0  0
   12.4887    7.3028   -3.0982 C   0  0  0  0  0  0  0  0  0  0  0  0
   13.3307    6.8118   -1.9273 C   0  0  0  0  0  0  0  0  0  0  0  0
   10.0926    7.3394   -2.5301 C   0  0  0  0  0  0  0  0  0  0  0  0
   10.1589    8.4491   -2.0546 O   0  0  0  0  0  0  0  0  0  0  0  0
    8.8927    6.4962   -2.5992 C   0  0  0  0  0  0  0  0  0  0  0  0
    7.7179    6.9125   -2.0728 C   0  0  0  0  0  0  0  0  0  0  0  0
    6.4633    6.2354   -1.9858 C   0  0  0  0  0  0  0  0  0  0  0  0
    5.4097    6.8543   -1.2575 C   0  0  0  0  0  0  0  0  0  0  0  0
    5.4412    8.0539   -0.6832 N   0  0  0  0  0  0  0  0  0  0  0  0
    4.0271    8.3265    0.0306 S   0  0  0  0  0  0  0  0  0  0  0  0
    3.3075    6.9412   -0.3421 N   0  0  0  0  0  0  0  0  0  0  0  0
    4.1493    6.1900   -1.0542 C   0  0  0  0  0  0  0  0  0  0  0  0
    3.9105    4.9026   -1.5977 C   0  0  0  0  0  0  0  0  0  0  0  0
    4.9451    4.3576   -2.3415 C   0  0  0  0  0  0  0  0  0  0  0  0
    6.1727    4.9904   -2.5269 C   0  0  0  0  0  0  0  0  0  0  0  0
    2.6819    4.1596   -1.3417 C   0  0  0  0  0  0  0  0  0  0  0  0
   -5.3486   -5.0428    0.6378 C   0  0  0  0  0  0  0  0  0  0  0  0
   -5.1336   -6.3394    0.1015 C   0  0  0  0  0  0  0  0  0  0  0  0
   -4.3417   -6.6816   -0.9163 N   0  0  0  0  0  0  0  0  0  0  0  0
   -4.4079   -8.2715   -1.1250 S   0  0  0  0  0  0  0  0  0  0  0  0
   -5.4325   -8.6187    0.0628 N   0  0  0  0  0  0  0  0  0  0  0  0
   -5.7740   -7.4909    0.6803 C   0  0  0  0  0  0  0  0  0  0  0  0
   -6.6400   -7.3723    1.8018 C   0  0  0  0  0  0  0  0  0  0  0  0
   -6.8639   -6.0805    2.2579 C   0  0  0  0  0  0  0  0  0  0  0  0
   -6.2425   -4.9673    1.6949 C   0  0  0  0  0  0  0  0  0  0  0  0
   -7.1748   -8.5683    2.3704 C   0  0  0  0  0  0  0  0  0  0  0  0
   -7.8607   -8.7472    3.5223 C   0  0  0  0  0  0  0  0  0  0  0  0
   -8.3461   -7.5612    4.7135 S   0  0  0  0  0  0  0  0  0  0  0  0
   -9.0279   -8.8026    5.7617 C   0  0  0  0  0  0  0  0  0  0  0  0
   -9.7295   -8.4875    7.1993 S   0  0  0  0  0  0  0  0  0  0  0  0
   -8.8921  -10.0253    5.1946 N   0  0  0  0  0  0  0  0  0  0  0  0
   -9.3322  -11.2377    5.8575 C   0  0  0  0  0  0  0  0  0  0  0  0
   -8.2823  -11.7375    6.8418 C   0  0  0  0  0  0  0  0  0  0  0  0
   -8.2655  -10.0887    3.9600 C   0  0  0  0  0  0  0  0  0  0  0  0
   -8.0902  -11.1206    3.3545 O   0  0  0  0  0  0  0  0  0  0  0  0
    2.0398    4.2708   -0.1051 C   0  0  0  0  0  0  0  0  0  0  0  0
    0.9685    3.4616    0.2141 C   0  0  0  0  0  0  0  0  0  0  0  0
    0.5135    2.5473   -0.7245 C   0  0  0  0  0  0  0  0  0  0  0  0
    1.0931    2.4850   -2.0028 C   0  0  0  0  0  0  0  0  0  0  0  0
    2.1830    3.2681   -2.3010 C   0  0  0  0  0  0  0  0  0  0  0  0
   -0.4901    1.5105   -0.6198 C   0  0  0  0  0  0  0  0  0  0  0  0
   -0.5465    0.8164   -1.8406 C   0  0  0  0  0  0  0  0  0  0  0  0
    0.4196    1.4173   -2.8437 C   0  0  0  0  0  0  0  0  0  0  0  0
   -1.2673    1.1493    0.4753 C   0  0  0  0  0  0  0  0  0  0  0  0
   -2.0855    0.0456    0.3536 C   0  0  0  0  0  0  0  0  0  0  0  0
   -2.1658   -0.6270   -0.8819 C   0  0  0  0  0  0  0  0  0  0  0  0
   -1.4264   -0.2335   -1.9918 C   0  0  0  0  0  0  0  0  0  0  0  0
   -2.9874   -0.6150    1.3767 C   0  0  0  0  0  0  0  0  0  0  0  0
   -3.5094   -1.8007    0.5859 C   0  0  0  0  0  0  0  0  0  0  0  0
   -3.0527   -1.7615   -0.7389 C   0  0  0  0  0  0  0  0  0  0  0  0
   -4.2855   -2.8441    1.0279 C   0  0  0  0  0  0  0  0  0  0  0  0
   -4.6213   -3.8794    0.1439 C   0  0  0  0  0  0  0  0  0  0  0  0
   -4.1985   -3.8041   -1.1874 C   0  0  0  0  0  0  0  0  0  0  0  0
   -3.4202   -2.7554   -1.6346 C   0  0  0  0  0  0  0  0  0  0  0  0
   -0.4153    2.0259   -3.9907 C   0  0  0  0  0  0  0  0  0  0  0  0
    1.5022    0.4253   -3.3160 C   0  0  0  0  0  0  0  0  0  0  0  0
    0.3736    2.7565   -5.0693 C   0  0  0  0  0  0  0  0  0  0  0  0
    1.0271   -0.7601   -4.1467 C   0  0  0  0  0  0  0  0  0  0  0  0
   -4.2163    0.2658    1.7034 C   0  0  0  0  0  0  0  0  0  0  0  0
   -2.2708   -1.1482    2.6403 C   0  0  0  0  0  0  0  0  0  0  0  0
   -1.1126   -0.3267    3.1937 C   0  0  0  0  0  0  0  0  0  0  0  0
   -3.9541    1.5359    2.5002 C   0  0  0  0  0  0  0  0  0  0  0  0
   12.9752    7.0612   -4.0462 H   0  0  0  0  0  0  0  0  0  0  0  0
   12.3222    8.3800   -3.0242 H   0  0  0  0  0  0  0  0  0  0  0  0
   12.8379    7.0423   -0.9856 H   0  0  0  0  0  0  0  0  0  0  0  0
   13.4840    5.7374   -1.9956 H   0  0  0  0  0  0  0  0  0  0  0  0
   14.2988    7.3033   -1.9453 H   0  0  0  0  0  0  0  0  0  0  0  0
    7.7414    7.8984   -1.6214 H   0  0  0  0  0  0  0  0  0  0  0  0
    4.8173    3.3726   -2.7642 H   0  0  0  0  0  0  0  0  0  0  0  0
    6.9252    4.4764   -3.1038 H   0  0  0  0  0  0  0  0  0  0  0  0
   -7.5439   -5.9218    3.0802 H   0  0  0  0  0  0  0  0  0  0  0  0
   -6.4800   -3.9978    2.1058 H   0  0  0  0  0  0  0  0  0  0  0  0
   -6.9640   -9.4764    1.8159 H   0  0  0  0  0  0  0  0  0  0  0  0
   -9.4993  -11.9764    5.0701 H   0  0  0  0  0  0  0  0  0  0  0  0
  -10.2694  -11.0203    6.3751 H   0  0  0  0  0  0  0  0  0  0  0  0
   -7.3482  -11.9429    6.3241 H   0  0  0  0  0  0  0  0  0  0  0  0
   -8.1050  -10.9945    7.6159 H   0  0  0  0  0  0  0  0  0  0  0  0
   -8.6310  -12.6527    7.3110 H   0  0  0  0  0  0  0  0  0  0  0  0
    2.4191    4.9726    0.6202 H   0  0  0  0  0  0  0  0  0  0  0  0
    0.5102    3.5251    1.1896 H   0  0  0  0  0  0  0  0  0  0  0  0
    2.6615    3.2106   -3.2666 H   0  0  0  0  0  0  0  0  0  0  0  0
   -1.1931    1.7166    1.3880 H   0  0  0  0  0  0  0  0  0  0  0  0
   -1.5429   -0.7560   -2.9278 H   0  0  0  0  0  0  0  0  0  0  0  0
   -4.5871   -2.8995    2.0630 H   0  0  0  0  0  0  0  0  0  0  0  0
   -4.4790   -4.5904   -1.8691 H   0  0  0  0  0  0  0  0  0  0  0  0
   -3.0910   -2.7229   -2.6622 H   0  0  0  0  0  0  0  0  0  0  0  0
   -0.9959    1.2243   -4.4505 H   0  0  0  0  0  0  0  0  0  0  0  0
   -1.1272    2.7241   -3.5418 H   0  0  0  0  0  0  0  0  0  0  0  0
    2.2378    0.9852   -3.8958 H   0  0  0  0  0  0  0  0  0  0  0  0
    2.0116    0.0484   -2.4247 H   0  0  0  0  0  0  0  0  0  0  0  0
    0.8891    3.6193   -4.6565 H   0  0  0  0  0  0  0  0  0  0  0  0
    1.1009    2.1021   -5.5425 H   0  0  0  0  0  0  0  0  0  0  0  0
   -0.3105    3.1106   -5.8379 H   0  0  0  0  0  0  0  0  0  0  0  0
    0.4528   -0.4365   -5.0107 H   0  0  0  0  0  0  0  0  0  0  0  0
    0.4230   -1.4387   -3.5520 H   0  0  0  0  0  0  0  0  0  0  0  0
    1.8922   -1.3140   -4.5063 H   0  0  0  0  0  0  0  0  0  0  0  0
   -4.9285   -0.3529    2.2554 H   0  0  0  0  0  0  0  0  0  0  0  0
   -4.6869    0.5369    0.7540 H   0  0  0  0  0  0  0  0  0  0  0  0
   -3.0229   -1.2750    3.4222 H   0  0  0  0  0  0  0  0  0  0  0  0
   -1.8801   -2.1413    2.4016 H   0  0  0  0  0  0  0  0  0  0  0  0
   -0.7238   -0.8208    4.0825 H   0  0  0  0  0  0  0  0  0  0  0  0
   -0.3066   -0.2565    2.4678 H   0  0  0  0  0  0  0  0  0  0  0  0
   -1.4206    0.6754    3.4755 H   0  0  0  0  0  0  0  0  0  0  0  0
   -4.8947    2.0617    2.6534 H   0  0  0  0  0  0  0  0  0  0  0  0
   -3.2821    2.2015    1.9668 H   0  0  0  0  0  0  0  0  0  0  0  0
   -3.5353    1.3090    3.4765 H   0  0  0  0  0  0  0  0  0  0  0  0
  1  2  1  0  0  0  0
  2  3  2  0  0  0  0
  2  4  1  0  0  0  0
  4  5  1  0  0  0  0
  5  6  1  0  0  0  0
  4  7  1  0  0  0  0
  7  8  2  0  0  0  0
  7  9  1  0  0  0  0
  1  9  1  0  0  0  0
  9 10  2  0  0  0  0
 10 11  1  0  0  0  0
 11 12  1  0  0  0  0
 12 13  2  0  0  0  0
 13 14  1  0  0  0  0
 14 15  1  0  0  0  0
 15 16  2  0  0  0  0
 12 16  1  0  0  0  0
 16 17  1  0  0  0  0
 17 18  2  0  0  0  0
 18 19  1  0  0  0  0
 11 19  2  0  0  0  0
 17 20  1  0  0  0  0
 21 22  1  0  0  0  0
 22 23  2  0  0  0  0
 23 24  1  0  0  0  0
 24 25  1  0  0  0  0
 25 26  2  0  0  0  0
 22 26  1  0  0  0  0
 26 27  1  0  0  0  0
 27 28  2  0  0  0  0
 28 29  1  0  0  0  0
 21 29  2  0  0  0  0
 27 30  1  0  0  0  0
 30 31  2  0  0  0  0
 31 32  1  0  0  0  0
 32 33  1  0  0  0  0
 33 34  2  0  0  0  0
 33 35  1  0  0  0  0
 35 36  1  0  0  0  0
 36 37  1  0  0  0  0
 35 38  1  0  0  0  0
 31 38  1  0  0  0  0
 38 39  2  0  0  0  0
 20 40  2  0  0  0  0
 40 41  1  0  0  0  0
 41 42  2  0  0  0  0
 42 43  1  0  0  0  0
 43 44  2  0  0  0  0
 44 20  1  0  0  0  0
 42 45  1  0  0  0  0
 45 46  2  0  0  0  0
 46 47  1  0  0  0  0
 47 43  1  0  0  0  0
 45 48  1  0  0  0  0
 48 49  2  0  0  0  0
 49 50  1  0  0  0  0
 50 51  2  0  0  0  0
 51 46  1  0  0  0  0
 49 52  1  0  0  0  0
 52 53  1  0  0  0  0
 53 54  2  0  0  0  0
 54 50  1  0  0  0  0
 53 55  1  0  0  0  0
 55 56  2  0  0  0  0
 56 57  1  0  0  0  0
 57 58  2  0  0  0  0
 58 54  1  0  0  0  0
 56 21  1  0  0  0  0
 47 59  1  0  0  0  0
 47 60  1  0  0  0  0
 59 61  1  0  0  0  0
 60 62  1  0  0  0  0
 52 63  1  0  0  0  0
 52 64  1  0  0  0  0
 64 65  1  0  0  0  0
 63 66  1  0  0  0  0
  5 67  1  0  0  0  0
  5 68  1  0  0  0  0
  6 69  1  0  0  0  0
  6 70  1  0  0  0  0
  6 71  1  0  0  0  0
 10 72  1  0  0  0  0
 18 73  1  0  0  0  0
 19 74  1  0  0  0  0
 28 75  1  0  0  0  0
 29 76  1  0  0  0  0
 30 77  1  0  0  0  0
 36 78  1  0  0  0  0
 36 79  1  0  0  0  0
 37 80  1  0  0  0  0
 37 81  1  0  0  0  0
 37 82  1  0  0  0  0
 40 83  1  0  0  0  0
 41 84  1  0  0  0  0
 44 85  1  0  0  0  0
 48 86  1  0  0  0  0
 51 87  1  0  0  0  0
 55 88  1  0  0  0  0
 57 89  1  0  0  0  0
 58 90  1  0  0  0  0
 59 91  1  0  0  0  0
 59 92  1  0  0  0  0
 60 93  1  0  0  0  0
 60 94  1  0  0  0  0
 61 95  1  0  0  0  0
 61 96  1  0  0  0  0
 61 97  1  0  0  0  0
 62 98  1  0  0  0  0
 62 99  1  0  0  0  0
 62100  1  0  0  0  0
 63101  1  0  0  0  0
 63102  1  0  0  0  0
 64103  1  0  0  0  0
 64104  1  0  0  0  0
 65105  1  0  0  0  0
 65106  1  0  0  0  0
 65107  1  0  0  0  0
 66108  1  0  0  0  0
 66109  1  0  0  0  0
 66110  1  0  0  0  0
M  END
