SCF done       -166.769109935944          0.000675297763
 OpenBabel12282109493D

 92100  0  0  0  0  0  0  0  0999 V2000
    3.1767    1.2850   -0.0787 C   0  0  0  0  0  0  0  0  0  0  0  0
    2.9939   -0.1192   -0.0490 C   0  0  0  0  0  0  0  0  0  0  0  0
    1.7544   -0.6412    0.2409 C   0  0  0  0  0  0  0  0  0  0  0  0
    0.7055    0.2565    0.4309 C   0  0  0  0  0  0  0  0  0  0  0  0
    0.8799    1.6613    0.3589 C   0  0  0  0  0  0  0  0  0  0  0  0
    2.1319    2.1834    0.1338 C   0  0  0  0  0  0  0  0  0  0  0  0
   -0.6662    0.0210    0.7448 C   0  0  0  0  0  0  0  0  0  0  0  0
   -1.3539    1.2274    0.8729 C   0  0  0  0  0  0  0  0  0  0  0  0
   -0.4312    2.3858    0.5984 C   0  0  0  0  0  0  0  0  0  0  0  0
    4.5568    1.5302   -0.3440 C   0  0  0  0  0  0  0  0  0  0  0  0
    5.2449    0.3205   -0.4762 C   0  0  0  0  0  0  0  0  0  0  0  0
    4.3045   -0.8466   -0.3050 C   0  0  0  0  0  0  0  0  0  0  0  0
   -1.6665   -1.3358    1.0001 S   0  0  0  0  0  0  0  0  0  0  0  0
   -3.0569   -0.2750    1.2692 C   0  0  0  0  0  0  0  0  0  0  0  0
   -2.6951    1.0670    1.1649 C   0  0  0  0  0  0  0  0  0  0  0  0
    5.5316    2.9110   -0.5839 S   0  0  0  0  0  0  0  0  0  0  0  0
    6.9129    1.8726   -0.8992 C   0  0  0  0  0  0  0  0  0  0  0  0
    6.5697    0.5142   -0.7983 C   0  0  0  0  0  0  0  0  0  0  0  0
   -0.3491    3.3510    1.7914 C   0  0  0  0  0  0  0  0  0  0  0  0
   -0.9534    3.0930   -0.6748 C   0  0  0  0  0  0  0  0  0  0  0  0
   -0.0794    4.2153   -1.2177 C   0  0  0  0  0  0  0  0  0  0  0  0
    0.0205    2.6443    3.0907 C   0  0  0  0  0  0  0  0  0  0  0  0
    4.2936   -1.6369   -1.6316 C   0  0  0  0  0  0  0  0  0  0  0  0
    4.6460   -1.7024    0.9305 C   0  0  0  0  0  0  0  0  0  0  0  0
    3.3573   -2.8364   -1.6873 C   0  0  0  0  0  0  0  0  0  0  0  0
    5.9834   -2.4272    0.8628 C   0  0  0  0  0  0  0  0  0  0  0  0
    8.2061    2.2797   -1.2466 C   0  0  0  0  0  0  0  0  0  0  0  0
   -4.2728   -0.9228    1.5375 C   0  0  0  0  0  0  0  0  0  0  0  0
   -5.5490   -0.4464    1.7086 C   0  0  0  0  0  0  0  0  0  0  0  0
    8.7314    3.5344   -1.4395 C   0  0  0  0  0  0  0  0  0  0  0  0
    8.0084    4.8007   -1.2870 C   0  0  0  0  0  0  0  0  0  0  0  0
    8.9765    5.8635   -1.6239 C   0  0  0  0  0  0  0  0  0  0  0  0
   10.2115    5.2806   -1.9562 C   0  0  0  0  0  0  0  0  0  0  0  0
   10.0928    3.8267   -1.8446 C   0  0  0  0  0  0  0  0  0  0  0  0
   -6.0427    0.9400    1.5738 C   0  0  0  0  0  0  0  0  0  0  0  0
   -7.5143    0.8500    1.6842 C   0  0  0  0  0  0  0  0  0  0  0  0
   -7.8943   -0.4813    1.9154 C   0  0  0  0  0  0  0  0  0  0  0  0
   -6.6900   -1.3067    1.9801 C   0  0  0  0  0  0  0  0  0  0  0  0
    8.7845    7.2292   -1.6409 C   0  0  0  0  0  0  0  0  0  0  0  0
    9.8542    8.0393   -2.0017 C   0  0  0  0  0  0  0  0  0  0  0  0
   11.0874    7.4694   -2.3358 C   0  0  0  0  0  0  0  0  0  0  0  0
   11.2755    6.0912   -2.3152 C   0  0  0  0  0  0  0  0  0  0  0  0
   -8.4402    1.8677    1.5805 C   0  0  0  0  0  0  0  0  0  0  0  0
   -9.7859    1.5477    1.7059 C   0  0  0  0  0  0  0  0  0  0  0  0
  -10.1759    0.2229    1.9310 C   0  0  0  0  0  0  0  0  0  0  0  0
   -9.2376   -0.7978    2.0387 C   0  0  0  0  0  0  0  0  0  0  0  0
    6.8492    4.9638   -0.9525 O   0  0  0  0  0  0  0  0  0  0  0  0
   -5.4169    1.9657    1.4006 O   0  0  0  0  0  0  0  0  0  0  0  0
   -6.6772   -2.6417    2.2910 C   0  0  0  0  0  0  0  0  0  0  0  0
   11.1036    2.9338   -2.0909 C   0  0  0  0  0  0  0  0  0  0  0  0
   11.0118    1.5297   -1.9888 C   0  0  0  0  0  0  0  0  0  0  0  0
   12.4058    3.3034   -2.4906 C   0  0  0  0  0  0  0  0  0  0  0  0
   -5.5369   -3.4615    2.4340 C   0  0  0  0  0  0  0  0  0  0  0  0
   -7.8380   -3.4029    2.5495 C   0  0  0  0  0  0  0  0  0  0  0  0
   11.0260    0.3824   -1.9295 N   0  0  0  0  0  0  0  0  0  0  0  0
   13.4811    3.5305   -2.8215 N   0  0  0  0  0  0  0  0  0  0  0  0
   -8.7344   -4.0853    2.7687 N   0  0  0  0  0  0  0  0  0  0  0  0
   -4.6752   -4.2069    2.5809 N   0  0  0  0  0  0  0  0  0  0  0  0
   12.4013    8.4809   -2.7827 Cl  0  0  0  0  0  0  0  0  0  0  0  0
    9.6577    9.7445   -2.0379 Cl  0  0  0  0  0  0  0  0  0  0  0  0
  -10.9719    2.7831    1.5814 Cl  0  0  0  0  0  0  0  0  0  0  0  0
  -11.8433   -0.1619    2.0771 Cl  0  0  0  0  0  0  0  0  0  0  0  0
    1.5757   -1.7006    0.3347 H   0  0  0  0  0  0  0  0  0  0  0  0
    2.3281    3.2438    0.1305 H   0  0  0  0  0  0  0  0  0  0  0  0
   -3.4056    1.8605    1.3017 H   0  0  0  0  0  0  0  0  0  0  0  0
    7.2953   -0.2587   -0.9800 H   0  0  0  0  0  0  0  0  0  0  0  0
    0.3984    4.1155    1.5785 H   0  0  0  0  0  0  0  0  0  0  0  0
   -1.3171    3.8420    1.9068 H   0  0  0  0  0  0  0  0  0  0  0  0
   -1.0754    2.3356   -1.4537 H   0  0  0  0  0  0  0  0  0  0  0  0
   -1.9439    3.4893   -0.4421 H   0  0  0  0  0  0  0  0  0  0  0  0
    0.8819    3.8356   -1.5524 H   0  0  0  0  0  0  0  0  0  0  0  0
   -0.5759    4.6717   -2.0710 H   0  0  0  0  0  0  0  0  0  0  0  0
    0.0840    4.9887   -0.4725 H   0  0  0  0  0  0  0  0  0  0  0  0
    0.9795    2.1392    2.9954 H   0  0  0  0  0  0  0  0  0  0  0  0
    0.0920    3.3670    3.8998 H   0  0  0  0  0  0  0  0  0  0  0  0
   -0.7321    1.9062    3.3586 H   0  0  0  0  0  0  0  0  0  0  0  0
    4.0205   -0.9389   -2.4277 H   0  0  0  0  0  0  0  0  0  0  0  0
    5.3142   -1.9691   -1.8280 H   0  0  0  0  0  0  0  0  0  0  0  0
    4.6445   -1.0399    1.8004 H   0  0  0  0  0  0  0  0  0  0  0  0
    3.8468   -2.4303    1.0760 H   0  0  0  0  0  0  0  0  0  0  0  0
    2.3187   -2.5264   -1.6164 H   0  0  0  0  0  0  0  0  0  0  0  0
    3.4892   -3.3476   -2.6384 H   0  0  0  0  0  0  0  0  0  0  0  0
    3.5706   -3.5458   -0.8927 H   0  0  0  0  0  0  0  0  0  0  0  0
    6.0213   -3.1136    0.0216 H   0  0  0  0  0  0  0  0  0  0  0  0
    6.8045   -1.7212    0.7783 H   0  0  0  0  0  0  0  0  0  0  0  0
    6.1275   -3.0031    1.7742 H   0  0  0  0  0  0  0  0  0  0  0  0
    8.8813    1.4462   -1.3982 H   0  0  0  0  0  0  0  0  0  0  0  0
   -4.1672   -1.9999    1.5929 H   0  0  0  0  0  0  0  0  0  0  0  0
    7.8278    7.6541   -1.3815 H   0  0  0  0  0  0  0  0  0  0  0  0
   12.2405    5.6912   -2.5794 H   0  0  0  0  0  0  0  0  0  0  0  0
   -8.1233    2.8836    1.4055 H   0  0  0  0  0  0  0  0  0  0  0  0
   -9.5788   -1.8052    2.2100 H   0  0  0  0  0  0  0  0  0  0  0  0
  1  2  2  0  0  0  0
  1  6  1  0  0  0  0
  2  3  1  0  0  0  0
  3 63  1  0  0  0  0
  3  4  2  0  0  0  0
  4  7  1  0  0  0  0
  5  4  1  0  0  0  0
  5  9  1  0  0  0  0
  6  5  2  0  0  0  0
  7  8  2  0  0  0  0
  7 13  1  0  0  0  0
  8 15  1  0  0  0  0
  9  8  1  0  0  0  0
  9 19  1  0  0  0  0
 10  1  1  0  0  0  0
 11 10  2  0  0  0  0
 11 12  1  0  0  0  0
 12  2  1  0  0  0  0
 12 24  1  0  0  0  0
 13 14  1  0  0  0  0
 14 28  1  0  0  0  0
 15 14  2  0  0  0  0
 15 65  1  0  0  0  0
 16 10  1  0  0  0  0
 17 18  2  0  0  0  0
 17 16  1  0  0  0  0
 18 11  1  0  0  0  0
 19 68  1  0  0  0  0
 19 22  1  0  0  0  0
 20 70  1  0  0  0  0
 20  9  1  0  0  0  0
 21 20  1  0  0  0  0
 21 73  1  0  0  0  0
 22 76  1  0  0  0  0
 22 75  1  0  0  0  0
 23 12  1  0  0  0  0
 24 80  1  0  0  0  0
 24 79  1  0  0  0  0
 25 23  1  0  0  0  0
 25 81  1  0  0  0  0
 25 83  1  0  0  0  0
 26 24  1  0  0  0  0
 26 86  1  0  0  0  0
 27 17  1  0  0  0  0
 28 88  1  0  0  0  0
 28 29  2  0  0  0  0
 29 38  1  0  0  0  0
 30 31  1  0  0  0  0
 30 27  2  0  0  0  0
 31 47  2  0  0  0  0
 32 31  1  0  0  0  0
 33 34  1  0  0  0  0
 33 32  2  0  0  0  0
 34 30  1  0  0  0  0
 35 36  1  0  0  0  0
 35 29  1  0  0  0  0
 36 37  1  0  0  0  0
 37 38  1  0  0  0  0
 37 46  2  0  0  0  0
 38 49  2  0  0  0  0
 39 32  1  0  0  0  0
 39 89  1  0  0  0  0
 40 39  2  0  0  0  0
 41 42  2  0  0  0  0
 41 40  1  0  0  0  0
 42 33  1  0  0  0  0
 43 36  2  0  0  0  0
 43 44  1  0  0  0  0
 44 45  2  0  0  0  0
 45 46  1  0  0  0  0
 45 62  1  0  0  0  0
 46 92  1  0  0  0  0
 48 35  2  0  0  0  0
 49 53  1  0  0  0  0
 49 54  1  0  0  0  0
 50 51  1  0  0  0  0
 50 34  2  0  0  0  0
 51 55  3  0  0  0  0
 52 50  1  0  0  0  0
 53 58  3  0  0  0  0
 54 57  3  0  0  0  0
 56 52  3  0  0  0  0
 59 41  1  0  0  0  0
 60 40  1  0  0  0  0
 61 44  1  0  0  0  0
 64  6  1  0  0  0  0
 66 18  1  0  0  0  0
 67 19  1  0  0  0  0
 69 20  1  0  0  0  0
 71 21  1  0  0  0  0
 72 21  1  0  0  0  0
 74 22  1  0  0  0  0
 77 23  1  0  0  0  0
 78 23  1  0  0  0  0
 82 25  1  0  0  0  0
 84 26  1  0  0  0  0
 85 26  1  0  0  0  0
 87 27  1  0  0  0  0
 90 42  1  0  0  0  0
 91 43  1  0  0  0  0
M  END
