IDST-4F.sdf
  xtb     12202113283D
 energy: -189.880260399882 gnorm: 0.000936946570 xtb: 6.4.1 (unknown)
106115  0     0  0            999 V2000
   -2.0078   -2.1209   -1.2657 C   0  0  0  0  0  0  0  0  0  0  0  0
   -1.6635   -1.9788    0.0746 C   0  0  0  0  0  0  0  0  0  0  0  0
   -0.4812   -1.2750    0.2414 C   0  0  0  0  0  0  0  0  0  0  0  0
    0.3826   -0.8276    1.3927 C   0  0  0  0  0  0  0  0  0  0  0  0
    1.4499   -0.0320    0.6617 C   0  0  0  0  0  0  0  0  0  0  0  0
    1.2718   -0.1237   -0.7419 C   0  0  0  0  0  0  0  0  0  0  0  0
    0.0873   -0.8854   -0.9649 C   0  0  0  0  0  0  0  0  0  0  0  0
   -0.8242   -1.3795   -2.3275 S   0  0  0  0  0  0  0  0  0  0  0  0
    2.1241    0.5049   -1.6463 C   0  0  0  0  0  0  0  0  0  0  0  0
    3.1461    1.2627   -1.1266 C   0  0  0  0  0  0  0  0  0  0  0  0
    4.2061    2.0519   -1.8732 C   0  0  0  0  0  0  0  0  0  0  0  0
    4.9232    2.7142   -0.7288 C   0  0  0  0  0  0  0  0  0  0  0  0
    4.3939    2.2861    0.4952 C   0  0  0  0  0  0  0  0  0  0  0  0
    3.3044    1.3905    0.2738 C   0  0  0  0  0  0  0  0  0  0  0  0
    2.4613    0.7437    1.1782 C   0  0  0  0  0  0  0  0  0  0  0  0
    5.1498    2.9909    1.8538 S   0  0  0  0  0  0  0  0  0  0  0  0
    6.1935    3.9209    0.7862 C   0  0  0  0  0  0  0  0  0  0  0  0
    5.9248    3.6419   -0.5654 C   0  0  0  0  0  0  0  0  0  0  0  0
   -0.3946    0.0291    2.4027 C   0  0  0  0  0  0  0  0  0  0  0  0
   -1.0921    1.2152    1.7465 C   0  0  0  0  0  0  0  0  0  0  0  0
    0.9646   -2.1017    2.0504 C   0  0  0  0  0  0  0  0  0  0  0  0
    2.0106   -1.8673    3.1315 C   0  0  0  0  0  0  0  0  0  0  0  0
    5.1152    1.0420   -2.6099 C   0  0  0  0  0  0  0  0  0  0  0  0
    6.3458    1.6475   -3.2713 C   0  0  0  0  0  0  0  0  0  0  0  0
    3.5920    3.0760   -2.8401 C   0  0  0  0  0  0  0  0  0  0  0  0
    2.5835    3.9934   -2.1580 C   0  0  0  0  0  0  0  0  0  0  0  0
    7.1654    4.8512    1.1625 C   0  0  0  0  0  0  0  0  0  0  0  0
    7.5890    5.2583    2.4065 C   0  0  0  0  0  0  0  0  0  0  0  0
    8.6066    6.2557    2.6650 C   0  0  0  0  0  0  0  0  0  0  0  0
    8.7884    6.3277    4.1166 C   0  0  0  0  0  0  0  0  0  0  0  0
    7.8993    5.4286    4.7286 C   0  0  0  0  0  0  0  0  0  0  0  0
    7.1096    4.7362    3.6873 C   0  0  0  0  0  0  0  0  0  0  0  0
    9.6422    7.0908    4.8972 C   0  0  0  0  0  0  0  0  0  0  0  0
    9.5822    6.9325    6.2741 C   0  0  0  0  0  0  0  0  0  0  0  0
    8.6944    6.0382    6.8719 C   0  0  0  0  0  0  0  0  0  0  0  0
    7.8375    5.2714    6.0985 C   0  0  0  0  0  0  0  0  0  0  0  0
    6.2443    3.9019    3.8806 O   0  0  0  0  0  0  0  0  0  0  0  0
    9.2797    7.0240    1.7503 C   0  0  0  0  0  0  0  0  0  0  0  0
    9.1046    6.9871    0.3509 C   0  0  0  0  0  0  0  0  0  0  0  0
   10.2552    7.9855    2.0902 C   0  0  0  0  0  0  0  0  0  0  0  0
   10.4001    7.6586    7.0448 F   0  0  0  0  0  0  0  0  0  0  0  0
    8.6705    5.9184    8.2050 F   0  0  0  0  0  0  0  0  0  0  0  0
    9.0230    7.0253   -0.7944 N   0  0  0  0  0  0  0  0  0  0  0  0
   11.0515    8.7859    2.2965 N   0  0  0  0  0  0  0  0  0  0  0  0
   -6.4985   -4.7498   -1.9407 C   0  0  0  0  0  0  0  0  0  0  0  0
   -7.1971   -5.2175   -0.8536 C   0  0  0  0  0  0  0  0  0  0  0  0
   -8.4498   -5.9440   -0.8982 C   0  0  0  0  0  0  0  0  0  0  0  0
   -8.7927   -6.3059    0.4786 C   0  0  0  0  0  0  0  0  0  0  0  0
   -7.8068   -5.7955    1.3400 C   0  0  0  0  0  0  0  0  0  0  0  0
   -6.7798   -5.0907    0.5443 C   0  0  0  0  0  0  0  0  0  0  0  0
   -9.8617   -7.0174    1.0001 C   0  0  0  0  0  0  0  0  0  0  0  0
   -9.9158   -7.1987    2.3744 C   0  0  0  0  0  0  0  0  0  0  0  0
   -8.9333   -6.6852    3.2211 C   0  0  0  0  0  0  0  0  0  0  0  0
   -7.8610   -5.9733    2.7080 C   0  0  0  0  0  0  0  0  0  0  0  0
   -5.7925   -4.5284    0.9826 O   0  0  0  0  0  0  0  0  0  0  0  0
   -9.2107   -6.2342   -2.0008 C   0  0  0  0  0  0  0  0  0  0  0  0
   -8.9153   -5.8598   -3.3290 C   0  0  0  0  0  0  0  0  0  0  0  0
  -10.4276   -6.9480   -1.9567 C   0  0  0  0  0  0  0  0  0  0  0  0
  -10.9383   -7.8847    2.8965 F   0  0  0  0  0  0  0  0  0  0  0  0
   -9.0267   -6.8827    4.5417 F   0  0  0  0  0  0  0  0  0  0  0  0
   -8.7568   -5.5853   -4.4330 N   0  0  0  0  0  0  0  0  0  0  0  0
  -11.4197   -7.5240   -1.9913 N   0  0  0  0  0  0  0  0  0  0  0  0
   -3.1572   -2.7704   -1.7645 C   0  0  0  0  0  0  0  0  0  0  0  0
   -4.2955   -3.5010   -0.6749 S   0  0  0  0  0  0  0  0  0  0  0  0
   -5.2943   -4.0408   -2.0067 C   0  0  0  0  0  0  0  0  0  0  0  0
   -4.7304   -3.6487   -3.2220 C   0  0  0  0  0  0  0  0  0  0  0  0
   -3.5534   -2.9364   -3.0950 C   0  0  0  0  0  0  0  0  0  0  0  0
   -2.6557   -2.3103   -4.4880 S   0  0  0  0  0  0  0  0  0  0  0  0
   -3.3343   -0.6058   -4.5247 C   0  0  0  0  0  0  0  0  0  0  0  0
   -4.7994   -0.5792   -4.9070 C   0  0  0  0  0  0  0  0  0  0  0  0
   -2.2784   -2.3753    0.8629 H   0  0  0  0  0  0  0  0  0  0  0  0
    1.9591    0.4078   -2.7085 H   0  0  0  0  0  0  0  0  0  0  0  0
    2.6033    0.8824    2.2384 H   0  0  0  0  0  0  0  0  0  0  0  0
    6.4579    4.1401   -1.3557 H   0  0  0  0  0  0  0  0  0  0  0  0
   -1.1362   -0.6017    2.8970 H   0  0  0  0  0  0  0  0  0  0  0  0
    0.2958    0.3987    3.1611 H   0  0  0  0  0  0  0  0  0  0  0  0
   -0.3701    1.8544    1.2427 H   0  0  0  0  0  0  0  0  0  0  0  0
   -1.8227    0.8783    1.0145 H   0  0  0  0  0  0  0  0  0  0  0  0
   -1.6091    1.8066    2.4982 H   0  0  0  0  0  0  0  0  0  0  0  0
    0.1285   -2.6626    2.4741 H   0  0  0  0  0  0  0  0  0  0  0  0
    1.4078   -2.7148    1.2611 H   0  0  0  0  0  0  0  0  0  0  0  0
    1.6187   -1.2545    3.9386 H   0  0  0  0  0  0  0  0  0  0  0  0
    2.3099   -2.8246    3.5522 H   0  0  0  0  0  0  0  0  0  0  0  0
    2.8952   -1.3889    2.7205 H   0  0  0  0  0  0  0  0  0  0  0  0
    4.5110    0.5355   -3.3652 H   0  0  0  0  0  0  0  0  0  0  0  0
    5.4373    0.2894   -1.8853 H   0  0  0  0  0  0  0  0  0  0  0  0
    6.9146    0.8612   -3.7623 H   0  0  0  0  0  0  0  0  0  0  0  0
    6.0716    2.3830   -4.0224 H   0  0  0  0  0  0  0  0  0  0  0  0
    6.9895    2.1195   -2.5343 H   0  0  0  0  0  0  0  0  0  0  0  0
    4.3922    3.6828   -3.2648 H   0  0  0  0  0  0  0  0  0  0  0  0
    3.1033    2.5398   -3.6558 H   0  0  0  0  0  0  0  0  0  0  0  0
    1.7526    3.4216   -1.7504 H   0  0  0  0  0  0  0  0  0  0  0  0
    2.1888    4.7106   -2.8735 H   0  0  0  0  0  0  0  0  0  0  0  0
    3.0523    4.5436   -1.3452 H   0  0  0  0  0  0  0  0  0  0  0  0
    7.6543    5.3142    0.3138 H   0  0  0  0  0  0  0  0  0  0  0  0
   10.3470    7.7950    4.4868 H   0  0  0  0  0  0  0  0  0  0  0  0
    7.1502    4.5779    6.5560 H   0  0  0  0  0  0  0  0  0  0  0  0
   -6.9220   -4.9519   -2.9170 H   0  0  0  0  0  0  0  0  0  0  0  0
  -10.6460   -7.4353    0.3908 H   0  0  0  0  0  0  0  0  0  0  0  0
   -7.0988   -5.5754    3.3587 H   0  0  0  0  0  0  0  0  0  0  0  0
   -5.1785   -3.8831   -4.1715 H   0  0  0  0  0  0  0  0  0  0  0  0
   -3.1629   -0.1592   -3.5454 H   0  0  0  0  0  0  0  0  0  0  0  0
   -2.7214   -0.0937   -5.2648 H   0  0  0  0  0  0  0  0  0  0  0  0
   -4.9490   -1.0584   -5.8715 H   0  0  0  0  0  0  0  0  0  0  0  0
   -5.1433    0.4512   -4.9720 H   0  0  0  0  0  0  0  0  0  0  0  0
   -5.4028   -1.0974   -4.1639 H   0  0  0  0  0  0  0  0  0  0  0  0
  1  2  2  0  0  0  0
  2  3  1  0  0  0  0
  3  4  1  0  0  0  0
  4  5  1  0  0  0  0
  5  6  2  0  0  0  0
  6  7  1  0  0  0  0
  3  7  2  0  0  0  0
  7  8  1  0  0  0  0
  1  8  1  0  0  0  0
  6  9  1  0  0  0  0
  9 10  2  0  0  0  0
 10 11  1  0  0  0  0
 11 12  1  0  0  0  0
 12 13  2  0  0  0  0
 13 14  1  0  0  0  0
 10 14  1  0  0  0  0
 14 15  2  0  0  0  0
  5 15  1  0  0  0  0
 13 16  1  0  0  0  0
 16 17  1  0  0  0  0
 12 18  1  0  0  0  0
  4 19  1  0  0  0  0
 19 20  1  0  0  0  0
  4 21  1  0  0  0  0
 21 22  1  0  0  0  0
 11 23  1  0  0  0  0
 23 24  1  0  0  0  0
 11 25  1  0  0  0  0
 25 26  1  0  0  0  0
 18 17  2  0  0  0  0
 17 27  1  0  0  0  0
 27 28  2  0  0  0  0
 28 29  1  0  0  0  0
 29 30  1  0  0  0  0
 30 31  2  0  0  0  0
 31 32  1  0  0  0  0
 32 28  1  0  0  0  0
 30 33  1  0  0  0  0
 33 34  2  0  0  0  0
 34 35  1  0  0  0  0
 35 36  2  0  0  0  0
 36 31  1  0  0  0  0
 32 37  2  0  0  0  0
 29 38  2  0  0  0  0
 38 39  1  0  0  0  0
 38 40  1  0  0  0  0
 34 41  1  0  0  0  0
 35 42  1  0  0  0  0
 39 43  3  0  0  0  0
 40 44  3  0  0  0  0
 45 46  2  0  0  0  0
 46 47  1  0  0  0  0
 47 48  1  0  0  0  0
 48 49  2  0  0  0  0
 49 50  1  0  0  0  0
 50 46  1  0  0  0  0
 48 51  1  0  0  0  0
 51 52  2  0  0  0  0
 52 53  1  0  0  0  0
 53 54  2  0  0  0  0
 54 49  1  0  0  0  0
 50 55  2  0  0  0  0
 47 56  2  0  0  0  0
 56 57  1  0  0  0  0
 56 58  1  0  0  0  0
 52 59  1  0  0  0  0
 53 60  1  0  0  0  0
 57 61  3  0  0  0  0
 58 62  3  0  0  0  0
  1 63  1  0  0  0  0
 63 64  1  0  0  0  0
 64 65  1  0  0  0  0
 65 66  2  0  0  0  0
 66 67  1  0  0  0  0
 67 63  2  0  0  0  0
 67 68  1  0  0  0  0
 68 69  1  0  0  0  0
 69 70  1  0  0  0  0
 45 65  1  0  0  0  0
  2 71  1  0  0  0  0
  9 72  1  0  0  0  0
 15 73  1  0  0  0  0
 18 74  1  0  0  0  0
 19 75  1  0  0  0  0
 19 76  1  0  0  0  0
 20 77  1  0  0  0  0
 20 78  1  0  0  0  0
 20 79  1  0  0  0  0
 21 80  1  0  0  0  0
 21 81  1  0  0  0  0
 22 82  1  0  0  0  0
 22 83  1  0  0  0  0
 22 84  1  0  0  0  0
 23 85  1  0  0  0  0
 23 86  1  0  0  0  0
 24 87  1  0  0  0  0
 24 88  1  0  0  0  0
 24 89  1  0  0  0  0
 25 90  1  0  0  0  0
 25 91  1  0  0  0  0
 26 92  1  0  0  0  0
 26 93  1  0  0  0  0
 26 94  1  0  0  0  0
 27 95  1  0  0  0  0
 33 96  1  0  0  0  0
 36 97  1  0  0  0  0
 45 98  1  0  0  0  0
 51 99  1  0  0  0  0
 54100  1  0  0  0  0
 66101  1  0  0  0  0
 69102  1  0  0  0  0
 69103  1  0  0  0  0
 70104  1  0  0  0  0
 70105  1  0  0  0  0
 70106  1  0  0  0  0
M  END
