IDT-2PDI.sdf
  xtb     12202113403D
 energy: -332.346754659179 gnorm: 0.000195284231 xtb: 6.4.1 (unknown)
206228  0     0  0            999 V2000
   10.2205    0.9763    0.6036 N   0  0  0  0  0  0  0  0  0  0  0  0
   10.5785   -0.3317    0.8956 C   0  0  0  0  0  0  0  0  0  0  0  0
    9.7399   -1.3857    0.3082 C   0  0  0  0  0  0  0  0  0  0  0  0
    8.6689   -1.0512   -0.5343 C   0  0  0  0  0  0  0  0  0  0  0  0
    8.3335    0.3004   -0.7638 C   0  0  0  0  0  0  0  0  0  0  0  0
    9.1567    1.3753   -0.1886 C   0  0  0  0  0  0  0  0  0  0  0  0
    8.9272    2.5525   -0.3810 O   0  0  0  0  0  0  0  0  0  0  0  0
   11.5397   -0.5712    1.5990 O   0  0  0  0  0  0  0  0  0  0  0  0
    7.9005   -2.0660   -1.1493 C   0  0  0  0  0  0  0  0  0  0  0  0
    6.9029   -1.7062   -2.0916 C   0  0  0  0  0  0  0  0  0  0  0  0
    6.4024   -0.3842   -2.0806 C   0  0  0  0  0  0  0  0  0  0  0  0
    7.1775    0.6039   -1.4429 C   0  0  0  0  0  0  0  0  0  0  0  0
   10.0008   -2.7195    0.5741 C   0  0  0  0  0  0  0  0  0  0  0  0
    9.1731   -3.7147    0.0760 C   0  0  0  0  0  0  0  0  0  0  0  0
    8.1042   -3.4226   -0.7664 C   0  0  0  0  0  0  0  0  0  0  0  0
    7.1688   -4.4220   -1.2539 C   0  0  0  0  0  0  0  0  0  0  0  0
    6.4257   -4.0909   -2.4129 C   0  0  0  0  0  0  0  0  0  0  0  0
    6.4297   -2.7724   -2.9386 C   0  0  0  0  0  0  0  0  0  0  0  0
    5.6647   -5.0695   -3.0917 C   0  0  0  0  0  0  0  0  0  0  0  0
    5.1031   -4.7923   -4.3518 C   0  0  0  0  0  0  0  0  0  0  0  0
    5.3832   -3.5836   -4.9653 C   0  0  0  0  0  0  0  0  0  0  0  0
    6.0294   -2.5784   -4.2570 C   0  0  0  0  0  0  0  0  0  0  0  0
    6.9768   -5.6956   -0.6770 C   0  0  0  0  0  0  0  0  0  0  0  0
    6.1202   -6.6131   -1.2974 C   0  0  0  0  0  0  0  0  0  0  0  0
    5.5001   -6.3303   -2.4979 C   0  0  0  0  0  0  0  0  0  0  0  0
    4.6610   -7.3500   -3.1452 C   0  0  0  0  0  0  0  0  0  0  0  0
    4.1105   -7.0065   -4.3665 N   0  0  0  0  0  0  0  0  0  0  0  0
    4.2812   -5.7995   -5.0307 C   0  0  0  0  0  0  0  0  0  0  0  0
    3.7614   -5.6071   -6.1120 O   0  0  0  0  0  0  0  0  0  0  0  0
    4.4419   -8.4345   -2.6390 O   0  0  0  0  0  0  0  0  0  0  0  0
    3.3103   -8.0209   -5.0454 C   0  0  0  0  0  0  0  0  0  0  0  0
    4.1715   -8.8582   -5.9824 C   0  0  0  0  0  0  0  0  0  0  0  0
   11.0589    2.0312    1.1643 C   0  0  0  0  0  0  0  0  0  0  0  0
   12.2016    2.3811    0.2197 C   0  0  0  0  0  0  0  0  0  0  0  0
   -3.9980   -0.6614    7.3338 N   0  0  0  0  0  0  0  0  0  0  0  0
   -3.5291   -0.9336    6.0584 C   0  0  0  0  0  0  0  0  0  0  0  0
   -4.4254   -0.6054    4.9435 C   0  0  0  0  0  0  0  0  0  0  0  0
   -5.6648    0.0139    5.1827 C   0  0  0  0  0  0  0  0  0  0  0  0
   -6.0606    0.3012    6.4999 C   0  0  0  0  0  0  0  0  0  0  0  0
   -5.1919   -0.0349    7.6385 C   0  0  0  0  0  0  0  0  0  0  0  0
   -5.4979    0.2109    8.7894 O   0  0  0  0  0  0  0  0  0  0  0  0
   -2.4299   -1.4279    5.8957 O   0  0  0  0  0  0  0  0  0  0  0  0
   -6.5413    0.3238    4.1134 C   0  0  0  0  0  0  0  0  0  0  0  0
   -7.8521    0.8010    4.3779 C   0  0  0  0  0  0  0  0  0  0  0  0
   -8.1832    1.1597    5.7035 C   0  0  0  0  0  0  0  0  0  0  0  0
   -7.2772    0.9026    6.7380 C   0  0  0  0  0  0  0  0  0  0  0  0
   -4.0781   -0.9491    3.6486 C   0  0  0  0  0  0  0  0  0  0  0  0
   -4.8868   -0.5729    2.5895 C   0  0  0  0  0  0  0  0  0  0  0  0
   -6.0755    0.1240    2.7849 C   0  0  0  0  0  0  0  0  0  0  0  0
   -6.8988    0.5758    1.6821 C   0  0  0  0  0  0  0  0  0  0  0  0
   -8.2804    0.7664    1.9394 C   0  0  0  0  0  0  0  0  0  0  0  0
   -8.7882    0.8406    3.2678 C   0  0  0  0  0  0  0  0  0  0  0  0
   -9.1747    0.8926    0.8471 C   0  0  0  0  0  0  0  0  0  0  0  0
  -10.5591    0.9921    1.0696 C   0  0  0  0  0  0  0  0  0  0  0  0
  -11.0391    0.9745    2.3661 C   0  0  0  0  0  0  0  0  0  0  0  0
  -10.1672    0.9174    3.4425 C   0  0  0  0  0  0  0  0  0  0  0  0
   -6.4128    0.7625    0.3763 C   0  0  0  0  0  0  0  0  0  0  0  0
   -7.3157    0.8760   -0.6872 C   0  0  0  0  0  0  0  0  0  0  0  0
   -8.6751    0.8992   -0.4711 C   0  0  0  0  0  0  0  0  0  0  0  0
   -9.5906    0.9905   -1.6204 C   0  0  0  0  0  0  0  0  0  0  0  0
  -10.9391    1.0894   -1.3267 N   0  0  0  0  0  0  0  0  0  0  0  0
  -11.4966    1.0898   -0.0580 C   0  0  0  0  0  0  0  0  0  0  0  0
  -12.6995    1.1675    0.0934 O   0  0  0  0  0  0  0  0  0  0  0  0
   -9.1987    0.9911   -2.7701 O   0  0  0  0  0  0  0  0  0  0  0  0
  -11.8612    1.1676   -2.4554 C   0  0  0  0  0  0  0  0  0  0  0  0
  -12.3122   -0.2210   -2.8898 C   0  0  0  0  0  0  0  0  0  0  0  0
   -3.1342   -1.0345    8.4499 C   0  0  0  0  0  0  0  0  0  0  0  0
   -2.1303    0.0651    8.7685 C   0  0  0  0  0  0  0  0  0  0  0  0
    7.6417   -5.9753    0.4660 O   0  0  0  0  0  0  0  0  0  0  0  0
    7.3437   -7.1414    1.2175 C   0  0  0  0  0  0  0  0  0  0  0  0
    6.0110   -7.0430    1.9509 C   0  0  0  0  0  0  0  0  0  0  0  0
    5.0360   -0.0547   -2.4215 C   0  0  0  0  0  0  0  0  0  0  0  0
    4.2478    1.1316   -1.3669 S   0  0  0  0  0  0  0  0  0  0  0  0
    2.7016    0.6719   -1.9564 C   0  0  0  0  0  0  0  0  0  0  0  0
    2.8018   -0.2802   -2.9507 C   0  0  0  0  0  0  0  0  0  0  0  0
    4.1057   -0.6739   -3.2266 C   0  0  0  0  0  0  0  0  0  0  0  0
    1.3257    0.9038   -1.6314 C   0  0  0  0  0  0  0  0  0  0  0  0
    0.5569    0.0431   -2.4541 C   0  0  0  0  0  0  0  0  0  0  0  0
    1.4456   -0.7335   -3.4119 C   0  0  0  0  0  0  0  0  0  0  0  0
    1.2532   -2.2331   -3.2686 C   0  0  0  0  0  0  0  0  0  0  0  0
    1.2918   -0.3040   -4.8626 C   0  0  0  0  0  0  0  0  0  0  0  0
    1.8951   -1.0626   -5.8595 C   0  0  0  0  0  0  0  0  0  0  0  0
    1.8248   -0.6680   -7.1809 C   0  0  0  0  0  0  0  0  0  0  0  0
    1.1601    0.4972   -7.5433 C   0  0  0  0  0  0  0  0  0  0  0  0
    0.5655    1.2537   -6.5436 C   0  0  0  0  0  0  0  0  0  0  0  0
    0.6338    0.8640   -5.2177 C   0  0  0  0  0  0  0  0  0  0  0  0
    2.0889   -3.0017   -2.4696 C   0  0  0  0  0  0  0  0  0  0  0  0
    1.9218   -4.3723   -2.3871 C   0  0  0  0  0  0  0  0  0  0  0  0
    0.9092   -5.0120   -3.0866 C   0  0  0  0  0  0  0  0  0  0  0  0
    0.0603   -4.2372   -3.8677 C   0  0  0  0  0  0  0  0  0  0  0  0
    0.2291   -2.8694   -3.9603 C   0  0  0  0  0  0  0  0  0  0  0  0
    1.0474    0.8998   -8.9854 C   0  0  0  0  0  0  0  0  0  0  0  0
   -0.1880    0.2613   -9.6233 C   0  0  0  0  0  0  0  0  0  0  0  0
    0.6972   -6.4927   -2.9610 C   0  0  0  0  0  0  0  0  0  0  0  0
   -0.3785   -6.7926   -1.9149 C   0  0  0  0  0  0  0  0  0  0  0  0
    0.7356    1.7249   -0.6754 C   0  0  0  0  0  0  0  0  0  0  0  0
   -0.6313    1.6506   -0.5390 C   0  0  0  0  0  0  0  0  0  0  0  0
   -1.3935    0.7631   -1.3327 C   0  0  0  0  0  0  0  0  0  0  0  0
   -0.8082   -0.0389   -2.3076 C   0  0  0  0  0  0  0  0  0  0  0  0
   -1.5196    2.4057    0.4364 C   0  0  0  0  0  0  0  0  0  0  0  0
   -2.8473    1.7346    0.1889 C   0  0  0  0  0  0  0  0  0  0  0  0
   -2.7455    0.8560   -0.8731 C   0  0  0  0  0  0  0  0  0  0  0  0
   -0.9933    2.2427    1.8466 C   0  0  0  0  0  0  0  0  0  0  0  0
   -1.6894    3.8707    0.0659 C   0  0  0  0  0  0  0  0  0  0  0  0
   -0.0404    3.1218    2.3466 C   0  0  0  0  0  0  0  0  0  0  0  0
    0.4563    2.9605    3.6257 C   0  0  0  0  0  0  0  0  0  0  0  0
    0.0208    1.9185    4.4351 C   0  0  0  0  0  0  0  0  0  0  0  0
   -0.9156    1.0301    3.9247 C   0  0  0  0  0  0  0  0  0  0  0  0
   -1.4119    1.1871    2.6434 C   0  0  0  0  0  0  0  0  0  0  0  0
    0.5130    1.7904    5.8478 C   0  0  0  0  0  0  0  0  0  0  0  0
   -0.2520    2.7475    6.7645 C   0  0  0  0  0  0  0  0  0  0  0  0
   -2.3423    4.7198    0.9515 C   0  0  0  0  0  0  0  0  0  0  0  0
   -2.5504    6.0469    0.6296 C   0  0  0  0  0  0  0  0  0  0  0  0
   -2.1154    6.5626   -0.5846 C   0  0  0  0  0  0  0  0  0  0  0  0
   -1.4738    5.7079   -1.4701 C   0  0  0  0  0  0  0  0  0  0  0  0
   -1.2654    4.3776   -1.1539 C   0  0  0  0  0  0  0  0  0  0  0  0
   -2.3762    7.9940   -0.9555 C   0  0  0  0  0  0  0  0  0  0  0  0
   -3.6678    8.1091   -1.7678 C   0  0  0  0  0  0  0  0  0  0  0  0
   -4.1287    1.7793    0.7420 C   0  0  0  0  0  0  0  0  0  0  0  0
   -5.0007    0.9369    0.0911 C   0  0  0  0  0  0  0  0  0  0  0  0
   -4.2430    0.1021   -1.2466 S   0  0  0  0  0  0  0  0  0  0  0  0
   -9.3856    1.7348    5.9267 O   0  0  0  0  0  0  0  0  0  0  0  0
   -9.7048    2.2958    7.1908 C   0  0  0  0  0  0  0  0  0  0  0  0
   -8.9581    3.5963    7.4635 C   0  0  0  0  0  0  0  0  0  0  0  0
    6.8683    1.6381   -1.4927 H   0  0  0  0  0  0  0  0  0  0  0  0
   10.8403   -2.9661    1.2061 H   0  0  0  0  0  0  0  0  0  0  0  0
    9.3727   -4.7368    0.3457 H   0  0  0  0  0  0  0  0  0  0  0  0
    5.0464   -3.4215   -5.9782 H   0  0  0  0  0  0  0  0  0  0  0  0
    6.2387   -1.6308   -4.7319 H   0  0  0  0  0  0  0  0  0  0  0  0
    5.9490   -7.5929   -0.8800 H   0  0  0  0  0  0  0  0  0  0  0  0
    2.8618   -8.6528   -4.2773 H   0  0  0  0  0  0  0  0  0  0  0  0
    2.5340   -7.4995   -5.6079 H   0  0  0  0  0  0  0  0  0  0  0  0
    4.6241   -8.2245   -6.7415 H   0  0  0  0  0  0  0  0  0  0  0  0
    3.5568   -9.6075   -6.4730 H   0  0  0  0  0  0  0  0  0  0  0  0
    4.9565   -9.3614   -5.4223 H   0  0  0  0  0  0  0  0  0  0  0  0
   11.4510    1.6655    2.1150 H   0  0  0  0  0  0  0  0  0  0  0  0
   10.4214    2.9017    1.3282 H   0  0  0  0  0  0  0  0  0  0  0  0
   12.8121    3.1655    0.6579 H   0  0  0  0  0  0  0  0  0  0  0  0
   12.8254    1.5072    0.0465 H   0  0  0  0  0  0  0  0  0  0  0  0
   11.8075    2.7334   -0.7308 H   0  0  0  0  0  0  0  0  0  0  0  0
   -7.5189    1.1236    7.7655 H   0  0  0  0  0  0  0  0  0  0  0  0
   -3.1637   -1.4973    3.4810 H   0  0  0  0  0  0  0  0  0  0  0  0
   -4.5887   -0.8428    1.5893 H   0  0  0  0  0  0  0  0  0  0  0  0
  -12.1059    1.0218    2.5237 H   0  0  0  0  0  0  0  0  0  0  0  0
  -10.5805    0.9196    4.4348 H   0  0  0  0  0  0  0  0  0  0  0  0
   -6.9475    0.9574   -1.6996 H   0  0  0  0  0  0  0  0  0  0  0  0
  -11.3364    1.6692   -3.2703 H   0  0  0  0  0  0  0  0  0  0  0  0
  -12.7186    1.7621   -2.1352 H   0  0  0  0  0  0  0  0  0  0  0  0
  -11.4543   -0.8153   -3.1956 H   0  0  0  0  0  0  0  0  0  0  0  0
  -12.8212   -0.7229   -2.0701 H   0  0  0  0  0  0  0  0  0  0  0  0
  -12.9975   -0.1377   -3.7285 H   0  0  0  0  0  0  0  0  0  0  0  0
   -2.6122   -1.9501    8.1649 H   0  0  0  0  0  0  0  0  0  0  0  0
   -3.7804   -1.2214    9.3092 H   0  0  0  0  0  0  0  0  0  0  0  0
   -1.5106   -0.2383    9.6076 H   0  0  0  0  0  0  0  0  0  0  0  0
   -1.4912    0.2465    7.9087 H   0  0  0  0  0  0  0  0  0  0  0  0
   -2.6488    0.9844    9.0305 H   0  0  0  0  0  0  0  0  0  0  0  0
    8.1613   -7.1978    1.9414 H   0  0  0  0  0  0  0  0  0  0  0  0
    7.3826   -8.0352    0.5846 H   0  0  0  0  0  0  0  0  0  0  0  0
    5.9993   -6.1532    2.5758 H   0  0  0  0  0  0  0  0  0  0  0  0
    5.1796   -6.9854    1.2528 H   0  0  0  0  0  0  0  0  0  0  0  0
    5.8790   -7.9180    2.5806 H   0  0  0  0  0  0  0  0  0  0  0  0
    4.3257   -1.4099   -3.9698 H   0  0  0  0  0  0  0  0  0  0  0  0
    2.4114   -1.9758   -5.6003 H   0  0  0  0  0  0  0  0  0  0  0  0
    2.2956   -1.2730   -7.9424 H   0  0  0  0  0  0  0  0  0  0  0  0
    0.0443    2.1645   -6.8026 H   0  0  0  0  0  0  0  0  0  0  0  0
    0.1683    1.4751   -4.4583 H   0  0  0  0  0  0  0  0  0  0  0  0
    2.8860   -2.5368   -1.9079 H   0  0  0  0  0  0  0  0  0  0  0  0
    2.5951   -4.9522   -1.7699 H   0  0  0  0  0  0  0  0  0  0  0  0
   -0.7368   -4.7138   -4.4202 H   0  0  0  0  0  0  0  0  0  0  0  0
   -0.4277   -2.2914   -4.5944 H   0  0  0  0  0  0  0  0  0  0  0  0
    1.9384    0.5798   -9.5294 H   0  0  0  0  0  0  0  0  0  0  0  0
    0.9714    1.9864   -9.0621 H   0  0  0  0  0  0  0  0  0  0  0  0
   -0.2704    0.5518  -10.6681 H   0  0  0  0  0  0  0  0  0  0  0  0
   -1.0889    0.5780   -9.1023 H   0  0  0  0  0  0  0  0  0  0  0  0
   -0.1241   -0.8230   -9.5676 H   0  0  0  0  0  0  0  0  0  0  0  0
    0.3859   -6.9045   -3.9233 H   0  0  0  0  0  0  0  0  0  0  0  0
    1.6289   -6.9777   -2.6637 H   0  0  0  0  0  0  0  0  0  0  0  0
   -1.3226   -6.3328   -2.1980 H   0  0  0  0  0  0  0  0  0  0  0  0
   -0.0827   -6.3967   -0.9458 H   0  0  0  0  0  0  0  0  0  0  0  0
   -0.5275   -7.8656   -1.8213 H   0  0  0  0  0  0  0  0  0  0  0  0
    1.3347    2.3778   -0.0595 H   0  0  0  0  0  0  0  0  0  0  0  0
   -1.4068   -0.7065   -2.9078 H   0  0  0  0  0  0  0  0  0  0  0  0
    0.3041    3.9448    1.7366 H   0  0  0  0  0  0  0  0  0  0  0  0
    1.1945    3.6551    4.0015 H   0  0  0  0  0  0  0  0  0  0  0  0
   -1.2547    0.2032    4.5315 H   0  0  0  0  0  0  0  0  0  0  0  0
   -2.1370    0.4841    2.2617 H   0  0  0  0  0  0  0  0  0  0  0  0
    0.3722    0.7642    6.1923 H   0  0  0  0  0  0  0  0  0  0  0  0
    1.5789    2.0243    5.8941 H   0  0  0  0  0  0  0  0  0  0  0  0
   -1.3195    2.5413    6.7187 H   0  0  0  0  0  0  0  0  0  0  0  0
   -0.0919    3.7779    6.4549 H   0  0  0  0  0  0  0  0  0  0  0  0
    0.0796    2.6387    7.7946 H   0  0  0  0  0  0  0  0  0  0  0  0
   -2.6781    4.3385    1.9052 H   0  0  0  0  0  0  0  0  0  0  0  0
   -3.0557    6.6933    1.3333 H   0  0  0  0  0  0  0  0  0  0  0  0
   -1.1283    6.0876   -2.4211 H   0  0  0  0  0  0  0  0  0  0  0  0
   -0.7640    3.7352   -1.8624 H   0  0  0  0  0  0  0  0  0  0  0  0
   -1.5441    8.3797   -1.5482 H   0  0  0  0  0  0  0  0  0  0  0  0
   -2.4629    8.6014   -0.0524 H   0  0  0  0  0  0  0  0  0  0  0  0
   -3.5947    7.5214   -2.6801 H   0  0  0  0  0  0  0  0  0  0  0  0
   -3.8581    9.1456   -2.0362 H   0  0  0  0  0  0  0  0  0  0  0  0
   -4.5120    7.7386   -1.1904 H   0  0  0  0  0  0  0  0  0  0  0  0
   -4.4233    2.3861    1.5790 H   0  0  0  0  0  0  0  0  0  0  0  0
  -10.7780    2.4930    7.1205 H   0  0  0  0  0  0  0  0  0  0  0  0
   -9.5410    1.5689    7.9942 H   0  0  0  0  0  0  0  0  0  0  0  0
   -9.3100    4.0257    8.3971 H   0  0  0  0  0  0  0  0  0  0  0  0
   -9.1430    4.3030    6.6581 H   0  0  0  0  0  0  0  0  0  0  0  0
   -7.8865    3.4286    7.5372 H   0  0  0  0  0  0  0  0  0  0  0  0
  1  2  1  0  0  0  0
  2  3  1  0  0  0  0
  3  4  1  0  0  0  0
  4  5  2  0  0  0  0
  5  6  1  0  0  0  0
  6  1  1  0  0  0  0
  6  7  2  0  0  0  0
  2  8  2  0  0  0  0
  4  9  1  0  0  0  0
  9 10  2  0  0  0  0
 10 11  1  0  0  0  0
 11 12  2  0  0  0  0
 12  5  1  0  0  0  0
  3 13  2  0  0  0  0
 13 14  1  0  0  0  0
 14 15  2  0  0  0  0
 15  9  1  0  0  0  0
 15 16  1  0  0  0  0
 16 17  1  0  0  0  0
 17 18  2  0  0  0  0
 18 10  1  0  0  0  0
 17 19  1  0  0  0  0
 19 20  2  0  0  0  0
 20 21  1  0  0  0  0
 21 22  2  0  0  0  0
 22 18  1  0  0  0  0
 16 23  2  0  0  0  0
 23 24  1  0  0  0  0
 24 25  2  0  0  0  0
 25 19  1  0  0  0  0
 25 26  1  0  0  0  0
 26 27  1  0  0  0  0
 27 28  1  0  0  0  0
 28 20  1  0  0  0  0
 28 29  2  0  0  0  0
 26 30  2  0  0  0  0
 27 31  1  0  0  0  0
 31 32  1  0  0  0  0
  1 33  1  0  0  0  0
 33 34  1  0  0  0  0
 35 36  1  0  0  0  0
 36 37  1  0  0  0  0
 37 38  1  0  0  0  0
 38 39  2  0  0  0  0
 39 40  1  0  0  0  0
 40 35  1  0  0  0  0
 40 41  2  0  0  0  0
 36 42  2  0  0  0  0
 38 43  1  0  0  0  0
 43 44  2  0  0  0  0
 44 45  1  0  0  0  0
 45 46  2  0  0  0  0
 46 39  1  0  0  0  0
 37 47  2  0  0  0  0
 47 48  1  0  0  0  0
 48 49  2  0  0  0  0
 49 43  1  0  0  0  0
 49 50  1  0  0  0  0
 50 51  1  0  0  0  0
 51 52  2  0  0  0  0
 52 44  1  0  0  0  0
 51 53  1  0  0  0  0
 53 54  2  0  0  0  0
 54 55  1  0  0  0  0
 55 56  2  0  0  0  0
 56 52  1  0  0  0  0
 50 57  2  0  0  0  0
 57 58  1  0  0  0  0
 58 59  2  0  0  0  0
 59 53  1  0  0  0  0
 59 60  1  0  0  0  0
 60 61  1  0  0  0  0
 61 62  1  0  0  0  0
 62 54  1  0  0  0  0
 62 63  2  0  0  0  0
 60 64  2  0  0  0  0
 61 65  1  0  0  0  0
 65 66  1  0  0  0  0
 35 67  1  0  0  0  0
 67 68  1  0  0  0  0
 23 69  1  0  0  0  0
 69 70  1  0  0  0  0
 70 71  1  0  0  0  0
 11 72  1  0  0  0  0
 72 73  1  0  0  0  0
 73 74  1  0  0  0  0
 74 75  2  0  0  0  0
 75 76  1  0  0  0  0
 76 72  2  0  0  0  0
 74 77  1  0  0  0  0
 77 78  2  0  0  0  0
 78 79  1  0  0  0  0
 79 75  1  0  0  0  0
 79 80  1  0  0  0  0
 79 81  1  0  0  0  0
 81 82  2  0  0  0  0
 82 83  1  0  0  0  0
 83 84  2  0  0  0  0
 84 85  1  0  0  0  0
 85 86  2  0  0  0  0
 86 81  1  0  0  0  0
 80 87  2  0  0  0  0
 87 88  1  0  0  0  0
 88 89  2  0  0  0  0
 89 90  1  0  0  0  0
 90 91  2  0  0  0  0
 91 80  1  0  0  0  0
 84 92  1  0  0  0  0
 92 93  1  0  0  0  0
 89 94  1  0  0  0  0
 94 95  1  0  0  0  0
 77 96  1  0  0  0  0
 96 97  2  0  0  0  0
 97 98  1  0  0  0  0
 98 99  2  0  0  0  0
 99 78  1  0  0  0  0
 97100  1  0  0  0  0
100101  1  0  0  0  0
101102  2  0  0  0  0
102 98  1  0  0  0  0
100103  1  0  0  0  0
100104  1  0  0  0  0
103105  2  0  0  0  0
105106  1  0  0  0  0
106107  2  0  0  0  0
107108  1  0  0  0  0
108109  2  0  0  0  0
109103  1  0  0  0  0
107110  1  0  0  0  0
110111  1  0  0  0  0
104112  2  0  0  0  0
112113  1  0  0  0  0
113114  2  0  0  0  0
114115  1  0  0  0  0
115116  2  0  0  0  0
116104  1  0  0  0  0
114117  1  0  0  0  0
117118  1  0  0  0  0
101119  1  0  0  0  0
119120  2  0  0  0  0
120121  1  0  0  0  0
121102  1  0  0  0  0
120 57  1  0  0  0  0
 45122  1  0  0  0  0
122123  1  0  0  0  0
123124  1  0  0  0  0
 12125  1  0  0  0  0
 13126  1  0  0  0  0
 14127  1  0  0  0  0
 21128  1  0  0  0  0
 22129  1  0  0  0  0
 24130  1  0  0  0  0
 31131  1  0  0  0  0
 31132  1  0  0  0  0
 32133  1  0  0  0  0
 32134  1  0  0  0  0
 32135  1  0  0  0  0
 33136  1  0  0  0  0
 33137  1  0  0  0  0
 34138  1  0  0  0  0
 34139  1  0  0  0  0
 34140  1  0  0  0  0
 46141  1  0  0  0  0
 47142  1  0  0  0  0
 48143  1  0  0  0  0
 55144  1  0  0  0  0
 56145  1  0  0  0  0
 58146  1  0  0  0  0
 65147  1  0  0  0  0
 65148  1  0  0  0  0
 66149  1  0  0  0  0
 66150  1  0  0  0  0
 66151  1  0  0  0  0
 67152  1  0  0  0  0
 67153  1  0  0  0  0
 68154  1  0  0  0  0
 68155  1  0  0  0  0
 68156  1  0  0  0  0
 70157  1  0  0  0  0
 70158  1  0  0  0  0
 71159  1  0  0  0  0
 71160  1  0  0  0  0
 71161  1  0  0  0  0
 76162  1  0  0  0  0
 82163  1  0  0  0  0
 83164  1  0  0  0  0
 85165  1  0  0  0  0
 86166  1  0  0  0  0
 87167  1  0  0  0  0
 88168  1  0  0  0  0
 90169  1  0  0  0  0
 91170  1  0  0  0  0
 92171  1  0  0  0  0
 92172  1  0  0  0  0
 93173  1  0  0  0  0
 93174  1  0  0  0  0
 93175  1  0  0  0  0
 94176  1  0  0  0  0
 94177  1  0  0  0  0
 95178  1  0  0  0  0
 95179  1  0  0  0  0
 95180  1  0  0  0  0
 96181  1  0  0  0  0
 99182  1  0  0  0  0
105183  1  0  0  0  0
106184  1  0  0  0  0
108185  1  0  0  0  0
109186  1  0  0  0  0
110187  1  0  0  0  0
110188  1  0  0  0  0
111189  1  0  0  0  0
111190  1  0  0  0  0
111191  1  0  0  0  0
112192  1  0  0  0  0
113193  1  0  0  0  0
115194  1  0  0  0  0
116195  1  0  0  0  0
117196  1  0  0  0  0
117197  1  0  0  0  0
118198  1  0  0  0  0
118199  1  0  0  0  0
118200  1  0  0  0  0
119201  1  0  0  0  0
123202  1  0  0  0  0
123203  1  0  0  0  0
124204  1  0  0  0  0
124205  1  0  0  0  0
124206  1  0  0  0  0
M  END
