IDT-CR.sdf
  xtb     12202114013D
 energy: -234.001755086788 gnorm: 0.000279529327 xtb: 6.4.1 (unknown)
152164  0     0  0            999 V2000
   -0.4573    0.0661    1.2150 C   0  0  0  0  0  0  0  0  0  0  0  0
   -1.4390   -0.3435    0.2833 C   0  0  0  0  0  0  0  0  0  0  0  0
   -1.2827   -0.1449   -1.0860 C   0  0  0  0  0  0  0  0  0  0  0  0
   -0.1140    0.4455   -1.5061 C   0  0  0  0  0  0  0  0  0  0  0  0
    0.8638    0.8619   -0.5737 C   0  0  0  0  0  0  0  0  0  0  0  0
    0.6960    0.6892    0.7959 C   0  0  0  0  0  0  0  0  0  0  0  0
   -0.8763   -0.2768    2.6356 C   0  0  0  0  0  0  0  0  0  0  0  0
   -2.1885   -0.9760    2.3861 C   0  0  0  0  0  0  0  0  0  0  0  0
   -2.4766   -0.9828    1.0294 C   0  0  0  0  0  0  0  0  0  0  0  0
   -3.1262   -1.6549    3.1519 C   0  0  0  0  0  0  0  0  0  0  0  0
   -4.1563   -2.1815    2.3844 C   0  0  0  0  0  0  0  0  0  0  0  0
   -3.9385   -1.8014    0.6790 S   0  0  0  0  0  0  0  0  0  0  0  0
    0.3320    0.7410   -2.9301 C   0  0  0  0  0  0  0  0  0  0  0  0
    1.6870    1.3540   -2.6839 C   0  0  0  0  0  0  0  0  0  0  0  0
    1.9525    1.4004   -1.3325 C   0  0  0  0  0  0  0  0  0  0  0  0
    2.7523    1.8186   -3.4695 C   0  0  0  0  0  0  0  0  0  0  0  0
    3.8135    2.2186   -2.7050 C   0  0  0  0  0  0  0  0  0  0  0  0
    3.5159    2.0333   -0.9985 S   0  0  0  0  0  0  0  0  0  0  0  0
    0.5361   -0.4972   -3.7827 C   0  0  0  0  0  0  0  0  0  0  0  0
   -0.6699    1.6938   -3.5532 C   0  0  0  0  0  0  0  0  0  0  0  0
    0.0430   -1.2539    3.3431 C   0  0  0  0  0  0  0  0  0  0  0  0
   -1.0179    1.0241    3.4049 C   0  0  0  0  0  0  0  0  0  0  0  0
   -0.1043   -1.4482    4.7119 C   0  0  0  0  0  0  0  0  0  0  0  0
    0.6767   -2.3715    5.3779 C   0  0  0  0  0  0  0  0  0  0  0  0
    1.6226   -3.1282    4.6971 C   0  0  0  0  0  0  0  0  0  0  0  0
    1.7577   -2.9386    3.3293 C   0  0  0  0  0  0  0  0  0  0  0  0
    0.9757   -2.0163    2.6563 C   0  0  0  0  0  0  0  0  0  0  0  0
   -2.2275    1.7021    3.4557 C   0  0  0  0  0  0  0  0  0  0  0  0
   -2.3294    2.9064    4.1274 C   0  0  0  0  0  0  0  0  0  0  0  0
   -1.2281    3.4680    4.7585 C   0  0  0  0  0  0  0  0  0  0  0  0
   -0.0160    2.7930    4.6921 C   0  0  0  0  0  0  0  0  0  0  0  0
    0.0905    1.5880    4.0243 C   0  0  0  0  0  0  0  0  0  0  0  0
    0.6255   -1.7661   -3.2303 C   0  0  0  0  0  0  0  0  0  0  0  0
    0.8630   -2.8658   -4.0359 C   0  0  0  0  0  0  0  0  0  0  0  0
    1.0320   -2.7263   -5.4060 C   0  0  0  0  0  0  0  0  0  0  0  0
    0.9549   -1.4511   -5.9529 C   0  0  0  0  0  0  0  0  0  0  0  0
    0.7134   -0.3511   -5.1540 C   0  0  0  0  0  0  0  0  0  0  0  0
   -1.8135    1.1959   -4.1654 C   0  0  0  0  0  0  0  0  0  0  0  0
   -2.7542    2.0551   -4.7000 C   0  0  0  0  0  0  0  0  0  0  0  0
   -2.5809    3.4318   -4.6379 C   0  0  0  0  0  0  0  0  0  0  0  0
   -1.4420    3.9244   -4.0157 C   0  0  0  0  0  0  0  0  0  0  0  0
   -0.4989    3.0687   -3.4765 C   0  0  0  0  0  0  0  0  0  0  0  0
    1.2447   -3.9243   -6.2857 C   0  0  0  0  0  0  0  0  0  0  0  0
   -3.6233    4.3640   -5.1845 C   0  0  0  0  0  0  0  0  0  0  0  0
   -1.3337    4.7957    5.4518 C   0  0  0  0  0  0  0  0  0  0  0  0
    2.4356   -4.1640    5.4187 C   0  0  0  0  0  0  0  0  0  0  0  0
   -1.0617    5.9357    4.4682 C   0  0  0  0  0  0  0  0  0  0  0  0
    1.6713   -5.4878    5.4859 C   0  0  0  0  0  0  0  0  0  0  0  0
   -0.0896   -4.4187   -6.8476 C   0  0  0  0  0  0  0  0  0  0  0  0
   -4.6460    4.7160   -4.1022 C   0  0  0  0  0  0  0  0  0  0  0  0
    5.1226    2.7558   -3.1852 C   0  0  0  0  0  0  0  0  0  0  0  0
    7.6087    4.2233   -6.3492 C   0  0  0  0  0  0  0  0  0  0  0  0
    8.1028    5.9117   -6.4254 S   0  0  0  0  0  0  0  0  0  0  0  0
    9.0454    5.6190   -7.8690 C   0  0  0  0  0  0  0  0  0  0  0  0
    8.9730    4.3190   -8.2526 N   0  0  0  0  0  0  0  0  0  0  0  0
    8.1988    3.4795   -7.4584 C   0  0  0  0  0  0  0  0  0  0  0  0
    8.0617    2.3029   -7.7125 O   0  0  0  0  0  0  0  0  0  0  0  0
    9.6768    3.7498   -9.3877 C   0  0  0  0  0  0  0  0  0  0  0  0
   11.1172    3.3991   -9.0348 C   0  0  0  0  0  0  0  0  0  0  0  0
    9.7260    6.6518   -8.4617 C   0  0  0  0  0  0  0  0  0  0  0  0
    9.6456    7.9419   -7.8958 C   0  0  0  0  0  0  0  0  0  0  0  0
   10.5314    6.5805   -9.6111 C   0  0  0  0  0  0  0  0  0  0  0  0
   11.2075    6.5950  -10.5395 N   0  0  0  0  0  0  0  0  0  0  0  0
    9.5831    8.9923   -7.4395 N   0  0  0  0  0  0  0  0  0  0  0  0
    4.9858    4.1933   -3.7056 C   0  0  0  0  0  0  0  0  0  0  0  0
    6.3173    4.6650   -4.2795 C   0  0  0  0  0  0  0  0  0  0  0  0
    6.8048    3.7477   -5.3609 C   0  0  0  0  0  0  0  0  0  0  0  0
    6.4340    2.3621   -5.2723 C   0  0  0  0  0  0  0  0  0  0  0  0
    5.6871    1.8879   -4.2673 C   0  0  0  0  0  0  0  0  0  0  0  0
   -6.3812   -3.2307    1.8471 C   0  0  0  0  0  0  0  0  0  0  0  0
   -6.4433   -4.6957    5.8585 C   0  0  0  0  0  0  0  0  0  0  0  0
   -7.8001   -5.6276    6.4794 S   0  0  0  0  0  0  0  0  0  0  0  0
   -7.0027   -5.8545    8.0160 C   0  0  0  0  0  0  0  0  0  0  0  0
   -5.7939   -5.2423    8.0384 N   0  0  0  0  0  0  0  0  0  0  0  0
   -5.4164   -4.5718    6.8739 C   0  0  0  0  0  0  0  0  0  0  0  0
   -4.3560   -3.9829    6.7951 O   0  0  0  0  0  0  0  0  0  0  0  0
   -4.8606   -5.2894    9.1477 C   0  0  0  0  0  0  0  0  0  0  0  0
   -4.0534   -6.5825    9.1463 C   0  0  0  0  0  0  0  0  0  0  0  0
   -7.6233   -6.5680    9.0133 C   0  0  0  0  0  0  0  0  0  0  0  0
   -8.8998   -7.1160    8.7746 C   0  0  0  0  0  0  0  0  0  0  0  0
   -7.1187   -6.8301   10.2968 C   0  0  0  0  0  0  0  0  0  0  0  0
   -6.7654   -7.0861   11.3600 N   0  0  0  0  0  0  0  0  0  0  0  0
   -9.9383   -7.5671    8.5876 N   0  0  0  0  0  0  0  0  0  0  0  0
   -7.1301   -4.5049    2.2190 C   0  0  0  0  0  0  0  0  0  0  0  0
   -7.5933   -4.4282    3.6693 C   0  0  0  0  0  0  0  0  0  0  0  0
   -6.4248   -4.1984    4.5807 C   0  0  0  0  0  0  0  0  0  0  0  0
   -5.3281   -3.4520    4.0887 C   0  0  0  0  0  0  0  0  0  0  0  0
   -5.2687   -2.9573    2.8161 C   0  0  0  0  0  0  0  0  0  0  0  0
   -2.0436   -0.4653   -1.7810 H   0  0  0  0  0  0  0  0  0  0  0  0
    1.4546    1.0129    1.4917 H   0  0  0  0  0  0  0  0  0  0  0  0
   -3.0750   -1.7633    4.2190 H   0  0  0  0  0  0  0  0  0  0  0  0
    2.7560    1.8532   -4.5441 H   0  0  0  0  0  0  0  0  0  0  0  0
   -0.8302   -0.8643    5.2590 H   0  0  0  0  0  0  0  0  0  0  0  0
    0.5502   -2.5074    6.4424 H   0  0  0  0  0  0  0  0  0  0  0  0
    2.4844   -3.5198    2.7793 H   0  0  0  0  0  0  0  0  0  0  0  0
    1.0971   -1.8912    1.5901 H   0  0  0  0  0  0  0  0  0  0  0  0
   -3.1001    1.2868    2.9726 H   0  0  0  0  0  0  0  0  0  0  0  0
   -3.2821    3.4156    4.1640 H   0  0  0  0  0  0  0  0  0  0  0  0
    0.8553    3.2135    5.1739 H   0  0  0  0  0  0  0  0  0  0  0  0
    1.0398    1.0728    3.9972 H   0  0  0  0  0  0  0  0  0  0  0  0
    0.5068   -1.9016   -2.1653 H   0  0  0  0  0  0  0  0  0  0  0  0
    0.9223   -3.8479   -3.5886 H   0  0  0  0  0  0  0  0  0  0  0  0
    1.0891   -1.3187   -7.0171 H   0  0  0  0  0  0  0  0  0  0  0  0
    0.6511    0.6323   -5.5975 H   0  0  0  0  0  0  0  0  0  0  0  0
   -1.9613    0.1280   -4.2372 H   0  0  0  0  0  0  0  0  0  0  0  0
   -3.6353    1.6499   -5.1772 H   0  0  0  0  0  0  0  0  0  0  0  0
   -1.2882    4.9925   -3.9537 H   0  0  0  0  0  0  0  0  0  0  0  0
    0.3787    3.4761   -2.9957 H   0  0  0  0  0  0  0  0  0  0  0  0
    1.7135   -4.7265   -5.7127 H   0  0  0  0  0  0  0  0  0  0  0  0
    1.9076   -3.6625   -7.1128 H   0  0  0  0  0  0  0  0  0  0  0  0
   -4.1370    3.8933   -6.0252 H   0  0  0  0  0  0  0  0  0  0  0  0
   -3.1498    5.2803   -5.5429 H   0  0  0  0  0  0  0  0  0  0  0  0
   -2.3343    4.9150    5.8722 H   0  0  0  0  0  0  0  0  0  0  0  0
   -0.6114    4.8457    6.2690 H   0  0  0  0  0  0  0  0  0  0  0  0
    3.3836   -4.3205    4.9000 H   0  0  0  0  0  0  0  0  0  0  0  0
    2.6526   -3.8231    6.4331 H   0  0  0  0  0  0  0  0  0  0  0  0
   -0.0629    5.8420    4.0477 H   0  0  0  0  0  0  0  0  0  0  0  0
   -1.1396    6.8977    4.9692 H   0  0  0  0  0  0  0  0  0  0  0  0
   -1.7795    5.9096    3.6512 H   0  0  0  0  0  0  0  0  0  0  0  0
    1.4609   -5.8538    4.4833 H   0  0  0  0  0  0  0  0  0  0  0  0
    2.2541   -6.2381    6.0152 H   0  0  0  0  0  0  0  0  0  0  0  0
    0.7251   -5.3517    6.0048 H   0  0  0  0  0  0  0  0  0  0  0  0
   -0.5670   -3.6362   -7.4331 H   0  0  0  0  0  0  0  0  0  0  0  0
    0.0638   -5.2856   -7.4858 H   0  0  0  0  0  0  0  0  0  0  0  0
   -0.7606   -4.6972   -6.0381 H   0  0  0  0  0  0  0  0  0  0  0  0
   -5.1380    3.8160   -3.7401 H   0  0  0  0  0  0  0  0  0  0  0  0
   -4.1546    5.1984   -3.2602 H   0  0  0  0  0  0  0  0  0  0  0  0
   -5.4017    5.3907   -4.4975 H   0  0  0  0  0  0  0  0  0  0  0  0
    5.8244    2.7547   -2.3392 H   0  0  0  0  0  0  0  0  0  0  0  0
    9.6382    4.4502  -10.2232 H   0  0  0  0  0  0  0  0  0  0  0  0
    9.1298    2.8401   -9.6508 H   0  0  0  0  0  0  0  0  0  0  0  0
   11.1391    2.6838   -8.2156 H   0  0  0  0  0  0  0  0  0  0  0  0
   11.5997    2.9550   -9.9000 H   0  0  0  0  0  0  0  0  0  0  0  0
   11.6785    4.2857   -8.7492 H   0  0  0  0  0  0  0  0  0  0  0  0
    4.6700    4.8559   -2.8987 H   0  0  0  0  0  0  0  0  0  0  0  0
    4.2214    4.2161   -4.4852 H   0  0  0  0  0  0  0  0  0  0  0  0
    7.0690    4.6842   -3.4827 H   0  0  0  0  0  0  0  0  0  0  0  0
    6.2250    5.6834   -4.6648 H   0  0  0  0  0  0  0  0  0  0  0  0
    6.8046    1.7006   -6.0389 H   0  0  0  0  0  0  0  0  0  0  0  0
    5.4598    0.8335   -4.2106 H   0  0  0  0  0  0  0  0  0  0  0  0
   -5.9841   -3.3080    0.8328 H   0  0  0  0  0  0  0  0  0  0  0  0
   -7.0712   -2.3797    1.8623 H   0  0  0  0  0  0  0  0  0  0  0  0
   -4.1910   -4.4362    9.0064 H   0  0  0  0  0  0  0  0  0  0  0  0
   -5.4064   -5.1712   10.0850 H   0  0  0  0  0  0  0  0  0  0  0  0
   -3.3458   -6.5649    9.9697 H   0  0  0  0  0  0  0  0  0  0  0  0
   -4.7000   -7.4479    9.2707 H   0  0  0  0  0  0  0  0  0  0  0  0
   -3.5037   -6.6796    8.2125 H   0  0  0  0  0  0  0  0  0  0  0  0
   -7.9872   -4.6441    1.5590 H   0  0  0  0  0  0  0  0  0  0  0  0
   -6.4649   -5.3628    2.0989 H   0  0  0  0  0  0  0  0  0  0  0  0
   -8.1198   -5.3423    3.9534 H   0  0  0  0  0  0  0  0  0  0  0  0
   -8.2947   -3.5953    3.7866 H   0  0  0  0  0  0  0  0  0  0  0  0
   -4.5081   -3.2862    4.7667 H   0  0  0  0  0  0  0  0  0  0  0  0
  1  2  1  0  0  0  0
  2  3  2  0  0  0  0
  3  4  1  0  0  0  0
  4  5  2  0  0  0  0
  5  6  1  0  0  0  0
  6  1  2  0  0  0  0
  1  7  1  0  0  0  0
  7  8  1  0  0  0  0
  8  9  2  0  0  0  0
  9  2  1  0  0  0  0
  8 10  1  0  0  0  0
 10 11  2  0  0  0  0
 11 12  1  0  0  0  0
 12  9  1  0  0  0  0
  4 13  1  0  0  0  0
 13 14  1  0  0  0  0
 14 15  2  0  0  0  0
 15  5  1  0  0  0  0
 14 16  1  0  0  0  0
 16 17  2  0  0  0  0
 17 18  1  0  0  0  0
 18 15  1  0  0  0  0
 13 19  1  0  0  0  0
 13 20  1  0  0  0  0
  7 21  1  0  0  0  0
  7 22  1  0  0  0  0
 21 23  2  0  0  0  0
 23 24  1  0  0  0  0
 24 25  2  0  0  0  0
 25 26  1  0  0  0  0
 26 27  2  0  0  0  0
 27 21  1  0  0  0  0
 22 28  2  0  0  0  0
 28 29  1  0  0  0  0
 29 30  2  0  0  0  0
 30 31  1  0  0  0  0
 31 32  2  0  0  0  0
 32 22  1  0  0  0  0
 19 33  2  0  0  0  0
 33 34  1  0  0  0  0
 34 35  2  0  0  0  0
 35 36  1  0  0  0  0
 36 37  2  0  0  0  0
 37 19  1  0  0  0  0
 20 38  2  0  0  0  0
 38 39  1  0  0  0  0
 39 40  2  0  0  0  0
 40 41  1  0  0  0  0
 41 42  2  0  0  0  0
 42 20  1  0  0  0  0
 35 43  1  0  0  0  0
 40 44  1  0  0  0  0
 30 45  1  0  0  0  0
 25 46  1  0  0  0  0
 45 47  1  0  0  0  0
 46 48  1  0  0  0  0
 43 49  1  0  0  0  0
 44 50  1  0  0  0  0
 17 51  1  0  0  0  0
 52 53  1  0  0  0  0
 53 54  1  0  0  0  0
 54 55  1  0  0  0  0
 55 56  1  0  0  0  0
 56 52  1  0  0  0  0
 56 57  2  0  0  0  0
 55 58  1  0  0  0  0
 58 59  1  0  0  0  0
 54 60  2  0  0  0  0
 60 61  1  0  0  0  0
 60 62  1  0  0  0  0
 62 63  3  0  0  0  0
 61 64  3  0  0  0  0
 51 65  1  0  0  0  0
 65 66  1  0  0  0  0
 66 67  1  0  0  0  0
 67 68  1  0  0  0  0
 68 69  2  0  0  0  0
 69 51  1  0  0  0  0
 67 52  2  0  0  0  0
 71 72  1  0  0  0  0
 72 73  1  0  0  0  0
 73 74  1  0  0  0  0
 74 75  1  0  0  0  0
 75 71  1  0  0  0  0
 75 76  2  0  0  0  0
 74 77  1  0  0  0  0
 77 78  1  0  0  0  0
 73 79  2  0  0  0  0
 79 80  1  0  0  0  0
 79 81  1  0  0  0  0
 81 82  3  0  0  0  0
 80 83  3  0  0  0  0
 70 84  1  0  0  0  0
 84 85  1  0  0  0  0
 85 86  1  0  0  0  0
 86 87  1  0  0  0  0
 87 88  2  0  0  0  0
 88 70  1  0  0  0  0
 86 71  2  0  0  0  0
 88 11  1  0  0  0  0
  3 89  1  0  0  0  0
  6 90  1  0  0  0  0
 10 91  1  0  0  0  0
 16 92  1  0  0  0  0
 23 93  1  0  0  0  0
 24 94  1  0  0  0  0
 26 95  1  0  0  0  0
 27 96  1  0  0  0  0
 28 97  1  0  0  0  0
 29 98  1  0  0  0  0
 31 99  1  0  0  0  0
 32100  1  0  0  0  0
 33101  1  0  0  0  0
 34102  1  0  0  0  0
 36103  1  0  0  0  0
 37104  1  0  0  0  0
 38105  1  0  0  0  0
 39106  1  0  0  0  0
 41107  1  0  0  0  0
 42108  1  0  0  0  0
 43109  1  0  0  0  0
 43110  1  0  0  0  0
 44111  1  0  0  0  0
 44112  1  0  0  0  0
 45113  1  0  0  0  0
 45114  1  0  0  0  0
 46115  1  0  0  0  0
 46116  1  0  0  0  0
 47117  1  0  0  0  0
 47118  1  0  0  0  0
 47119  1  0  0  0  0
 48120  1  0  0  0  0
 48121  1  0  0  0  0
 48122  1  0  0  0  0
 49123  1  0  0  0  0
 49124  1  0  0  0  0
 49125  1  0  0  0  0
 50126  1  0  0  0  0
 50127  1  0  0  0  0
 50128  1  0  0  0  0
 51129  1  0  0  0  0
 58130  1  0  0  0  0
 58131  1  0  0  0  0
 59132  1  0  0  0  0
 59133  1  0  0  0  0
 59134  1  0  0  0  0
 65135  1  0  0  0  0
 65136  1  0  0  0  0
 66137  1  0  0  0  0
 66138  1  0  0  0  0
 68139  1  0  0  0  0
 69140  1  0  0  0  0
 70141  1  0  0  0  0
 70142  1  0  0  0  0
 77143  1  0  0  0  0
 77144  1  0  0  0  0
 78145  1  0  0  0  0
 78146  1  0  0  0  0
 78147  1  0  0  0  0
 84148  1  0  0  0  0
 84149  1  0  0  0  0
 85150  1  0  0  0  0
 85151  1  0  0  0  0
 87152  1  0  0  0  0
M  END
