IDT_TCV_2.sdf
  xtb     12202114563D
 energy: -168.404498558496 gnorm: 0.000642204866 xtb: 6.4.1 (unknown)
106114  0     0  0            999 V2000
   -0.6241   -0.9487   -0.3993 C   0  0  0  0  0  0  0  0  0  0  0  0
    0.5509   -1.0262    0.3878 C   0  0  0  0  0  0  0  0  0  0  0  0
    1.1921    0.1097    0.8759 C   0  0  0  0  0  0  0  0  0  0  0  0
    0.6282    1.3268    0.5736 C   0  0  0  0  0  0  0  0  0  0  0  0
   -0.5528    1.4040   -0.2042 C   0  0  0  0  0  0  0  0  0  0  0  0
   -1.1932    0.2681   -0.6939 C   0  0  0  0  0  0  0  0  0  0  0  0
   -1.1033   -2.3314   -0.8049 C   0  0  0  0  0  0  0  0  0  0  0  0
   -0.0807   -3.2003   -0.1212 C   0  0  0  0  0  0  0  0  0  0  0  0
    0.8636   -2.4117    0.5309 C   0  0  0  0  0  0  0  0  0  0  0  0
    0.1777   -4.5579   -0.0251 C   0  0  0  0  0  0  0  0  0  0  0  0
    1.3251   -4.8137    0.7172 C   0  0  0  0  0  0  0  0  0  0  0  0
    2.0874   -3.3319    1.2887 S   0  0  0  0  0  0  0  0  0  0  0  0
    1.1325    2.7113    0.9428 C   0  0  0  0  0  0  0  0  0  0  0  0
    0.0955    3.5795    0.2796 C   0  0  0  0  0  0  0  0  0  0  0  0
   -0.8622    2.7899   -0.3510 C   0  0  0  0  0  0  0  0  0  0  0  0
   -0.1630    4.9349    0.1685 C   0  0  0  0  0  0  0  0  0  0  0  0
   -1.3236    5.1846   -0.5613 C   0  0  0  0  0  0  0  0  0  0  0  0
   -2.0967    3.7038   -1.1020 S   0  0  0  0  0  0  0  0  0  0  0  0
    1.1046    3.0081    2.4321 C   0  0  0  0  0  0  0  0  0  0  0  0
    2.5276    2.8671    0.3623 C   0  0  0  0  0  0  0  0  0  0  0  0
   -0.9948   -2.6031   -2.2973 C   0  0  0  0  0  0  0  0  0  0  0  0
   -2.5214   -2.5235   -0.2998 C   0  0  0  0  0  0  0  0  0  0  0  0
   -1.5931   -3.7440   -2.8193 C   0  0  0  0  0  0  0  0  0  0  0  0
   -1.4710   -4.0473   -4.1611 C   0  0  0  0  0  0  0  0  0  0  0  0
   -0.7433   -3.2267   -5.0143 C   0  0  0  0  0  0  0  0  0  0  0  0
   -0.1401   -2.0946   -4.4844 C   0  0  0  0  0  0  0  0  0  0  0  0
   -0.2559   -1.7868   -3.1405 C   0  0  0  0  0  0  0  0  0  0  0  0
   -3.5952   -2.1003   -1.0732 C   0  0  0  0  0  0  0  0  0  0  0  0
   -4.8889   -2.2313   -0.6066 C   0  0  0  0  0  0  0  0  0  0  0  0
   -5.1453   -2.7820    0.6428 C   0  0  0  0  0  0  0  0  0  0  0  0
   -4.0678   -3.1940    1.4150 C   0  0  0  0  0  0  0  0  0  0  0  0
   -2.7705   -3.0609    0.9548 C   0  0  0  0  0  0  0  0  0  0  0  0
    1.7603    4.1377    2.9075 C   0  0  0  0  0  0  0  0  0  0  0  0
    1.7235    4.4560    4.2506 C   0  0  0  0  0  0  0  0  0  0  0  0
    1.0284    3.6600    5.1533 C   0  0  0  0  0  0  0  0  0  0  0  0
    0.3606    2.5439    4.6692 C   0  0  0  0  0  0  0  0  0  0  0  0
    0.3923    2.2206    3.3241 C   0  0  0  0  0  0  0  0  0  0  0  0
    3.6316    2.4390    1.0891 C   0  0  0  0  0  0  0  0  0  0  0  0
    4.9012    2.5260    0.5513 C   0  0  0  0  0  0  0  0  0  0  0  0
    5.1030    3.0345   -0.7256 C   0  0  0  0  0  0  0  0  0  0  0  0
    3.9955    3.4542   -1.4498 C   0  0  0  0  0  0  0  0  0  0  0  0
    2.7222    3.3662   -0.9177 C   0  0  0  0  0  0  0  0  0  0  0  0
    0.9600    4.0301    6.6063 C   0  0  0  0  0  0  0  0  0  0  0  0
    6.4878    3.1735   -1.2874 C   0  0  0  0  0  0  0  0  0  0  0  0
   -6.5547   -2.9758    1.1207 C   0  0  0  0  0  0  0  0  0  0  0  0
   -0.6538   -3.5296   -6.4816 C   0  0  0  0  0  0  0  0  0  0  0  0
   -7.0951   -4.3262    0.6451 C   0  0  0  0  0  0  0  0  0  0  0  0
   -1.8040   -2.8571   -7.2341 C   0  0  0  0  0  0  0  0  0  0  0  0
   -0.2096    4.9834    6.8604 C   0  0  0  0  0  0  0  0  0  0  0  0
    7.0753    4.5392   -0.9254 C   0  0  0  0  0  0  0  0  0  0  0  0
    1.9242   -6.0592    1.0495 C   0  0  0  0  0  0  0  0  0  0  0  0
   -1.8394    6.4764   -0.8496 C   0  0  0  0  0  0  0  0  0  0  0  0
    1.4827   -7.3153    0.6900 C   0  0  0  0  0  0  0  0  0  0  0  0
    3.1056   -6.0039    1.8374 C   0  0  0  0  0  0  0  0  0  0  0  0
    2.1924   -8.4659    1.0979 C   0  0  0  0  0  0  0  0  0  0  0  0
    0.3381   -7.5841   -0.0812 C   0  0  0  0  0  0  0  0  0  0  0  0
   -2.9748    6.7853   -1.5666 C   0  0  0  0  0  0  0  0  0  0  0  0
   -1.0899    7.5711   -0.3384 C   0  0  0  0  0  0  0  0  0  0  0  0
   -3.3561    8.1298   -1.7668 C   0  0  0  0  0  0  0  0  0  0  0  0
   -3.8338    5.8367   -2.1513 C   0  0  0  0  0  0  0  0  0  0  0  0
    4.0554   -5.9452    2.4742 N   0  0  0  0  0  0  0  0  0  0  0  0
   -0.5890   -7.8476   -0.7051 N   0  0  0  0  0  0  0  0  0  0  0  0
    2.7538   -9.4126    1.4188 N   0  0  0  0  0  0  0  0  0  0  0  0
   -3.6790    9.2164   -1.9375 N   0  0  0  0  0  0  0  0  0  0  0  0
   -4.5600    5.0980   -2.6460 N   0  0  0  0  0  0  0  0  0  0  0  0
   -0.4812    8.4493    0.0724 N   0  0  0  0  0  0  0  0  0  0  0  0
    2.0914    0.0277    1.4663 H   0  0  0  0  0  0  0  0  0  0  0  0
   -2.0919    0.3498   -1.2851 H   0  0  0  0  0  0  0  0  0  0  0  0
   -0.4285   -5.3286   -0.4627 H   0  0  0  0  0  0  0  0  0  0  0  0
    0.4429    5.7215    0.5814 H   0  0  0  0  0  0  0  0  0  0  0  0
   -2.1652   -4.3928   -2.1724 H   0  0  0  0  0  0  0  0  0  0  0  0
   -1.9432   -4.9376   -4.5500 H   0  0  0  0  0  0  0  0  0  0  0  0
    0.4347   -1.4449   -5.1289 H   0  0  0  0  0  0  0  0  0  0  0  0
    0.2331   -0.9048   -2.7525 H   0  0  0  0  0  0  0  0  0  0  0  0
   -3.4184   -1.6797   -2.0525 H   0  0  0  0  0  0  0  0  0  0  0  0
   -5.7126   -1.8999   -1.2223 H   0  0  0  0  0  0  0  0  0  0  0  0
   -4.2438   -3.6229    2.3911 H   0  0  0  0  0  0  0  0  0  0  0  0
   -1.9489   -3.3829    1.5786 H   0  0  0  0  0  0  0  0  0  0  0  0
    2.3141    4.7626    2.2217 H   0  0  0  0  0  0  0  0  0  0  0  0
    2.2444    5.3339    4.6044 H   0  0  0  0  0  0  0  0  0  0  0  0
   -0.1918    1.9147    5.3524 H   0  0  0  0  0  0  0  0  0  0  0  0
   -0.1390    1.3477    2.9730 H   0  0  0  0  0  0  0  0  0  0  0  0
    3.4983    2.0479    2.0874 H   0  0  0  0  0  0  0  0  0  0  0  0
    5.7487    2.1910    1.1318 H   0  0  0  0  0  0  0  0  0  0  0  0
    4.1285    3.8518   -2.4457 H   0  0  0  0  0  0  0  0  0  0  0  0
    1.8765    3.6921   -1.5062 H   0  0  0  0  0  0  0  0  0  0  0  0
    0.8299    3.1312    7.2120 H   0  0  0  0  0  0  0  0  0  0  0  0
    1.8904    4.5149    6.9083 H   0  0  0  0  0  0  0  0  0  0  0  0
    6.4591    3.0707   -2.3739 H   0  0  0  0  0  0  0  0  0  0  0  0
    7.1305    2.3877   -0.8859 H   0  0  0  0  0  0  0  0  0  0  0  0
   -6.5853   -2.9395    2.2114 H   0  0  0  0  0  0  0  0  0  0  0  0
   -7.1904   -2.1773    0.7332 H   0  0  0  0  0  0  0  0  0  0  0  0
    0.2966   -3.1666   -6.8779 H   0  0  0  0  0  0  0  0  0  0  0  0
   -0.7018   -4.6085   -6.6406 H   0  0  0  0  0  0  0  0  0  0  0  0
   -7.0868   -4.3757   -0.4413 H   0  0  0  0  0  0  0  0  0  0  0  0
   -6.4793   -5.1366    1.0288 H   0  0  0  0  0  0  0  0  0  0  0  0
   -8.1154   -4.4707    0.9920 H   0  0  0  0  0  0  0  0  0  0  0  0
   -2.7608   -3.2174   -6.8627 H   0  0  0  0  0  0  0  0  0  0  0  0
   -1.7403   -3.0735   -8.2977 H   0  0  0  0  0  0  0  0  0  0  0  0
   -1.7675   -1.7786   -7.0960 H   0  0  0  0  0  0  0  0  0  0  0  0
   -1.1492    4.5138    6.5777 H   0  0  0  0  0  0  0  0  0  0  0  0
   -0.0919    5.8922    6.2745 H   0  0  0  0  0  0  0  0  0  0  0  0
   -0.2583    5.2524    7.9128 H   0  0  0  0  0  0  0  0  0  0  0  0
    8.0792    4.6401   -1.3308 H   0  0  0  0  0  0  0  0  0  0  0  0
    7.1232    4.6563    0.1549 H   0  0  0  0  0  0  0  0  0  0  0  0
    6.4558    5.3371   -1.3288 H   0  0  0  0  0  0  0  0  0  0  0  0
  1  2  1  0  0  0  0
  2  3  2  0  0  0  0
  3  4  1  0  0  0  0
  4  5  2  0  0  0  0
  5  6  1  0  0  0  0
  6  1  2  0  0  0  0
  1  7  1  0  0  0  0
  7  8  1  0  0  0  0
  8  9  2  0  0  0  0
  9  2  1  0  0  0  0
  8 10  1  0  0  0  0
 10 11  2  0  0  0  0
 11 12  1  0  0  0  0
 12  9  1  0  0  0  0
  4 13  1  0  0  0  0
 13 14  1  0  0  0  0
 14 15  2  0  0  0  0
 15  5  1  0  0  0  0
 14 16  1  0  0  0  0
 16 17  2  0  0  0  0
 17 18  1  0  0  0  0
 18 15  1  0  0  0  0
 13 19  1  0  0  0  0
 13 20  1  0  0  0  0
  7 21  1  0  0  0  0
  7 22  1  0  0  0  0
 21 23  2  0  0  0  0
 23 24  1  0  0  0  0
 24 25  2  0  0  0  0
 25 26  1  0  0  0  0
 26 27  2  0  0  0  0
 27 21  1  0  0  0  0
 22 28  2  0  0  0  0
 28 29  1  0  0  0  0
 29 30  2  0  0  0  0
 30 31  1  0  0  0  0
 31 32  2  0  0  0  0
 32 22  1  0  0  0  0
 19 33  2  0  0  0  0
 33 34  1  0  0  0  0
 34 35  2  0  0  0  0
 35 36  1  0  0  0  0
 36 37  2  0  0  0  0
 37 19  1  0  0  0  0
 20 38  2  0  0  0  0
 38 39  1  0  0  0  0
 39 40  2  0  0  0  0
 40 41  1  0  0  0  0
 41 42  2  0  0  0  0
 42 20  1  0  0  0  0
 35 43  1  0  0  0  0
 40 44  1  0  0  0  0
 30 45  1  0  0  0  0
 25 46  1  0  0  0  0
 45 47  1  0  0  0  0
 46 48  1  0  0  0  0
 43 49  1  0  0  0  0
 44 50  1  0  0  0  0
 51 53  2  0  0  0  0
 51 54  1  0  0  0  0
 53 55  1  0  0  0  0
 53 56  1  0  0  0  0
 52 57  2  0  0  0  0
 52 58  1  0  0  0  0
 57 59  1  0  0  0  0
 57 60  1  0  0  0  0
 54 61  3  0  0  0  0
 56 62  3  0  0  0  0
 55 63  3  0  0  0  0
 59 64  3  0  0  0  0
 60 65  3  0  0  0  0
 58 66  3  0  0  0  0
 51 11  1  0  0  0  0
 52 17  1  0  0  0  0
  3 67  1  0  0  0  0
  6 68  1  0  0  0  0
 10 69  1  0  0  0  0
 16 70  1  0  0  0  0
 23 71  1  0  0  0  0
 24 72  1  0  0  0  0
 26 73  1  0  0  0  0
 27 74  1  0  0  0  0
 28 75  1  0  0  0  0
 29 76  1  0  0  0  0
 31 77  1  0  0  0  0
 32 78  1  0  0  0  0
 33 79  1  0  0  0  0
 34 80  1  0  0  0  0
 36 81  1  0  0  0  0
 37 82  1  0  0  0  0
 38 83  1  0  0  0  0
 39 84  1  0  0  0  0
 41 85  1  0  0  0  0
 42 86  1  0  0  0  0
 43 87  1  0  0  0  0
 43 88  1  0  0  0  0
 44 89  1  0  0  0  0
 44 90  1  0  0  0  0
 45 91  1  0  0  0  0
 45 92  1  0  0  0  0
 46 93  1  0  0  0  0
 46 94  1  0  0  0  0
 47 95  1  0  0  0  0
 47 96  1  0  0  0  0
 47 97  1  0  0  0  0
 48 98  1  0  0  0  0
 48 99  1  0  0  0  0
 48100  1  0  0  0  0
 49101  1  0  0  0  0
 49102  1  0  0  0  0
 49103  1  0  0  0  0
 50104  1  0  0  0  0
 50105  1  0  0  0  0
 50106  1  0  0  0  0
M  END
