IDTC-4Cl.sdf
  xtb     12202114303D
 energy: -307.266798251712 gnorm: 0.000288380884 xtb: 6.4.1 (unknown)
186204  0     0  0            999 V2000
    0.6406    0.6269    2.6044 C   0  0  0  0  0  0  0  0  0  0  0  0
   -0.7683    0.7560    2.6482 C   0  0  0  0  0  0  0  0  0  0  0  0
   -1.4235    1.8483    2.0846 C   0  0  0  0  0  0  0  0  0  0  0  0
   -0.6529    2.7571    1.3978 C   0  0  0  0  0  0  0  0  0  0  0  0
    0.7472    2.5846    1.2891 C   0  0  0  0  0  0  0  0  0  0  0  0
    1.4115    1.5366    1.9213 C   0  0  0  0  0  0  0  0  0  0  0  0
    1.0891   -0.6531    3.2910 C   0  0  0  0  0  0  0  0  0  0  0  0
   -0.2404   -1.3145    3.5504 C   0  0  0  0  0  0  0  0  0  0  0  0
   -1.2724   -0.4447    3.2355 C   0  0  0  0  0  0  0  0  0  0  0  0
   -0.6822   -2.5586    3.9878 C   0  0  0  0  0  0  0  0  0  0  0  0
   -2.0628   -2.6504    3.9865 C   0  0  0  0  0  0  0  0  0  0  0  0
   -2.8199   -1.1469    3.4861 S   0  0  0  0  0  0  0  0  0  0  0  0
   -1.1071    3.9902    0.6305 C   0  0  0  0  0  0  0  0  0  0  0  0
    0.1805    4.3981   -0.0402 C   0  0  0  0  0  0  0  0  0  0  0  0
    1.2188    3.5843    0.3848 C   0  0  0  0  0  0  0  0  0  0  0  0
    0.5533    5.2906   -1.0391 C   0  0  0  0  0  0  0  0  0  0  0  0
    1.8878    5.1520   -1.3883 C   0  0  0  0  0  0  0  0  0  0  0  0
    2.6908    3.9233   -0.4280 S   0  0  0  0  0  0  0  0  0  0  0  0
   -2.8516   -3.8038    4.2171 C   0  0  0  0  0  0  0  0  0  0  0  0
    2.5737    5.7867   -2.4548 C   0  0  0  0  0  0  0  0  0  0  0  0
   -1.6056    4.9968    1.6529 C   0  0  0  0  0  0  0  0  0  0  0  0
   -2.1389    3.7225   -0.4465 C   0  0  0  0  0  0  0  0  0  0  0  0
    1.7290   -0.4085    4.6485 C   0  0  0  0  0  0  0  0  0  0  0  0
    2.0108   -1.4226    2.3691 C   0  0  0  0  0  0  0  0  0  0  0  0
    2.3162   -1.4768    5.3164 C   0  0  0  0  0  0  0  0  0  0  0  0
    2.8681   -1.3029    6.5701 C   0  0  0  0  0  0  0  0  0  0  0  0
    2.8415   -0.0617    7.1945 C   0  0  0  0  0  0  0  0  0  0  0  0
    2.2477    0.9993    6.5258 C   0  0  0  0  0  0  0  0  0  0  0  0
    1.6921    0.8308    5.2697 C   0  0  0  0  0  0  0  0  0  0  0  0
    1.5122   -2.3398    1.4554 C   0  0  0  0  0  0  0  0  0  0  0  0
    2.3635   -2.9981    0.5868 C   0  0  0  0  0  0  0  0  0  0  0  0
    3.7295   -2.7521    0.6020 C   0  0  0  0  0  0  0  0  0  0  0  0
    4.2221   -1.8228    1.5092 C   0  0  0  0  0  0  0  0  0  0  0  0
    3.3764   -1.1651    2.3814 C   0  0  0  0  0  0  0  0  0  0  0  0
   -0.7694    5.9732    2.1748 C   0  0  0  0  0  0  0  0  0  0  0  0
   -1.2331    6.8543    3.1350 C   0  0  0  0  0  0  0  0  0  0  0  0
   -2.5380    6.7806    3.6020 C   0  0  0  0  0  0  0  0  0  0  0  0
   -3.3676    5.7936    3.0850 C   0  0  0  0  0  0  0  0  0  0  0  0
   -2.9098    4.9121    2.1250 C   0  0  0  0  0  0  0  0  0  0  0  0
   -2.3380    2.4533   -0.9697 C   0  0  0  0  0  0  0  0  0  0  0  0
   -3.2549    2.2509   -1.9857 C   0  0  0  0  0  0  0  0  0  0  0  0
   -3.9820    3.3079   -2.5150 C   0  0  0  0  0  0  0  0  0  0  0  0
   -3.7641    4.5803   -2.0012 C   0  0  0  0  0  0  0  0  0  0  0  0
   -2.8529    4.7872   -0.9842 C   0  0  0  0  0  0  0  0  0  0  0  0
   -3.0260    7.7103    4.6752 C   0  0  0  0  0  0  0  0  0  0  0  0
   -5.0141    3.0782   -3.5809 C   0  0  0  0  0  0  0  0  0  0  0  0
    4.6473   -3.4299   -0.3738 C   0  0  0  0  0  0  0  0  0  0  0  0
    3.4843    0.1363    8.5368 C   0  0  0  0  0  0  0  0  0  0  0  0
    4.8094   -2.5756   -1.6328 C   0  0  0  0  0  0  0  0  0  0  0  0
    4.9575    0.5156    8.3722 C   0  0  0  0  0  0  0  0  0  0  0  0
   -2.7727    7.1084    6.0589 C   0  0  0  0  0  0  0  0  0  0  0  0
   -6.3875    2.8402   -2.9497 C   0  0  0  0  0  0  0  0  0  0  0  0
    4.2271    5.3553   -2.8267 S   0  0  0  0  0  0  0  0  0  0  0  0
    4.1814    6.3637   -4.2168 C   0  0  0  0  0  0  0  0  0  0  0  0
    2.9492    7.0044   -4.3798 C   0  0  0  0  0  0  0  0  0  0  0  0
    2.0508    6.6922   -3.3696 C   0  0  0  0  0  0  0  0  0  0  0  0
   -2.0845   -5.3558    4.4718 S   0  0  0  0  0  0  0  0  0  0  0  0
   -3.6262   -6.1145    4.4791 C   0  0  0  0  0  0  0  0  0  0  0  0
   -4.6809   -5.2093    4.3181 C   0  0  0  0  0  0  0  0  0  0  0  0
   -4.2342   -3.9026    4.1717 C   0  0  0  0  0  0  0  0  0  0  0  0
   -5.5322  -10.9935    4.5272 C   0  0  0  0  0  0  0  0  0  0  0  0
   -4.7733  -12.1437    4.5682 C   0  0  0  0  0  0  0  0  0  0  0  0
   -3.3180  -12.1995    4.6997 C   0  0  0  0  0  0  0  0  0  0  0  0
   -2.9630  -13.6340    4.6847 C   0  0  0  0  0  0  0  0  0  0  0  0
   -4.1343  -14.3995    4.5542 C   0  0  0  0  0  0  0  0  0  0  0  0
   -5.2824  -13.4940    4.4783 C   0  0  0  0  0  0  0  0  0  0  0  0
   -1.7160  -14.2153    4.7750 C   0  0  0  0  0  0  0  0  0  0  0  0
   -1.6329  -15.6021    4.7338 C   0  0  0  0  0  0  0  0  0  0  0  0
   -2.7916  -16.3729    4.6046 C   0  0  0  0  0  0  0  0  0  0  0  0
   -4.0475  -15.7806    4.5142 C   0  0  0  0  0  0  0  0  0  0  0  0
   -2.5388  -11.2683    4.8046 O   0  0  0  0  0  0  0  0  0  0  0  0
   -6.5882  -13.8927    4.3332 C   0  0  0  0  0  0  0  0  0  0  0  0
   -6.9990  -15.2391    4.2455 C   0  0  0  0  0  0  0  0  0  0  0  0
   -7.7078  -13.0408    4.2435 C   0  0  0  0  0  0  0  0  0  0  0  0
   -8.6731  -12.4226    4.1601 N   0  0  0  0  0  0  0  0  0  0  0  0
   -7.4057  -16.3101    4.1682 N   0  0  0  0  0  0  0  0  0  0  0  0
   -2.6760  -18.0865    4.5544 Cl  0  0  0  0  0  0  0  0  0  0  0  0
   -0.0984  -16.3669    4.8415 Cl  0  0  0  0  0  0  0  0  0  0  0  0
    7.3815    7.3140   -8.2151 C   0  0  0  0  0  0  0  0  0  0  0  0
    7.4891    7.8572   -9.4768 C   0  0  0  0  0  0  0  0  0  0  0  0
    6.4630    8.5579  -10.2695 C   0  0  0  0  0  0  0  0  0  0  0  0
    7.0528    8.7377  -11.6147 C   0  0  0  0  0  0  0  0  0  0  0  0
    8.3616    8.2317  -11.6300 C   0  0  0  0  0  0  0  0  0  0  0  0
    8.6790    7.7224  -10.2963 C   0  0  0  0  0  0  0  0  0  0  0  0
    6.4714    9.2957  -12.7340 C   0  0  0  0  0  0  0  0  0  0  0  0
    7.2153    9.3442  -13.9062 C   0  0  0  0  0  0  0  0  0  0  0  0
    8.5178    8.8371  -13.9339 C   0  0  0  0  0  0  0  0  0  0  0  0
    9.1008    8.2806  -12.8002 C   0  0  0  0  0  0  0  0  0  0  0  0
    5.3531    8.9304   -9.9416 O   0  0  0  0  0  0  0  0  0  0  0  0
    9.9117    7.2531   -9.9177 C   0  0  0  0  0  0  0  0  0  0  0  0
   10.2889    6.8298   -8.6256 C   0  0  0  0  0  0  0  0  0  0  0  0
   11.0193    7.1557  -10.7862 C   0  0  0  0  0  0  0  0  0  0  0  0
   10.6992    6.4815   -7.6103 N   0  0  0  0  0  0  0  0  0  0  0  0
   11.9605    7.0412  -11.4337 N   0  0  0  0  0  0  0  0  0  0  0  0
    6.5278   10.0270  -15.3250 Cl  0  0  0  0  0  0  0  0  0  0  0  0
    9.4255    8.8949  -15.3918 Cl  0  0  0  0  0  0  0  0  0  0  0  0
   -4.1240   -7.4285    4.5467 C   0  0  0  0  0  0  0  0  0  0  0  0
   -5.5255   -7.3686    4.4291 C   0  0  0  0  0  0  0  0  0  0  0  0
   -6.0054   -5.9385    4.2803 C   0  0  0  0  0  0  0  0  0  0  0  0
   -6.6830   -5.8238    2.8971 C   0  0  0  0  0  0  0  0  0  0  0  0
   -6.9495   -5.5860    5.4528 C   0  0  0  0  0  0  0  0  0  0  0  0
   -6.8989   -4.1386    5.9277 C   0  0  0  0  0  0  0  0  0  0  0  0
   -7.2355   -4.4527    2.5351 C   0  0  0  0  0  0  0  0  0  0  0  0
   -3.5124   -9.0199    4.6705 S   0  0  0  0  0  0  0  0  0  0  0  0
   -5.1533   -9.6521    4.5546 C   0  0  0  0  0  0  0  0  0  0  0  0
   -6.0984   -8.6138    4.4411 C   0  0  0  0  0  0  0  0  0  0  0  0
    5.0319    6.7097   -5.2811 C   0  0  0  0  0  0  0  0  0  0  0  0
    4.3457    7.5824   -6.1465 C   0  0  0  0  0  0  0  0  0  0  0  0
    2.9515    7.8604   -5.6274 C   0  0  0  0  0  0  0  0  0  0  0  0
    6.5961    6.3208   -5.8354 S   0  0  0  0  0  0  0  0  0  0  0  0
    6.3345    7.3016   -7.2887 C   0  0  0  0  0  0  0  0  0  0  0  0
    5.0719    7.9006   -7.2722 C   0  0  0  0  0  0  0  0  0  0  0  0
    1.9371    7.3690   -6.6795 C   0  0  0  0  0  0  0  0  0  0  0  0
    2.7673    9.3362   -5.2214 C   0  0  0  0  0  0  0  0  0  0  0  0
    0.4729    7.5239   -6.2919 C   0  0  0  0  0  0  0  0  0  0  0  0
    2.8032   10.3249   -6.3788 C   0  0  0  0  0  0  0  0  0  0  0  0
   -2.4969    1.9395    2.1473 H   0  0  0  0  0  0  0  0  0  0  0  0
    2.4821    1.4289    1.8383 H   0  0  0  0  0  0  0  0  0  0  0  0
   -0.0510   -3.3840    4.2636 H   0  0  0  0  0  0  0  0  0  0  0  0
   -0.1109    5.9881   -1.5147 H   0  0  0  0  0  0  0  0  0  0  0  0
    2.3490   -2.4478    4.8440 H   0  0  0  0  0  0  0  0  0  0  0  0
    3.3227   -2.1438    7.0741 H   0  0  0  0  0  0  0  0  0  0  0  0
    2.2142    1.9729    6.9938 H   0  0  0  0  0  0  0  0  0  0  0  0
    1.2306    1.6723    4.7737 H   0  0  0  0  0  0  0  0  0  0  0  0
    0.4519   -2.5453    1.4218 H   0  0  0  0  0  0  0  0  0  0  0  0
    1.9586   -3.7155   -0.1130 H   0  0  0  0  0  0  0  0  0  0  0  0
    5.2821   -1.6136    1.5354 H   0  0  0  0  0  0  0  0  0  0  0  0
    3.7808   -0.4530    3.0865 H   0  0  0  0  0  0  0  0  0  0  0  0
    0.2505    6.0525    1.8277 H   0  0  0  0  0  0  0  0  0  0  0  0
   -0.5693    7.6132    3.5244 H   0  0  0  0  0  0  0  0  0  0  0  0
   -4.3870    5.7168    3.4359 H   0  0  0  0  0  0  0  0  0  0  0  0
   -3.5758    4.1605    1.7269 H   0  0  0  0  0  0  0  0  0  0  0  0
   -1.7765    1.6156   -0.5827 H   0  0  0  0  0  0  0  0  0  0  0  0
   -3.4030    1.2539   -2.3758 H   0  0  0  0  0  0  0  0  0  0  0  0
   -4.3135    5.4192   -2.4045 H   0  0  0  0  0  0  0  0  0  0  0  0
   -2.6994    5.7835   -0.5943 H   0  0  0  0  0  0  0  0  0  0  0  0
   -4.0960    7.8894    4.5516 H   0  0  0  0  0  0  0  0  0  0  0  0
   -2.5080    8.6685    4.5996 H   0  0  0  0  0  0  0  0  0  0  0  0
   -5.0670    3.9479   -4.2391 H   0  0  0  0  0  0  0  0  0  0  0  0
   -4.7389    2.2099   -4.1827 H   0  0  0  0  0  0  0  0  0  0  0  0
    5.6264   -3.5837    0.0844 H   0  0  0  0  0  0  0  0  0  0  0  0
    4.2415   -4.4052   -0.6495 H   0  0  0  0  0  0  0  0  0  0  0  0
    2.9675    0.9286    9.0821 H   0  0  0  0  0  0  0  0  0  0  0  0
    3.4131   -0.7835    9.1207 H   0  0  0  0  0  0  0  0  0  0  0  0
    5.2242   -1.6025   -1.3794 H   0  0  0  0  0  0  0  0  0  0  0  0
    3.8449   -2.4210   -2.1116 H   0  0  0  0  0  0  0  0  0  0  0  0
    5.4752   -3.0634   -2.3409 H   0  0  0  0  0  0  0  0  0  0  0  0
    5.4923   -0.2677    7.8396 H   0  0  0  0  0  0  0  0  0  0  0  0
    5.0490    1.4388    7.8043 H   0  0  0  0  0  0  0  0  0  0  0  0
    5.4253    0.6571    9.3436 H   0  0  0  0  0  0  0  0  0  0  0  0
   -3.2886    6.1559    6.1573 H   0  0  0  0  0  0  0  0  0  0  0  0
   -3.1293    7.7792    6.8370 H   0  0  0  0  0  0  0  0  0  0  0  0
   -1.7088    6.9372    6.2078 H   0  0  0  0  0  0  0  0  0  0  0  0
   -6.6852    3.7015   -2.3557 H   0  0  0  0  0  0  0  0  0  0  0  0
   -6.3581    1.9695   -2.2985 H   0  0  0  0  0  0  0  0  0  0  0  0
   -7.1369    2.6733   -3.7198 H   0  0  0  0  0  0  0  0  0  0  0  0
    1.0542    7.0824   -3.2823 H   0  0  0  0  0  0  0  0  0  0  0  0
   -4.8507   -3.0338    4.0297 H   0  0  0  0  0  0  0  0  0  0  0  0
   -6.6035  -11.1278    4.4410 H   0  0  0  0  0  0  0  0  0  0  0  0
   -0.8305  -13.6077    4.8739 H   0  0  0  0  0  0  0  0  0  0  0  0
   -4.9167  -16.4096    4.4153 H   0  0  0  0  0  0  0  0  0  0  0  0
    8.2480    6.7588   -7.8757 H   0  0  0  0  0  0  0  0  0  0  0  0
    5.4649    9.6814  -12.6972 H   0  0  0  0  0  0  0  0  0  0  0  0
   10.1064    7.8991  -12.8631 H   0  0  0  0  0  0  0  0  0  0  0  0
   -7.4958   -6.5528    2.8681 H   0  0  0  0  0  0  0  0  0  0  0  0
   -5.9482   -6.1209    2.1439 H   0  0  0  0  0  0  0  0  0  0  0  0
   -6.6881   -6.2255    6.2995 H   0  0  0  0  0  0  0  0  0  0  0  0
   -7.9682   -5.8406    5.1551 H   0  0  0  0  0  0  0  0  0  0  0  0
   -5.9177   -3.8999    6.3302 H   0  0  0  0  0  0  0  0  0  0  0  0
   -7.1225   -3.4419    5.1263 H   0  0  0  0  0  0  0  0  0  0  0  0
   -7.6330   -3.9956    6.7179 H   0  0  0  0  0  0  0  0  0  0  0  0
   -6.4545   -3.6982    2.5517 H   0  0  0  0  0  0  0  0  0  0  0  0
   -7.6476   -4.4884    1.5288 H   0  0  0  0  0  0  0  0  0  0  0  0
   -8.0320   -4.1583    3.2124 H   0  0  0  0  0  0  0  0  0  0  0  0
   -7.1512   -8.8198    4.3625 H   0  0  0  0  0  0  0  0  0  0  0  0
    4.7392    8.5196   -8.0844 H   0  0  0  0  0  0  0  0  0  0  0  0
    2.1289    7.9092   -7.6072 H   0  0  0  0  0  0  0  0  0  0  0  0
    2.1437    6.3122   -6.8687 H   0  0  0  0  0  0  0  0  0  0  0  0
    1.8191    9.4281   -4.6889 H   0  0  0  0  0  0  0  0  0  0  0  0
    3.5634    9.5853   -4.5148 H   0  0  0  0  0  0  0  0  0  0  0  0
    0.2210    8.5627   -6.0975 H   0  0  0  0  0  0  0  0  0  0  0  0
    0.2388    6.9333   -5.4107 H   0  0  0  0  0  0  0  0  0  0  0  0
   -0.1538    7.1718   -7.1083 H   0  0  0  0  0  0  0  0  0  0  0  0
    2.6906   11.3357   -5.9927 H   0  0  0  0  0  0  0  0  0  0  0  0
    1.9970   10.1412   -7.0831 H   0  0  0  0  0  0  0  0  0  0  0  0
    3.7489   10.2684   -6.9095 H   0  0  0  0  0  0  0  0  0  0  0  0
  1  2  1  0  0  0  0
  2  3  2  0  0  0  0
  3  4  1  0  0  0  0
  4  5  2  0  0  0  0
  5  6  1  0  0  0  0
  6  1  2  0  0  0  0
  1  7  1  0  0  0  0
  7  8  1  0  0  0  0
  8  9  2  0  0  0  0
  9  2  1  0  0  0  0
  8 10  1  0  0  0  0
 10 11  2  0  0  0  0
 11 12  1  0  0  0  0
 12  9  1  0  0  0  0
  4 13  1  0  0  0  0
 13 14  1  0  0  0  0
 14 15  2  0  0  0  0
 15  5  1  0  0  0  0
 14 16  1  0  0  0  0
 16 17  2  0  0  0  0
 17 18  1  0  0  0  0
 18 15  1  0  0  0  0
 11 19  1  0  0  0  0
 17 20  1  0  0  0  0
 13 21  1  0  0  0  0
 13 22  1  0  0  0  0
  7 23  1  0  0  0  0
  7 24  1  0  0  0  0
 23 25  2  0  0  0  0
 25 26  1  0  0  0  0
 26 27  2  0  0  0  0
 27 28  1  0  0  0  0
 28 29  2  0  0  0  0
 29 23  1  0  0  0  0
 24 30  2  0  0  0  0
 30 31  1  0  0  0  0
 31 32  2  0  0  0  0
 32 33  1  0  0  0  0
 33 34  2  0  0  0  0
 34 24  1  0  0  0  0
 21 35  2  0  0  0  0
 35 36  1  0  0  0  0
 36 37  2  0  0  0  0
 37 38  1  0  0  0  0
 38 39  2  0  0  0  0
 39 21  1  0  0  0  0
 22 40  2  0  0  0  0
 40 41  1  0  0  0  0
 41 42  2  0  0  0  0
 42 43  1  0  0  0  0
 43 44  2  0  0  0  0
 44 22  1  0  0  0  0
 37 45  1  0  0  0  0
 42 46  1  0  0  0  0
 32 47  1  0  0  0  0
 27 48  1  0  0  0  0
 47 49  1  0  0  0  0
 48 50  1  0  0  0  0
 45 51  1  0  0  0  0
 46 52  1  0  0  0  0
 20 53  1  0  0  0  0
 53 54  1  0  0  0  0
 54 55  2  0  0  0  0
 55 56  1  0  0  0  0
 56 20  2  0  0  0  0
 19 57  1  0  0  0  0
 57 58  1  0  0  0  0
 58 59  2  0  0  0  0
 59 60  1  0  0  0  0
 60 19  2  0  0  0  0
 61 62  2  0  0  0  0
 62 63  1  0  0  0  0
 63 64  1  0  0  0  0
 64 65  2  0  0  0  0
 65 66  1  0  0  0  0
 66 62  1  0  0  0  0
 64 67  1  0  0  0  0
 67 68  2  0  0  0  0
 68 69  1  0  0  0  0
 69 70  2  0  0  0  0
 70 65  1  0  0  0  0
 63 71  2  0  0  0  0
 66 72  2  0  0  0  0
 72 73  1  0  0  0  0
 72 74  1  0  0  0  0
 74 75  3  0  0  0  0
 73 76  3  0  0  0  0
 69 77  1  0  0  0  0
 68 78  1  0  0  0  0
 79 80  2  0  0  0  0
 80 81  1  0  0  0  0
 81 82  1  0  0  0  0
 82 83  2  0  0  0  0
 83 84  1  0  0  0  0
 84 80  1  0  0  0  0
 82 85  1  0  0  0  0
 85 86  2  0  0  0  0
 86 87  1  0  0  0  0
 87 88  2  0  0  0  0
 88 83  1  0  0  0  0
 81 89  2  0  0  0  0
 84 90  2  0  0  0  0
 90 91  1  0  0  0  0
 90 92  1  0  0  0  0
 91 93  3  0  0  0  0
 92 94  3  0  0  0  0
 86 95  1  0  0  0  0
 87 96  1  0  0  0  0
 58 97  1  0  0  0  0
 97 98  2  0  0  0  0
 98 99  1  0  0  0  0
 99 59  1  0  0  0  0
 99100  1  0  0  0  0
 99101  1  0  0  0  0
101102  1  0  0  0  0
100103  1  0  0  0  0
 97104  1  0  0  0  0
104105  1  0  0  0  0
105106  2  0  0  0  0
106 98  1  0  0  0  0
105 61  1  0  0  0  0
 54107  1  0  0  0  0
107108  2  0  0  0  0
108109  1  0  0  0  0
109 55  1  0  0  0  0
107110  1  0  0  0  0
110111  1  0  0  0  0
111112  2  0  0  0  0
112108  1  0  0  0  0
109113  1  0  0  0  0
109114  1  0  0  0  0
113115  1  0  0  0  0
114116  1  0  0  0  0
111 79  1  0  0  0  0
  3117  1  0  0  0  0
  6118  1  0  0  0  0
 10119  1  0  0  0  0
 16120  1  0  0  0  0
 25121  1  0  0  0  0
 26122  1  0  0  0  0
 28123  1  0  0  0  0
 29124  1  0  0  0  0
 30125  1  0  0  0  0
 31126  1  0  0  0  0
 33127  1  0  0  0  0
 34128  1  0  0  0  0
 35129  1  0  0  0  0
 36130  1  0  0  0  0
 38131  1  0  0  0  0
 39132  1  0  0  0  0
 40133  1  0  0  0  0
 41134  1  0  0  0  0
 43135  1  0  0  0  0
 44136  1  0  0  0  0
 45137  1  0  0  0  0
 45138  1  0  0  0  0
 46139  1  0  0  0  0
 46140  1  0  0  0  0
 47141  1  0  0  0  0
 47142  1  0  0  0  0
 48143  1  0  0  0  0
 48144  1  0  0  0  0
 49145  1  0  0  0  0
 49146  1  0  0  0  0
 49147  1  0  0  0  0
 50148  1  0  0  0  0
 50149  1  0  0  0  0
 50150  1  0  0  0  0
 51151  1  0  0  0  0
 51152  1  0  0  0  0
 51153  1  0  0  0  0
 52154  1  0  0  0  0
 52155  1  0  0  0  0
 52156  1  0  0  0  0
 56157  1  0  0  0  0
 60158  1  0  0  0  0
 61159  1  0  0  0  0
 67160  1  0  0  0  0
 70161  1  0  0  0  0
 79162  1  0  0  0  0
 85163  1  0  0  0  0
 88164  1  0  0  0  0
100165  1  0  0  0  0
100166  1  0  0  0  0
101167  1  0  0  0  0
101168  1  0  0  0  0
102169  1  0  0  0  0
102170  1  0  0  0  0
102171  1  0  0  0  0
103172  1  0  0  0  0
103173  1  0  0  0  0
103174  1  0  0  0  0
106175  1  0  0  0  0
112176  1  0  0  0  0
113177  1  0  0  0  0
113178  1  0  0  0  0
114179  1  0  0  0  0
114180  1  0  0  0  0
115181  1  0  0  0  0
115182  1  0  0  0  0
115183  1  0  0  0  0
116184  1  0  0  0  0
116185  1  0  0  0  0
116186  1  0  0  0  0
M  END
