IDTTA.sdf
  xtb     12202113473D
 energy: -169.600467447554 gnorm: 0.000142095211 xtb: 6.4.1 (unknown)
106114  0     0  0            999 V2000
    8.1717   -1.2517   -2.2760 C   0  0  0  0  0  0  0  0  0  0  0  0
    6.8726   -0.9181   -1.8812 C   0  0  0  0  0  0  0  0  0  0  0  0
    6.6176   -0.1845   -0.7194 C   0  0  0  0  0  0  0  0  0  0  0  0
    5.2684    0.0004   -0.4997 C   0  0  0  0  0  0  0  0  0  0  0  0
    4.4423   -0.5829   -1.4870 C   0  0  0  0  0  0  0  0  0  0  0  0
    5.3858   -1.3615   -2.7050 S   0  0  0  0  0  0  0  0  0  0  0  0
    3.0838   -0.3935   -1.2134 C   0  0  0  0  0  0  0  0  0  0  0  0
    1.7445   -0.7134   -1.8309 C   0  0  0  0  0  0  0  0  0  0  0  0
    0.8052   -0.0972   -0.8058 C   0  0  0  0  0  0  0  0  0  0  0  0
    1.5202    0.5241    0.2404 C   0  0  0  0  0  0  0  0  0  0  0  0
    2.9058    0.3328   -0.0447 C   0  0  0  0  0  0  0  0  0  0  0  0
    4.3652    0.7959    0.7584 S   0  0  0  0  0  0  0  0  0  0  0  0
    0.8853    1.1525    1.3096 C   0  0  0  0  0  0  0  0  0  0  0  0
   -0.4900    1.1146    1.3421 C   0  0  0  0  0  0  0  0  0  0  0  0
   -1.4412    1.6924    2.3789 C   0  0  0  0  0  0  0  0  0  0  0  0
   -2.7723    1.3105    1.7818 C   0  0  0  0  0  0  0  0  0  0  0  0
   -2.5935    0.6337    0.5859 C   0  0  0  0  0  0  0  0  0  0  0  0
   -1.2041    0.5014    0.2846 C   0  0  0  0  0  0  0  0  0  0  0  0
   -0.5697   -0.1044   -0.7966 C   0  0  0  0  0  0  0  0  0  0  0  0
   -4.0520    0.0802   -0.1580 S   0  0  0  0  0  0  0  0  0  0  0  0
   -4.9515    0.7232    1.1854 C   0  0  0  0  0  0  0  0  0  0  0  0
   -4.1194    1.3501    2.1388 C   0  0  0  0  0  0  0  0  0  0  0  0
   -5.0510    1.9203    3.4666 S   0  0  0  0  0  0  0  0  0  0  0  0
   -6.5469    1.3061    2.7385 C   0  0  0  0  0  0  0  0  0  0  0  0
   -6.2974    0.7042    1.5143 C   0  0  0  0  0  0  0  0  0  0  0  0
   -7.7061    1.5042    3.5044 C   0  0  0  0  0  0  0  0  0  0  0  0
   -1.2334    3.2192    2.4317 C   0  0  0  0  0  0  0  0  0  0  0  0
   -2.1419    3.9626    3.4011 C   0  0  0  0  0  0  0  0  0  0  0  0
    1.4287   -2.2234   -1.9438 C   0  0  0  0  0  0  0  0  0  0  0  0
    2.6133   -3.1321   -2.2444 C   0  0  0  0  0  0  0  0  0  0  0  0
   -1.3363    0.9982    3.7534 C   0  0  0  0  0  0  0  0  0  0  0  0
   -0.0400    1.2236    4.5195 C   0  0  0  0  0  0  0  0  0  0  0  0
    1.5433    0.0457   -3.1620 C   0  0  0  0  0  0  0  0  0  0  0  0
    2.3331   -0.4814   -4.3511 C   0  0  0  0  0  0  0  0  0  0  0  0
   -9.0276    1.1469    3.3707 C   0  0  0  0  0  0  0  0  0  0  0  0
   -9.6226    0.4140    2.2647 C   0  0  0  0  0  0  0  0  0  0  0  0
  -10.9616    0.0634    2.4148 N   0  0  0  0  0  0  0  0  0  0  0  0
  -11.7558    0.4416    3.4582 C   0  0  0  0  0  0  0  0  0  0  0  0
  -11.2066    1.2027    4.4479 N   0  0  0  0  0  0  0  0  0  0  0  0
   -9.8707    1.5710    4.4960 C   0  0  0  0  0  0  0  0  0  0  0  0
   -9.4499    2.2170    5.4362 O   0  0  0  0  0  0  0  0  0  0  0  0
  -12.0372    1.6238    5.5710 C   0  0  0  0  0  0  0  0  0  0  0  0
  -12.0828    0.5572    6.6569 C   0  0  0  0  0  0  0  0  0  0  0  0
  -13.3461   -0.0033    3.5195 S   0  0  0  0  0  0  0  0  0  0  0  0
  -11.5473   -0.7176    1.3299 C   0  0  0  0  0  0  0  0  0  0  0  0
  -12.2030    0.1809    0.2901 C   0  0  0  0  0  0  0  0  0  0  0  0
   -9.0395    0.0869    1.2473 O   0  0  0  0  0  0  0  0  0  0  0  0
    8.6727   -1.9755   -3.3349 C   0  0  0  0  0  0  0  0  0  0  0  0
    7.8599   -2.5729   -4.3673 C   0  0  0  0  0  0  0  0  0  0  0  0
    8.5278   -3.2808   -5.3523 N   0  0  0  0  0  0  0  0  0  0  0  0
    9.8820   -3.4728   -5.3777 C   0  0  0  0  0  0  0  0  0  0  0  0
   10.6423   -2.8737   -4.4166 N   0  0  0  0  0  0  0  0  0  0  0  0
   10.1269   -2.1255   -3.3655 C   0  0  0  0  0  0  0  0  0  0  0  0
   10.8677   -1.6392   -2.5337 O   0  0  0  0  0  0  0  0  0  0  0  0
   12.0902   -3.0529   -4.4368 C   0  0  0  0  0  0  0  0  0  0  0  0
   12.5004   -4.3340   -3.7230 C   0  0  0  0  0  0  0  0  0  0  0  0
   10.5781   -4.4014   -6.5525 S   0  0  0  0  0  0  0  0  0  0  0  0
    7.7000   -3.8958   -6.3846 C   0  0  0  0  0  0  0  0  0  0  0  0
    7.3096   -5.3182   -6.0059 C   0  0  0  0  0  0  0  0  0  0  0  0
    6.6396   -2.4826   -4.4162 O   0  0  0  0  0  0  0  0  0  0  0  0
    8.9463   -0.8787   -1.6103 H   0  0  0  0  0  0  0  0  0  0  0  0
    7.4001    0.1795   -0.0785 H   0  0  0  0  0  0  0  0  0  0  0  0
    1.4726    1.6398    2.0715 H   0  0  0  0  0  0  0  0  0  0  0  0
   -1.1502   -0.5657   -1.5807 H   0  0  0  0  0  0  0  0  0  0  0  0
   -7.0755    0.2748    0.9124 H   0  0  0  0  0  0  0  0  0  0  0  0
   -7.5235    2.0460    4.4308 H   0  0  0  0  0  0  0  0  0  0  0  0
   -0.1915    3.4123    2.6907 H   0  0  0  0  0  0  0  0  0  0  0  0
   -1.3939    3.6070    1.4221 H   0  0  0  0  0  0  0  0  0  0  0  0
   -1.9309    5.0283    3.3470 H   0  0  0  0  0  0  0  0  0  0  0  0
   -3.1879    3.8127    3.1508 H   0  0  0  0  0  0  0  0  0  0  0  0
   -1.9818    3.6381    4.4251 H   0  0  0  0  0  0  0  0  0  0  0  0
    0.6661   -2.3493   -2.7141 H   0  0  0  0  0  0  0  0  0  0  0  0
    0.9901   -2.5466   -0.9960 H   0  0  0  0  0  0  0  0  0  0  0  0
    2.2569   -4.1524   -2.3703 H   0  0  0  0  0  0  0  0  0  0  0  0
    3.3228   -3.1238   -1.4210 H   0  0  0  0  0  0  0  0  0  0  0  0
    3.1336   -2.8370   -3.1494 H   0  0  0  0  0  0  0  0  0  0  0  0
   -2.1775    1.3422    4.3586 H   0  0  0  0  0  0  0  0  0  0  0  0
   -1.4676   -0.0751    3.5915 H   0  0  0  0  0  0  0  0  0  0  0  0
    0.1588    2.2817    4.6643 H   0  0  0  0  0  0  0  0  0  0  0  0
    0.8026    0.7721    4.0040 H   0  0  0  0  0  0  0  0  0  0  0  0
   -0.1202    0.7588    5.4997 H   0  0  0  0  0  0  0  0  0  0  0  0
    1.8089    1.0922   -2.9888 H   0  0  0  0  0  0  0  0  0  0  0  0
    0.4784    0.0153   -3.4036 H   0  0  0  0  0  0  0  0  0  0  0  0
    3.3985   -0.4997   -4.1431 H   0  0  0  0  0  0  0  0  0  0  0  0
    2.1652    0.1686   -5.2074 H   0  0  0  0  0  0  0  0  0  0  0  0
    2.0123   -1.4829   -4.6222 H   0  0  0  0  0  0  0  0  0  0  0  0
  -11.5907    2.5390    5.9632 H   0  0  0  0  0  0  0  0  0  0  0  0
  -13.0400    1.8304    5.1942 H   0  0  0  0  0  0  0  0  0  0  0  0
  -12.5182   -0.3612    6.2702 H   0  0  0  0  0  0  0  0  0  0  0  0
  -12.6919    0.9092    7.4842 H   0  0  0  0  0  0  0  0  0  0  0  0
  -11.0796    0.3516    7.0224 H   0  0  0  0  0  0  0  0  0  0  0  0
  -10.7334   -1.2847    0.8751 H   0  0  0  0  0  0  0  0  0  0  0  0
  -12.2795   -1.4016    1.7613 H   0  0  0  0  0  0  0  0  0  0  0  0
  -12.6085   -0.4294   -0.5115 H   0  0  0  0  0  0  0  0  0  0  0  0
  -11.4706    0.8676   -0.1276 H   0  0  0  0  0  0  0  0  0  0  0  0
  -13.0135    0.7511    0.7378 H   0  0  0  0  0  0  0  0  0  0  0  0
   12.5172   -2.1872   -3.9277 H   0  0  0  0  0  0  0  0  0  0  0  0
   12.4178   -3.0716   -5.4773 H   0  0  0  0  0  0  0  0  0  0  0  0
   12.0718   -5.2010   -4.2200 H   0  0  0  0  0  0  0  0  0  0  0  0
   12.1641   -4.3116   -2.6891 H   0  0  0  0  0  0  0  0  0  0  0  0
   13.5824   -4.4251   -3.7373 H   0  0  0  0  0  0  0  0  0  0  0  0
    6.8077   -3.2750   -6.4824 H   0  0  0  0  0  0  0  0  0  0  0  0
    8.2616   -3.8887   -7.3197 H   0  0  0  0  0  0  0  0  0  0  0  0
    6.7616   -5.3200   -5.0666 H   0  0  0  0  0  0  0  0  0  0  0  0
    8.1954   -5.9408   -5.9050 H   0  0  0  0  0  0  0  0  0  0  0  0
    6.6764   -5.7383   -6.7817 H   0  0  0  0  0  0  0  0  0  0  0  0
  1  2  1  0  0  0  0
  2  3  2  0  0  0  0
  3  4  1  0  0  0  0
  4  5  2  0  0  0  0
  5  6  1  0  0  0  0
  2  6  1  0  0  0  0
  5  7  1  0  0  0  0
  7  8  1  0  0  0  0
  8  9  1  0  0  0  0
  9 10  2  0  0  0  0
 10 11  1  0  0  0  0
  7 11  2  0  0  0  0
 11 12  1  0  0  0  0
  4 12  1  0  0  0  0
 10 13  1  0  0  0  0
 13 14  2  0  0  0  0
 14 15  1  0  0  0  0
 15 16  1  0  0  0  0
 16 17  2  0  0  0  0
 17 18  1  0  0  0  0
 14 18  1  0  0  0  0
 18 19  2  0  0  0  0
  9 19  1  0  0  0  0
 17 20  1  0  0  0  0
 20 21  1  0  0  0  0
 21 22  2  0  0  0  0
 16 22  1  0  0  0  0
 22 23  1  0  0  0  0
 23 24  1  0  0  0  0
 24 25  2  0  0  0  0
 21 25  1  0  0  0  0
 24 26  1  0  0  0  0
 15 27  1  0  0  0  0
 27 28  1  0  0  0  0
  8 29  1  0  0  0  0
 29 30  1  0  0  0  0
 15 31  1  0  0  0  0
 31 32  1  0  0  0  0
  8 33  1  0  0  0  0
 33 34  1  0  0  0  0
 26 35  2  0  0  0  0
 35 36  1  0  0  0  0
 36 37  1  0  0  0  0
 37 38  1  0  0  0  0
 38 39  1  0  0  0  0
 39 40  1  0  0  0  0
 40 35  1  0  0  0  0
 40 41  2  0  0  0  0
 39 42  1  0  0  0  0
 42 43  1  0  0  0  0
 38 44  2  0  0  0  0
 37 45  1  0  0  0  0
 45 46  1  0  0  0  0
 36 47  2  0  0  0  0
 48 49  1  0  0  0  0
 49 50  1  0  0  0  0
 50 51  1  0  0  0  0
 51 52  1  0  0  0  0
 52 53  1  0  0  0  0
 53 48  1  0  0  0  0
 53 54  2  0  0  0  0
 52 55  1  0  0  0  0
 55 56  1  0  0  0  0
 51 57  2  0  0  0  0
 50 58  1  0  0  0  0
 58 59  1  0  0  0  0
 49 60  2  0  0  0  0
  1 48  2  0  0  0  0
  1 61  1  0  0  0  0
  3 62  1  0  0  0  0
 13 63  1  0  0  0  0
 19 64  1  0  0  0  0
 25 65  1  0  0  0  0
 26 66  1  0  0  0  0
 27 67  1  0  0  0  0
 27 68  1  0  0  0  0
 28 69  1  0  0  0  0
 28 70  1  0  0  0  0
 28 71  1  0  0  0  0
 29 72  1  0  0  0  0
 29 73  1  0  0  0  0
 30 74  1  0  0  0  0
 30 75  1  0  0  0  0
 30 76  1  0  0  0  0
 31 77  1  0  0  0  0
 31 78  1  0  0  0  0
 32 79  1  0  0  0  0
 32 80  1  0  0  0  0
 32 81  1  0  0  0  0
 33 82  1  0  0  0  0
 33 83  1  0  0  0  0
 34 84  1  0  0  0  0
 34 85  1  0  0  0  0
 34 86  1  0  0  0  0
 42 87  1  0  0  0  0
 42 88  1  0  0  0  0
 43 89  1  0  0  0  0
 43 90  1  0  0  0  0
 43 91  1  0  0  0  0
 45 92  1  0  0  0  0
 45 93  1  0  0  0  0
 46 94  1  0  0  0  0
 46 95  1  0  0  0  0
 46 96  1  0  0  0  0
 55 97  1  0  0  0  0
 55 98  1  0  0  0  0
 56 99  1  0  0  0  0
 56100  1  0  0  0  0
 56101  1  0  0  0  0
 58102  1  0  0  0  0
 58103  1  0  0  0  0
 59104  1  0  0  0  0
 59105  1  0  0  0  0
 59106  1  0  0  0  0
M  END
