IDTT-Cl-2F.sdf
  xtb     12202113273D
 energy: -232.465926782376 gnorm: 0.000591890549 xtb: 6.4.1 (unknown)
132146  0     0  0            999 V2000
    3.0135    3.5898    7.9953 C   0  0  0  0  0  0  0  0  0  0  0  0
    2.3538    4.1796    7.1651 O   0  0  0  0  0  0  0  0  0  0  0  0
    3.5866    4.2004    9.2163 C   0  0  0  0  0  0  0  0  0  0  0  0
    4.2689    3.2256    9.9599 C   0  0  0  0  0  0  0  0  0  0  0  0
    4.1514    1.9426    9.2669 C   0  0  0  0  0  0  0  0  0  0  0  0
    4.6073    0.7481    9.7611 C   0  0  0  0  0  0  0  0  0  0  0  0
    5.2978    0.6122   10.9851 C   0  0  0  0  0  0  0  0  0  0  0  0
    5.8659    0.4281   11.9651 N   0  0  0  0  0  0  0  0  0  0  0  0
    4.4455   -0.5238    9.1698 C   0  0  0  0  0  0  0  0  0  0  0  0
    4.3508   -1.6021    8.7851 N   0  0  0  0  0  0  0  0  0  0  0  0
    3.4286    2.1735    8.0275 C   0  0  0  0  0  0  0  0  0  0  0  0
    3.2597    1.2098    7.0636 C   0  0  0  0  0  0  0  0  0  0  0  0
    2.5836    1.2164    5.8343 C   0  0  0  0  0  0  0  0  0  0  0  0
    1.7942    2.1627    5.1915 C   0  0  0  0  0  0  0  0  0  0  0  0
    1.3015    1.6934    3.9861 C   0  0  0  0  0  0  0  0  0  0  0  0
    1.6978    0.3739    3.6681 C   0  0  0  0  0  0  0  0  0  0  0  0
    2.7002   -0.2832    4.8937 S   0  0  0  0  0  0  0  0  0  0  0  0
    1.1745   -0.0575    2.4545 C   0  0  0  0  0  0  0  0  0  0  0  0
    1.1801   -1.3165    1.6311 C   0  0  0  0  0  0  0  0  0  0  0  0
    0.6282   -2.4303    2.5030 C   0  0  0  0  0  0  0  0  0  0  0  0
    1.4689   -3.0548    3.4176 C   0  0  0  0  0  0  0  0  0  0  0  0
    0.9796   -4.0238    4.2703 C   0  0  0  0  0  0  0  0  0  0  0  0
   -0.3609   -4.3933    4.2382 C   0  0  0  0  0  0  0  0  0  0  0  0
   -0.8759   -5.4555    5.1595 C   0  0  0  0  0  0  0  0  0  0  0  0
   -1.1961   -3.7590    3.3300 C   0  0  0  0  0  0  0  0  0  0  0  0
   -0.7121   -2.7837    2.4753 C   0  0  0  0  0  0  0  0  0  0  0  0
    2.5422   -1.6603    1.0563 C   0  0  0  0  0  0  0  0  0  0  0  0
    2.7995   -2.9476    0.6021 C   0  0  0  0  0  0  0  0  0  0  0  0
    4.0222   -3.2607    0.0401 C   0  0  0  0  0  0  0  0  0  0  0  0
    5.0180   -2.3003   -0.0856 C   0  0  0  0  0  0  0  0  0  0  0  0
    6.3309   -2.6348   -0.7323 C   0  0  0  0  0  0  0  0  0  0  0  0
    6.2454   -2.4399   -2.2476 C   0  0  0  0  0  0  0  0  0  0  0  0
    4.7506   -1.0129    0.3586 C   0  0  0  0  0  0  0  0  0  0  0  0
    3.5277   -0.6934    0.9194 C   0  0  0  0  0  0  0  0  0  0  0  0
    0.2675   -0.9106    0.4872 C   0  0  0  0  0  0  0  0  0  0  0  0
   -0.1794    0.4240    0.6417 C   0  0  0  0  0  0  0  0  0  0  0  0
    0.3804    0.9131    1.8626 C   0  0  0  0  0  0  0  0  0  0  0  0
    0.2682    2.3851    2.7643 S   0  0  0  0  0  0  0  0  0  0  0  0
   -1.0236    1.0299   -0.2859 C   0  0  0  0  0  0  0  0  0  0  0  0
   -1.4286    0.2700   -1.3582 C   0  0  0  0  0  0  0  0  0  0  0  0
   -2.3389    0.6716   -2.5058 C   0  0  0  0  0  0  0  0  0  0  0  0
   -1.6917    1.8347   -3.2368 C   0  0  0  0  0  0  0  0  0  0  0  0
   -1.9228    3.1357   -2.8091 C   0  0  0  0  0  0  0  0  0  0  0  0
   -1.3044    4.1997   -3.4369 C   0  0  0  0  0  0  0  0  0  0  0  0
   -0.4356    3.9941   -4.5009 C   0  0  0  0  0  0  0  0  0  0  0  0
    0.1984    5.1544   -5.2119 C   0  0  0  0  0  0  0  0  0  0  0  0
   -0.6836    5.6152   -6.3741 C   0  0  0  0  0  0  0  0  0  0  0  0
   -0.2041    2.6912   -4.9199 C   0  0  0  0  0  0  0  0  0  0  0  0
   -0.8185    1.6225   -4.2936 C   0  0  0  0  0  0  0  0  0  0  0  0
   -3.7664    0.9908   -2.0994 C   0  0  0  0  0  0  0  0  0  0  0  0
   -4.2714    0.6514   -0.8533 C   0  0  0  0  0  0  0  0  0  0  0  0
   -5.5929    0.9171   -0.5403 C   0  0  0  0  0  0  0  0  0  0  0  0
   -6.4418    1.5102   -1.4643 C   0  0  0  0  0  0  0  0  0  0  0  0
   -7.8618    1.8399   -1.1049 C   0  0  0  0  0  0  0  0  0  0  0  0
   -7.9480    3.2462   -0.5080 C   0  0  0  0  0  0  0  0  0  0  0  0
   -5.9328    1.8338   -2.7160 C   0  0  0  0  0  0  0  0  0  0  0  0
   -4.6137    1.5768   -3.0326 C   0  0  0  0  0  0  0  0  0  0  0  0
   -2.3652   -0.6024   -3.3063 C   0  0  0  0  0  0  0  0  0  0  0  0
   -1.5826   -1.5729   -2.7032 C   0  0  0  0  0  0  0  0  0  0  0  0
   -0.9789   -1.0638   -1.5126 C   0  0  0  0  0  0  0  0  0  0  0  0
   -0.1189   -1.6632   -0.5966 C   0  0  0  0  0  0  0  0  0  0  0  0
   -1.5815   -3.0975   -3.5234 S   0  0  0  0  0  0  0  0  0  0  0  0
   -2.6730   -2.4298   -4.7079 C   0  0  0  0  0  0  0  0  0  0  0  0
   -2.9996   -1.0803   -4.4514 C   0  0  0  0  0  0  0  0  0  0  0  0
   -4.0845   -0.4462   -5.6266 S   0  0  0  0  0  0  0  0  0  0  0  0
   -4.1089   -1.9960   -6.4602 C   0  0  0  0  0  0  0  0  0  0  0  0
   -3.2933   -2.9394   -5.8315 C   0  0  0  0  0  0  0  0  0  0  0  0
   -4.8518   -2.3150   -7.6080 C   0  0  0  0  0  0  0  0  0  0  0  0
   -5.7126   -1.5591   -8.3575 C   0  0  0  0  0  0  0  0  0  0  0  0
   -6.4383   -2.0316   -9.5249 C   0  0  0  0  0  0  0  0  0  0  0  0
   -6.4296   -3.2755  -10.0991 C   0  0  0  0  0  0  0  0  0  0  0  0
   -5.6890   -4.3909   -9.6600 C   0  0  0  0  0  0  0  0  0  0  0  0
   -5.1197   -5.3435   -9.3632 N   0  0  0  0  0  0  0  0  0  0  0  0
   -7.2045   -3.5687  -11.2418 C   0  0  0  0  0  0  0  0  0  0  0  0
   -7.8263   -3.8290  -12.1701 N   0  0  0  0  0  0  0  0  0  0  0  0
   -7.2256   -0.9116  -10.0095 C   0  0  0  0  0  0  0  0  0  0  0  0
   -7.0012    0.1837   -9.1880 C   0  0  0  0  0  0  0  0  0  0  0  0
   -6.0604   -0.1415   -8.1217 C   0  0  0  0  0  0  0  0  0  0  0  0
   -5.6526    0.5891   -7.2391 O   0  0  0  0  0  0  0  0  0  0  0  0
   -7.8874    1.5655   -9.6715 S   0  0  0  0  0  0  0  0  0  0  0  0
   -8.5644    0.6526  -10.9933 C   0  0  0  0  0  0  0  0  0  0  0  0
   -8.1288   -0.6438  -11.0533 C   0  0  0  0  0  0  0  0  0  0  0  0
   -9.6632    1.3891  -12.0646 Cl  0  0  0  0  0  0  0  0  0  0  0  0
    3.5082    5.5174    9.6236 C   0  0  0  0  0  0  0  0  0  0  0  0
    4.1379    5.8618   10.8083 C   0  0  0  0  0  0  0  0  0  0  0  0
    4.8241    4.9014   11.5522 C   0  0  0  0  0  0  0  0  0  0  0  0
    4.8987    3.5782   11.1438 C   0  0  0  0  0  0  0  0  0  0  0  0
    4.0900    7.1272   11.2428 F   0  0  0  0  0  0  0  0  0  0  0  0
    5.4287    5.2623   12.6899 F   0  0  0  0  0  0  0  0  0  0  0  0
    3.7368    0.2583    7.2676 H   0  0  0  0  0  0  0  0  0  0  0  0
    1.6028    3.1371    5.6012 H   0  0  0  0  0  0  0  0  0  0  0  0
    2.5138   -2.7826    3.4566 H   0  0  0  0  0  0  0  0  0  0  0  0
    1.6465   -4.4986    4.9751 H   0  0  0  0  0  0  0  0  0  0  0  0
   -0.4929   -6.4306    4.8584 H   0  0  0  0  0  0  0  0  0  0  0  0
   -1.9621   -5.4937    5.1433 H   0  0  0  0  0  0  0  0  0  0  0  0
   -0.5445   -5.2702    6.1795 H   0  0  0  0  0  0  0  0  0  0  0  0
   -2.2429   -4.0246    3.2897 H   0  0  0  0  0  0  0  0  0  0  0  0
   -1.3861   -2.2987    1.7842 H   0  0  0  0  0  0  0  0  0  0  0  0
    2.0439   -3.7131    0.7031 H   0  0  0  0  0  0  0  0  0  0  0  0
    4.2081   -4.2687   -0.3022 H   0  0  0  0  0  0  0  0  0  0  0  0
    7.1160   -1.9912   -0.3307 H   0  0  0  0  0  0  0  0  0  0  0  0
    6.5957   -3.6720   -0.5176 H   0  0  0  0  0  0  0  0  0  0  0  0
    5.4773   -3.0840   -2.6696 H   0  0  0  0  0  0  0  0  0  0  0  0
    5.9930   -1.4083   -2.4828 H   0  0  0  0  0  0  0  0  0  0  0  0
    7.1969   -2.6806   -2.7159 H   0  0  0  0  0  0  0  0  0  0  0  0
    5.5091   -0.2485    0.2680 H   0  0  0  0  0  0  0  0  0  0  0  0
    3.3449    0.3178    1.2534 H   0  0  0  0  0  0  0  0  0  0  0  0
   -1.3500    2.0498   -0.1535 H   0  0  0  0  0  0  0  0  0  0  0  0
   -2.6014    3.3181   -1.9884 H   0  0  0  0  0  0  0  0  0  0  0  0
   -1.4980    5.2060   -3.0936 H   0  0  0  0  0  0  0  0  0  0  0  0
    1.1774    4.8621   -5.5972 H   0  0  0  0  0  0  0  0  0  0  0  0
    0.3385    5.9835   -4.5156 H   0  0  0  0  0  0  0  0  0  0  0  0
   -0.8261    4.8048   -7.0853 H   0  0  0  0  0  0  0  0  0  0  0  0
   -1.6604    5.9236   -6.0082 H   0  0  0  0  0  0  0  0  0  0  0  0
   -0.2243    6.4548   -6.8904 H   0  0  0  0  0  0  0  0  0  0  0  0
    0.4693    2.5079   -5.7451 H   0  0  0  0  0  0  0  0  0  0  0  0
   -0.6147    0.6176   -4.6341 H   0  0  0  0  0  0  0  0  0  0  0  0
   -3.6337    0.1795   -0.1198 H   0  0  0  0  0  0  0  0  0  0  0  0
   -5.9697    0.6524    0.4376 H   0  0  0  0  0  0  0  0  0  0  0  0
   -8.2389    1.1170   -0.3787 H   0  0  0  0  0  0  0  0  0  0  0  0
   -8.4894    1.7890   -1.9967 H   0  0  0  0  0  0  0  0  0  0  0  0
   -7.5869    3.9826   -1.2225 H   0  0  0  0  0  0  0  0  0  0  0  0
   -8.9763    3.4877   -0.2495 H   0  0  0  0  0  0  0  0  0  0  0  0
   -7.3387    3.3139    0.3906 H   0  0  0  0  0  0  0  0  0  0  0  0
   -6.5762    2.2872   -3.4557 H   0  0  0  0  0  0  0  0  0  0  0  0
   -4.2372    1.8368   -4.0109 H   0  0  0  0  0  0  0  0  0  0  0  0
    0.2147   -2.6800   -0.7338 H   0  0  0  0  0  0  0  0  0  0  0  0
   -3.1806   -3.9449   -6.1952 H   0  0  0  0  0  0  0  0  0  0  0  0
   -4.7075   -3.3397   -7.9305 H   0  0  0  0  0  0  0  0  0  0  0  0
   -8.4474   -1.3423  -11.8040 H   0  0  0  0  0  0  0  0  0  0  0  0
    2.9775    6.2550    9.0430 H   0  0  0  0  0  0  0  0  0  0  0  0
    5.4427    2.8779   11.7556 H   0  0  0  0  0  0  0  0  0  0  0  0
  1  2  2  0  0  0  0
  1  3  1  0  0  0  0
  4  5  1  0  0  0  0
  5  6  2  0  0  0  0
  6  7  1  0  0  0  0
  7  8  3  0  0  0  0
  6  9  1  0  0  0  0
  9 10  3  0  0  0  0
  5 11  1  0  0  0  0
  1 11  1  0  0  0  0
 11 12  2  0  0  0  0
 12 13  1  0  0  0  0
 13 14  2  0  0  0  0
 14 15  1  0  0  0  0
 15 16  2  0  0  0  0
 16 17  1  0  0  0  0
 13 17  1  0  0  0  0
 16 18  1  0  0  0  0
 18 19  1  0  0  0  0
 19 20  1  0  0  0  0
 20 21  2  0  0  0  0
 21 22  1  0  0  0  0
 22 23  2  0  0  0  0
 23 24  1  0  0  0  0
 23 25  1  0  0  0  0
 25 26  2  0  0  0  0
 20 26  1  0  0  0  0
 19 27  1  0  0  0  0
 27 28  2  0  0  0  0
 28 29  1  0  0  0  0
 29 30  2  0  0  0  0
 30 31  1  0  0  0  0
 31 32  1  0  0  0  0
 30 33  1  0  0  0  0
 33 34  2  0  0  0  0
 27 34  1  0  0  0  0
 19 35  1  0  0  0  0
 35 36  2  0  0  0  0
 36 37  1  0  0  0  0
 18 37  2  0  0  0  0
 37 38  1  0  0  0  0
 15 38  1  0  0  0  0
 36 39  1  0  0  0  0
 39 40  2  0  0  0  0
 40 41  1  0  0  0  0
 41 42  1  0  0  0  0
 42 43  2  0  0  0  0
 43 44  1  0  0  0  0
 44 45  2  0  0  0  0
 45 46  1  0  0  0  0
 46 47  1  0  0  0  0
 45 48  1  0  0  0  0
 48 49  2  0  0  0  0
 42 49  1  0  0  0  0
 41 50  1  0  0  0  0
 50 51  2  0  0  0  0
 51 52  1  0  0  0  0
 52 53  2  0  0  0  0
 53 54  1  0  0  0  0
 54 55  1  0  0  0  0
 53 56  1  0  0  0  0
 56 57  2  0  0  0  0
 50 57  1  0  0  0  0
 41 58  1  0  0  0  0
 58 59  2  0  0  0  0
 59 60  1  0  0  0  0
 40 60  1  0  0  0  0
 60 61  2  0  0  0  0
 35 61  1  0  0  0  0
 59 62  1  0  0  0  0
 62 63  1  0  0  0  0
 63 64  2  0  0  0  0
 58 64  1  0  0  0  0
 64 65  1  0  0  0  0
 65 66  1  0  0  0  0
 66 67  2  0  0  0  0
 63 67  1  0  0  0  0
 66 68  1  0  0  0  0
 68 69  2  0  0  0  0
 69 70  1  0  0  0  0
 70 71  2  0  0  0  0
 71 72  1  0  0  0  0
 72 73  3  0  0  0  0
 71 74  1  0  0  0  0
 74 75  3  0  0  0  0
 70 76  1  0  0  0  0
 76 77  2  0  0  0  0
 77 78  1  0  0  0  0
 69 78  1  0  0  0  0
 78 79  2  0  0  0  0
 77 80  1  0  0  0  0
 80 81  1  0  0  0  0
 81 82  2  0  0  0  0
 82 76  1  0  0  0  0
 81 83  1  0  0  0  0
  3  4  2  0  0  0  0
  3 84  1  0  0  0  0
 84 85  2  0  0  0  0
 85 86  1  0  0  0  0
 86 87  2  0  0  0  0
 87  4  1  0  0  0  0
 85 88  1  0  0  0  0
 86 89  1  0  0  0  0
 12 90  1  0  0  0  0
 14 91  1  0  0  0  0
 21 92  1  0  0  0  0
 22 93  1  0  0  0  0
 24 94  1  0  0  0  0
 24 95  1  0  0  0  0
 24 96  1  0  0  0  0
 25 97  1  0  0  0  0
 26 98  1  0  0  0  0
 28 99  1  0  0  0  0
 29100  1  0  0  0  0
 31101  1  0  0  0  0
 31102  1  0  0  0  0
 32103  1  0  0  0  0
 32104  1  0  0  0  0
 32105  1  0  0  0  0
 33106  1  0  0  0  0
 34107  1  0  0  0  0
 39108  1  0  0  0  0
 43109  1  0  0  0  0
 44110  1  0  0  0  0
 46111  1  0  0  0  0
 46112  1  0  0  0  0
 47113  1  0  0  0  0
 47114  1  0  0  0  0
 47115  1  0  0  0  0
 48116  1  0  0  0  0
 49117  1  0  0  0  0
 51118  1  0  0  0  0
 52119  1  0  0  0  0
 54120  1  0  0  0  0
 54121  1  0  0  0  0
 55122  1  0  0  0  0
 55123  1  0  0  0  0
 55124  1  0  0  0  0
 56125  1  0  0  0  0
 57126  1  0  0  0  0
 61127  1  0  0  0  0
 67128  1  0  0  0  0
 68129  1  0  0  0  0
 82130  1  0  0  0  0
 84131  1  0  0  0  0
 87132  1  0  0  0  0
M  END
