IEICS-4F.sdf
  xtb     12202114083D
 energy: -271.826663310062 gnorm: 0.000596065470 xtb: 6.4.1 (unknown)
160174  0     0  0            999 V2000
   -0.0196    0.7745    0.5689 C   0  0  0  0  0  0  0  0  0  0  0  0
    1.3801    0.6375    0.7324 C   0  0  0  0  0  0  0  0  0  0  0  0
    2.1658   -0.0551   -0.1855 C   0  0  0  0  0  0  0  0  0  0  0  0
    1.5214   -0.6369   -1.2512 C   0  0  0  0  0  0  0  0  0  0  0  0
    0.1181   -0.5221   -1.4017 C   0  0  0  0  0  0  0  0  0  0  0  0
   -0.6646    0.1897   -0.4952 C   0  0  0  0  0  0  0  0  0  0  0  0
   -0.6232    1.5780    1.7096 C   0  0  0  0  0  0  0  0  0  0  0  0
    0.5923    1.8096    2.5712 C   0  0  0  0  0  0  0  0  0  0  0  0
    1.7234    1.2866    1.9555 C   0  0  0  0  0  0  0  0  0  0  0  0
    0.8699    2.4220    3.7829 C   0  0  0  0  0  0  0  0  0  0  0  0
    2.2200    2.3543    4.1082 C   0  0  0  0  0  0  0  0  0  0  0  0
    3.1516    1.5313    2.8682 S   0  0  0  0  0  0  0  0  0  0  0  0
    2.1288   -1.4423   -2.3877 C   0  0  0  0  0  0  0  0  0  0  0  0
    0.8968   -1.7884   -3.1812 C   0  0  0  0  0  0  0  0  0  0  0  0
   -0.2329   -1.2505   -2.5792 C   0  0  0  0  0  0  0  0  0  0  0  0
    0.6176   -2.5247   -4.3236 C   0  0  0  0  0  0  0  0  0  0  0  0
   -0.7407   -2.5511   -4.6056 C   0  0  0  0  0  0  0  0  0  0  0  0
   -1.6732   -1.6475   -3.4183 S   0  0  0  0  0  0  0  0  0  0  0  0
    2.8074    2.8312    5.2989 C   0  0  0  0  0  0  0  0  0  0  0  0
   -1.4072   -3.2222   -5.6600 C   0  0  0  0  0  0  0  0  0  0  0  0
    2.7863   -2.7394   -1.9533 C   0  0  0  0  0  0  0  0  0  0  0  0
    3.0964   -0.5431   -3.1361 C   0  0  0  0  0  0  0  0  0  0  0  0
   -1.7070    0.7505    2.3722 C   0  0  0  0  0  0  0  0  0  0  0  0
   -1.1351    2.9443    1.2850 C   0  0  0  0  0  0  0  0  0  0  0  0
   -1.4143   -0.1010    3.4280 C   0  0  0  0  0  0  0  0  0  0  0  0
   -2.4057   -0.8796    3.9962 C   0  0  0  0  0  0  0  0  0  0  0  0
   -3.7095   -0.8348    3.5214 C   0  0  0  0  0  0  0  0  0  0  0  0
   -3.9937    0.0074    2.4541 C   0  0  0  0  0  0  0  0  0  0  0  0
   -3.0074    0.7900    1.8848 C   0  0  0  0  0  0  0  0  0  0  0  0
   -0.8150    3.5005    0.0555 C   0  0  0  0  0  0  0  0  0  0  0  0
   -1.2562    4.7700   -0.2734 C   0  0  0  0  0  0  0  0  0  0  0  0
   -2.0139    5.5178    0.6168 C   0  0  0  0  0  0  0  0  0  0  0  0
   -2.3232    4.9587    1.8508 C   0  0  0  0  0  0  0  0  0  0  0  0
   -1.8870    3.6916    2.1841 C   0  0  0  0  0  0  0  0  0  0  0  0
    3.5710   -3.4360   -2.8648 C   0  0  0  0  0  0  0  0  0  0  0  0
    4.1457   -4.6428   -2.5176 C   0  0  0  0  0  0  0  0  0  0  0  0
    3.9510   -5.1877   -1.2545 C   0  0  0  0  0  0  0  0  0  0  0  0
    3.1551   -4.4942   -0.3534 C   0  0  0  0  0  0  0  0  0  0  0  0
    2.5737   -3.2867   -0.6968 C   0  0  0  0  0  0  0  0  0  0  0  0
    2.6783    0.2239   -4.2144 C   0  0  0  0  0  0  0  0  0  0  0  0
    3.5613    1.0703   -4.8590 C   0  0  0  0  0  0  0  0  0  0  0  0
    4.8786    1.1839   -4.4364 C   0  0  0  0  0  0  0  0  0  0  0  0
    5.2900    0.4216   -3.3505 C   0  0  0  0  0  0  0  0  0  0  0  0
    4.4125   -0.4291   -2.7060 C   0  0  0  0  0  0  0  0  0  0  0  0
    4.5404   -6.5202   -0.8931 C   0  0  0  0  0  0  0  0  0  0  0  0
    5.8462    2.0704   -5.1656 C   0  0  0  0  0  0  0  0  0  0  0  0
   -2.5270    6.8771    0.2387 C   0  0  0  0  0  0  0  0  0  0  0  0
   -4.7736   -1.7136    4.1121 C   0  0  0  0  0  0  0  0  0  0  0  0
   -3.8925    6.7622   -0.4419 C   0  0  0  0  0  0  0  0  0  0  0  0
   -4.8076   -3.0647    3.3947 C   0  0  0  0  0  0  0  0  0  0  0  0
    3.5580   -7.6448   -1.2272 C   0  0  0  0  0  0  0  0  0  0  0  0
    6.5272    1.2999   -6.2985 C   0  0  0  0  0  0  0  0  0  0  0  0
   -3.1205   -3.4570   -5.6008 S   0  0  0  0  0  0  0  0  0  0  0  0
   -3.1163   -4.3683   -7.1046 C   0  0  0  0  0  0  0  0  0  0  0  0
   -1.8274   -4.4367   -7.6102 C   0  0  0  0  0  0  0  0  0  0  0  0
   -0.8800   -3.7962   -6.8214 C   0  0  0  0  0  0  0  0  0  0  0  0
    1.8224    3.5652    6.5252 S   0  0  0  0  0  0  0  0  0  0  0  0
    3.2034    3.7603    7.5835 C   0  0  0  0  0  0  0  0  0  0  0  0
    4.3576    3.2787    6.9628 C   0  0  0  0  0  0  0  0  0  0  0  0
    4.1476    2.7726    5.6945 C   0  0  0  0  0  0  0  0  0  0  0  0
    5.4442    2.0942    4.6982 S   0  0  0  0  0  0  0  0  0  0  0  0
    5.7409    3.5440    3.6024 C   0  0  0  0  0  0  0  0  0  0  0  0
    6.5585    3.1129    2.4027 C   0  0  0  0  0  0  0  0  0  0  0  0
    3.2196    4.3014    8.8732 C   0  0  0  0  0  0  0  0  0  0  0  0
    2.1968    4.8186    9.6332 C   0  0  0  0  0  0  0  0  0  0  0  0
    0.7979    4.9256    9.2152 C   0  0  0  0  0  0  0  0  0  0  0  0
    0.0793    5.5390   10.3515 C   0  0  0  0  0  0  0  0  0  0  0  0
    0.9855    5.7841   11.3965 C   0  0  0  0  0  0  0  0  0  0  0  0
    2.3189    5.3468   10.9765 C   0  0  0  0  0  0  0  0  0  0  0  0
   -1.2617    5.8519   10.4492 C   0  0  0  0  0  0  0  0  0  0  0  0
   -1.7021    6.4259   11.6309 C   0  0  0  0  0  0  0  0  0  0  0  0
   -0.8115    6.6710   12.6760 C   0  0  0  0  0  0  0  0  0  0  0  0
    0.5362    6.3565   12.5760 C   0  0  0  0  0  0  0  0  0  0  0  0
    0.3035    4.5859    8.1553 O   0  0  0  0  0  0  0  0  0  0  0  0
    3.4523    5.4382   11.7422 C   0  0  0  0  0  0  0  0  0  0  0  0
    4.7469    5.0324   11.3550 C   0  0  0  0  0  0  0  0  0  0  0  0
    3.4816    5.9662   13.0508 C   0  0  0  0  0  0  0  0  0  0  0  0
    3.5759    6.3824   14.1162 N   0  0  0  0  0  0  0  0  0  0  0  0
    5.8310    4.7316   11.1233 N   0  0  0  0  0  0  0  0  0  0  0  0
   -1.2640    7.2245   13.8066 F   0  0  0  0  0  0  0  0  0  0  0  0
   -2.9940    6.7479   11.7707 F   0  0  0  0  0  0  0  0  0  0  0  0
    0.8181   -3.7144   -7.3138 S   0  0  0  0  0  0  0  0  0  0  0  0
    0.9273   -1.9238   -7.6968 C   0  0  0  0  0  0  0  0  0  0  0  0
    0.0782   -1.5562   -8.8963 C   0  0  0  0  0  0  0  0  0  0  0  0
   -4.3609   -4.8514   -7.5403 C   0  0  0  0  0  0  0  0  0  0  0  0
   -4.7134   -5.6428   -8.6047 C   0  0  0  0  0  0  0  0  0  0  0  0
   -3.8362   -6.2632   -9.6190 C   0  0  0  0  0  0  0  0  0  0  0  0
   -4.7156   -7.1463  -10.4179 C   0  0  0  0  0  0  0  0  0  0  0  0
   -6.0390   -7.0346   -9.9654 C   0  0  0  0  0  0  0  0  0  0  0  0
   -6.0779   -6.0697   -8.8664 C   0  0  0  0  0  0  0  0  0  0  0  0
   -4.3595   -7.9804  -11.4591 C   0  0  0  0  0  0  0  0  0  0  0  0
   -5.3626   -8.7263  -12.0557 C   0  0  0  0  0  0  0  0  0  0  0  0
   -6.6811   -8.6268  -11.6100 C   0  0  0  0  0  0  0  0  0  0  0  0
   -7.0378   -7.7849  -10.5674 C   0  0  0  0  0  0  0  0  0  0  0  0
   -2.6481   -6.1080   -9.8053 O   0  0  0  0  0  0  0  0  0  0  0  0
   -7.2240   -5.6410   -8.2488 C   0  0  0  0  0  0  0  0  0  0  0  0
   -8.5166   -6.1087   -8.5714 C   0  0  0  0  0  0  0  0  0  0  0  0
   -7.3173   -4.6653   -7.2327 C   0  0  0  0  0  0  0  0  0  0  0  0
   -9.5946   -6.4432   -8.7789 N   0  0  0  0  0  0  0  0  0  0  0  0
   -7.5013   -3.8771   -6.4176 N   0  0  0  0  0  0  0  0  0  0  0  0
   -5.0655   -9.5513  -13.0670 F   0  0  0  0  0  0  0  0  0  0  0  0
   -7.6298   -9.3623  -12.2008 F   0  0  0  0  0  0  0  0  0  0  0  0
    3.2326   -0.1392   -0.0470 H   0  0  0  0  0  0  0  0  0  0  0  0
   -1.7325    0.2681   -0.6287 H   0  0  0  0  0  0  0  0  0  0  0  0
    0.1507    2.8914    4.4296 H   0  0  0  0  0  0  0  0  0  0  0  0
    1.3474   -3.0470   -4.9138 H   0  0  0  0  0  0  0  0  0  0  0  0
   -0.4069   -0.1550    3.8148 H   0  0  0  0  0  0  0  0  0  0  0  0
   -2.1617   -1.5301    4.8240 H   0  0  0  0  0  0  0  0  0  0  0  0
   -5.0012    0.0549    2.0662 H   0  0  0  0  0  0  0  0  0  0  0  0
   -3.2530    1.4486    1.0640 H   0  0  0  0  0  0  0  0  0  0  0  0
   -0.2188    2.9437   -0.6530 H   0  0  0  0  0  0  0  0  0  0  0  0
   -1.0011    5.1866   -1.2376 H   0  0  0  0  0  0  0  0  0  0  0  0
   -2.9085    5.5249    2.5611 H   0  0  0  0  0  0  0  0  0  0  0  0
   -2.1386    3.2723    3.1473 H   0  0  0  0  0  0  0  0  0  0  0  0
    3.7407   -3.0238   -3.8490 H   0  0  0  0  0  0  0  0  0  0  0  0
    4.7558   -5.1691   -3.2376 H   0  0  0  0  0  0  0  0  0  0  0  0
    2.9865   -4.9022    0.6330 H   0  0  0  0  0  0  0  0  0  0  0  0
    1.9538   -2.7703    0.0216 H   0  0  0  0  0  0  0  0  0  0  0  0
    1.6551    0.1625   -4.5563 H   0  0  0  0  0  0  0  0  0  0  0  0
    3.2188    1.6556   -5.7007 H   0  0  0  0  0  0  0  0  0  0  0  0
    6.3106    0.4962   -3.0033 H   0  0  0  0  0  0  0  0  0  0  0  0
    4.7559   -1.0202   -1.8694 H   0  0  0  0  0  0  0  0  0  0  0  0
    4.7690   -6.5475    0.1742 H   0  0  0  0  0  0  0  0  0  0  0  0
    5.4685   -6.6769   -1.4462 H   0  0  0  0  0  0  0  0  0  0  0  0
    5.3187    2.9309   -5.5821 H   0  0  0  0  0  0  0  0  0  0  0  0
    6.6062    2.4375   -4.4730 H   0  0  0  0  0  0  0  0  0  0  0  0
   -1.8250    7.3619   -0.4427 H   0  0  0  0  0  0  0  0  0  0  0  0
   -2.6215    7.4983    1.1315 H   0  0  0  0  0  0  0  0  0  0  0  0
   -5.7481   -1.2310    4.0164 H   0  0  0  0  0  0  0  0  0  0  0  0
   -4.5742   -1.8746    5.1735 H   0  0  0  0  0  0  0  0  0  0  0  0
   -4.2675    7.7467   -0.7112 H   0  0  0  0  0  0  0  0  0  0  0  0
   -4.6088    6.2880    0.2253 H   0  0  0  0  0  0  0  0  0  0  0  0
   -3.8157    6.1604   -1.3448 H   0  0  0  0  0  0  0  0  0  0  0  0
   -5.0127   -2.9257    2.3356 H   0  0  0  0  0  0  0  0  0  0  0  0
   -3.8494   -3.5701    3.4936 H   0  0  0  0  0  0  0  0  0  0  0  0
   -5.5815   -3.7007    3.8179 H   0  0  0  0  0  0  0  0  0  0  0  0
    3.9869   -8.6119   -0.9759 H   0  0  0  0  0  0  0  0  0  0  0  0
    2.6334   -7.5184   -0.6684 H   0  0  0  0  0  0  0  0  0  0  0  0
    3.3194   -7.6352   -2.2885 H   0  0  0  0  0  0  0  0  0  0  0  0
    5.7868    0.9364   -7.0077 H   0  0  0  0  0  0  0  0  0  0  0  0
    7.0693    0.4444   -5.9017 H   0  0  0  0  0  0  0  0  0  0  0  0
    7.2286    1.9412   -6.8269 H   0  0  0  0  0  0  0  0  0  0  0  0
   -1.5842   -4.9338   -8.5315 H   0  0  0  0  0  0  0  0  0  0  0  0
    5.3232    3.2989    7.4364 H   0  0  0  0  0  0  0  0  0  0  0  0
    6.2652    4.2928    4.1962 H   0  0  0  0  0  0  0  0  0  0  0  0
    4.7678    3.9310    3.3011 H   0  0  0  0  0  0  0  0  0  0  0  0
    6.7505    3.9693    1.7598 H   0  0  0  0  0  0  0  0  0  0  0  0
    7.5097    2.6946    2.7228 H   0  0  0  0  0  0  0  0  0  0  0  0
    6.0222    2.3579    1.8325 H   0  0  0  0  0  0  0  0  0  0  0  0
    4.2057    4.2943    9.3214 H   0  0  0  0  0  0  0  0  0  0  0  0
   -1.9454    5.6589    9.6381 H   0  0  0  0  0  0  0  0  0  0  0  0
    1.1803    6.5674   13.4136 H   0  0  0  0  0  0  0  0  0  0  0  0
    0.6327   -1.3717   -6.8046 H   0  0  0  0  0  0  0  0  0  0  0  0
    1.9853   -1.7536   -7.8913 H   0  0  0  0  0  0  0  0  0  0  0  0
    0.3760   -2.1394   -9.7645 H   0  0  0  0  0  0  0  0  0  0  0  0
    0.1998   -0.4995   -9.1262 H   0  0  0  0  0  0  0  0  0  0  0  0
   -0.9748   -1.7479   -8.6973 H   0  0  0  0  0  0  0  0  0  0  0  0
   -5.1732   -4.5546   -6.8874 H   0  0  0  0  0  0  0  0  0  0  0  0
   -3.3381   -8.0529  -11.7971 H   0  0  0  0  0  0  0  0  0  0  0  0
   -8.0705   -7.7478  -10.2625 H   0  0  0  0  0  0  0  0  0  0  0  0
  1  2  1  0  0  0  0
  2  3  2  0  0  0  0
  3  4  1  0  0  0  0
  4  5  2  0  0  0  0
  5  6  1  0  0  0  0
  6  1  2  0  0  0  0
  1  7  1  0  0  0  0
  7  8  1  0  0  0  0
  8  9  2  0  0  0  0
  9  2  1  0  0  0  0
  8 10  1  0  0  0  0
 10 11  2  0  0  0  0
 11 12  1  0  0  0  0
 12  9  1  0  0  0  0
  4 13  1  0  0  0  0
 13 14  1  0  0  0  0
 14 15  2  0  0  0  0
 15  5  1  0  0  0  0
 14 16  1  0  0  0  0
 16 17  2  0  0  0  0
 17 18  1  0  0  0  0
 18 15  1  0  0  0  0
 11 19  1  0  0  0  0
 17 20  1  0  0  0  0
 13 21  1  0  0  0  0
 13 22  1  0  0  0  0
  7 23  1  0  0  0  0
  7 24  1  0  0  0  0
 23 25  2  0  0  0  0
 25 26  1  0  0  0  0
 26 27  2  0  0  0  0
 27 28  1  0  0  0  0
 28 29  2  0  0  0  0
 29 23  1  0  0  0  0
 24 30  2  0  0  0  0
 30 31  1  0  0  0  0
 31 32  2  0  0  0  0
 32 33  1  0  0  0  0
 33 34  2  0  0  0  0
 34 24  1  0  0  0  0
 21 35  2  0  0  0  0
 35 36  1  0  0  0  0
 36 37  2  0  0  0  0
 37 38  1  0  0  0  0
 38 39  2  0  0  0  0
 39 21  1  0  0  0  0
 22 40  2  0  0  0  0
 40 41  1  0  0  0  0
 41 42  2  0  0  0  0
 42 43  1  0  0  0  0
 43 44  2  0  0  0  0
 44 22  1  0  0  0  0
 37 45  1  0  0  0  0
 42 46  1  0  0  0  0
 32 47  1  0  0  0  0
 27 48  1  0  0  0  0
 47 49  1  0  0  0  0
 48 50  1  0  0  0  0
 45 51  1  0  0  0  0
 46 52  1  0  0  0  0
 20 53  1  0  0  0  0
 53 54  1  0  0  0  0
 54 55  2  0  0  0  0
 55 56  1  0  0  0  0
 56 20  2  0  0  0  0
 19 57  1  0  0  0  0
 57 58  1  0  0  0  0
 58 59  2  0  0  0  0
 59 60  1  0  0  0  0
 60 19  2  0  0  0  0
 60 61  1  0  0  0  0
 61 62  1  0  0  0  0
 62 63  1  0  0  0  0
 58 64  1  0  0  0  0
 64 65  2  0  0  0  0
 65 66  1  0  0  0  0
 66 67  1  0  0  0  0
 67 68  2  0  0  0  0
 68 69  1  0  0  0  0
 69 65  1  0  0  0  0
 67 70  1  0  0  0  0
 70 71  2  0  0  0  0
 71 72  1  0  0  0  0
 72 73  2  0  0  0  0
 73 68  1  0  0  0  0
 66 74  2  0  0  0  0
 69 75  2  0  0  0  0
 75 76  1  0  0  0  0
 75 77  1  0  0  0  0
 77 78  3  0  0  0  0
 76 79  3  0  0  0  0
 72 80  1  0  0  0  0
 71 81  1  0  0  0  0
 56 82  1  0  0  0  0
 82 83  1  0  0  0  0
 83 84  1  0  0  0  0
 54 85  1  0  0  0  0
 85 86  2  0  0  0  0
 86 87  1  0  0  0  0
 87 88  1  0  0  0  0
 88 89  2  0  0  0  0
 89 90  1  0  0  0  0
 90 86  1  0  0  0  0
 88 91  1  0  0  0  0
 91 92  2  0  0  0  0
 92 93  1  0  0  0  0
 93 94  2  0  0  0  0
 94 89  1  0  0  0  0
 87 95  2  0  0  0  0
 90 96  2  0  0  0  0
 96 97  1  0  0  0  0
 96 98  1  0  0  0  0
 97 99  3  0  0  0  0
 98100  3  0  0  0  0
 92101  1  0  0  0  0
 93102  1  0  0  0  0
  3103  1  0  0  0  0
  6104  1  0  0  0  0
 10105  1  0  0  0  0
 16106  1  0  0  0  0
 25107  1  0  0  0  0
 26108  1  0  0  0  0
 28109  1  0  0  0  0
 29110  1  0  0  0  0
 30111  1  0  0  0  0
 31112  1  0  0  0  0
 33113  1  0  0  0  0
 34114  1  0  0  0  0
 35115  1  0  0  0  0
 36116  1  0  0  0  0
 38117  1  0  0  0  0
 39118  1  0  0  0  0
 40119  1  0  0  0  0
 41120  1  0  0  0  0
 43121  1  0  0  0  0
 44122  1  0  0  0  0
 45123  1  0  0  0  0
 45124  1  0  0  0  0
 46125  1  0  0  0  0
 46126  1  0  0  0  0
 47127  1  0  0  0  0
 47128  1  0  0  0  0
 48129  1  0  0  0  0
 48130  1  0  0  0  0
 49131  1  0  0  0  0
 49132  1  0  0  0  0
 49133  1  0  0  0  0
 50134  1  0  0  0  0
 50135  1  0  0  0  0
 50136  1  0  0  0  0
 51137  1  0  0  0  0
 51138  1  0  0  0  0
 51139  1  0  0  0  0
 52140  1  0  0  0  0
 52141  1  0  0  0  0
 52142  1  0  0  0  0
 55143  1  0  0  0  0
 59144  1  0  0  0  0
 62145  1  0  0  0  0
 62146  1  0  0  0  0
 63147  1  0  0  0  0
 63148  1  0  0  0  0
 63149  1  0  0  0  0
 64150  1  0  0  0  0
 70151  1  0  0  0  0
 73152  1  0  0  0  0
 83153  1  0  0  0  0
 83154  1  0  0  0  0
 84155  1  0  0  0  0
 84156  1  0  0  0  0
 84157  1  0  0  0  0
 85158  1  0  0  0  0
 91159  1  0  0  0  0
 94160  1  0  0  0  0
M  END
