IffBR.sdf
  xtb     12202114463D
 energy: -251.406313151366 gnorm: 0.000367520708 xtb: 6.4.1 (unknown)
144158  0     0  0            999 V2000
    1.0231   -0.4990   -0.4111 C   0  0  0  0  0  0  0  0  0  0  0  0
    0.7370   -1.4439    0.6045 C   0  0  0  0  0  0  0  0  0  0  0  0
   -0.4191   -1.3637    1.3782 C   0  0  0  0  0  0  0  0  0  0  0  0
   -1.2942   -0.3412    1.0975 C   0  0  0  0  0  0  0  0  0  0  0  0
   -1.0368    0.5657    0.0408 C   0  0  0  0  0  0  0  0  0  0  0  0
    0.1327    0.5034   -0.7137 C   0  0  0  0  0  0  0  0  0  0  0  0
    2.3538   -0.8042   -1.0787 C   0  0  0  0  0  0  0  0  0  0  0  0
    2.7321   -2.0866   -0.3828 C   0  0  0  0  0  0  0  0  0  0  0  0
    1.8003   -2.3971    0.6006 C   0  0  0  0  0  0  0  0  0  0  0  0
    3.7721   -3.0006   -0.4573 C   0  0  0  0  0  0  0  0  0  0  0  0
    3.6301   -4.0293    0.4661 C   0  0  0  0  0  0  0  0  0  0  0  0
    2.1922   -3.8316    1.4519 S   0  0  0  0  0  0  0  0  0  0  0  0
   -2.6253   -0.0337    1.7648 C   0  0  0  0  0  0  0  0  0  0  0  0
   -3.1220    1.0972    0.8998 C   0  0  0  0  0  0  0  0  0  0  0  0
   -2.1677    1.4314   -0.0540 C   0  0  0  0  0  0  0  0  0  0  0  0
   -4.2615    1.8837    0.8290 C   0  0  0  0  0  0  0  0  0  0  0  0
   -4.1900    2.8158   -0.2002 C   0  0  0  0  0  0  0  0  0  0  0  0
   -2.6677    2.7186   -1.0675 S   0  0  0  0  0  0  0  0  0  0  0  0
    4.4628   -5.1702    0.6653 C   0  0  0  0  0  0  0  0  0  0  0  0
   -5.1760    3.7546   -0.6228 C   0  0  0  0  0  0  0  0  0  0  0  0
   -3.4925   -1.2762    1.7230 C   0  0  0  0  0  0  0  0  0  0  0  0
   -2.4822    0.5063    3.1779 C   0  0  0  0  0  0  0  0  0  0  0  0
    2.1374   -0.9388   -2.5724 C   0  0  0  0  0  0  0  0  0  0  0  0
    3.4360    0.2137   -0.7572 C   0  0  0  0  0  0  0  0  0  0  0  0
    5.5852   -5.4859   -0.0972 C   0  0  0  0  0  0  0  0  0  0  0  0
    6.3736   -6.6254    0.1053 C   0  0  0  0  0  0  0  0  0  0  0  0
    6.1297   -7.5691    1.0972 C   0  0  0  0  0  0  0  0  0  0  0  0
    4.9748   -7.2966    1.8838 C   0  0  0  0  0  0  0  0  0  0  0  0
    4.1703   -6.1255    1.6799 C   0  0  0  0  0  0  0  0  0  0  0  0
   -6.4216    3.9365   -0.0217 C   0  0  0  0  0  0  0  0  0  0  0  0
   -7.3791    4.8357   -0.4936 C   0  0  0  0  0  0  0  0  0  0  0  0
   -7.2114    5.6506   -1.6162 C   0  0  0  0  0  0  0  0  0  0  0  0
   -5.9449    5.5141   -2.2438 C   0  0  0  0  0  0  0  0  0  0  0  0
   -4.9562    4.5916   -1.7533 C   0  0  0  0  0  0  0  0  0  0  0  0
    4.5124   -8.0480    2.8788 N   0  0  0  0  0  0  0  0  0  0  0  0
    3.1982   -7.3587    3.4928 S   0  0  0  0  0  0  0  0  0  0  0  0
    3.1520   -6.0698    2.5318 N   0  0  0  0  0  0  0  0  0  0  0  0
   -5.5059    6.1764   -3.3070 N   0  0  0  0  0  0  0  0  0  0  0  0
   -4.0124    5.6988   -3.6642 S   0  0  0  0  0  0  0  0  0  0  0  0
   -3.8461    4.6235   -2.4831 N   0  0  0  0  0  0  0  0  0  0  0  0
    2.1843    0.1876   -3.3845 C   0  0  0  0  0  0  0  0  0  0  0  0
    1.9447    0.0846   -4.7412 C   0  0  0  0  0  0  0  0  0  0  0  0
    1.6510   -1.1420   -5.3229 C   0  0  0  0  0  0  0  0  0  0  0  0
    1.5938   -2.2622   -4.5051 C   0  0  0  0  0  0  0  0  0  0  0  0
    1.8296   -2.1641   -3.1460 C   0  0  0  0  0  0  0  0  0  0  0  0
    3.2890    1.1502    0.2550 C   0  0  0  0  0  0  0  0  0  0  0  0
    4.3165    2.0289    0.5494 C   0  0  0  0  0  0  0  0  0  0  0  0
    5.5157    1.9872   -0.1474 C   0  0  0  0  0  0  0  0  0  0  0  0
    5.6610    1.0399   -1.1536 C   0  0  0  0  0  0  0  0  0  0  0  0
    4.6382    0.1617   -1.4531 C   0  0  0  0  0  0  0  0  0  0  0  0
   -3.4060   -2.2193    2.7397 C   0  0  0  0  0  0  0  0  0  0  0  0
   -4.1612   -3.3752    2.6901 C   0  0  0  0  0  0  0  0  0  0  0  0
   -5.0195   -3.6221    1.6264 C   0  0  0  0  0  0  0  0  0  0  0  0
   -5.0912   -2.6835    0.6063 C   0  0  0  0  0  0  0  0  0  0  0  0
   -4.3355   -1.5263    0.6496 C   0  0  0  0  0  0  0  0  0  0  0  0
   -3.6181    0.6386    3.9683 C   0  0  0  0  0  0  0  0  0  0  0  0
   -3.5296    1.1641    5.2422 C   0  0  0  0  0  0  0  0  0  0  0  0
   -2.3078    1.5761    5.7605 C   0  0  0  0  0  0  0  0  0  0  0  0
   -1.1797    1.4554    4.9616 C   0  0  0  0  0  0  0  0  0  0  0  0
   -1.2626    0.9304    3.6840 C   0  0  0  0  0  0  0  0  0  0  0  0
   -5.8091   -4.8972    1.5571 C   0  0  0  0  0  0  0  0  0  0  0  0
   -2.2213    2.1848    7.1302 C   0  0  0  0  0  0  0  0  0  0  0  0
    6.6106    2.9724    0.1433 C   0  0  0  0  0  0  0  0  0  0  0  0
    1.3502   -1.2426   -6.7903 C   0  0  0  0  0  0  0  0  0  0  0  0
   -0.1427   -1.0232   -7.0440 C   0  0  0  0  0  0  0  0  0  0  0  0
    6.4554    4.2164   -0.7340 C   0  0  0  0  0  0  0  0  0  0  0  0
   -4.9968   -5.9905    0.8599 C   0  0  0  0  0  0  0  0  0  0  0  0
   -2.4545    3.6953    7.0593 C   0  0  0  0  0  0  0  0  0  0  0  0
    6.8677   -8.7611    1.3719 C   0  0  0  0  0  0  0  0  0  0  0  0
   -8.2711    6.5057   -2.0325 C   0  0  0  0  0  0  0  0  0  0  0  0
    8.1393   -9.1176    1.0748 C   0  0  0  0  0  0  0  0  0  0  0  0
    9.4164   -8.2091    0.3107 S   0  0  0  0  0  0  0  0  0  0  0  0
   10.5669   -9.5191    0.5474 C   0  0  0  0  0  0  0  0  0  0  0  0
    9.9713  -10.5779    1.1524 N   0  0  0  0  0  0  0  0  0  0  0  0
    8.6388  -10.4410    1.4899 C   0  0  0  0  0  0  0  0  0  0  0  0
   12.1275   -9.4494    0.0796 S   0  0  0  0  0  0  0  0  0  0  0  0
   10.6939  -11.7938    1.4739 C   0  0  0  0  0  0  0  0  0  0  0  0
   11.4466  -11.6567    2.7911 C   0  0  0  0  0  0  0  0  0  0  0  0
    7.9928  -11.3034    2.0385 O   0  0  0  0  0  0  0  0  0  0  0  0
   -8.3908    7.3326   -3.0995 C   0  0  0  0  0  0  0  0  0  0  0  0
   -7.2865    7.6944   -4.3948 S   0  0  0  0  0  0  0  0  0  0  0  0
   -8.4540    8.7817   -5.1498 C   0  0  0  0  0  0  0  0  0  0  0  0
   -9.5973    8.8474   -4.4249 N   0  0  0  0  0  0  0  0  0  0  0  0
   -9.6500    8.0793   -3.2786 C   0  0  0  0  0  0  0  0  0  0  0  0
   -8.1591    9.5997   -6.5303 S   0  0  0  0  0  0  0  0  0  0  0  0
  -10.7349    9.6499   -4.8320 C   0  0  0  0  0  0  0  0  0  0  0  0
  -11.5845    8.9182   -5.8632 C   0  0  0  0  0  0  0  0  0  0  0  0
  -10.6060    8.0440   -2.5384 O   0  0  0  0  0  0  0  0  0  0  0  0
    7.3723   -6.8092   -0.7717 F   0  0  0  0  0  0  0  0  0  0  0  0
   -8.5360    4.8942    0.1844 F   0  0  0  0  0  0  0  0  0  0  0  0
    5.9606   -4.6892   -1.1147 F   0  0  0  0  0  0  0  0  0  0  0  0
   -6.7616    3.2228    1.0677 F   0  0  0  0  0  0  0  0  0  0  0  0
   -0.6130   -2.0849    2.1569 H   0  0  0  0  0  0  0  0  0  0  0  0
    0.3167    1.2126   -1.5057 H   0  0  0  0  0  0  0  0  0  0  0  0
    4.5877   -2.9319   -1.1509 H   0  0  0  0  0  0  0  0  0  0  0  0
   -5.1091    1.7785    1.4783 H   0  0  0  0  0  0  0  0  0  0  0  0
    2.4242    1.1493   -2.9541 H   0  0  0  0  0  0  0  0  0  0  0  0
    1.9913    0.9701   -5.3591 H   0  0  0  0  0  0  0  0  0  0  0  0
    1.3645   -3.2261   -4.9367 H   0  0  0  0  0  0  0  0  0  0  0  0
    1.7774   -3.0497   -2.5295 H   0  0  0  0  0  0  0  0  0  0  0  0
    2.3683    1.1996    0.8176 H   0  0  0  0  0  0  0  0  0  0  0  0
    4.1832    2.7557    1.3382 H   0  0  0  0  0  0  0  0  0  0  0  0
    6.5882    0.9863   -1.7059 H   0  0  0  0  0  0  0  0  0  0  0  0
    4.7680   -0.5659   -2.2408 H   0  0  0  0  0  0  0  0  0  0  0  0
   -2.7542   -2.0407    3.5828 H   0  0  0  0  0  0  0  0  0  0  0  0
   -4.0867   -4.0947    3.4931 H   0  0  0  0  0  0  0  0  0  0  0  0
   -5.7495   -2.8575   -0.2330 H   0  0  0  0  0  0  0  0  0  0  0  0
   -4.4071   -0.8117   -0.1574 H   0  0  0  0  0  0  0  0  0  0  0  0
   -4.5753    0.3159    3.5856 H   0  0  0  0  0  0  0  0  0  0  0  0
   -4.4220    1.2542    5.8447 H   0  0  0  0  0  0  0  0  0  0  0  0
   -0.2198    1.7739    5.3429 H   0  0  0  0  0  0  0  0  0  0  0  0
   -0.3688    0.8483    3.0830 H   0  0  0  0  0  0  0  0  0  0  0  0
   -6.7357   -4.7298    1.0047 H   0  0  0  0  0  0  0  0  0  0  0  0
   -6.0670   -5.2284    2.5650 H   0  0  0  0  0  0  0  0  0  0  0  0
   -1.2361    1.9925    7.5599 H   0  0  0  0  0  0  0  0  0  0  0  0
   -2.9728    1.7358    7.7828 H   0  0  0  0  0  0  0  0  0  0  0  0
    7.5822    2.5141   -0.0514 H   0  0  0  0  0  0  0  0  0  0  0  0
    6.5754    3.2665    1.1942 H   0  0  0  0  0  0  0  0  0  0  0  0
    1.6374   -2.2283   -7.1613 H   0  0  0  0  0  0  0  0  0  0  0  0
    1.9222   -0.4910   -7.3381 H   0  0  0  0  0  0  0  0  0  0  0  0
   -0.3629   -1.0938   -8.1066 H   0  0  0  0  0  0  0  0  0  0  0  0
   -0.7297   -1.7717   -6.5164 H   0  0  0  0  0  0  0  0  0  0  0  0
   -0.4459   -0.0402   -6.6903 H   0  0  0  0  0  0  0  0  0  0  0  0
    6.5008    3.9448   -1.7863 H   0  0  0  0  0  0  0  0  0  0  0  0
    5.4970    4.6950   -0.5453 H   0  0  0  0  0  0  0  0  0  0  0  0
    7.2480    4.9310   -0.5251 H   0  0  0  0  0  0  0  0  0  0  0  0
   -4.7394   -5.6834   -0.1513 H   0  0  0  0  0  0  0  0  0  0  0  0
   -5.5678   -6.9146    0.8082 H   0  0  0  0  0  0  0  0  0  0  0  0
   -4.0743   -6.1814    1.4038 H   0  0  0  0  0  0  0  0  0  0  0  0
   -1.7066    4.1639    6.4233 H   0  0  0  0  0  0  0  0  0  0  0  0
   -2.3937    4.1370    8.0512 H   0  0  0  0  0  0  0  0  0  0  0  0
   -3.4371    3.9072    6.6438 H   0  0  0  0  0  0  0  0  0  0  0  0
    6.3219   -9.4905    1.9620 H   0  0  0  0  0  0  0  0  0  0  0  0
   -9.1523    6.4887   -1.3979 H   0  0  0  0  0  0  0  0  0  0  0  0
   11.3891  -11.9996    0.6566 H   0  0  0  0  0  0  0  0  0  0  0  0
    9.9472  -12.5882    1.5421 H   0  0  0  0  0  0  0  0  0  0  0  0
   11.9680  -12.5840    3.0088 H   0  0  0  0  0  0  0  0  0  0  0  0
   10.7529  -11.4457    3.6015 H   0  0  0  0  0  0  0  0  0  0  0  0
   12.1763  -10.8530    2.7274 H   0  0  0  0  0  0  0  0  0  0  0  0
  -11.3154    9.8447   -3.9274 H   0  0  0  0  0  0  0  0  0  0  0  0
  -10.3563   10.5873   -5.2460 H   0  0  0  0  0  0  0  0  0  0  0  0
  -12.4361    9.5348   -6.1349 H   0  0  0  0  0  0  0  0  0  0  0  0
  -11.0010    8.7152   -6.7580 H   0  0  0  0  0  0  0  0  0  0  0  0
  -11.9485    7.9787   -5.4539 H   0  0  0  0  0  0  0  0  0  0  0  0
  1  2  1  0  0  0  0
  2  3  2  0  0  0  0
  3  4  1  0  0  0  0
  4  5  2  0  0  0  0
  5  6  1  0  0  0  0
  6  1  2  0  0  0  0
  1  7  1  0  0  0  0
  7  8  1  0  0  0  0
  8  9  2  0  0  0  0
  9  2  1  0  0  0  0
  8 10  1  0  0  0  0
 10 11  2  0  0  0  0
 11 12  1  0  0  0  0
 12  9  1  0  0  0  0
  4 13  1  0  0  0  0
 13 14  1  0  0  0  0
 14 15  2  0  0  0  0
 15  5  1  0  0  0  0
 14 16  1  0  0  0  0
 16 17  2  0  0  0  0
 17 18  1  0  0  0  0
 18 15  1  0  0  0  0
 11 19  1  0  0  0  0
 17 20  1  0  0  0  0
 13 21  1  0  0  0  0
 13 22  1  0  0  0  0
  7 23  1  0  0  0  0
  7 24  1  0  0  0  0
 19 25  2  0  0  0  0
 25 26  1  0  0  0  0
 26 27  2  0  0  0  0
 27 28  1  0  0  0  0
 28 29  1  0  0  0  0
 29 19  1  0  0  0  0
 20 30  2  0  0  0  0
 30 31  1  0  0  0  0
 31 32  2  0  0  0  0
 32 33  1  0  0  0  0
 33 34  1  0  0  0  0
 34 20  1  0  0  0  0
 28 35  2  0  0  0  0
 35 36  1  0  0  0  0
 36 37  1  0  0  0  0
 37 29  2  0  0  0  0
 33 38  2  0  0  0  0
 38 39  1  0  0  0  0
 39 40  1  0  0  0  0
 40 34  2  0  0  0  0
 23 41  2  0  0  0  0
 41 42  1  0  0  0  0
 42 43  2  0  0  0  0
 43 44  1  0  0  0  0
 44 45  2  0  0  0  0
 45 23  1  0  0  0  0
 24 46  2  0  0  0  0
 46 47  1  0  0  0  0
 47 48  2  0  0  0  0
 48 49  1  0  0  0  0
 49 50  2  0  0  0  0
 50 24  1  0  0  0  0
 21 51  2  0  0  0  0
 51 52  1  0  0  0  0
 52 53  2  0  0  0  0
 53 54  1  0  0  0  0
 54 55  2  0  0  0  0
 55 21  1  0  0  0  0
 22 56  2  0  0  0  0
 56 57  1  0  0  0  0
 57 58  2  0  0  0  0
 58 59  1  0  0  0  0
 59 60  2  0  0  0  0
 60 22  1  0  0  0  0
 53 61  1  0  0  0  0
 58 62  1  0  0  0  0
 48 63  1  0  0  0  0
 43 64  1  0  0  0  0
 64 65  1  0  0  0  0
 63 66  1  0  0  0  0
 61 67  1  0  0  0  0
 62 68  1  0  0  0  0
 27 69  1  0  0  0  0
 32 70  1  0  0  0  0
 69 71  2  0  0  0  0
 71 72  1  0  0  0  0
 72 73  1  0  0  0  0
 73 74  1  0  0  0  0
 74 75  1  0  0  0  0
 75 71  1  0  0  0  0
 73 76  2  0  0  0  0
 74 77  1  0  0  0  0
 77 78  1  0  0  0  0
 75 79  2  0  0  0  0
 70 80  2  0  0  0  0
 80 81  1  0  0  0  0
 81 82  1  0  0  0  0
 82 83  1  0  0  0  0
 83 84  1  0  0  0  0
 84 80  1  0  0  0  0
 82 85  2  0  0  0  0
 83 86  1  0  0  0  0
 86 87  1  0  0  0  0
 84 88  2  0  0  0  0
 26 89  1  0  0  0  0
 31 90  1  0  0  0  0
 25 91  1  0  0  0  0
 30 92  1  0  0  0  0
  3 93  1  0  0  0  0
  6 94  1  0  0  0  0
 10 95  1  0  0  0  0
 16 96  1  0  0  0  0
 41 97  1  0  0  0  0
 42 98  1  0  0  0  0
 44 99  1  0  0  0  0
 45100  1  0  0  0  0
 46101  1  0  0  0  0
 47102  1  0  0  0  0
 49103  1  0  0  0  0
 50104  1  0  0  0  0
 51105  1  0  0  0  0
 52106  1  0  0  0  0
 54107  1  0  0  0  0
 55108  1  0  0  0  0
 56109  1  0  0  0  0
 57110  1  0  0  0  0
 59111  1  0  0  0  0
 60112  1  0  0  0  0
 61113  1  0  0  0  0
 61114  1  0  0  0  0
 62115  1  0  0  0  0
 62116  1  0  0  0  0
 63117  1  0  0  0  0
 63118  1  0  0  0  0
 64119  1  0  0  0  0
 64120  1  0  0  0  0
 65121  1  0  0  0  0
 65122  1  0  0  0  0
 65123  1  0  0  0  0
 66124  1  0  0  0  0
 66125  1  0  0  0  0
 66126  1  0  0  0  0
 67127  1  0  0  0  0
 67128  1  0  0  0  0
 67129  1  0  0  0  0
 68130  1  0  0  0  0
 68131  1  0  0  0  0
 68132  1  0  0  0  0
 69133  1  0  0  0  0
 70134  1  0  0  0  0
 77135  1  0  0  0  0
 77136  1  0  0  0  0
 78137  1  0  0  0  0
 78138  1  0  0  0  0
 78139  1  0  0  0  0
 86140  1  0  0  0  0
 86141  1  0  0  0  0
 87142  1  0  0  0  0
 87143  1  0  0  0  0
 87144  1  0  0  0  0
M  END
