IHIC2.sdf
  xtb     12202114133D
 energy: -177.066910553792 gnorm: 0.000534565579 xtb: 6.4.1 (unknown)
 98107  0     0  0            999 V2000
    1.9626    5.9878    4.3373 C   0  0  0  0  0  0  0  0  0  0  0  0
    3.3158    6.2324    4.2964 C   0  0  0  0  0  0  0  0  0  0  0  0
    4.3087    5.4365    3.5729 C   0  0  0  0  0  0  0  0  0  0  0  0
    5.6249    6.0063    3.9324 C   0  0  0  0  0  0  0  0  0  0  0  0
    5.4384    7.1023    4.7912 C   0  0  0  0  0  0  0  0  0  0  0  0
    4.0027    7.2868    5.0134 C   0  0  0  0  0  0  0  0  0  0  0  0
    4.1163    4.4919    2.8289 O   0  0  0  0  0  0  0  0  0  0  0  0
    3.4448    8.3049    5.7425 C   0  0  0  0  0  0  0  0  0  0  0  0
    4.1900    9.3083    6.3982 C   0  0  0  0  0  0  0  0  0  0  0  0
    2.0638    8.5212    5.9339 C   0  0  0  0  0  0  0  0  0  0  0  0
    4.7346   10.1519    6.9540 N   0  0  0  0  0  0  0  0  0  0  0  0
    0.9598    8.7718    6.1289 N   0  0  0  0  0  0  0  0  0  0  0  0
    6.8787    5.5849    3.5380 C   0  0  0  0  0  0  0  0  0  0  0  0
    7.9728    6.2832    4.0234 C   0  0  0  0  0  0  0  0  0  0  0  0
    7.7987    7.3713    4.8784 C   0  0  0  0  0  0  0  0  0  0  0  0
    6.5377    7.7955    5.2721 C   0  0  0  0  0  0  0  0  0  0  0  0
   -2.0501   -3.6681   -2.5700 C   0  0  0  0  0  0  0  0  0  0  0  0
   -2.9993   -4.6087   -2.9922 C   0  0  0  0  0  0  0  0  0  0  0  0
   -2.9689   -5.5100   -4.0289 C   0  0  0  0  0  0  0  0  0  0  0  0
   -2.0261   -5.5538   -5.1636 C   0  0  0  0  0  0  0  0  0  0  0  0
   -2.6296   -6.4903   -6.1400 C   0  0  0  0  0  0  0  0  0  0  0  0
   -3.8096   -7.0354   -5.6100 C   0  0  0  0  0  0  0  0  0  0  0  0
   -4.0126   -6.4882   -4.2698 C   0  0  0  0  0  0  0  0  0  0  0  0
   -0.9879   -4.9460   -5.3234 O   0  0  0  0  0  0  0  0  0  0  0  0
   -4.9683   -6.9085   -3.3821 C   0  0  0  0  0  0  0  0  0  0  0  0
   -5.9365   -7.8927   -3.6741 C   0  0  0  0  0  0  0  0  0  0  0  0
   -5.0963   -6.4679   -2.0472 C   0  0  0  0  0  0  0  0  0  0  0  0
   -6.7521   -8.6798   -3.8534 N   0  0  0  0  0  0  0  0  0  0  0  0
   -5.2548   -6.1810   -0.9465 N   0  0  0  0  0  0  0  0  0  0  0  0
   -2.1696   -6.8194   -7.3996 C   0  0  0  0  0  0  0  0  0  0  0  0
   -2.9193   -7.7166   -8.1429 C   0  0  0  0  0  0  0  0  0  0  0  0
   -4.0948   -8.2613   -7.6254 C   0  0  0  0  0  0  0  0  0  0  0  0
   -4.5544   -7.9330   -6.3586 C   0  0  0  0  0  0  0  0  0  0  0  0
   -0.7016   -3.4919   -2.8760 C   0  0  0  0  0  0  0  0  0  0  0  0
   -0.1361   -2.4360   -2.1864 C   0  0  0  0  0  0  0  0  0  0  0  0
   -1.0304   -1.7981   -1.3240 C   0  0  0  0  0  0  0  0  0  0  0  0
   -2.5868   -2.4959   -1.3636 S   0  0  0  0  0  0  0  0  0  0  0  0
    1.2298   -1.8113   -2.0694 C   0  0  0  0  0  0  0  0  0  0  0  0
    0.9559   -0.7195   -1.0490 C   0  0  0  0  0  0  0  0  0  0  0  0
   -0.3795   -0.7350   -0.6295 C   0  0  0  0  0  0  0  0  0  0  0  0
    2.1944   -2.8966   -1.5428 C   0  0  0  0  0  0  0  0  0  0  0  0
    1.6864   -1.1551   -3.3882 C   0  0  0  0  0  0  0  0  0  0  0  0
    3.6319   -2.4546   -1.3045 C   0  0  0  0  0  0  0  0  0  0  0  0
    1.9192   -2.1197   -4.5437 C   0  0  0  0  0  0  0  0  0  0  0  0
    1.8221    0.2601   -0.5704 C   0  0  0  0  0  0  0  0  0  0  0  0
    1.3667    1.1842    0.3408 C   0  0  0  0  0  0  0  0  0  0  0  0
    0.0322    1.1816    0.7863 C   0  0  0  0  0  0  0  0  0  0  0  0
   -0.8843    0.2091    0.2946 C   0  0  0  0  0  0  0  0  0  0  0  0
   -0.4760    2.1363    1.6978 C   0  0  0  0  0  0  0  0  0  0  0  0
   -1.8221    2.1387    2.0757 C   0  0  0  0  0  0  0  0  0  0  0  0
   -2.6980    1.1772    1.5830 C   0  0  0  0  0  0  0  0  0  0  0  0
   -2.2283    0.2227    0.7122 C   0  0  0  0  0  0  0  0  0  0  0  0
    0.1662    3.2105    2.3879 C   0  0  0  0  0  0  0  0  0  0  0  0
   -0.7679    3.8949    3.1766 C   0  0  0  0  0  0  0  0  0  0  0  0
   -2.1360    3.2964    3.0042 C   0  0  0  0  0  0  0  0  0  0  0  0
   -3.0887    4.2529    2.2498 C   0  0  0  0  0  0  0  0  0  0  0  0
   -2.7370    2.8309    4.3392 C   0  0  0  0  0  0  0  0  0  0  0  0
   -1.8729    1.7862    5.0361 C   0  0  0  0  0  0  0  0  0  0  0  0
   -3.3500    5.5822    2.9450 C   0  0  0  0  0  0  0  0  0  0  0  0
    1.7564    3.8122    2.5454 S   0  0  0  0  0  0  0  0  0  0  0  0
    1.1915    5.0162    3.6948 C   0  0  0  0  0  0  0  0  0  0  0  0
   -0.1924    4.9044    3.9121 C   0  0  0  0  0  0  0  0  0  0  0  0
   -4.8023   -9.1196   -8.3685 F   0  0  0  0  0  0  0  0  0  0  0  0
   -2.5133   -8.0622   -9.3709 F   0  0  0  0  0  0  0  0  0  0  0  0
    9.2083    5.9085    3.6695 F   0  0  0  0  0  0  0  0  0  0  0  0
    8.8727    8.0249    5.3353 F   0  0  0  0  0  0  0  0  0  0  0  0
    1.3761    6.6343    4.9791 H   0  0  0  0  0  0  0  0  0  0  0  0
    7.0085    4.7423    2.8778 H   0  0  0  0  0  0  0  0  0  0  0  0
    6.4591    8.6404    5.9361 H   0  0  0  0  0  0  0  0  0  0  0  0
   -3.9129   -4.5898   -2.4087 H   0  0  0  0  0  0  0  0  0  0  0  0
   -1.2613   -6.3949   -7.7964 H   0  0  0  0  0  0  0  0  0  0  0  0
   -5.4704   -8.3777   -6.0061 H   0  0  0  0  0  0  0  0  0  0  0  0
   -0.1920   -4.1325   -3.5696 H   0  0  0  0  0  0  0  0  0  0  0  0
    2.1856   -3.7197   -2.2589 H   0  0  0  0  0  0  0  0  0  0  0  0
    1.7823   -3.2768   -0.6040 H   0  0  0  0  0  0  0  0  0  0  0  0
    2.6024   -0.5954   -3.1938 H   0  0  0  0  0  0  0  0  0  0  0  0
    0.9193   -0.4317   -3.6778 H   0  0  0  0  0  0  0  0  0  0  0  0
    4.0730   -2.0325   -2.2031 H   0  0  0  0  0  0  0  0  0  0  0  0
    4.2257   -3.3183   -1.0129 H   0  0  0  0  0  0  0  0  0  0  0  0
    3.6900   -1.7239   -0.5029 H   0  0  0  0  0  0  0  0  0  0  0  0
    1.0091   -2.6524   -4.8028 H   0  0  0  0  0  0  0  0  0  0  0  0
    2.2401   -1.5582   -5.4184 H   0  0  0  0  0  0  0  0  0  0  0  0
    2.6941   -2.8434   -4.3068 H   0  0  0  0  0  0  0  0  0  0  0  0
    2.8424    0.3098   -0.9157 H   0  0  0  0  0  0  0  0  0  0  0  0
    2.0366    1.9419    0.7187 H   0  0  0  0  0  0  0  0  0  0  0  0
   -3.7343    1.1743    1.8847 H   0  0  0  0  0  0  0  0  0  0  0  0
   -2.8981   -0.5331    0.3306 H   0  0  0  0  0  0  0  0  0  0  0  0
   -2.6580    4.4484    1.2643 H   0  0  0  0  0  0  0  0  0  0  0  0
   -4.0364    3.7322    2.0987 H   0  0  0  0  0  0  0  0  0  0  0  0
   -3.7295    2.4167    4.1527 H   0  0  0  0  0  0  0  0  0  0  0  0
   -2.8487    3.6949    4.9949 H   0  0  0  0  0  0  0  0  0  0  0  0
   -0.8820    2.1832    5.2456 H   0  0  0  0  0  0  0  0  0  0  0  0
   -2.3300    1.4932    5.9780 H   0  0  0  0  0  0  0  0  0  0  0  0
   -1.7623    0.8988    4.4168 H   0  0  0  0  0  0  0  0  0  0  0  0
   -4.0398    6.1716    2.3454 H   0  0  0  0  0  0  0  0  0  0  0  0
   -2.4304    6.1499    3.0558 H   0  0  0  0  0  0  0  0  0  0  0  0
   -3.7957    5.4376    3.9251 H   0  0  0  0  0  0  0  0  0  0  0  0
   -0.7044    5.5507    4.6027 H   0  0  0  0  0  0  0  0  0  0  0  0
  1  2  2  0  0  0  0
  2  3  1  0  0  0  0
  3  4  1  0  0  0  0
  4  5  2  0  0  0  0
  5  6  1  0  0  0  0
  6  2  1  0  0  0  0
  3  7  2  0  0  0  0
  6  8  2  0  0  0  0
  8  9  1  0  0  0  0
  8 10  1  0  0  0  0
  9 11  3  0  0  0  0
 10 12  3  0  0  0  0
  4 13  1  0  0  0  0
 13 14  2  0  0  0  0
 14 15  1  0  0  0  0
 15 16  2  0  0  0  0
 16  5  1  0  0  0  0
 17 18  1  0  0  0  0
 18 19  2  0  0  0  0
 19 20  1  0  0  0  0
 20 21  1  0  0  0  0
 21 22  2  0  0  0  0
 22 23  1  0  0  0  0
 23 19  1  0  0  0  0
 20 24  2  0  0  0  0
 23 25  2  0  0  0  0
 25 26  1  0  0  0  0
 25 27  1  0  0  0  0
 26 28  3  0  0  0  0
 27 29  3  0  0  0  0
 21 30  1  0  0  0  0
 30 31  2  0  0  0  0
 32 33  2  0  0  0  0
 33 22  1  0  0  0  0
 32 31  1  0  0  0  0
 17 34  2  0  0  0  0
 34 35  1  0  0  0  0
 35 36  2  0  0  0  0
 36 37  1  0  0  0  0
 37 17  1  0  0  0  0
 35 38  1  0  0  0  0
 38 39  1  0  0  0  0
 39 40  2  0  0  0  0
 40 36  1  0  0  0  0
 38 41  1  0  0  0  0
 38 42  1  0  0  0  0
 41 43  1  0  0  0  0
 42 44  1  0  0  0  0
 39 45  1  0  0  0  0
 45 46  2  0  0  0  0
 46 47  1  0  0  0  0
 47 48  2  0  0  0  0
 48 40  1  0  0  0  0
 47 49  1  0  0  0  0
 49 50  2  0  0  0  0
 50 51  1  0  0  0  0
 51 52  2  0  0  0  0
 52 48  1  0  0  0  0
 49 53  1  0  0  0  0
 53 54  2  0  0  0  0
 54 55  1  0  0  0  0
 55 50  1  0  0  0  0
 55 56  1  0  0  0  0
 55 57  1  0  0  0  0
 57 58  1  0  0  0  0
 56 59  1  0  0  0  0
 53 60  1  0  0  0  0
 60 61  1  0  0  0  0
 61 62  2  0  0  0  0
 62 54  1  0  0  0  0
  1 61  1  0  0  0  0
 32 63  1  0  0  0  0
 31 64  1  0  0  0  0
 14 65  1  0  0  0  0
 15 66  1  0  0  0  0
  1 67  1  0  0  0  0
 13 68  1  0  0  0  0
 16 69  1  0  0  0  0
 18 70  1  0  0  0  0
 30 71  1  0  0  0  0
 33 72  1  0  0  0  0
 34 73  1  0  0  0  0
 41 74  1  0  0  0  0
 41 75  1  0  0  0  0
 42 76  1  0  0  0  0
 42 77  1  0  0  0  0
 43 78  1  0  0  0  0
 43 79  1  0  0  0  0
 43 80  1  0  0  0  0
 44 81  1  0  0  0  0
 44 82  1  0  0  0  0
 44 83  1  0  0  0  0
 45 84  1  0  0  0  0
 46 85  1  0  0  0  0
 51 86  1  0  0  0  0
 52 87  1  0  0  0  0
 56 88  1  0  0  0  0
 56 89  1  0  0  0  0
 57 90  1  0  0  0  0
 57 91  1  0  0  0  0
 58 92  1  0  0  0  0
 58 93  1  0  0  0  0
 58 94  1  0  0  0  0
 59 95  1  0  0  0  0
 59 96  1  0  0  0  0
 59 97  1  0  0  0  0
 62 98  1  0  0  0  0
M  END
