IHIC-N.sdf
  xtb     12202114133D
 energy: -160.175092123477 gnorm: 0.000500187703 xtb: 6.4.1 (unknown)
 98107  0     0  0            999 V2000
    4.7159    4.9213    4.3023 C   0  0  0  0  0  0  0  0  0  0  0  0
    4.0938    5.9824    4.9104 C   0  0  0  0  0  0  0  0  0  0  0  0
    2.6480    6.2369    4.9311 C   0  0  0  0  0  0  0  0  0  0  0  0
    2.4673    7.5067    5.6582 C   0  0  0  0  0  0  0  0  0  0  0  0
    3.7216    7.9914    6.0680 C   0  0  0  0  0  0  0  0  0  0  0  0
    4.7569    7.0572    5.6233 C   0  0  0  0  0  0  0  0  0  0  0  0
    1.2974    8.1848    5.9368 C   0  0  0  0  0  0  0  0  0  0  0  0
    1.3838    9.3773    6.6418 C   0  0  0  0  0  0  0  0  0  0  0  0
    2.6170    9.8641    7.0496 C   0  0  0  0  0  0  0  0  0  0  0  0
    3.7957    9.1834    6.7711 C   0  0  0  0  0  0  0  0  0  0  0  0
    1.7647    5.5498    4.4494 O   0  0  0  0  0  0  0  0  0  0  0  0
    6.0996    7.1987    5.8613 C   0  0  0  0  0  0  0  0  0  0  0  0
    6.6702    8.2745    6.5742 C   0  0  0  0  0  0  0  0  0  0  0  0
    7.1132    6.3095    5.4470 C   0  0  0  0  0  0  0  0  0  0  0  0
    7.9995    5.6414    5.1499 N   0  0  0  0  0  0  0  0  0  0  0  0
    7.2044    9.1163    7.1437 N   0  0  0  0  0  0  0  0  0  0  0  0
   -2.4790   -5.7494   -4.2639 C   0  0  0  0  0  0  0  0  0  0  0  0
   -3.6369   -6.1526   -4.8775 C   0  0  0  0  0  0  0  0  0  0  0  0
   -4.9961   -5.5768   -4.7650 C   0  0  0  0  0  0  0  0  0  0  0  0
   -5.8153   -6.2861   -5.7667 C   0  0  0  0  0  0  0  0  0  0  0  0
   -5.0375   -7.2568   -6.4178 C   0  0  0  0  0  0  0  0  0  0  0  0
   -3.6881   -7.2280   -5.8561 C   0  0  0  0  0  0  0  0  0  0  0  0
   -7.1448   -6.0850   -6.0822 C   0  0  0  0  0  0  0  0  0  0  0  0
   -7.7082   -6.8715   -7.0765 C   0  0  0  0  0  0  0  0  0  0  0  0
   -6.9460   -7.8295   -7.7294 C   0  0  0  0  0  0  0  0  0  0  0  0
   -5.6098   -8.0357   -7.4119 C   0  0  0  0  0  0  0  0  0  0  0  0
   -5.3985   -4.7018   -4.0242 O   0  0  0  0  0  0  0  0  0  0  0  0
   -2.6884   -8.1057   -6.1862 C   0  0  0  0  0  0  0  0  0  0  0  0
   -1.3938   -8.1595   -5.6264 C   0  0  0  0  0  0  0  0  0  0  0  0
   -2.8217   -9.1332   -7.1451 C   0  0  0  0  0  0  0  0  0  0  0  0
   -0.3250   -8.2964   -5.2273 N   0  0  0  0  0  0  0  0  0  0  0  0
   -2.8495   -9.9889   -7.9100 N   0  0  0  0  0  0  0  0  0  0  0  0
    4.1895    3.8401    3.5832 C   0  0  0  0  0  0  0  0  0  0  0  0
    5.0166    2.8659    3.0031 C   0  0  0  0  0  0  0  0  0  0  0  0
    4.3043    1.8977    2.3306 C   0  0  0  0  0  0  0  0  0  0  0  0
    2.9263    2.1126    2.3945 C   0  0  0  0  0  0  0  0  0  0  0  0
    2.4911    3.5105    3.2726 S   0  0  0  0  0  0  0  0  0  0  0  0
    4.6184    0.6645    1.5282 C   0  0  0  0  0  0  0  0  0  0  0  0
    3.2253    0.2151    1.1306 C   0  0  0  0  0  0  0  0  0  0  0  0
    2.2346    1.0915    1.6700 C   0  0  0  0  0  0  0  0  0  0  0  0
    5.3293   -0.4008    2.3839 C   0  0  0  0  0  0  0  0  0  0  0  0
    5.4790    0.9982    0.2957 C   0  0  0  0  0  0  0  0  0  0  0  0
    4.8421    2.0479   -0.6070 C   0  0  0  0  0  0  0  0  0  0  0  0
    4.5419   -0.7837    3.6310 C   0  0  0  0  0  0  0  0  0  0  0  0
    2.8536   -0.8453    0.3661 C   0  0  0  0  0  0  0  0  0  0  0  0
    1.4807   -1.0824    0.1043 C   0  0  0  0  0  0  0  0  0  0  0  0
    0.4930   -0.2150    0.6625 C   0  0  0  0  0  0  0  0  0  0  0  0
    0.8967    0.8788    1.4483 C   0  0  0  0  0  0  0  0  0  0  0  0
    1.0762   -2.1450   -0.7219 C   0  0  0  0  0  0  0  0  0  0  0  0
   -0.2612   -2.3402   -0.9616 C   0  0  0  0  0  0  0  0  0  0  0  0
   -1.2592   -1.5058   -0.3679 C   0  0  0  0  0  0  0  0  0  0  0  0
   -0.8809   -0.4559    0.4093 C   0  0  0  0  0  0  0  0  0  0  0  0
   -0.9473   -3.2653   -1.8082 C   0  0  0  0  0  0  0  0  0  0  0  0
   -2.3210   -3.0427   -1.7652 C   0  0  0  0  0  0  0  0  0  0  0  0
   -2.6503   -1.9513   -0.7800 C   0  0  0  0  0  0  0  0  0  0  0  0
   -3.4626   -0.8196   -1.4259 C   0  0  0  0  0  0  0  0  0  0  0  0
   -3.4163   -2.6119    0.3909 C   0  0  0  0  0  0  0  0  0  0  0  0
   -2.7828   -0.2500   -2.6658 C   0  0  0  0  0  0  0  0  0  0  0  0
   -3.7041   -1.7107    1.5838 C   0  0  0  0  0  0  0  0  0  0  0  0
   -0.5184   -4.5152   -2.8864 S   0  0  0  0  0  0  0  0  0  0  0  0
   -2.2198   -4.7498   -3.3106 C   0  0  0  0  0  0  0  0  0  0  0  0
   -3.0407   -3.8774   -2.6014 C   0  0  0  0  0  0  0  0  0  0  0  0
    5.7973    4.8949    4.3643 H   0  0  0  0  0  0  0  0  0  0  0  0
    0.3497    7.7865    5.6083 H   0  0  0  0  0  0  0  0  0  0  0  0
    0.4866    9.9307    6.8748 H   0  0  0  0  0  0  0  0  0  0  0  0
    2.6670   10.7937    7.5965 H   0  0  0  0  0  0  0  0  0  0  0  0
    4.7380    9.5887    7.1007 H   0  0  0  0  0  0  0  0  0  0  0  0
   -1.5810   -6.2725   -4.5716 H   0  0  0  0  0  0  0  0  0  0  0  0
   -7.7157   -5.3316   -5.5613 H   0  0  0  0  0  0  0  0  0  0  0  0
   -8.7450   -6.7377   -7.3464 H   0  0  0  0  0  0  0  0  0  0  0  0
   -7.3983   -8.4312   -8.5035 H   0  0  0  0  0  0  0  0  0  0  0  0
   -5.0447   -8.7861   -7.9395 H   0  0  0  0  0  0  0  0  0  0  0  0
    6.0880    2.9073    3.0917 H   0  0  0  0  0  0  0  0  0  0  0  0
    5.4892   -1.2890    1.7695 H   0  0  0  0  0  0  0  0  0  0  0  0
    6.3076   -0.0142    2.6764 H   0  0  0  0  0  0  0  0  0  0  0  0
    6.4517    1.3563    0.6389 H   0  0  0  0  0  0  0  0  0  0  0  0
    5.6412    0.0811   -0.2738 H   0  0  0  0  0  0  0  0  0  0  0  0
    3.8766    1.7061   -0.9737 H   0  0  0  0  0  0  0  0  0  0  0  0
    5.4851    2.2437   -1.4617 H   0  0  0  0  0  0  0  0  0  0  0  0
    4.6942    2.9816   -0.0692 H   0  0  0  0  0  0  0  0  0  0  0  0
    4.3966    0.0796    4.2765 H   0  0  0  0  0  0  0  0  0  0  0  0
    3.5650   -1.1806    3.3631 H   0  0  0  0  0  0  0  0  0  0  0  0
    5.0799   -1.5437    4.1923 H   0  0  0  0  0  0  0  0  0  0  0  0
    3.5839   -1.5184   -0.0591 H   0  0  0  0  0  0  0  0  0  0  0  0
    0.1564    1.5445    1.8668 H   0  0  0  0  0  0  0  0  0  0  0  0
    1.8172   -2.7875   -1.1747 H   0  0  0  0  0  0  0  0  0  0  0  0
   -1.6038    0.2246    0.8333 H   0  0  0  0  0  0  0  0  0  0  0  0
   -3.6017   -0.0201   -0.6977 H   0  0  0  0  0  0  0  0  0  0  0  0
   -4.4456   -1.2089   -1.6973 H   0  0  0  0  0  0  0  0  0  0  0  0
   -2.8313   -3.4696    0.7340 H   0  0  0  0  0  0  0  0  0  0  0  0
   -4.3585   -2.9931   -0.0087 H   0  0  0  0  0  0  0  0  0  0  0  0
   -1.7940    0.1328   -2.4211 H   0  0  0  0  0  0  0  0  0  0  0  0
   -2.6762   -1.0136   -3.4330 H   0  0  0  0  0  0  0  0  0  0  0  0
   -3.3754    0.5643   -3.0756 H   0  0  0  0  0  0  0  0  0  0  0  0
   -2.7813   -1.3811    2.0532 H   0  0  0  0  0  0  0  0  0  0  0  0
   -4.2781   -2.2667    2.3218 H   0  0  0  0  0  0  0  0  0  0  0  0
   -4.2855   -0.8402    1.2929 H   0  0  0  0  0  0  0  0  0  0  0  0
   -4.1075   -3.8705   -2.7250 H   0  0  0  0  0  0  0  0  0  0  0  0
  1  2  2  0  0  0  0
  2  3  1  0  0  0  0
  3  4  1  0  0  0  0
  4  5  2  0  0  0  0
  5  6  1  0  0  0  0
  6  2  1  0  0  0  0
  4  7  1  0  0  0  0
  7  8  2  0  0  0  0
  8  9  1  0  0  0  0
  9 10  2  0  0  0  0
 10  5  1  0  0  0  0
  3 11  2  0  0  0  0
  6 12  2  0  0  0  0
 12 13  1  0  0  0  0
 12 14  1  0  0  0  0
 14 15  3  0  0  0  0
 13 16  3  0  0  0  0
 17 18  2  0  0  0  0
 18 19  1  0  0  0  0
 19 20  1  0  0  0  0
 20 21  2  0  0  0  0
 21 22  1  0  0  0  0
 22 18  1  0  0  0  0
 20 23  1  0  0  0  0
 23 24  2  0  0  0  0
 24 25  1  0  0  0  0
 25 26  2  0  0  0  0
 26 21  1  0  0  0  0
 19 27  2  0  0  0  0
 22 28  2  0  0  0  0
 28 29  1  0  0  0  0
 28 30  1  0  0  0  0
 29 31  3  0  0  0  0
 30 32  3  0  0  0  0
  1 33  1  0  0  0  0
 33 34  2  0  0  0  0
 34 35  1  0  0  0  0
 35 36  2  0  0  0  0
 36 37  1  0  0  0  0
 37 33  1  0  0  0  0
 35 38  1  0  0  0  0
 38 39  1  0  0  0  0
 39 40  2  0  0  0  0
 40 36  1  0  0  0  0
 38 41  1  0  0  0  0
 38 42  1  0  0  0  0
 42 43  1  0  0  0  0
 41 44  1  0  0  0  0
 39 45  1  0  0  0  0
 45 46  2  0  0  0  0
 46 47  1  0  0  0  0
 47 48  2  0  0  0  0
 48 40  1  0  0  0  0
 46 49  1  0  0  0  0
 49 50  2  0  0  0  0
 50 51  1  0  0  0  0
 51 52  2  0  0  0  0
 52 47  1  0  0  0  0
 50 53  1  0  0  0  0
 53 54  2  0  0  0  0
 54 55  1  0  0  0  0
 55 51  1  0  0  0  0
 55 56  1  0  0  0  0
 55 57  1  0  0  0  0
 56 58  1  0  0  0  0
 57 59  1  0  0  0  0
 53 60  1  0  0  0  0
 60 61  1  0  0  0  0
 61 62  2  0  0  0  0
 62 54  1  0  0  0  0
 61 17  1  0  0  0  0
  1 63  1  0  0  0  0
  7 64  1  0  0  0  0
  8 65  1  0  0  0  0
  9 66  1  0  0  0  0
 10 67  1  0  0  0  0
 17 68  1  0  0  0  0
 23 69  1  0  0  0  0
 24 70  1  0  0  0  0
 25 71  1  0  0  0  0
 26 72  1  0  0  0  0
 34 73  1  0  0  0  0
 41 74  1  0  0  0  0
 41 75  1  0  0  0  0
 42 76  1  0  0  0  0
 42 77  1  0  0  0  0
 43 78  1  0  0  0  0
 43 79  1  0  0  0  0
 43 80  1  0  0  0  0
 44 81  1  0  0  0  0
 44 82  1  0  0  0  0
 44 83  1  0  0  0  0
 45 84  1  0  0  0  0
 48 85  1  0  0  0  0
 49 86  1  0  0  0  0
 52 87  1  0  0  0  0
 56 88  1  0  0  0  0
 56 89  1  0  0  0  0
 57 90  1  0  0  0  0
 57 91  1  0  0  0  0
 58 92  1  0  0  0  0
 58 93  1  0  0  0  0
 58 94  1  0  0  0  0
 59 95  1  0  0  0  0
 59 96  1  0  0  0  0
 59 97  1  0  0  0  0
 62 98  1  0  0  0  0
M  END
