INIC1.sdf
  xtb     12202114153D
 energy: -248.724997240813 gnorm: 0.000272563380 xtb: 6.4.1 (unknown)
144160  0     0  0            999 V2000
    9.4340   -3.8807   -1.4784 C   0  0  0  0  0  0  0  0  0  0  0  0
    9.7855   -4.4411   -2.6817 C   0  0  0  0  0  0  0  0  0  0  0  0
   11.1276   -4.7833   -3.1003 C   0  0  0  0  0  0  0  0  0  0  0  0
   11.0396   -5.3193   -4.4613 C   0  0  0  0  0  0  0  0  0  0  0  0
    9.6897   -5.3131   -4.8600 C   0  0  0  0  0  0  0  0  0  0  0  0
    8.8554   -4.7738   -3.7674 C   0  0  0  0  0  0  0  0  0  0  0  0
    7.6473   -4.6381   -3.7703 O   0  0  0  0  0  0  0  0  0  0  0  0
   12.2890   -4.6405   -2.3852 C   0  0  0  0  0  0  0  0  0  0  0  0
   12.3955   -4.1249   -1.0763 C   0  0  0  0  0  0  0  0  0  0  0  0
   12.5771   -3.7190   -0.0169 N   0  0  0  0  0  0  0  0  0  0  0  0
   13.5687   -4.9935   -2.8633 C   0  0  0  0  0  0  0  0  0  0  0  0
   14.6398   -5.2558   -3.1830 N   0  0  0  0  0  0  0  0  0  0  0  0
   12.0196   -5.7821   -5.3234 C   0  0  0  0  0  0  0  0  0  0  0  0
   11.6431   -6.2359   -6.5821 C   0  0  0  0  0  0  0  0  0  0  0  0
   10.3196   -6.2339   -6.9856 C   0  0  0  0  0  0  0  0  0  0  0  0
    9.3389   -5.7697   -6.1173 C   0  0  0  0  0  0  0  0  0  0  0  0
   -8.1528    6.1338    1.9094 C   0  0  0  0  0  0  0  0  0  0  0  0
   -9.2157    6.7127    1.2646 C   0  0  0  0  0  0  0  0  0  0  0  0
   -9.9528    7.8443    1.7972 C   0  0  0  0  0  0  0  0  0  0  0  0
  -10.8430    8.3346    0.7442 C   0  0  0  0  0  0  0  0  0  0  0  0
  -10.7300    7.4805   -0.3665 C   0  0  0  0  0  0  0  0  0  0  0  0
   -9.7491    6.4098   -0.0836 C   0  0  0  0  0  0  0  0  0  0  0  0
  -11.6960    9.4257    0.7032 C   0  0  0  0  0  0  0  0  0  0  0  0
  -12.4357    9.6522   -0.4509 C   0  0  0  0  0  0  0  0  0  0  0  0
  -12.3382    8.8149   -1.5485 C   0  0  0  0  0  0  0  0  0  0  0  0
  -11.4793    7.7238   -1.5035 C   0  0  0  0  0  0  0  0  0  0  0  0
   -9.4669    5.4917   -0.8218 O   0  0  0  0  0  0  0  0  0  0  0  0
   -9.8909    8.3577    3.0667 C   0  0  0  0  0  0  0  0  0  0  0  0
  -10.6458    9.4626    3.5157 C   0  0  0  0  0  0  0  0  0  0  0  0
   -9.1078    7.8629    4.1323 C   0  0  0  0  0  0  0  0  0  0  0  0
   -8.5249    7.5277    5.0637 N   0  0  0  0  0  0  0  0  0  0  0  0
  -11.2192   10.3560    3.9529 N   0  0  0  0  0  0  0  0  0  0  0  0
    8.1852   -3.4766   -0.9896 C   0  0  0  0  0  0  0  0  0  0  0  0
    6.6337   -3.6074   -1.8155 S   0  0  0  0  0  0  0  0  0  0  0  0
    5.8542   -2.8366   -0.4892 C   0  0  0  0  0  0  0  0  0  0  0  0
    6.7568   -2.5021    0.5406 C   0  0  0  0  0  0  0  0  0  0  0  0
    8.0572   -2.8668    0.2630 C   0  0  0  0  0  0  0  0  0  0  0  0
    4.5558   -2.4200   -0.1910 C   0  0  0  0  0  0  0  0  0  0  0  0
    4.4693   -1.7646    1.0512 C   0  0  0  0  0  0  0  0  0  0  0  0
    5.9955   -1.6811    1.8805 S   0  0  0  0  0  0  0  0  0  0  0  0
    3.0349   -2.4710   -1.0277 S   0  0  0  0  0  0  0  0  0  0  0  0
    2.3133   -1.5893    0.2729 C   0  0  0  0  0  0  0  0  0  0  0  0
    3.1885   -1.2822    1.3027 C   0  0  0  0  0  0  0  0  0  0  0  0
    1.0283   -1.0121    0.5185 C   0  0  0  0  0  0  0  0  0  0  0  0
    1.1146   -0.3222    1.7512 C   0  0  0  0  0  0  0  0  0  0  0  0
    2.4814   -0.5125    2.3861 C   0  0  0  0  0  0  0  0  0  0  0  0
   -0.1347   -1.0076   -0.2471 C   0  0  0  0  0  0  0  0  0  0  0  0
   -1.1899   -0.2596    0.2198 C   0  0  0  0  0  0  0  0  0  0  0  0
   -1.0756    0.4920    1.4137 C   0  0  0  0  0  0  0  0  0  0  0  0
    0.0696    0.4484    2.2041 C   0  0  0  0  0  0  0  0  0  0  0  0
   -2.5476   -0.0468   -0.4273 C   0  0  0  0  0  0  0  0  0  0  0  0
   -3.1194    1.0208    0.4667 C   0  0  0  0  0  0  0  0  0  0  0  0
   -2.2750    1.2603    1.5381 C   0  0  0  0  0  0  0  0  0  0  0  0
   -4.2609    1.8168    0.5195 C   0  0  0  0  0  0  0  0  0  0  0  0
   -4.2570    2.6718    1.6373 C   0  0  0  0  0  0  0  0  0  0  0  0
   -2.8536    2.4621    2.6393 S   0  0  0  0  0  0  0  0  0  0  0  0
   -5.6403    2.0518   -0.5107 S   0  0  0  0  0  0  0  0  0  0  0  0
   -6.2042    3.3236    0.5412 C   0  0  0  0  0  0  0  0  0  0  0  0
   -5.3587    3.5264    1.6499 C   0  0  0  0  0  0  0  0  0  0  0  0
   -7.2887    4.1843    0.4880 C   0  0  0  0  0  0  0  0  0  0  0  0
   -7.3007    5.0750    1.5523 C   0  0  0  0  0  0  0  0  0  0  0  0
   -5.9342    4.7960    2.6482 S   0  0  0  0  0  0  0  0  0  0  0  0
    3.0943    0.8406    2.6848 C   0  0  0  0  0  0  0  0  0  0  0  0
    2.4556   -1.4058    3.6165 C   0  0  0  0  0  0  0  0  0  0  0  0
   -3.4696   -1.2504   -0.2975 C   0  0  0  0  0  0  0  0  0  0  0  0
   -2.3713    0.3711   -1.8719 C   0  0  0  0  0  0  0  0  0  0  0  0
    3.6060   -1.5207    4.3878 C   0  0  0  0  0  0  0  0  0  0  0  0
    3.6357   -2.3638    5.4812 C   0  0  0  0  0  0  0  0  0  0  0  0
    2.5207   -3.1142    5.8334 C   0  0  0  0  0  0  0  0  0  0  0  0
    1.3779   -3.0017    5.0538 C   0  0  0  0  0  0  0  0  0  0  0  0
    1.3432   -2.1617    3.9551 C   0  0  0  0  0  0  0  0  0  0  0  0
    3.8616    1.5035    1.7379 C   0  0  0  0  0  0  0  0  0  0  0  0
    4.3861    2.7534    2.0109 C   0  0  0  0  0  0  0  0  0  0  0  0
    4.1462    3.3782    3.2269 C   0  0  0  0  0  0  0  0  0  0  0  0
    3.3644    2.7167    4.1653 C   0  0  0  0  0  0  0  0  0  0  0  0
    2.8422    1.4656    3.8996 C   0  0  0  0  0  0  0  0  0  0  0  0
   -4.6689   -1.2568   -1.0001 C   0  0  0  0  0  0  0  0  0  0  0  0
   -5.5558   -2.3061   -0.8624 C   0  0  0  0  0  0  0  0  0  0  0  0
   -5.2728   -3.3734   -0.0185 C   0  0  0  0  0  0  0  0  0  0  0  0
   -4.0785   -3.3558    0.6879 C   0  0  0  0  0  0  0  0  0  0  0  0
   -3.1861   -2.3066    0.5552 C   0  0  0  0  0  0  0  0  0  0  0  0
   -2.2610   -0.5950   -2.8643 C   0  0  0  0  0  0  0  0  0  0  0  0
   -2.0717   -0.2270   -4.1822 C   0  0  0  0  0  0  0  0  0  0  0  0
   -1.9874    1.1114   -4.5445 C   0  0  0  0  0  0  0  0  0  0  0  0
   -2.0818    2.0716   -3.5467 C   0  0  0  0  0  0  0  0  0  0  0  0
   -2.2668    1.7085   -2.2253 C   0  0  0  0  0  0  0  0  0  0  0  0
    8.0645   -5.7719   -6.5193 F   0  0  0  0  0  0  0  0  0  0  0  0
  -11.3902    6.9266   -2.5725 F   0  0  0  0  0  0  0  0  0  0  0  0
    2.5683   -4.0635    6.9956 C   0  0  0  0  0  0  0  0  0  0  0  0
    3.0303   -5.4477    6.5351 C   0  0  0  0  0  0  0  0  0  0  0  0
    4.7564    4.7132    3.5416 C   0  0  0  0  0  0  0  0  0  0  0  0
    6.1088    4.5310    4.2337 C   0  0  0  0  0  0  0  0  0  0  0  0
   -6.2612   -4.4889    0.1626 C   0  0  0  0  0  0  0  0  0  0  0  0
   -7.2812   -4.1279    1.2445 C   0  0  0  0  0  0  0  0  0  0  0  0
   -1.7481    1.5041   -5.9735 C   0  0  0  0  0  0  0  0  0  0  0  0
   -0.2483    1.5357   -6.2748 C   0  0  0  0  0  0  0  0  0  0  0  0
   10.2388   -3.6925   -0.7781 H   0  0  0  0  0  0  0  0  0  0  0  0
   13.0586   -5.7961   -5.0404 H   0  0  0  0  0  0  0  0  0  0  0  0
   12.4012   -6.5971   -7.2597 H   0  0  0  0  0  0  0  0  0  0  0  0
   10.0319   -6.5861   -7.9636 H   0  0  0  0  0  0  0  0  0  0  0  0
   -7.8774    6.5854    2.8556 H   0  0  0  0  0  0  0  0  0  0  0  0
  -11.7921   10.0983    1.5386 H   0  0  0  0  0  0  0  0  0  0  0  0
  -13.1008   10.5009   -0.4918 H   0  0  0  0  0  0  0  0  0  0  0  0
  -12.9154    8.9935   -2.4420 H   0  0  0  0  0  0  0  0  0  0  0  0
    8.8955   -2.6991    0.9148 H   0  0  0  0  0  0  0  0  0  0  0  0
   -0.1891   -1.5532   -1.1763 H   0  0  0  0  0  0  0  0  0  0  0  0
    0.1339    1.0148    3.1203 H   0  0  0  0  0  0  0  0  0  0  0  0
   -8.0353    4.1869   -0.2844 H   0  0  0  0  0  0  0  0  0  0  0  0
    4.4804   -0.9395    4.1324 H   0  0  0  0  0  0  0  0  0  0  0  0
    4.5380   -2.4387    6.0707 H   0  0  0  0  0  0  0  0  0  0  0  0
    0.5000   -3.5784    5.3084 H   0  0  0  0  0  0  0  0  0  0  0  0
    0.4421   -2.0946    3.3632 H   0  0  0  0  0  0  0  0  0  0  0  0
    4.0530    1.0436    0.7791 H   0  0  0  0  0  0  0  0  0  0  0  0
    4.9879    3.2518    1.2644 H   0  0  0  0  0  0  0  0  0  0  0  0
    3.1606    3.1876    5.1164 H   0  0  0  0  0  0  0  0  0  0  0  0
    2.2432    0.9644    4.6465 H   0  0  0  0  0  0  0  0  0  0  0  0
   -4.9036   -0.4373   -1.6640 H   0  0  0  0  0  0  0  0  0  0  0  0
   -6.4816   -2.2965   -1.4193 H   0  0  0  0  0  0  0  0  0  0  0  0
   -3.8396   -4.1740    1.3523 H   0  0  0  0  0  0  0  0  0  0  0  0
   -2.2641   -2.3162    1.1178 H   0  0  0  0  0  0  0  0  0  0  0  0
   -2.3392   -1.6412   -2.6050 H   0  0  0  0  0  0  0  0  0  0  0  0
   -1.9946   -0.9910   -4.9425 H   0  0  0  0  0  0  0  0  0  0  0  0
   -2.0136    3.1186   -3.8055 H   0  0  0  0  0  0  0  0  0  0  0  0
   -2.3320    2.4748   -1.4663 H   0  0  0  0  0  0  0  0  0  0  0  0
    3.2591   -3.6875    7.7527 H   0  0  0  0  0  0  0  0  0  0  0  0
    1.5777   -4.1467    7.4471 H   0  0  0  0  0  0  0  0  0  0  0  0
    4.0221   -5.3875    6.0926 H   0  0  0  0  0  0  0  0  0  0  0  0
    2.3467   -5.8458    5.7885 H   0  0  0  0  0  0  0  0  0  0  0  0
    3.0659   -6.1361    7.3761 H   0  0  0  0  0  0  0  0  0  0  0  0
    4.8969    5.2830    2.6210 H   0  0  0  0  0  0  0  0  0  0  0  0
    4.0908    5.2793    4.1963 H   0  0  0  0  0  0  0  0  0  0  0  0
    6.5519    5.4971    4.4635 H   0  0  0  0  0  0  0  0  0  0  0  0
    5.9875    3.9747    5.1605 H   0  0  0  0  0  0  0  0  0  0  0  0
    6.7911    3.9792    3.5910 H   0  0  0  0  0  0  0  0  0  0  0  0
   -5.7396   -5.4038    0.4500 H   0  0  0  0  0  0  0  0  0  0  0  0
   -6.7853   -4.6744   -0.7771 H   0  0  0  0  0  0  0  0  0  0  0  0
   -6.7797   -3.9512    2.1935 H   0  0  0  0  0  0  0  0  0  0  0  0
   -7.8206   -3.2242    0.9698 H   0  0  0  0  0  0  0  0  0  0  0  0
   -7.9986   -4.9345    1.3754 H   0  0  0  0  0  0  0  0  0  0  0  0
   -2.1747    2.4910   -6.1630 H   0  0  0  0  0  0  0  0  0  0  0  0
   -2.2333    0.7881   -6.6398 H   0  0  0  0  0  0  0  0  0  0  0  0
   -0.0743    1.8191   -7.3101 H   0  0  0  0  0  0  0  0  0  0  0  0
    0.1931    0.5565   -6.1034 H   0  0  0  0  0  0  0  0  0  0  0  0
    0.2522    2.2535   -5.6286 H   0  0  0  0  0  0  0  0  0  0  0  0
  1  2  2  0  0  0  0
  2  3  1  0  0  0  0
  3  4  1  0  0  0  0
  4  5  2  0  0  0  0
  5  6  1  0  0  0  0
  6  2  1  0  0  0  0
  6  7  2  0  0  0  0
  3  8  2  0  0  0  0
  8  9  1  0  0  0  0
  9 10  3  0  0  0  0
  8 11  1  0  0  0  0
 11 12  3  0  0  0  0
  4 13  1  0  0  0  0
 13 14  2  0  0  0  0
 14 15  1  0  0  0  0
 15 16  2  0  0  0  0
 16  5  1  0  0  0  0
 17 18  2  0  0  0  0
 18 19  1  0  0  0  0
 19 20  1  0  0  0  0
 20 21  2  0  0  0  0
 21 22  1  0  0  0  0
 22 18  1  0  0  0  0
 20 23  1  0  0  0  0
 23 24  2  0  0  0  0
 24 25  1  0  0  0  0
 25 26  2  0  0  0  0
 26 21  1  0  0  0  0
 22 27  2  0  0  0  0
 19 28  2  0  0  0  0
 28 29  1  0  0  0  0
 28 30  1  0  0  0  0
 30 31  3  0  0  0  0
 29 32  3  0  0  0  0
  1 33  1  0  0  0  0
 33 34  1  0  0  0  0
 34 35  1  0  0  0  0
 35 36  2  0  0  0  0
 36 37  1  0  0  0  0
 37 33  2  0  0  0  0
 35 38  1  0  0  0  0
 38 39  2  0  0  0  0
 39 40  1  0  0  0  0
 40 36  1  0  0  0  0
 38 41  1  0  0  0  0
 41 42  1  0  0  0  0
 42 43  2  0  0  0  0
 43 39  1  0  0  0  0
 42 44  1  0  0  0  0
 44 45  2  0  0  0  0
 45 46  1  0  0  0  0
 46 43  1  0  0  0  0
 44 47  1  0  0  0  0
 47 48  2  0  0  0  0
 48 49  1  0  0  0  0
 49 50  2  0  0  0  0
 50 45  1  0  0  0  0
 48 51  1  0  0  0  0
 51 52  1  0  0  0  0
 52 53  2  0  0  0  0
 53 49  1  0  0  0  0
 52 54  1  0  0  0  0
 54 55  2  0  0  0  0
 55 56  1  0  0  0  0
 56 53  1  0  0  0  0
 54 57  1  0  0  0  0
 57 58  1  0  0  0  0
 58 59  2  0  0  0  0
 59 55  1  0  0  0  0
 58 60  1  0  0  0  0
 60 61  2  0  0  0  0
 61 62  1  0  0  0  0
 62 59  1  0  0  0  0
 61 17  1  0  0  0  0
 46 63  1  0  0  0  0
 46 64  1  0  0  0  0
 51 65  1  0  0  0  0
 51 66  1  0  0  0  0
 64 67  2  0  0  0  0
 67 68  1  0  0  0  0
 68 69  2  0  0  0  0
 69 70  1  0  0  0  0
 70 71  2  0  0  0  0
 71 64  1  0  0  0  0
 63 72  2  0  0  0  0
 72 73  1  0  0  0  0
 73 74  2  0  0  0  0
 74 75  1  0  0  0  0
 75 76  2  0  0  0  0
 76 63  1  0  0  0  0
 65 77  2  0  0  0  0
 77 78  1  0  0  0  0
 78 79  2  0  0  0  0
 79 80  1  0  0  0  0
 80 81  2  0  0  0  0
 81 65  1  0  0  0  0
 66 82  2  0  0  0  0
 82 83  1  0  0  0  0
 83 84  2  0  0  0  0
 84 85  1  0  0  0  0
 85 86  2  0  0  0  0
 86 66  1  0  0  0  0
 16 87  1  0  0  0  0
 26 88  1  0  0  0  0
 69 89  1  0  0  0  0
 89 90  1  0  0  0  0
 74 91  1  0  0  0  0
 91 92  1  0  0  0  0
 79 93  1  0  0  0  0
 93 94  1  0  0  0  0
 84 95  1  0  0  0  0
 95 96  1  0  0  0  0
  1 97  1  0  0  0  0
 13 98  1  0  0  0  0
 14 99  1  0  0  0  0
 15100  1  0  0  0  0
 17101  1  0  0  0  0
 23102  1  0  0  0  0
 24103  1  0  0  0  0
 25104  1  0  0  0  0
 37105  1  0  0  0  0
 47106  1  0  0  0  0
 50107  1  0  0  0  0
 60108  1  0  0  0  0
 67109  1  0  0  0  0
 68110  1  0  0  0  0
 70111  1  0  0  0  0
 71112  1  0  0  0  0
 72113  1  0  0  0  0
 73114  1  0  0  0  0
 75115  1  0  0  0  0
 76116  1  0  0  0  0
 77117  1  0  0  0  0
 78118  1  0  0  0  0
 80119  1  0  0  0  0
 81120  1  0  0  0  0
 82121  1  0  0  0  0
 83122  1  0  0  0  0
 85123  1  0  0  0  0
 86124  1  0  0  0  0
 89125  1  0  0  0  0
 89126  1  0  0  0  0
 90127  1  0  0  0  0
 90128  1  0  0  0  0
 90129  1  0  0  0  0
 91130  1  0  0  0  0
 91131  1  0  0  0  0
 92132  1  0  0  0  0
 92133  1  0  0  0  0
 92134  1  0  0  0  0
 93135  1  0  0  0  0
 93136  1  0  0  0  0
 94137  1  0  0  0  0
 94138  1  0  0  0  0
 94139  1  0  0  0  0
 95140  1  0  0  0  0
 95141  1  0  0  0  0
 96142  1  0  0  0  0
 96143  1  0  0  0  0
 96144  1  0  0  0  0
M  END
