IPT2F-TT.sdf
  xtb     12202114373D
 energy: -260.551423721592 gnorm: 0.000754748314 xtb: 6.4.1 (unknown)
155171  0     0  0            999 V2000
    1.2385   -1.1757   -1.0849 C   0  0  0  0  0  0  0  0  0  0  0  0
    1.4401   -1.6857    0.1888 C   0  0  0  0  0  0  0  0  0  0  0  0
    0.4482   -1.2015    1.0947 C   0  0  0  0  0  0  0  0  0  0  0  0
   -0.4093   -0.3512    0.3563 C   0  0  0  0  0  0  0  0  0  0  0  0
   -0.0014   -0.3120   -1.1134 C   0  0  0  0  0  0  0  0  0  0  0  0
    0.2714   -1.4343    2.4557 C   0  0  0  0  0  0  0  0  0  0  0  0
   -0.7685   -0.7809    3.0744 C   0  0  0  0  0  0  0  0  0  0  0  0
   -1.5988    0.1033    2.3461 C   0  0  0  0  0  0  0  0  0  0  0  0
   -1.4398    0.3113    0.9770 C   0  0  0  0  0  0  0  0  0  0  0  0
   -1.1712   -0.8282    4.5381 C   0  0  0  0  0  0  0  0  0  0  0  0
   -2.2652    0.2088    4.5683 C   0  0  0  0  0  0  0  0  0  0  0  0
   -2.5074    0.6850    3.2792 C   0  0  0  0  0  0  0  0  0  0  0  0
    0.2696    1.1175   -1.5345 C   0  0  0  0  0  0  0  0  0  0  0  0
   -1.0542   -1.0289   -1.9544 C   0  0  0  0  0  0  0  0  0  0  0  0
    1.5666    1.6011   -1.6399 C   0  0  0  0  0  0  0  0  0  0  0  0
    1.8076    2.9020   -2.0415 C   0  0  0  0  0  0  0  0  0  0  0  0
    0.7617    3.7626   -2.3408 C   0  0  0  0  0  0  0  0  0  0  0  0
   -0.5362    3.2930   -2.1901 C   0  0  0  0  0  0  0  0  0  0  0  0
   -0.7807    1.9953   -1.7834 C   0  0  0  0  0  0  0  0  0  0  0  0
   -1.5262   -2.2614   -1.5146 C   0  0  0  0  0  0  0  0  0  0  0  0
   -2.4447   -2.9756   -2.2592 C   0  0  0  0  0  0  0  0  0  0  0  0
   -2.9242   -2.4805   -3.4651 C   0  0  0  0  0  0  0  0  0  0  0  0
   -2.4524   -1.2508   -3.9008 C   0  0  0  0  0  0  0  0  0  0  0  0
   -1.5256   -0.5364   -3.1623 C   0  0  0  0  0  0  0  0  0  0  0  0
    1.0304    5.1421   -2.8665 C   0  0  0  0  0  0  0  0  0  0  0  0
    1.2250    5.0940   -4.3835 C   0  0  0  0  0  0  0  0  0  0  0  0
   -3.8795   -3.2733   -4.3087 C   0  0  0  0  0  0  0  0  0  0  0  0
   -3.1230   -4.0239   -5.4069 C   0  0  0  0  0  0  0  0  0  0  0  0
    0.0384   -0.4977    5.3899 C   0  0  0  0  0  0  0  0  0  0  0  0
   -1.8016   -2.1488    4.9514 C   0  0  0  0  0  0  0  0  0  0  0  0
    0.9131   -1.5081    5.7704 C   0  0  0  0  0  0  0  0  0  0  0  0
    2.0454   -1.2152    6.5054 C   0  0  0  0  0  0  0  0  0  0  0  0
    2.3361    0.0910    6.8779 C   0  0  0  0  0  0  0  0  0  0  0  0
    1.4645    1.0976    6.4859 C   0  0  0  0  0  0  0  0  0  0  0  0
    0.3307    0.8103    5.7478 C   0  0  0  0  0  0  0  0  0  0  0  0
   -2.0448   -2.3822    6.3000 C   0  0  0  0  0  0  0  0  0  0  0  0
   -2.6522   -3.5525    6.7092 C   0  0  0  0  0  0  0  0  0  0  0  0
   -3.0377   -4.5174    5.7861 C   0  0  0  0  0  0  0  0  0  0  0  0
   -2.8055   -4.2715    4.4406 C   0  0  0  0  0  0  0  0  0  0  0  0
   -2.1976   -3.1002    4.0237 C   0  0  0  0  0  0  0  0  0  0  0  0
    3.5897    0.4083    7.6408 C   0  0  0  0  0  0  0  0  0  0  0  0
    4.7593    0.6274    6.6789 C   0  0  0  0  0  0  0  0  0  0  0  0
   -3.7368   -5.7684    6.2337 C   0  0  0  0  0  0  0  0  0  0  0  0
   -5.2440   -5.5282    6.3420 C   0  0  0  0  0  0  0  0  0  0  0  0
   -3.0912    0.7659    5.5263 C   0  0  0  0  0  0  0  0  0  0  0  0
   -3.9739    1.6976    4.9838 C   0  0  0  0  0  0  0  0  0  0  0  0
   -3.7655    1.8340    3.2306 S   0  0  0  0  0  0  0  0  0  0  0  0
    2.2512   -1.5910   -1.9524 C   0  0  0  0  0  0  0  0  0  0  0  0
    3.2137   -2.4025   -1.2975 C   0  0  0  0  0  0  0  0  0  0  0  0
    2.8429   -2.6850    0.3714 S   0  0  0  0  0  0  0  0  0  0  0  0
    2.6459   -1.3778   -3.2532 N   0  0  0  0  0  0  0  0  0  0  0  0
    3.8571   -2.0140   -3.4236 C   0  0  0  0  0  0  0  0  0  0  0  0
    4.2226   -2.6693   -2.2198 C   0  0  0  0  0  0  0  0  0  0  0  0
    4.7756   -2.1465   -4.4500 C   0  0  0  0  0  0  0  0  0  0  0  0
    5.8735   -2.9031   -4.0573 C   0  0  0  0  0  0  0  0  0  0  0  0
    5.7281   -3.4717   -2.3786 S   0  0  0  0  0  0  0  0  0  0  0  0
    7.0484   -3.2838   -4.7220 C   0  0  0  0  0  0  0  0  0  0  0  0
    7.5438   -2.9647   -5.9628 C   0  0  0  0  0  0  0  0  0  0  0  0
    8.8165   -3.4579   -6.4606 C   0  0  0  0  0  0  0  0  0  0  0  0
    9.1107   -2.7527   -7.7088 C   0  0  0  0  0  0  0  0  0  0  0  0
    8.0249   -1.9183   -8.0177 C   0  0  0  0  0  0  0  0  0  0  0  0
    6.9897   -2.0365   -6.9710 C   0  0  0  0  0  0  0  0  0  0  0  0
   10.2113   -2.7895   -8.5493 C   0  0  0  0  0  0  0  0  0  0  0  0
   10.1744   -1.9819   -9.6778 C   0  0  0  0  0  0  0  0  0  0  0  0
    9.1041   -1.1592   -9.9961 C   0  0  0  0  0  0  0  0  0  0  0  0
    8.0076   -1.1261   -9.1501 C   0  0  0  0  0  0  0  0  0  0  0  0
    5.9177   -1.4641   -6.9841 O   0  0  0  0  0  0  0  0  0  0  0  0
    9.6054   -4.4391   -5.9190 C   0  0  0  0  0  0  0  0  0  0  0  0
    9.3292   -5.1969   -4.7603 C   0  0  0  0  0  0  0  0  0  0  0  0
   10.8284   -4.8679   -6.4788 C   0  0  0  0  0  0  0  0  0  0  0  0
    9.1902   -5.8757   -3.8440 N   0  0  0  0  0  0  0  0  0  0  0  0
   11.8308   -5.2647   -6.8723 N   0  0  0  0  0  0  0  0  0  0  0  0
   11.2332   -1.9974  -10.5041 F   0  0  0  0  0  0  0  0  0  0  0  0
   -4.9553    2.5295    5.5438 C   0  0  0  0  0  0  0  0  0  0  0  0
   -5.3245    2.7666    6.8446 C   0  0  0  0  0  0  0  0  0  0  0  0
   -6.3645    3.7108    7.2159 C   0  0  0  0  0  0  0  0  0  0  0  0
   -6.3362    3.8547    8.6718 C   0  0  0  0  0  0  0  0  0  0  0  0
   -5.3764    2.9713    9.1909 C   0  0  0  0  0  0  0  0  0  0  0  0
   -4.7289    2.2318    8.0879 C   0  0  0  0  0  0  0  0  0  0  0  0
   -3.8839    1.3706    8.2261 O   0  0  0  0  0  0  0  0  0  0  0  0
   -7.0572    4.6694    9.5295 C   0  0  0  0  0  0  0  0  0  0  0  0
   -6.7846    4.5602   10.8863 C   0  0  0  0  0  0  0  0  0  0  0  0
   -5.8442    3.6856   11.4104 C   0  0  0  0  0  0  0  0  0  0  0  0
   -5.1258    2.8750   10.5466 C   0  0  0  0  0  0  0  0  0  0  0  0
   -7.4672    5.3454   11.7357 F   0  0  0  0  0  0  0  0  0  0  0  0
   -7.2603    4.3389    6.3902 C   0  0  0  0  0  0  0  0  0  0  0  0
   -8.2486    5.2423    6.8376 C   0  0  0  0  0  0  0  0  0  0  0  0
   -7.3723    4.1762    4.9925 C   0  0  0  0  0  0  0  0  0  0  0  0
   -7.5539    4.1055    3.8603 N   0  0  0  0  0  0  0  0  0  0  0  0
   -9.0720    5.9884    7.1253 N   0  0  0  0  0  0  0  0  0  0  0  0
    1.9924   -0.6259   -4.2220 C   0  0  0  0  0  0  0  0  0  0  0  0
    2.6627    0.9173   -4.7292 S   0  0  0  0  0  0  0  0  0  0  0  0
    1.3382    1.1353   -5.8131 C   0  0  0  0  0  0  0  0  0  0  0  0
    0.4614    0.0602   -5.7656 C   0  0  0  0  0  0  0  0  0  0  0  0
    0.8388   -0.9535   -4.8657 C   0  0  0  0  0  0  0  0  0  0  0  0
    0.9499    2.1463   -6.7157 C   0  0  0  0  0  0  0  0  0  0  0  0
   -0.2217    1.8472   -7.3384 C   0  0  0  0  0  0  0  0  0  0  0  0
   -0.8700    0.3023   -6.8369 S   0  0  0  0  0  0  0  0  0  0  0  0
   -0.9389    2.6435   -8.3725 C   0  0  0  0  0  0  0  0  0  0  0  0
   -0.8132    1.9993   -9.7547 C   0  0  0  0  0  0  0  0  0  0  0  0
    0.9332   -2.0954    2.9933 H   0  0  0  0  0  0  0  0  0  0  0  0
   -2.1009    0.9794    0.4492 H   0  0  0  0  0  0  0  0  0  0  0  0
    2.4065    0.9624   -1.4105 H   0  0  0  0  0  0  0  0  0  0  0  0
    2.8273    3.2482   -2.1300 H   0  0  0  0  0  0  0  0  0  0  0  0
   -1.3691    3.9502   -2.3959 H   0  0  0  0  0  0  0  0  0  0  0  0
   -1.8018    1.6608   -1.6769 H   0  0  0  0  0  0  0  0  0  0  0  0
   -1.1693   -2.6703   -0.5802 H   0  0  0  0  0  0  0  0  0  0  0  0
   -2.7937   -3.9322   -1.8972 H   0  0  0  0  0  0  0  0  0  0  0  0
   -2.8043   -0.8449   -4.8384 H   0  0  0  0  0  0  0  0  0  0  0  0
   -1.1716    0.4088   -3.5424 H   0  0  0  0  0  0  0  0  0  0  0  0
    1.9309    5.5483   -2.4017 H   0  0  0  0  0  0  0  0  0  0  0  0
    0.1939    5.8020   -2.6290 H   0  0  0  0  0  0  0  0  0  0  0  0
    2.0693    4.4545   -4.6322 H   0  0  0  0  0  0  0  0  0  0  0  0
    0.3360    4.6914   -4.8653 H   0  0  0  0  0  0  0  0  0  0  0  0
    1.4137    6.0905   -4.7761 H   0  0  0  0  0  0  0  0  0  0  0  0
   -4.4187   -3.9897   -3.6863 H   0  0  0  0  0  0  0  0  0  0  0  0
   -4.6079   -2.6032   -4.7699 H   0  0  0  0  0  0  0  0  0  0  0  0
   -2.3968   -4.7052   -4.9684 H   0  0  0  0  0  0  0  0  0  0  0  0
   -2.5932   -3.3234   -6.0489 H   0  0  0  0  0  0  0  0  0  0  0  0
   -3.8134   -4.6003   -6.0179 H   0  0  0  0  0  0  0  0  0  0  0  0
    0.6984   -2.5326    5.5021 H   0  0  0  0  0  0  0  0  0  0  0  0
    2.7118   -2.0141    6.7982 H   0  0  0  0  0  0  0  0  0  0  0  0
    1.6725    2.1212    6.7633 H   0  0  0  0  0  0  0  0  0  0  0  0
   -0.3321    1.6114    5.4543 H   0  0  0  0  0  0  0  0  0  0  0  0
   -1.7480   -1.6455    7.0317 H   0  0  0  0  0  0  0  0  0  0  0  0
   -2.8291   -3.7209    7.7617 H   0  0  0  0  0  0  0  0  0  0  0  0
   -3.1024   -5.0057    3.7050 H   0  0  0  0  0  0  0  0  0  0  0  0
   -2.0311   -2.9323    2.9695 H   0  0  0  0  0  0  0  0  0  0  0  0
    3.4417    1.3093    8.2392 H   0  0  0  0  0  0  0  0  0  0  0  0
    3.8300   -0.4152    8.3163 H   0  0  0  0  0  0  0  0  0  0  0  0
    5.6674    0.8591    7.2305 H   0  0  0  0  0  0  0  0  0  0  0  0
    4.9326   -0.2664    6.0837 H   0  0  0  0  0  0  0  0  0  0  0  0
    4.5432    1.4513    6.0024 H   0  0  0  0  0  0  0  0  0  0  0  0
   -3.5507   -6.5736    5.5202 H   0  0  0  0  0  0  0  0  0  0  0  0
   -3.3521   -6.0784    7.2074 H   0  0  0  0  0  0  0  0  0  0  0  0
   -5.7507   -6.4316    6.6732 H   0  0  0  0  0  0  0  0  0  0  0  0
   -5.6507   -5.2352    5.3765 H   0  0  0  0  0  0  0  0  0  0  0  0
   -5.4500   -4.7326    7.0544 H   0  0  0  0  0  0  0  0  0  0  0  0
   -3.0711    0.5412    6.5762 H   0  0  0  0  0  0  0  0  0  0  0  0
    4.6863   -1.7198   -5.4317 H   0  0  0  0  0  0  0  0  0  0  0  0
    7.6801   -3.9235   -4.1168 H   0  0  0  0  0  0  0  0  0  0  0  0
   11.0779   -3.4020   -8.3650 H   0  0  0  0  0  0  0  0  0  0  0  0
    9.1455   -0.5604  -10.8921 H   0  0  0  0  0  0  0  0  0  0  0  0
    7.1547   -0.4991   -9.3579 H   0  0  0  0  0  0  0  0  0  0  0  0
   -5.4881    3.1058    4.7963 H   0  0  0  0  0  0  0  0  0  0  0  0
   -7.8007    5.3729    9.1942 H   0  0  0  0  0  0  0  0  0  0  0  0
   -5.6877    3.6542   12.4769 H   0  0  0  0  0  0  0  0  0  0  0  0
   -4.3833    2.1824   10.9110 H   0  0  0  0  0  0  0  0  0  0  0  0
    0.2991   -1.8668   -4.6996 H   0  0  0  0  0  0  0  0  0  0  0  0
    1.5068    3.0480   -6.8906 H   0  0  0  0  0  0  0  0  0  0  0  0
   -0.5168    3.6502   -8.3949 H   0  0  0  0  0  0  0  0  0  0  0  0
   -1.9966    2.7199   -8.1087 H   0  0  0  0  0  0  0  0  0  0  0  0
    0.2330    1.9174  -10.0399 H   0  0  0  0  0  0  0  0  0  0  0  0
   -1.2490    1.0029   -9.7471 H   0  0  0  0  0  0  0  0  0  0  0  0
   -1.3311    2.6001  -10.4976 H   0  0  0  0  0  0  0  0  0  0  0  0
  1  2  2  0  0  0  0
  2  3  1  0  0  0  0
  3  4  1  0  0  0  0
  4  5  1  0  0  0  0
  5  1  1  0  0  0  0
  3  6  2  0  0  0  0
  6  7  1  0  0  0  0
  7  8  2  0  0  0  0
  8  9  1  0  0  0  0
  9  4  2  0  0  0  0
  7 10  1  0  0  0  0
 10 11  1  0  0  0  0
 11 12  2  0  0  0  0
 12  8  1  0  0  0  0
  5 13  1  0  0  0  0
  5 14  1  0  0  0  0
 13 15  2  0  0  0  0
 15 16  1  0  0  0  0
 16 17  2  0  0  0  0
 17 18  1  0  0  0  0
 18 19  2  0  0  0  0
 19 13  1  0  0  0  0
 14 20  2  0  0  0  0
 20 21  1  0  0  0  0
 21 22  2  0  0  0  0
 22 23  1  0  0  0  0
 23 24  2  0  0  0  0
 24 14  1  0  0  0  0
 17 25  1  0  0  0  0
 25 26  1  0  0  0  0
 22 27  1  0  0  0  0
 27 28  1  0  0  0  0
 10 29  1  0  0  0  0
 10 30  1  0  0  0  0
 29 31  2  0  0  0  0
 31 32  1  0  0  0  0
 32 33  2  0  0  0  0
 33 34  1  0  0  0  0
 34 35  2  0  0  0  0
 35 29  1  0  0  0  0
 30 36  2  0  0  0  0
 36 37  1  0  0  0  0
 37 38  2  0  0  0  0
 38 39  1  0  0  0  0
 39 40  2  0  0  0  0
 40 30  1  0  0  0  0
 33 41  1  0  0  0  0
 41 42  1  0  0  0  0
 38 43  1  0  0  0  0
 43 44  1  0  0  0  0
 11 45  1  0  0  0  0
 45 46  2  0  0  0  0
 46 47  1  0  0  0  0
 47 12  1  0  0  0  0
  1 48  1  0  0  0  0
 48 49  2  0  0  0  0
 49 50  1  0  0  0  0
 50  2  1  0  0  0  0
 48 51  1  0  0  0  0
 51 52  1  0  0  0  0
 52 53  2  0  0  0  0
 53 49  1  0  0  0  0
 52 54  1  0  0  0  0
 54 55  2  0  0  0  0
 55 56  1  0  0  0  0
 56 53  1  0  0  0  0
 55 57  1  0  0  0  0
 57 58  2  0  0  0  0
 58 59  1  0  0  0  0
 59 60  1  0  0  0  0
 60 61  2  0  0  0  0
 61 62  1  0  0  0  0
 62 58  1  0  0  0  0
 60 63  1  0  0  0  0
 63 64  2  0  0  0  0
 64 65  1  0  0  0  0
 65 66  2  0  0  0  0
 66 61  1  0  0  0  0
 62 67  2  0  0  0  0
 59 68  2  0  0  0  0
 68 69  1  0  0  0  0
 68 70  1  0  0  0  0
 69 71  3  0  0  0  0
 70 72  3  0  0  0  0
 64 73  1  0  0  0  0
 46 74  1  0  0  0  0
 74 75  2  0  0  0  0
 75 76  1  0  0  0  0
 76 77  1  0  0  0  0
 77 78  2  0  0  0  0
 78 79  1  0  0  0  0
 79 75  1  0  0  0  0
 79 80  2  0  0  0  0
 77 81  1  0  0  0  0
 81 82  2  0  0  0  0
 82 83  1  0  0  0  0
 83 84  2  0  0  0  0
 84 78  1  0  0  0  0
 82 85  1  0  0  0  0
 76 86  2  0  0  0  0
 86 87  1  0  0  0  0
 86 88  1  0  0  0  0
 88 89  3  0  0  0  0
 87 90  3  0  0  0  0
 51 91  1  0  0  0  0
 91 92  1  0  0  0  0
 92 93  1  0  0  0  0
 93 94  2  0  0  0  0
 94 95  1  0  0  0  0
 95 91  2  0  0  0  0
 93 96  1  0  0  0  0
 96 97  2  0  0  0  0
 97 98  1  0  0  0  0
 98 94  1  0  0  0  0
 97 99  1  0  0  0  0
 99100  1  0  0  0  0
  6101  1  0  0  0  0
  9102  1  0  0  0  0
 15103  1  0  0  0  0
 16104  1  0  0  0  0
 18105  1  0  0  0  0
 19106  1  0  0  0  0
 20107  1  0  0  0  0
 21108  1  0  0  0  0
 23109  1  0  0  0  0
 24110  1  0  0  0  0
 25111  1  0  0  0  0
 25112  1  0  0  0  0
 26113  1  0  0  0  0
 26114  1  0  0  0  0
 26115  1  0  0  0  0
 27116  1  0  0  0  0
 27117  1  0  0  0  0
 28118  1  0  0  0  0
 28119  1  0  0  0  0
 28120  1  0  0  0  0
 31121  1  0  0  0  0
 32122  1  0  0  0  0
 34123  1  0  0  0  0
 35124  1  0  0  0  0
 36125  1  0  0  0  0
 37126  1  0  0  0  0
 39127  1  0  0  0  0
 40128  1  0  0  0  0
 41129  1  0  0  0  0
 41130  1  0  0  0  0
 42131  1  0  0  0  0
 42132  1  0  0  0  0
 42133  1  0  0  0  0
 43134  1  0  0  0  0
 43135  1  0  0  0  0
 44136  1  0  0  0  0
 44137  1  0  0  0  0
 44138  1  0  0  0  0
 45139  1  0  0  0  0
 54140  1  0  0  0  0
 57141  1  0  0  0  0
 63142  1  0  0  0  0
 65143  1  0  0  0  0
 66144  1  0  0  0  0
 74145  1  0  0  0  0
 81146  1  0  0  0  0
 83147  1  0  0  0  0
 84148  1  0  0  0  0
 95149  1  0  0  0  0
 96150  1  0  0  0  0
 99151  1  0  0  0  0
 99152  1  0  0  0  0
100153  1  0  0  0  0
100154  1  0  0  0  0
100155  1  0  0  0  0
M  END
