IPTTT-2F.sdf
  xtb     12202113073D
 energy: -255.268646150380 gnorm: 0.000630360781 xtb: 6.4.1 (unknown)
151167  0     0  0            999 V2000
   -9.7838   -0.8031    1.0122 C   0  0  0  0  0  0  0  0  0  0  0  0
  -10.5721   -1.1381    2.0887 C   0  0  0  0  0  0  0  0  0  0  0  0
  -12.0182   -1.0860    2.1240 C   0  0  0  0  0  0  0  0  0  0  0  0
  -12.4399   -1.4978    3.4643 C   0  0  0  0  0  0  0  0  0  0  0  0
  -11.2964   -1.8003    4.2235 C   0  0  0  0  0  0  0  0  0  0  0  0
  -10.0900   -1.5934    3.3941 C   0  0  0  0  0  0  0  0  0  0  0  0
   -8.9388   -1.7730    3.7468 O   0  0  0  0  0  0  0  0  0  0  0  0
  -12.8684   -0.7226    1.1096 C   0  0  0  0  0  0  0  0  0  0  0  0
  -12.4870   -0.3242   -0.1879 C   0  0  0  0  0  0  0  0  0  0  0  0
  -12.2681    0.0119   -1.2651 N   0  0  0  0  0  0  0  0  0  0  0  0
  -14.2739   -0.6974    1.2243 C   0  0  0  0  0  0  0  0  0  0  0  0
  -15.4210   -0.6504    1.2456 N   0  0  0  0  0  0  0  0  0  0  0  0
  -13.6964   -1.6186    4.0395 C   0  0  0  0  0  0  0  0  0  0  0  0
  -13.7902   -2.0379    5.3587 C   0  0  0  0  0  0  0  0  0  0  0  0
  -12.6436   -2.3288    6.0815 C   0  0  0  0  0  0  0  0  0  0  0  0
  -11.3732   -2.2182    5.5358 C   0  0  0  0  0  0  0  0  0  0  0  0
   10.7388    1.6499   -1.0571 C   0  0  0  0  0  0  0  0  0  0  0  0
   11.3199    2.3059   -2.1149 C   0  0  0  0  0  0  0  0  0  0  0  0
   12.7222    2.6536   -2.2325 C   0  0  0  0  0  0  0  0  0  0  0  0
   12.8915    3.3699   -3.4977 C   0  0  0  0  0  0  0  0  0  0  0  0
   11.6447    3.4492   -4.1425 C   0  0  0  0  0  0  0  0  0  0  0  0
   10.6205    2.7868   -3.3091 C   0  0  0  0  0  0  0  0  0  0  0  0
   14.0091    3.9344   -4.0953 C   0  0  0  0  0  0  0  0  0  0  0  0
   13.8646    4.5641   -5.3228 C   0  0  0  0  0  0  0  0  0  0  0  0
   12.6220    4.6234   -5.9351 C   0  0  0  0  0  0  0  0  0  0  0  0
   11.4853    4.0709   -5.3637 C   0  0  0  0  0  0  0  0  0  0  0  0
    9.4384    2.6745   -3.5788 O   0  0  0  0  0  0  0  0  0  0  0  0
   13.7298    2.3761   -1.3448 C   0  0  0  0  0  0  0  0  0  0  0  0
   13.5897    1.6838   -0.1237 C   0  0  0  0  0  0  0  0  0  0  0  0
   15.0778    2.7476   -1.5340 C   0  0  0  0  0  0  0  0  0  0  0  0
   16.1900    3.0185   -1.6202 N   0  0  0  0  0  0  0  0  0  0  0  0
   13.5682    1.1344    0.8851 N   0  0  0  0  0  0  0  0  0  0  0  0
   -8.3943   -0.7922    0.8631 C   0  0  0  0  0  0  0  0  0  0  0  0
   -7.2036   -1.2506    2.0857 S   0  0  0  0  0  0  0  0  0  0  0  0
   -5.9362   -0.8730    0.9873 C   0  0  0  0  0  0  0  0  0  0  0  0
   -6.4190   -0.4137   -0.2691 C   0  0  0  0  0  0  0  0  0  0  0  0
   -7.7964   -0.3758   -0.3347 C   0  0  0  0  0  0  0  0  0  0  0  0
   -4.5491   -0.8409    0.8969 C   0  0  0  0  0  0  0  0  0  0  0  0
   -4.2154   -0.3544   -0.3977 C   0  0  0  0  0  0  0  0  0  0  0  0
   -5.3676   -0.1176   -1.0999 N   0  0  0  0  0  0  0  0  0  0  0  0
   -3.1660   -1.1968    1.8775 S   0  0  0  0  0  0  0  0  0  0  0  0
   -2.1593   -0.6698    0.5740 C   0  0  0  0  0  0  0  0  0  0  0  0
   -2.8304   -0.2420   -0.5631 C   0  0  0  0  0  0  0  0  0  0  0  0
   -0.7460   -0.5414    0.4183 C   0  0  0  0  0  0  0  0  0  0  0  0
   -0.5173   -0.0029   -0.8675 C   0  0  0  0  0  0  0  0  0  0  0  0
   -1.8348    0.2301   -1.6022 C   0  0  0  0  0  0  0  0  0  0  0  0
    0.2964   -0.8470    1.2890 C   0  0  0  0  0  0  0  0  0  0  0  0
    1.5733   -0.5712    0.8600 C   0  0  0  0  0  0  0  0  0  0  0  0
    1.8008   -0.0099   -0.4179 C   0  0  0  0  0  0  0  0  0  0  0  0
    0.7590    0.2691   -1.2986 C   0  0  0  0  0  0  0  0  0  0  0  0
    2.8838   -0.8039    1.5936 C   0  0  0  0  0  0  0  0  0  0  0  0
    3.8680   -0.2623    0.5917 C   0  0  0  0  0  0  0  0  0  0  0  0
    3.2107    0.1876   -0.5424 C   0  0  0  0  0  0  0  0  0  0  0  0
    5.2392   -0.0353    0.5157 C   0  0  0  0  0  0  0  0  0  0  0  0
    5.6081    0.5889   -0.6905 C   0  0  0  0  0  0  0  0  0  0  0  0
    4.2512    0.8887   -1.7318 S   0  0  0  0  0  0  0  0  0  0  0  0
    6.5940   -0.3360    1.5632 S   0  0  0  0  0  0  0  0  0  0  0  0
    7.6558    0.3938    0.3835 C   0  0  0  0  0  0  0  0  0  0  0  0
    6.9781    0.8390   -0.7695 C   0  0  0  0  0  0  0  0  0  0  0  0
    9.0118    0.6415    0.3454 C   0  0  0  0  0  0  0  0  0  0  0  0
    9.4053    1.2871   -0.8316 C   0  0  0  0  0  0  0  0  0  0  0  0
    8.0387    1.5732   -1.9078 S   0  0  0  0  0  0  0  0  0  0  0  0
   -1.9381   -0.6635   -2.8276 C   0  0  0  0  0  0  0  0  0  0  0  0
   -1.9219    1.7163   -1.8892 C   0  0  0  0  0  0  0  0  0  0  0  0
    3.0364   -0.0033    2.8734 C   0  0  0  0  0  0  0  0  0  0  0  0
    3.0208   -2.2962    1.8364 C   0  0  0  0  0  0  0  0  0  0  0  0
   -1.2178    2.2704   -2.9533 C   0  0  0  0  0  0  0  0  0  0  0  0
   -1.2466    3.6316   -3.1866 C   0  0  0  0  0  0  0  0  0  0  0  0
   -1.9649    4.4848   -2.3585 C   0  0  0  0  0  0  0  0  0  0  0  0
   -2.6461    3.9334   -1.2828 C   0  0  0  0  0  0  0  0  0  0  0  0
   -2.6213    2.5700   -1.0463 C   0  0  0  0  0  0  0  0  0  0  0  0
   -2.4992   -0.2400   -4.0253 C   0  0  0  0  0  0  0  0  0  0  0  0
   -2.6114   -1.1104   -5.0959 C   0  0  0  0  0  0  0  0  0  0  0  0
   -2.1719   -2.4230   -5.0022 C   0  0  0  0  0  0  0  0  0  0  0  0
   -1.6216   -2.8462   -3.7988 C   0  0  0  0  0  0  0  0  0  0  0  0
   -1.5082   -1.9823   -2.7273 C   0  0  0  0  0  0  0  0  0  0  0  0
    2.2381    1.0981    3.1450 C   0  0  0  0  0  0  0  0  0  0  0  0
    2.4371    1.8366    4.2976 C   0  0  0  0  0  0  0  0  0  0  0  0
    3.4421    1.5049    5.1957 C   0  0  0  0  0  0  0  0  0  0  0  0
    4.2486    0.4106    4.9092 C   0  0  0  0  0  0  0  0  0  0  0  0
    4.0524   -0.3332    3.7622 C   0  0  0  0  0  0  0  0  0  0  0  0
    2.4408   -2.8706    2.9605 C   0  0  0  0  0  0  0  0  0  0  0  0
    2.5152   -4.2344    3.1684 C   0  0  0  0  0  0  0  0  0  0  0  0
    3.1674   -5.0605    2.2619 C   0  0  0  0  0  0  0  0  0  0  0  0
    3.7377   -4.4822    1.1364 C   0  0  0  0  0  0  0  0  0  0  0  0
    3.6634   -3.1181    0.9219 C   0  0  0  0  0  0  0  0  0  0  0  0
  -12.7715   -2.7320    7.3575 F   0  0  0  0  0  0  0  0  0  0  0  0
   12.5185    5.2403   -7.1242 F   0  0  0  0  0  0  0  0  0  0  0  0
   -5.5083    0.3408   -2.4586 C   0  0  0  0  0  0  0  0  0  0  0  0
   -5.7369    1.8484   -2.5379 C   0  0  0  0  0  0  0  0  0  0  0  0
   -2.0382    5.9553   -2.6486 C   0  0  0  0  0  0  0  0  0  0  0  0
   -3.1986    6.2524   -3.6008 C   0  0  0  0  0  0  0  0  0  0  0  0
   -2.3323   -3.3748   -6.1516 C   0  0  0  0  0  0  0  0  0  0  0  0
   -3.6719   -4.1082   -6.0558 C   0  0  0  0  0  0  0  0  0  0  0  0
    3.6211    2.2780    6.4701 C   0  0  0  0  0  0  0  0  0  0  0  0
    2.7675    1.6698    7.5850 C   0  0  0  0  0  0  0  0  0  0  0  0
    3.2073   -6.5472    2.4666 C   0  0  0  0  0  0  0  0  0  0  0  0
    1.9921   -7.2080    1.8123 C   0  0  0  0  0  0  0  0  0  0  0  0
  -10.3047   -0.4806    0.1189 H   0  0  0  0  0  0  0  0  0  0  0  0
  -14.5955   -1.3952    3.4899 H   0  0  0  0  0  0  0  0  0  0  0  0
  -14.7523   -2.1415    5.8351 H   0  0  0  0  0  0  0  0  0  0  0  0
  -10.4889   -2.4471    6.1087 H   0  0  0  0  0  0  0  0  0  0  0  0
   11.3949    1.3631   -0.2443 H   0  0  0  0  0  0  0  0  0  0  0  0
   14.9803    3.8964   -3.6307 H   0  0  0  0  0  0  0  0  0  0  0  0
   14.7139    5.0132   -5.8130 H   0  0  0  0  0  0  0  0  0  0  0  0
   10.5241    4.1252   -5.8494 H   0  0  0  0  0  0  0  0  0  0  0  0
   -8.3791   -0.0619   -1.1822 H   0  0  0  0  0  0  0  0  0  0  0  0
    0.0965   -1.2706    2.2607 H   0  0  0  0  0  0  0  0  0  0  0  0
    0.9652    0.6863   -2.2712 H   0  0  0  0  0  0  0  0  0  0  0  0
    9.7065    0.3821    1.1238 H   0  0  0  0  0  0  0  0  0  0  0  0
   -0.6469    1.6333   -3.6123 H   0  0  0  0  0  0  0  0  0  0  0  0
   -0.6963    4.0390   -4.0226 H   0  0  0  0  0  0  0  0  0  0  0  0
   -3.2019    4.5772   -0.6159 H   0  0  0  0  0  0  0  0  0  0  0  0
   -3.1486    2.1733   -0.1908 H   0  0  0  0  0  0  0  0  0  0  0  0
   -2.8388    0.7795   -4.1399 H   0  0  0  0  0  0  0  0  0  0  0  0
   -3.0461   -0.7576   -6.0204 H   0  0  0  0  0  0  0  0  0  0  0  0
   -1.2743   -3.8646   -3.6998 H   0  0  0  0  0  0  0  0  0  0  0  0
   -1.0766   -2.3343   -1.8013 H   0  0  0  0  0  0  0  0  0  0  0  0
    1.4557    1.3821    2.4563 H   0  0  0  0  0  0  0  0  0  0  0  0
    1.8024    2.6882    4.4980 H   0  0  0  0  0  0  0  0  0  0  0  0
    5.0426    0.1392    5.5899 H   0  0  0  0  0  0  0  0  0  0  0  0
    4.6885   -1.1822    3.5564 H   0  0  0  0  0  0  0  0  0  0  0  0
    1.9400   -2.2445    3.6846 H   0  0  0  0  0  0  0  0  0  0  0  0
    2.0622   -4.6638    4.0506 H   0  0  0  0  0  0  0  0  0  0  0  0
    4.2492   -5.1060    0.4171 H   0  0  0  0  0  0  0  0  0  0  0  0
    4.1122   -2.6941    0.0353 H   0  0  0  0  0  0  0  0  0  0  0  0
   -4.6063    0.0619   -3.0054 H   0  0  0  0  0  0  0  0  0  0  0  0
   -6.3589   -0.1864   -2.9015 H   0  0  0  0  0  0  0  0  0  0  0  0
   -4.8771    2.3851   -2.1442 H   0  0  0  0  0  0  0  0  0  0  0  0
   -6.6178    2.1288   -1.9652 H   0  0  0  0  0  0  0  0  0  0  0  0
   -5.8866    2.1426   -3.5730 H   0  0  0  0  0  0  0  0  0  0  0  0
   -1.1042    6.2895   -3.1046 H   0  0  0  0  0  0  0  0  0  0  0  0
   -2.1835    6.5101   -1.7197 H   0  0  0  0  0  0  0  0  0  0  0  0
   -4.1418    5.9394   -3.1581 H   0  0  0  0  0  0  0  0  0  0  0  0
   -3.0659    5.7164   -4.5381 H   0  0  0  0  0  0  0  0  0  0  0  0
   -3.2518    7.3171   -3.8146 H   0  0  0  0  0  0  0  0  0  0  0  0
   -2.2884   -2.8276   -7.0953 H   0  0  0  0  0  0  0  0  0  0  0  0
   -1.5213   -4.1056   -6.1416 H   0  0  0  0  0  0  0  0  0  0  0  0
   -4.4955   -3.3981   -6.0812 H   0  0  0  0  0  0  0  0  0  0  0  0
   -3.7855   -4.8014   -6.8857 H   0  0  0  0  0  0  0  0  0  0  0  0
   -3.7314   -4.6679   -5.1250 H   0  0  0  0  0  0  0  0  0  0  0  0
    3.3264    3.3182    6.3179 H   0  0  0  0  0  0  0  0  0  0  0  0
    4.6707    2.2597    6.7701 H   0  0  0  0  0  0  0  0  0  0  0  0
    3.0546    0.6353    7.7592 H   0  0  0  0  0  0  0  0  0  0  0  0
    2.8961    2.2268    8.5100 H   0  0  0  0  0  0  0  0  0  0  0  0
    1.7153    1.6909    7.3099 H   0  0  0  0  0  0  0  0  0  0  0  0
    4.1192   -6.9574    2.0281 H   0  0  0  0  0  0  0  0  0  0  0  0
    3.2087   -6.7747    3.5343 H   0  0  0  0  0  0  0  0  0  0  0  0
    2.0211   -8.2855    1.9563 H   0  0  0  0  0  0  0  0  0  0  0  0
    1.0723   -6.8235    2.2474 H   0  0  0  0  0  0  0  0  0  0  0  0
    1.9777   -7.0000    0.7446 H   0  0  0  0  0  0  0  0  0  0  0  0
  1  2  2  0  0  0  0
  2  3  1  0  0  0  0
  3  4  1  0  0  0  0
  4  5  2  0  0  0  0
  5  6  1  0  0  0  0
  6  2  1  0  0  0  0
  6  7  2  0  0  0  0
  3  8  2  0  0  0  0
  8  9  1  0  0  0  0
  9 10  3  0  0  0  0
  8 11  1  0  0  0  0
 11 12  3  0  0  0  0
  4 13  1  0  0  0  0
 13 14  2  0  0  0  0
 14 15  1  0  0  0  0
 15 16  2  0  0  0  0
 16  5  1  0  0  0  0
 17 18  2  0  0  0  0
 18 19  1  0  0  0  0
 19 20  1  0  0  0  0
 20 21  2  0  0  0  0
 21 22  1  0  0  0  0
 22 18  1  0  0  0  0
 20 23  1  0  0  0  0
 23 24  2  0  0  0  0
 24 25  1  0  0  0  0
 25 26  2  0  0  0  0
 26 21  1  0  0  0  0
 22 27  2  0  0  0  0
 19 28  2  0  0  0  0
 28 29  1  0  0  0  0
 28 30  1  0  0  0  0
 30 31  3  0  0  0  0
 29 32  3  0  0  0  0
  1 33  1  0  0  0  0
 33 34  1  0  0  0  0
 34 35  1  0  0  0  0
 35 36  2  0  0  0  0
 36 37  1  0  0  0  0
 37 33  2  0  0  0  0
 35 38  1  0  0  0  0
 38 39  2  0  0  0  0
 39 40  1  0  0  0  0
 40 36  1  0  0  0  0
 38 41  1  0  0  0  0
 41 42  1  0  0  0  0
 42 43  2  0  0  0  0
 43 39  1  0  0  0  0
 42 44  1  0  0  0  0
 44 45  2  0  0  0  0
 45 46  1  0  0  0  0
 46 43  1  0  0  0  0
 44 47  1  0  0  0  0
 47 48  2  0  0  0  0
 48 49  1  0  0  0  0
 49 50  2  0  0  0  0
 50 45  1  0  0  0  0
 48 51  1  0  0  0  0
 51 52  1  0  0  0  0
 52 53  2  0  0  0  0
 53 49  1  0  0  0  0
 52 54  1  0  0  0  0
 54 55  2  0  0  0  0
 55 56  1  0  0  0  0
 56 53  1  0  0  0  0
 54 57  1  0  0  0  0
 57 58  1  0  0  0  0
 58 59  2  0  0  0  0
 59 55  1  0  0  0  0
 58 60  1  0  0  0  0
 60 61  2  0  0  0  0
 61 62  1  0  0  0  0
 62 59  1  0  0  0  0
 61 17  1  0  0  0  0
 46 63  1  0  0  0  0
 46 64  1  0  0  0  0
 51 65  1  0  0  0  0
 51 66  1  0  0  0  0
 64 67  2  0  0  0  0
 67 68  1  0  0  0  0
 68 69  2  0  0  0  0
 69 70  1  0  0  0  0
 70 71  2  0  0  0  0
 71 64  1  0  0  0  0
 63 72  2  0  0  0  0
 72 73  1  0  0  0  0
 73 74  2  0  0  0  0
 74 75  1  0  0  0  0
 75 76  2  0  0  0  0
 76 63  1  0  0  0  0
 65 77  2  0  0  0  0
 77 78  1  0  0  0  0
 78 79  2  0  0  0  0
 79 80  1  0  0  0  0
 80 81  2  0  0  0  0
 81 65  1  0  0  0  0
 66 82  2  0  0  0  0
 82 83  1  0  0  0  0
 83 84  2  0  0  0  0
 84 85  1  0  0  0  0
 85 86  2  0  0  0  0
 86 66  1  0  0  0  0
 15 87  1  0  0  0  0
 25 88  1  0  0  0  0
 40 89  1  0  0  0  0
 89 90  1  0  0  0  0
 69 91  1  0  0  0  0
 91 92  1  0  0  0  0
 74 93  1  0  0  0  0
 93 94  1  0  0  0  0
 79 95  1  0  0  0  0
 95 96  1  0  0  0  0
 84 97  1  0  0  0  0
 97 98  1  0  0  0  0
  1 99  1  0  0  0  0
 13100  1  0  0  0  0
 14101  1  0  0  0  0
 16102  1  0  0  0  0
 17103  1  0  0  0  0
 23104  1  0  0  0  0
 24105  1  0  0  0  0
 26106  1  0  0  0  0
 37107  1  0  0  0  0
 47108  1  0  0  0  0
 50109  1  0  0  0  0
 60110  1  0  0  0  0
 67111  1  0  0  0  0
 68112  1  0  0  0  0
 70113  1  0  0  0  0
 71114  1  0  0  0  0
 72115  1  0  0  0  0
 73116  1  0  0  0  0
 75117  1  0  0  0  0
 76118  1  0  0  0  0
 77119  1  0  0  0  0
 78120  1  0  0  0  0
 80121  1  0  0  0  0
 81122  1  0  0  0  0
 82123  1  0  0  0  0
 83124  1  0  0  0  0
 85125  1  0  0  0  0
 86126  1  0  0  0  0
 89127  1  0  0  0  0
 89128  1  0  0  0  0
 90129  1  0  0  0  0
 90130  1  0  0  0  0
 90131  1  0  0  0  0
 91132  1  0  0  0  0
 91133  1  0  0  0  0
 92134  1  0  0  0  0
 92135  1  0  0  0  0
 92136  1  0  0  0  0
 93137  1  0  0  0  0
 93138  1  0  0  0  0
 94139  1  0  0  0  0
 94140  1  0  0  0  0
 94141  1  0  0  0  0
 95142  1  0  0  0  0
 95143  1  0  0  0  0
 96144  1  0  0  0  0
 96145  1  0  0  0  0
 96146  1  0  0  0  0
 97147  1  0  0  0  0
 97148  1  0  0  0  0
 98149  1  0  0  0  0
 98150  1  0  0  0  0
 98151  1  0  0  0  0
M  END
