IT-M.sdf
  xtb     12202113263D
 energy: -231.547370725901 gnorm: 0.000236281239 xtb: 6.4.1 (unknown)
144158  0     0  0            999 V2000
    5.8839   -5.6268   -4.0820 C   0  0  0  0  0  0  0  0  0  0  0  0
    5.8530   -4.6085   -3.4136 O   0  0  0  0  0  0  0  0  0  0  0  0
    7.0125   -6.5631   -4.1940 C   0  0  0  0  0  0  0  0  0  0  0  0
    8.2439   -6.5239   -3.5692 C   0  0  0  0  0  0  0  0  0  0  0  0
    9.1477   -7.5405   -3.8332 C   0  0  0  0  0  0  0  0  0  0  0  0
    8.8321   -8.5806   -4.7049 C   0  0  0  0  0  0  0  0  0  0  0  0
    7.5871   -8.6102   -5.3328 C   0  0  0  0  0  0  0  0  0  0  0  0
    6.6745   -7.6010   -5.0798 C   0  0  0  0  0  0  0  0  0  0  0  0
    5.3186   -7.3711   -5.5795 C   0  0  0  0  0  0  0  0  0  0  0  0
    4.6727   -8.1586   -6.4972 C   0  0  0  0  0  0  0  0  0  0  0  0
    3.3756   -7.9427   -7.0076 C   0  0  0  0  0  0  0  0  0  0  0  0
    2.3325   -7.8430   -7.4791 N   0  0  0  0  0  0  0  0  0  0  0  0
    5.2306   -9.3157   -7.0807 C   0  0  0  0  0  0  0  0  0  0  0  0
    5.6182  -10.2667   -7.5945 N   0  0  0  0  0  0  0  0  0  0  0  0
    4.8173   -6.1724   -4.9351 C   0  0  0  0  0  0  0  0  0  0  0  0
    3.5487   -5.6682   -5.0592 C   0  0  0  0  0  0  0  0  0  0  0  0
    2.9420   -4.5642   -4.4409 C   0  0  0  0  0  0  0  0  0  0  0  0
    1.5869   -4.2765   -4.6246 C   0  0  0  0  0  0  0  0  0  0  0  0
    1.1751   -3.1922   -3.8757 C   0  0  0  0  0  0  0  0  0  0  0  0
    2.2139   -2.6103   -3.1173 C   0  0  0  0  0  0  0  0  0  0  0  0
    3.7103   -3.4311   -3.3337 S   0  0  0  0  0  0  0  0  0  0  0  0
    1.7552   -1.5503   -2.3385 C   0  0  0  0  0  0  0  0  0  0  0  0
    2.3251   -0.6117   -1.3103 C   0  0  0  0  0  0  0  0  0  0  0  0
    3.2417    0.4448   -1.9049 C   0  0  0  0  0  0  0  0  0  0  0  0
    4.0916    1.1656   -1.0756 C   0  0  0  0  0  0  0  0  0  0  0  0
    4.8986    2.1605   -1.5930 C   0  0  0  0  0  0  0  0  0  0  0  0
    4.8792    2.4630   -2.9486 C   0  0  0  0  0  0  0  0  0  0  0  0
    5.7249    3.5734   -3.5019 C   0  0  0  0  0  0  0  0  0  0  0  0
    4.9601    4.8980   -3.4610 C   0  0  0  0  0  0  0  0  0  0  0  0
    4.0225    1.7448   -3.7710 C   0  0  0  0  0  0  0  0  0  0  0  0
    3.2102    0.7503   -3.2578 C   0  0  0  0  0  0  0  0  0  0  0  0
    3.0344   -1.4397   -0.2568 C   0  0  0  0  0  0  0  0  0  0  0  0
    4.3177   -1.9042   -0.5209 C   0  0  0  0  0  0  0  0  0  0  0  0
    4.9706   -2.7125    0.3881 C   0  0  0  0  0  0  0  0  0  0  0  0
    4.3614   -3.0788    1.5819 C   0  0  0  0  0  0  0  0  0  0  0  0
    5.0959   -3.9123    2.5922 C   0  0  0  0  0  0  0  0  0  0  0  0
    5.9120   -3.0179    3.5278 C   0  0  0  0  0  0  0  0  0  0  0  0
    3.0772   -2.6181    1.8361 C   0  0  0  0  0  0  0  0  0  0  0  0
    2.4138   -1.8152    0.9251 C   0  0  0  0  0  0  0  0  0  0  0  0
    1.0645    0.0913   -0.8380 C   0  0  0  0  0  0  0  0  0  0  0  0
   -0.0612   -0.3321   -1.5852 C   0  0  0  0  0  0  0  0  0  0  0  0
    0.3935   -1.3451   -2.4854 C   0  0  0  0  0  0  0  0  0  0  0  0
   -0.3655   -2.4141   -3.6174 S   0  0  0  0  0  0  0  0  0  0  0  0
   -1.3359    0.1777   -1.3494 C   0  0  0  0  0  0  0  0  0  0  0  0
   -1.4686    1.0911   -0.3301 C   0  0  0  0  0  0  0  0  0  0  0  0
   -2.7384    1.7466    0.1853 C   0  0  0  0  0  0  0  0  0  0  0  0
   -3.2891    2.8225   -0.7375 C   0  0  0  0  0  0  0  0  0  0  0  0
   -2.5639    3.3168   -1.8110 C   0  0  0  0  0  0  0  0  0  0  0  0
   -3.0806    4.3370   -2.5902 C   0  0  0  0  0  0  0  0  0  0  0  0
   -4.3200    4.8949   -2.3103 C   0  0  0  0  0  0  0  0  0  0  0  0
   -4.8949    5.9742   -3.1813 C   0  0  0  0  0  0  0  0  0  0  0  0
   -5.7420    5.3636   -4.2997 C   0  0  0  0  0  0  0  0  0  0  0  0
   -5.0377    4.4000   -1.2280 C   0  0  0  0  0  0  0  0  0  0  0  0
   -4.5298    3.3794   -0.4493 C   0  0  0  0  0  0  0  0  0  0  0  0
   -3.7748    0.6820    0.4817 C   0  0  0  0  0  0  0  0  0  0  0  0
   -3.8506    0.0813    1.7300 C   0  0  0  0  0  0  0  0  0  0  0  0
   -4.7846   -0.9081    1.9761 C   0  0  0  0  0  0  0  0  0  0  0  0
   -5.6544   -1.3322    0.9811 C   0  0  0  0  0  0  0  0  0  0  0  0
   -6.7043   -2.3670    1.2648 C   0  0  0  0  0  0  0  0  0  0  0  0
   -7.9999   -1.6961    1.7261 C   0  0  0  0  0  0  0  0  0  0  0  0
   -5.5626   -0.7396   -0.2719 C   0  0  0  0  0  0  0  0  0  0  0  0
   -4.6349    0.2530   -0.5215 C   0  0  0  0  0  0  0  0  0  0  0  0
   -2.2133    2.4544    1.4058 C   0  0  0  0  0  0  0  0  0  0  0  0
   -0.8361    2.3278    1.4869 C   0  0  0  0  0  0  0  0  0  0  0  0
   -0.3486    1.4855    0.4404 C   0  0  0  0  0  0  0  0  0  0  0  0
    0.9332    1.0120    0.1746 C   0  0  0  0  0  0  0  0  0  0  0  0
   -0.1277    3.1188    2.8525 S   0  0  0  0  0  0  0  0  0  0  0  0
   -1.7167    3.6200    3.3597 C   0  0  0  0  0  0  0  0  0  0  0  0
   -2.7241    3.1980    2.4659 C   0  0  0  0  0  0  0  0  0  0  0  0
   -4.2769    3.6789    3.0176 S   0  0  0  0  0  0  0  0  0  0  0  0
   -3.5687    4.4088    4.4689 C   0  0  0  0  0  0  0  0  0  0  0  0
   -2.1871    4.2986    4.4738 C   0  0  0  0  0  0  0  0  0  0  0  0
   -4.4847    4.9624    5.3829 C   0  0  0  0  0  0  0  0  0  0  0  0
   -4.3200    5.4360    6.6566 C   0  0  0  0  0  0  0  0  0  0  0  0
   -5.4188    5.9309    7.4709 C   0  0  0  0  0  0  0  0  0  0  0  0
   -6.6631    6.3103    7.0404 C   0  0  0  0  0  0  0  0  0  0  0  0
   -7.6758    6.8014    7.8915 C   0  0  0  0  0  0  0  0  0  0  0  0
   -8.5446    7.2039    8.5251 N   0  0  0  0  0  0  0  0  0  0  0  0
   -7.1114    6.3175    5.7022 C   0  0  0  0  0  0  0  0  0  0  0  0
   -7.5540    6.3767    4.6437 N   0  0  0  0  0  0  0  0  0  0  0  0
   -4.9416    6.0292    8.8481 C   0  0  0  0  0  0  0  0  0  0  0  0
   -5.5948    6.3392   10.0287 C   0  0  0  0  0  0  0  0  0  0  0  0
   -4.8742    6.3624   11.2218 C   0  0  0  0  0  0  0  0  0  0  0  0
   -3.5093    6.0800   11.2168 C   0  0  0  0  0  0  0  0  0  0  0  0
   -2.8444    5.7636   10.0435 C   0  0  0  0  0  0  0  0  0  0  0  0
   -3.5684    5.7359    8.8669 C   0  0  0  0  0  0  0  0  0  0  0  0
   -3.1051    5.4096    7.5073 C   0  0  0  0  0  0  0  0  0  0  0  0
   -1.9575    5.1696    7.1905 O   0  0  0  0  0  0  0  0  0  0  0  0
   -5.5735    6.6658   12.5087 C   0  0  0  0  0  0  0  0  0  0  0  0
    9.8152   -9.6805   -4.9511 C   0  0  0  0  0  0  0  0  0  0  0  0
    8.4834   -5.7162   -2.8948 H   0  0  0  0  0  0  0  0  0  0  0  0
   10.1168   -7.5315   -3.3559 H   0  0  0  0  0  0  0  0  0  0  0  0
    7.3559   -9.4214   -6.0039 H   0  0  0  0  0  0  0  0  0  0  0  0
    2.8718   -6.2093   -5.7097 H   0  0  0  0  0  0  0  0  0  0  0  0
    0.9515   -4.8598   -5.2665 H   0  0  0  0  0  0  0  0  0  0  0  0
    4.1329    0.9361   -0.0208 H   0  0  0  0  0  0  0  0  0  0  0  0
    5.5572    2.7083   -0.9341 H   0  0  0  0  0  0  0  0  0  0  0  0
    6.0010    3.3494   -4.5342 H   0  0  0  0  0  0  0  0  0  0  0  0
    6.6411    3.6688   -2.9159 H   0  0  0  0  0  0  0  0  0  0  0  0
    5.5714    5.7034   -3.8615 H   0  0  0  0  0  0  0  0  0  0  0  0
    4.6859    5.1452   -2.4378 H   0  0  0  0  0  0  0  0  0  0  0  0
    4.0487    4.8270   -4.0506 H   0  0  0  0  0  0  0  0  0  0  0  0
    3.9909    1.9632   -4.8290 H   0  0  0  0  0  0  0  0  0  0  0  0
    2.5518    0.2078   -3.9205 H   0  0  0  0  0  0  0  0  0  0  0  0
    4.8089   -1.6296   -1.4426 H   0  0  0  0  0  0  0  0  0  0  0  0
    5.9643   -3.0694    0.1612 H   0  0  0  0  0  0  0  0  0  0  0  0
    5.7670   -4.6052    2.0808 H   0  0  0  0  0  0  0  0  0  0  0  0
    4.3848   -4.4955    3.1808 H   0  0  0  0  0  0  0  0  0  0  0  0
    5.2582   -2.3274    4.0560 H   0  0  0  0  0  0  0  0  0  0  0  0
    6.4469   -3.6188    4.2597 H   0  0  0  0  0  0  0  0  0  0  0  0
    6.6349   -2.4370    2.9594 H   0  0  0  0  0  0  0  0  0  0  0  0
    2.5827   -2.8962    2.7562 H   0  0  0  0  0  0  0  0  0  0  0  0
    1.4086   -1.4818    1.1394 H   0  0  0  0  0  0  0  0  0  0  0  0
   -2.1816   -0.1550   -1.9313 H   0  0  0  0  0  0  0  0  0  0  0  0
   -1.5918    2.9067   -2.0437 H   0  0  0  0  0  0  0  0  0  0  0  0
   -2.5045    4.7087   -3.4258 H   0  0  0  0  0  0  0  0  0  0  0  0
   -4.0886    6.5643   -3.6216 H   0  0  0  0  0  0  0  0  0  0  0  0
   -5.5182    6.6399   -2.5812 H   0  0  0  0  0  0  0  0  0  0  0  0
   -5.1350    4.7058   -4.9180 H   0  0  0  0  0  0  0  0  0  0  0  0
   -6.5589    4.7811   -3.8799 H   0  0  0  0  0  0  0  0  0  0  0  0
   -6.1603    6.1449   -4.9299 H   0  0  0  0  0  0  0  0  0  0  0  0
   -6.0023    4.8229   -0.9878 H   0  0  0  0  0  0  0  0  0  0  0  0
   -5.1013    3.0066    0.3886 H   0  0  0  0  0  0  0  0  0  0  0  0
   -3.1782    0.3868    2.5187 H   0  0  0  0  0  0  0  0  0  0  0  0
   -4.8356   -1.3589    2.9571 H   0  0  0  0  0  0  0  0  0  0  0  0
   -6.3540   -3.0478    2.0432 H   0  0  0  0  0  0  0  0  0  0  0  0
   -6.9026   -2.9506    0.3636 H   0  0  0  0  0  0  0  0  0  0  0  0
   -8.7626   -2.4428    1.9337 H   0  0  0  0  0  0  0  0  0  0  0  0
   -7.8247   -1.1170    2.6301 H   0  0  0  0  0  0  0  0  0  0  0  0
   -8.3720   -1.0232    0.9569 H   0  0  0  0  0  0  0  0  0  0  0  0
   -6.2264   -1.0594   -1.0625 H   0  0  0  0  0  0  0  0  0  0  0  0
   -4.5862    0.7089   -1.4999 H   0  0  0  0  0  0  0  0  0  0  0  0
    1.7748    1.3347    0.7675 H   0  0  0  0  0  0  0  0  0  0  0  0
   -1.5732    4.6843    5.2663 H   0  0  0  0  0  0  0  0  0  0  0  0
   -5.5024    4.9559    5.0088 H   0  0  0  0  0  0  0  0  0  0  0  0
   -6.6507    6.5557   10.0459 H   0  0  0  0  0  0  0  0  0  0  0  0
   -2.9647    6.1067   12.1494 H   0  0  0  0  0  0  0  0  0  0  0  0
   -1.7885    5.5406   10.0344 H   0  0  0  0  0  0  0  0  0  0  0  0
   -4.9242    7.2194   13.1830 H   0  0  0  0  0  0  0  0  0  0  0  0
   -6.4798    7.2394   12.3333 H   0  0  0  0  0  0  0  0  0  0  0  0
   -5.8532    5.7347   13.0030 H   0  0  0  0  0  0  0  0  0  0  0  0
    9.7139  -10.4432   -4.1782 H   0  0  0  0  0  0  0  0  0  0  0  0
    9.6374  -10.1528   -5.9138 H   0  0  0  0  0  0  0  0  0  0  0  0
   10.8354   -9.3055   -4.9189 H   0  0  0  0  0  0  0  0  0  0  0  0
  1  2  2  0  0  0  0
  1  3  1  0  0  0  0
  3  4  2  0  0  0  0
  4  5  1  0  0  0  0
  5  6  2  0  0  0  0
  6  7  1  0  0  0  0
  7  8  2  0  0  0  0
  3  8  1  0  0  0  0
  8  9  1  0  0  0  0
  9 10  2  0  0  0  0
 10 11  1  0  0  0  0
 11 12  3  0  0  0  0
 10 13  1  0  0  0  0
 13 14  3  0  0  0  0
  9 15  1  0  0  0  0
  1 15  1  0  0  0  0
 15 16  2  0  0  0  0
 16 17  1  0  0  0  0
 17 18  2  0  0  0  0
 18 19  1  0  0  0  0
 19 20  2  0  0  0  0
 20 21  1  0  0  0  0
 17 21  1  0  0  0  0
 20 22  1  0  0  0  0
 22 23  1  0  0  0  0
 23 24  1  0  0  0  0
 24 25  2  0  0  0  0
 25 26  1  0  0  0  0
 26 27  2  0  0  0  0
 27 28  1  0  0  0  0
 28 29  1  0  0  0  0
 27 30  1  0  0  0  0
 30 31  2  0  0  0  0
 24 31  1  0  0  0  0
 23 32  1  0  0  0  0
 32 33  2  0  0  0  0
 33 34  1  0  0  0  0
 34 35  2  0  0  0  0
 35 36  1  0  0  0  0
 36 37  1  0  0  0  0
 35 38  1  0  0  0  0
 38 39  2  0  0  0  0
 32 39  1  0  0  0  0
 23 40  1  0  0  0  0
 40 41  2  0  0  0  0
 41 42  1  0  0  0  0
 22 42  2  0  0  0  0
 42 43  1  0  0  0  0
 19 43  1  0  0  0  0
 41 44  1  0  0  0  0
 44 45  2  0  0  0  0
 45 46  1  0  0  0  0
 46 47  1  0  0  0  0
 47 48  2  0  0  0  0
 48 49  1  0  0  0  0
 49 50  2  0  0  0  0
 50 51  1  0  0  0  0
 51 52  1  0  0  0  0
 50 53  1  0  0  0  0
 53 54  2  0  0  0  0
 47 54  1  0  0  0  0
 46 55  1  0  0  0  0
 55 56  2  0  0  0  0
 56 57  1  0  0  0  0
 57 58  2  0  0  0  0
 58 59  1  0  0  0  0
 59 60  1  0  0  0  0
 58 61  1  0  0  0  0
 61 62  2  0  0  0  0
 55 62  1  0  0  0  0
 46 63  1  0  0  0  0
 63 64  2  0  0  0  0
 64 65  1  0  0  0  0
 45 65  1  0  0  0  0
 65 66  2  0  0  0  0
 40 66  1  0  0  0  0
 64 67  1  0  0  0  0
 67 68  1  0  0  0  0
 68 69  2  0  0  0  0
 63 69  1  0  0  0  0
 69 70  1  0  0  0  0
 70 71  1  0  0  0  0
 71 72  2  0  0  0  0
 68 72  1  0  0  0  0
 71 73  1  0  0  0  0
 73 74  2  0  0  0  0
 74 75  1  0  0  0  0
 75 76  2  0  0  0  0
 76 77  1  0  0  0  0
 77 78  3  0  0  0  0
 76 79  1  0  0  0  0
 79 80  3  0  0  0  0
 75 81  1  0  0  0  0
 81 82  2  0  0  0  0
 82 83  1  0  0  0  0
 83 84  2  0  0  0  0
 84 85  1  0  0  0  0
 85 86  2  0  0  0  0
 81 86  1  0  0  0  0
 86 87  1  0  0  0  0
 74 87  1  0  0  0  0
 87 88  2  0  0  0  0
 83 89  1  0  0  0  0
  6 90  1  0  0  0  0
  4 91  1  0  0  0  0
  5 92  1  0  0  0  0
  7 93  1  0  0  0  0
 16 94  1  0  0  0  0
 18 95  1  0  0  0  0
 25 96  1  0  0  0  0
 26 97  1  0  0  0  0
 28 98  1  0  0  0  0
 28 99  1  0  0  0  0
 29100  1  0  0  0  0
 29101  1  0  0  0  0
 29102  1  0  0  0  0
 30103  1  0  0  0  0
 31104  1  0  0  0  0
 33105  1  0  0  0  0
 34106  1  0  0  0  0
 36107  1  0  0  0  0
 36108  1  0  0  0  0
 37109  1  0  0  0  0
 37110  1  0  0  0  0
 37111  1  0  0  0  0
 38112  1  0  0  0  0
 39113  1  0  0  0  0
 44114  1  0  0  0  0
 48115  1  0  0  0  0
 49116  1  0  0  0  0
 51117  1  0  0  0  0
 51118  1  0  0  0  0
 52119  1  0  0  0  0
 52120  1  0  0  0  0
 52121  1  0  0  0  0
 53122  1  0  0  0  0
 54123  1  0  0  0  0
 56124  1  0  0  0  0
 57125  1  0  0  0  0
 59126  1  0  0  0  0
 59127  1  0  0  0  0
 60128  1  0  0  0  0
 60129  1  0  0  0  0
 60130  1  0  0  0  0
 61131  1  0  0  0  0
 62132  1  0  0  0  0
 66133  1  0  0  0  0
 72134  1  0  0  0  0
 73135  1  0  0  0  0
 82136  1  0  0  0  0
 84137  1  0  0  0  0
 85138  1  0  0  0  0
 89139  1  0  0  0  0
 89140  1  0  0  0  0
 89141  1  0  0  0  0
 90142  1  0  0  0  0
 90143  1  0  0  0  0
 90144  1  0  0  0  0
M  END
