IT-OM-1.sdf
  xtb     12202113293D
 energy: -239.670008106585 gnorm: 0.000337356576 xtb: 6.4.1 (unknown)
146160  0     0  0            999 V2000
   -4.9292    6.9488   -4.3850 C   0  0  0  0  0  0  0  0  0  0  0  0
   -4.5063    6.6752   -3.2760 O   0  0  0  0  0  0  0  0  0  0  0  0
   -5.9804    7.9359   -4.6946 C   0  0  0  0  0  0  0  0  0  0  0  0
   -6.7272    8.6935   -3.8162 C   0  0  0  0  0  0  0  0  0  0  0  0
   -7.7202    9.5032   -4.3485 C   0  0  0  0  0  0  0  0  0  0  0  0
   -7.9807    9.5112   -5.7076 C   0  0  0  0  0  0  0  0  0  0  0  0
   -7.2368    8.7345   -6.6033 C   0  0  0  0  0  0  0  0  0  0  0  0
   -6.1799    7.9745   -6.0842 C   0  0  0  0  0  0  0  0  0  0  0  0
   -5.1987    7.1099   -6.7291 C   0  0  0  0  0  0  0  0  0  0  0  0
   -4.8557    7.1045   -8.0557 C   0  0  0  0  0  0  0  0  0  0  0  0
   -3.8705    6.2709   -8.6297 C   0  0  0  0  0  0  0  0  0  0  0  0
   -3.0938    5.6309   -9.1842 N   0  0  0  0  0  0  0  0  0  0  0  0
   -5.3212    7.9891   -9.0540 C   0  0  0  0  0  0  0  0  0  0  0  0
   -5.5508    8.6786   -9.9432 N   0  0  0  0  0  0  0  0  0  0  0  0
   -4.5309    6.3646   -5.6701 C   0  0  0  0  0  0  0  0  0  0  0  0
   -3.7195    5.2755   -5.8418 C   0  0  0  0  0  0  0  0  0  0  0  0
   -3.0445    4.4852   -4.8967 C   0  0  0  0  0  0  0  0  0  0  0  0
   -2.3177    3.3533   -5.2711 C   0  0  0  0  0  0  0  0  0  0  0  0
   -1.7468    2.7136   -4.1879 C   0  0  0  0  0  0  0  0  0  0  0  0
   -2.0140    3.3521   -2.9586 C   0  0  0  0  0  0  0  0  0  0  0  0
   -2.9929    4.7525   -3.1575 S   0  0  0  0  0  0  0  0  0  0  0  0
   -1.4505    2.6669   -1.8841 C   0  0  0  0  0  0  0  0  0  0  0  0
   -1.3543    2.8407   -0.3927 C   0  0  0  0  0  0  0  0  0  0  0  0
   -2.6941    2.8089    0.3163 C   0  0  0  0  0  0  0  0  0  0  0  0
   -3.8013    2.2117   -0.2684 C   0  0  0  0  0  0  0  0  0  0  0  0
   -5.0083    2.1622    0.4044 C   0  0  0  0  0  0  0  0  0  0  0  0
   -5.1369    2.6938    1.6799 C   0  0  0  0  0  0  0  0  0  0  0  0
   -6.4610    2.6865    2.3876 C   0  0  0  0  0  0  0  0  0  0  0  0
   -7.2350    3.9699    2.0795 C   0  0  0  0  0  0  0  0  0  0  0  0
   -4.0215    3.2781    2.2664 C   0  0  0  0  0  0  0  0  0  0  0  0
   -2.8146    3.3344    1.5966 C   0  0  0  0  0  0  0  0  0  0  0  0
   -0.6175    4.1457   -0.1430 C   0  0  0  0  0  0  0  0  0  0  0  0
    0.7414    4.1827    0.1309 C   0  0  0  0  0  0  0  0  0  0  0  0
    1.3874    5.3957    0.2931 C   0  0  0  0  0  0  0  0  0  0  0  0
    0.6996    6.5947    0.1714 C   0  0  0  0  0  0  0  0  0  0  0  0
    1.3952    7.9085    0.3841 C   0  0  0  0  0  0  0  0  0  0  0  0
    1.2819    8.3444    1.8463 C   0  0  0  0  0  0  0  0  0  0  0  0
   -0.6600    6.5499   -0.1125 C   0  0  0  0  0  0  0  0  0  0  0  0
   -1.3121    5.3431   -0.2703 C   0  0  0  0  0  0  0  0  0  0  0  0
   -0.5651    1.6005   -0.0122 C   0  0  0  0  0  0  0  0  0  0  0  0
   -0.2225    0.8457   -1.1599 C   0  0  0  0  0  0  0  0  0  0  0  0
   -0.7641    1.5354   -2.2891 C   0  0  0  0  0  0  0  0  0  0  0  0
   -0.7820    1.2716   -4.0012 S   0  0  0  0  0  0  0  0  0  0  0  0
    0.4880   -0.3486   -1.0706 C   0  0  0  0  0  0  0  0  0  0  0  0
    0.8343   -0.7816    0.1880 C   0  0  0  0  0  0  0  0  0  0  0  0
    1.5957   -2.0382    0.5736 C   0  0  0  0  0  0  0  0  0  0  0  0
    0.8512   -3.3297    0.2825 C   0  0  0  0  0  0  0  0  0  0  0  0
   -0.5013   -3.3476   -0.0234 C   0  0  0  0  0  0  0  0  0  0  0  0
   -1.1535   -4.5502   -0.2317 C   0  0  0  0  0  0  0  0  0  0  0  0
   -0.4774   -5.7577   -0.1306 C   0  0  0  0  0  0  0  0  0  0  0  0
   -1.1972   -7.0634   -0.3106 C   0  0  0  0  0  0  0  0  0  0  0  0
   -1.6880   -7.5916    1.0388 C   0  0  0  0  0  0  0  0  0  0  0  0
    0.8738   -5.7328    0.1928 C   0  0  0  0  0  0  0  0  0  0  0  0
    1.5318   -4.5364    0.3974 C   0  0  0  0  0  0  0  0  0  0  0  0
    2.9548   -2.0141   -0.0996 C   0  0  0  0  0  0  0  0  0  0  0  0
    4.0591   -1.4566    0.5283 C   0  0  0  0  0  0  0  0  0  0  0  0
    5.2844   -1.4192   -0.1114 C   0  0  0  0  0  0  0  0  0  0  0  0
    5.4364   -1.9285   -1.3937 C   0  0  0  0  0  0  0  0  0  0  0  0
    6.7597   -1.8532   -2.0992 C   0  0  0  0  0  0  0  0  0  0  0  0
    6.8878   -0.5313   -2.8588 C   0  0  0  0  0  0  0  0  0  0  0  0
    4.3233   -2.4687   -2.0247 C   0  0  0  0  0  0  0  0  0  0  0  0
    3.0978   -2.5122   -1.3884 C   0  0  0  0  0  0  0  0  0  0  0  0
    1.6551   -1.8857    2.0698 C   0  0  0  0  0  0  0  0  0  0  0  0
    0.9986   -0.7340    2.4679 C   0  0  0  0  0  0  0  0  0  0  0  0
    0.4926   -0.0256    1.3348 C   0  0  0  0  0  0  0  0  0  0  0  0
   -0.2127    1.1714    1.2455 C   0  0  0  0  0  0  0  0  0  0  0  0
    0.9731   -0.4872    4.1819 S   0  0  0  0  0  0  0  0  0  0  0  0
    1.8608   -1.9753    4.3821 C   0  0  0  0  0  0  0  0  0  0  0  0
    2.1485   -2.6089    3.1544 C   0  0  0  0  0  0  0  0  0  0  0  0
    3.0198   -4.0762    3.3755 S   0  0  0  0  0  0  0  0  0  0  0  0
    3.0041   -3.8384    5.1197 C   0  0  0  0  0  0  0  0  0  0  0  0
    2.3422   -2.6627    5.4789 C   0  0  0  0  0  0  0  0  0  0  0  0
    3.5800   -4.6818    6.0838 C   0  0  0  0  0  0  0  0  0  0  0  0
    4.2285   -5.8793    5.9445 C   0  0  0  0  0  0  0  0  0  0  0  0
    4.8128   -6.6661    7.0224 C   0  0  0  0  0  0  0  0  0  0  0  0
    5.1255   -6.2052    8.2747 C   0  0  0  0  0  0  0  0  0  0  0  0
    5.9008   -6.8635    9.2554 C   0  0  0  0  0  0  0  0  0  0  0  0
    6.5675   -7.2383   10.1121 N   0  0  0  0  0  0  0  0  0  0  0  0
    4.8133   -4.9165    8.7614 C   0  0  0  0  0  0  0  0  0  0  0  0
    4.6008   -3.8959    9.2449 N   0  0  0  0  0  0  0  0  0  0  0  0
    5.1459   -7.9703    6.4617 C   0  0  0  0  0  0  0  0  0  0  0  0
    5.5380   -9.1718    7.0673 C   0  0  0  0  0  0  0  0  0  0  0  0
    5.8433  -10.2526    6.2323 C   0  0  0  0  0  0  0  0  0  0  0  0
    5.7235  -10.1639    4.8564 C   0  0  0  0  0  0  0  0  0  0  0  0
    5.2620   -9.0030    4.2529 C   0  0  0  0  0  0  0  0  0  0  0  0
    4.9729   -7.9285    5.0686 C   0  0  0  0  0  0  0  0  0  0  0  0
    4.4112   -6.6180    4.6907 C   0  0  0  0  0  0  0  0  0  0  0  0
    4.1393   -6.2523    3.5611 O   0  0  0  0  0  0  0  0  0  0  0  0
    5.5465   -9.2198    8.4105 O   0  0  0  0  0  0  0  0  0  0  0  0
    6.0378  -10.3604    9.0766 C   0  0  0  0  0  0  0  0  0  0  0  0
   -7.4980    8.6267   -7.9177 O   0  0  0  0  0  0  0  0  0  0  0  0
   -8.4858    9.4378   -8.5114 C   0  0  0  0  0  0  0  0  0  0  0  0
   -6.5365    8.6449   -2.7562 H   0  0  0  0  0  0  0  0  0  0  0  0
   -8.3182   10.1222   -3.6968 H   0  0  0  0  0  0  0  0  0  0  0  0
   -8.7860   10.1249   -6.0788 H   0  0  0  0  0  0  0  0  0  0  0  0
   -3.5839    4.9229   -6.8572 H   0  0  0  0  0  0  0  0  0  0  0  0
   -2.2283    3.0330   -6.2935 H   0  0  0  0  0  0  0  0  0  0  0  0
   -3.7253    1.7838   -1.2575 H   0  0  0  0  0  0  0  0  0  0  0  0
   -5.8627    1.7004   -0.0699 H   0  0  0  0  0  0  0  0  0  0  0  0
   -7.0493    1.8249    2.0653 H   0  0  0  0  0  0  0  0  0  0  0  0
   -6.3051    2.6101    3.4657 H   0  0  0  0  0  0  0  0  0  0  0  0
   -6.6715    4.8394    2.4104 H   0  0  0  0  0  0  0  0  0  0  0  0
   -7.4042    4.0609    1.0088 H   0  0  0  0  0  0  0  0  0  0  0  0
   -8.1977    3.9655    2.5855 H   0  0  0  0  0  0  0  0  0  0  0  0
   -4.0989    3.6944    3.2608 H   0  0  0  0  0  0  0  0  0  0  0  0
   -1.9617    3.8030    2.0659 H   0  0  0  0  0  0  0  0  0  0  0  0
    1.3024    3.2635    0.2182 H   0  0  0  0  0  0  0  0  0  0  0  0
    2.4463    5.4072    0.5100 H   0  0  0  0  0  0  0  0  0  0  0  0
    0.9450    8.6715   -0.2541 H   0  0  0  0  0  0  0  0  0  0  0  0
    2.4498    7.8172    0.1164 H   0  0  0  0  0  0  0  0  0  0  0  0
    1.7378    7.6027    2.4984 H   0  0  0  0  0  0  0  0  0  0  0  0
    0.2371    8.4521    2.1287 H   0  0  0  0  0  0  0  0  0  0  0  0
    1.7835    9.2972    1.9997 H   0  0  0  0  0  0  0  0  0  0  0  0
   -1.2151    7.4705   -0.2195 H   0  0  0  0  0  0  0  0  0  0  0  0
   -2.3686    5.3295   -0.4942 H   0  0  0  0  0  0  0  0  0  0  0  0
    0.7411   -0.9089   -1.9572 H   0  0  0  0  0  0  0  0  0  0  0  0
   -1.0521   -2.4215   -0.1020 H   0  0  0  0  0  0  0  0  0  0  0  0
   -2.2063   -4.5465   -0.4765 H   0  0  0  0  0  0  0  0  0  0  0  0
   -2.0512   -6.9283   -0.9774 H   0  0  0  0  0  0  0  0  0  0  0  0
   -0.5247   -7.7970   -0.7600 H   0  0  0  0  0  0  0  0  0  0  0  0
   -0.8484   -7.7396    1.7142 H   0  0  0  0  0  0  0  0  0  0  0  0
   -2.3727   -6.8807    1.4962 H   0  0  0  0  0  0  0  0  0  0  0  0
   -2.2049   -8.5402    0.9123 H   0  0  0  0  0  0  0  0  0  0  0  0
    1.4194   -6.6604    0.2866 H   0  0  0  0  0  0  0  0  0  0  0  0
    2.5830   -4.5386    0.6450 H   0  0  0  0  0  0  0  0  0  0  0  0
    3.9672   -1.0529    1.5261 H   0  0  0  0  0  0  0  0  0  0  0  0
    6.1366   -0.9914    0.3971 H   0  0  0  0  0  0  0  0  0  0  0  0
    6.8511   -2.6828   -2.8032 H   0  0  0  0  0  0  0  0  0  0  0  0
    7.5711   -1.9307   -1.3727 H   0  0  0  0  0  0  0  0  0  0  0  0
    6.8130    0.3087   -2.1718 H   0  0  0  0  0  0  0  0  0  0  0  0
    7.8458   -0.4776   -3.3707 H   0  0  0  0  0  0  0  0  0  0  0  0
    6.0937   -0.4404   -3.5965 H   0  0  0  0  0  0  0  0  0  0  0  0
    4.4183   -2.8668   -3.0250 H   0  0  0  0  0  0  0  0  0  0  0  0
    2.2483   -2.9522   -1.8904 H   0  0  0  0  0  0  0  0  0  0  0  0
   -0.4688    1.7301    2.1324 H   0  0  0  0  0  0  0  0  0  0  0  0
    2.2348   -2.3459    6.5007 H   0  0  0  0  0  0  0  0  0  0  0  0
    3.4581   -4.3077    7.0931 H   0  0  0  0  0  0  0  0  0  0  0  0
    6.1698  -11.1839    6.6672 H   0  0  0  0  0  0  0  0  0  0  0  0
    5.9748  -11.0226    4.2523 H   0  0  0  0  0  0  0  0  0  0  0  0
    5.1276   -8.9284    3.1858 H   0  0  0  0  0  0  0  0  0  0  0  0
    7.0584  -10.5960    8.7636 H   0  0  0  0  0  0  0  0  0  0  0  0
    5.3891  -11.2268    8.9155 H   0  0  0  0  0  0  0  0  0  0  0  0
    6.0397  -10.0914   10.1313 H   0  0  0  0  0  0  0  0  0  0  0  0
   -9.4843    9.1857   -8.1411 H   0  0  0  0  0  0  0  0  0  0  0  0
   -8.4228    9.2250   -9.5769 H   0  0  0  0  0  0  0  0  0  0  0  0
   -8.2836   10.4990   -8.3440 H   0  0  0  0  0  0  0  0  0  0  0  0
  1  2  2  0  0  0  0
  1  3  1  0  0  0  0
  3  4  2  0  0  0  0
  4  5  1  0  0  0  0
  5  6  2  0  0  0  0
  6  7  1  0  0  0  0
  7  8  2  0  0  0  0
  3  8  1  0  0  0  0
  8  9  1  0  0  0  0
  9 10  2  0  0  0  0
 10 11  1  0  0  0  0
 11 12  3  0  0  0  0
 10 13  1  0  0  0  0
 13 14  3  0  0  0  0
  9 15  1  0  0  0  0
  1 15  1  0  0  0  0
 15 16  2  0  0  0  0
 16 17  1  0  0  0  0
 17 18  2  0  0  0  0
 18 19  1  0  0  0  0
 19 20  2  0  0  0  0
 20 21  1  0  0  0  0
 17 21  1  0  0  0  0
 20 22  1  0  0  0  0
 22 23  1  0  0  0  0
 23 24  1  0  0  0  0
 24 25  2  0  0  0  0
 25 26  1  0  0  0  0
 26 27  2  0  0  0  0
 27 28  1  0  0  0  0
 28 29  1  0  0  0  0
 27 30  1  0  0  0  0
 30 31  2  0  0  0  0
 24 31  1  0  0  0  0
 23 32  1  0  0  0  0
 32 33  2  0  0  0  0
 33 34  1  0  0  0  0
 34 35  2  0  0  0  0
 35 36  1  0  0  0  0
 36 37  1  0  0  0  0
 35 38  1  0  0  0  0
 38 39  2  0  0  0  0
 32 39  1  0  0  0  0
 23 40  1  0  0  0  0
 40 41  2  0  0  0  0
 41 42  1  0  0  0  0
 22 42  2  0  0  0  0
 42 43  1  0  0  0  0
 19 43  1  0  0  0  0
 41 44  1  0  0  0  0
 44 45  2  0  0  0  0
 45 46  1  0  0  0  0
 46 47  1  0  0  0  0
 47 48  2  0  0  0  0
 48 49  1  0  0  0  0
 49 50  2  0  0  0  0
 50 51  1  0  0  0  0
 51 52  1  0  0  0  0
 50 53  1  0  0  0  0
 53 54  2  0  0  0  0
 47 54  1  0  0  0  0
 46 55  1  0  0  0  0
 55 56  2  0  0  0  0
 56 57  1  0  0  0  0
 57 58  2  0  0  0  0
 58 59  1  0  0  0  0
 59 60  1  0  0  0  0
 58 61  1  0  0  0  0
 61 62  2  0  0  0  0
 55 62  1  0  0  0  0
 46 63  1  0  0  0  0
 63 64  2  0  0  0  0
 64 65  1  0  0  0  0
 45 65  1  0  0  0  0
 65 66  2  0  0  0  0
 40 66  1  0  0  0  0
 64 67  1  0  0  0  0
 67 68  1  0  0  0  0
 68 69  2  0  0  0  0
 63 69  1  0  0  0  0
 69 70  1  0  0  0  0
 70 71  1  0  0  0  0
 71 72  2  0  0  0  0
 68 72  1  0  0  0  0
 71 73  1  0  0  0  0
 73 74  2  0  0  0  0
 74 75  1  0  0  0  0
 75 76  2  0  0  0  0
 76 77  1  0  0  0  0
 77 78  3  0  0  0  0
 76 79  1  0  0  0  0
 79 80  3  0  0  0  0
 75 81  1  0  0  0  0
 81 82  2  0  0  0  0
 82 83  1  0  0  0  0
 83 84  2  0  0  0  0
 84 85  1  0  0  0  0
 85 86  2  0  0  0  0
 81 86  1  0  0  0  0
 86 87  1  0  0  0  0
 74 87  1  0  0  0  0
 87 88  2  0  0  0  0
 82 89  1  0  0  0  0
 89 90  1  0  0  0  0
  7 91  1  0  0  0  0
 91 92  1  0  0  0  0
  4 93  1  0  0  0  0
  5 94  1  0  0  0  0
  6 95  1  0  0  0  0
 16 96  1  0  0  0  0
 18 97  1  0  0  0  0
 25 98  1  0  0  0  0
 26 99  1  0  0  0  0
 28100  1  0  0  0  0
 28101  1  0  0  0  0
 29102  1  0  0  0  0
 29103  1  0  0  0  0
 29104  1  0  0  0  0
 30105  1  0  0  0  0
 31106  1  0  0  0  0
 33107  1  0  0  0  0
 34108  1  0  0  0  0
 36109  1  0  0  0  0
 36110  1  0  0  0  0
 37111  1  0  0  0  0
 37112  1  0  0  0  0
 37113  1  0  0  0  0
 38114  1  0  0  0  0
 39115  1  0  0  0  0
 44116  1  0  0  0  0
 48117  1  0  0  0  0
 49118  1  0  0  0  0
 51119  1  0  0  0  0
 51120  1  0  0  0  0
 52121  1  0  0  0  0
 52122  1  0  0  0  0
 52123  1  0  0  0  0
 53124  1  0  0  0  0
 54125  1  0  0  0  0
 56126  1  0  0  0  0
 57127  1  0  0  0  0
 59128  1  0  0  0  0
 59129  1  0  0  0  0
 60130  1  0  0  0  0
 60131  1  0  0  0  0
 60132  1  0  0  0  0
 61133  1  0  0  0  0
 62134  1  0  0  0  0
 66135  1  0  0  0  0
 72136  1  0  0  0  0
 73137  1  0  0  0  0
 83138  1  0  0  0  0
 84139  1  0  0  0  0
 85140  1  0  0  0  0
 90141  1  0  0  0  0
 90142  1  0  0  0  0
 90143  1  0  0  0  0
 92144  1  0  0  0  0
 92145  1  0  0  0  0
 92146  1  0  0  0  0
M  END
