ITCC-M.sdf
  xtb     12202113573D
 energy: -227.416109466374 gnorm: 0.000706932437 xtb: 6.4.1 (unknown)
138152  0     0  0            999 V2000
   -8.3272   -5.1747    0.4994 C   0  0  0  0  0  0  0  0  0  0  0  0
   -7.2363   -5.6120    0.1936 O   0  0  0  0  0  0  0  0  0  0  0  0
   -9.4758   -5.9375    0.9682 C   0  0  0  0  0  0  0  0  0  0  0  0
  -10.5736   -5.1226    1.1979 C   0  0  0  0  0  0  0  0  0  0  0  0
  -10.2103   -3.7546    0.8892 C   0  0  0  0  0  0  0  0  0  0  0  0
  -11.0736   -2.6943    0.9912 C   0  0  0  0  0  0  0  0  0  0  0  0
  -12.4070   -2.8700    1.4186 C   0  0  0  0  0  0  0  0  0  0  0  0
  -13.4947   -2.9823    1.7670 N   0  0  0  0  0  0  0  0  0  0  0  0
  -10.8000   -1.3423    0.7043 C   0  0  0  0  0  0  0  0  0  0  0  0
  -10.6707   -0.2196    0.4966 N   0  0  0  0  0  0  0  0  0  0  0  0
   -8.8102   -3.7641    0.4800 C   0  0  0  0  0  0  0  0  0  0  0  0
   -8.1152   -2.6237    0.1873 C   0  0  0  0  0  0  0  0  0  0  0  0
   -6.7669   -2.3990   -0.1515 C   0  0  0  0  0  0  0  0  0  0  0  0
   -5.6909   -3.2487   -0.3528 C   0  0  0  0  0  0  0  0  0  0  0  0
   -4.5176   -2.5506   -0.5973 C   0  0  0  0  0  0  0  0  0  0  0  0
   -4.6637   -1.1470   -0.5947 C   0  0  0  0  0  0  0  0  0  0  0  0
   -6.2938   -0.6973   -0.3034 S   0  0  0  0  0  0  0  0  0  0  0  0
   -3.4525   -0.4885   -0.7888 C   0  0  0  0  0  0  0  0  0  0  0  0
   -2.9508    0.9303   -0.7958 C   0  0  0  0  0  0  0  0  0  0  0  0
   -3.4069    1.5885    0.4929 C   0  0  0  0  0  0  0  0  0  0  0  0
   -2.6024    1.6202    1.6224 C   0  0  0  0  0  0  0  0  0  0  0  0
   -3.0706    2.1816    2.7970 C   0  0  0  0  0  0  0  0  0  0  0  0
   -4.3505    2.7126    2.8761 C   0  0  0  0  0  0  0  0  0  0  0  0
   -4.8710    3.2829    4.1637 C   0  0  0  0  0  0  0  0  0  0  0  0
   -5.6083    2.2076    4.9643 C   0  0  0  0  0  0  0  0  0  0  0  0
   -5.1590    2.6576    1.7475 C   0  0  0  0  0  0  0  0  0  0  0  0
   -4.6962    2.1020    0.5710 C   0  0  0  0  0  0  0  0  0  0  0  0
   -3.3849    1.7200   -2.0183 C   0  0  0  0  0  0  0  0  0  0  0  0
   -3.2849    3.1057   -2.0161 C   0  0  0  0  0  0  0  0  0  0  0  0
   -3.6429    3.8360   -3.1328 C   0  0  0  0  0  0  0  0  0  0  0  0
   -4.1085    3.2054   -4.2796 C   0  0  0  0  0  0  0  0  0  0  0  0
   -4.4616    3.9992   -5.5041 C   0  0  0  0  0  0  0  0  0  0  0  0
   -3.2340    4.1748   -6.4003 C   0  0  0  0  0  0  0  0  0  0  0  0
   -4.1954    1.8203   -4.2801 C   0  0  0  0  0  0  0  0  0  0  0  0
   -3.8353    1.0842   -3.1661 C   0  0  0  0  0  0  0  0  0  0  0  0
   -1.4516    0.7006   -0.8920 C   0  0  0  0  0  0  0  0  0  0  0  0
   -1.1581   -0.6790   -1.0075 C   0  0  0  0  0  0  0  0  0  0  0  0
   -2.4012   -1.3800   -0.9250 C   0  0  0  0  0  0  0  0  0  0  0  0
   -2.8670   -3.0448   -0.8541 S   0  0  0  0  0  0  0  0  0  0  0  0
    0.1487   -1.1485   -1.1120 C   0  0  0  0  0  0  0  0  0  0  0  0
    1.1566   -0.2152   -1.0581 C   0  0  0  0  0  0  0  0  0  0  0  0
    2.6559   -0.4535   -1.0698 C   0  0  0  0  0  0  0  0  0  0  0  0
    3.0160   -1.5102   -0.0475 C   0  0  0  0  0  0  0  0  0  0  0  0
    3.0055   -2.8527   -0.4046 C   0  0  0  0  0  0  0  0  0  0  0  0
    3.2976   -3.8278    0.5290 C   0  0  0  0  0  0  0  0  0  0  0  0
    3.6057   -3.4903    1.8408 C   0  0  0  0  0  0  0  0  0  0  0  0
    3.8839   -4.5582    2.8588 C   0  0  0  0  0  0  0  0  0  0  0  0
    2.5769   -5.0642    3.4725 C   0  0  0  0  0  0  0  0  0  0  0  0
    3.6012   -2.1485    2.1951 C   0  0  0  0  0  0  0  0  0  0  0  0
    3.3063   -1.1685    1.2651 C   0  0  0  0  0  0  0  0  0  0  0  0
    3.2047   -0.7943   -2.4473 C   0  0  0  0  0  0  0  0  0  0  0  0
    4.5377   -1.1721   -2.5606 C   0  0  0  0  0  0  0  0  0  0  0  0
    5.0874   -1.4322   -3.8004 C   0  0  0  0  0  0  0  0  0  0  0  0
    4.3249   -1.3207   -4.9567 C   0  0  0  0  0  0  0  0  0  0  0  0
    4.9378   -1.5558   -6.3073 C   0  0  0  0  0  0  0  0  0  0  0  0
    5.5178   -0.2535   -6.8631 C   0  0  0  0  0  0  0  0  0  0  0  0
    2.9971   -0.9356   -4.8363 C   0  0  0  0  0  0  0  0  0  0  0  0
    2.4402   -0.6707   -3.5976 C   0  0  0  0  0  0  0  0  0  0  0  0
    3.1612    0.9279   -0.7517 C   0  0  0  0  0  0  0  0  0  0  0  0
    2.1153    1.8351   -0.7358 C   0  0  0  0  0  0  0  0  0  0  0  0
    0.8651    1.1617   -0.9024 C   0  0  0  0  0  0  0  0  0  0  0  0
   -0.4433    1.6351   -0.8492 C   0  0  0  0  0  0  0  0  0  0  0  0
    2.5996    3.4678   -0.4188 S   0  0  0  0  0  0  0  0  0  0  0  0
    4.2501    2.9226   -0.2708 C   0  0  0  0  0  0  0  0  0  0  0  0
    4.3868    1.5355   -0.4881 C   0  0  0  0  0  0  0  0  0  0  0  0
    6.0091    1.0046   -0.2686 S   0  0  0  0  0  0  0  0  0  0  0  0
    6.5061    2.6460    0.1254 C   0  0  0  0  0  0  0  0  0  0  0  0
    5.4392    3.5437    0.0607 C   0  0  0  0  0  0  0  0  0  0  0  0
    7.7924    3.0570    0.5143 C   0  0  0  0  0  0  0  0  0  0  0  0
    8.9352    2.3355    0.7233 C   0  0  0  0  0  0  0  0  0  0  0  0
   10.1941    2.8819    1.2043 C   0  0  0  0  0  0  0  0  0  0  0  0
   10.5178    4.1854    1.4790 C   0  0  0  0  0  0  0  0  0  0  0  0
   11.7993    4.5445    1.9467 C   0  0  0  0  0  0  0  0  0  0  0  0
   12.8330    4.8594    2.3334 N   0  0  0  0  0  0  0  0  0  0  0  0
    9.6705    5.3015    1.3378 C   0  0  0  0  0  0  0  0  0  0  0  0
    9.0368    6.2560    1.2518 N   0  0  0  0  0  0  0  0  0  0  0  0
   11.1039    1.7631    1.3585 C   0  0  0  0  0  0  0  0  0  0  0  0
   10.4541    0.5999    0.9705 C   0  0  0  0  0  0  0  0  0  0  0  0
    9.0907    0.8743    0.5441 C   0  0  0  0  0  0  0  0  0  0  0  0
    8.2630    0.0843    0.1282 O   0  0  0  0  0  0  0  0  0  0  0  0
   -9.8013   -7.5810    1.3098 S   0  0  0  0  0  0  0  0  0  0  0  0
  -11.4331   -7.1748    1.7726 C   0  0  0  0  0  0  0  0  0  0  0  0
  -11.6950   -5.8381    1.6590 C   0  0  0  0  0  0  0  0  0  0  0  0
   11.4486   -0.7828    1.1245 S   0  0  0  0  0  0  0  0  0  0  0  0
   12.7548    0.2065    1.7214 C   0  0  0  0  0  0  0  0  0  0  0  0
   12.4238    1.5315    1.7879 C   0  0  0  0  0  0  0  0  0  0  0  0
   14.0477   -0.4218    2.0904 C   0  0  0  0  0  0  0  0  0  0  0  0
  -12.3577   -8.2417    2.2304 C   0  0  0  0  0  0  0  0  0  0  0  0
   -8.6826   -1.7024    0.2557 H   0  0  0  0  0  0  0  0  0  0  0  0
   -5.7747   -4.3186   -0.3069 H   0  0  0  0  0  0  0  0  0  0  0  0
   -1.6044    1.2077    1.5881 H   0  0  0  0  0  0  0  0  0  0  0  0
   -2.4279    2.2062    3.6656 H   0  0  0  0  0  0  0  0  0  0  0  0
   -5.5565    4.1061    3.9528 H   0  0  0  0  0  0  0  0  0  0  0  0
   -4.0423    3.6712    4.7592 H   0  0  0  0  0  0  0  0  0  0  0  0
   -6.4483    1.8200    4.3924 H   0  0  0  0  0  0  0  0  0  0  0  0
   -4.9392    1.3807    5.1922 H   0  0  0  0  0  0  0  0  0  0  0  0
   -5.9837    2.6189    5.8983 H   0  0  0  0  0  0  0  0  0  0  0  0
   -6.1626    3.0552    1.7889 H   0  0  0  0  0  0  0  0  0  0  0  0
   -5.3378    2.0726   -0.2978 H   0  0  0  0  0  0  0  0  0  0  0  0
   -2.9410    3.6169   -1.1288 H   0  0  0  0  0  0  0  0  0  0  0  0
   -3.5649    4.9137   -3.1114 H   0  0  0  0  0  0  0  0  0  0  0  0
   -5.2457    3.4862   -6.0646 H   0  0  0  0  0  0  0  0  0  0  0  0
   -4.8372    4.9819   -5.2123 H   0  0  0  0  0  0  0  0  0  0  0  0
   -2.4430    4.6917   -5.8615 H   0  0  0  0  0  0  0  0  0  0  0  0
   -2.8545    3.2056   -6.7165 H   0  0  0  0  0  0  0  0  0  0  0  0
   -3.4883    4.7540   -7.2848 H   0  0  0  0  0  0  0  0  0  0  0  0
   -4.5536    1.3083   -5.1619 H   0  0  0  0  0  0  0  0  0  0  0  0
   -3.9121    0.0069   -3.1939 H   0  0  0  0  0  0  0  0  0  0  0  0
    0.3530   -2.2042   -1.2021 H   0  0  0  0  0  0  0  0  0  0  0  0
    2.7813   -3.1344   -1.4235 H   0  0  0  0  0  0  0  0  0  0  0  0
    3.2918   -4.8673    0.2334 H   0  0  0  0  0  0  0  0  0  0  0  0
    4.5233   -4.1600    3.6490 H   0  0  0  0  0  0  0  0  0  0  0  0
    4.4052   -5.3928    2.3855 H   0  0  0  0  0  0  0  0  0  0  0  0
    2.0486   -4.2491    3.9621 H   0  0  0  0  0  0  0  0  0  0  0  0
    2.7763   -5.8407    4.2075 H   0  0  0  0  0  0  0  0  0  0  0  0
    1.9300   -5.4744    2.7003 H   0  0  0  0  0  0  0  0  0  0  0  0
    3.8345   -1.8641    3.2113 H   0  0  0  0  0  0  0  0  0  0  0  0
    3.3055   -0.1306    1.5654 H   0  0  0  0  0  0  0  0  0  0  0  0
    5.1458   -1.2657   -1.6727 H   0  0  0  0  0  0  0  0  0  0  0  0
    6.1248   -1.7255   -3.8697 H   0  0  0  0  0  0  0  0  0  0  0  0
    4.1815   -1.9360   -6.9970 H   0  0  0  0  0  0  0  0  0  0  0  0
    5.7338   -2.2988   -6.2283 H   0  0  0  0  0  0  0  0  0  0  0  0
    5.9617   -0.4209   -7.8417 H   0  0  0  0  0  0  0  0  0  0  0  0
    6.2838    0.1340   -6.1951 H   0  0  0  0  0  0  0  0  0  0  0  0
    4.7369    0.4976   -6.9592 H   0  0  0  0  0  0  0  0  0  0  0  0
    2.3866   -0.8397   -5.7232 H   0  0  0  0  0  0  0  0  0  0  0  0
    1.4052   -0.3679   -3.5318 H   0  0  0  0  0  0  0  0  0  0  0  0
   -0.6449    2.6894   -0.7400 H   0  0  0  0  0  0  0  0  0  0  0  0
    5.5494    4.5929    0.2684 H   0  0  0  0  0  0  0  0  0  0  0  0
    7.8540    4.1226    0.7032 H   0  0  0  0  0  0  0  0  0  0  0  0
  -12.6476   -5.4039    1.8996 H   0  0  0  0  0  0  0  0  0  0  0  0
   13.1018    2.2903    2.1321 H   0  0  0  0  0  0  0  0  0  0  0  0
   13.8986   -1.1882    2.8502 H   0  0  0  0  0  0  0  0  0  0  0  0
   14.7312    0.3300    2.4763 H   0  0  0  0  0  0  0  0  0  0  0  0
   14.5029   -0.8999    1.2234 H   0  0  0  0  0  0  0  0  0  0  0  0
  -12.4814   -9.0001    1.4581 H   0  0  0  0  0  0  0  0  0  0  0  0
  -11.9631   -8.7350    3.1182 H   0  0  0  0  0  0  0  0  0  0  0  0
  -13.3298   -7.8167    2.4666 H   0  0  0  0  0  0  0  0  0  0  0  0
  1  2  2  0  0  0  0
  1  3  1  0  0  0  0
  3  4  2  0  0  0  0
  4  5  1  0  0  0  0
  5  6  2  0  0  0  0
  6  7  1  0  0  0  0
  7  8  3  0  0  0  0
  6  9  1  0  0  0  0
  9 10  3  0  0  0  0
  5 11  1  0  0  0  0
  1 11  1  0  0  0  0
 11 12  2  0  0  0  0
 12 13  1  0  0  0  0
 13 14  2  0  0  0  0
 14 15  1  0  0  0  0
 15 16  2  0  0  0  0
 16 17  1  0  0  0  0
 13 17  1  0  0  0  0
 16 18  1  0  0  0  0
 18 19  1  0  0  0  0
 19 20  1  0  0  0  0
 20 21  2  0  0  0  0
 21 22  1  0  0  0  0
 22 23  2  0  0  0  0
 23 24  1  0  0  0  0
 24 25  1  0  0  0  0
 23 26  1  0  0  0  0
 26 27  2  0  0  0  0
 20 27  1  0  0  0  0
 19 28  1  0  0  0  0
 28 29  2  0  0  0  0
 29 30  1  0  0  0  0
 30 31  2  0  0  0  0
 31 32  1  0  0  0  0
 32 33  1  0  0  0  0
 31 34  1  0  0  0  0
 34 35  2  0  0  0  0
 28 35  1  0  0  0  0
 19 36  1  0  0  0  0
 36 37  2  0  0  0  0
 37 38  1  0  0  0  0
 18 38  2  0  0  0  0
 38 39  1  0  0  0  0
 15 39  1  0  0  0  0
 37 40  1  0  0  0  0
 40 41  2  0  0  0  0
 41 42  1  0  0  0  0
 42 43  1  0  0  0  0
 43 44  2  0  0  0  0
 44 45  1  0  0  0  0
 45 46  2  0  0  0  0
 46 47  1  0  0  0  0
 47 48  1  0  0  0  0
 46 49  1  0  0  0  0
 49 50  2  0  0  0  0
 43 50  1  0  0  0  0
 42 51  1  0  0  0  0
 51 52  2  0  0  0  0
 52 53  1  0  0  0  0
 53 54  2  0  0  0  0
 54 55  1  0  0  0  0
 55 56  1  0  0  0  0
 54 57  1  0  0  0  0
 57 58  2  0  0  0  0
 51 58  1  0  0  0  0
 42 59  1  0  0  0  0
 59 60  2  0  0  0  0
 60 61  1  0  0  0  0
 41 61  1  0  0  0  0
 61 62  2  0  0  0  0
 36 62  1  0  0  0  0
 60 63  1  0  0  0  0
 63 64  1  0  0  0  0
 64 65  2  0  0  0  0
 59 65  1  0  0  0  0
 65 66  1  0  0  0  0
 66 67  1  0  0  0  0
 67 68  2  0  0  0  0
 64 68  1  0  0  0  0
 67 69  1  0  0  0  0
 69 70  2  0  0  0  0
 70 71  1  0  0  0  0
 71 72  2  0  0  0  0
 72 73  1  0  0  0  0
 73 74  3  0  0  0  0
 72 75  1  0  0  0  0
 75 76  3  0  0  0  0
 71 77  1  0  0  0  0
 77 78  2  0  0  0  0
 78 79  1  0  0  0  0
 70 79  1  0  0  0  0
 79 80  2  0  0  0  0
  3 81  1  0  0  0  0
 81 82  1  0  0  0  0
 82 83  2  0  0  0  0
 83  4  1  0  0  0  0
 78 84  1  0  0  0  0
 84 85  1  0  0  0  0
 85 86  2  0  0  0  0
 86 77  1  0  0  0  0
 85 87  1  0  0  0  0
 82 88  1  0  0  0  0
 12 89  1  0  0  0  0
 14 90  1  0  0  0  0
 21 91  1  0  0  0  0
 22 92  1  0  0  0  0
 24 93  1  0  0  0  0
 24 94  1  0  0  0  0
 25 95  1  0  0  0  0
 25 96  1  0  0  0  0
 25 97  1  0  0  0  0
 26 98  1  0  0  0  0
 27 99  1  0  0  0  0
 29100  1  0  0  0  0
 30101  1  0  0  0  0
 32102  1  0  0  0  0
 32103  1  0  0  0  0
 33104  1  0  0  0  0
 33105  1  0  0  0  0
 33106  1  0  0  0  0
 34107  1  0  0  0  0
 35108  1  0  0  0  0
 40109  1  0  0  0  0
 44110  1  0  0  0  0
 45111  1  0  0  0  0
 47112  1  0  0  0  0
 47113  1  0  0  0  0
 48114  1  0  0  0  0
 48115  1  0  0  0  0
 48116  1  0  0  0  0
 49117  1  0  0  0  0
 50118  1  0  0  0  0
 52119  1  0  0  0  0
 53120  1  0  0  0  0
 55121  1  0  0  0  0
 55122  1  0  0  0  0
 56123  1  0  0  0  0
 56124  1  0  0  0  0
 56125  1  0  0  0  0
 57126  1  0  0  0  0
 58127  1  0  0  0  0
 62128  1  0  0  0  0
 68129  1  0  0  0  0
 69130  1  0  0  0  0
 83131  1  0  0  0  0
 86132  1  0  0  0  0
 87133  1  0  0  0  0
 87134  1  0  0  0  0
 87135  1  0  0  0  0
 88136  1  0  0  0  0
 88137  1  0  0  0  0
 88138  1  0  0  0  0
M  END
