ITIC-Th2.sdf
  xtb     12202114223D
 energy: -233.845287918946 gnorm: 0.000939021079 xtb: 6.4.1 (unknown)
126140  0     0  0            999 V2000
   -0.3959   -0.4592   -9.2728 C   0  0  0  0  0  0  0  0  0  0  0  0
    0.5796   -0.1316   -8.6304 O   0  0  0  0  0  0  0  0  0  0  0  0
   -0.5808   -0.2179  -10.7210 C   0  0  0  0  0  0  0  0  0  0  0  0
    0.2706    0.4406  -11.5862 C   0  0  0  0  0  0  0  0  0  0  0  0
   -0.1239    0.5589  -12.9086 C   0  0  0  0  0  0  0  0  0  0  0  0
   -1.3409    0.0266  -13.3366 C   0  0  0  0  0  0  0  0  0  0  0  0
   -2.1924   -0.6387  -12.4675 C   0  0  0  0  0  0  0  0  0  0  0  0
   -1.8036   -0.7623  -11.1421 C   0  0  0  0  0  0  0  0  0  0  0  0
   -2.4538   -1.3942   -9.9944 C   0  0  0  0  0  0  0  0  0  0  0  0
   -3.6133   -2.1210  -10.0598 C   0  0  0  0  0  0  0  0  0  0  0  0
   -4.2359   -2.8084   -8.9948 C   0  0  0  0  0  0  0  0  0  0  0  0
   -4.8058   -3.4129   -8.2015 N   0  0  0  0  0  0  0  0  0  0  0  0
   -4.3572   -2.3153  -11.2445 C   0  0  0  0  0  0  0  0  0  0  0  0
   -5.0115   -2.5122  -12.1666 N   0  0  0  0  0  0  0  0  0  0  0  0
   -1.6230   -1.1505   -8.8256 C   0  0  0  0  0  0  0  0  0  0  0  0
   -2.0129   -1.4612   -7.5474 C   0  0  0  0  0  0  0  0  0  0  0  0
   -1.3738   -1.3062   -6.3063 C   0  0  0  0  0  0  0  0  0  0  0  0
   -0.1078   -0.8655   -5.9432 C   0  0  0  0  0  0  0  0  0  0  0  0
    0.0730   -0.8806   -4.5699 C   0  0  0  0  0  0  0  0  0  0  0  0
   -1.0495   -1.3369   -3.8424 C   0  0  0  0  0  0  0  0  0  0  0  0
   -2.3401   -1.7580   -4.8889 S   0  0  0  0  0  0  0  0  0  0  0  0
   -0.8264   -1.3255   -2.4709 C   0  0  0  0  0  0  0  0  0  0  0  0
   -1.6086   -1.6241   -1.2191 C   0  0  0  0  0  0  0  0  0  0  0  0
   -0.5933   -1.2497   -0.1510 C   0  0  0  0  0  0  0  0  0  0  0  0
    0.6149   -0.8067   -0.7378 C   0  0  0  0  0  0  0  0  0  0  0  0
    0.4399   -0.8593   -2.1560 C   0  0  0  0  0  0  0  0  0  0  0  0
    1.3995   -0.4384   -3.5300 S   0  0  0  0  0  0  0  0  0  0  0  0
    1.6909   -0.3797    0.0350 C   0  0  0  0  0  0  0  0  0  0  0  0
    1.5180   -0.3868    1.3982 C   0  0  0  0  0  0  0  0  0  0  0  0
    2.4978    0.0838    2.4608 C   0  0  0  0  0  0  0  0  0  0  0  0
    3.7580   -0.7305    2.4514 C   0  0  0  0  0  0  0  0  0  0  0  0
    2.8110    1.5487    2.3314 C   0  0  0  0  0  0  0  0  0  0  0  0
    1.6877   -0.1380    3.7102 C   0  0  0  0  0  0  0  0  0  0  0  0
    0.4402   -0.6548    3.3997 C   0  0  0  0  0  0  0  0  0  0  0  0
    0.3078   -0.8239    1.9855 C   0  0  0  0  0  0  0  0  0  0  0  0
   -0.7601   -1.2722    1.2131 C   0  0  0  0  0  0  0  0  0  0  0  0
   -0.5861   -0.8894    4.7703 S   0  0  0  0  0  0  0  0  0  0  0  0
    0.6739   -0.2656    5.8006 C   0  0  0  0  0  0  0  0  0  0  0  0
    1.8305    0.0944    5.0724 C   0  0  0  0  0  0  0  0  0  0  0  0
    3.0489    0.7158    6.1048 S   0  0  0  0  0  0  0  0  0  0  0  0
    1.9979    0.5012    7.5180 C   0  0  0  0  0  0  0  0  0  0  0  0
    0.7686   -0.0399    7.1642 C   0  0  0  0  0  0  0  0  0  0  0  0
    2.5519    0.9081    8.7428 C   0  0  0  0  0  0  0  0  0  0  0  0
    2.0474    0.9380   10.0185 C   0  0  0  0  0  0  0  0  0  0  0  0
    2.8008    1.4222   11.1649 C   0  0  0  0  0  0  0  0  0  0  0  0
    4.1065    1.8372   11.1989 C   0  0  0  0  0  0  0  0  0  0  0  0
    4.7594    2.2964   12.3643 C   0  0  0  0  0  0  0  0  0  0  0  0
    5.3534    2.6830   13.2668 N   0  0  0  0  0  0  0  0  0  0  0  0
    5.0126    1.8734   10.1165 C   0  0  0  0  0  0  0  0  0  0  0  0
    5.8279    1.9333    9.3096 N   0  0  0  0  0  0  0  0  0  0  0  0
    1.9155    1.3794   12.3290 C   0  0  0  0  0  0  0  0  0  0  0  0
    2.1150    1.7470   13.6513 C   0  0  0  0  0  0  0  0  0  0  0  0
    1.0628    1.5825   14.5394 C   0  0  0  0  0  0  0  0  0  0  0  0
   -0.1670    1.0629   14.1332 C   0  0  0  0  0  0  0  0  0  0  0  0
   -0.3740    0.6937   12.8145 C   0  0  0  0  0  0  0  0  0  0  0  0
    0.6744    0.8599   11.9312 C   0  0  0  0  0  0  0  0  0  0  0  0
    0.7006    0.5490   10.4850 C   0  0  0  0  0  0  0  0  0  0  0  0
   -0.2220    0.0726    9.8574 O   0  0  0  0  0  0  0  0  0  0  0  0
    1.2358    1.9332   15.8184 F   0  0  0  0  0  0  0  0  0  0  0  0
   -1.7004    0.1616  -14.6177 F   0  0  0  0  0  0  0  0  0  0  0  0
   -1.9929   -3.0721   -1.1281 C   0  0  0  0  0  0  0  0  0  0  0  0
    4.9396   -0.4850    1.2063 S   0  0  0  0  0  0  0  0  0  0  0  0
    5.9644   -1.7152    1.8752 C   0  0  0  0  0  0  0  0  0  0  0  0
    5.4043   -2.2606    2.9857 C   0  0  0  0  0  0  0  0  0  0  0  0
    4.1463   -1.7055    3.3138 C   0  0  0  0  0  0  0  0  0  0  0  0
    3.8005    2.2332    2.9641 C   0  0  0  0  0  0  0  0  0  0  0  0
    3.7764    3.6160    2.6767 C   0  0  0  0  0  0  0  0  0  0  0  0
    2.7651    3.9786    1.8450 C   0  0  0  0  0  0  0  0  0  0  0  0
    1.8113    2.6014    1.3867 S   0  0  0  0  0  0  0  0  0  0  0  0
    7.2872   -2.0118    1.2579 C   0  0  0  0  0  0  0  0  0  0  0  0
    8.2970   -0.9011    1.5552 C   0  0  0  0  0  0  0  0  0  0  0  0
    2.4547    5.3261    1.2906 C   0  0  0  0  0  0  0  0  0  0  0  0
    2.8822    5.4321   -0.1748 C   0  0  0  0  0  0  0  0  0  0  0  0
   -3.0775   -3.6043    0.1155 S   0  0  0  0  0  0  0  0  0  0  0  0
   -2.9844   -5.2442   -0.4445 C   0  0  0  0  0  0  0  0  0  0  0  0
   -2.1615   -5.3422   -1.5203 C   0  0  0  0  0  0  0  0  0  0  0  0
   -1.5918   -4.1083   -1.9093 C   0  0  0  0  0  0  0  0  0  0  0  0
   -2.8298   -0.7486   -1.1744 C   0  0  0  0  0  0  0  0  0  0  0  0
   -4.0035   -0.9479   -1.8305 C   0  0  0  0  0  0  0  0  0  0  0  0
   -4.9279    0.1002   -1.6251 C   0  0  0  0  0  0  0  0  0  0  0  0
   -4.4542    1.0909   -0.8251 C   0  0  0  0  0  0  0  0  0  0  0  0
   -2.8321    0.7502   -0.3061 S   0  0  0  0  0  0  0  0  0  0  0  0
   -3.7871   -6.3121    0.2143 C   0  0  0  0  0  0  0  0  0  0  0  0
   -5.2746   -6.1673   -0.1134 C   0  0  0  0  0  0  0  0  0  0  0  0
   -5.1256    2.3557   -0.4140 C   0  0  0  0  0  0  0  0  0  0  0  0
   -4.5409    3.5616   -1.1521 C   0  0  0  0  0  0  0  0  0  0  0  0
   -1.1541    0.9218   15.0256 F   0  0  0  0  0  0  0  0  0  0  0  0
    0.6666    1.1917  -13.7835 F   0  0  0  0  0  0  0  0  0  0  0  0
    1.2087    0.8512  -11.2482 H   0  0  0  0  0  0  0  0  0  0  0  0
   -3.1210   -1.0288  -12.8499 H   0  0  0  0  0  0  0  0  0  0  0  0
   -3.0049   -1.8869   -7.4516 H   0  0  0  0  0  0  0  0  0  0  0  0
    0.6266   -0.5480   -6.6600 H   0  0  0  0  0  0  0  0  0  0  0  0
    2.6070   -0.0401   -0.4232 H   0  0  0  0  0  0  0  0  0  0  0  0
   -1.6809   -1.6000    1.6706 H   0  0  0  0  0  0  0  0  0  0  0  0
   -0.0051   -0.2460    7.8804 H   0  0  0  0  0  0  0  0  0  0  0  0
    3.5647    1.2770    8.6331 H   0  0  0  0  0  0  0  0  0  0  0  0
    3.0425    2.1534   14.0190 H   0  0  0  0  0  0  0  0  0  0  0  0
   -1.3216    0.2918   12.4930 H   0  0  0  0  0  0  0  0  0  0  0  0
    5.8724   -3.0398    3.5604 H   0  0  0  0  0  0  0  0  0  0  0  0
    3.5635   -2.0223    4.1602 H   0  0  0  0  0  0  0  0  0  0  0  0
    4.5258    1.7679    3.6080 H   0  0  0  0  0  0  0  0  0  0  0  0
    4.4878    4.3142    3.0801 H   0  0  0  0  0  0  0  0  0  0  0  0
    7.1749   -2.1143    0.1758 H   0  0  0  0  0  0  0  0  0  0  0  0
    7.6549   -2.9598    1.6562 H   0  0  0  0  0  0  0  0  0  0  0  0
    7.9448    0.0456    1.1516 H   0  0  0  0  0  0  0  0  0  0  0  0
    9.2584   -1.1356    1.1054 H   0  0  0  0  0  0  0  0  0  0  0  0
    8.4324   -0.7906    2.6287 H   0  0  0  0  0  0  0  0  0  0  0  0
    1.3817    5.5181    1.3657 H   0  0  0  0  0  0  0  0  0  0  0  0
    2.9804    6.0782    1.8824 H   0  0  0  0  0  0  0  0  0  0  0  0
    2.3551    4.6936   -0.7747 H   0  0  0  0  0  0  0  0  0  0  0  0
    3.9511    5.2554   -0.2698 H   0  0  0  0  0  0  0  0  0  0  0  0
    2.6566    6.4220   -0.5630 H   0  0  0  0  0  0  0  0  0  0  0  0
   -1.9630   -6.2690   -2.0286 H   0  0  0  0  0  0  0  0  0  0  0  0
   -0.9162   -4.0052   -2.7396 H   0  0  0  0  0  0  0  0  0  0  0  0
   -4.2059   -1.8149   -2.4342 H   0  0  0  0  0  0  0  0  0  0  0  0
   -5.9136    0.1094   -2.0550 H   0  0  0  0  0  0  0  0  0  0  0  0
   -3.4265   -7.2834   -0.1306 H   0  0  0  0  0  0  0  0  0  0  0  0
   -3.6518   -6.2607    1.2975 H   0  0  0  0  0  0  0  0  0  0  0  0
   -5.4324   -6.2264   -1.1879 H   0  0  0  0  0  0  0  0  0  0  0  0
   -5.6459   -5.2074    0.2385 H   0  0  0  0  0  0  0  0  0  0  0  0
   -5.8451   -6.9585    0.3661 H   0  0  0  0  0  0  0  0  0  0  0  0
   -5.0058    2.5026    0.6622 H   0  0  0  0  0  0  0  0  0  0  0  0
   -6.1923    2.2724   -0.6320 H   0  0  0  0  0  0  0  0  0  0  0  0
   -3.4803    3.6601   -0.9309 H   0  0  0  0  0  0  0  0  0  0  0  0
   -5.0470    4.4734   -0.8453 H   0  0  0  0  0  0  0  0  0  0  0  0
   -4.6605    3.4417   -2.2265 H   0  0  0  0  0  0  0  0  0  0  0  0
  1  2  2  0  0  0  0
  1  3  1  0  0  0  0
  3  4  2  0  0  0  0
  4  5  1  0  0  0  0
  5  6  2  0  0  0  0
  6  7  1  0  0  0  0
  7  8  2  0  0  0  0
  3  8  1  0  0  0  0
  8  9  1  0  0  0  0
  9 10  2  0  0  0  0
 10 11  1  0  0  0  0
 11 12  3  0  0  0  0
 10 13  1  0  0  0  0
 13 14  3  0  0  0  0
  9 15  1  0  0  0  0
  1 15  1  0  0  0  0
 15 16  2  0  0  0  0
 16 17  1  0  0  0  0
 17 18  2  0  0  0  0
 18 19  1  0  0  0  0
 19 20  2  0  0  0  0
 20 21  1  0  0  0  0
 17 21  1  0  0  0  0
 20 22  1  0  0  0  0
 22 23  1  0  0  0  0
 23 24  1  0  0  0  0
 24 25  2  0  0  0  0
 25 26  1  0  0  0  0
 22 26  2  0  0  0  0
 26 27  1  0  0  0  0
 19 27  1  0  0  0  0
 25 28  1  0  0  0  0
 28 29  2  0  0  0  0
 29 30  1  0  0  0  0
 30 31  1  0  0  0  0
 30 32  1  0  0  0  0
 30 33  1  0  0  0  0
 33 34  2  0  0  0  0
 34 35  1  0  0  0  0
 29 35  1  0  0  0  0
 35 36  2  0  0  0  0
 24 36  1  0  0  0  0
 34 37  1  0  0  0  0
 37 38  1  0  0  0  0
 38 39  2  0  0  0  0
 33 39  1  0  0  0  0
 39 40  1  0  0  0  0
 40 41  1  0  0  0  0
 41 42  2  0  0  0  0
 38 42  1  0  0  0  0
 41 43  1  0  0  0  0
 43 44  2  0  0  0  0
 44 45  1  0  0  0  0
 45 46  2  0  0  0  0
 46 47  1  0  0  0  0
 47 48  3  0  0  0  0
 46 49  1  0  0  0  0
 49 50  3  0  0  0  0
 45 51  1  0  0  0  0
 51 52  2  0  0  0  0
 52 53  1  0  0  0  0
 53 54  2  0  0  0  0
 54 55  1  0  0  0  0
 55 56  2  0  0  0  0
 51 56  1  0  0  0  0
 56 57  1  0  0  0  0
 44 57  1  0  0  0  0
 57 58  2  0  0  0  0
 53 59  1  0  0  0  0
  6 60  1  0  0  0  0
 23 61  1  0  0  0  0
 31 62  1  0  0  0  0
 62 63  1  0  0  0  0
 63 64  2  0  0  0  0
 64 65  1  0  0  0  0
 65 31  2  0  0  0  0
 32 66  2  0  0  0  0
 66 67  1  0  0  0  0
 67 68  2  0  0  0  0
 68 69  1  0  0  0  0
 69 32  1  0  0  0  0
 63 70  1  0  0  0  0
 70 71  1  0  0  0  0
 68 72  1  0  0  0  0
 72 73  1  0  0  0  0
 61 74  1  0  0  0  0
 74 75  1  0  0  0  0
 75 76  2  0  0  0  0
 76 77  1  0  0  0  0
 77 61  2  0  0  0  0
 23 78  1  0  0  0  0
 78 79  2  0  0  0  0
 79 80  1  0  0  0  0
 80 81  2  0  0  0  0
 81 82  1  0  0  0  0
 82 78  1  0  0  0  0
 75 83  1  0  0  0  0
 83 84  1  0  0  0  0
 81 85  1  0  0  0  0
 85 86  1  0  0  0  0
 54 87  1  0  0  0  0
  5 88  1  0  0  0  0
  4 89  1  0  0  0  0
  7 90  1  0  0  0  0
 16 91  1  0  0  0  0
 18 92  1  0  0  0  0
 28 93  1  0  0  0  0
 36 94  1  0  0  0  0
 42 95  1  0  0  0  0
 43 96  1  0  0  0  0
 52 97  1  0  0  0  0
 55 98  1  0  0  0  0
 64 99  1  0  0  0  0
 65100  1  0  0  0  0
 66101  1  0  0  0  0
 67102  1  0  0  0  0
 70103  1  0  0  0  0
 70104  1  0  0  0  0
 71105  1  0  0  0  0
 71106  1  0  0  0  0
 71107  1  0  0  0  0
 72108  1  0  0  0  0
 72109  1  0  0  0  0
 73110  1  0  0  0  0
 73111  1  0  0  0  0
 73112  1  0  0  0  0
 76113  1  0  0  0  0
 77114  1  0  0  0  0
 79115  1  0  0  0  0
 80116  1  0  0  0  0
 83117  1  0  0  0  0
 83118  1  0  0  0  0
 84119  1  0  0  0  0
 84120  1  0  0  0  0
 84121  1  0  0  0  0
 85122  1  0  0  0  0
 85123  1  0  0  0  0
 86124  1  0  0  0  0
 86125  1  0  0  0  0
 86126  1  0  0  0  0
M  END
