ITIC-Th1.sdf
  xtb     12202114203D
 energy: -225.405580847970 gnorm: 0.000334099161 xtb: 6.4.1 (unknown)
126140  0     0  0            999 V2000
    1.6574    9.4413    2.1242 C   0  0  0  0  0  0  0  0  0  0  0  0
    2.4559    8.5513    1.9134 O   0  0  0  0  0  0  0  0  0  0  0  0
    1.9998   10.8648    2.3099 C   0  0  0  0  0  0  0  0  0  0  0  0
    3.2504   11.4528    2.2759 C   0  0  0  0  0  0  0  0  0  0  0  0
    3.3431   12.8202    2.4767 C   0  0  0  0  0  0  0  0  0  0  0  0
    2.1832   13.5466    2.7036 C   0  0  0  0  0  0  0  0  0  0  0  0
    0.9177   12.9774    2.7424 C   0  0  0  0  0  0  0  0  0  0  0  0
    0.8318   11.6092    2.5410 C   0  0  0  0  0  0  0  0  0  0  0  0
   -0.3160   10.7018    2.5162 C   0  0  0  0  0  0  0  0  0  0  0  0
   -1.6154   11.0903    2.7115 C   0  0  0  0  0  0  0  0  0  0  0  0
   -2.7596   10.2631    2.7036 C   0  0  0  0  0  0  0  0  0  0  0  0
   -3.7527    9.6855    2.7182 N   0  0  0  0  0  0  0  0  0  0  0  0
   -2.0145   12.4221    2.9606 C   0  0  0  0  0  0  0  0  0  0  0  0
   -2.4166   13.4776    3.1644 N   0  0  0  0  0  0  0  0  0  0  0  0
    0.1849    9.3617    2.2526 C   0  0  0  0  0  0  0  0  0  0  0  0
   -0.6266    8.2621    2.1453 C   0  0  0  0  0  0  0  0  0  0  0  0
   -0.3529    6.9092    1.8793 C   0  0  0  0  0  0  0  0  0  0  0  0
    0.8214    6.2097    1.6394 C   0  0  0  0  0  0  0  0  0  0  0  0
    0.5844    4.8663    1.3949 C   0  0  0  0  0  0  0  0  0  0  0  0
   -0.7788    4.4996    1.4437 C   0  0  0  0  0  0  0  0  0  0  0  0
   -1.7728    5.8485    1.8051 S   0  0  0  0  0  0  0  0  0  0  0  0
   -0.9704    3.1494    1.1740 C   0  0  0  0  0  0  0  0  0  0  0  0
   -2.1335    2.2055    1.0188 C   0  0  0  0  0  0  0  0  0  0  0  0
   -1.4143    0.9299    0.6097 C   0  0  0  0  0  0  0  0  0  0  0  0
   -0.0151    1.1312    0.5701 C   0  0  0  0  0  0  0  0  0  0  0  0
    0.2241    2.4991    0.9116 C   0  0  0  0  0  0  0  0  0  0  0  0
    1.6177    3.5169    1.0107 S   0  0  0  0  0  0  0  0  0  0  0  0
    0.8607    0.1114    0.2086 C   0  0  0  0  0  0  0  0  0  0  0  0
    0.3017   -1.0995   -0.1223 C   0  0  0  0  0  0  0  0  0  0  0  0
    1.0204   -2.3590   -0.5804 C   0  0  0  0  0  0  0  0  0  0  0  0
    1.8641   -2.9653    0.5046 C   0  0  0  0  0  0  0  0  0  0  0  0
    1.8408   -2.0800   -1.8056 C   0  0  0  0  0  0  0  0  0  0  0  0
   -0.1511   -3.2608   -0.8704 C   0  0  0  0  0  0  0  0  0  0  0  0
   -1.3441   -2.6258   -0.5653 C   0  0  0  0  0  0  0  0  0  0  0  0
   -1.0986   -1.2942   -0.1046 C   0  0  0  0  0  0  0  0  0  0  0  0
   -1.9732   -0.2808    0.2769 C   0  0  0  0  0  0  0  0  0  0  0  0
   -2.7502   -3.5804   -0.8731 S   0  0  0  0  0  0  0  0  0  0  0  0
   -1.7283   -4.8716   -1.4406 C   0  0  0  0  0  0  0  0  0  0  0  0
   -0.3567   -4.5431   -1.3656 C   0  0  0  0  0  0  0  0  0  0  0  0
    0.6206   -5.8268   -1.9450 S   0  0  0  0  0  0  0  0  0  0  0  0
   -0.8178   -6.7973   -2.3064 C   0  0  0  0  0  0  0  0  0  0  0  0
   -1.9844   -6.1295   -1.9626 C   0  0  0  0  0  0  0  0  0  0  0  0
   -0.5699   -8.0618   -2.8684 C   0  0  0  0  0  0  0  0  0  0  0  0
   -1.4126   -9.0278   -3.3536 C   0  0  0  0  0  0  0  0  0  0  0  0
   -0.9450  -10.2855   -3.9143 C   0  0  0  0  0  0  0  0  0  0  0  0
    0.3177  -10.8121   -3.8451 C   0  0  0  0  0  0  0  0  0  0  0  0
    0.6877  -12.0532   -4.4081 C   0  0  0  0  0  0  0  0  0  0  0  0
    1.0613  -13.0479   -4.8418 N   0  0  0  0  0  0  0  0  0  0  0  0
    1.4288  -10.2414   -3.1868 C   0  0  0  0  0  0  0  0  0  0  0  0
    2.3830   -9.8692   -2.6667 N   0  0  0  0  0  0  0  0  0  0  0  0
   -2.0920  -10.9516   -4.5311 C   0  0  0  0  0  0  0  0  0  0  0  0
   -2.1907  -12.1256   -5.2600 C   0  0  0  0  0  0  0  0  0  0  0  0
   -3.4532  -12.4887   -5.7087 C   0  0  0  0  0  0  0  0  0  0  0  0
   -4.5976  -11.7447   -5.4606 C   0  0  0  0  0  0  0  0  0  0  0  0
   -4.4912  -10.5705   -4.7334 C   0  0  0  0  0  0  0  0  0  0  0  0
   -3.2426  -10.1863   -4.2815 C   0  0  0  0  0  0  0  0  0  0  0  0
   -2.8840   -8.9792   -3.5106 C   0  0  0  0  0  0  0  0  0  0  0  0
   -3.6693   -8.1436   -3.1128 O   0  0  0  0  0  0  0  0  0  0  0  0
   -3.5714  -13.6198   -6.4223 F   0  0  0  0  0  0  0  0  0  0  0  0
    2.2885   14.8710    2.8960 F   0  0  0  0  0  0  0  0  0  0  0  0
   -2.8786    2.0139    2.3078 C   0  0  0  0  0  0  0  0  0  0  0  0
    1.7900   -2.3802    2.1334 S   0  0  0  0  0  0  0  0  0  0  0  0
    2.9113   -3.5968    2.6630 C   0  0  0  0  0  0  0  0  0  0  0  0
    3.2956   -4.3872    1.6268 C   0  0  0  0  0  0  0  0  0  0  0  0
    2.6954   -4.0355    0.3972 C   0  0  0  0  0  0  0  0  0  0  0  0
    3.1489   -1.7230   -1.8841 C   0  0  0  0  0  0  0  0  0  0  0  0
    3.5719   -1.4817   -3.2110 C   0  0  0  0  0  0  0  0  0  0  0  0
    2.5890   -1.6498   -4.1331 C   0  0  0  0  0  0  0  0  0  0  0  0
    1.0982   -2.1100   -3.3720 S   0  0  0  0  0  0  0  0  0  0  0  0
    3.3579   -3.6416    4.0837 C   0  0  0  0  0  0  0  0  0  0  0  0
    4.2995   -2.4798    4.4071 C   0  0  0  0  0  0  0  0  0  0  0  0
    2.6518   -1.4510   -5.6081 C   0  0  0  0  0  0  0  0  0  0  0  0
    1.9588   -0.1511   -6.0221 C   0  0  0  0  0  0  0  0  0  0  0  0
   -4.3711    1.1287    2.3222 S   0  0  0  0  0  0  0  0  0  0  0  0
   -4.5344    1.3426    4.0396 C   0  0  0  0  0  0  0  0  0  0  0  0
   -3.4892    2.0510    4.5379 C   0  0  0  0  0  0  0  0  0  0  0  0
   -2.5450    2.4317    3.5551 C   0  0  0  0  0  0  0  0  0  0  0  0
   -3.0534    2.7193   -0.0525 C   0  0  0  0  0  0  0  0  0  0  0  0
   -3.9908    3.6954    0.0752 C   0  0  0  0  0  0  0  0  0  0  0  0
   -4.6410    3.9906   -1.1433 C   0  0  0  0  0  0  0  0  0  0  0  0
   -4.1879    3.2536   -2.1909 C   0  0  0  0  0  0  0  0  0  0  0  0
   -2.9360    2.1600   -1.6874 S   0  0  0  0  0  0  0  0  0  0  0  0
   -5.7237    0.7672    4.7338 C   0  0  0  0  0  0  0  0  0  0  0  0
   -5.7337    1.0423    6.2325 C   0  0  0  0  0  0  0  0  0  0  0  0
   -4.6646    3.2531   -3.6023 C   0  0  0  0  0  0  0  0  0  0  0  0
   -5.5702    2.0505   -3.8770 C   0  0  0  0  0  0  0  0  0  0  0  0
    4.1264   10.8494    2.0959 H   0  0  0  0  0  0  0  0  0  0  0  0
    4.2926   13.3312    2.4606 H   0  0  0  0  0  0  0  0  0  0  0  0
    0.0617   13.6053    2.9238 H   0  0  0  0  0  0  0  0  0  0  0  0
   -1.6859    8.4478    2.2775 H   0  0  0  0  0  0  0  0  0  0  0  0
    1.7886    6.6773    1.6420 H   0  0  0  0  0  0  0  0  0  0  0  0
    1.9268    0.2753    0.1785 H   0  0  0  0  0  0  0  0  0  0  0  0
   -3.0403   -0.4410    0.2913 H   0  0  0  0  0  0  0  0  0  0  0  0
   -2.9615   -6.5535   -2.1028 H   0  0  0  0  0  0  0  0  0  0  0  0
    0.4890   -8.2797   -2.9475 H   0  0  0  0  0  0  0  0  0  0  0  0
   -1.3457  -12.7519   -5.4924 H   0  0  0  0  0  0  0  0  0  0  0  0
   -5.5460  -12.0913   -5.8391 H   0  0  0  0  0  0  0  0  0  0  0  0
   -5.3546   -9.9600   -4.5198 H   0  0  0  0  0  0  0  0  0  0  0  0
    3.9862   -5.2047    1.7327 H   0  0  0  0  0  0  0  0  0  0  0  0
    2.8797   -4.5516   -0.5282 H   0  0  0  0  0  0  0  0  0  0  0  0
    3.7961   -1.6460   -1.0287 H   0  0  0  0  0  0  0  0  0  0  0  0
    4.5776   -1.1992   -3.4671 H   0  0  0  0  0  0  0  0  0  0  0  0
    2.4892   -3.5927    4.7448 H   0  0  0  0  0  0  0  0  0  0  0  0
    3.8693   -4.5901    4.2595 H   0  0  0  0  0  0  0  0  0  0  0  0
    5.1799   -2.5182    3.7697 H   0  0  0  0  0  0  0  0  0  0  0  0
    4.6188   -2.5306    5.4449 H   0  0  0  0  0  0  0  0  0  0  0  0
    3.7948   -1.5301    4.2438 H   0  0  0  0  0  0  0  0  0  0  0  0
    3.6999   -1.4227   -5.9134 H   0  0  0  0  0  0  0  0  0  0  0  0
    2.1697   -2.2910   -6.1140 H   0  0  0  0  0  0  0  0  0  0  0  0
    0.9110   -0.1738   -5.7310 H   0  0  0  0  0  0  0  0  0  0  0  0
    2.0187   -0.0186   -7.0993 H   0  0  0  0  0  0  0  0  0  0  0  0
    2.4328    0.7004   -5.5391 H   0  0  0  0  0  0  0  0  0  0  0  0
   -3.3802    2.3076    5.5754 H   0  0  0  0  0  0  0  0  0  0  0  0
   -1.6580    2.9972    3.7788 H   0  0  0  0  0  0  0  0  0  0  0  0
   -4.2151    4.1838    1.0070 H   0  0  0  0  0  0  0  0  0  0  0  0
   -5.4167    4.7298   -1.2335 H   0  0  0  0  0  0  0  0  0  0  0  0
   -5.7455   -0.3134    4.5604 H   0  0  0  0  0  0  0  0  0  0  0  0
   -6.6307    1.1800    4.2810 H   0  0  0  0  0  0  0  0  0  0  0  0
   -4.8567    0.6097    6.7078 H   0  0  0  0  0  0  0  0  0  0  0  0
   -5.7451    2.1120    6.4260 H   0  0  0  0  0  0  0  0  0  0  0  0
   -6.6204    0.6025    6.6822 H   0  0  0  0  0  0  0  0  0  0  0  0
   -3.8093    3.2208   -4.2813 H   0  0  0  0  0  0  0  0  0  0  0  0
   -5.2155    4.1776   -3.7872 H   0  0  0  0  0  0  0  0  0  0  0  0
   -5.9140    2.0649   -4.9081 H   0  0  0  0  0  0  0  0  0  0  0  0
   -6.4365    2.0728   -3.2199 H   0  0  0  0  0  0  0  0  0  0  0  0
   -5.0280    1.1237   -3.7029 H   0  0  0  0  0  0  0  0  0  0  0  0
  1  2  2  0  0  0  0
  1  3  1  0  0  0  0
  3  4  2  0  0  0  0
  4  5  1  0  0  0  0
  5  6  2  0  0  0  0
  6  7  1  0  0  0  0
  7  8  2  0  0  0  0
  3  8  1  0  0  0  0
  8  9  1  0  0  0  0
  9 10  2  0  0  0  0
 10 11  1  0  0  0  0
 11 12  3  0  0  0  0
 10 13  1  0  0  0  0
 13 14  3  0  0  0  0
  9 15  1  0  0  0  0
  1 15  1  0  0  0  0
 15 16  2  0  0  0  0
 16 17  1  0  0  0  0
 17 18  2  0  0  0  0
 18 19  1  0  0  0  0
 19 20  2  0  0  0  0
 20 21  1  0  0  0  0
 17 21  1  0  0  0  0
 20 22  1  0  0  0  0
 22 23  1  0  0  0  0
 23 24  1  0  0  0  0
 24 25  2  0  0  0  0
 25 26  1  0  0  0  0
 22 26  2  0  0  0  0
 26 27  1  0  0  0  0
 19 27  1  0  0  0  0
 25 28  1  0  0  0  0
 28 29  2  0  0  0  0
 29 30  1  0  0  0  0
 30 31  1  0  0  0  0
 30 32  1  0  0  0  0
 30 33  1  0  0  0  0
 33 34  2  0  0  0  0
 34 35  1  0  0  0  0
 29 35  1  0  0  0  0
 35 36  2  0  0  0  0
 24 36  1  0  0  0  0
 34 37  1  0  0  0  0
 37 38  1  0  0  0  0
 38 39  2  0  0  0  0
 33 39  1  0  0  0  0
 39 40  1  0  0  0  0
 40 41  1  0  0  0  0
 41 42  2  0  0  0  0
 38 42  1  0  0  0  0
 41 43  1  0  0  0  0
 43 44  2  0  0  0  0
 44 45  1  0  0  0  0
 45 46  2  0  0  0  0
 46 47  1  0  0  0  0
 47 48  3  0  0  0  0
 46 49  1  0  0  0  0
 49 50  3  0  0  0  0
 45 51  1  0  0  0  0
 51 52  2  0  0  0  0
 52 53  1  0  0  0  0
 53 54  2  0  0  0  0
 54 55  1  0  0  0  0
 55 56  2  0  0  0  0
 51 56  1  0  0  0  0
 56 57  1  0  0  0  0
 44 57  1  0  0  0  0
 57 58  2  0  0  0  0
 53 59  1  0  0  0  0
  6 60  1  0  0  0  0
 23 61  1  0  0  0  0
 31 62  1  0  0  0  0
 62 63  1  0  0  0  0
 63 64  2  0  0  0  0
 64 65  1  0  0  0  0
 65 31  2  0  0  0  0
 32 66  2  0  0  0  0
 66 67  1  0  0  0  0
 67 68  2  0  0  0  0
 68 69  1  0  0  0  0
 69 32  1  0  0  0  0
 63 70  1  0  0  0  0
 70 71  1  0  0  0  0
 68 72  1  0  0  0  0
 72 73  1  0  0  0  0
 61 74  1  0  0  0  0
 74 75  1  0  0  0  0
 75 76  2  0  0  0  0
 76 77  1  0  0  0  0
 77 61  2  0  0  0  0
 23 78  1  0  0  0  0
 78 79  2  0  0  0  0
 79 80  1  0  0  0  0
 80 81  2  0  0  0  0
 81 82  1  0  0  0  0
 82 78  1  0  0  0  0
 75 83  1  0  0  0  0
 83 84  1  0  0  0  0
 81 85  1  0  0  0  0
 85 86  1  0  0  0  0
  4 87  1  0  0  0  0
  5 88  1  0  0  0  0
  7 89  1  0  0  0  0
 16 90  1  0  0  0  0
 18 91  1  0  0  0  0
 28 92  1  0  0  0  0
 36 93  1  0  0  0  0
 42 94  1  0  0  0  0
 43 95  1  0  0  0  0
 52 96  1  0  0  0  0
 54 97  1  0  0  0  0
 55 98  1  0  0  0  0
 64 99  1  0  0  0  0
 65100  1  0  0  0  0
 66101  1  0  0  0  0
 67102  1  0  0  0  0
 70103  1  0  0  0  0
 70104  1  0  0  0  0
 71105  1  0  0  0  0
 71106  1  0  0  0  0
 71107  1  0  0  0  0
 72108  1  0  0  0  0
 72109  1  0  0  0  0
 73110  1  0  0  0  0
 73111  1  0  0  0  0
 73112  1  0  0  0  0
 76113  1  0  0  0  0
 77114  1  0  0  0  0
 79115  1  0  0  0  0
 80116  1  0  0  0  0
 83117  1  0  0  0  0
 83118  1  0  0  0  0
 84119  1  0  0  0  0
 84120  1  0  0  0  0
 84121  1  0  0  0  0
 85122  1  0  0  0  0
 85123  1  0  0  0  0
 86124  1  0  0  0  0
 86125  1  0  0  0  0
 86126  1  0  0  0  0
M  END
