ITIC-OE.sdf
  xtb     12202114133D
 energy: -270.279863909539 gnorm: 0.000975968022 xtb: 6.4.1 (unknown)
158172  0     0  0            999 V2000
    7.7100    1.5664   -1.8865 C   0  0  0  0  0  0  0  0  0  0  0  0
    6.5392    1.2854   -1.7777 O   0  0  0  0  0  0  0  0  0  0  0  0
    8.3055    2.5275   -2.8322 C   0  0  0  0  0  0  0  0  0  0  0  0
    7.6667    3.3139   -3.7714 C   0  0  0  0  0  0  0  0  0  0  0  0
    8.4417    4.1368   -4.5760 C   0  0  0  0  0  0  0  0  0  0  0  0
    9.8240    4.1506   -4.4450 C   0  0  0  0  0  0  0  0  0  0  0  0
   10.4710    3.3550   -3.5096 C   0  0  0  0  0  0  0  0  0  0  0  0
    9.7033    2.5415   -2.6903 C   0  0  0  0  0  0  0  0  0  0  0  0
   10.0789    1.6036   -1.6405 C   0  0  0  0  0  0  0  0  0  0  0  0
   11.3089    1.4811   -1.0583 C   0  0  0  0  0  0  0  0  0  0  0  0
   12.4255    2.2667   -1.4084 C   0  0  0  0  0  0  0  0  0  0  0  0
   13.3572    2.8941   -1.6461 N   0  0  0  0  0  0  0  0  0  0  0  0
   11.5869    0.5908    0.0013 C   0  0  0  0  0  0  0  0  0  0  0  0
   11.8712   -0.1208    0.8555 N   0  0  0  0  0  0  0  0  0  0  0  0
    8.8779    0.9029   -1.2257 C   0  0  0  0  0  0  0  0  0  0  0  0
    8.7779   -0.2881   -0.5855 C   0  0  0  0  0  0  0  0  0  0  0  0
    7.4990   -0.7599   -0.1274 C   0  0  0  0  0  0  0  0  0  0  0  0
    6.7955   -1.8770   -0.5086 C   0  0  0  0  0  0  0  0  0  0  0  0
    5.4747   -1.8273   -0.0485 C   0  0  0  0  0  0  0  0  0  0  0  0
    5.2038   -0.7066    0.7504 C   0  0  0  0  0  0  0  0  0  0  0  0
    6.5834    0.2995    0.9233 S   0  0  0  0  0  0  0  0  0  0  0  0
    3.8493   -0.5815    1.0545 C   0  0  0  0  0  0  0  0  0  0  0  0
    2.9789    0.4932    1.6500 C   0  0  0  0  0  0  0  0  0  0  0  0
    2.9236    0.4727    3.1658 C   0  0  0  0  0  0  0  0  0  0  0  0
    2.3779    1.5530    3.8489 C   0  0  0  0  0  0  0  0  0  0  0  0
    2.2749    1.5335    5.2272 C   0  0  0  0  0  0  0  0  0  0  0  0
    2.7236    0.4372    5.9513 C   0  0  0  0  0  0  0  0  0  0  0  0
    2.6381    0.4050    7.4585 C   0  0  0  0  0  0  0  0  0  0  0  0
    2.3419   -0.8734    7.9789 O   0  0  0  0  0  0  0  0  0  0  0  0
    3.2697   -0.6413    5.2684 C   0  0  0  0  0  0  0  0  0  0  0  0
    3.3610   -0.6282    3.8891 C   0  0  0  0  0  0  0  0  0  0  0  0
    3.5580    1.7786    1.0944 C   0  0  0  0  0  0  0  0  0  0  0  0
    3.2933    2.1824   -0.2067 C   0  0  0  0  0  0  0  0  0  0  0  0
    4.0566    3.1720   -0.8024 C   0  0  0  0  0  0  0  0  0  0  0  0
    5.0924    3.7777   -0.1073 C   0  0  0  0  0  0  0  0  0  0  0  0
    6.0236    4.7716   -0.7463 C   0  0  0  0  0  0  0  0  0  0  0  0
    7.3487    4.2958   -0.5752 O   0  0  0  0  0  0  0  0  0  0  0  0
    5.3150    3.4174    1.2146 C   0  0  0  0  0  0  0  0  0  0  0  0
    4.5663    2.4204    1.8058 C   0  0  0  0  0  0  0  0  0  0  0  0
    1.6118    0.0451    1.1552 C   0  0  0  0  0  0  0  0  0  0  0  0
    1.7014   -1.2156    0.5111 C   0  0  0  0  0  0  0  0  0  0  0  0
    3.0894   -1.5604    0.4446 C   0  0  0  0  0  0  0  0  0  0  0  0
    4.0346   -2.7372   -0.4126 S   0  0  0  0  0  0  0  0  0  0  0  0
    0.5794   -1.8585   -0.0025 C   0  0  0  0  0  0  0  0  0  0  0  0
   -0.6290   -1.2131    0.1227 C   0  0  0  0  0  0  0  0  0  0  0  0
   -1.9904   -1.6706   -0.3732 C   0  0  0  0  0  0  0  0  0  0  0  0
   -2.1073   -1.7326   -1.8868 C   0  0  0  0  0  0  0  0  0  0  0  0
   -3.2181   -2.3519   -2.4501 C   0  0  0  0  0  0  0  0  0  0  0  0
   -3.3920   -2.3694   -3.8192 C   0  0  0  0  0  0  0  0  0  0  0  0
   -2.4590   -1.7665   -4.6551 C   0  0  0  0  0  0  0  0  0  0  0  0
   -2.6610   -1.8076   -6.1460 C   0  0  0  0  0  0  0  0  0  0  0  0
   -1.6876   -1.0280   -6.7994 O   0  0  0  0  0  0  0  0  0  0  0  0
   -1.3562   -1.1424   -4.0944 C   0  0  0  0  0  0  0  0  0  0  0  0
   -1.1850   -1.1192   -2.7208 C   0  0  0  0  0  0  0  0  0  0  0  0
   -2.3290   -2.9995    0.2729 C   0  0  0  0  0  0  0  0  0  0  0  0
   -1.8970   -4.1838   -0.3137 C   0  0  0  0  0  0  0  0  0  0  0  0
   -2.1740   -5.3998    0.2783 C   0  0  0  0  0  0  0  0  0  0  0  0
   -2.8934   -5.4607    1.4661 C   0  0  0  0  0  0  0  0  0  0  0  0
   -3.2025   -6.8045    2.0812 C   0  0  0  0  0  0  0  0  0  0  0  0
   -3.5583   -7.7840    1.1284 O   0  0  0  0  0  0  0  0  0  0  0  0
   -3.3159   -4.2789    2.0559 C   0  0  0  0  0  0  0  0  0  0  0  0
   -3.0275   -3.0586    1.4702 C   0  0  0  0  0  0  0  0  0  0  0  0
   -2.8555   -0.5282    0.0875 C   0  0  0  0  0  0  0  0  0  0  0  0
   -2.0923    0.4390    0.7218 C   0  0  0  0  0  0  0  0  0  0  0  0
   -0.7202    0.0402    0.7712 C   0  0  0  0  0  0  0  0  0  0  0  0
    0.4003    0.6765    1.3018 C   0  0  0  0  0  0  0  0  0  0  0  0
   -2.9910    1.8261    1.2333 S   0  0  0  0  0  0  0  0  0  0  0  0
   -4.4367    1.1136    0.5688 C   0  0  0  0  0  0  0  0  0  0  0  0
   -4.1903   -0.1500   -0.0114 C   0  0  0  0  0  0  0  0  0  0  0  0
   -5.6281   -0.8199   -0.6643 S   0  0  0  0  0  0  0  0  0  0  0  0
   -6.5550    0.6093   -0.1692 C   0  0  0  0  0  0  0  0  0  0  0  0
   -5.7537    1.5363    0.4821 C   0  0  0  0  0  0  0  0  0  0  0  0
   -7.9141    0.5938   -0.5266 C   0  0  0  0  0  0  0  0  0  0  0  0
   -8.9231    1.5054   -0.3541 C   0  0  0  0  0  0  0  0  0  0  0  0
  -10.2756    1.3050   -0.8502 C   0  0  0  0  0  0  0  0  0  0  0  0
  -10.7730    0.2132   -1.5145 C   0  0  0  0  0  0  0  0  0  0  0  0
  -10.0756   -0.9661   -1.8525 C   0  0  0  0  0  0  0  0  0  0  0  0
   -9.6053   -1.9630   -2.1785 N   0  0  0  0  0  0  0  0  0  0  0  0
  -12.1045    0.1011   -1.9700 C   0  0  0  0  0  0  0  0  0  0  0  0
  -13.1657   -0.0688   -2.3743 N   0  0  0  0  0  0  0  0  0  0  0  0
  -11.0538    2.4974   -0.5173 C   0  0  0  0  0  0  0  0  0  0  0  0
  -12.3744    2.8393   -0.7660 C   0  0  0  0  0  0  0  0  0  0  0  0
  -12.8375    4.0693   -0.3175 C   0  0  0  0  0  0  0  0  0  0  0  0
  -12.0128    4.9502    0.3673 C   0  0  0  0  0  0  0  0  0  0  0  0
  -10.6898    4.6184    0.6214 C   0  0  0  0  0  0  0  0  0  0  0  0
  -10.2265    3.3965    0.1747 C   0  0  0  0  0  0  0  0  0  0  0  0
   -8.8735    2.8245    0.3156 C   0  0  0  0  0  0  0  0  0  0  0  0
   -7.9400    3.3592    0.8799 O   0  0  0  0  0  0  0  0  0  0  0  0
   -1.8216   -1.0383   -8.1789 C   0  0  0  0  0  0  0  0  0  0  0  0
   -0.8044   -0.2439   -8.6907 O   0  0  0  0  0  0  0  0  0  0  0  0
   -4.7870   -7.5406    0.5235 C   0  0  0  0  0  0  0  0  0  0  0  0
   -4.9317   -8.4771   -0.4911 O   0  0  0  0  0  0  0  0  0  0  0  0
    8.3199    5.2377   -0.8719 C   0  0  0  0  0  0  0  0  0  0  0  0
    9.5526    4.6305   -0.6623 O   0  0  0  0  0  0  0  0  0  0  0  0
   10.6331    5.5092   -0.8684 C   0  0  0  0  0  0  0  0  0  0  0  0
   -0.8265   -0.1643  -10.0935 C   0  0  0  0  0  0  0  0  0  0  0  0
   -6.1466   -8.3437   -1.1856 C   0  0  0  0  0  0  0  0  0  0  0  0
    1.0452   -1.2922    7.7056 C   0  0  0  0  0  0  0  0  0  0  0  0
    0.9397   -2.6009    8.1578 O   0  0  0  0  0  0  0  0  0  0  0  0
   -0.3354   -3.1508    7.9462 C   0  0  0  0  0  0  0  0  0  0  0  0
    6.5920    3.2769   -3.8652 H   0  0  0  0  0  0  0  0  0  0  0  0
    7.9696    4.7695   -5.3135 H   0  0  0  0  0  0  0  0  0  0  0  0
   10.4111    4.7909   -5.0872 H   0  0  0  0  0  0  0  0  0  0  0  0
   11.5466    3.3734   -3.4360 H   0  0  0  0  0  0  0  0  0  0  0  0
    9.6470   -0.9184   -0.4387 H   0  0  0  0  0  0  0  0  0  0  0  0
    7.1869   -2.6318   -1.1661 H   0  0  0  0  0  0  0  0  0  0  0  0
    2.0438    2.4203    3.2988 H   0  0  0  0  0  0  0  0  0  0  0  0
    1.8471    2.3803    5.7447 H   0  0  0  0  0  0  0  0  0  0  0  0
    3.6124    0.6573    7.8894 H   0  0  0  0  0  0  0  0  0  0  0  0
    1.8988    1.1413    7.8104 H   0  0  0  0  0  0  0  0  0  0  0  0
    3.6140   -1.4956    5.8318 H   0  0  0  0  0  0  0  0  0  0  0  0
    3.7836   -1.4783    3.3746 H   0  0  0  0  0  0  0  0  0  0  0  0
    2.5145    1.6903   -0.7716 H   0  0  0  0  0  0  0  0  0  0  0  0
    3.8623    3.4467   -1.8285 H   0  0  0  0  0  0  0  0  0  0  0  0
    5.8029    4.8962   -1.8166 H   0  0  0  0  0  0  0  0  0  0  0  0
    5.9217    5.7563   -0.2593 H   0  0  0  0  0  0  0  0  0  0  0  0
    6.1190    3.8839    1.7622 H   0  0  0  0  0  0  0  0  0  0  0  0
    4.7901    2.1149    2.8170 H   0  0  0  0  0  0  0  0  0  0  0  0
    0.6678   -2.8145   -0.4944 H   0  0  0  0  0  0  0  0  0  0  0  0
   -3.9485   -2.8262   -1.8109 H   0  0  0  0  0  0  0  0  0  0  0  0
   -4.2605   -2.8529   -4.2422 H   0  0  0  0  0  0  0  0  0  0  0  0
   -2.6018   -2.8538   -6.4961 H   0  0  0  0  0  0  0  0  0  0  0  0
   -3.6709   -1.4377   -6.3940 H   0  0  0  0  0  0  0  0  0  0  0  0
   -0.6384   -0.6702   -4.7448 H   0  0  0  0  0  0  0  0  0  0  0  0
   -0.3240   -0.6208   -2.3009 H   0  0  0  0  0  0  0  0  0  0  0  0
   -1.3539   -4.1524   -1.2466 H   0  0  0  0  0  0  0  0  0  0  0  0
   -1.8505   -6.3209   -0.1827 H   0  0  0  0  0  0  0  0  0  0  0  0
   -2.3078   -7.2062    2.5672 H   0  0  0  0  0  0  0  0  0  0  0  0
   -3.9962   -6.7006    2.8372 H   0  0  0  0  0  0  0  0  0  0  0  0
   -3.8755   -4.3091    2.9800 H   0  0  0  0  0  0  0  0  0  0  0  0
   -3.3606   -2.1487    1.9476 H   0  0  0  0  0  0  0  0  0  0  0  0
    0.3083    1.6361    1.7861 H   0  0  0  0  0  0  0  0  0  0  0  0
   -6.1322    2.4676    0.8613 H   0  0  0  0  0  0  0  0  0  0  0  0
   -8.1891   -0.3142   -1.0502 H   0  0  0  0  0  0  0  0  0  0  0  0
  -13.0410    2.1785   -1.2949 H   0  0  0  0  0  0  0  0  0  0  0  0
  -13.8645    4.3423   -0.5087 H   0  0  0  0  0  0  0  0  0  0  0  0
  -12.4044    5.8987    0.7027 H   0  0  0  0  0  0  0  0  0  0  0  0
  -10.0278    5.2861    1.1513 H   0  0  0  0  0  0  0  0  0  0  0  0
   -2.8195   -0.6419   -8.4811 H   0  0  0  0  0  0  0  0  0  0  0  0
   -1.7445   -2.0785   -8.5743 H   0  0  0  0  0  0  0  0  0  0  0  0
   -4.8286   -6.5080    0.1100 H   0  0  0  0  0  0  0  0  0  0  0  0
   -5.6116   -7.6365    1.2683 H   0  0  0  0  0  0  0  0  0  0  0  0
    8.2317    5.5836   -1.9282 H   0  0  0  0  0  0  0  0  0  0  0  0
    8.2101    6.1337   -0.2183 H   0  0  0  0  0  0  0  0  0  0  0  0
   11.5386    4.9334   -0.6933 H   0  0  0  0  0  0  0  0  0  0  0  0
   10.5926    6.3547   -0.1718 H   0  0  0  0  0  0  0  0  0  0  0  0
   10.6359    5.8949   -1.8952 H   0  0  0  0  0  0  0  0  0  0  0  0
   -0.7023   -1.1540  -10.5506 H   0  0  0  0  0  0  0  0  0  0  0  0
   -1.7661    0.2738  -10.4527 H   0  0  0  0  0  0  0  0  0  0  0  0
    0.0063    0.4754  -10.3750 H   0  0  0  0  0  0  0  0  0  0  0  0
   -6.2278   -7.3571   -1.6588 H   0  0  0  0  0  0  0  0  0  0  0  0
   -7.0049   -8.4845   -0.5169 H   0  0  0  0  0  0  0  0  0  0  0  0
   -6.1472   -9.1179   -1.9489 H   0  0  0  0  0  0  0  0  0  0  0  0
    0.8298   -1.2378    6.6145 H   0  0  0  0  0  0  0  0  0  0  0  0
    0.3077   -0.6359    8.2252 H   0  0  0  0  0  0  0  0  0  0  0  0
   -0.2975   -4.1654    8.3352 H   0  0  0  0  0  0  0  0  0  0  0  0
   -1.1080   -2.5808    8.4778 H   0  0  0  0  0  0  0  0  0  0  0  0
   -0.5867   -3.1731    6.8780 H   0  0  0  0  0  0  0  0  0  0  0  0
  1  2  2  0  0  0  0
  1  3  1  0  0  0  0
  3  4  2  0  0  0  0
  4  5  1  0  0  0  0
  5  6  2  0  0  0  0
  6  7  1  0  0  0  0
  7  8  2  0  0  0  0
  3  8  1  0  0  0  0
  8  9  1  0  0  0  0
  9 10  2  0  0  0  0
 10 11  1  0  0  0  0
 11 12  3  0  0  0  0
 10 13  1  0  0  0  0
 13 14  3  0  0  0  0
  9 15  1  0  0  0  0
  1 15  1  0  0  0  0
 15 16  2  0  0  0  0
 16 17  1  0  0  0  0
 17 18  2  0  0  0  0
 18 19  1  0  0  0  0
 19 20  2  0  0  0  0
 20 21  1  0  0  0  0
 17 21  1  0  0  0  0
 20 22  1  0  0  0  0
 22 23  1  0  0  0  0
 23 24  1  0  0  0  0
 24 25  2  0  0  0  0
 25 26  1  0  0  0  0
 26 27  2  0  0  0  0
 27 28  1  0  0  0  0
 28 29  1  0  0  0  0
 27 30  1  0  0  0  0
 30 31  2  0  0  0  0
 24 31  1  0  0  0  0
 23 32  1  0  0  0  0
 32 33  2  0  0  0  0
 33 34  1  0  0  0  0
 34 35  2  0  0  0  0
 35 36  1  0  0  0  0
 36 37  1  0  0  0  0
 35 38  1  0  0  0  0
 38 39  2  0  0  0  0
 32 39  1  0  0  0  0
 23 40  1  0  0  0  0
 40 41  2  0  0  0  0
 41 42  1  0  0  0  0
 22 42  2  0  0  0  0
 42 43  1  0  0  0  0
 19 43  1  0  0  0  0
 41 44  1  0  0  0  0
 44 45  2  0  0  0  0
 45 46  1  0  0  0  0
 46 47  1  0  0  0  0
 47 48  2  0  0  0  0
 48 49  1  0  0  0  0
 49 50  2  0  0  0  0
 50 51  1  0  0  0  0
 51 52  1  0  0  0  0
 50 53  1  0  0  0  0
 53 54  2  0  0  0  0
 47 54  1  0  0  0  0
 46 55  1  0  0  0  0
 55 56  2  0  0  0  0
 56 57  1  0  0  0  0
 57 58  2  0  0  0  0
 58 59  1  0  0  0  0
 59 60  1  0  0  0  0
 58 61  1  0  0  0  0
 61 62  2  0  0  0  0
 55 62  1  0  0  0  0
 46 63  1  0  0  0  0
 63 64  2  0  0  0  0
 64 65  1  0  0  0  0
 45 65  1  0  0  0  0
 65 66  2  0  0  0  0
 40 66  1  0  0  0  0
 64 67  1  0  0  0  0
 67 68  1  0  0  0  0
 68 69  2  0  0  0  0
 63 69  1  0  0  0  0
 69 70  1  0  0  0  0
 70 71  1  0  0  0  0
 71 72  2  0  0  0  0
 68 72  1  0  0  0  0
 71 73  1  0  0  0  0
 73 74  2  0  0  0  0
 74 75  1  0  0  0  0
 75 76  2  0  0  0  0
 76 77  1  0  0  0  0
 77 78  3  0  0  0  0
 76 79  1  0  0  0  0
 79 80  3  0  0  0  0
 75 81  1  0  0  0  0
 81 82  2  0  0  0  0
 82 83  1  0  0  0  0
 83 84  2  0  0  0  0
 84 85  1  0  0  0  0
 85 86  2  0  0  0  0
 81 86  1  0  0  0  0
 86 87  1  0  0  0  0
 74 87  1  0  0  0  0
 87 88  2  0  0  0  0
 52 89  1  0  0  0  0
 89 90  1  0  0  0  0
 60 91  1  0  0  0  0
 91 92  1  0  0  0  0
 37 93  1  0  0  0  0
 93 94  1  0  0  0  0
 94 95  1  0  0  0  0
 90 96  1  0  0  0  0
 92 97  1  0  0  0  0
 29 98  1  0  0  0  0
 98 99  1  0  0  0  0
 99100  1  0  0  0  0
  4101  1  0  0  0  0
  5102  1  0  0  0  0
  6103  1  0  0  0  0
  7104  1  0  0  0  0
 16105  1  0  0  0  0
 18106  1  0  0  0  0
 25107  1  0  0  0  0
 26108  1  0  0  0  0
 28109  1  0  0  0  0
 28110  1  0  0  0  0
 30111  1  0  0  0  0
 31112  1  0  0  0  0
 33113  1  0  0  0  0
 34114  1  0  0  0  0
 36115  1  0  0  0  0
 36116  1  0  0  0  0
 38117  1  0  0  0  0
 39118  1  0  0  0  0
 44119  1  0  0  0  0
 48120  1  0  0  0  0
 49121  1  0  0  0  0
 51122  1  0  0  0  0
 51123  1  0  0  0  0
 53124  1  0  0  0  0
 54125  1  0  0  0  0
 56126  1  0  0  0  0
 57127  1  0  0  0  0
 59128  1  0  0  0  0
 59129  1  0  0  0  0
 61130  1  0  0  0  0
 62131  1  0  0  0  0
 66132  1  0  0  0  0
 72133  1  0  0  0  0
 73134  1  0  0  0  0
 82135  1  0  0  0  0
 83136  1  0  0  0  0
 84137  1  0  0  0  0
 85138  1  0  0  0  0
 89139  1  0  0  0  0
 89140  1  0  0  0  0
 91141  1  0  0  0  0
 91142  1  0  0  0  0
 93143  1  0  0  0  0
 93144  1  0  0  0  0
 95145  1  0  0  0  0
 95146  1  0  0  0  0
 95147  1  0  0  0  0
 96148  1  0  0  0  0
 96149  1  0  0  0  0
 96150  1  0  0  0  0
 97151  1  0  0  0  0
 97152  1  0  0  0  0
 97153  1  0  0  0  0
 98154  1  0  0  0  0
 98155  1  0  0  0  0
100156  1  0  0  0  0
100157  1  0  0  0  0
100158  1  0  0  0  0
M  END
