SCF done       -225.204044743415          0.000747500937
 OpenBabel12282109493D

138152  0  0  0  0  0  0  0  0999 V2000
   -0.1965    2.5528   -0.2666 C   0  0  0  0  0  0  0  0  0  0  0  0
   -0.9013    3.5020   -0.5450 O   0  0  0  0  0  0  0  0  0  0  0  0
    1.2788    2.5666   -0.2329 C   0  0  0  0  0  0  0  0  0  0  0  0
    2.1303    3.6250   -0.4825 C   0  0  0  0  0  0  0  0  0  0  0  0
    3.4964    3.4037   -0.3843 C   0  0  0  0  0  0  0  0  0  0  0  0
    3.9812    2.1497   -0.0414 C   0  0  0  0  0  0  0  0  0  0  0  0
    3.1272    1.0832    0.2076 C   0  0  0  0  0  0  0  0  0  0  0  0
    1.7601    1.2924    0.1086 C   0  0  0  0  0  0  0  0  0  0  0  0
    0.6203    0.3950    0.2887 C   0  0  0  0  0  0  0  0  0  0  0  0
    0.7178   -0.9521    0.5227 C   0  0  0  0  0  0  0  0  0  0  0  0
   -0.3501   -1.8705    0.6149 C   0  0  0  0  0  0  0  0  0  0  0  0
   -1.1431   -2.6989    0.6876 N   0  0  0  0  0  0  0  0  0  0  0  0
    1.9395   -1.6420    0.6786 C   0  0  0  0  0  0  0  0  0  0  0  0
    2.8890   -2.2715    0.8223 N   0  0  0  0  0  0  0  0  0  0  0  0
   -0.5934    1.1776    0.1131 C   0  0  0  0  0  0  0  0  0  0  0  0
   -1.8491    0.6805    0.3441 C   0  0  0  0  0  0  0  0  0  0  0  0
   -3.1275    1.2485    0.2009 C   0  0  0  0  0  0  0  0  0  0  0  0
   -3.5692    2.4741   -0.2761 C   0  0  0  0  0  0  0  0  0  0  0  0
   -4.9522    2.5654   -0.2682 C   0  0  0  0  0  0  0  0  0  0  0  0
   -5.6094    1.4126    0.2143 C   0  0  0  0  0  0  0  0  0  0  0  0
   -4.4808    0.2036    0.6689 S   0  0  0  0  0  0  0  0  0  0  0  0
   -6.9946    1.5447    0.1924 C   0  0  0  0  0  0  0  0  0  0  0  0
   -8.1949    0.6913    0.5003 C   0  0  0  0  0  0  0  0  0  0  0  0
   -8.0906   -0.5579   -0.3571 C   0  0  0  0  0  0  0  0  0  0  0  0
   -7.2584   -1.5912    0.0574 C   0  0  0  0  0  0  0  0  0  0  0  0
   -7.0891   -2.7134   -0.7293 C   0  0  0  0  0  0  0  0  0  0  0  0
   -7.7411   -2.8320   -1.9506 C   0  0  0  0  0  0  0  0  0  0  0  0
   -7.5928   -4.0738   -2.7810 C   0  0  0  0  0  0  0  0  0  0  0  0
   -8.6390   -5.1144   -2.3763 C   0  0  0  0  0  0  0  0  0  0  0  0
   -8.5653   -1.7937   -2.3618 C   0  0  0  0  0  0  0  0  0  0  0  0
   -8.7343   -0.6641   -1.5810 C   0  0  0  0  0  0  0  0  0  0  0  0
   -8.3458    0.3559    1.9724 C   0  0  0  0  0  0  0  0  0  0  0  0
   -7.7307    1.1234    2.9509 C   0  0  0  0  0  0  0  0  0  0  0  0
   -7.9047    0.8233    4.2896 C   0  0  0  0  0  0  0  0  0  0  0  0
   -8.7005   -0.2429    4.6847 C   0  0  0  0  0  0  0  0  0  0  0  0
   -8.9208   -0.5434    6.1390 C   0  0  0  0  0  0  0  0  0  0  0  0
  -10.1585    0.1931    6.6555 C   0  0  0  0  0  0  0  0  0  0  0  0
   -9.3272   -0.9978    3.7012 C   0  0  0  0  0  0  0  0  0  0  0  0
   -9.1548   -0.7040    2.3624 C   0  0  0  0  0  0  0  0  0  0  0  0
   -9.3204    1.6297    0.1006 C   0  0  0  0  0  0  0  0  0  0  0  0
   -8.8099    2.8646   -0.3662 C   0  0  0  0  0  0  0  0  0  0  0  0
   -7.3842    2.7753   -0.3114 C   0  0  0  0  0  0  0  0  0  0  0  0
   -6.0704    3.8107   -0.7528 S   0  0  0  0  0  0  0  0  0  0  0  0
   -9.6458    3.8937   -0.7923 C   0  0  0  0  0  0  0  0  0  0  0  0
  -11.0002    3.6606   -0.7512 C   0  0  0  0  0  0  0  0  0  0  0  0
  -12.1248    4.5810   -1.1913 C   0  0  0  0  0  0  0  0  0  0  0  0
  -12.3389    5.7730   -0.2723 C   0  0  0  0  0  0  0  0  0  0  0  0
  -11.7396    5.8589    0.9753 C   0  0  0  0  0  0  0  0  0  0  0  0
  -12.0113    6.9309    1.8071 C   0  0  0  0  0  0  0  0  0  0  0  0
  -12.8939    7.9302    1.4219 C   0  0  0  0  0  0  0  0  0  0  0  0
  -13.1580    9.1100    2.3124 C   0  0  0  0  0  0  0  0  0  0  0  0
  -12.1716   10.2399    2.0102 C   0  0  0  0  0  0  0  0  0  0  0  0
  -13.4958    7.8337    0.1732 C   0  0  0  0  0  0  0  0  0  0  0  0
  -13.2258    6.7693   -0.6640 C   0  0  0  0  0  0  0  0  0  0  0  0
  -11.8892    5.0124   -2.6248 C   0  0  0  0  0  0  0  0  0  0  0  0
  -12.3828    4.2678   -3.6865 C   0  0  0  0  0  0  0  0  0  0  0  0
  -12.1339    4.6557   -4.9897 C   0  0  0  0  0  0  0  0  0  0  0  0
  -11.3771    5.7862   -5.2660 C   0  0  0  0  0  0  0  0  0  0  0  0
  -11.1549    6.2340   -6.6816 C   0  0  0  0  0  0  0  0  0  0  0  0
  -12.2970    7.1455   -7.1354 C   0  0  0  0  0  0  0  0  0  0  0  0
  -10.8733    6.5195   -4.1997 C   0  0  0  0  0  0  0  0  0  0  0  0
  -11.1222    6.1383   -2.8951 C   0  0  0  0  0  0  0  0  0  0  0  0
  -13.3152    3.6785   -1.0093 C   0  0  0  0  0  0  0  0  0  0  0  0
  -12.9300    2.4709   -0.4517 C   0  0  0  0  0  0  0  0  0  0  0  0
  -11.5102    2.4202   -0.2968 C   0  0  0  0  0  0  0  0  0  0  0  0
  -10.6751    1.3988    0.1485 C   0  0  0  0  0  0  0  0  0  0  0  0
  -14.2377    1.3726   -0.1642 S   0  0  0  0  0  0  0  0  0  0  0  0
  -15.3393    2.5533   -0.8253 C   0  0  0  0  0  0  0  0  0  0  0  0
  -14.6897    3.7409   -1.2266 C   0  0  0  0  0  0  0  0  0  0  0  0
  -15.7847    4.8750   -1.9155 S   0  0  0  0  0  0  0  0  0  0  0  0
  -17.1201    3.7539   -1.6698 C   0  0  0  0  0  0  0  0  0  0  0  0
  -16.6982    2.5656   -1.0667 C   0  0  0  0  0  0  0  0  0  0  0  0
  -18.4595    3.9563   -2.0337 C   0  0  0  0  0  0  0  0  0  0  0  0
  -19.0613    5.0125   -2.6687 C   0  0  0  0  0  0  0  0  0  0  0  0
  -20.4629    5.0958   -3.0325 C   0  0  0  0  0  0  0  0  0  0  0  0
  -21.4498    4.1811   -2.7714 C   0  0  0  0  0  0  0  0  0  0  0  0
  -22.7976    4.3353   -3.1601 C   0  0  0  0  0  0  0  0  0  0  0  0
  -23.9083    4.3863   -3.4462 N   0  0  0  0  0  0  0  0  0  0  0  0
  -21.2887    2.9622   -2.0797 C   0  0  0  0  0  0  0  0  0  0  0  0
  -21.2488    1.9543   -1.5297 N   0  0  0  0  0  0  0  0  0  0  0  0
  -20.6562    6.3613   -3.7420 C   0  0  0  0  0  0  0  0  0  0  0  0
  -21.7783    6.9304   -4.3234 C   0  0  0  0  0  0  0  0  0  0  0  0
  -21.6500    8.1681   -4.9413 C   0  0  0  0  0  0  0  0  0  0  0  0
  -20.4348    8.8356   -4.9848 C   0  0  0  0  0  0  0  0  0  0  0  0
  -19.3043    8.2752   -4.4068 C   0  0  0  0  0  0  0  0  0  0  0  0
  -19.4286    7.0444   -3.7935 C   0  0  0  0  0  0  0  0  0  0  0  0
  -18.3929    6.2396   -3.1214 C   0  0  0  0  0  0  0  0  0  0  0  0
  -17.2225    6.5460   -2.9790 O   0  0  0  0  0  0  0  0  0  0  0  0
    1.7281    4.5916   -0.7444 H   0  0  0  0  0  0  0  0  0  0  0  0
    4.1877    4.2111   -0.5737 H   0  0  0  0  0  0  0  0  0  0  0  0
    5.0471    1.9944    0.0338 H   0  0  0  0  0  0  0  0  0  0  0  0
    3.5354    0.1222    0.4735 H   0  0  0  0  0  0  0  0  0  0  0  0
   -1.8903   -0.3392    0.7093 H   0  0  0  0  0  0  0  0  0  0  0  0
   -2.8998    3.2460   -0.6081 H   0  0  0  0  0  0  0  0  0  0  0  0
   -6.7445   -1.5170    1.0050 H   0  0  0  0  0  0  0  0  0  0  0  0
   -6.4360   -3.5051   -0.3924 H   0  0  0  0  0  0  0  0  0  0  0  0
   -7.7174   -3.8302   -3.8381 H   0  0  0  0  0  0  0  0  0  0  0  0
   -6.5951   -4.4942   -2.6414 H   0  0  0  0  0  0  0  0  0  0  0  0
   -9.6421   -4.7184   -2.5200 H   0  0  0  0  0  0  0  0  0  0  0  0
   -8.5317   -6.0149   -2.9764 H   0  0  0  0  0  0  0  0  0  0  0  0
   -8.5226   -5.3794   -1.3279 H   0  0  0  0  0  0  0  0  0  0  0  0
   -9.0783   -1.8633   -3.3106 H   0  0  0  0  0  0  0  0  0  0  0  0
   -9.3710    0.1360   -1.9299 H   0  0  0  0  0  0  0  0  0  0  0  0
   -7.1072    1.9599    2.6699 H   0  0  0  0  0  0  0  0  0  0  0  0
   -7.4105    1.4265    5.0378 H   0  0  0  0  0  0  0  0  0  0  0  0
   -8.0489   -0.2323    6.7177 H   0  0  0  0  0  0  0  0  0  0  0  0
   -9.0577   -1.6176    6.2780 H   0  0  0  0  0  0  0  0  0  0  0  0
  -11.0412   -0.1127    6.0983 H   0  0  0  0  0  0  0  0  0  0  0  0
  -10.3193   -0.0252    7.7086 H   0  0  0  0  0  0  0  0  0  0  0  0
  -10.0361    1.2676    6.5377 H   0  0  0  0  0  0  0  0  0  0  0  0
   -9.9539   -1.8304    3.9870 H   0  0  0  0  0  0  0  0  0  0  0  0
   -9.6389   -1.3129    1.6128 H   0  0  0  0  0  0  0  0  0  0  0  0
   -9.2379    4.8272   -1.1479 H   0  0  0  0  0  0  0  0  0  0  0  0
  -11.0579    5.0879    1.3043 H   0  0  0  0  0  0  0  0  0  0  0  0
  -11.5338    6.9847    2.7752 H   0  0  0  0  0  0  0  0  0  0  0  0
  -14.1765    9.4705    2.1550 H   0  0  0  0  0  0  0  0  0  0  0  0
  -13.0574    8.8147    3.3587 H   0  0  0  0  0  0  0  0  0  0  0  0
  -12.2644   10.5551    0.9733 H   0  0  0  0  0  0  0  0  0  0  0  0
  -12.3648   11.0960    2.6525 H   0  0  0  0  0  0  0  0  0  0  0  0
  -11.1502    9.9046    2.1758 H   0  0  0  0  0  0  0  0  0  0  0  0
  -14.1910    8.5965   -0.1461 H   0  0  0  0  0  0  0  0  0  0  0  0
  -13.7062    6.7105   -1.6296 H   0  0  0  0  0  0  0  0  0  0  0  0
  -12.9682    3.3797   -3.4974 H   0  0  0  0  0  0  0  0  0  0  0  0
  -12.5325    4.0686   -5.8048 H   0  0  0  0  0  0  0  0  0  0  0  0
  -10.2100    6.7761   -6.7554 H   0  0  0  0  0  0  0  0  0  0  0  0
  -11.1034    5.3655   -7.3416 H   0  0  0  0  0  0  0  0  0  0  0  0
  -12.3575    8.0225   -6.4947 H   0  0  0  0  0  0  0  0  0  0  0  0
  -12.1389    7.4731   -8.1603 H   0  0  0  0  0  0  0  0  0  0  0  0
  -13.2465    6.6177   -7.0808 H   0  0  0  0  0  0  0  0  0  0  0  0
  -10.2779    7.4007   -4.3926 H   0  0  0  0  0  0  0  0  0  0  0  0
  -10.7292    6.7277   -2.0792 H   0  0  0  0  0  0  0  0  0  0  0  0
  -11.0833    0.4624    0.4957 H   0  0  0  0  0  0  0  0  0  0  0  0
  -17.3730    1.7609   -0.8361 H   0  0  0  0  0  0  0  0  0  0  0  0
  -19.0957    3.1188   -1.7737 H   0  0  0  0  0  0  0  0  0  0  0  0
  -22.7359    6.4369   -4.3077 H   0  0  0  0  0  0  0  0  0  0  0  0
  -22.5196    8.6171   -5.3974 H   0  0  0  0  0  0  0  0  0  0  0  0
  -20.3696    9.7965   -5.4727 H   0  0  0  0  0  0  0  0  0  0  0  0
  -18.3477    8.7743   -4.4292 H   0  0  0  0  0  0  0  0  0  0  0  0
  1  3  1  0  0  0  0
  1 15  1  0  0  0  0
  2  1  2  0  0  0  0
  3  8  2  0  0  0  0
  4  5  2  0  0  0  0
  4  3  1  0  0  0  0
  5  6  1  0  0  0  0
  6 91  1  0  0  0  0
  6  7  2  0  0  0  0
  7 92  1  0  0  0  0
  8  7  1  0  0  0  0
  8  9  1  0  0  0  0
  9 10  2  0  0  0  0
 10 11  1  0  0  0  0
 10 13  1  0  0  0  0
 11 12  3  0  0  0  0
 13 14  3  0  0  0  0
 15  9  1  0  0  0  0
 15 16  2  0  0  0  0
 16 93  1  0  0  0  0
 17 16  1  0  0  0  0
 17 21  1  0  0  0  0
 18 19  1  0  0  0  0
 18 17  2  0  0  0  0
 19 20  2  0  0  0  0
 20 21  1  0  0  0  0
 22 20  1  0  0  0  0
 22 23  1  0  0  0  0
 23 32  1  0  0  0  0
 24 25  1  0  0  0  0
 24 23  1  0  0  0  0
 25 95  1  0  0  0  0
 26 96  1  0  0  0  0
 26 25  2  0  0  0  0
 27 26  1  0  0  0  0
 28 98  1  0  0  0  0
 28 29  1  0  0  0  0
 28 27  1  0  0  0  0
 29101  1  0  0  0  0
 30 27  2  0  0  0  0
 30 31  1  0  0  0  0
 31 24  2  0  0  0  0
 32 39  2  0  0  0  0
 32 33  1  0  0  0  0
 33 34  2  0  0  0  0
 34 35  1  0  0  0  0
 34105  1  0  0  0  0
 35 36  1  0  0  0  0
 36107  1  0  0  0  0
 36 37  1  0  0  0  0
 36106  1  0  0  0  0
 37109  1  0  0  0  0
 38111  1  0  0  0  0
 38 35  2  0  0  0  0
 39 38  1  0  0  0  0
 40 66  1  0  0  0  0
 40 23  1  0  0  0  0
 41 42  1  0  0  0  0
 41 40  2  0  0  0  0
 42 22  2  0  0  0  0
 43 42  1  0  0  0  0
 43 19  1  0  0  0  0
 44 45  2  0  0  0  0
 44 41  1  0  0  0  0
 45 65  1  0  0  0  0
 46 63  1  0  0  0  0
 46 45  1  0  0  0  0
 46 47  1  0  0  0  0
 47 48  1  0  0  0  0
 48114  1  0  0  0  0
 48 49  2  0  0  0  0
 49115  1  0  0  0  0
 50 49  1  0  0  0  0
 50 51  1  0  0  0  0
 51117  1  0  0  0  0
 52120  1  0  0  0  0
 52 51  1  0  0  0  0
 52119  1  0  0  0  0
 53 50  2  0  0  0  0
 54 47  2  0  0  0  0
 54 53  1  0  0  0  0
 55 46  1  0  0  0  0
 56123  1  0  0  0  0
 56 55  2  0  0  0  0
 57 56  1  0  0  0  0
 58 57  2  0  0  0  0
 58 61  1  0  0  0  0
 59 58  1  0  0  0  0
 60129  1  0  0  0  0
 60 59  1  0  0  0  0
 60127  1  0  0  0  0
 61 62  2  0  0  0  0
 62 55  1  0  0  0  0
 62131  1  0  0  0  0
 63 64  2  0  0  0  0
 64 65  1  0  0  0  0
 64 67  1  0  0  0  0
 65 66  2  0  0  0  0
 66132  1  0  0  0  0
 68 67  1  0  0  0  0
 69 63  1  0  0  0  0
 69 68  2  0  0  0  0
 70 71  1  0  0  0  0
 70 69  1  0  0  0  0
 71 72  2  0  0  0  0
 72133  1  0  0  0  0
 72 68  1  0  0  0  0
 73134  1  0  0  0  0
 73 71  1  0  0  0  0
 74 73  2  0  0  0  0
 75 76  2  0  0  0  0
 75 74  1  0  0  0  0
 76 79  1  0  0  0  0
 77 76  1  0  0  0  0
 78 77  3  0  0  0  0
 79 80  3  0  0  0  0
 81 75  1  0  0  0  0
 82135  1  0  0  0  0
 82 81  2  0  0  0  0
 83 82  1  0  0  0  0
 84 83  2  0  0  0  0
 84 85  1  0  0  0  0
 85 86  2  0  0  0  0
 86 81  1  0  0  0  0
 86 87  1  0  0  0  0
 87 88  2  0  0  0  0
 87 74  1  0  0  0  0
 89  4  1  0  0  0  0
 90  5  1  0  0  0  0
 94 18  1  0  0  0  0
 97 28  1  0  0  0  0
 99 29  1  0  0  0  0
100 29  1  0  0  0  0
102 30  1  0  0  0  0
103 31  1  0  0  0  0
104 33  1  0  0  0  0
108 37  1  0  0  0  0
110 37  1  0  0  0  0
112 39  1  0  0  0  0
113 44  1  0  0  0  0
116 51  1  0  0  0  0
118 52  1  0  0  0  0
121 53  1  0  0  0  0
122 54  1  0  0  0  0
124 57  1  0  0  0  0
125 59  1  0  0  0  0
126 59  1  0  0  0  0
128 60  1  0  0  0  0
130 61  1  0  0  0  0
136 83  1  0  0  0  0
137 84  1  0  0  0  0
138 85  1  0  0  0  0
M  END
