ITOIC-2F.sdf
  xtb     12202114433D
 energy: -294.253801417496 gnorm: 0.000478386728 xtb: 6.4.1 (unknown)
174188  0     0  0            999 V2000
    0.2124   -2.3649   -0.4996 C   0  0  0  0  0  0  0  0  0  0  0  0
    1.2136   -1.5458    0.0747 C   0  0  0  0  0  0  0  0  0  0  0  0
    0.9383   -0.6736    1.1251 C   0  0  0  0  0  0  0  0  0  0  0  0
   -0.3659   -0.5960    1.5509 C   0  0  0  0  0  0  0  0  0  0  0  0
   -1.3824   -1.3536    0.9209 C   0  0  0  0  0  0  0  0  0  0  0  0
   -1.0975   -2.2664   -0.0922 C   0  0  0  0  0  0  0  0  0  0  0  0
    0.7904   -3.2273   -1.6106 C   0  0  0  0  0  0  0  0  0  0  0  0
    2.2011   -2.6983   -1.6772 C   0  0  0  0  0  0  0  0  0  0  0  0
    2.4139   -1.7724   -0.6636 C   0  0  0  0  0  0  0  0  0  0  0  0
    3.3188   -2.8946   -2.4761 C   0  0  0  0  0  0  0  0  0  0  0  0
    4.3798   -2.0908   -2.0855 C   0  0  0  0  0  0  0  0  0  0  0  0
    3.9965   -1.1140   -0.6834 S   0  0  0  0  0  0  0  0  0  0  0  0
   -0.9472    0.3005    2.6323 C   0  0  0  0  0  0  0  0  0  0  0  0
   -2.4233    0.0694    2.4290 C   0  0  0  0  0  0  0  0  0  0  0  0
   -2.6239   -0.9267    1.4834 C   0  0  0  0  0  0  0  0  0  0  0  0
   -3.6050    0.5852    2.9470 C   0  0  0  0  0  0  0  0  0  0  0  0
   -4.7207   -0.0072    2.3762 C   0  0  0  0  0  0  0  0  0  0  0  0
   -4.2870   -1.2503    1.2164 S   0  0  0  0  0  0  0  0  0  0  0  0
    5.6387   -1.9651   -2.7127 C   0  0  0  0  0  0  0  0  0  0  0  0
   -6.0840    0.3261    2.5732 C   0  0  0  0  0  0  0  0  0  0  0  0
   -0.6152   -0.1719    4.0388 C   0  0  0  0  0  0  0  0  0  0  0  0
   -0.4865    1.7233    2.3966 C   0  0  0  0  0  0  0  0  0  0  0  0
    0.8838   -4.6998   -1.2462 C   0  0  0  0  0  0  0  0  0  0  0  0
   -0.0190   -3.0152   -2.8738 C   0  0  0  0  0  0  0  0  0  0  0  0
    0.6842   -5.1554    0.0481 C   0  0  0  0  0  0  0  0  0  0  0  0
    0.8261   -6.4994    0.3458 C   0  0  0  0  0  0  0  0  0  0  0  0
    1.1807   -7.4160   -0.6337 C   0  0  0  0  0  0  0  0  0  0  0  0
    1.3870   -6.9521   -1.9273 C   0  0  0  0  0  0  0  0  0  0  0  0
    1.2445   -5.6127   -2.2305 C   0  0  0  0  0  0  0  0  0  0  0  0
    0.3081   -2.0142   -3.7771 C   0  0  0  0  0  0  0  0  0  0  0  0
   -0.4674   -1.8043   -4.9026 C   0  0  0  0  0  0  0  0  0  0  0  0
   -1.5910   -2.5806   -5.1505 C   0  0  0  0  0  0  0  0  0  0  0  0
   -1.9225   -3.5719   -4.2356 C   0  0  0  0  0  0  0  0  0  0  0  0
   -1.1491   -3.7878   -3.1114 C   0  0  0  0  0  0  0  0  0  0  0  0
   -0.0503   -1.4139    4.2862 C   0  0  0  0  0  0  0  0  0  0  0  0
    0.1942   -1.8254    5.5845 C   0  0  0  0  0  0  0  0  0  0  0  0
   -0.1281   -1.0161    6.6644 C   0  0  0  0  0  0  0  0  0  0  0  0
   -0.7009    0.2245    6.4106 C   0  0  0  0  0  0  0  0  0  0  0  0
   -0.9452    0.6410    5.1171 C   0  0  0  0  0  0  0  0  0  0  0  0
    0.7232    2.1560    2.9267 C   0  0  0  0  0  0  0  0  0  0  0  0
    1.1868    3.4311    2.6675 C   0  0  0  0  0  0  0  0  0  0  0  0
    0.4587    4.3071    1.8721 C   0  0  0  0  0  0  0  0  0  0  0  0
   -0.7465    3.8686    1.3415 C   0  0  0  0  0  0  0  0  0  0  0  0
   -1.2141    2.5919    1.5961 C   0  0  0  0  0  0  0  0  0  0  0  0
    0.1767   -1.4466    8.0702 C   0  0  0  0  0  0  0  0  0  0  0  0
    0.9951    5.6732    1.5543 C   0  0  0  0  0  0  0  0  0  0  0  0
   -2.4587   -2.3221   -6.3480 C   0  0  0  0  0  0  0  0  0  0  0  0
    1.2903   -8.8797   -0.3181 C   0  0  0  0  0  0  0  0  0  0  0  0
   -3.5792   -1.3425   -5.9928 C   0  0  0  0  0  0  0  0  0  0  0  0
   -0.0501   -9.5783   -0.5556 C   0  0  0  0  0  0  0  0  0  0  0  0
    1.5430   -0.9153    8.5084 C   0  0  0  0  0  0  0  0  0  0  0  0
    1.9682    5.6023    0.3756 C   0  0  0  0  0  0  0  0  0  0  0  0
   -7.3426   -0.5982    1.8223 S   0  0  0  0  0  0  0  0  0  0  0  0
   -8.5717    0.5256    2.3759 C   0  0  0  0  0  0  0  0  0  0  0  0
   -8.0176    1.4537    3.2687 C   0  0  0  0  0  0  0  0  0  0  0  0
   -6.6009    1.3799    3.3253 C   0  0  0  0  0  0  0  0  0  0  0  0
    6.1094   -2.9388   -4.0559 S   0  0  0  0  0  0  0  0  0  0  0  0
    7.6662   -2.1458   -4.1596 C   0  0  0  0  0  0  0  0  0  0  0  0
    7.7810   -1.1320   -3.1902 C   0  0  0  0  0  0  0  0  0  0  0  0
    6.6223   -1.0333   -2.3908 C   0  0  0  0  0  0  0  0  0  0  0  0
    6.3852   -0.0976   -1.4119 O   0  0  0  0  0  0  0  0  0  0  0  0
    5.9645    1.1714   -1.9201 C   0  0  0  0  0  0  0  0  0  0  0  0
    5.7791    2.1120   -0.7438 C   0  0  0  0  0  0  0  0  0  0  0  0
    8.5181   -2.4978   -5.2146 C   0  0  0  0  0  0  0  0  0  0  0  0
    9.8821   -2.3330   -5.2796 C   0  0  0  0  0  0  0  0  0  0  0  0
   10.7715   -2.2360   -4.1093 C   0  0  0  0  0  0  0  0  0  0  0  0
   12.1475   -2.2180   -4.6624 C   0  0  0  0  0  0  0  0  0  0  0  0
   12.0938   -2.3514   -6.0594 C   0  0  0  0  0  0  0  0  0  0  0  0
   10.6906   -2.4257   -6.4695 C   0  0  0  0  0  0  0  0  0  0  0  0
   13.3436   -2.1156   -3.9816 C   0  0  0  0  0  0  0  0  0  0  0  0
   14.5123   -2.1369   -4.7264 C   0  0  0  0  0  0  0  0  0  0  0  0
   14.4686   -2.2692   -6.1133 C   0  0  0  0  0  0  0  0  0  0  0  0
   13.2665   -2.3798   -6.7970 C   0  0  0  0  0  0  0  0  0  0  0  0
   10.4767   -2.2931   -2.9346 O   0  0  0  0  0  0  0  0  0  0  0  0
   10.2432   -2.4831   -7.7662 C   0  0  0  0  0  0  0  0  0  0  0  0
    8.8881   -2.4467   -8.1544 C   0  0  0  0  0  0  0  0  0  0  0  0
   11.0886   -2.5602   -8.8913 C   0  0  0  0  0  0  0  0  0  0  0  0
   11.7241   -2.6326   -9.8449 N   0  0  0  0  0  0  0  0  0  0  0  0
    7.8110   -2.3990   -8.5506 N   0  0  0  0  0  0  0  0  0  0  0  0
   15.6136   -2.2925   -6.8073 F   0  0  0  0  0  0  0  0  0  0  0  0
   15.6955   -2.0286   -4.1059 F   0  0  0  0  0  0  0  0  0  0  0  0
   -5.7693    2.2030    3.9966 O   0  0  0  0  0  0  0  0  0  0  0  0
   -6.1605    3.5581    4.2235 C   0  0  0  0  0  0  0  0  0  0  0  0
   -6.4842    3.7986    5.6911 C   0  0  0  0  0  0  0  0  0  0  0  0
   -9.8427    0.4517    1.7951 C   0  0  0  0  0  0  0  0  0  0  0  0
  -10.6331    1.5417    1.4931 C   0  0  0  0  0  0  0  0  0  0  0  0
  -10.1111    2.9128    1.3602 C   0  0  0  0  0  0  0  0  0  0  0  0
  -11.1733    3.6629    0.6470 C   0  0  0  0  0  0  0  0  0  0  0  0
  -12.2721    2.8190    0.4122 C   0  0  0  0  0  0  0  0  0  0  0  0
  -11.9772    1.5032    0.9772 C   0  0  0  0  0  0  0  0  0  0  0  0
  -11.1597    4.9785    0.2308 C   0  0  0  0  0  0  0  0  0  0  0  0
  -12.2787    5.4537   -0.4356 C   0  0  0  0  0  0  0  0  0  0  0  0
  -13.3717    4.6220   -0.6753 C   0  0  0  0  0  0  0  0  0  0  0  0
  -13.3858    3.2990   -0.2565 C   0  0  0  0  0  0  0  0  0  0  0  0
   -9.0205    3.3419    1.6835 O   0  0  0  0  0  0  0  0  0  0  0  0
  -12.8551    0.4561    1.0981 C   0  0  0  0  0  0  0  0  0  0  0  0
  -12.5540   -0.7285    1.8014 C   0  0  0  0  0  0  0  0  0  0  0  0
  -14.1702    0.4662    0.5935 C   0  0  0  0  0  0  0  0  0  0  0  0
  -12.3743   -1.6916    2.4002 N   0  0  0  0  0  0  0  0  0  0  0  0
  -15.2456    0.4242    0.1939 N   0  0  0  0  0  0  0  0  0  0  0  0
  -12.3084    6.7260   -0.8538 F   0  0  0  0  0  0  0  0  0  0  0  0
  -14.4347    5.1069   -1.3278 F   0  0  0  0  0  0  0  0  0  0  0  0
    8.8331   -0.3078   -3.2134 O   0  0  0  0  0  0  0  0  0  0  0  0
    9.3037    0.2897   -1.9994 C   0  0  0  0  0  0  0  0  0  0  0  0
    9.9667    1.6111   -2.3499 C   0  0  0  0  0  0  0  0  0  0  0  0
   -8.6762    2.2400    4.1329 O   0  0  0  0  0  0  0  0  0  0  0  0
  -10.0387    2.0110    4.4311 C   0  0  0  0  0  0  0  0  0  0  0  0
  -10.2973    2.5050    5.8466 C   0  0  0  0  0  0  0  0  0  0  0  0
    1.7193   -0.0711    1.5627 H   0  0  0  0  0  0  0  0  0  0  0  0
   -1.8830   -2.8485   -0.5487 H   0  0  0  0  0  0  0  0  0  0  0  0
    3.3851   -3.5569   -3.3202 H   0  0  0  0  0  0  0  0  0  0  0  0
   -3.6816    1.3581    3.6866 H   0  0  0  0  0  0  0  0  0  0  0  0
    0.4133   -4.4617    0.8305 H   0  0  0  0  0  0  0  0  0  0  0  0
    0.6621   -6.8385    1.3589 H   0  0  0  0  0  0  0  0  0  0  0  0
    1.6668   -7.6482   -2.7050 H   0  0  0  0  0  0  0  0  0  0  0  0
    1.4043   -5.2701   -3.2425 H   0  0  0  0  0  0  0  0  0  0  0  0
    1.1766   -1.3951   -3.6041 H   0  0  0  0  0  0  0  0  0  0  0  0
   -0.1927   -1.0259   -5.6001 H   0  0  0  0  0  0  0  0  0  0  0  0
   -2.7954   -4.1855   -4.4075 H   0  0  0  0  0  0  0  0  0  0  0  0
   -1.4177   -4.5720   -2.4182 H   0  0  0  0  0  0  0  0  0  0  0  0
    0.2042   -2.0665    3.4641 H   0  0  0  0  0  0  0  0  0  0  0  0
    0.6389   -2.7949    5.7586 H   0  0  0  0  0  0  0  0  0  0  0  0
   -0.9624    0.8693    7.2375 H   0  0  0  0  0  0  0  0  0  0  0  0
   -1.3883    1.6097    4.9375 H   0  0  0  0  0  0  0  0  0  0  0  0
    1.3001    1.4931    3.5557 H   0  0  0  0  0  0  0  0  0  0  0  0
    2.1277    3.7528    3.0910 H   0  0  0  0  0  0  0  0  0  0  0  0
   -1.3288    4.5336    0.7195 H   0  0  0  0  0  0  0  0  0  0  0  0
   -2.1531    2.2712    1.1690 H   0  0  0  0  0  0  0  0  0  0  0  0
    0.1779   -2.5366    8.1315 H   0  0  0  0  0  0  0  0  0  0  0  0
   -0.5907   -1.0669    8.7479 H   0  0  0  0  0  0  0  0  0  0  0  0
    0.1732    6.3463    1.3033 H   0  0  0  0  0  0  0  0  0  0  0  0
    1.5153    6.0784    2.4248 H   0  0  0  0  0  0  0  0  0  0  0  0
   -1.8581   -1.9040   -7.1581 H   0  0  0  0  0  0  0  0  0  0  0  0
   -2.8978   -3.2591   -6.6963 H   0  0  0  0  0  0  0  0  0  0  0  0
    1.5864   -9.0135    0.7242 H   0  0  0  0  0  0  0  0  0  0  0  0
    2.0519   -9.3385   -0.9517 H   0  0  0  0  0  0  0  0  0  0  0  0
   -4.1965   -1.7471   -5.1937 H   0  0  0  0  0  0  0  0  0  0  0  0
   -4.2099   -1.1554   -6.8586 H   0  0  0  0  0  0  0  0  0  0  0  0
   -3.1614   -0.3965   -5.6554 H   0  0  0  0  0  0  0  0  0  0  0  0
   -0.8203   -9.1444    0.0782 H   0  0  0  0  0  0  0  0  0  0  0  0
    0.0284  -10.6393   -0.3305 H   0  0  0  0  0  0  0  0  0  0  0  0
   -0.3570   -9.4648   -1.5929 H   0  0  0  0  0  0  0  0  0  0  0  0
    1.5564    0.1717    8.4716 H   0  0  0  0  0  0  0  0  0  0  0  0
    1.7660   -1.2314    9.5247 H   0  0  0  0  0  0  0  0  0  0  0  0
    2.3231   -1.2895    7.8490 H   0  0  0  0  0  0  0  0  0  0  0  0
    2.3568    6.5909    0.1427 H   0  0  0  0  0  0  0  0  0  0  0  0
    1.4656    5.2092   -0.5054 H   0  0  0  0  0  0  0  0  0  0  0  0
    2.8035    4.9471    0.6132 H   0  0  0  0  0  0  0  0  0  0  0  0
    6.7164    1.5619   -2.6180 H   0  0  0  0  0  0  0  0  0  0  0  0
    5.0202    1.0490   -2.4677 H   0  0  0  0  0  0  0  0  0  0  0  0
    5.0434    1.7003   -0.0587 H   0  0  0  0  0  0  0  0  0  0  0  0
    5.4372    3.0793   -1.1004 H   0  0  0  0  0  0  0  0  0  0  0  0
    6.7180    2.2388   -0.2113 H   0  0  0  0  0  0  0  0  0  0  0  0
    8.0258   -2.9741   -6.0546 H   0  0  0  0  0  0  0  0  0  0  0  0
   13.3754   -2.0190   -2.9081 H   0  0  0  0  0  0  0  0  0  0  0  0
   13.2857   -2.4865   -7.8692 H   0  0  0  0  0  0  0  0  0  0  0  0
   -7.0051    3.8243    3.5850 H   0  0  0  0  0  0  0  0  0  0  0  0
   -5.2914    4.1580    3.9300 H   0  0  0  0  0  0  0  0  0  0  0  0
   -5.6368    3.5149    6.3105 H   0  0  0  0  0  0  0  0  0  0  0  0
   -7.3483    3.2112    5.9856 H   0  0  0  0  0  0  0  0  0  0  0  0
   -6.7009    4.8515    5.8473 H   0  0  0  0  0  0  0  0  0  0  0  0
  -10.1469   -0.5231    1.4330 H   0  0  0  0  0  0  0  0  0  0  0  0
  -10.3125    5.6200    0.4139 H   0  0  0  0  0  0  0  0  0  0  0  0
  -14.2501    2.6914   -0.4695 H   0  0  0  0  0  0  0  0  0  0  0  0
   10.0322   -0.4017   -1.5619 H   0  0  0  0  0  0  0  0  0  0  0  0
    8.4907    0.4323   -1.2865 H   0  0  0  0  0  0  0  0  0  0  0  0
   10.3938    2.0530   -1.4543 H   0  0  0  0  0  0  0  0  0  0  0  0
    9.2449    2.3042   -2.7765 H   0  0  0  0  0  0  0  0  0  0  0  0
   10.7578    1.4469   -3.0768 H   0  0  0  0  0  0  0  0  0  0  0  0
  -10.6752    2.5593    3.7232 H   0  0  0  0  0  0  0  0  0  0  0  0
  -10.2711    0.9420    4.3413 H   0  0  0  0  0  0  0  0  0  0  0  0
   -9.6941    1.9474    6.5585 H   0  0  0  0  0  0  0  0  0  0  0  0
  -10.0482    3.5599    5.9236 H   0  0  0  0  0  0  0  0  0  0  0  0
  -11.3466    2.3689    6.0911 H   0  0  0  0  0  0  0  0  0  0  0  0
  1  2  1  0  0  0  0
  2  3  2  0  0  0  0
  3  4  1  0  0  0  0
  4  5  2  0  0  0  0
  5  6  1  0  0  0  0
  6  1  2  0  0  0  0
  1  7  1  0  0  0  0
  7  8  1  0  0  0  0
  8  9  2  0  0  0  0
  9  2  1  0  0  0  0
  8 10  1  0  0  0  0
 10 11  2  0  0  0  0
 11 12  1  0  0  0  0
 12  9  1  0  0  0  0
  4 13  1  0  0  0  0
 13 14  1  0  0  0  0
 14 15  2  0  0  0  0
 15  5  1  0  0  0  0
 14 16  1  0  0  0  0
 16 17  2  0  0  0  0
 17 18  1  0  0  0  0
 18 15  1  0  0  0  0
 11 19  1  0  0  0  0
 17 20  1  0  0  0  0
 13 21  1  0  0  0  0
 13 22  1  0  0  0  0
  7 23  1  0  0  0  0
  7 24  1  0  0  0  0
 23 25  2  0  0  0  0
 25 26  1  0  0  0  0
 26 27  2  0  0  0  0
 27 28  1  0  0  0  0
 28 29  2  0  0  0  0
 29 23  1  0  0  0  0
 24 30  2  0  0  0  0
 30 31  1  0  0  0  0
 31 32  2  0  0  0  0
 32 33  1  0  0  0  0
 33 34  2  0  0  0  0
 34 24  1  0  0  0  0
 21 35  2  0  0  0  0
 35 36  1  0  0  0  0
 36 37  2  0  0  0  0
 37 38  1  0  0  0  0
 38 39  2  0  0  0  0
 39 21  1  0  0  0  0
 22 40  2  0  0  0  0
 40 41  1  0  0  0  0
 41 42  2  0  0  0  0
 42 43  1  0  0  0  0
 43 44  2  0  0  0  0
 44 22  1  0  0  0  0
 37 45  1  0  0  0  0
 42 46  1  0  0  0  0
 32 47  1  0  0  0  0
 27 48  1  0  0  0  0
 47 49  1  0  0  0  0
 48 50  1  0  0  0  0
 45 51  1  0  0  0  0
 46 52  1  0  0  0  0
 20 53  1  0  0  0  0
 53 54  1  0  0  0  0
 54 55  2  0  0  0  0
 55 56  1  0  0  0  0
 56 20  2  0  0  0  0
 19 57  1  0  0  0  0
 57 58  1  0  0  0  0
 58 59  2  0  0  0  0
 59 60  1  0  0  0  0
 60 19  2  0  0  0  0
 60 61  1  0  0  0  0
 61 62  1  0  0  0  0
 62 63  1  0  0  0  0
 58 64  1  0  0  0  0
 64 65  2  0  0  0  0
 65 66  1  0  0  0  0
 66 67  1  0  0  0  0
 67 68  2  0  0  0  0
 68 69  1  0  0  0  0
 69 65  1  0  0  0  0
 67 70  1  0  0  0  0
 70 71  2  0  0  0  0
 71 72  1  0  0  0  0
 72 73  2  0  0  0  0
 73 68  1  0  0  0  0
 66 74  2  0  0  0  0
 69 75  2  0  0  0  0
 75 76  1  0  0  0  0
 75 77  1  0  0  0  0
 77 78  3  0  0  0  0
 76 79  3  0  0  0  0
 72 80  1  0  0  0  0
 71 81  1  0  0  0  0
 56 82  1  0  0  0  0
 82 83  1  0  0  0  0
 83 84  1  0  0  0  0
 54 85  1  0  0  0  0
 85 86  2  0  0  0  0
 86 87  1  0  0  0  0
 87 88  1  0  0  0  0
 88 89  2  0  0  0  0
 89 90  1  0  0  0  0
 90 86  1  0  0  0  0
 88 91  1  0  0  0  0
 91 92  2  0  0  0  0
 92 93  1  0  0  0  0
 93 94  2  0  0  0  0
 94 89  1  0  0  0  0
 87 95  2  0  0  0  0
 90 96  2  0  0  0  0
 96 97  1  0  0  0  0
 96 98  1  0  0  0  0
 97 99  3  0  0  0  0
 98100  3  0  0  0  0
 92101  1  0  0  0  0
 93102  1  0  0  0  0
 59103  1  0  0  0  0
103104  1  0  0  0  0
104105  1  0  0  0  0
 55106  1  0  0  0  0
106107  1  0  0  0  0
107108  1  0  0  0  0
  3109  1  0  0  0  0
  6110  1  0  0  0  0
 10111  1  0  0  0  0
 16112  1  0  0  0  0
 25113  1  0  0  0  0
 26114  1  0  0  0  0
 28115  1  0  0  0  0
 29116  1  0  0  0  0
 30117  1  0  0  0  0
 31118  1  0  0  0  0
 33119  1  0  0  0  0
 34120  1  0  0  0  0
 35121  1  0  0  0  0
 36122  1  0  0  0  0
 38123  1  0  0  0  0
 39124  1  0  0  0  0
 40125  1  0  0  0  0
 41126  1  0  0  0  0
 43127  1  0  0  0  0
 44128  1  0  0  0  0
 45129  1  0  0  0  0
 45130  1  0  0  0  0
 46131  1  0  0  0  0
 46132  1  0  0  0  0
 47133  1  0  0  0  0
 47134  1  0  0  0  0
 48135  1  0  0  0  0
 48136  1  0  0  0  0
 49137  1  0  0  0  0
 49138  1  0  0  0  0
 49139  1  0  0  0  0
 50140  1  0  0  0  0
 50141  1  0  0  0  0
 50142  1  0  0  0  0
 51143  1  0  0  0  0
 51144  1  0  0  0  0
 51145  1  0  0  0  0
 52146  1  0  0  0  0
 52147  1  0  0  0  0
 52148  1  0  0  0  0
 62149  1  0  0  0  0
 62150  1  0  0  0  0
 63151  1  0  0  0  0
 63152  1  0  0  0  0
 63153  1  0  0  0  0
 64154  1  0  0  0  0
 70155  1  0  0  0  0
 73156  1  0  0  0  0
 83157  1  0  0  0  0
 83158  1  0  0  0  0
 84159  1  0  0  0  0
 84160  1  0  0  0  0
 84161  1  0  0  0  0
 85162  1  0  0  0  0
 91163  1  0  0  0  0
 94164  1  0  0  0  0
104165  1  0  0  0  0
104166  1  0  0  0  0
105167  1  0  0  0  0
105168  1  0  0  0  0
105169  1  0  0  0  0
107170  1  0  0  0  0
107171  1  0  0  0  0
108172  1  0  0  0  0
108173  1  0  0  0  0
108174  1  0  0  0  0
M  END
