m-DTC-2Cl.sdf
  xtb     12202113583D
 energy: -241.914758600250 gnorm: 0.000561323224 xtb: 6.4.1 (unknown)
148162  0     0  0            999 V2000
    4.7789    7.6089   -1.1702 C   0  0  0  0  0  0  0  0  0  0  0  0
    4.5470    8.9231   -0.8394 C   0  0  0  0  0  0  0  0  0  0  0  0
    3.3225    9.4537   -0.2311 C   0  0  0  0  0  0  0  0  0  0  0  0
    3.5481   10.9003   -0.0554 C   0  0  0  0  0  0  0  0  0  0  0  0
    4.8293   11.2325   -0.5277 C   0  0  0  0  0  0  0  0  0  0  0  0
    5.4789   10.0160   -1.0233 C   0  0  0  0  0  0  0  0  0  0  0  0
    2.3143    8.8413    0.0749 O   0  0  0  0  0  0  0  0  0  0  0  0
    6.7418    9.9621   -1.5550 C   0  0  0  0  0  0  0  0  0  0  0  0
    7.5978   11.0768   -1.6819 C   0  0  0  0  0  0  0  0  0  0  0  0
    7.3831    8.8087   -2.0532 C   0  0  0  0  0  0  0  0  0  0  0  0
    8.3493   11.9346   -1.8130 N   0  0  0  0  0  0  0  0  0  0  0  0
    7.9789    7.9242   -2.4812 N   0  0  0  0  0  0  0  0  0  0  0  0
    2.6999   11.8539    0.4734 C   0  0  0  0  0  0  0  0  0  0  0  0
    3.1352   13.1683    0.5325 C   0  0  0  0  0  0  0  0  0  0  0  0
    4.4013   13.4970    0.0628 C   0  0  0  0  0  0  0  0  0  0  0  0
    5.2653   12.5451   -0.4713 C   0  0  0  0  0  0  0  0  0  0  0  0
   -5.8403   -5.0548    3.4872 C   0  0  0  0  0  0  0  0  0  0  0  0
   -6.9627   -4.8259    4.2475 C   0  0  0  0  0  0  0  0  0  0  0  0
   -7.5291   -3.5127    4.5719 C   0  0  0  0  0  0  0  0  0  0  0  0
   -8.7154   -3.7752    5.4074 C   0  0  0  0  0  0  0  0  0  0  0  0
   -8.8649   -5.1618    5.5812 C   0  0  0  0  0  0  0  0  0  0  0  0
   -7.7820   -5.8454    4.8690 C   0  0  0  0  0  0  0  0  0  0  0  0
   -7.1189   -2.4171    4.2302 O   0  0  0  0  0  0  0  0  0  0  0  0
   -7.6058   -7.2047    4.8269 C   0  0  0  0  0  0  0  0  0  0  0  0
   -6.5714   -7.8865    4.1525 C   0  0  0  0  0  0  0  0  0  0  0  0
   -8.4507   -8.1349    5.4689 C   0  0  0  0  0  0  0  0  0  0  0  0
   -5.7692   -8.5252    3.6340 N   0  0  0  0  0  0  0  0  0  0  0  0
   -9.0898   -8.9495    5.9650 N   0  0  0  0  0  0  0  0  0  0  0  0
   -9.5974   -2.8741    5.9718 C   0  0  0  0  0  0  0  0  0  0  0  0
  -10.6528   -3.3632    6.7251 C   0  0  0  0  0  0  0  0  0  0  0  0
  -10.8014   -4.7345    6.8953 C   0  0  0  0  0  0  0  0  0  0  0  0
   -9.9187   -5.6523    6.3327 C   0  0  0  0  0  0  0  0  0  0  0  0
  -12.1204   -5.3250    7.8336 Cl  0  0  0  0  0  0  0  0  0  0  0  0
    4.9253   15.1366    0.1416 Cl  0  0  0  0  0  0  0  0  0  0  0  0
   -4.9670   -4.1651    2.8541 C   0  0  0  0  0  0  0  0  0  0  0  0
   -3.8478   -4.6122    2.1332 C   0  0  0  0  0  0  0  0  0  0  0  0
   -3.1046   -3.5772    1.6137 C   0  0  0  0  0  0  0  0  0  0  0  0
   -3.6495   -2.3256    1.9129 C   0  0  0  0  0  0  0  0  0  0  0  0
   -5.0751   -2.4088    2.8486 S   0  0  0  0  0  0  0  0  0  0  0  0
   -1.8643   -3.4266    0.7693 C   0  0  0  0  0  0  0  0  0  0  0  0
   -1.7479   -1.9113    0.7002 C   0  0  0  0  0  0  0  0  0  0  0  0
   -2.8299   -1.2858    1.3763 C   0  0  0  0  0  0  0  0  0  0  0  0
   -0.5978   -3.9548    1.4138 C   0  0  0  0  0  0  0  0  0  0  0  0
   -2.1412   -4.0885   -0.5682 C   0  0  0  0  0  0  0  0  0  0  0  0
   -0.7359   -1.1683    0.1496 C   0  0  0  0  0  0  0  0  0  0  0  0
   -0.8179    0.2196    0.2682 C   0  0  0  0  0  0  0  0  0  0  0  0
   -1.9239    0.8397    0.9143 C   0  0  0  0  0  0  0  0  0  0  0  0
   -2.9452    0.0920    1.4798 C   0  0  0  0  0  0  0  0  0  0  0  0
    0.5074   -4.2551    0.6267 C   0  0  0  0  0  0  0  0  0  0  0  0
    1.6955   -4.6533    1.2080 C   0  0  0  0  0  0  0  0  0  0  0  0
    1.8154   -4.7589    2.5880 C   0  0  0  0  0  0  0  0  0  0  0  0
    0.7089   -4.4577    3.3698 C   0  0  0  0  0  0  0  0  0  0  0  0
   -0.4827   -4.0574    2.7926 C   0  0  0  0  0  0  0  0  0  0  0  0
   -2.0688   -5.4735   -0.6642 C   0  0  0  0  0  0  0  0  0  0  0  0
   -2.3617   -6.1110   -1.8535 C   0  0  0  0  0  0  0  0  0  0  0  0
   -2.7377   -5.3852   -2.9772 C   0  0  0  0  0  0  0  0  0  0  0  0
   -2.8180   -4.0037   -2.8728 C   0  0  0  0  0  0  0  0  0  0  0  0
   -2.5273   -3.3598   -1.6830 C   0  0  0  0  0  0  0  0  0  0  0  0
    3.1286   -5.1340    3.2122 C   0  0  0  0  0  0  0  0  0  0  0  0
    4.0226   -3.9000    3.3538 C   0  0  0  0  0  0  0  0  0  0  0  0
   -3.1009   -6.0836   -4.2558 C   0  0  0  0  0  0  0  0  0  0  0  0
   -4.5919   -6.4266   -4.2704 C   0  0  0  0  0  0  0  0  0  0  0  0
    0.0709    1.2702   -0.1071 C   0  0  0  0  0  0  0  0  0  0  0  0
   -0.5356    2.4836    0.3227 C   0  0  0  0  0  0  0  0  0  0  0  0
   -1.7500    2.2013    0.8974 N   0  0  0  0  0  0  0  0  0  0  0  0
   -2.6339    3.1643    1.5006 C   0  0  0  0  0  0  0  0  0  0  0  0
   -2.2874    3.4095    2.9682 C   0  0  0  0  0  0  0  0  0  0  0  0
    1.3298    1.2651   -0.7088 C   0  0  0  0  0  0  0  0  0  0  0  0
    1.9747    2.4682   -0.8373 C   0  0  0  0  0  0  0  0  0  0  0  0
    1.3631    3.6751   -0.4034 C   0  0  0  0  0  0  0  0  0  0  0  0
    0.1010    3.7055    0.1698 C   0  0  0  0  0  0  0  0  0  0  0  0
    3.3667    2.7306   -1.3915 C   0  0  0  0  0  0  0  0  0  0  0  0
    3.4664    4.2244   -1.2129 C   0  0  0  0  0  0  0  0  0  0  0  0
    2.2968    4.7302   -0.6397 C   0  0  0  0  0  0  0  0  0  0  0  0
    4.4710    2.0743   -0.5806 C   0  0  0  0  0  0  0  0  0  0  0  0
    3.4065    2.2884   -2.8426 C   0  0  0  0  0  0  0  0  0  0  0  0
    4.2461    1.5723    0.6932 C   0  0  0  0  0  0  0  0  0  0  0  0
    5.2773    0.9936    1.4104 C   0  0  0  0  0  0  0  0  0  0  0  0
    6.5588    0.9121    0.8832 C   0  0  0  0  0  0  0  0  0  0  0  0
    6.7845    1.4379   -0.3825 C   0  0  0  0  0  0  0  0  0  0  0  0
    5.7573    2.0158   -1.1037 C   0  0  0  0  0  0  0  0  0  0  0  0
    3.1259    3.1722   -3.8748 C   0  0  0  0  0  0  0  0  0  0  0  0
    3.1406    2.7440   -5.1897 C   0  0  0  0  0  0  0  0  0  0  0  0
    3.4215    1.4226   -5.5079 C   0  0  0  0  0  0  0  0  0  0  0  0
    3.6845    0.5374   -4.4703 C   0  0  0  0  0  0  0  0  0  0  0  0
    3.6755    0.9614   -3.1556 C   0  0  0  0  0  0  0  0  0  0  0  0
    7.6553    0.2259    1.6456 C   0  0  0  0  0  0  0  0  0  0  0  0
    7.5907   -1.2872    1.4264 C   0  0  0  0  0  0  0  0  0  0  0  0
    3.4958    0.9734   -6.9385 C   0  0  0  0  0  0  0  0  0  0  0  0
    4.9232    1.1248   -7.4687 C   0  0  0  0  0  0  0  0  0  0  0  0
    4.4105    5.2013   -1.4316 C   0  0  0  0  0  0  0  0  0  0  0  0
    3.9722    6.4750   -1.0340 C   0  0  0  0  0  0  0  0  0  0  0  0
    2.3433    6.4155   -0.3706 S   0  0  0  0  0  0  0  0  0  0  0  0
    5.7439    7.3852   -1.6092 H   0  0  0  0  0  0  0  0  0  0  0  0
    1.7214   11.5710    0.8292 H   0  0  0  0  0  0  0  0  0  0  0  0
    2.5011   13.9403    0.9386 H   0  0  0  0  0  0  0  0  0  0  0  0
    6.2380   12.8454   -0.8235 H   0  0  0  0  0  0  0  0  0  0  0  0
   -5.5585   -6.0911    3.3435 H   0  0  0  0  0  0  0  0  0  0  0  0
   -9.4585   -1.8145    5.8231 H   0  0  0  0  0  0  0  0  0  0  0  0
  -11.3617   -2.6903    7.1810 H   0  0  0  0  0  0  0  0  0  0  0  0
  -10.0724   -6.7066    6.4912 H   0  0  0  0  0  0  0  0  0  0  0  0
   -3.6216   -5.6585    2.0291 H   0  0  0  0  0  0  0  0  0  0  0  0
    0.1041   -1.6315   -0.3437 H   0  0  0  0  0  0  0  0  0  0  0  0
   -3.7790    0.5354    2.0007 H   0  0  0  0  0  0  0  0  0  0  0  0
    0.4339   -4.1849   -0.4491 H   0  0  0  0  0  0  0  0  0  0  0  0
    2.5443   -4.8858    0.5804 H   0  0  0  0  0  0  0  0  0  0  0  0
    0.7788   -4.5347    4.4456 H   0  0  0  0  0  0  0  0  0  0  0  0
   -1.3283   -3.8218    3.4226 H   0  0  0  0  0  0  0  0  0  0  0  0
   -1.7690   -6.0527    0.1971 H   0  0  0  0  0  0  0  0  0  0  0  0
   -2.2963   -7.1881   -1.9118 H   0  0  0  0  0  0  0  0  0  0  0  0
   -3.1111   -3.4201   -3.7341 H   0  0  0  0  0  0  0  0  0  0  0  0
   -2.5989   -2.2833   -1.6265 H   0  0  0  0  0  0  0  0  0  0  0  0
    2.9608   -5.5729    4.1974 H   0  0  0  0  0  0  0  0  0  0  0  0
    3.6358   -5.8744    2.5899 H   0  0  0  0  0  0  0  0  0  0  0  0
    3.5430   -3.1569    3.9873 H   0  0  0  0  0  0  0  0  0  0  0  0
    4.2048   -3.4512    2.3796 H   0  0  0  0  0  0  0  0  0  0  0  0
    4.9784   -4.1707    3.7967 H   0  0  0  0  0  0  0  0  0  0  0  0
   -2.5199   -7.0028   -4.3539 H   0  0  0  0  0  0  0  0  0  0  0  0
   -2.8711   -5.4407   -5.1079 H   0  0  0  0  0  0  0  0  0  0  0  0
   -4.8386   -7.0765   -3.4339 H   0  0  0  0  0  0  0  0  0  0  0  0
   -5.1890   -5.5211   -4.1867 H   0  0  0  0  0  0  0  0  0  0  0  0
   -4.8572   -6.9340   -5.1949 H   0  0  0  0  0  0  0  0  0  0  0  0
   -2.5624    4.0979    0.9365 H   0  0  0  0  0  0  0  0  0  0  0  0
   -3.6581    2.7927    1.4133 H   0  0  0  0  0  0  0  0  0  0  0  0
   -1.2719    3.7879    3.0582 H   0  0  0  0  0  0  0  0  0  0  0  0
   -2.9710    4.1370    3.3966 H   0  0  0  0  0  0  0  0  0  0  0  0
   -2.3620    2.4835    3.5334 H   0  0  0  0  0  0  0  0  0  0  0  0
    1.7820    0.3404   -1.0306 H   0  0  0  0  0  0  0  0  0  0  0  0
   -0.3319    4.6384    0.4949 H   0  0  0  0  0  0  0  0  0  0  0  0
    3.2598    1.6254    1.1302 H   0  0  0  0  0  0  0  0  0  0  0  0
    5.0810    0.5996    2.3976 H   0  0  0  0  0  0  0  0  0  0  0  0
    7.7764    1.3952   -0.8092 H   0  0  0  0  0  0  0  0  0  0  0  0
    5.9513    2.4130   -2.0896 H   0  0  0  0  0  0  0  0  0  0  0  0
    2.8993    4.2053   -3.6550 H   0  0  0  0  0  0  0  0  0  0  0  0
    2.9292    3.4496   -5.9807 H   0  0  0  0  0  0  0  0  0  0  0  0
    3.9003   -0.4976   -4.6950 H   0  0  0  0  0  0  0  0  0  0  0  0
    3.8959    0.2587   -2.3650 H   0  0  0  0  0  0  0  0  0  0  0  0
    8.6268    0.5975    1.3147 H   0  0  0  0  0  0  0  0  0  0  0  0
    7.5528    0.4380    2.7120 H   0  0  0  0  0  0  0  0  0  0  0  0
    6.6349   -1.6786    1.7681 H   0  0  0  0  0  0  0  0  0  0  0  0
    7.6986   -1.5204    0.3694 H   0  0  0  0  0  0  0  0  0  0  0  0
    8.3861   -1.7859    1.9751 H   0  0  0  0  0  0  0  0  0  0  0  0
    2.8189    1.5720   -7.5513 H   0  0  0  0  0  0  0  0  0  0  0  0
    3.1925   -0.0727   -7.0152 H   0  0  0  0  0  0  0  0  0  0  0  0
    5.6115    0.5242   -6.8783 H   0  0  0  0  0  0  0  0  0  0  0  0
    5.2399    2.1638   -7.4099 H   0  0  0  0  0  0  0  0  0  0  0  0
    4.9812    0.8019   -8.5055 H   0  0  0  0  0  0  0  0  0  0  0  0
    5.3852    5.0439   -1.8583 H   0  0  0  0  0  0  0  0  0  0  0  0
  1  2  2  0  0  0  0
  2  3  1  0  0  0  0
  3  4  1  0  0  0  0
  4  5  2  0  0  0  0
  5  6  1  0  0  0  0
  6  2  1  0  0  0  0
  3  7  2  0  0  0  0
  6  8  2  0  0  0  0
  8  9  1  0  0  0  0
  8 10  1  0  0  0  0
  9 11  3  0  0  0  0
 10 12  3  0  0  0  0
  4 13  1  0  0  0  0
 13 14  2  0  0  0  0
 14 15  1  0  0  0  0
 15 16  2  0  0  0  0
 16  5  1  0  0  0  0
 17 18  2  0  0  0  0
 18 19  1  0  0  0  0
 19 20  1  0  0  0  0
 20 21  2  0  0  0  0
 21 22  1  0  0  0  0
 22 18  1  0  0  0  0
 19 23  2  0  0  0  0
 22 24  2  0  0  0  0
 24 25  1  0  0  0  0
 24 26  1  0  0  0  0
 25 27  3  0  0  0  0
 26 28  3  0  0  0  0
 20 29  1  0  0  0  0
 29 30  2  0  0  0  0
 31 32  2  0  0  0  0
 32 21  1  0  0  0  0
 31 30  1  0  0  0  0
 31 33  1  0  0  0  0
 15 34  1  0  0  0  0
 17 35  1  0  0  0  0
 35 36  2  0  0  0  0
 36 37  1  0  0  0  0
 37 38  2  0  0  0  0
 38 39  1  0  0  0  0
 39 35  1  0  0  0  0
 37 40  1  0  0  0  0
 40 41  1  0  0  0  0
 41 42  2  0  0  0  0
 42 38  1  0  0  0  0
 40 43  1  0  0  0  0
 40 44  1  0  0  0  0
 41 45  1  0  0  0  0
 45 46  2  0  0  0  0
 46 47  1  0  0  0  0
 47 48  2  0  0  0  0
 48 42  1  0  0  0  0
 43 49  2  0  0  0  0
 49 50  1  0  0  0  0
 50 51  2  0  0  0  0
 51 52  1  0  0  0  0
 52 53  2  0  0  0  0
 53 43  1  0  0  0  0
 44 54  2  0  0  0  0
 54 55  1  0  0  0  0
 55 56  2  0  0  0  0
 56 57  1  0  0  0  0
 57 58  2  0  0  0  0
 58 44  1  0  0  0  0
 51 59  1  0  0  0  0
 59 60  1  0  0  0  0
 56 61  1  0  0  0  0
 61 62  1  0  0  0  0
 46 63  1  0  0  0  0
 63 64  2  0  0  0  0
 64 65  1  0  0  0  0
 65 47  1  0  0  0  0
 65 66  1  0  0  0  0
 66 67  1  0  0  0  0
 63 68  1  0  0  0  0
 68 69  2  0  0  0  0
 69 70  1  0  0  0  0
 70 71  2  0  0  0  0
 71 64  1  0  0  0  0
 69 72  1  0  0  0  0
 72 73  1  0  0  0  0
 73 74  2  0  0  0  0
 74 70  1  0  0  0  0
 72 75  1  0  0  0  0
 72 76  1  0  0  0  0
 75 77  2  0  0  0  0
 77 78  1  0  0  0  0
 78 79  2  0  0  0  0
 79 80  1  0  0  0  0
 80 81  2  0  0  0  0
 81 75  1  0  0  0  0
 76 82  2  0  0  0  0
 82 83  1  0  0  0  0
 83 84  2  0  0  0  0
 84 85  1  0  0  0  0
 85 86  2  0  0  0  0
 86 76  1  0  0  0  0
 79 87  1  0  0  0  0
 87 88  1  0  0  0  0
 84 89  1  0  0  0  0
 89 90  1  0  0  0  0
 73 91  1  0  0  0  0
 91 92  2  0  0  0  0
 92 93  1  0  0  0  0
 93 74  1  0  0  0  0
 92  1  1  0  0  0  0
  1 94  1  0  0  0  0
 13 95  1  0  0  0  0
 14 96  1  0  0  0  0
 16 97  1  0  0  0  0
 17 98  1  0  0  0  0
 29 99  1  0  0  0  0
 30100  1  0  0  0  0
 32101  1  0  0  0  0
 36102  1  0  0  0  0
 45103  1  0  0  0  0
 48104  1  0  0  0  0
 49105  1  0  0  0  0
 50106  1  0  0  0  0
 52107  1  0  0  0  0
 53108  1  0  0  0  0
 54109  1  0  0  0  0
 55110  1  0  0  0  0
 57111  1  0  0  0  0
 58112  1  0  0  0  0
 59113  1  0  0  0  0
 59114  1  0  0  0  0
 60115  1  0  0  0  0
 60116  1  0  0  0  0
 60117  1  0  0  0  0
 61118  1  0  0  0  0
 61119  1  0  0  0  0
 62120  1  0  0  0  0
 62121  1  0  0  0  0
 62122  1  0  0  0  0
 66123  1  0  0  0  0
 66124  1  0  0  0  0
 67125  1  0  0  0  0
 67126  1  0  0  0  0
 67127  1  0  0  0  0
 68128  1  0  0  0  0
 71129  1  0  0  0  0
 77130  1  0  0  0  0
 78131  1  0  0  0  0
 80132  1  0  0  0  0
 81133  1  0  0  0  0
 82134  1  0  0  0  0
 83135  1  0  0  0  0
 85136  1  0  0  0  0
 86137  1  0  0  0  0
 87138  1  0  0  0  0
 87139  1  0  0  0  0
 88140  1  0  0  0  0
 88141  1  0  0  0  0
 88142  1  0  0  0  0
 89143  1  0  0  0  0
 89144  1  0  0  0  0
 90145  1  0  0  0  0
 90146  1  0  0  0  0
 90147  1  0  0  0  0
 91148  1  0  0  0  0
M  END
