N7.sdf
  xtb     12202113223D
 energy: -172.015206176570 gnorm: 0.000333507364 xtb: 6.4.1 (unknown)
104114  0     0  0            999 V2000
    5.2145   -3.9956    0.1239 C   0  0  0  0  0  0  0  0  0  0  0  0
    6.1881   -3.1490    0.6240 C   0  0  0  0  0  0  0  0  0  0  0  0
    5.6913   -1.9275    1.0708 C   0  0  0  0  0  0  0  0  0  0  0  0
    4.3280   -1.7890    0.9242 C   0  0  0  0  0  0  0  0  0  0  0  0
    3.6530   -3.2221    0.2141 S   0  0  0  0  0  0  0  0  0  0  0  0
    3.4834   -0.6686    1.2625 C   0  0  0  0  0  0  0  0  0  0  0  0
    3.9900    0.3979    2.0306 C   0  0  0  0  0  0  0  0  0  0  0  0
    3.2104    1.4831    2.3551 C   0  0  0  0  0  0  0  0  0  0  0  0
    1.8924    1.5266    1.9127 C   0  0  0  0  0  0  0  0  0  0  0  0
    1.3726    0.4494    1.1481 C   0  0  0  0  0  0  0  0  0  0  0  0
    2.1596   -0.6399    0.8234 C   0  0  0  0  0  0  0  0  0  0  0  0
    0.0613    0.7035    0.8343 N   0  0  0  0  0  0  0  0  0  0  0  0
   -0.7923   -0.1309    0.0300 C   0  0  0  0  0  0  0  0  0  0  0  0
   -0.6895    0.2175   -1.4537 C   0  0  0  0  0  0  0  0  0  0  0  0
   -0.2754    1.9343    1.3409 C   0  0  0  0  0  0  0  0  0  0  0  0
    0.8342    2.4785    2.0378 C   0  0  0  0  0  0  0  0  0  0  0  0
    0.7192    3.7238    2.6476 C   0  0  0  0  0  0  0  0  0  0  0  0
   -0.4712    4.4071    2.5542 C   0  0  0  0  0  0  0  0  0  0  0  0
   -1.5707    3.8762    1.8530 C   0  0  0  0  0  0  0  0  0  0  0  0
   -1.4676    2.6256    1.2434 C   0  0  0  0  0  0  0  0  0  0  0  0
   -2.8069    4.6144    1.7319 C   0  0  0  0  0  0  0  0  0  0  0  0
   -3.1966    5.7716    2.3741 C   0  0  0  0  0  0  0  0  0  0  0  0
   -4.4643    6.2147    2.0064 C   0  0  0  0  0  0  0  0  0  0  0  0
   -5.0800    5.4081    1.0645 C   0  0  0  0  0  0  0  0  0  0  0  0
   -4.0427    4.0662    0.6508 S   0  0  0  0  0  0  0  0  0  0  0  0
    5.4668   -5.2896   -0.3997 C   0  0  0  0  0  0  0  0  0  0  0  0
    4.5414   -6.1896   -0.8819 N   0  0  0  0  0  0  0  0  0  0  0  0
    5.1517   -7.3720   -1.3445 C   0  0  0  0  0  0  0  0  0  0  0  0
    6.5552   -7.1601   -1.1313 C   0  0  0  0  0  0  0  0  0  0  0  0
    6.7234   -5.8745   -0.5450 C   0  0  0  0  0  0  0  0  0  0  0  0
    3.1034   -6.0902   -0.8778 C   0  0  0  0  0  0  0  0  0  0  0  0
    2.5141   -6.4110    0.4934 C   0  0  0  0  0  0  0  0  0  0  0  0
    4.5269   -8.3063   -1.8129 O   0  0  0  0  0  0  0  0  0  0  0  0
    7.8003   -7.7450   -1.3182 C   0  0  0  0  0  0  0  0  0  0  0  0
    8.7369   -6.8448   -0.8565 N   0  0  0  0  0  0  0  0  0  0  0  0
    8.1335   -5.6702   -0.3579 C   0  0  0  0  0  0  0  0  0  0  0  0
    8.7816   -4.7471    0.1038 O   0  0  0  0  0  0  0  0  0  0  0  0
   10.1677   -6.9911   -0.7616 C   0  0  0  0  0  0  0  0  0  0  0  0
   10.5740   -7.9012    0.3951 C   0  0  0  0  0  0  0  0  0  0  0  0
    8.0340   -9.0241   -1.9009 C   0  0  0  0  0  0  0  0  0  0  0  0
    9.1956   -9.7073   -2.2026 C   0  0  0  0  0  0  0  0  0  0  0  0
    8.9646  -10.9585   -2.7869 C   0  0  0  0  0  0  0  0  0  0  0  0
    7.6360  -11.2319   -2.9293 C   0  0  0  0  0  0  0  0  0  0  0  0
    6.6348   -9.9695   -2.3613 S   0  0  0  0  0  0  0  0  0  0  0  0
   -6.3361    5.4756    0.4056 C   0  0  0  0  0  0  0  0  0  0  0  0
   -7.2993    6.4551    0.5174 N   0  0  0  0  0  0  0  0  0  0  0  0
   -8.4146    6.1913   -0.3047 C   0  0  0  0  0  0  0  0  0  0  0  0
   -8.0950    4.9573   -0.9724 C   0  0  0  0  0  0  0  0  0  0  0  0
   -6.8121    4.5468   -0.5138 C   0  0  0  0  0  0  0  0  0  0  0  0
   -7.3098    7.6181    1.3689 C   0  0  0  0  0  0  0  0  0  0  0  0
   -7.7006    7.2691    2.8034 C   0  0  0  0  0  0  0  0  0  0  0  0
   -9.3792    6.9330   -0.3570 O   0  0  0  0  0  0  0  0  0  0  0  0
   -8.5506    4.0229   -1.8984 C   0  0  0  0  0  0  0  0  0  0  0  0
   -7.5763    3.0567   -2.0138 N   0  0  0  0  0  0  0  0  0  0  0  0
   -6.4732    3.3227   -1.1786 C   0  0  0  0  0  0  0  0  0  0  0  0
   -5.4916    2.6013   -1.1238 O   0  0  0  0  0  0  0  0  0  0  0  0
   -7.5901    1.8488   -2.8005 C   0  0  0  0  0  0  0  0  0  0  0  0
   -8.3764    0.7325   -2.1182 C   0  0  0  0  0  0  0  0  0  0  0  0
   -9.7854    4.0882   -2.6029 C   0  0  0  0  0  0  0  0  0  0  0  0
  -10.7222    5.0896   -2.4471 C   0  0  0  0  0  0  0  0  0  0  0  0
  -11.8493    4.9284   -3.2642 C   0  0  0  0  0  0  0  0  0  0  0  0
  -11.7826    3.8130   -4.0431 C   0  0  0  0  0  0  0  0  0  0  0  0
  -10.3356    2.9339   -3.7944 S   0  0  0  0  0  0  0  0  0  0  0  0
    7.2280   -3.4217    0.6536 H   0  0  0  0  0  0  0  0  0  0  0  0
    6.3224   -1.1592    1.4783 H   0  0  0  0  0  0  0  0  0  0  0  0
    5.0097    0.3566    2.3779 H   0  0  0  0  0  0  0  0  0  0  0  0
    3.6145    2.2925    2.9439 H   0  0  0  0  0  0  0  0  0  0  0  0
    1.7749   -1.4559    0.2297 H   0  0  0  0  0  0  0  0  0  0  0  0
   -1.8226   -0.0015    0.3715 H   0  0  0  0  0  0  0  0  0  0  0  0
   -0.5072   -1.1736    0.1934 H   0  0  0  0  0  0  0  0  0  0  0  0
   -0.9957    1.2474   -1.6197 H   0  0  0  0  0  0  0  0  0  0  0  0
   -1.3351   -0.4350   -2.0349 H   0  0  0  0  0  0  0  0  0  0  0  0
    0.3347    0.0989   -1.8003 H   0  0  0  0  0  0  0  0  0  0  0  0
    1.5561    4.1486    3.1810 H   0  0  0  0  0  0  0  0  0  0  0  0
   -0.5600    5.3787    3.0133 H   0  0  0  0  0  0  0  0  0  0  0  0
   -2.3118    2.2236    0.7042 H   0  0  0  0  0  0  0  0  0  0  0  0
   -2.5928    6.2834    3.1018 H   0  0  0  0  0  0  0  0  0  0  0  0
   -4.9038    7.0965    2.4319 H   0  0  0  0  0  0  0  0  0  0  0  0
    2.7966   -5.0968   -1.2134 H   0  0  0  0  0  0  0  0  0  0  0  0
    2.7563   -6.8323   -1.6036 H   0  0  0  0  0  0  0  0  0  0  0  0
    2.7908   -7.4212    0.7851 H   0  0  0  0  0  0  0  0  0  0  0  0
    1.4308   -6.3431    0.4527 H   0  0  0  0  0  0  0  0  0  0  0  0
    2.8784   -5.7173    1.2472 H   0  0  0  0  0  0  0  0  0  0  0  0
   10.5514   -5.9822   -0.5785 H   0  0  0  0  0  0  0  0  0  0  0  0
   10.5684   -7.3449   -1.7145 H   0  0  0  0  0  0  0  0  0  0  0  0
   10.2362   -7.4711    1.3348 H   0  0  0  0  0  0  0  0  0  0  0  0
   11.6560   -7.9982    0.4266 H   0  0  0  0  0  0  0  0  0  0  0  0
   10.1334   -8.8900    0.2907 H   0  0  0  0  0  0  0  0  0  0  0  0
   10.1860   -9.3381   -2.0211 H   0  0  0  0  0  0  0  0  0  0  0  0
    9.7511  -11.6275   -3.0878 H   0  0  0  0  0  0  0  0  0  0  0  0
    7.1921  -12.1160   -3.3431 H   0  0  0  0  0  0  0  0  0  0  0  0
   -8.0635    8.2884    0.9440 H   0  0  0  0  0  0  0  0  0  0  0  0
   -6.3379    8.1148    1.3238 H   0  0  0  0  0  0  0  0  0  0  0  0
   -8.7103    6.8661    2.8186 H   0  0  0  0  0  0  0  0  0  0  0  0
   -7.6736    8.1618    3.4226 H   0  0  0  0  0  0  0  0  0  0  0  0
   -7.0271    6.5258    3.2240 H   0  0  0  0  0  0  0  0  0  0  0  0
   -6.5419    1.5472   -2.8925 H   0  0  0  0  0  0  0  0  0  0  0  0
   -7.9869    2.0554   -3.7970 H   0  0  0  0  0  0  0  0  0  0  0  0
   -8.3504   -0.1628   -2.7327 H   0  0  0  0  0  0  0  0  0  0  0  0
   -7.9319    0.5075   -1.1517 H   0  0  0  0  0  0  0  0  0  0  0  0
   -9.4136    1.0209   -1.9672 H   0  0  0  0  0  0  0  0  0  0  0  0
  -10.5862    5.9082   -1.7633 H   0  0  0  0  0  0  0  0  0  0  0  0
  -12.6797    5.6110   -3.2758 H   0  0  0  0  0  0  0  0  0  0  0  0
  -12.4972    3.4501   -4.7553 H   0  0  0  0  0  0  0  0  0  0  0  0
  1  2  2  0  0  0  0
  2  3  1  0  0  0  0
  3  4  2  0  0  0  0
  4  5  1  0  0  0  0
  1  5  1  0  0  0  0
  4  6  1  0  0  0  0
  6  7  2  0  0  0  0
  7  8  1  0  0  0  0
  8  9  2  0  0  0  0
  9 10  1  0  0  0  0
 10 11  2  0  0  0  0
  6 11  1  0  0  0  0
 10 12  1  0  0  0  0
 12 13  1  0  0  0  0
 13 14  1  0  0  0  0
 12 15  1  0  0  0  0
 15 16  2  0  0  0  0
  9 16  1  0  0  0  0
 16 17  1  0  0  0  0
 17 18  2  0  0  0  0
 18 19  1  0  0  0  0
 19 20  2  0  0  0  0
 15 20  1  0  0  0  0
 19 21  1  0  0  0  0
 21 22  2  0  0  0  0
 22 23  1  0  0  0  0
 23 24  2  0  0  0  0
 24 25  1  0  0  0  0
 21 25  1  0  0  0  0
  1 26  1  0  0  0  0
 26 27  1  0  0  0  0
 27 28  1  0  0  0  0
 28 29  1  0  0  0  0
 29 30  1  0  0  0  0
 30 26  2  0  0  0  0
 27 31  1  0  0  0  0
 31 32  1  0  0  0  0
 28 33  2  0  0  0  0
 29 34  2  0  0  0  0
 34 35  1  0  0  0  0
 35 36  1  0  0  0  0
 36 30  1  0  0  0  0
 36 37  2  0  0  0  0
 35 38  1  0  0  0  0
 38 39  1  0  0  0  0
 34 40  1  0  0  0  0
 40 41  2  0  0  0  0
 41 42  1  0  0  0  0
 42 43  2  0  0  0  0
 43 44  1  0  0  0  0
 44 40  1  0  0  0  0
 45 46  1  0  0  0  0
 46 47  1  0  0  0  0
 47 48  1  0  0  0  0
 48 49  1  0  0  0  0
 49 45  2  0  0  0  0
 46 50  1  0  0  0  0
 50 51  1  0  0  0  0
 47 52  2  0  0  0  0
 48 53  2  0  0  0  0
 53 54  1  0  0  0  0
 54 55  1  0  0  0  0
 55 49  1  0  0  0  0
 55 56  2  0  0  0  0
 54 57  1  0  0  0  0
 57 58  1  0  0  0  0
 53 59  1  0  0  0  0
 59 60  2  0  0  0  0
 60 61  1  0  0  0  0
 61 62  2  0  0  0  0
 62 63  1  0  0  0  0
 63 59  1  0  0  0  0
 45 24  1  0  0  0  0
  2 64  1  0  0  0  0
  3 65  1  0  0  0  0
  7 66  1  0  0  0  0
  8 67  1  0  0  0  0
 11 68  1  0  0  0  0
 13 69  1  0  0  0  0
 13 70  1  0  0  0  0
 14 71  1  0  0  0  0
 14 72  1  0  0  0  0
 14 73  1  0  0  0  0
 17 74  1  0  0  0  0
 18 75  1  0  0  0  0
 20 76  1  0  0  0  0
 22 77  1  0  0  0  0
 23 78  1  0  0  0  0
 31 79  1  0  0  0  0
 31 80  1  0  0  0  0
 32 81  1  0  0  0  0
 32 82  1  0  0  0  0
 32 83  1  0  0  0  0
 38 84  1  0  0  0  0
 38 85  1  0  0  0  0
 39 86  1  0  0  0  0
 39 87  1  0  0  0  0
 39 88  1  0  0  0  0
 41 89  1  0  0  0  0
 42 90  1  0  0  0  0
 43 91  1  0  0  0  0
 50 92  1  0  0  0  0
 50 93  1  0  0  0  0
 51 94  1  0  0  0  0
 51 95  1  0  0  0  0
 51 96  1  0  0  0  0
 57 97  1  0  0  0  0
 57 98  1  0  0  0  0
 58 99  1  0  0  0  0
 58100  1  0  0  0  0
 58101  1  0  0  0  0
 60102  1  0  0  0  0
 61103  1  0  0  0  0
 62104  1  0  0  0  0
M  END
