NAI-FN-NAI_BO_.sdf
  xtb     12202113223D
 energy: -153.018920283895 gnorm: 0.000403156976 xtb: 6.4.1 (unknown)
 88 98  0     0  0            999 V2000
   -4.9276   -0.3213    4.9683 C   0  0  0  0  0  0  0  0  0  0  0  0
   -4.0295   -1.3548    5.0572 C   0  0  0  0  0  0  0  0  0  0  0  0
   -2.9176   -1.2080    4.2179 C   0  0  0  0  0  0  0  0  0  0  0  0
   -2.9273   -0.0413    3.4945 C   0  0  0  0  0  0  0  0  0  0  0  0
   -4.3564    0.8828    3.8539 S   0  0  0  0  0  0  0  0  0  0  0  0
   -1.9630    0.4347    2.5288 C   0  0  0  0  0  0  0  0  0  0  0  0
   -1.9796    1.7665    2.1044 C   0  0  0  0  0  0  0  0  0  0  0  0
   -1.0842    2.2506    1.1634 C   0  0  0  0  0  0  0  0  0  0  0  0
   -0.1523    1.3824    0.6273 C   0  0  0  0  0  0  0  0  0  0  0  0
   -0.1264    0.0381    1.0485 C   0  0  0  0  0  0  0  0  0  0  0  0
   -1.0087   -0.4418    1.9858 C   0  0  0  0  0  0  0  0  0  0  0  0
    0.9415   -0.6903    0.3111 C   0  0  0  0  0  0  0  0  0  0  0  0
    1.2513   -1.8530    0.4140 O   0  0  0  0  0  0  0  0  0  0  0  0
    1.5347    0.3379   -0.5860 C   0  0  0  0  0  0  0  0  0  0  0  0
    0.8811    1.5695   -0.3821 C   0  0  0  0  0  0  0  0  0  0  0  0
    1.2668    2.6775   -1.1119 C   0  0  0  0  0  0  0  0  0  0  0  0
    2.2868    2.5457   -2.0416 C   0  0  0  0  0  0  0  0  0  0  0  0
    2.9346    1.3251   -2.2613 C   0  0  0  0  0  0  0  0  0  0  0  0
    2.5448    0.2058   -1.5068 C   0  0  0  0  0  0  0  0  0  0  0  0
    3.9778    1.2028   -3.2534 C   0  0  0  0  0  0  0  0  0  0  0  0
    4.5297    2.1688   -4.0600 C   0  0  0  0  0  0  0  0  0  0  0  0
    5.5227    1.6824   -4.9183 C   0  0  0  0  0  0  0  0  0  0  0  0
    5.7343    0.3304   -4.8071 C   0  0  0  0  0  0  0  0  0  0  0  0
    4.7016   -0.3441   -3.5855 S   0  0  0  0  0  0  0  0  0  0  0  0
    6.7411   -0.4440   -5.5088 C   0  0  0  0  0  0  0  0  0  0  0  0
    7.9845    0.1398   -5.6949 C   0  0  0  0  0  0  0  0  0  0  0  0
    9.0248   -0.5412   -6.3150 C   0  0  0  0  0  0  0  0  0  0  0  0
    8.8451   -1.8359   -6.7585 C   0  0  0  0  0  0  0  0  0  0  0  0
    7.5890   -2.4573   -6.6115 C   0  0  0  0  0  0  0  0  0  0  0  0
    6.5108   -1.7641   -5.9988 C   0  0  0  0  0  0  0  0  0  0  0  0
    7.3995   -3.7724   -7.0848 C   0  0  0  0  0  0  0  0  0  0  0  0
    6.1667   -4.3803   -6.9764 C   0  0  0  0  0  0  0  0  0  0  0  0
    5.0926   -3.6846   -6.4211 C   0  0  0  0  0  0  0  0  0  0  0  0
    5.2576   -2.4074   -5.9487 C   0  0  0  0  0  0  0  0  0  0  0  0
    9.9695   -2.5481   -7.3851 C   0  0  0  0  0  0  0  0  0  0  0  0
    9.7166   -3.8373   -7.8222 N   0  0  0  0  0  0  0  0  0  0  0  0
    8.5129   -4.5108   -7.7068 C   0  0  0  0  0  0  0  0  0  0  0  0
   10.8275   -4.5641   -8.4291 C   0  0  0  0  0  0  0  0  0  0  0  0
   11.6081   -5.3447   -7.3797 C   0  0  0  0  0  0  0  0  0  0  0  0
   11.0661   -2.0450   -7.5266 O   0  0  0  0  0  0  0  0  0  0  0  0
    8.3966   -5.6506   -8.1096 O   0  0  0  0  0  0  0  0  0  0  0  0
   -6.1441   -0.1659    5.7448 C   0  0  0  0  0  0  0  0  0  0  0  0
   -6.1004   -0.5086    7.0868 C   0  0  0  0  0  0  0  0  0  0  0  0
   -7.2076   -0.3591    7.9134 C   0  0  0  0  0  0  0  0  0  0  0  0
   -8.3896    0.1482    7.4124 C   0  0  0  0  0  0  0  0  0  0  0  0
   -8.4836    0.4840    6.0471 C   0  0  0  0  0  0  0  0  0  0  0  0
   -7.3652    0.3171    5.1874 C   0  0  0  0  0  0  0  0  0  0  0  0
   -9.7001    0.9746    5.5288 C   0  0  0  0  0  0  0  0  0  0  0  0
   -9.8161    1.2704    4.1872 C   0  0  0  0  0  0  0  0  0  0  0  0
   -8.7338    1.0644    3.3313 C   0  0  0  0  0  0  0  0  0  0  0  0
   -7.5396    0.5958    3.8167 C   0  0  0  0  0  0  0  0  0  0  0  0
   -9.5418    0.3206    8.3105 C   0  0  0  0  0  0  0  0  0  0  0  0
  -10.6948    0.8373    7.7438 N   0  0  0  0  0  0  0  0  0  0  0  0
  -10.8655    1.1660    6.4103 C   0  0  0  0  0  0  0  0  0  0  0  0
  -11.8473    1.0054    8.6237 C   0  0  0  0  0  0  0  0  0  0  0  0
  -12.6843   -0.2660    8.6778 C   0  0  0  0  0  0  0  0  0  0  0  0
   -9.5017    0.0346    9.4904 O   0  0  0  0  0  0  0  0  0  0  0  0
  -11.9272    1.5945    6.0051 O   0  0  0  0  0  0  0  0  0  0  0  0
   -4.1892   -2.2140    5.6840 H   0  0  0  0  0  0  0  0  0  0  0  0
   -2.1263   -1.9332    4.1647 H   0  0  0  0  0  0  0  0  0  0  0  0
   -2.7155    2.4360    2.5271 H   0  0  0  0  0  0  0  0  0  0  0  0
   -1.1244    3.2851    0.8579 H   0  0  0  0  0  0  0  0  0  0  0  0
   -0.9740   -1.4800    2.2757 H   0  0  0  0  0  0  0  0  0  0  0  0
    0.7844    3.6328   -0.9703 H   0  0  0  0  0  0  0  0  0  0  0  0
    2.5807    3.4107   -2.6152 H   0  0  0  0  0  0  0  0  0  0  0  0
    3.0286   -0.7495   -1.6496 H   0  0  0  0  0  0  0  0  0  0  0  0
    4.2392    3.2033   -4.0378 H   0  0  0  0  0  0  0  0  0  0  0  0
    6.0457    2.2996   -5.6271 H   0  0  0  0  0  0  0  0  0  0  0  0
    8.1577    1.1372   -5.3198 H   0  0  0  0  0  0  0  0  0  0  0  0
    9.9913   -0.0776   -6.4418 H   0  0  0  0  0  0  0  0  0  0  0  0
    6.0498   -5.3886   -7.3439 H   0  0  0  0  0  0  0  0  0  0  0  0
    4.1230   -4.1559   -6.3694 H   0  0  0  0  0  0  0  0  0  0  0  0
    4.4062   -1.8828   -5.5457 H   0  0  0  0  0  0  0  0  0  0  0  0
   11.4717   -3.8279   -8.9129 H   0  0  0  0  0  0  0  0  0  0  0  0
   10.4060   -5.2436   -9.1719 H   0  0  0  0  0  0  0  0  0  0  0  0
   10.9589   -6.0673   -6.8907 H   0  0  0  0  0  0  0  0  0  0  0  0
   12.4286   -5.8759   -7.8537 H   0  0  0  0  0  0  0  0  0  0  0  0
   12.0147   -4.6663   -6.6330 H   0  0  0  0  0  0  0  0  0  0  0  0
   -5.1746   -0.8731    7.5058 H   0  0  0  0  0  0  0  0  0  0  0  0
   -7.1559   -0.6196    8.9597 H   0  0  0  0  0  0  0  0  0  0  0  0
  -10.7586    1.6442    3.8166 H   0  0  0  0  0  0  0  0  0  0  0  0
   -8.8425    1.2698    2.2772 H   0  0  0  0  0  0  0  0  0  0  0  0
   -6.7252    0.4232    3.1312 H   0  0  0  0  0  0  0  0  0  0  0  0
  -11.4664    1.2512    9.6165 H   0  0  0  0  0  0  0  0  0  0  0  0
  -12.4387    1.8338    8.2300 H   0  0  0  0  0  0  0  0  0  0  0  0
  -13.5359   -0.1161    9.3353 H   0  0  0  0  0  0  0  0  0  0  0  0
  -13.0487   -0.5178    7.6844 H   0  0  0  0  0  0  0  0  0  0  0  0
  -12.0877   -1.0912    9.0597 H   0  0  0  0  0  0  0  0  0  0  0  0
  1  2  2  0  0  0  0
  2  3  1  0  0  0  0
  3  4  2  0  0  0  0
  4  5  1  0  0  0  0
  1  5  1  0  0  0  0
  4  6  1  0  0  0  0
  6  7  2  0  0  0  0
  7  8  1  0  0  0  0
  8  9  2  0  0  0  0
  9 10  1  0  0  0  0
 10 11  2  0  0  0  0
  6 11  1  0  0  0  0
 10 12  1  0  0  0  0
 12 13  2  0  0  0  0
 12 14  1  0  0  0  0
 14 15  2  0  0  0  0
  9 15  1  0  0  0  0
 15 16  1  0  0  0  0
 16 17  2  0  0  0  0
 17 18  1  0  0  0  0
 18 19  2  0  0  0  0
 14 19  1  0  0  0  0
 18 20  1  0  0  0  0
 20 21  2  0  0  0  0
 21 22  1  0  0  0  0
 22 23  2  0  0  0  0
 23 24  1  0  0  0  0
 20 24  1  0  0  0  0
 25 23  1  0  0  0  0
 25 26  2  0  0  0  0
 26 27  1  0  0  0  0
 27 28  2  0  0  0  0
 28 29  1  0  0  0  0
 29 30  2  0  0  0  0
 30 25  1  0  0  0  0
 29 31  1  0  0  0  0
 31 32  2  0  0  0  0
 32 33  1  0  0  0  0
 33 34  2  0  0  0  0
 34 30  1  0  0  0  0
 28 35  1  0  0  0  0
 35 36  1  0  0  0  0
 36 37  1  0  0  0  0
 37 31  1  0  0  0  0
 36 38  1  0  0  0  0
 38 39  1  0  0  0  0
 35 40  2  0  0  0  0
 37 41  2  0  0  0  0
 42 43  2  0  0  0  0
 43 44  1  0  0  0  0
 44 45  2  0  0  0  0
 45 46  1  0  0  0  0
 46 47  2  0  0  0  0
 47 42  1  0  0  0  0
 46 48  1  0  0  0  0
 48 49  2  0  0  0  0
 49 50  1  0  0  0  0
 50 51  2  0  0  0  0
 51 47  1  0  0  0  0
 45 52  1  0  0  0  0
 52 53  1  0  0  0  0
 53 54  1  0  0  0  0
 54 48  1  0  0  0  0
 53 55  1  0  0  0  0
 55 56  1  0  0  0  0
 52 57  2  0  0  0  0
 54 58  2  0  0  0  0
  1 42  1  0  0  0  0
  2 59  1  0  0  0  0
  3 60  1  0  0  0  0
  7 61  1  0  0  0  0
  8 62  1  0  0  0  0
 11 63  1  0  0  0  0
 16 64  1  0  0  0  0
 17 65  1  0  0  0  0
 19 66  1  0  0  0  0
 21 67  1  0  0  0  0
 22 68  1  0  0  0  0
 26 69  1  0  0  0  0
 27 70  1  0  0  0  0
 32 71  1  0  0  0  0
 33 72  1  0  0  0  0
 34 73  1  0  0  0  0
 38 74  1  0  0  0  0
 38 75  1  0  0  0  0
 39 76  1  0  0  0  0
 39 77  1  0  0  0  0
 39 78  1  0  0  0  0
 43 79  1  0  0  0  0
 44 80  1  0  0  0  0
 49 81  1  0  0  0  0
 50 82  1  0  0  0  0
 51 83  1  0  0  0  0
 55 84  1  0  0  0  0
 55 85  1  0  0  0  0
 56 86  1  0  0  0  0
 56 87  1  0  0  0  0
 56 88  1  0  0  0  0
M  END
