NFTI.sdf
  xtb     12202113283D
 energy: -162.150370868271 gnorm: 0.000194703967 xtb: 6.4.1 (unknown)
 99109  0     0  0            999 V2000
   -7.6394    2.8564   -7.2375 C   0  0  0  0  0  0  0  0  0  0  0  0
   -7.9132    2.1925   -8.2158 O   0  0  0  0  0  0  0  0  0  0  0  0
   -8.3805    4.0314   -6.7107 C   0  0  0  0  0  0  0  0  0  0  0  0
   -9.5311    4.6341   -7.1799 C   0  0  0  0  0  0  0  0  0  0  0  0
  -10.0269    5.7313   -6.4854 C   0  0  0  0  0  0  0  0  0  0  0  0
   -9.3847    6.2095   -5.3525 C   0  0  0  0  0  0  0  0  0  0  0  0
   -8.2263    5.6056   -4.8782 C   0  0  0  0  0  0  0  0  0  0  0  0
   -7.7324    4.5146   -5.5665 C   0  0  0  0  0  0  0  0  0  0  0  0
   -6.5357    3.6837   -5.2840 C   0  0  0  0  0  0  0  0  0  0  0  0
   -5.7470    3.8421   -4.3666 O   0  0  0  0  0  0  0  0  0  0  0  0
   -6.5050    2.6606   -6.3196 C   0  0  0  0  0  0  0  0  0  0  0  0
   -5.6152    1.6328   -6.4808 C   0  0  0  0  0  0  0  0  0  0  0  0
   -4.5152    1.2724   -5.6990 C   0  0  0  0  0  0  0  0  0  0  0  0
   -3.6958    0.1626   -5.9496 C   0  0  0  0  0  0  0  0  0  0  0  0
   -2.6827   -0.0012   -4.9783 C   0  0  0  0  0  0  0  0  0  0  0  0
   -2.6742    0.9672   -3.9933 C   0  0  0  0  0  0  0  0  0  0  0  0
   -3.9638    2.1027   -4.2573 S   0  0  0  0  0  0  0  0  0  0  0  0
   -1.7787    1.1025   -2.8724 C   0  0  0  0  0  0  0  0  0  0  0  0
   -1.6459    2.3376   -2.2252 C   0  0  0  0  0  0  0  0  0  0  0  0
   -0.8026    2.4882   -1.1445 C   0  0  0  0  0  0  0  0  0  0  0  0
   -0.0767    1.3909   -0.7008 C   0  0  0  0  0  0  0  0  0  0  0  0
   -0.1936    0.1470   -1.3477 C   0  0  0  0  0  0  0  0  0  0  0  0
   -1.0448   -0.0020   -2.4152 C   0  0  0  0  0  0  0  0  0  0  0  0
    0.6777   -0.8882   -0.6750 C   0  0  0  0  0  0  0  0  0  0  0  0
    1.8925   -1.2715   -1.5537 C   0  0  0  0  0  0  0  0  0  0  0  0
    1.5639   -1.9209   -2.8915 C   0  0  0  0  0  0  0  0  0  0  0  0
   -0.1178   -2.1259   -0.2366 C   0  0  0  0  0  0  0  0  0  0  0  0
   -1.2357   -1.7798    0.7403 C   0  0  0  0  0  0  0  0  0  0  0  0
    1.2154   -0.1046    0.5025 C   0  0  0  0  0  0  0  0  0  0  0  0
    0.8074    1.2391    0.4342 C   0  0  0  0  0  0  0  0  0  0  0  0
    1.2338    2.1504    1.3898 C   0  0  0  0  0  0  0  0  0  0  0  0
    2.0490    1.7130    2.4140 C   0  0  0  0  0  0  0  0  0  0  0  0
    2.4381    0.3705    2.5083 C   0  0  0  0  0  0  0  0  0  0  0  0
    2.0158   -0.5402    1.5273 C   0  0  0  0  0  0  0  0  0  0  0  0
    3.2440   -0.0975    3.6069 C   0  0  0  0  0  0  0  0  0  0  0  0
    4.0093    0.6198    4.5060 C   0  0  0  0  0  0  0  0  0  0  0  0
    4.6683   -0.1723    5.4741 C   0  0  0  0  0  0  0  0  0  0  0  0
    4.3905   -1.5402    5.3411 C   0  0  0  0  0  0  0  0  0  0  0  0
    3.3256   -1.7960    3.9747 S   0  0  0  0  0  0  0  0  0  0  0  0
    4.8778   -2.5333    6.1935 C   0  0  0  0  0  0  0  0  0  0  0  0
    4.6465   -3.8830    6.1875 C   0  0  0  0  0  0  0  0  0  0  0  0
    3.8344   -4.6646    5.2660 C   0  0  0  0  0  0  0  0  0  0  0  0
    3.2210   -4.2683    4.2881 O   0  0  0  0  0  0  0  0  0  0  0  0
    3.8992   -6.0654    5.7517 C   0  0  0  0  0  0  0  0  0  0  0  0
    3.2926   -7.1989    5.2465 C   0  0  0  0  0  0  0  0  0  0  0  0
    3.5100   -8.4052    5.9014 C   0  0  0  0  0  0  0  0  0  0  0  0
    4.3138   -8.4702    7.0301 C   0  0  0  0  0  0  0  0  0  0  0  0
    4.9261   -7.3309    7.5394 C   0  0  0  0  0  0  0  0  0  0  0  0
    4.7117   -6.1306    6.8909 C   0  0  0  0  0  0  0  0  0  0  0  0
    5.2232   -4.7724    7.2094 C   0  0  0  0  0  0  0  0  0  0  0  0
    5.9583   -4.4592    8.1226 O   0  0  0  0  0  0  0  0  0  0  0  0
    4.3953    2.3035    4.7049 S   0  0  0  0  0  0  0  0  0  0  0  0
    5.4279    1.9287    6.0693 C   0  0  0  0  0  0  0  0  0  0  0  0
    5.4646    0.6027    6.3539 C   0  0  0  0  0  0  0  0  0  0  0  0
    6.1084    3.0392    6.7894 C   0  0  0  0  0  0  0  0  0  0  0  0
    5.1145    3.8368    7.6372 C   0  0  0  0  0  0  0  0  0  0  0  0
   -3.6379   -0.8295   -6.9605 C   0  0  0  0  0  0  0  0  0  0  0  0
   -2.6203   -1.7085   -6.7808 C   0  0  0  0  0  0  0  0  0  0  0  0
   -1.6797   -1.3750   -5.3412 S   0  0  0  0  0  0  0  0  0  0  0  0
   -2.2664   -2.8852   -7.6204 C   0  0  0  0  0  0  0  0  0  0  0  0
   -2.6179   -4.1957   -6.9126 C   0  0  0  0  0  0  0  0  0  0  0  0
  -10.0253    4.2556   -8.0616 H   0  0  0  0  0  0  0  0  0  0  0  0
  -10.9261    6.2193   -6.8320 H   0  0  0  0  0  0  0  0  0  0  0  0
   -9.7922    7.0634   -4.8314 H   0  0  0  0  0  0  0  0  0  0  0  0
   -7.7209    5.9704   -3.9970 H   0  0  0  0  0  0  0  0  0  0  0  0
   -5.8047    0.9925   -7.3376 H   0  0  0  0  0  0  0  0  0  0  0  0
   -2.2202    3.1780   -2.5862 H   0  0  0  0  0  0  0  0  0  0  0  0
   -0.7168    3.4425   -0.6473 H   0  0  0  0  0  0  0  0  0  0  0  0
   -1.1869   -0.9639   -2.8811 H   0  0  0  0  0  0  0  0  0  0  0  0
    2.4717   -0.3627   -1.7383 H   0  0  0  0  0  0  0  0  0  0  0  0
    2.5199   -1.9495   -0.9709 H   0  0  0  0  0  0  0  0  0  0  0  0
    2.4899   -2.1782   -3.4014 H   0  0  0  0  0  0  0  0  0  0  0  0
    1.0055   -1.2418   -3.5297 H   0  0  0  0  0  0  0  0  0  0  0  0
    0.9887   -2.8332   -2.7596 H   0  0  0  0  0  0  0  0  0  0  0  0
    0.5661   -2.8362    0.2319 H   0  0  0  0  0  0  0  0  0  0  0  0
   -0.5498   -2.6025   -1.1173 H   0  0  0  0  0  0  0  0  0  0  0  0
   -1.7858   -2.6774    1.0128 H   0  0  0  0  0  0  0  0  0  0  0  0
   -1.9305   -1.0717    0.2934 H   0  0  0  0  0  0  0  0  0  0  0  0
   -0.8308   -1.3371    1.6475 H   0  0  0  0  0  0  0  0  0  0  0  0
    0.9291    3.1848    1.3409 H   0  0  0  0  0  0  0  0  0  0  0  0
    2.3716    2.4116    3.1705 H   0  0  0  0  0  0  0  0  0  0  0  0
    2.3254   -1.5725    1.5971 H   0  0  0  0  0  0  0  0  0  0  0  0
    5.5246   -2.1828    6.9927 H   0  0  0  0  0  0  0  0  0  0  0  0
    2.6674   -7.1391    4.3686 H   0  0  0  0  0  0  0  0  0  0  0  0
    3.0456   -9.3059    5.5273 H   0  0  0  0  0  0  0  0  0  0  0  0
    4.4650   -9.4207    7.5204 H   0  0  0  0  0  0  0  0  0  0  0  0
    5.5524   -7.3732    8.4174 H   0  0  0  0  0  0  0  0  0  0  0  0
    6.0472    0.1908    7.1581 H   0  0  0  0  0  0  0  0  0  0  0  0
    6.8872    2.6213    7.4303 H   0  0  0  0  0  0  0  0  0  0  0  0
    6.5793    3.7092    6.0658 H   0  0  0  0  0  0  0  0  0  0  0  0
    4.6453    3.1920    8.3767 H   0  0  0  0  0  0  0  0  0  0  0  0
    5.6259    4.6447    8.1538 H   0  0  0  0  0  0  0  0  0  0  0  0
    4.3378    4.2633    7.0066 H   0  0  0  0  0  0  0  0  0  0  0  0
   -4.3173   -0.8808   -7.7922 H   0  0  0  0  0  0  0  0  0  0  0  0
   -1.1945   -2.8714   -7.8344 H   0  0  0  0  0  0  0  0  0  0  0  0
   -2.8072   -2.8197   -8.5666 H   0  0  0  0  0  0  0  0  0  0  0  0
   -3.6842   -4.2380   -6.7028 H   0  0  0  0  0  0  0  0  0  0  0  0
   -2.3524   -5.0432   -7.5390 H   0  0  0  0  0  0  0  0  0  0  0  0
   -2.0759   -4.2741   -5.9728 H   0  0  0  0  0  0  0  0  0  0  0  0
  1  2  2  0  0  0  0
  1  3  1  0  0  0  0
  3  4  2  0  0  0  0
  4  5  1  0  0  0  0
  5  6  2  0  0  0  0
  6  7  1  0  0  0  0
  7  8  2  0  0  0  0
  3  8  1  0  0  0  0
  8  9  1  0  0  0  0
  9 10  2  0  0  0  0
  9 11  1  0  0  0  0
  1 11  1  0  0  0  0
 11 12  2  0  0  0  0
 12 13  1  0  0  0  0
 13 14  2  0  0  0  0
 14 15  1  0  0  0  0
 15 16  2  0  0  0  0
 16 17  1  0  0  0  0
 13 17  1  0  0  0  0
 16 18  1  0  0  0  0
 18 19  2  0  0  0  0
 19 20  1  0  0  0  0
 20 21  2  0  0  0  0
 21 22  1  0  0  0  0
 22 23  2  0  0  0  0
 18 23  1  0  0  0  0
 22 24  1  0  0  0  0
 24 25  1  0  0  0  0
 25 26  1  0  0  0  0
 24 27  1  0  0  0  0
 27 28  1  0  0  0  0
 24 29  1  0  0  0  0
 29 30  2  0  0  0  0
 21 30  1  0  0  0  0
 30 31  1  0  0  0  0
 31 32  2  0  0  0  0
 32 33  1  0  0  0  0
 33 34  2  0  0  0  0
 29 34  1  0  0  0  0
 33 35  1  0  0  0  0
 35 36  2  0  0  0  0
 36 37  1  0  0  0  0
 37 38  2  0  0  0  0
 38 39  1  0  0  0  0
 35 39  1  0  0  0  0
 38 40  1  0  0  0  0
 40 41  2  0  0  0  0
 41 42  1  0  0  0  0
 42 43  2  0  0  0  0
 42 44  1  0  0  0  0
 44 45  2  0  0  0  0
 45 46  1  0  0  0  0
 46 47  2  0  0  0  0
 47 48  1  0  0  0  0
 48 49  2  0  0  0  0
 44 49  1  0  0  0  0
 49 50  1  0  0  0  0
 41 50  1  0  0  0  0
 50 51  2  0  0  0  0
 36 52  1  0  0  0  0
 52 53  1  0  0  0  0
 53 54  2  0  0  0  0
 54 37  1  0  0  0  0
 53 55  1  0  0  0  0
 55 56  1  0  0  0  0
 14 57  1  0  0  0  0
 57 58  2  0  0  0  0
 58 59  1  0  0  0  0
 59 15  1  0  0  0  0
 58 60  1  0  0  0  0
 60 61  1  0  0  0  0
  4 62  1  0  0  0  0
  5 63  1  0  0  0  0
  6 64  1  0  0  0  0
  7 65  1  0  0  0  0
 12 66  1  0  0  0  0
 19 67  1  0  0  0  0
 20 68  1  0  0  0  0
 23 69  1  0  0  0  0
 25 70  1  0  0  0  0
 25 71  1  0  0  0  0
 26 72  1  0  0  0  0
 26 73  1  0  0  0  0
 26 74  1  0  0  0  0
 27 75  1  0  0  0  0
 27 76  1  0  0  0  0
 28 77  1  0  0  0  0
 28 78  1  0  0  0  0
 28 79  1  0  0  0  0
 31 80  1  0  0  0  0
 32 81  1  0  0  0  0
 34 82  1  0  0  0  0
 40 83  1  0  0  0  0
 45 84  1  0  0  0  0
 46 85  1  0  0  0  0
 47 86  1  0  0  0  0
 48 87  1  0  0  0  0
 54 88  1  0  0  0  0
 55 89  1  0  0  0  0
 55 90  1  0  0  0  0
 56 91  1  0  0  0  0
 56 92  1  0  0  0  0
 56 93  1  0  0  0  0
 57 94  1  0  0  0  0
 60 95  1  0  0  0  0
 60 96  1  0  0  0  0
 61 97  1  0  0  0  0
 61 98  1  0  0  0  0
 61 99  1  0  0  0  0
M  END
