NIDT.sdf
  xtb     12202113303D
 energy: -270.823539736708 gnorm: 0.000194303572 xtb: 6.4.1 (unknown)
170188  0     0  0            999 V2000
    0.0276   -3.0751   -0.0814 C   0  0  0  0  0  0  0  0  0  0  0  0
    1.1056   -3.2042   -0.9877 C   0  0  0  0  0  0  0  0  0  0  0  0
    2.3904   -2.8986   -0.6026 C   0  0  0  0  0  0  0  0  0  0  0  0
    2.5678   -2.4089    0.6888 C   0  0  0  0  0  0  0  0  0  0  0  0
    1.4891   -2.2959    1.6004 C   0  0  0  0  0  0  0  0  0  0  0  0
    0.2143   -2.6539    1.2325 C   0  0  0  0  0  0  0  0  0  0  0  0
   -1.1727   -3.3189   -0.8190 C   0  0  0  0  0  0  0  0  0  0  0  0
   -0.8797   -3.6058   -2.1416 C   0  0  0  0  0  0  0  0  0  0  0  0
    0.6100   -3.6268   -2.3620 C   0  0  0  0  0  0  0  0  0  0  0  0
   -2.8626   -3.1621   -0.4822 S   0  0  0  0  0  0  0  0  0  0  0  0
   -3.2011   -3.4209   -2.1702 C   0  0  0  0  0  0  0  0  0  0  0  0
   -2.0325   -3.6555   -2.9220 C   0  0  0  0  0  0  0  0  0  0  0  0
    3.7028   -1.7941    1.3071 C   0  0  0  0  0  0  0  0  0  0  0  0
    3.3658   -1.3144    2.5596 C   0  0  0  0  0  0  0  0  0  0  0  0
    1.9575   -1.7033    2.9181 C   0  0  0  0  0  0  0  0  0  0  0  0
    5.2774   -1.3024    0.7687 S   0  0  0  0  0  0  0  0  0  0  0  0
    5.4433   -0.3339    2.2122 C   0  0  0  0  0  0  0  0  0  0  0  0
    4.3360   -0.4554    3.0747 C   0  0  0  0  0  0  0  0  0  0  0  0
    1.1639   -5.0087   -2.6581 C   0  0  0  0  0  0  0  0  0  0  0  0
    0.9215   -2.6429   -3.4735 C   0  0  0  0  0  0  0  0  0  0  0  0
    1.8826   -2.8085    3.9583 C   0  0  0  0  0  0  0  0  0  0  0  0
    1.2577   -0.4408    3.3754 C   0  0  0  0  0  0  0  0  0  0  0  0
   -4.9436   -3.3746   -5.4113 C   0  0  0  0  0  0  0  0  0  0  0  0
   -6.2318   -2.9453   -5.5447 C   0  0  0  0  0  0  0  0  0  0  0  0
    6.6004    2.4281    4.2695 C   0  0  0  0  0  0  0  0  0  0  0  0
    6.1897    3.3647    5.1735 C   0  0  0  0  0  0  0  0  0  0  0  0
   -6.8306   -2.6783   -6.8469 C   0  0  0  0  0  0  0  0  0  0  0  0
   -8.0915   -2.0917   -6.6071 C   0  0  0  0  0  0  0  0  0  0  0  0
   -8.3922   -1.9820   -5.2430 C   0  0  0  0  0  0  0  0  0  0  0  0
   -7.2321   -2.5576   -4.5047 C   0  0  0  0  0  0  0  0  0  0  0  0
    6.8834    4.6186    5.4285 C   0  0  0  0  0  0  0  0  0  0  0  0
    6.0300    5.3918    6.2465 C   0  0  0  0  0  0  0  0  0  0  0  0
    4.8423    4.7262    6.5832 C   0  0  0  0  0  0  0  0  0  0  0  0
    4.9195    3.3862    5.9378 C   0  0  0  0  0  0  0  0  0  0  0  0
   -6.4338   -2.8138   -8.1628 C   0  0  0  0  0  0  0  0  0  0  0  0
   -7.2761   -2.3583   -9.1891 C   0  0  0  0  0  0  0  0  0  0  0  0
   -8.5049   -1.7656   -8.9412 C   0  0  0  0  0  0  0  0  0  0  0  0
   -8.9333   -1.6281   -7.6091 C   0  0  0  0  0  0  0  0  0  0  0  0
  -10.1377   -1.0189   -7.2176 C   0  0  0  0  0  0  0  0  0  0  0  0
  -10.4432   -0.9162   -5.8698 C   0  0  0  0  0  0  0  0  0  0  0  0
   -9.5812   -1.3962   -4.8691 C   0  0  0  0  0  0  0  0  0  0  0  0
   -9.3773   -1.2487  -10.0033 C   0  0  0  0  0  0  0  0  0  0  0  0
  -10.6026   -0.7239   -9.5860 N   0  0  0  0  0  0  0  0  0  0  0  0
  -11.0155   -0.4899   -8.2780 C   0  0  0  0  0  0  0  0  0  0  0  0
  -11.4928   -0.2464  -10.6396 C   0  0  0  0  0  0  0  0  0  0  0  0
  -12.5013   -1.3019  -11.1219 C   0  0  0  0  0  0  0  0  0  0  0  0
  -13.4515   -1.7362  -10.0087 C   0  0  0  0  0  0  0  0  0  0  0  0
  -11.8072   -2.5173  -11.7316 C   0  0  0  0  0  0  0  0  0  0  0  0
    3.9103    5.3803    7.3579 C   0  0  0  0  0  0  0  0  0  0  0  0
    4.1787    6.6958    7.7725 C   0  0  0  0  0  0  0  0  0  0  0  0
    5.3499    7.3524    7.4302 C   0  0  0  0  0  0  0  0  0  0  0  0
    6.3126    6.6898    6.6490 C   0  0  0  0  0  0  0  0  0  0  0  0
    7.5285    7.2572    6.2265 C   0  0  0  0  0  0  0  0  0  0  0  0
    8.3830    6.4980    5.4417 C   0  0  0  0  0  0  0  0  0  0  0  0
    8.0768    5.1898    5.0347 C   0  0  0  0  0  0  0  0  0  0  0  0
    7.8204    8.6409    6.6227 C   0  0  0  0  0  0  0  0  0  0  0  0
    6.8483    9.2661    7.4057 N   0  0  0  0  0  0  0  0  0  0  0  0
    5.6358    8.7411    7.8344 C   0  0  0  0  0  0  0  0  0  0  0  0
    7.1152   10.6424    7.8107 C   0  0  0  0  0  0  0  0  0  0  0  0
    7.5589   10.7518    9.2748 C   0  0  0  0  0  0  0  0  0  0  0  0
    7.7992   12.2213    9.6082 C   0  0  0  0  0  0  0  0  0  0  0  0
    8.8187    9.9286    9.5281 C   0  0  0  0  0  0  0  0  0  0  0  0
    0.7941   -3.0527   -4.7956 C   0  0  0  0  0  0  0  0  0  0  0  0
    1.0063   -2.1618   -5.8293 C   0  0  0  0  0  0  0  0  0  0  0  0
    1.3462   -0.8396   -5.5725 C   0  0  0  0  0  0  0  0  0  0  0  0
    1.4568   -0.4323   -4.2503 C   0  0  0  0  0  0  0  0  0  0  0  0
    1.2425   -1.3193   -3.2106 C   0  0  0  0  0  0  0  0  0  0  0  0
    0.4379   -6.1559   -2.3734 C   0  0  0  0  0  0  0  0  0  0  0  0
    0.9762   -7.4057   -2.6209 C   0  0  0  0  0  0  0  0  0  0  0  0
    2.2511   -7.5420   -3.1520 C   0  0  0  0  0  0  0  0  0  0  0  0
    2.9786   -6.3900   -3.4234 C   0  0  0  0  0  0  0  0  0  0  0  0
    2.4449   -5.1395   -3.1801 C   0  0  0  0  0  0  0  0  0  0  0  0
    2.9890   -3.5804    4.2807 C   0  0  0  0  0  0  0  0  0  0  0  0
    2.8846   -4.6014    5.2077 C   0  0  0  0  0  0  0  0  0  0  0  0
    1.6760   -4.8811    5.8300 C   0  0  0  0  0  0  0  0  0  0  0  0
    0.5690   -4.1115    5.4956 C   0  0  0  0  0  0  0  0  0  0  0  0
    0.6685   -3.0885    4.5726 C   0  0  0  0  0  0  0  0  0  0  0  0
    0.6198    0.4059    2.4820 C   0  0  0  0  0  0  0  0  0  0  0  0
    0.1326    1.6297    2.9080 C   0  0  0  0  0  0  0  0  0  0  0  0
    0.2787    2.0361    4.2266 C   0  0  0  0  0  0  0  0  0  0  0  0
    0.9035    1.1755    5.1203 C   0  0  0  0  0  0  0  0  0  0  0  0
    1.3920   -0.0447    4.7014 C   0  0  0  0  0  0  0  0  0  0  0  0
   -9.0655   -1.2524  -11.1763 O   0  0  0  0  0  0  0  0  0  0  0  0
  -12.0321    0.1280   -8.0386 O   0  0  0  0  0  0  0  0  0  0  0  0
   -7.1562   -2.6854   -3.3005 O   0  0  0  0  0  0  0  0  0  0  0  0
    4.0979    2.4941    6.0322 O   0  0  0  0  0  0  0  0  0  0  0  0
    8.8289    9.2281    6.2897 O   0  0  0  0  0  0  0  0  0  0  0  0
    4.8660    9.4104    8.4922 O   0  0  0  0  0  0  0  0  0  0  0  0
    2.8495   -8.8999   -3.3811 C   0  0  0  0  0  0  0  0  0  0  0  0
    1.5307    0.1362   -6.6986 C   0  0  0  0  0  0  0  0  0  0  0  0
    3.6096   -9.3656   -2.1376 C   0  0  0  0  0  0  0  0  0  0  0  0
    0.1870    0.7515   -7.0946 C   0  0  0  0  0  0  0  0  0  0  0  0
    1.5598   -6.0179    6.8040 C   0  0  0  0  0  0  0  0  0  0  0  0
    1.2607   -7.3251    6.0674 C   0  0  0  0  0  0  0  0  0  0  0  0
   -0.1452    3.4033    4.6789 C   0  0  0  0  0  0  0  0  0  0  0  0
    1.0738    4.3276    4.7302 C   0  0  0  0  0  0  0  0  0  0  0  0
   -4.3655   -3.3499   -2.9245 C   0  0  0  0  0  0  0  0  0  0  0  0
   -4.1187   -3.5152   -4.2751 C   0  0  0  0  0  0  0  0  0  0  0  0
   -2.4021   -3.8272   -4.5910 S   0  0  0  0  0  0  0  0  0  0  0  0
    6.3570    0.6200    2.6262 C   0  0  0  0  0  0  0  0  0  0  0  0
    5.9356    1.2892    3.7738 C   0  0  0  0  0  0  0  0  0  0  0  0
    4.4154    0.6513    4.3886 S   0  0  0  0  0  0  0  0  0  0  0  0
    3.2241   -2.9715   -1.2836 H   0  0  0  0  0  0  0  0  0  0  0  0
   -0.6245   -2.5561    1.9038 H   0  0  0  0  0  0  0  0  0  0  0  0
   -4.4251   -3.5753   -6.3438 H   0  0  0  0  0  0  0  0  0  0  0  0
    7.5487    2.6260    3.7791 H   0  0  0  0  0  0  0  0  0  0  0  0
   -5.4844   -3.2562   -8.4251 H   0  0  0  0  0  0  0  0  0  0  0  0
   -6.9613   -2.4575  -10.2178 H   0  0  0  0  0  0  0  0  0  0  0  0
  -11.3742   -0.4426   -5.5945 H   0  0  0  0  0  0  0  0  0  0  0  0
   -9.8490   -1.2925   -3.8286 H   0  0  0  0  0  0  0  0  0  0  0  0
  -12.0327    0.6158  -10.2423 H   0  0  0  0  0  0  0  0  0  0  0  0
  -10.8649    0.0636  -11.4775 H   0  0  0  0  0  0  0  0  0  0  0  0
  -13.0883   -0.8090  -11.9053 H   0  0  0  0  0  0  0  0  0  0  0  0
  -12.9192   -2.3025   -9.2465 H   0  0  0  0  0  0  0  0  0  0  0  0
  -13.9096   -0.8738   -9.5319 H   0  0  0  0  0  0  0  0  0  0  0  0
  -14.2367   -2.3704  -10.4145 H   0  0  0  0  0  0  0  0  0  0  0  0
  -11.0898   -2.2140  -12.4894 H   0  0  0  0  0  0  0  0  0  0  0  0
  -12.5418   -3.1768  -12.1884 H   0  0  0  0  0  0  0  0  0  0  0  0
  -11.2753   -3.0809  -10.9671 H   0  0  0  0  0  0  0  0  0  0  0  0
    2.9841    4.9040    7.6414 H   0  0  0  0  0  0  0  0  0  0  0  0
    3.4553    7.2275    8.3732 H   0  0  0  0  0  0  0  0  0  0  0  0
    9.3136    6.9480    5.1276 H   0  0  0  0  0  0  0  0  0  0  0  0
    8.7813    4.6562    4.4143 H   0  0  0  0  0  0  0  0  0  0  0  0
    7.8987   11.0247    7.1544 H   0  0  0  0  0  0  0  0  0  0  0  0
    6.1958   11.2150    7.6660 H   0  0  0  0  0  0  0  0  0  0  0  0
    6.7492   10.3739    9.9072 H   0  0  0  0  0  0  0  0  0  0  0  0
    8.0789   12.3305   10.6530 H   0  0  0  0  0  0  0  0  0  0  0  0
    6.9005   12.8071    9.4308 H   0  0  0  0  0  0  0  0  0  0  0  0
    8.6020   12.6226    8.9932 H   0  0  0  0  0  0  0  0  0  0  0  0
    9.1604   10.0682   10.5511 H   0  0  0  0  0  0  0  0  0  0  0  0
    9.6130   10.2340    8.8504 H   0  0  0  0  0  0  0  0  0  0  0  0
    8.6305    8.8672    9.3761 H   0  0  0  0  0  0  0  0  0  0  0  0
    0.5329   -4.0780   -5.0147 H   0  0  0  0  0  0  0  0  0  0  0  0
    0.9068   -2.4988   -6.8510 H   0  0  0  0  0  0  0  0  0  0  0  0
    1.7134    0.5937   -4.0277 H   0  0  0  0  0  0  0  0  0  0  0  0
    1.3281   -0.9760   -2.1899 H   0  0  0  0  0  0  0  0  0  0  0  0
   -0.5568   -6.0779   -1.9592 H   0  0  0  0  0  0  0  0  0  0  0  0
    0.3928   -8.2884   -2.4004 H   0  0  0  0  0  0  0  0  0  0  0  0
    3.9742   -6.4732   -3.8356 H   0  0  0  0  0  0  0  0  0  0  0  0
    3.0214   -4.2560   -3.4129 H   0  0  0  0  0  0  0  0  0  0  0  0
    3.9423   -3.3827    3.8127 H   0  0  0  0  0  0  0  0  0  0  0  0
    3.7592   -5.1868    5.4538 H   0  0  0  0  0  0  0  0  0  0  0  0
   -0.3822   -4.3121    5.9679 H   0  0  0  0  0  0  0  0  0  0  0  0
   -0.1997   -2.4896    4.3396 H   0  0  0  0  0  0  0  0  0  0  0  0
    0.5139    0.1167    1.4458 H   0  0  0  0  0  0  0  0  0  0  0  0
   -0.3547    2.2830    2.1978 H   0  0  0  0  0  0  0  0  0  0  0  0
    1.0318    1.4728    6.1500 H   0  0  0  0  0  0  0  0  0  0  0  0
    1.8924   -0.6920    5.4062 H   0  0  0  0  0  0  0  0  0  0  0  0
    2.0604   -9.6188   -3.6104 H   0  0  0  0  0  0  0  0  0  0  0  0
    3.5360   -8.8635   -4.2294 H   0  0  0  0  0  0  0  0  0  0  0  0
    1.9614   -0.3732   -7.5630 H   0  0  0  0  0  0  0  0  0  0  0  0
    2.2148    0.9304   -6.3934 H   0  0  0  0  0  0  0  0  0  0  0  0
    4.0449  -10.3483   -2.3034 H   0  0  0  0  0  0  0  0  0  0  0  0
    2.9388   -9.4217   -1.2832 H   0  0  0  0  0  0  0  0  0  0  0  0
    4.4084   -8.6669   -1.8988 H   0  0  0  0  0  0  0  0  0  0  0  0
   -0.2546    1.2719   -6.2476 H   0  0  0  0  0  0  0  0  0  0  0  0
    0.3175    1.4604   -7.9088 H   0  0  0  0  0  0  0  0  0  0  0  0
   -0.5043   -0.0244   -7.4161 H   0  0  0  0  0  0  0  0  0  0  0  0
    2.4931   -6.1249    7.3608 H   0  0  0  0  0  0  0  0  0  0  0  0
    0.7581   -5.8148    7.5167 H   0  0  0  0  0  0  0  0  0  0  0  0
    1.1752   -8.1487    6.7725 H   0  0  0  0  0  0  0  0  0  0  0  0
    2.0567   -7.5525    5.3616 H   0  0  0  0  0  0  0  0  0  0  0  0
    0.3278   -7.2423    5.5141 H   0  0  0  0  0  0  0  0  0  0  0  0
   -0.8902    3.8157    3.9958 H   0  0  0  0  0  0  0  0  0  0  0  0
   -0.5900    3.3409    5.6744 H   0  0  0  0  0  0  0  0  0  0  0  0
    1.4911    4.4569    3.7336 H   0  0  0  0  0  0  0  0  0  0  0  0
    0.8006    5.3052    5.1215 H   0  0  0  0  0  0  0  0  0  0  0  0
    1.8440    3.8945    5.3642 H   0  0  0  0  0  0  0  0  0  0  0  0
   -5.3459   -3.1619   -2.5282 H   0  0  0  0  0  0  0  0  0  0  0  0
    7.2604    0.8710    2.1001 H   0  0  0  0  0  0  0  0  0  0  0  0
  1  2  1  0  0  0  0
  2  3  2  0  0  0  0
  3  4  1  0  0  0  0
  4  5  2  0  0  0  0
  5  6  1  0  0  0  0
  6  1  2  0  0  0  0
  1  7  1  0  0  0  0
  7  8  2  0  0  0  0
  8  9  1  0  0  0  0
  9  2  1  0  0  0  0
  7 10  1  0  0  0  0
 10 11  1  0  0  0  0
 11 12  2  0  0  0  0
 12  8  1  0  0  0  0
  4 13  1  0  0  0  0
 13 14  2  0  0  0  0
 14 15  1  0  0  0  0
 15  5  1  0  0  0  0
 13 16  1  0  0  0  0
 16 17  1  0  0  0  0
 17 18  2  0  0  0  0
 18 14  1  0  0  0  0
  9 19  1  0  0  0  0
  9 20  1  0  0  0  0
 15 21  1  0  0  0  0
 15 22  1  0  0  0  0
 23 24  2  0  0  0  0
 25 26  2  0  0  0  0
 24 27  1  0  0  0  0
 27 28  1  0  0  0  0
 28 29  2  0  0  0  0
 29 30  1  0  0  0  0
 30 24  1  0  0  0  0
 26 31  1  0  0  0  0
 31 32  1  0  0  0  0
 32 33  2  0  0  0  0
 33 34  1  0  0  0  0
 34 26  1  0  0  0  0
 27 35  2  0  0  0  0
 35 36  1  0  0  0  0
 36 37  2  0  0  0  0
 37 38  1  0  0  0  0
 38 28  1  0  0  0  0
 38 39  2  0  0  0  0
 39 40  1  0  0  0  0
 40 41  2  0  0  0  0
 29 41  1  0  0  0  0
 37 42  1  0  0  0  0
 42 43  1  0  0  0  0
 43 44  1  0  0  0  0
 44 39  1  0  0  0  0
 43 45  1  0  0  0  0
 45 46  1  0  0  0  0
 46 47  1  0  0  0  0
 46 48  1  0  0  0  0
 33 49  1  0  0  0  0
 49 50  2  0  0  0  0
 50 51  1  0  0  0  0
 51 52  2  0  0  0  0
 32 52  1  0  0  0  0
 52 53  1  0  0  0  0
 53 54  2  0  0  0  0
 54 55  1  0  0  0  0
 31 55  2  0  0  0  0
 53 56  1  0  0  0  0
 56 57  1  0  0  0  0
 51 58  1  0  0  0  0
 58 57  1  0  0  0  0
 57 59  1  0  0  0  0
 59 60  1  0  0  0  0
 60 61  1  0  0  0  0
 60 62  1  0  0  0  0
 20 63  2  0  0  0  0
 63 64  1  0  0  0  0
 64 65  2  0  0  0  0
 65 66  1  0  0  0  0
 66 67  2  0  0  0  0
 67 20  1  0  0  0  0
 19 68  2  0  0  0  0
 68 69  1  0  0  0  0
 69 70  2  0  0  0  0
 70 71  1  0  0  0  0
 71 72  2  0  0  0  0
 72 19  1  0  0  0  0
 21 73  2  0  0  0  0
 73 74  1  0  0  0  0
 74 75  2  0  0  0  0
 75 76  1  0  0  0  0
 76 77  2  0  0  0  0
 77 21  1  0  0  0  0
 22 78  2  0  0  0  0
 78 79  1  0  0  0  0
 79 80  2  0  0  0  0
 80 81  1  0  0  0  0
 81 82  2  0  0  0  0
 82 22  1  0  0  0  0
 42 83  2  0  0  0  0
 44 84  2  0  0  0  0
 30 85  2  0  0  0  0
 34 86  2  0  0  0  0
 56 87  2  0  0  0  0
 58 88  2  0  0  0  0
 70 89  1  0  0  0  0
 65 90  1  0  0  0  0
 89 91  1  0  0  0  0
 90 92  1  0  0  0  0
 75 93  1  0  0  0  0
 93 94  1  0  0  0  0
 80 95  1  0  0  0  0
 95 96  1  0  0  0  0
 11 97  1  0  0  0  0
 97 98  2  0  0  0  0
 98 99  1  0  0  0  0
 99 12  1  0  0  0  0
 23 98  1  0  0  0  0
 17100  1  0  0  0  0
100101  2  0  0  0  0
101102  1  0  0  0  0
102 18  1  0  0  0  0
101 25  1  0  0  0  0
  3103  1  0  0  0  0
  6104  1  0  0  0  0
 23105  1  0  0  0  0
 25106  1  0  0  0  0
 35107  1  0  0  0  0
 36108  1  0  0  0  0
 40109  1  0  0  0  0
 41110  1  0  0  0  0
 45111  1  0  0  0  0
 45112  1  0  0  0  0
 46113  1  0  0  0  0
 47114  1  0  0  0  0
 47115  1  0  0  0  0
 47116  1  0  0  0  0
 48117  1  0  0  0  0
 48118  1  0  0  0  0
 48119  1  0  0  0  0
 49120  1  0  0  0  0
 50121  1  0  0  0  0
 54122  1  0  0  0  0
 55123  1  0  0  0  0
 59124  1  0  0  0  0
 59125  1  0  0  0  0
 60126  1  0  0  0  0
 61127  1  0  0  0  0
 61128  1  0  0  0  0
 61129  1  0  0  0  0
 62130  1  0  0  0  0
 62131  1  0  0  0  0
 62132  1  0  0  0  0
 63133  1  0  0  0  0
 64134  1  0  0  0  0
 66135  1  0  0  0  0
 67136  1  0  0  0  0
 68137  1  0  0  0  0
 69138  1  0  0  0  0
 71139  1  0  0  0  0
 72140  1  0  0  0  0
 73141  1  0  0  0  0
 74142  1  0  0  0  0
 76143  1  0  0  0  0
 77144  1  0  0  0  0
 78145  1  0  0  0  0
 79146  1  0  0  0  0
 81147  1  0  0  0  0
 82148  1  0  0  0  0
 89149  1  0  0  0  0
 89150  1  0  0  0  0
 90151  1  0  0  0  0
 90152  1  0  0  0  0
 91153  1  0  0  0  0
 91154  1  0  0  0  0
 91155  1  0  0  0  0
 92156  1  0  0  0  0
 92157  1  0  0  0  0
 92158  1  0  0  0  0
 93159  1  0  0  0  0
 93160  1  0  0  0  0
 94161  1  0  0  0  0
 94162  1  0  0  0  0
 94163  1  0  0  0  0
 95164  1  0  0  0  0
 95165  1  0  0  0  0
 96166  1  0  0  0  0
 96167  1  0  0  0  0
 96168  1  0  0  0  0
 97169  1  0  0  0  0
100170  1  0  0  0  0
M  END
