NoCA-5.sdf
  xtb     12202113483D
 energy: -241.187075346438 gnorm: 0.000422473681 xtb: 6.4.1 (unknown)
140151  0     0  0            999 V2000
    3.5055   10.2910    0.5113 C   0  0  0  0  0  0  0  0  0  0  0  0
    2.8484    9.4387   -0.0596 O   0  0  0  0  0  0  0  0  0  0  0  0
    3.8271   11.6350   -0.0186 C   0  0  0  0  0  0  0  0  0  0  0  0
    3.4775   12.1839   -1.2353 C   0  0  0  0  0  0  0  0  0  0  0  0
    3.9045   13.4750   -1.5032 C   0  0  0  0  0  0  0  0  0  0  0  0
    4.6581   14.1816   -0.5676 C   0  0  0  0  0  0  0  0  0  0  0  0
    5.0081   13.6284    0.6561 C   0  0  0  0  0  0  0  0  0  0  0  0
    4.5858   12.3379    0.9312 C   0  0  0  0  0  0  0  0  0  0  0  0
    4.7821   11.4793    2.1025 C   0  0  0  0  0  0  0  0  0  0  0  0
    5.4653   11.8474    3.2360 C   0  0  0  0  0  0  0  0  0  0  0  0
    5.6620   11.0488    4.3807 C   0  0  0  0  0  0  0  0  0  0  0  0
    5.8683   10.4679    5.3513 N   0  0  0  0  0  0  0  0  0  0  0  0
    6.0749   13.1060    3.4178 C   0  0  0  0  0  0  0  0  0  0  0  0
    6.5942   14.1073    3.6321 N   0  0  0  0  0  0  0  0  0  0  0  0
    4.1286   10.2198    1.8303 C   0  0  0  0  0  0  0  0  0  0  0  0
    5.0581   15.4275   -0.8521 F   0  0  0  0  0  0  0  0  0  0  0  0
    4.1284    9.1309    2.6800 C   0  0  0  0  0  0  0  0  0  0  0  0
    3.5899   14.0484   -2.6727 F   0  0  0  0  0  0  0  0  0  0  0  0
   -1.2615  -10.6123   -1.5986 C   0  0  0  0  0  0  0  0  0  0  0  0
   -0.7635   -9.6472   -1.0462 O   0  0  0  0  0  0  0  0  0  0  0  0
   -0.8713  -12.0251   -1.3895 C   0  0  0  0  0  0  0  0  0  0  0  0
    0.1167  -12.5302   -0.5697 C   0  0  0  0  0  0  0  0  0  0  0  0
    0.2955  -13.9046   -0.5519 C   0  0  0  0  0  0  0  0  0  0  0  0
   -0.5017  -14.7340   -1.3385 C   0  0  0  0  0  0  0  0  0  0  0  0
   -1.4967  -14.2245   -2.1610 C   0  0  0  0  0  0  0  0  0  0  0  0
   -1.6816  -12.8517   -2.1845 C   0  0  0  0  0  0  0  0  0  0  0  0
   -2.6219  -12.0091   -2.9287 C   0  0  0  0  0  0  0  0  0  0  0  0
   -3.5906  -12.4824   -3.7806 C   0  0  0  0  0  0  0  0  0  0  0  0
   -3.7971  -13.8488   -4.0609 C   0  0  0  0  0  0  0  0  0  0  0  0
   -4.0178  -14.9418   -4.3351 N   0  0  0  0  0  0  0  0  0  0  0  0
   -4.5225  -11.6992   -4.4907 C   0  0  0  0  0  0  0  0  0  0  0  0
   -5.3185  -11.1380   -5.1021 N   0  0  0  0  0  0  0  0  0  0  0  0
   -2.3407  -10.6358   -2.5815 C   0  0  0  0  0  0  0  0  0  0  0  0
   -0.3060  -16.0584   -1.3046 F   0  0  0  0  0  0  0  0  0  0  0  0
   -2.9750   -9.5378   -3.1309 C   0  0  0  0  0  0  0  0  0  0  0  0
    1.2448  -14.4398    0.2284 F   0  0  0  0  0  0  0  0  0  0  0  0
   -2.8104   -8.1749   -2.9116 C   0  0  0  0  0  0  0  0  0  0  0  0
   -1.7236   -7.4681   -1.7151 S   0  0  0  0  0  0  0  0  0  0  0  0
   -2.2481   -5.9134   -2.1732 C   0  0  0  0  0  0  0  0  0  0  0  0
   -3.2035   -5.9103   -3.2084 C   0  0  0  0  0  0  0  0  0  0  0  0
   -3.5284   -7.1820   -3.6328 C   0  0  0  0  0  0  0  0  0  0  0  0
   -1.9770   -4.5849   -1.7977 C   0  0  0  0  0  0  0  0  0  0  0  0
   -2.7402   -3.7146   -2.5799 C   0  0  0  0  0  0  0  0  0  0  0  0
   -3.5829   -4.4843   -3.5717 C   0  0  0  0  0  0  0  0  0  0  0  0
   -1.0260   -3.7695   -0.6240 S   0  0  0  0  0  0  0  0  0  0  0  0
   -1.6403   -2.2333   -1.1938 C   0  0  0  0  0  0  0  0  0  0  0  0
   -2.5553   -2.3850   -2.2270 C   0  0  0  0  0  0  0  0  0  0  0  0
   -1.1641   -1.0331   -0.5771 C   0  0  0  0  0  0  0  0  0  0  0  0
   -1.3506    0.2645   -1.0814 C   0  0  0  0  0  0  0  0  0  0  0  0
   -0.8578    1.3981   -0.3882 C   0  0  0  0  0  0  0  0  0  0  0  0
   -0.0411    1.3153    0.7424 C   0  0  0  0  0  0  0  0  0  0  0  0
    0.1626    0.0144    1.2546 C   0  0  0  0  0  0  0  0  0  0  0  0
   -0.4089   -1.1174    0.6140 C   0  0  0  0  0  0  0  0  0  0  0  0
    0.8534   -0.4346    2.3135 N   0  0  0  0  0  0  0  0  0  0  0  0
    0.6889   -1.7284    2.2830 N   0  0  0  0  0  0  0  0  0  0  0  0
   -0.0425   -2.1991    1.3124 N   0  0  0  0  0  0  0  0  0  0  0  0
    0.6103    2.4540    1.3087 C   0  0  0  0  0  0  0  0  0  0  0  0
    0.7016    3.9684    0.4405 S   0  0  0  0  0  0  0  0  0  0  0  0
    1.7225    4.6027    1.6673 C   0  0  0  0  0  0  0  0  0  0  0  0
    1.9676    3.6920    2.6980 C   0  0  0  0  0  0  0  0  0  0  0  0
    1.3266    2.4791    2.4964 C   0  0  0  0  0  0  0  0  0  0  0  0
    2.3782    5.8157    1.9508 C   0  0  0  0  0  0  0  0  0  0  0  0
    3.0541    5.6933    3.1806 C   0  0  0  0  0  0  0  0  0  0  0  0
    2.8602    4.2995    3.7540 C   0  0  0  0  0  0  0  0  0  0  0  0
    2.5662    7.3340    1.2013 S   0  0  0  0  0  0  0  0  0  0  0  0
    3.5652    7.8652    2.5543 C   0  0  0  0  0  0  0  0  0  0  0  0
    3.7282    6.8453    3.5305 C   0  0  0  0  0  0  0  0  0  0  0  0
   -1.1872    2.6591   -0.8567 O   0  0  0  0  0  0  0  0  0  0  0  0
    2.1558    4.3001    5.1215 C   0  0  0  0  0  0  0  0  0  0  0  0
    0.9107    5.1786    5.1410 C   0  0  0  0  0  0  0  0  0  0  0  0
    4.2304    3.5891    3.8156 C   0  0  0  0  0  0  0  0  0  0  0  0
    4.1728    2.1008    4.1354 C   0  0  0  0  0  0  0  0  0  0  0  0
   -3.1472   -4.2127   -5.0279 C   0  0  0  0  0  0  0  0  0  0  0  0
   -3.2625   -2.7609   -5.4713 C   0  0  0  0  0  0  0  0  0  0  0  0
   -5.0763   -4.1844   -3.3561 C   0  0  0  0  0  0  0  0  0  0  0  0
   -5.5806   -4.6583   -1.9983 C   0  0  0  0  0  0  0  0  0  0  0  0
    1.2514   -2.5882    3.2847 C   0  0  0  0  0  0  0  0  0  0  0  0
    0.1737   -3.0385    4.2656 C   0  0  0  0  0  0  0  0  0  0  0  0
   -2.0229    0.3939   -2.2546 O   0  0  0  0  0  0  0  0  0  0  0  0
   -1.5868    1.3658   -3.2041 C   0  0  0  0  0  0  0  0  0  0  0  0
   -1.7325    0.7653   -4.5948 C   0  0  0  0  0  0  0  0  0  0  0  0
   -2.2765    3.2663   -0.1664 C   0  0  0  0  0  0  0  0  0  0  0  0
   -3.6103    2.5651   -0.3882 C   0  0  0  0  0  0  0  0  0  0  0  0
   -4.4784   -7.5087   -4.7425 C   0  0  0  0  0  0  0  0  0  0  0  0
   -3.7326   -7.8620   -6.0328 C   0  0  0  0  0  0  0  0  0  0  0  0
    4.5737    7.0141    4.7541 C   0  0  0  0  0  0  0  0  0  0  0  0
    6.0649    6.8933    4.4263 C   0  0  0  0  0  0  0  0  0  0  0  0
    2.8944   11.6327   -1.9556 H   0  0  0  0  0  0  0  0  0  0  0  0
    5.5923   14.2183    1.3428 H   0  0  0  0  0  0  0  0  0  0  0  0
    4.6662    9.2748    3.6064 H   0  0  0  0  0  0  0  0  0  0  0  0
    0.7310  -11.8838    0.0364 H   0  0  0  0  0  0  0  0  0  0  0  0
   -2.0839  -14.9101   -2.7491 H   0  0  0  0  0  0  0  0  0  0  0  0
   -3.7274   -9.7697   -3.8713 H   0  0  0  0  0  0  0  0  0  0  0  0
   -3.0621   -1.5447   -2.6600 H   0  0  0  0  0  0  0  0  0  0  0  0
    1.3482    1.6281    3.1505 H   0  0  0  0  0  0  0  0  0  0  0  0
    2.8529    4.6411    5.8887 H   0  0  0  0  0  0  0  0  0  0  0  0
    1.8704    3.2745    5.3596 H   0  0  0  0  0  0  0  0  0  0  0  0
    0.2048    4.8600    4.3772 H   0  0  0  0  0  0  0  0  0  0  0  0
    1.1670    6.2194    4.9585 H   0  0  0  0  0  0  0  0  0  0  0  0
    0.4220    5.1107    6.1100 H   0  0  0  0  0  0  0  0  0  0  0  0
    4.8367    4.0907    4.5711 H   0  0  0  0  0  0  0  0  0  0  0  0
    4.7220    3.7229    2.8488 H   0  0  0  0  0  0  0  0  0  0  0  0
    3.6377    1.5566    3.3628 H   0  0  0  0  0  0  0  0  0  0  0  0
    3.6906    1.9213    5.0925 H   0  0  0  0  0  0  0  0  0  0  0  0
    5.1853    1.7063    4.1888 H   0  0  0  0  0  0  0  0  0  0  0  0
   -2.1073   -4.5328   -5.1322 H   0  0  0  0  0  0  0  0  0  0  0  0
   -3.7559   -4.8348   -5.6854 H   0  0  0  0  0  0  0  0  0  0  0  0
   -4.2890   -2.4097   -5.4098 H   0  0  0  0  0  0  0  0  0  0  0  0
   -2.9369   -2.6713   -6.5054 H   0  0  0  0  0  0  0  0  0  0  0  0
   -2.6330   -2.1222   -4.8604 H   0  0  0  0  0  0  0  0  0  0  0  0
   -5.2240   -3.1063   -3.4326 H   0  0  0  0  0  0  0  0  0  0  0  0
   -5.6595   -4.6599   -4.1466 H   0  0  0  0  0  0  0  0  0  0  0  0
   -5.0107   -4.1962   -1.1955 H   0  0  0  0  0  0  0  0  0  0  0  0
   -6.6273   -4.3903   -1.8753 H   0  0  0  0  0  0  0  0  0  0  0  0
   -5.4902   -5.7379   -1.9062 H   0  0  0  0  0  0  0  0  0  0  0  0
    2.0330   -2.0209    3.7927 H   0  0  0  0  0  0  0  0  0  0  0  0
    1.6837   -3.4549    2.7796 H   0  0  0  0  0  0  0  0  0  0  0  0
   -0.6128   -3.5667    3.7325 H   0  0  0  0  0  0  0  0  0  0  0  0
    0.6051   -3.7050    5.0064 H   0  0  0  0  0  0  0  0  0  0  0  0
   -0.2592   -2.1811    4.7754 H   0  0  0  0  0  0  0  0  0  0  0  0
   -2.2002    2.2688   -3.1194 H   0  0  0  0  0  0  0  0  0  0  0  0
   -0.5449    1.6381   -3.0136 H   0  0  0  0  0  0  0  0  0  0  0  0
   -2.7670    0.4877   -4.7784 H   0  0  0  0  0  0  0  0  0  0  0  0
   -1.1083   -0.1195   -4.6916 H   0  0  0  0  0  0  0  0  0  0  0  0
   -1.4270    1.4959   -5.3381 H   0  0  0  0  0  0  0  0  0  0  0  0
   -2.0596    3.3069    0.9098 H   0  0  0  0  0  0  0  0  0  0  0  0
   -2.3051    4.2853   -0.5582 H   0  0  0  0  0  0  0  0  0  0  0  0
   -4.3900    3.1093    0.1377 H   0  0  0  0  0  0  0  0  0  0  0  0
   -3.5774    1.5462   -0.0068 H   0  0  0  0  0  0  0  0  0  0  0  0
   -3.8598    2.5314   -1.4454 H   0  0  0  0  0  0  0  0  0  0  0  0
   -5.1195   -6.6468   -4.9252 H   0  0  0  0  0  0  0  0  0  0  0  0
   -5.1226   -8.3447   -4.4631 H   0  0  0  0  0  0  0  0  0  0  0  0
   -3.1009   -8.7347   -5.8895 H   0  0  0  0  0  0  0  0  0  0  0  0
   -3.1022   -7.0349   -6.3512 H   0  0  0  0  0  0  0  0  0  0  0  0
   -4.4467   -8.0830   -6.8215 H   0  0  0  0  0  0  0  0  0  0  0  0
    4.3044    6.2463    5.4787 H   0  0  0  0  0  0  0  0  0  0  0  0
    4.3885    7.9847    5.2184 H   0  0  0  0  0  0  0  0  0  0  0  0
    6.3710    7.6613    3.7209 H   0  0  0  0  0  0  0  0  0  0  0  0
    6.2847    5.9223    3.9887 H   0  0  0  0  0  0  0  0  0  0  0  0
    6.6511    7.0107    5.3336 H   0  0  0  0  0  0  0  0  0  0  0  0
  1  2  2  0  0  0  0
  1  3  1  0  0  0  0
  3  4  2  0  0  0  0
  4  5  1  0  0  0  0
  5  6  2  0  0  0  0
  6  7  1  0  0  0  0
  7  8  2  0  0  0  0
  3  8  1  0  0  0  0
  8  9  1  0  0  0  0
  9 10  2  0  0  0  0
 10 11  1  0  0  0  0
 11 12  3  0  0  0  0
 10 13  1  0  0  0  0
 13 14  3  0  0  0  0
  9 15  1  0  0  0  0
  1 15  1  0  0  0  0
  6 16  1  0  0  0  0
 15 17  2  0  0  0  0
  5 18  1  0  0  0  0
 19 20  2  0  0  0  0
 19 21  1  0  0  0  0
 21 22  2  0  0  0  0
 22 23  1  0  0  0  0
 23 24  2  0  0  0  0
 24 25  1  0  0  0  0
 25 26  2  0  0  0  0
 21 26  1  0  0  0  0
 26 27  1  0  0  0  0
 27 28  2  0  0  0  0
 28 29  1  0  0  0  0
 29 30  3  0  0  0  0
 28 31  1  0  0  0  0
 31 32  3  0  0  0  0
 27 33  1  0  0  0  0
 19 33  1  0  0  0  0
 24 34  1  0  0  0  0
 33 35  2  0  0  0  0
 23 36  1  0  0  0  0
 35 37  1  0  0  0  0
 37 38  1  0  0  0  0
 38 39  1  0  0  0  0
 39 40  2  0  0  0  0
 40 41  1  0  0  0  0
 41 37  2  0  0  0  0
 39 42  1  0  0  0  0
 42 43  2  0  0  0  0
 43 44  1  0  0  0  0
 44 40  1  0  0  0  0
 42 45  1  0  0  0  0
 45 46  1  0  0  0  0
 46 47  2  0  0  0  0
 47 43  1  0  0  0  0
 46 48  1  0  0  0  0
 48 49  2  0  0  0  0
 49 50  1  0  0  0  0
 50 51  2  0  0  0  0
 51 52  1  0  0  0  0
 52 53  1  0  0  0  0
 53 48  1  0  0  0  0
 52 54  2  0  0  0  0
 54 55  1  0  0  0  0
 55 56  1  0  0  0  0
 56 53  2  0  0  0  0
 51 57  1  0  0  0  0
 57 58  1  0  0  0  0
 58 59  1  0  0  0  0
 59 60  2  0  0  0  0
 60 61  1  0  0  0  0
 61 57  2  0  0  0  0
 59 62  1  0  0  0  0
 62 63  2  0  0  0  0
 63 64  1  0  0  0  0
 64 60  1  0  0  0  0
 62 65  1  0  0  0  0
 65 66  1  0  0  0  0
 66 67  2  0  0  0  0
 67 63  1  0  0  0  0
 66 17  1  0  0  0  0
 50 68  1  0  0  0  0
 64 69  1  0  0  0  0
 69 70  1  0  0  0  0
 64 71  1  0  0  0  0
 71 72  1  0  0  0  0
 44 73  1  0  0  0  0
 73 74  1  0  0  0  0
 44 75  1  0  0  0  0
 75 76  1  0  0  0  0
 55 77  1  0  0  0  0
 77 78  1  0  0  0  0
 49 79  1  0  0  0  0
 79 80  1  0  0  0  0
 80 81  1  0  0  0  0
 68 82  1  0  0  0  0
 82 83  1  0  0  0  0
 41 84  1  0  0  0  0
 84 85  1  0  0  0  0
 67 86  1  0  0  0  0
 86 87  1  0  0  0  0
  4 88  1  0  0  0  0
  7 89  1  0  0  0  0
 17 90  1  0  0  0  0
 22 91  1  0  0  0  0
 25 92  1  0  0  0  0
 35 93  1  0  0  0  0
 47 94  1  0  0  0  0
 61 95  1  0  0  0  0
 69 96  1  0  0  0  0
 69 97  1  0  0  0  0
 70 98  1  0  0  0  0
 70 99  1  0  0  0  0
 70100  1  0  0  0  0
 71101  1  0  0  0  0
 71102  1  0  0  0  0
 72103  1  0  0  0  0
 72104  1  0  0  0  0
 72105  1  0  0  0  0
 73106  1  0  0  0  0
 73107  1  0  0  0  0
 74108  1  0  0  0  0
 74109  1  0  0  0  0
 74110  1  0  0  0  0
 75111  1  0  0  0  0
 75112  1  0  0  0  0
 76113  1  0  0  0  0
 76114  1  0  0  0  0
 76115  1  0  0  0  0
 77116  1  0  0  0  0
 77117  1  0  0  0  0
 78118  1  0  0  0  0
 78119  1  0  0  0  0
 78120  1  0  0  0  0
 80121  1  0  0  0  0
 80122  1  0  0  0  0
 81123  1  0  0  0  0
 81124  1  0  0  0  0
 81125  1  0  0  0  0
 82126  1  0  0  0  0
 82127  1  0  0  0  0
 83128  1  0  0  0  0
 83129  1  0  0  0  0
 83130  1  0  0  0  0
 84131  1  0  0  0  0
 84132  1  0  0  0  0
 85133  1  0  0  0  0
 85134  1  0  0  0  0
 85135  1  0  0  0  0
 86136  1  0  0  0  0
 86137  1  0  0  0  0
 87138  1  0  0  0  0
 87139  1  0  0  0  0
 87140  1  0  0  0  0
M  END
