NOCIC.sdf
  xtb     12202113393D
 energy: -193.628011471069 gnorm: 0.000417794737 xtb: 6.4.1 (unknown)
104114  0     0  0            999 V2000
    9.0337   -6.9970    1.4656 C   0  0  0  0  0  0  0  0  0  0  0  0
    7.9919   -6.9003    2.0826 O   0  0  0  0  0  0  0  0  0  0  0  0
   10.0044   -8.1038    1.6160 C   0  0  0  0  0  0  0  0  0  0  0  0
    9.8956   -9.2238    2.4161 C   0  0  0  0  0  0  0  0  0  0  0  0
   10.9340  -10.1399    2.3821 C   0  0  0  0  0  0  0  0  0  0  0  0
   12.0439   -9.9238    1.5649 C   0  0  0  0  0  0  0  0  0  0  0  0
   12.1536   -8.7956    0.7655 C   0  0  0  0  0  0  0  0  0  0  0  0
   11.1178   -7.8744    0.7940 C   0  0  0  0  0  0  0  0  0  0  0  0
   10.9231   -6.6067    0.0897 C   0  0  0  0  0  0  0  0  0  0  0  0
   11.8617   -6.0137   -0.7144 C   0  0  0  0  0  0  0  0  0  0  0  0
   13.1232   -6.5785   -1.0025 C   0  0  0  0  0  0  0  0  0  0  0  0
   14.1611   -6.9799   -1.2831 N   0  0  0  0  0  0  0  0  0  0  0  0
   11.7511   -4.7579   -1.3500 C   0  0  0  0  0  0  0  0  0  0  0  0
   11.7643   -3.7442   -1.8903 N   0  0  0  0  0  0  0  0  0  0  0  0
    9.6090   -6.0989    0.4460 C   0  0  0  0  0  0  0  0  0  0  0  0
    9.0331   -5.0101   -0.1669 C   0  0  0  0  0  0  0  0  0  0  0  0
   -9.5407    3.7642    0.9997 C   0  0  0  0  0  0  0  0  0  0  0  0
   -8.5011    3.1960    1.2801 O   0  0  0  0  0  0  0  0  0  0  0  0
  -10.7979    3.7105    1.7755 C   0  0  0  0  0  0  0  0  0  0  0  0
  -11.0532    3.0295    2.9486 C   0  0  0  0  0  0  0  0  0  0  0  0
  -12.3248    3.1365    3.4890 C   0  0  0  0  0  0  0  0  0  0  0  0
  -13.3011    3.9081    2.8591 C   0  0  0  0  0  0  0  0  0  0  0  0
  -13.0429    4.5921    1.6798 C   0  0  0  0  0  0  0  0  0  0  0  0
  -11.7737    4.4904    1.1327 C   0  0  0  0  0  0  0  0  0  0  0  0
  -11.1882    5.0751   -0.0763 C   0  0  0  0  0  0  0  0  0  0  0  0
  -11.8545    5.8895   -0.9557 C   0  0  0  0  0  0  0  0  0  0  0  0
  -11.3132    6.4595   -2.1270 C   0  0  0  0  0  0  0  0  0  0  0  0
  -10.9538    6.9638   -3.0947 N   0  0  0  0  0  0  0  0  0  0  0  0
  -13.2040    6.2754   -0.8094 C   0  0  0  0  0  0  0  0  0  0  0  0
  -14.2947    6.6276   -0.7497 N   0  0  0  0  0  0  0  0  0  0  0  0
   -9.8129    4.6282   -0.1498 C   0  0  0  0  0  0  0  0  0  0  0  0
   -8.9093    4.9644   -1.1322 C   0  0  0  0  0  0  0  0  0  0  0  0
   -7.5723    4.5990   -1.3049 C   0  0  0  0  0  0  0  0  0  0  0  0
   -6.6247    3.5379   -0.2670 S   0  0  0  0  0  0  0  0  0  0  0  0
   -5.2769    3.7469   -1.2932 C   0  0  0  0  0  0  0  0  0  0  0  0
   -5.5260    4.5938   -2.3892 C   0  0  0  0  0  0  0  0  0  0  0  0
   -6.8124    5.0712   -2.3916 C   0  0  0  0  0  0  0  0  0  0  0  0
   -3.9429    3.2911   -1.3784 C   0  0  0  0  0  0  0  0  0  0  0  0
   -3.3352    3.8423   -2.5117 C   0  0  0  0  0  0  0  0  0  0  0  0
   -4.2885    4.7571   -3.2435 C   0  0  0  0  0  0  0  0  0  0  0  0
   -2.9146    2.2240   -0.5148 S   0  0  0  0  0  0  0  0  0  0  0  0
   -1.6583    2.5030   -1.6891 C   0  0  0  0  0  0  0  0  0  0  0  0
   -2.0358    3.3830   -2.6890 C   0  0  0  0  0  0  0  0  0  0  0  0
   -0.4284    1.7896   -1.5087 C   0  0  0  0  0  0  0  0  0  0  0  0
   -0.4185    0.9468   -0.4696 N   0  0  0  0  0  0  0  0  0  0  0  0
    0.5956    0.2128   -0.2026 N   0  0  0  0  0  0  0  0  0  0  0  0
    1.6984    0.2598   -0.9615 C   0  0  0  0  0  0  0  0  0  0  0  0
    1.7896    1.1428   -2.0560 C   0  0  0  0  0  0  0  0  0  0  0  0
    0.7024    1.9280   -2.3385 C   0  0  0  0  0  0  0  0  0  0  0  0
    2.7499   -0.6451   -0.5956 C   0  0  0  0  0  0  0  0  0  0  0  0
    4.2513   -0.7234   -1.4877 S   0  0  0  0  0  0  0  0  0  0  0  0
    4.7920   -1.9891   -0.4628 C   0  0  0  0  0  0  0  0  0  0  0  0
    3.8586   -2.3240    0.5187 C   0  0  0  0  0  0  0  0  0  0  0  0
    2.7027   -1.5587    0.4419 C   0  0  0  0  0  0  0  0  0  0  0  0
    5.9173   -2.8282   -0.3301 C   0  0  0  0  0  0  0  0  0  0  0  0
    5.7006   -3.7186    0.7387 C   0  0  0  0  0  0  0  0  0  0  0  0
    4.3623   -3.4535    1.3895 C   0  0  0  0  0  0  0  0  0  0  0  0
    7.4236   -3.0526   -1.0938 S   0  0  0  0  0  0  0  0  0  0  0  0
    7.7970   -4.3778    0.0186 C   0  0  0  0  0  0  0  0  0  0  0  0
    6.7604   -4.5803    0.9308 C   0  0  0  0  0  0  0  0  0  0  0  0
    3.3715   -4.6394    1.3104 C   0  0  0  0  0  0  0  0  0  0  0  0
    3.9927   -6.0289    1.3899 C   0  0  0  0  0  0  0  0  0  0  0  0
    4.5314   -2.9022    2.8231 C   0  0  0  0  0  0  0  0  0  0  0  0
    5.0379   -3.9007    3.8539 C   0  0  0  0  0  0  0  0  0  0  0  0
   -3.8503    6.2369   -3.1712 C   0  0  0  0  0  0  0  0  0  0  0  0
   -2.4990    6.5412   -3.8034 C   0  0  0  0  0  0  0  0  0  0  0  0
   -4.5253    4.3028   -4.6927 C   0  0  0  0  0  0  0  0  0  0  0  0
   -5.0676    2.8811   -4.7823 C   0  0  0  0  0  0  0  0  0  0  0  0
  -14.5206    3.9943    3.4024 F   0  0  0  0  0  0  0  0  0  0  0  0
  -12.6188    2.4936    4.6257 F   0  0  0  0  0  0  0  0  0  0  0  0
   10.8710  -11.2432    3.1377 F   0  0  0  0  0  0  0  0  0  0  0  0
   13.0303  -10.8274    1.5467 F   0  0  0  0  0  0  0  0  0  0  0  0
    9.0343   -9.3850    3.0446 H   0  0  0  0  0  0  0  0  0  0  0  0
   13.0318   -8.6796    0.1524 H   0  0  0  0  0  0  0  0  0  0  0  0
    9.6196   -4.5595   -0.9587 H   0  0  0  0  0  0  0  0  0  0  0  0
  -10.2944    2.4345    3.4313 H   0  0  0  0  0  0  0  0  0  0  0  0
  -13.8333    5.1740    1.2352 H   0  0  0  0  0  0  0  0  0  0  0  0
   -9.2701    5.6238   -1.9123 H   0  0  0  0  0  0  0  0  0  0  0  0
   -7.2344    5.7308   -3.1292 H   0  0  0  0  0  0  0  0  0  0  0  0
   -1.3942    3.6499   -3.5090 H   0  0  0  0  0  0  0  0  0  0  0  0
    2.6940    1.1869   -2.6451 H   0  0  0  0  0  0  0  0  0  0  0  0
    0.7075    2.6262   -3.1608 H   0  0  0  0  0  0  0  0  0  0  0  0
    1.8421   -1.6342    1.0798 H   0  0  0  0  0  0  0  0  0  0  0  0
    6.8216   -5.3498    1.6766 H   0  0  0  0  0  0  0  0  0  0  0  0
    2.6387   -4.5176    2.1096 H   0  0  0  0  0  0  0  0  0  0  0  0
    2.8324   -4.5668    0.3623 H   0  0  0  0  0  0  0  0  0  0  0  0
    4.5813   -6.1611    2.2912 H   0  0  0  0  0  0  0  0  0  0  0  0
    3.1989   -6.7729    1.3887 H   0  0  0  0  0  0  0  0  0  0  0  0
    4.6321   -6.2170    0.5312 H   0  0  0  0  0  0  0  0  0  0  0  0
    5.2233   -2.0569    2.7749 H   0  0  0  0  0  0  0  0  0  0  0  0
    3.5616   -2.5155    3.1442 H   0  0  0  0  0  0  0  0  0  0  0  0
    4.3284   -4.7100    3.9983 H   0  0  0  0  0  0  0  0  0  0  0  0
    5.9970   -4.3170    3.5605 H   0  0  0  0  0  0  0  0  0  0  0  0
    5.1670   -3.3937    4.8078 H   0  0  0  0  0  0  0  0  0  0  0  0
   -4.6219    6.8358   -3.6589 H   0  0  0  0  0  0  0  0  0  0  0  0
   -3.8200    6.5279   -2.1184 H   0  0  0  0  0  0  0  0  0  0  0  0
   -2.4842    6.2761   -4.8570 H   0  0  0  0  0  0  0  0  0  0  0  0
   -1.7039    6.0057   -3.2920 H   0  0  0  0  0  0  0  0  0  0  0  0
   -2.2952    7.6063   -3.7218 H   0  0  0  0  0  0  0  0  0  0  0  0
   -3.5828    4.3585   -5.2382 H   0  0  0  0  0  0  0  0  0  0  0  0
   -5.2309    4.9918   -5.1606 H   0  0  0  0  0  0  0  0  0  0  0  0
   -6.0245    2.7984   -4.2726 H   0  0  0  0  0  0  0  0  0  0  0  0
   -5.2090    2.6024   -5.8236 H   0  0  0  0  0  0  0  0  0  0  0  0
   -4.3756    2.1749   -4.3288 H   0  0  0  0  0  0  0  0  0  0  0  0
  1  2  2  0  0  0  0
  1  3  1  0  0  0  0
  3  4  2  0  0  0  0
  4  5  1  0  0  0  0
  5  6  2  0  0  0  0
  6  7  1  0  0  0  0
  7  8  2  0  0  0  0
  3  8  1  0  0  0  0
  8  9  1  0  0  0  0
  9 10  2  0  0  0  0
 10 11  1  0  0  0  0
 11 12  3  0  0  0  0
 10 13  1  0  0  0  0
 13 14  3  0  0  0  0
  9 15  1  0  0  0  0
  1 15  1  0  0  0  0
 15 16  2  0  0  0  0
 17 18  2  0  0  0  0
 17 19  1  0  0  0  0
 19 20  2  0  0  0  0
 20 21  1  0  0  0  0
 21 22  2  0  0  0  0
 22 23  1  0  0  0  0
 23 24  2  0  0  0  0
 19 24  1  0  0  0  0
 24 25  1  0  0  0  0
 25 26  2  0  0  0  0
 26 27  1  0  0  0  0
 27 28  3  0  0  0  0
 26 29  1  0  0  0  0
 29 30  3  0  0  0  0
 25 31  1  0  0  0  0
 17 31  1  0  0  0  0
 31 32  2  0  0  0  0
 32 33  1  0  0  0  0
 33 34  1  0  0  0  0
 34 35  1  0  0  0  0
 35 36  2  0  0  0  0
 36 37  1  0  0  0  0
 37 33  2  0  0  0  0
 35 38  1  0  0  0  0
 38 39  2  0  0  0  0
 39 40  1  0  0  0  0
 40 36  1  0  0  0  0
 38 41  1  0  0  0  0
 41 42  1  0  0  0  0
 42 43  2  0  0  0  0
 43 39  1  0  0  0  0
 42 44  1  0  0  0  0
 45 46  2  0  0  0  0
 46 47  1  0  0  0  0
 47 48  2  0  0  0  0
 48 49  1  0  0  0  0
 49 44  2  0  0  0  0
 47 50  1  0  0  0  0
 50 51  1  0  0  0  0
 51 52  1  0  0  0  0
 52 53  2  0  0  0  0
 53 54  1  0  0  0  0
 54 50  2  0  0  0  0
 52 55  1  0  0  0  0
 55 56  2  0  0  0  0
 56 57  1  0  0  0  0
 57 53  1  0  0  0  0
 55 58  1  0  0  0  0
 58 59  1  0  0  0  0
 59 60  2  0  0  0  0
 60 56  1  0  0  0  0
 59 16  1  0  0  0  0
 57 61  1  0  0  0  0
 61 62  1  0  0  0  0
 57 63  1  0  0  0  0
 63 64  1  0  0  0  0
 40 65  1  0  0  0  0
 65 66  1  0  0  0  0
 40 67  1  0  0  0  0
 67 68  1  0  0  0  0
 44 45  1  0  0  0  0
 22 69  1  0  0  0  0
 21 70  1  0  0  0  0
  5 71  1  0  0  0  0
  6 72  1  0  0  0  0
  4 73  1  0  0  0  0
  7 74  1  0  0  0  0
 16 75  1  0  0  0  0
 20 76  1  0  0  0  0
 23 77  1  0  0  0  0
 32 78  1  0  0  0  0
 37 79  1  0  0  0  0
 43 80  1  0  0  0  0
 48 81  1  0  0  0  0
 49 82  1  0  0  0  0
 54 83  1  0  0  0  0
 60 84  1  0  0  0  0
 61 85  1  0  0  0  0
 61 86  1  0  0  0  0
 62 87  1  0  0  0  0
 62 88  1  0  0  0  0
 62 89  1  0  0  0  0
 63 90  1  0  0  0  0
 63 91  1  0  0  0  0
 64 92  1  0  0  0  0
 64 93  1  0  0  0  0
 64 94  1  0  0  0  0
 65 95  1  0  0  0  0
 65 96  1  0  0  0  0
 66 97  1  0  0  0  0
 66 98  1  0  0  0  0
 66 99  1  0  0  0  0
 67100  1  0  0  0  0
 67101  1  0  0  0  0
 68102  1  0  0  0  0
 68103  1  0  0  0  0
 68104  1  0  0  0  0
M  END
