NTIC-OMe.sdf
  xtb     12202113413D
 energy: -234.194173993935 gnorm: 0.000731006746 xtb: 6.4.1 (unknown)
146159  0     0  0            999 V2000
   -5.2490   -4.0481    2.8960 C   0  0  0  0  0  0  0  0  0  0  0  0
   -5.3123   -3.9813    4.2653 C   0  0  0  0  0  0  0  0  0  0  0  0
   -4.4136   -3.2061    5.1326 C   0  0  0  0  0  0  0  0  0  0  0  0
   -4.9117   -3.3887    6.5004 C   0  0  0  0  0  0  0  0  0  0  0  0
   -6.0336   -4.2401    6.4836 C   0  0  0  0  0  0  0  0  0  0  0  0
   -6.2969   -4.6397    5.0995 C   0  0  0  0  0  0  0  0  0  0  0  0
   -3.4482   -2.5407    4.7949 O   0  0  0  0  0  0  0  0  0  0  0  0
   -7.2929   -5.4944    4.7032 C   0  0  0  0  0  0  0  0  0  0  0  0
   -8.2059   -6.1122    5.5840 C   0  0  0  0  0  0  0  0  0  0  0  0
   -7.5592   -5.8989    3.3787 C   0  0  0  0  0  0  0  0  0  0  0  0
   -8.9816   -6.6543    6.2342 N   0  0  0  0  0  0  0  0  0  0  0  0
   -7.8473   -6.2829    2.3347 N   0  0  0  0  0  0  0  0  0  0  0  0
   -4.4389   -2.8545    7.6818 C   0  0  0  0  0  0  0  0  0  0  0  0
   -5.0867   -3.1630    8.8674 C   0  0  0  0  0  0  0  0  0  0  0  0
   -6.2013   -4.0034    8.8634 C   0  0  0  0  0  0  0  0  0  0  0  0
   -6.6789   -4.5492    7.6608 C   0  0  0  0  0  0  0  0  0  0  0  0
    4.0375    2.5382   -2.3830 C   0  0  0  0  0  0  0  0  0  0  0  0
    4.7229    3.1111   -3.4672 C   0  0  0  0  0  0  0  0  0  0  0  0
    5.8525    3.8857   -3.5285 C   0  0  0  0  0  0  0  0  0  0  0  0
    6.7899    4.2513   -2.4390 C   0  0  0  0  0  0  0  0  0  0  0  0
    7.9295    4.9027   -3.1003 C   0  0  0  0  0  0  0  0  0  0  0  0
    7.6994    4.9890   -4.4854 C   0  0  0  0  0  0  0  0  0  0  0  0
    6.3859    4.4139   -4.7723 C   0  0  0  0  0  0  0  0  0  0  0  0
    6.6818    4.0613   -1.2428 O   0  0  0  0  0  0  0  0  0  0  0  0
    5.7694    4.4477   -5.9962 C   0  0  0  0  0  0  0  0  0  0  0  0
    6.3495    4.9948   -7.1607 C   0  0  0  0  0  0  0  0  0  0  0  0
    4.4671    3.9905   -6.2905 C   0  0  0  0  0  0  0  0  0  0  0  0
    6.7495    5.4173   -8.1504 N   0  0  0  0  0  0  0  0  0  0  0  0
    3.4162    3.6679   -6.6252 N   0  0  0  0  0  0  0  0  0  0  0  0
    9.0958    5.3840   -2.5402 C   0  0  0  0  0  0  0  0  0  0  0  0
   10.0532    5.9548   -3.3631 C   0  0  0  0  0  0  0  0  0  0  0  0
    9.8389    6.0390   -4.7402 C   0  0  0  0  0  0  0  0  0  0  0  0
    8.6504    5.5535   -5.3077 C   0  0  0  0  0  0  0  0  0  0  0  0
    4.2001    2.6250   -1.0038 C   0  0  0  0  0  0  0  0  0  0  0  0
    3.2412    1.9035   -0.3167 C   0  0  0  0  0  0  0  0  0  0  0  0
    2.3332    1.2430   -1.1451 C   0  0  0  0  0  0  0  0  0  0  0  0
    2.6519    1.5209   -2.7995 S   0  0  0  0  0  0  0  0  0  0  0  0
    2.9329    1.6027    1.1268 C   0  0  0  0  0  0  0  0  0  0  0  0
    1.6962    0.7350    0.9804 C   0  0  0  0  0  0  0  0  0  0  0  0
    1.3724    0.5298   -0.3639 C   0  0  0  0  0  0  0  0  0  0  0  0
    0.9078    0.1986    1.9934 C   0  0  0  0  0  0  0  0  0  0  0  0
   -0.1895   -0.5582    1.6584 C   0  0  0  0  0  0  0  0  0  0  0  0
   -0.5260   -0.8046    0.3136 C   0  0  0  0  0  0  0  0  0  0  0  0
    0.2604   -0.2581   -0.7412 C   0  0  0  0  0  0  0  0  0  0  0  0
   -1.6376   -1.5939   -0.0614 C   0  0  0  0  0  0  0  0  0  0  0  0
   -1.9387   -1.8341   -1.4049 C   0  0  0  0  0  0  0  0  0  0  0  0
   -1.1498   -1.3002   -2.4188 C   0  0  0  0  0  0  0  0  0  0  0  0
   -0.0715   -0.5159   -2.0849 C   0  0  0  0  0  0  0  0  0  0  0  0
   -2.6148   -2.2722    0.7315 C   0  0  0  0  0  0  0  0  0  0  0  0
   -3.5056   -2.9586   -0.0984 C   0  0  0  0  0  0  0  0  0  0  0  0
   -3.1516   -2.7369   -1.5465 C   0  0  0  0  0  0  0  0  0  0  0  0
   -2.9791   -2.4412    2.3937 S   0  0  0  0  0  0  0  0  0  0  0  0
   -4.3572   -3.4550    1.9933 C   0  0  0  0  0  0  0  0  0  0  0  0
   -4.4843   -3.6222    0.6065 C   0  0  0  0  0  0  0  0  0  0  0  0
    4.1327    0.8698    1.7025 C   0  0  0  0  0  0  0  0  0  0  0  0
    2.5689    2.8216    1.9527 C   0  0  0  0  0  0  0  0  0  0  0  0
    2.6805    2.7834    3.3369 C   0  0  0  0  0  0  0  0  0  0  0  0
    2.3052    3.8720    4.1006 C   0  0  0  0  0  0  0  0  0  0  0  0
    1.8061    5.0235    3.5058 C   0  0  0  0  0  0  0  0  0  0  0  0
    1.6855    5.0516    2.1232 C   0  0  0  0  0  0  0  0  0  0  0  0
    2.0583    3.9646    1.3542 C   0  0  0  0  0  0  0  0  0  0  0  0
    4.1560   -0.5096    1.8431 C   0  0  0  0  0  0  0  0  0  0  0  0
    5.2856   -1.1425    2.3317 C   0  0  0  0  0  0  0  0  0  0  0  0
    6.4159   -0.4187    2.6831 C   0  0  0  0  0  0  0  0  0  0  0  0
    6.3907    0.9618    2.5261 C   0  0  0  0  0  0  0  0  0  0  0  0
    5.2665    1.5997    2.0408 C   0  0  0  0  0  0  0  0  0  0  0  0
    7.6561   -1.1128    3.1680 C   0  0  0  0  0  0  0  0  0  0  0  0
    8.5797   -1.4359    1.9919 C   0  0  0  0  0  0  0  0  0  0  0  0
    1.3589    6.1867    4.3432 C   0  0  0  0  0  0  0  0  0  0  0  0
   -0.1033    6.0133    4.7593 C   0  0  0  0  0  0  0  0  0  0  0  0
   -2.7055   -3.9974   -2.2656 C   0  0  0  0  0  0  0  0  0  0  0  0
   -4.3406   -2.0841   -2.2252 C   0  0  0  0  0  0  0  0  0  0  0  0
   -4.4200   -0.7107   -2.4018 C   0  0  0  0  0  0  0  0  0  0  0  0
   -5.5411   -0.1443   -2.9820 C   0  0  0  0  0  0  0  0  0  0  0  0
   -6.6115   -0.9292   -3.3871 C   0  0  0  0  0  0  0  0  0  0  0  0
   -6.5316   -2.3032   -3.1957 C   0  0  0  0  0  0  0  0  0  0  0  0
   -5.4145   -2.8743   -2.6187 C   0  0  0  0  0  0  0  0  0  0  0  0
   -2.7367   -4.0582   -3.6531 C   0  0  0  0  0  0  0  0  0  0  0  0
   -2.2895   -5.1852   -4.3159 C   0  0  0  0  0  0  0  0  0  0  0  0
   -1.7958   -6.2776   -3.6146 C   0  0  0  0  0  0  0  0  0  0  0  0
   -1.7535   -6.2059   -2.2289 C   0  0  0  0  0  0  0  0  0  0  0  0
   -2.1984   -5.0801   -1.5608 C   0  0  0  0  0  0  0  0  0  0  0  0
   -1.2712   -7.4833   -4.3393 C   0  0  0  0  0  0  0  0  0  0  0  0
    0.2149   -7.3082   -4.6588 C   0  0  0  0  0  0  0  0  0  0  0  0
   -7.8054   -0.3160   -4.0599 C   0  0  0  0  0  0  0  0  0  0  0  0
   -7.5974   -0.2672   -5.5750 C   0  0  0  0  0  0  0  0  0  0  0  0
   10.7135    6.5696   -5.6219 O   0  0  0  0  0  0  0  0  0  0  0  0
   -6.8993   -4.3572    9.9634 O   0  0  0  0  0  0  0  0  0  0  0  0
   11.9352    7.0920   -5.1538 C   0  0  0  0  0  0  0  0  0  0  0  0
   -6.5087   -3.8552   11.2205 C   0  0  0  0  0  0  0  0  0  0  0  0
   -6.0086   -4.6433    2.4036 H   0  0  0  0  0  0  0  0  0  0  0  0
   -3.5775   -2.2045    7.6742 H   0  0  0  0  0  0  0  0  0  0  0  0
   -4.7187   -2.7443    9.7903 H   0  0  0  0  0  0  0  0  0  0  0  0
   -7.5420   -5.1916    7.7079 H   0  0  0  0  0  0  0  0  0  0  0  0
    4.2664    2.8740   -4.4215 H   0  0  0  0  0  0  0  0  0  0  0  0
    9.2523    5.3119   -1.4749 H   0  0  0  0  0  0  0  0  0  0  0  0
   10.9645    6.3304   -2.9258 H   0  0  0  0  0  0  0  0  0  0  0  0
    8.5310    5.6385   -6.3745 H   0  0  0  0  0  0  0  0  0  0  0  0
    4.9905    3.1988   -0.5576 H   0  0  0  0  0  0  0  0  0  0  0  0
    1.1583    0.3779    3.0276 H   0  0  0  0  0  0  0  0  0  0  0  0
   -0.8120   -0.9801    2.4330 H   0  0  0  0  0  0  0  0  0  0  0  0
   -1.3869   -1.4975   -3.4529 H   0  0  0  0  0  0  0  0  0  0  0  0
    0.5449   -0.0885   -2.8617 H   0  0  0  0  0  0  0  0  0  0  0  0
   -5.2730   -4.2125    0.1751 H   0  0  0  0  0  0  0  0  0  0  0  0
    3.0767    1.9016    3.8196 H   0  0  0  0  0  0  0  0  0  0  0  0
    2.4049    3.8277    5.1759 H   0  0  0  0  0  0  0  0  0  0  0  0
    1.2969    5.9366    1.6396 H   0  0  0  0  0  0  0  0  0  0  0  0
    1.9540    4.0108    0.2799 H   0  0  0  0  0  0  0  0  0  0  0  0
    3.2908   -1.0978    1.5740 H   0  0  0  0  0  0  0  0  0  0  0  0
    5.2848   -2.2179    2.4411 H   0  0  0  0  0  0  0  0  0  0  0  0
    7.2623    1.5446    2.7870 H   0  0  0  0  0  0  0  0  0  0  0  0
    5.2644    2.6737    1.9292 H   0  0  0  0  0  0  0  0  0  0  0  0
    8.1862   -0.4721    3.8757 H   0  0  0  0  0  0  0  0  0  0  0  0
    7.3872   -2.0390    3.6800 H   0  0  0  0  0  0  0  0  0  0  0  0
    9.4804   -1.9362    2.3403 H   0  0  0  0  0  0  0  0  0  0  0  0
    8.8660   -0.5230    1.4746 H   0  0  0  0  0  0  0  0  0  0  0  0
    8.0734   -2.0857    1.2814 H   0  0  0  0  0  0  0  0  0  0  0  0
    1.4645    7.1139    3.7766 H   0  0  0  0  0  0  0  0  0  0  0  0
    1.9809    6.2598    5.2377 H   0  0  0  0  0  0  0  0  0  0  0  0
   -0.2267    5.0999    5.3369 H   0  0  0  0  0  0  0  0  0  0  0  0
   -0.7413    5.9497    3.8806 H   0  0  0  0  0  0  0  0  0  0  0  0
   -0.4293    6.8552    5.3658 H   0  0  0  0  0  0  0  0  0  0  0  0
   -3.6040   -0.0765   -2.0871 H   0  0  0  0  0  0  0  0  0  0  0  0
   -5.5844    0.9271   -3.1170 H   0  0  0  0  0  0  0  0  0  0  0  0
   -7.3561   -2.9327   -3.4983 H   0  0  0  0  0  0  0  0  0  0  0  0
   -5.3685   -3.9448   -2.4803 H   0  0  0  0  0  0  0  0  0  0  0  0
   -3.1269   -3.2244   -4.2188 H   0  0  0  0  0  0  0  0  0  0  0  0
   -2.3279   -5.2181   -5.3955 H   0  0  0  0  0  0  0  0  0  0  0  0
   -1.3699   -7.0428   -1.6630 H   0  0  0  0  0  0  0  0  0  0  0  0
   -2.1533   -5.0483   -0.4819 H   0  0  0  0  0  0  0  0  0  0  0  0
   -1.4041   -8.3737   -3.7215 H   0  0  0  0  0  0  0  0  0  0  0  0
   -1.8246   -7.6267   -5.2695 H   0  0  0  0  0  0  0  0  0  0  0  0
    0.5973   -8.1812   -5.1825 H   0  0  0  0  0  0  0  0  0  0  0  0
    0.7854   -7.1745   -3.7423 H   0  0  0  0  0  0  0  0  0  0  0  0
    0.3665   -6.4323   -5.2856 H   0  0  0  0  0  0  0  0  0  0  0  0
   -8.6979   -0.9045   -3.8381 H   0  0  0  0  0  0  0  0  0  0  0  0
   -7.9619    0.6976   -3.6854 H   0  0  0  0  0  0  0  0  0  0  0  0
   -7.4504   -1.2704   -5.9690 H   0  0  0  0  0  0  0  0  0  0  0  0
   -8.4623    0.1748   -6.0641 H   0  0  0  0  0  0  0  0  0  0  0  0
   -6.7194    0.3275   -5.8172 H   0  0  0  0  0  0  0  0  0  0  0  0
   11.7766    7.9214   -4.4579 H   0  0  0  0  0  0  0  0  0  0  0  0
   12.4535    7.4584   -6.0380 H   0  0  0  0  0  0  0  0  0  0  0  0
   12.5434    6.3203   -4.6719 H   0  0  0  0  0  0  0  0  0  0  0  0
   -6.5657   -2.7628   11.2512 H   0  0  0  0  0  0  0  0  0  0  0  0
   -5.4967   -4.1771   11.4846 H   0  0  0  0  0  0  0  0  0  0  0  0
   -7.2167   -4.2727   11.9342 H   0  0  0  0  0  0  0  0  0  0  0  0
  1  2  2  0  0  0  0
  2  3  1  0  0  0  0
  3  4  1  0  0  0  0
  4  5  2  0  0  0  0
  5  6  1  0  0  0  0
  6  2  1  0  0  0  0
  3  7  2  0  0  0  0
  6  8  2  0  0  0  0
  8  9  1  0  0  0  0
  8 10  1  0  0  0  0
  9 11  3  0  0  0  0
 10 12  3  0  0  0  0
  4 13  1  0  0  0  0
 13 14  2  0  0  0  0
 14 15  1  0  0  0  0
 15 16  2  0  0  0  0
 16  5  1  0  0  0  0
 17 18  1  0  0  0  0
 18 19  2  0  0  0  0
 19 20  1  0  0  0  0
 20 21  1  0  0  0  0
 21 22  2  0  0  0  0
 22 23  1  0  0  0  0
 23 19  1  0  0  0  0
 20 24  2  0  0  0  0
 23 25  2  0  0  0  0
 25 26  1  0  0  0  0
 25 27  1  0  0  0  0
 26 28  3  0  0  0  0
 27 29  3  0  0  0  0
 21 30  1  0  0  0  0
 30 31  2  0  0  0  0
 32 33  2  0  0  0  0
 33 22  1  0  0  0  0
 32 31  1  0  0  0  0
 17 34  2  0  0  0  0
 34 35  1  0  0  0  0
 35 36  2  0  0  0  0
 36 37  1  0  0  0  0
 37 17  1  0  0  0  0
 35 38  1  0  0  0  0
 38 39  1  0  0  0  0
 39 40  2  0  0  0  0
 40 36  1  0  0  0  0
 39 41  1  0  0  0  0
 41 42  2  0  0  0  0
 42 43  1  0  0  0  0
 43 44  2  0  0  0  0
 44 40  1  0  0  0  0
 43 45  1  0  0  0  0
 45 46  2  0  0  0  0
 46 47  1  0  0  0  0
 47 48  2  0  0  0  0
 48 44  1  0  0  0  0
 45 49  1  0  0  0  0
 49 50  2  0  0  0  0
 50 51  1  0  0  0  0
 51 46  1  0  0  0  0
 49 52  1  0  0  0  0
 52 53  1  0  0  0  0
 53 54  2  0  0  0  0
 54 50  1  0  0  0  0
  1 53  1  0  0  0  0
 38 55  1  0  0  0  0
 38 56  1  0  0  0  0
 56 57  2  0  0  0  0
 57 58  1  0  0  0  0
 58 59  2  0  0  0  0
 59 60  1  0  0  0  0
 60 61  2  0  0  0  0
 61 56  1  0  0  0  0
 55 62  2  0  0  0  0
 62 63  1  0  0  0  0
 63 64  2  0  0  0  0
 64 65  1  0  0  0  0
 65 66  2  0  0  0  0
 66 55  1  0  0  0  0
 64 67  1  0  0  0  0
 67 68  1  0  0  0  0
 59 69  1  0  0  0  0
 69 70  1  0  0  0  0
 51 71  1  0  0  0  0
 51 72  1  0  0  0  0
 72 73  2  0  0  0  0
 73 74  1  0  0  0  0
 74 75  2  0  0  0  0
 75 76  1  0  0  0  0
 76 77  2  0  0  0  0
 77 72  1  0  0  0  0
 71 78  2  0  0  0  0
 78 79  1  0  0  0  0
 79 80  2  0  0  0  0
 80 81  1  0  0  0  0
 81 82  2  0  0  0  0
 82 71  1  0  0  0  0
 80 83  1  0  0  0  0
 83 84  1  0  0  0  0
 75 85  1  0  0  0  0
 85 86  1  0  0  0  0
 32 87  1  0  0  0  0
 15 88  1  0  0  0  0
 87 89  1  0  0  0  0
 88 90  1  0  0  0  0
  1 91  1  0  0  0  0
 13 92  1  0  0  0  0
 14 93  1  0  0  0  0
 16 94  1  0  0  0  0
 18 95  1  0  0  0  0
 30 96  1  0  0  0  0
 31 97  1  0  0  0  0
 33 98  1  0  0  0  0
 34 99  1  0  0  0  0
 41100  1  0  0  0  0
 42101  1  0  0  0  0
 47102  1  0  0  0  0
 48103  1  0  0  0  0
 54104  1  0  0  0  0
 57105  1  0  0  0  0
 58106  1  0  0  0  0
 60107  1  0  0  0  0
 61108  1  0  0  0  0
 62109  1  0  0  0  0
 63110  1  0  0  0  0
 65111  1  0  0  0  0
 66112  1  0  0  0  0
 67113  1  0  0  0  0
 67114  1  0  0  0  0
 68115  1  0  0  0  0
 68116  1  0  0  0  0
 68117  1  0  0  0  0
 69118  1  0  0  0  0
 69119  1  0  0  0  0
 70120  1  0  0  0  0
 70121  1  0  0  0  0
 70122  1  0  0  0  0
 73123  1  0  0  0  0
 74124  1  0  0  0  0
 76125  1  0  0  0  0
 77126  1  0  0  0  0
 78127  1  0  0  0  0
 79128  1  0  0  0  0
 81129  1  0  0  0  0
 82130  1  0  0  0  0
 83131  1  0  0  0  0
 83132  1  0  0  0  0
 84133  1  0  0  0  0
 84134  1  0  0  0  0
 84135  1  0  0  0  0
 85136  1  0  0  0  0
 85137  1  0  0  0  0
 86138  1  0  0  0  0
 86139  1  0  0  0  0
 86140  1  0  0  0  0
 89141  1  0  0  0  0
 89142  1  0  0  0  0
 89143  1  0  0  0  0
 90144  1  0  0  0  0
 90145  1  0  0  0  0
 90146  1  0  0  0  0
M  END
