NTIC-F.mol
  xtb     01102218263D
 energy: -228.179740967764 gnorm: 0.000679072246 xtb: 6.4.1 (unknown)
138151  0     0  0            999 V2000
    3.3052   -2.7241   -4.1981 O   0  0  0  0  0  0  0  0  0  0  0  0
    3.3738   -3.0060   -5.3817 C   0  0  0  0  0  0  0  0  0  0  0  0
    4.5254   -3.6295   -6.0607 C   0  0  0  0  0  0  0  0  0  0  0  0
    4.2228   -3.8044   -7.4223 C   0  0  0  0  0  0  0  0  0  0  0  0
    5.1600   -4.3744   -8.2673 C   0  0  0  0  0  0  0  0  0  0  0  0
    6.3745   -4.7488   -7.7076 C   0  0  0  0  0  0  0  0  0  0  0  0
    7.2983   -5.3029   -8.5094 F   0  0  0  0  0  0  0  0  0  0  0  0
    6.6834   -4.5804   -6.3663 C   0  0  0  0  0  0  0  0  0  0  0  0
    5.7409   -4.0100   -5.5253 C   0  0  0  0  0  0  0  0  0  0  0  0
    2.3523   -2.8066   -6.4142 C   0  0  0  0  0  0  0  0  0  0  0  0
    2.8698   -3.3014   -7.6733 C   0  0  0  0  0  0  0  0  0  0  0  0
    2.2438   -3.3080   -8.8928 C   0  0  0  0  0  0  0  0  0  0  0  0
    2.8243   -3.8062  -10.0788 C   0  0  0  0  0  0  0  0  0  0  0  0
    3.2334   -4.1907  -11.0800 N   0  0  0  0  0  0  0  0  0  0  0  0
    0.9447   -2.8272   -9.1602 C   0  0  0  0  0  0  0  0  0  0  0  0
   -0.1004   -2.4626   -9.4685 N   0  0  0  0  0  0  0  0  0  0  0  0
    1.1156   -2.2368   -6.2256 C   0  0  0  0  0  0  0  0  0  0  0  0
    0.5240   -1.6996   -5.0783 C   0  0  0  0  0  0  0  0  0  0  0  0
   -0.7565   -1.1241   -5.1015 C   0  0  0  0  0  0  0  0  0  0  0  0
   -1.1373   -0.6317   -3.8749 C   0  0  0  0  0  0  0  0  0  0  0  0
   -0.1591   -0.8171   -2.8919 C   0  0  0  0  0  0  0  0  0  0  0  0
    1.2366   -1.6126   -3.4728 S   0  0  0  0  0  0  0  0  0  0  0  0
   -0.5968   -0.2447   -1.6581 C   0  0  0  0  0  0  0  0  0  0  0  0
    0.0300   -0.1826   -0.3919 C   0  0  0  0  0  0  0  0  0  0  0  0
   -0.6632    0.5222    0.6334 C   0  0  0  0  0  0  0  0  0  0  0  0
   -1.9275    1.0882    0.3812 C   0  0  0  0  0  0  0  0  0  0  0  0
   -2.5261    0.9844   -0.8518 C   0  0  0  0  0  0  0  0  0  0  0  0
   -1.8522    0.3299   -1.8779 C   0  0  0  0  0  0  0  0  0  0  0  0
   -2.3186    0.1107   -3.3059 C   0  0  0  0  0  0  0  0  0  0  0  0
   -3.5900   -0.7191   -3.2516 C   0  0  0  0  0  0  0  0  0  0  0  0
   -4.8260   -0.0955   -3.1374 C   0  0  0  0  0  0  0  0  0  0  0  0
   -5.9836   -0.8448   -3.0463 C   0  0  0  0  0  0  0  0  0  0  0  0
   -5.9394   -2.2327   -3.0619 C   0  0  0  0  0  0  0  0  0  0  0  0
   -7.1941   -3.0454   -2.9244 C   0  0  0  0  0  0  0  0  0  0  0  0
   -7.4797   -3.3425   -1.4508 C   0  0  0  0  0  0  0  0  0  0  0  0
   -4.7000   -2.8506   -3.1600 C   0  0  0  0  0  0  0  0  0  0  0  0
   -3.5386   -2.1061   -3.2497 C   0  0  0  0  0  0  0  0  0  0  0  0
   -2.5050    1.3870   -4.1044 C   0  0  0  0  0  0  0  0  0  0  0  0
   -3.1581    1.3318   -5.3302 C   0  0  0  0  0  0  0  0  0  0  0  0
   -3.3051    2.4698   -6.0987 C   0  0  0  0  0  0  0  0  0  0  0  0
   -2.8010    3.6910   -5.6679 C   0  0  0  0  0  0  0  0  0  0  0  0
   -2.1358    3.7366   -4.4508 C   0  0  0  0  0  0  0  0  0  0  0  0
   -1.9839    2.5994   -3.6775 C   0  0  0  0  0  0  0  0  0  0  0  0
   -2.9246    4.9176   -6.5245 C   0  0  0  0  0  0  0  0  0  0  0  0
   -1.7371    5.0187   -7.4841 C   0  0  0  0  0  0  0  0  0  0  0  0
    1.2810   -0.7746   -0.1325 C   0  0  0  0  0  0  0  0  0  0  0  0
    1.8666   -0.6954    1.1087 C   0  0  0  0  0  0  0  0  0  0  0  0
    1.2145   -0.0012    2.1227 C   0  0  0  0  0  0  0  0  0  0  0  0
   -0.0192    0.6144    1.8888 C   0  0  0  0  0  0  0  0  0  0  0  0
   -0.3849    1.3002    3.0867 C   0  0  0  0  0  0  0  0  0  0  0  0
    0.6059    1.1454    4.0588 C   0  0  0  0  0  0  0  0  0  0  0  0
    1.6957    0.2436    3.5409 C   0  0  0  0  0  0  0  0  0  0  0  0
    3.0675    0.8884    3.4855 C   0  0  0  0  0  0  0  0  0  0  0  0
    3.2066    2.2661    3.3966 C   0  0  0  0  0  0  0  0  0  0  0  0
    4.4619    2.8392    3.3072 C   0  0  0  0  0  0  0  0  0  0  0  0
    5.6065    2.0541    3.2978 C   0  0  0  0  0  0  0  0  0  0  0  0
    6.9674    2.6735    3.1622 C   0  0  0  0  0  0  0  0  0  0  0  0
    7.3851    2.7307    1.6914 C   0  0  0  0  0  0  0  0  0  0  0  0
    5.4604    0.6747    3.3698 C   0  0  0  0  0  0  0  0  0  0  0  0
    4.2088    0.0967    3.4600 C   0  0  0  0  0  0  0  0  0  0  0  0
    1.6959   -1.0029    4.4111 C   0  0  0  0  0  0  0  0  0  0  0  0
    1.0872   -2.1825    4.0099 C   0  0  0  0  0  0  0  0  0  0  0  0
    1.0751   -3.2821    4.8500 C   0  0  0  0  0  0  0  0  0  0  0  0
    1.6610   -3.2293    6.1069 C   0  0  0  0  0  0  0  0  0  0  0  0
    1.6064   -4.4112    7.0312 C   0  0  0  0  0  0  0  0  0  0  0  0
    0.3280   -4.3733    7.8711 C   0  0  0  0  0  0  0  0  0  0  0  0
    2.2556   -2.0392    6.5081 C   0  0  0  0  0  0  0  0  0  0  0  0
    2.2721   -0.9385    5.6744 C   0  0  0  0  0  0  0  0  0  0  0  0
    0.3395    1.8170    5.2365 C   0  0  0  0  0  0  0  0  0  0  0  0
   -0.8637    2.5172    5.1844 C   0  0  0  0  0  0  0  0  0  0  0  0
   -1.6691    2.2858    3.6253 S   0  0  0  0  0  0  0  0  0  0  0  0
   -1.5335    3.3507    6.0920 C   0  0  0  0  0  0  0  0  0  0  0  0
   -1.1906    3.8179    7.3367 C   0  0  0  0  0  0  0  0  0  0  0  0
   -2.0386    4.7048    8.1144 C   0  0  0  0  0  0  0  0  0  0  0  0
   -3.3242    5.0933    7.8397 C   0  0  0  0  0  0  0  0  0  0  0  0
   -4.0816    5.9586    8.6588 C   0  0  0  0  0  0  0  0  0  0  0  0
   -4.7591    6.6558    9.2691 N   0  0  0  0  0  0  0  0  0  0  0  0
   -4.1089    4.6966    6.7354 C   0  0  0  0  0  0  0  0  0  0  0  0
   -4.8301    4.4279    5.8823 N   0  0  0  0  0  0  0  0  0  0  0  0
   -1.2880    5.1087    9.3040 C   0  0  0  0  0  0  0  0  0  0  0  0
   -1.6032    5.9723   10.3403 C   0  0  0  0  0  0  0  0  0  0  0  0
   -0.6519    6.1405   11.3372 C   0  0  0  0  0  0  0  0  0  0  0  0
   -0.9349    6.9767   12.3495 F   0  0  0  0  0  0  0  0  0  0  0  0
    0.5745    5.4927   11.3424 C   0  0  0  0  0  0  0  0  0  0  0  0
    0.8837    4.6316   10.3020 C   0  0  0  0  0  0  0  0  0  0  0  0
   -0.0472    4.4519    9.2964 C   0  0  0  0  0  0  0  0  0  0  0  0
    0.0623    3.6039    8.0918 C   0  0  0  0  0  0  0  0  0  0  0  0
    1.0111    2.8959    7.8201 O   0  0  0  0  0  0  0  0  0  0  0  0
    4.9893   -4.5352   -9.3186 H   0  0  0  0  0  0  0  0  0  0  0  0
    7.6485   -4.8949   -6.0021 H   0  0  0  0  0  0  0  0  0  0  0  0
    5.9411   -3.8607   -4.4759 H   0  0  0  0  0  0  0  0  0  0  0  0
    0.4765   -2.1688   -7.0976 H   0  0  0  0  0  0  0  0  0  0  0  0
   -1.3454   -1.0841   -6.0004 H   0  0  0  0  0  0  0  0  0  0  0  0
   -2.4311    1.6086    1.1821 H   0  0  0  0  0  0  0  0  0  0  0  0
   -3.4996    1.4148   -1.0286 H   0  0  0  0  0  0  0  0  0  0  0  0
   -4.8858    0.9833   -3.1358 H   0  0  0  0  0  0  0  0  0  0  0  0
   -6.9371   -0.3426   -2.9660 H   0  0  0  0  0  0  0  0  0  0  0  0
   -8.0377   -2.4997   -3.3513 H   0  0  0  0  0  0  0  0  0  0  0  0
   -7.0861   -3.9870   -3.4665 H   0  0  0  0  0  0  0  0  0  0  0  0
   -6.6533   -3.8947   -1.0088 H   0  0  0  0  0  0  0  0  0  0  0  0
   -8.3863   -3.9346   -1.3513 H   0  0  0  0  0  0  0  0  0  0  0  0
   -7.6068   -2.4159   -0.8956 H   0  0  0  0  0  0  0  0  0  0  0  0
   -4.6416   -3.9297   -3.1698 H   0  0  0  0  0  0  0  0  0  0  0  0
   -2.5866   -2.6113   -3.3239 H   0  0  0  0  0  0  0  0  0  0  0  0
   -3.5642    0.3926   -5.6771 H   0  0  0  0  0  0  0  0  0  0  0  0
   -3.8210    2.4102   -7.0462 H   0  0  0  0  0  0  0  0  0  0  0  0
   -1.7309    4.6749   -4.0992 H   0  0  0  0  0  0  0  0  0  0  0  0
   -1.4584    2.6617   -2.7357 H   0  0  0  0  0  0  0  0  0  0  0  0
   -3.8504    4.8750   -7.1015 H   0  0  0  0  0  0  0  0  0  0  0  0
   -2.9548    5.8085   -5.8940 H   0  0  0  0  0  0  0  0  0  0  0  0
   -1.6972    4.1447   -8.1302 H   0  0  0  0  0  0  0  0  0  0  0  0
   -0.8044    5.0743   -6.9271 H   0  0  0  0  0  0  0  0  0  0  0  0
   -1.8245    5.9068   -8.1056 H   0  0  0  0  0  0  0  0  0  0  0  0
    1.7807   -1.3000   -0.9324 H   0  0  0  0  0  0  0  0  0  0  0  0
    2.8239   -1.1565    1.2964 H   0  0  0  0  0  0  0  0  0  0  0  0
    2.3309    2.8987    3.4031 H   0  0  0  0  0  0  0  0  0  0  0  0
    4.5520    3.9145    3.2479 H   0  0  0  0  0  0  0  0  0  0  0  0
    7.6986    2.0850    3.7204 H   0  0  0  0  0  0  0  0  0  0  0  0
    6.9570    3.6848    3.5734 H   0  0  0  0  0  0  0  0  0  0  0  0
    7.4140    1.7298    1.2666 H   0  0  0  0  0  0  0  0  0  0  0  0
    6.6748    3.3237    1.1194 H   0  0  0  0  0  0  0  0  0  0  0  0
    8.3711    3.1788    1.5930 H   0  0  0  0  0  0  0  0  0  0  0  0
    6.3384    0.0446    3.3602 H   0  0  0  0  0  0  0  0  0  0  0  0
    4.1187   -0.9781    3.5270 H   0  0  0  0  0  0  0  0  0  0  0  0
    0.6217   -2.2503    3.0374 H   0  0  0  0  0  0  0  0  0  0  0  0
    0.6027   -4.1963    4.5196 H   0  0  0  0  0  0  0  0  0  0  0  0
    1.6287   -5.3365    6.4519 H   0  0  0  0  0  0  0  0  0  0  0  0
    2.4731   -4.4021    7.6951 H   0  0  0  0  0  0  0  0  0  0  0  0
    0.2885   -5.2273    8.5431 H   0  0  0  0  0  0  0  0  0  0  0  0
    0.2923   -3.4621    8.4640 H   0  0  0  0  0  0  0  0  0  0  0  0
   -0.5486   -4.3962    7.2275 H   0  0  0  0  0  0  0  0  0  0  0  0
    2.7122   -1.9736    7.4852 H   0  0  0  0  0  0  0  0  0  0  0  0
    2.7437   -0.0236    6.0013 H   0  0  0  0  0  0  0  0  0  0  0  0
    0.9715    1.8323    6.1045 H   0  0  0  0  0  0  0  0  0  0  0  0
   -2.4868    3.6980    5.7113 H   0  0  0  0  0  0  0  0  0  0  0  0
   -2.5342    6.5103   10.4018 H   0  0  0  0  0  0  0  0  0  0  0  0
    1.2637    5.6716   12.1523 H   0  0  0  0  0  0  0  0  0  0  0  0
    1.8267    4.1089   10.2654 H   0  0  0  0  0  0  0  0  0  0  0  0
  1  2  2  0  0  0  0
  2  3  1  0  0  0  0
  3  4  2  0  0  0  0
  4  5  1  0  0  0  0
  5  6  2  0  0  0  0
  6  7  1  0  0  0  0
  6  8  1  0  0  0  0
  8  9  2  0  0  0  0
  3  9  1  0  0  0  0
  2 10  1  0  0  0  0
 10 11  1  0  0  0  0
  4 11  1  0  0  0  0
 11 12  2  0  0  0  0
 12 13  1  0  0  0  0
 13 14  3  0  0  0  0
 12 15  1  0  0  0  0
 15 16  3  0  0  0  0
 10 17  2  0  0  0  0
 17 18  1  0  0  0  0
 18 19  2  0  0  0  0
 19 20  1  0  0  0  0
 20 21  2  0  0  0  0
 21 22  1  0  0  0  0
 18 22  1  0  0  0  0
 21 23  1  0  0  0  0
 23 24  2  0  0  0  0
 24 25  1  0  0  0  0
 25 26  2  0  0  0  0
 26 27  1  0  0  0  0
 27 28  2  0  0  0  0
 23 28  1  0  0  0  0
 28 29  1  0  0  0  0
 20 29  1  0  0  0  0
 29 30  1  0  0  0  0
 30 31  2  0  0  0  0
 31 32  1  0  0  0  0
 32 33  2  0  0  0  0
 33 34  1  0  0  0  0
 34 35  1  0  0  0  0
 33 36  1  0  0  0  0
 36 37  2  0  0  0  0
 30 37  1  0  0  0  0
 29 38  1  0  0  0  0
 38 39  2  0  0  0  0
 39 40  1  0  0  0  0
 40 41  2  0  0  0  0
 41 42  1  0  0  0  0
 42 43  2  0  0  0  0
 38 43  1  0  0  0  0
 41 44  1  0  0  0  0
 44 45  1  0  0  0  0
 24 46  1  0  0  0  0
 46 47  2  0  0  0  0
 47 48  1  0  0  0  0
 48 49  2  0  0  0  0
 25 49  1  0  0  0  0
 49 50  1  0  0  0  0
 50 51  2  0  0  0  0
 51 52  1  0  0  0  0
 48 52  1  0  0  0  0
 52 53  1  0  0  0  0
 53 54  2  0  0  0  0
 54 55  1  0  0  0  0
 55 56  2  0  0  0  0
 56 57  1  0  0  0  0
 57 58  1  0  0  0  0
 56 59  1  0  0  0  0
 59 60  2  0  0  0  0
 53 60  1  0  0  0  0
 52 61  1  0  0  0  0
 61 62  2  0  0  0  0
 62 63  1  0  0  0  0
 63 64  2  0  0  0  0
 64 65  1  0  0  0  0
 65 66  1  0  0  0  0
 64 67  1  0  0  0  0
 67 68  2  0  0  0  0
 61 68  1  0  0  0  0
 51 69  1  0  0  0  0
 69 70  2  0  0  0  0
 70 71  1  0  0  0  0
 50 71  1  0  0  0  0
 70 72  1  0  0  0  0
 72 73  2  0  0  0  0
 73 74  1  0  0  0  0
 74 75  2  0  0  0  0
 75 76  1  0  0  0  0
 76 77  3  0  0  0  0
 75 78  1  0  0  0  0
 78 79  3  0  0  0  0
 74 80  1  0  0  0  0
 80 81  2  0  0  0  0
 81 82  1  0  0  0  0
 82 83  1  0  0  0  0
 82 84  2  0  0  0  0
 84 85  1  0  0  0  0
 85 86  2  0  0  0  0
 80 86  1  0  0  0  0
 86 87  1  0  0  0  0
 73 87  1  0  0  0  0
 87 88  2  0  0  0  0
  5 89  1  0  0  0  0
  8 90  1  0  0  0  0
  9 91  1  0  0  0  0
 17 92  1  0  0  0  0
 19 93  1  0  0  0  0
 26 94  1  0  0  0  0
 27 95  1  0  0  0  0
 31 96  1  0  0  0  0
 32 97  1  0  0  0  0
 34 98  1  0  0  0  0
 34 99  1  0  0  0  0
 35100  1  0  0  0  0
 35101  1  0  0  0  0
 35102  1  0  0  0  0
 36103  1  0  0  0  0
 37104  1  0  0  0  0
 39105  1  0  0  0  0
 40106  1  0  0  0  0
 42107  1  0  0  0  0
 43108  1  0  0  0  0
 44109  1  0  0  0  0
 44110  1  0  0  0  0
 45111  1  0  0  0  0
 45112  1  0  0  0  0
 45113  1  0  0  0  0
 46114  1  0  0  0  0
 47115  1  0  0  0  0
 54116  1  0  0  0  0
 55117  1  0  0  0  0
 57118  1  0  0  0  0
 57119  1  0  0  0  0
 58120  1  0  0  0  0
 58121  1  0  0  0  0
 58122  1  0  0  0  0
 59123  1  0  0  0  0
 60124  1  0  0  0  0
 62125  1  0  0  0  0
 63126  1  0  0  0  0
 65127  1  0  0  0  0
 65128  1  0  0  0  0
 66129  1  0  0  0  0
 66130  1  0  0  0  0
 66131  1  0  0  0  0
 67132  1  0  0  0  0
 68133  1  0  0  0  0
 69134  1  0  0  0  0
 72135  1  0  0  0  0
 81136  1  0  0  0  0
 84137  1  0  0  0  0
 85138  1  0  0  0  0
M  END
