OCH3-2F.sdf
  xtb     12202113543D
 energy: -251.357239394723 gnorm: 0.000819381484 xtb: 6.4.1 (unknown)
138149  0     0  0            999 V2000
   -3.0049   -7.4191   -3.0162 C   0  0  0  0  0  0  0  0  0  0  0  0
   -2.0147   -6.7955   -3.3476 O   0  0  0  0  0  0  0  0  0  0  0  0
   -3.6136   -8.5404   -3.7718 C   0  0  0  0  0  0  0  0  0  0  0  0
   -3.1629   -9.1367   -4.9319 C   0  0  0  0  0  0  0  0  0  0  0  0
   -3.9240  -10.1644   -5.4662 C   0  0  0  0  0  0  0  0  0  0  0  0
   -5.1056  -10.5697   -4.8479 C   0  0  0  0  0  0  0  0  0  0  0  0
   -5.5610   -9.9680   -3.6836 C   0  0  0  0  0  0  0  0  0  0  0  0
   -4.8030   -8.9421   -3.1428 C   0  0  0  0  0  0  0  0  0  0  0  0
   -4.9979   -8.1197   -1.9490 C   0  0  0  0  0  0  0  0  0  0  0  0
   -5.9963   -8.2833   -1.0230 C   0  0  0  0  0  0  0  0  0  0  0  0
   -6.1081   -7.5561    0.1808 C   0  0  0  0  0  0  0  0  0  0  0  0
   -6.2522   -7.0281    1.1904 N   0  0  0  0  0  0  0  0  0  0  0  0
   -7.0325   -9.2325   -1.1386 C   0  0  0  0  0  0  0  0  0  0  0  0
   -7.9038   -9.9785   -1.1838 N   0  0  0  0  0  0  0  0  0  0  0  0
   -3.9062   -7.1745   -1.8828 C   0  0  0  0  0  0  0  0  0  0  0  0
   -5.8236  -11.5614   -5.3891 F   0  0  0  0  0  0  0  0  0  0  0  0
   -3.8563   -6.0845   -1.0415 C   0  0  0  0  0  0  0  0  0  0  0  0
   -3.5178  -10.7721   -6.5895 F   0  0  0  0  0  0  0  0  0  0  0  0
    5.2410    5.4135   -0.7958 C   0  0  0  0  0  0  0  0  0  0  0  0
    4.6440    4.3839   -1.0559 O   0  0  0  0  0  0  0  0  0  0  0  0
    6.5558    5.8088   -1.3486 C   0  0  0  0  0  0  0  0  0  0  0  0
    7.3762    5.0977   -2.1999 C   0  0  0  0  0  0  0  0  0  0  0  0
    8.5788    5.6796   -2.5678 C   0  0  0  0  0  0  0  0  0  0  0  0
    8.9324    6.9403   -2.0901 C   0  0  0  0  0  0  0  0  0  0  0  0
    8.1050    7.6555   -1.2355 C   0  0  0  0  0  0  0  0  0  0  0  0
    6.9024    7.0787   -0.8602 C   0  0  0  0  0  0  0  0  0  0  0  0
    5.8293    7.5491    0.0199 C   0  0  0  0  0  0  0  0  0  0  0  0
    5.7951    8.7826    0.6227 C   0  0  0  0  0  0  0  0  0  0  0  0
    4.7530    9.2734    1.4354 C   0  0  0  0  0  0  0  0  0  0  0  0
    3.9430    9.7555    2.0932 N   0  0  0  0  0  0  0  0  0  0  0  0
    6.8094    9.7535    0.4922 C   0  0  0  0  0  0  0  0  0  0  0  0
    7.5957   10.5875    0.4269 N   0  0  0  0  0  0  0  0  0  0  0  0
    4.8390    6.4993    0.0962 C   0  0  0  0  0  0  0  0  0  0  0  0
   10.1012    7.4782   -2.4597 F   0  0  0  0  0  0  0  0  0  0  0  0
    3.7430    6.5039    0.9357 C   0  0  0  0  0  0  0  0  0  0  0  0
    9.4089    5.0201   -3.3886 F   0  0  0  0  0  0  0  0  0  0  0  0
   -1.0733   -1.8271    0.0073 C   0  0  0  0  0  0  0  0  0  0  0  0
   -1.5099   -3.1521   -0.2412 C   0  0  0  0  0  0  0  0  0  0  0  0
   -0.7037   -4.2548   -0.4686 C   0  0  0  0  0  0  0  0  0  0  0  0
   -1.3935   -5.4261   -0.7672 C   0  0  0  0  0  0  0  0  0  0  0  0
   -2.7789   -5.2259   -0.7933 C   0  0  0  0  0  0  0  0  0  0  0  0
   -3.1817   -3.5801   -0.3303 S   0  0  0  0  0  0  0  0  0  0  0  0
   -0.7337   -6.7561   -0.9003 C   0  0  0  0  0  0  0  0  0  0  0  0
    0.4843   -6.9212    0.0037 C   0  0  0  0  0  0  0  0  0  0  0  0
    0.0823   -1.2334   -0.5016 C   0  0  0  0  0  0  0  0  0  0  0  0
    0.2616    0.0573    0.0492 C   0  0  0  0  0  0  0  0  0  0  0  0
   -0.7584    0.4663    0.8936 C   0  0  0  0  0  0  0  0  0  0  0  0
   -1.9845   -0.7470    1.0551 S   0  0  0  0  0  0  0  0  0  0  0  0
    1.4395    1.2954   -0.1821 S   0  0  0  0  0  0  0  0  0  0  0  0
    0.5591    2.3701    0.9039 C   0  0  0  0  0  0  0  0  0  0  0  0
   -0.6300    1.7960    1.3677 C   0  0  0  0  0  0  0  0  0  0  0  0
    0.8828   -1.7710   -1.4791 N   0  0  0  0  0  0  0  0  0  0  0  0
    0.3247   -2.5121   -2.5402 C   0  0  0  0  0  0  0  0  0  0  0  0
    2.2207   -1.3384   -1.5525 C   0  0  0  0  0  0  0  0  0  0  0  0
    1.0101   -3.5986   -3.0674 C   0  0  0  0  0  0  0  0  0  0  0  0
    0.4702   -4.3462   -4.0983 C   0  0  0  0  0  0  0  0  0  0  0  0
   -0.7753   -4.0167   -4.6248 C   0  0  0  0  0  0  0  0  0  0  0  0
   -1.4583   -2.9163   -4.0982 C   0  0  0  0  0  0  0  0  0  0  0  0
   -0.9174   -2.1738   -3.0757 C   0  0  0  0  0  0  0  0  0  0  0  0
    3.0049   -1.3207   -0.3988 C   0  0  0  0  0  0  0  0  0  0  0  0
    4.2903   -0.8322   -0.4404 C   0  0  0  0  0  0  0  0  0  0  0  0
    4.8267   -0.3440   -1.6342 C   0  0  0  0  0  0  0  0  0  0  0  0
    4.0571   -0.4002   -2.7933 C   0  0  0  0  0  0  0  0  0  0  0  0
    2.7679   -0.8964   -2.7501 C   0  0  0  0  0  0  0  0  0  0  0  0
   -1.5933    2.3900    2.1529 N   0  0  0  0  0  0  0  0  0  0  0  0
   -2.0063    3.7144    1.9622 C   0  0  0  0  0  0  0  0  0  0  0  0
   -2.2869    1.5625    3.0601 C   0  0  0  0  0  0  0  0  0  0  0  0
   -1.5710    0.6852    3.8749 C   0  0  0  0  0  0  0  0  0  0  0  0
   -2.2314   -0.1439    4.7510 C   0  0  0  0  0  0  0  0  0  0  0  0
   -3.6256   -0.1168    4.8433 C   0  0  0  0  0  0  0  0  0  0  0  0
   -4.3387    0.7666    4.0375 C   0  0  0  0  0  0  0  0  0  0  0  0
   -3.6723    1.5944    3.1531 C   0  0  0  0  0  0  0  0  0  0  0  0
   -1.9168    4.3272    0.7176 C   0  0  0  0  0  0  0  0  0  0  0  0
   -2.2979    5.6453    0.5456 C   0  0  0  0  0  0  0  0  0  0  0  0
   -2.7895    6.3786    1.6207 C   0  0  0  0  0  0  0  0  0  0  0  0
   -2.8957    5.7584    2.8685 C   0  0  0  0  0  0  0  0  0  0  0  0
   -2.5079    4.4501    3.0390 C   0  0  0  0  0  0  0  0  0  0  0  0
    1.1764    3.6128    1.1749 C   0  0  0  0  0  0  0  0  0  0  0  0
    2.5696    4.0553    0.2424 S   0  0  0  0  0  0  0  0  0  0  0  0
    2.7471    5.5510    1.1357 C   0  0  0  0  0  0  0  0  0  0  0  0
    1.7396    5.6596    2.1182 C   0  0  0  0  0  0  0  0  0  0  0  0
    0.8874    4.5708    2.1422 C   0  0  0  0  0  0  0  0  0  0  0  0
    1.5451    6.8397    3.0149 C   0  0  0  0  0  0  0  0  0  0  0  0
    0.7149    7.9124    2.3044 C   0  0  0  0  0  0  0  0  0  0  0  0
   -1.3893   -4.6586   -5.6458 O   0  0  0  0  0  0  0  0  0  0  0  0
    6.0881    0.1499   -1.5597 O   0  0  0  0  0  0  0  0  0  0  0  0
   -4.1747   -0.9748    5.7389 O   0  0  0  0  0  0  0  0  0  0  0  0
   -3.1845    7.6784    1.5689 O   0  0  0  0  0  0  0  0  0  0  0  0
   -0.8021   -5.8362   -6.1490 C   0  0  0  0  0  0  0  0  0  0  0  0
    6.6177    0.8122   -2.6836 C   0  0  0  0  0  0  0  0  0  0  0  0
   -5.5770   -1.0256    5.8581 C   0  0  0  0  0  0  0  0  0  0  0  0
   -3.0893    8.3656    0.3442 C   0  0  0  0  0  0  0  0  0  0  0  0
   -2.2510   -8.8218   -5.4134 H   0  0  0  0  0  0  0  0  0  0  0  0
   -6.4838  -10.3122   -3.2463 H   0  0  0  0  0  0  0  0  0  0  0  0
   -4.7815   -5.8008   -0.5524 H   0  0  0  0  0  0  0  0  0  0  0  0
    7.0990    4.1220   -2.5653 H   0  0  0  0  0  0  0  0  0  0  0  0
    8.4275    8.6249   -0.8933 H   0  0  0  0  0  0  0  0  0  0  0  0
    3.6449    7.3746    1.5698 H   0  0  0  0  0  0  0  0  0  0  0  0
    0.3643   -4.1992   -0.3761 H   0  0  0  0  0  0  0  0  0  0  0  0
   -0.4319   -6.8845   -1.9449 H   0  0  0  0  0  0  0  0  0  0  0  0
   -1.4652   -7.5383   -0.6818 H   0  0  0  0  0  0  0  0  0  0  0  0
    1.2975   -6.2715   -0.3081 H   0  0  0  0  0  0  0  0  0  0  0  0
    0.8369   -7.9486   -0.0432 H   0  0  0  0  0  0  0  0  0  0  0  0
    0.2300   -6.6916    1.0361 H   0  0  0  0  0  0  0  0  0  0  0  0
    1.9796   -3.8582   -2.6672 H   0  0  0  0  0  0  0  0  0  0  0  0
    1.0280   -5.1866   -4.4778 H   0  0  0  0  0  0  0  0  0  0  0  0
   -2.4171   -2.6603   -4.5199 H   0  0  0  0  0  0  0  0  0  0  0  0
   -1.4549   -1.3210   -2.6881 H   0  0  0  0  0  0  0  0  0  0  0  0
    2.5912   -1.6830    0.5311 H   0  0  0  0  0  0  0  0  0  0  0  0
    4.9027   -0.8037    0.4463 H   0  0  0  0  0  0  0  0  0  0  0  0
    4.4447   -0.0460   -3.7349 H   0  0  0  0  0  0  0  0  0  0  0  0
    2.1701   -0.9230   -3.6490 H   0  0  0  0  0  0  0  0  0  0  0  0
   -0.4929    0.6622    3.8128 H   0  0  0  0  0  0  0  0  0  0  0  0
   -1.6895   -0.8271    5.3848 H   0  0  0  0  0  0  0  0  0  0  0  0
   -5.4148    0.8130    4.0807 H   0  0  0  0  0  0  0  0  0  0  0  0
   -4.2335    2.2685    2.5235 H   0  0  0  0  0  0  0  0  0  0  0  0
   -1.5481    3.7695   -0.1297 H   0  0  0  0  0  0  0  0  0  0  0  0
   -2.2101    6.0857   -0.4346 H   0  0  0  0  0  0  0  0  0  0  0  0
   -3.2787    6.3346    3.6953 H   0  0  0  0  0  0  0  0  0  0  0  0
   -2.5812    3.9875    4.0119 H   0  0  0  0  0  0  0  0  0  0  0  0
    0.0951    4.4730    2.8598 H   0  0  0  0  0  0  0  0  0  0  0  0
    2.4997    7.2669    3.3240 H   0  0  0  0  0  0  0  0  0  0  0  0
    1.0132    6.5148    3.9106 H   0  0  0  0  0  0  0  0  0  0  0  0
   -0.2566    7.5094    2.0276 H   0  0  0  0  0  0  0  0  0  0  0  0
    0.5669    8.7639    2.9624 H   0  0  0  0  0  0  0  0  0  0  0  0
    1.2224    8.2570    1.4065 H   0  0  0  0  0  0  0  0  0  0  0  0
    0.1750   -5.6373   -6.6017 H   0  0  0  0  0  0  0  0  0  0  0  0
   -1.4848   -6.1998   -6.9155 H   0  0  0  0  0  0  0  0  0  0  0  0
   -0.7020   -6.5840   -5.3583 H   0  0  0  0  0  0  0  0  0  0  0  0
    6.7560    0.1296   -3.5285 H   0  0  0  0  0  0  0  0  0  0  0  0
    5.9762    1.6456   -2.9871 H   0  0  0  0  0  0  0  0  0  0  0  0
    7.5892    1.1917   -2.3703 H   0  0  0  0  0  0  0  0  0  0  0  0
   -6.0489   -1.3163    4.9146 H   0  0  0  0  0  0  0  0  0  0  0  0
   -5.9869   -0.0673    6.1929 H   0  0  0  0  0  0  0  0  0  0  0  0
   -5.7800   -1.7856    6.6107 H   0  0  0  0  0  0  0  0  0  0  0  0
   -2.0542    8.4155   -0.0090 H   0  0  0  0  0  0  0  0  0  0  0  0
   -3.4489    9.3733    0.5448 H   0  0  0  0  0  0  0  0  0  0  0  0
   -3.7164    7.9045   -0.4254 H   0  0  0  0  0  0  0  0  0  0  0  0
  1  2  2  0  0  0  0
  1  3  1  0  0  0  0
  3  4  2  0  0  0  0
  4  5  1  0  0  0  0
  5  6  2  0  0  0  0
  6  7  1  0  0  0  0
  7  8  2  0  0  0  0
  3  8  1  0  0  0  0
  8  9  1  0  0  0  0
  9 10  2  0  0  0  0
 10 11  1  0  0  0  0
 11 12  3  0  0  0  0
 10 13  1  0  0  0  0
 13 14  3  0  0  0  0
  9 15  1  0  0  0  0
  1 15  1  0  0  0  0
  6 16  1  0  0  0  0
 15 17  2  0  0  0  0
  5 18  1  0  0  0  0
 19 20  2  0  0  0  0
 19 21  1  0  0  0  0
 21 22  2  0  0  0  0
 22 23  1  0  0  0  0
 23 24  2  0  0  0  0
 24 25  1  0  0  0  0
 25 26  2  0  0  0  0
 21 26  1  0  0  0  0
 26 27  1  0  0  0  0
 27 28  2  0  0  0  0
 28 29  1  0  0  0  0
 29 30  3  0  0  0  0
 28 31  1  0  0  0  0
 31 32  3  0  0  0  0
 27 33  1  0  0  0  0
 19 33  1  0  0  0  0
 24 34  1  0  0  0  0
 33 35  2  0  0  0  0
 23 36  1  0  0  0  0
 37 38  1  0  0  0  0
 38 39  2  0  0  0  0
 39 40  1  0  0  0  0
 40 41  2  0  0  0  0
 41 42  1  0  0  0  0
 42 38  1  0  0  0  0
 40 43  1  0  0  0  0
 43 44  1  0  0  0  0
 41 17  1  0  0  0  0
 37 45  2  0  0  0  0
 45 46  1  0  0  0  0
 46 47  2  0  0  0  0
 47 48  1  0  0  0  0
 48 37  1  0  0  0  0
 46 49  1  0  0  0  0
 49 50  1  0  0  0  0
 50 51  2  0  0  0  0
 51 47  1  0  0  0  0
 45 52  1  0  0  0  0
 52 53  1  0  0  0  0
 52 54  1  0  0  0  0
 53 55  2  0  0  0  0
 55 56  1  0  0  0  0
 56 57  2  0  0  0  0
 57 58  1  0  0  0  0
 58 59  2  0  0  0  0
 59 53  1  0  0  0  0
 54 60  2  0  0  0  0
 60 61  1  0  0  0  0
 61 62  2  0  0  0  0
 62 63  1  0  0  0  0
 63 64  2  0  0  0  0
 64 54  1  0  0  0  0
 51 65  1  0  0  0  0
 65 66  1  0  0  0  0
 65 67  1  0  0  0  0
 67 68  2  0  0  0  0
 68 69  1  0  0  0  0
 69 70  2  0  0  0  0
 70 71  1  0  0  0  0
 71 72  2  0  0  0  0
 72 67  1  0  0  0  0
 66 73  2  0  0  0  0
 73 74  1  0  0  0  0
 74 75  2  0  0  0  0
 75 76  1  0  0  0  0
 76 77  2  0  0  0  0
 77 66  1  0  0  0  0
 50 78  1  0  0  0  0
 78 79  1  0  0  0  0
 79 80  1  0  0  0  0
 80 81  2  0  0  0  0
 81 82  1  0  0  0  0
 82 78  2  0  0  0  0
 81 83  1  0  0  0  0
 83 84  1  0  0  0  0
 35 80  1  0  0  0  0
 57 85  1  0  0  0  0
 62 86  1  0  0  0  0
 70 87  1  0  0  0  0
 75 88  1  0  0  0  0
 85 89  1  0  0  0  0
 86 90  1  0  0  0  0
 87 91  1  0  0  0  0
 88 92  1  0  0  0  0
  4 93  1  0  0  0  0
  7 94  1  0  0  0  0
 17 95  1  0  0  0  0
 22 96  1  0  0  0  0
 25 97  1  0  0  0  0
 35 98  1  0  0  0  0
 39 99  1  0  0  0  0
 43100  1  0  0  0  0
 43101  1  0  0  0  0
 44102  1  0  0  0  0
 44103  1  0  0  0  0
 44104  1  0  0  0  0
 55105  1  0  0  0  0
 56106  1  0  0  0  0
 58107  1  0  0  0  0
 59108  1  0  0  0  0
 60109  1  0  0  0  0
 61110  1  0  0  0  0
 63111  1  0  0  0  0
 64112  1  0  0  0  0
 68113  1  0  0  0  0
 69114  1  0  0  0  0
 71115  1  0  0  0  0
 72116  1  0  0  0  0
 73117  1  0  0  0  0
 74118  1  0  0  0  0
 76119  1  0  0  0  0
 77120  1  0  0  0  0
 82121  1  0  0  0  0
 83122  1  0  0  0  0
 83123  1  0  0  0  0
 84124  1  0  0  0  0
 84125  1  0  0  0  0
 84126  1  0  0  0  0
 89127  1  0  0  0  0
 89128  1  0  0  0  0
 89129  1  0  0  0  0
 90130  1  0  0  0  0
 90131  1  0  0  0  0
 90132  1  0  0  0  0
 91133  1  0  0  0  0
 91134  1  0  0  0  0
 91135  1  0  0  0  0
 92136  1  0  0  0  0
 92137  1  0  0  0  0
 92138  1  0  0  0  0
M  END
