P_NDI2OD-2FT_.sdf
  xtb     12222118143D
 energy: -304.022531615685 gnorm: 0.000533604982 xtb: 6.4.1 (unknown)
152169  0     0  0            999 V2000
    8.7815   -2.5090    2.9231 C   0  0  0  0  0  0  0  0  0  0  0  0
    8.5957   -1.5333    1.9617 C   0  0  0  0  0  0  0  0  0  0  0  0
    7.9210   -0.3424    2.2856 C   0  0  0  0  0  0  0  0  0  0  0  0
    7.4182   -0.1440    3.5934 C   0  0  0  0  0  0  0  0  0  0  0  0
    7.6167   -1.1613    4.5497 C   0  0  0  0  0  0  0  0  0  0  0  0
    8.2955   -2.3180    4.2142 C   0  0  0  0  0  0  0  0  0  0  0  0
    7.7201    0.6588    1.3149 C   0  0  0  0  0  0  0  0  0  0  0  0
    7.0921    1.8308    1.6597 C   0  0  0  0  0  0  0  0  0  0  0  0
    6.6369    2.0696    2.9721 C   0  0  0  0  0  0  0  0  0  0  0  0
    6.7488    1.0544    3.9270 C   0  0  0  0  0  0  0  0  0  0  0  0
    6.0784    1.1493    5.2421 C   0  0  0  0  0  0  0  0  0  0  0  0
    6.3310    0.1282    6.1450 N   0  0  0  0  0  0  0  0  0  0  0  0
    7.1050   -0.9954    5.9223 C   0  0  0  0  0  0  0  0  0  0  0  0
    9.1039   -1.7439    0.5900 C   0  0  0  0  0  0  0  0  0  0  0  0
    8.8805   -0.7203   -0.3168 N   0  0  0  0  0  0  0  0  0  0  0  0
    8.2088    0.4631   -0.0669 C   0  0  0  0  0  0  0  0  0  0  0  0
    5.7190    0.2571    7.4661 C   0  0  0  0  0  0  0  0  0  0  0  0
    6.6011    1.0731    8.4015 C   0  0  0  0  0  0  0  0  0  0  0  0
    7.3179   -1.7996    6.8041 O   0  0  0  0  0  0  0  0  0  0  0  0
    5.3052    2.0374    5.5331 O   0  0  0  0  0  0  0  0  0  0  0  0
    9.3666   -0.9269   -1.6796 C   0  0  0  0  0  0  0  0  0  0  0  0
    8.3076   -1.6018   -2.5410 C   0  0  0  0  0  0  0  0  0  0  0  0
    8.0478    1.2909   -0.9368 O   0  0  0  0  0  0  0  0  0  0  0  0
    9.6903   -2.7524    0.2622 O   0  0  0  0  0  0  0  0  0  0  0  0
    6.1189    3.3927    3.2618 C   0  0  0  0  0  0  0  0  0  0  0  0
    6.4523    4.2304    4.2959 C   0  0  0  0  0  0  0  0  0  0  0  0
    5.8396    5.4785    4.1777 C   0  0  0  0  0  0  0  0  0  0  0  0
    5.0282    5.6278    3.0683 C   0  0  0  0  0  0  0  0  0  0  0  0
    5.0495    4.1681    2.1358 S   0  0  0  0  0  0  0  0  0  0  0  0
    4.2764    6.7716    2.6805 C   0  0  0  0  0  0  0  0  0  0  0  0
    3.4220    6.9001    1.6009 C   0  0  0  0  0  0  0  0  0  0  0  0
    2.8207    8.1520    1.4713 C   0  0  0  0  0  0  0  0  0  0  0  0
    3.2134    9.0181    2.4612 C   0  0  0  0  0  0  0  0  0  0  0  0
    4.3414    8.2693    3.5480 S   0  0  0  0  0  0  0  0  0  0  0  0
    6.0280    6.4678    5.0610 F   0  0  0  0  0  0  0  0  0  0  0  0
    3.2056    5.8965    0.7402 F   0  0  0  0  0  0  0  0  0  0  0  0
    2.9082   10.4278    2.5893 C   0  0  0  0  0  0  0  0  0  0  0  0
    1.6298   10.9673    2.4048 C   0  0  0  0  0  0  0  0  0  0  0  0
    1.4677   12.3667    2.3465 C   0  0  0  0  0  0  0  0  0  0  0  0
    2.5660   13.2379    2.5492 C   0  0  0  0  0  0  0  0  0  0  0  0
    3.8212   12.6674    2.8481 C   0  0  0  0  0  0  0  0  0  0  0  0
    3.9784   11.3022    2.8546 C   0  0  0  0  0  0  0  0  0  0  0  0
    0.2059   12.9397    2.0805 C   0  0  0  0  0  0  0  0  0  0  0  0
    0.0780   14.3007    1.9355 C   0  0  0  0  0  0  0  0  0  0  0  0
    1.1783   15.1683    2.0615 C   0  0  0  0  0  0  0  0  0  0  0  0
    2.4140   14.6354    2.4457 C   0  0  0  0  0  0  0  0  0  0  0  0
    3.5311   15.5078    2.8682 C   0  0  0  0  0  0  0  0  0  0  0  0
    4.7379   14.8855    3.1499 N   0  0  0  0  0  0  0  0  0  0  0  0
    4.9902   13.5285    3.1102 C   0  0  0  0  0  0  0  0  0  0  0  0
    0.4241   10.1112    2.3953 C   0  0  0  0  0  0  0  0  0  0  0  0
   -0.7790   10.7295    2.0920 N   0  0  0  0  0  0  0  0  0  0  0  0
   -0.9829   12.0831    1.9071 C   0  0  0  0  0  0  0  0  0  0  0  0
    5.8552   15.7564    3.5095 C   0  0  0  0  0  0  0  0  0  0  0  0
    6.5816   16.2553    2.2676 C   0  0  0  0  0  0  0  0  0  0  0  0
    6.1016   13.0846    3.3013 O   0  0  0  0  0  0  0  0  0  0  0  0
    3.4186   16.7056    3.0198 O   0  0  0  0  0  0  0  0  0  0  0  0
   -1.9626    9.8733    2.0404 C   0  0  0  0  0  0  0  0  0  0  0  0
   -2.6192    9.7630    3.4099 C   0  0  0  0  0  0  0  0  0  0  0  0
   -2.0754   12.5271    1.6282 O   0  0  0  0  0  0  0  0  0  0  0  0
    0.4433    8.9303    2.6709 O   0  0  0  0  0  0  0  0  0  0  0  0
    0.9825   16.5616    1.7190 C   0  0  0  0  0  0  0  0  0  0  0  0
    1.7546   17.3382    0.8916 C   0  0  0  0  0  0  0  0  0  0  0  0
    1.1970   18.5998    0.6859 C   0  0  0  0  0  0  0  0  0  0  0  0
    0.0021   18.8241    1.3448 C   0  0  0  0  0  0  0  0  0  0  0  0
   -0.4463   17.4041    2.2299 S   0  0  0  0  0  0  0  0  0  0  0  0
   -0.7875   20.0075    1.3332 C   0  0  0  0  0  0  0  0  0  0  0  0
   -1.9421   20.2735    2.0453 C   0  0  0  0  0  0  0  0  0  0  0  0
   -2.4887   21.5400    1.8304 C   0  0  0  0  0  0  0  0  0  0  0  0
   -1.7541   22.2724    0.9330 C   0  0  0  0  0  0  0  0  0  0  0  0
   -0.3869   21.3761    0.3496 S   0  0  0  0  0  0  0  0  0  0  0  0
    1.7639   19.5260   -0.0988 F   0  0  0  0  0  0  0  0  0  0  0  0
   -2.4946   19.3729    2.8688 F   0  0  0  0  0  0  0  0  0  0  0  0
   -2.0474   23.5728    0.3625 C   0  0  0  0  0  0  0  0  0  0  0  0
   -2.4281   24.6911    1.1115 C   0  0  0  0  0  0  0  0  0  0  0  0
   -2.8300   25.8693    0.4485 C   0  0  0  0  0  0  0  0  0  0  0  0
   -2.7918   25.9634   -0.9645 C   0  0  0  0  0  0  0  0  0  0  0  0
   -2.3276   24.8467   -1.6907 C   0  0  0  0  0  0  0  0  0  0  0  0
   -1.9755   23.6900   -1.0374 C   0  0  0  0  0  0  0  0  0  0  0  0
   -3.2727   26.9945    1.1760 C   0  0  0  0  0  0  0  0  0  0  0  0
   -3.7153   28.1166    0.5178 C   0  0  0  0  0  0  0  0  0  0  0  0
   -3.7301   28.2018   -0.8872 C   0  0  0  0  0  0  0  0  0  0  0  0
   -3.2017   27.1384   -1.6290 C   0  0  0  0  0  0  0  0  0  0  0  0
   -2.9342   27.2622   -3.0788 C   0  0  0  0  0  0  0  0  0  0  0  0
   -2.5186   26.1151   -3.7390 N   0  0  0  0  0  0  0  0  0  0  0  0
   -2.2524   24.8895   -3.1631 C   0  0  0  0  0  0  0  0  0  0  0  0
   -2.2965   24.7122    2.5846 C   0  0  0  0  0  0  0  0  0  0  0  0
   -2.7917   25.8280    3.2408 N   0  0  0  0  0  0  0  0  0  0  0  0
   -3.2988   26.9696    2.6510 C   0  0  0  0  0  0  0  0  0  0  0  0
   -2.3508   26.2162   -5.1873 C   0  0  0  0  0  0  0  0  0  0  0  0
   -3.6681   25.9593   -5.9070 C   0  0  0  0  0  0  0  0  0  0  0  0
   -1.9558   23.9242   -3.8333 O   0  0  0  0  0  0  0  0  0  0  0  0
   -3.0187   28.3088   -3.6854 O   0  0  0  0  0  0  0  0  0  0  0  0
   -2.6984   25.8281    4.6996 C   0  0  0  0  0  0  0  0  0  0  0  0
   -1.3769   26.4259    5.1636 C   0  0  0  0  0  0  0  0  0  0  0  0
   -3.7264   27.8889    3.3146 O   0  0  0  0  0  0  0  0  0  0  0  0
   -1.7577   23.8292    3.2176 O   0  0  0  0  0  0  0  0  0  0  0  0
   -4.3313   29.3771   -1.4811 C   0  0  0  0  0  0  0  0  0  0  0  0
   -5.2261   29.4508   -2.5182 C   0  0  0  0  0  0  0  0  0  0  0  0
   -5.6499   30.7594   -2.7551 C   0  0  0  0  0  0  0  0  0  0  0  0
   -5.1002   31.7118   -1.9189 C   0  0  0  0  0  0  0  0  0  0  0  0
   -4.0411   30.9428   -0.7856 S   0  0  0  0  0  0  0  0  0  0  0  0
   -5.3152   33.1209   -1.9304 C   0  0  0  0  0  0  0  0  0  0  0  0
   -4.7722   34.0702   -1.0921 C   0  0  0  0  0  0  0  0  0  0  0  0
   -5.1756   35.3891   -1.3582 C   0  0  0  0  0  0  0  0  0  0  0  0
   -6.0350   35.4413   -2.4111 C   0  0  0  0  0  0  0  0  0  0  0  0
   -6.3583   33.8967   -3.0838 S   0  0  0  0  0  0  0  0  0  0  0  0
   -6.5322   31.0725   -3.7148 F   0  0  0  0  0  0  0  0  0  0  0  0
   -3.9255   33.7551   -0.1006 F   0  0  0  0  0  0  0  0  0  0  0  0
    9.3052   -3.4132    2.6530 H   0  0  0  0  0  0  0  0  0  0  0  0
    8.4362   -3.0694    4.9766 H   0  0  0  0  0  0  0  0  0  0  0  0
    6.9682    2.5938    0.9047 H   0  0  0  0  0  0  0  0  0  0  0  0
    5.5814   -0.7515    7.8584 H   0  0  0  0  0  0  0  0  0  0  0  0
    4.7520    0.7451    7.3331 H   0  0  0  0  0  0  0  0  0  0  0  0
    7.5706    0.5946    8.5179 H   0  0  0  0  0  0  0  0  0  0  0  0
    6.1280    1.1454    9.3765 H   0  0  0  0  0  0  0  0  0  0  0  0
    6.7413    2.0770    8.0078 H   0  0  0  0  0  0  0  0  0  0  0  0
   10.2596   -1.5506   -1.6157 H   0  0  0  0  0  0  0  0  0  0  0  0
    9.6195    0.0533   -2.0869 H   0  0  0  0  0  0  0  0  0  0  0  0
    8.0488   -2.5736   -2.1271 H   0  0  0  0  0  0  0  0  0  0  0  0
    8.6919   -1.7422   -3.5472 H   0  0  0  0  0  0  0  0  0  0  0  0
    7.4140   -0.9842   -2.5912 H   0  0  0  0  0  0  0  0  0  0  0  0
    7.1125    3.9716    5.1018 H   0  0  0  0  0  0  0  0  0  0  0  0
    2.1407    8.4001    0.6786 H   0  0  0  0  0  0  0  0  0  0  0  0
    4.9629   10.9000    3.0466 H   0  0  0  0  0  0  0  0  0  0  0  0
   -0.8949   14.7026    1.6910 H   0  0  0  0  0  0  0  0  0  0  0  0
    6.5309   15.1726    4.1360 H   0  0  0  0  0  0  0  0  0  0  0  0
    5.4476   16.5962    4.0747 H   0  0  0  0  0  0  0  0  0  0  0  0
    6.9665   15.4156    1.6937 H   0  0  0  0  0  0  0  0  0  0  0  0
    7.4141   16.8875    2.5624 H   0  0  0  0  0  0  0  0  0  0  0  0
    5.9069   16.8374    1.6442 H   0  0  0  0  0  0  0  0  0  0  0  0
   -1.6415    8.8897    1.6944 H   0  0  0  0  0  0  0  0  0  0  0  0
   -2.6521   10.3201    1.3222 H   0  0  0  0  0  0  0  0  0  0  0  0
   -1.9242    9.3300    4.1254 H   0  0  0  0  0  0  0  0  0  0  0  0
   -3.4952    9.1244    3.3434 H   0  0  0  0  0  0  0  0  0  0  0  0
   -2.9283   10.7454    3.7593 H   0  0  0  0  0  0  0  0  0  0  0  0
    2.6755   17.0194    0.4411 H   0  0  0  0  0  0  0  0  0  0  0  0
   -3.3837   21.8858    2.3119 H   0  0  0  0  0  0  0  0  0  0  0  0
   -1.6530   22.8454   -1.6293 H   0  0  0  0  0  0  0  0  0  0  0  0
   -4.0786   28.9466    1.1070 H   0  0  0  0  0  0  0  0  0  0  0  0
   -1.6075   25.4731   -5.4792 H   0  0  0  0  0  0  0  0  0  0  0  0
   -1.9862   27.2210   -5.4067 H   0  0  0  0  0  0  0  0  0  0  0  0
   -4.0428   24.9679   -5.6633 H   0  0  0  0  0  0  0  0  0  0  0  0
   -3.5150   26.0204   -6.9805 H   0  0  0  0  0  0  0  0  0  0  0  0
   -4.4072   26.7030   -5.6183 H   0  0  0  0  0  0  0  0  0  0  0  0
   -2.7840   24.7932    5.0341 H   0  0  0  0  0  0  0  0  0  0  0  0
   -3.5360   26.4176    5.0760 H   0  0  0  0  0  0  0  0  0  0  0  0
   -0.5446   25.8439    4.7751 H   0  0  0  0  0  0  0  0  0  0  0  0
   -1.3338   26.4159    6.2488 H   0  0  0  0  0  0  0  0  0  0  0  0
   -1.2875   27.4537    4.8196 H   0  0  0  0  0  0  0  0  0  0  0  0
   -5.5744   28.6086   -3.0854 H   0  0  0  0  0  0  0  0  0  0  0  0
   -4.8383   36.2367   -0.7918 H   0  0  0  0  0  0  0  0  0  0  0  0
   -6.5022   36.3066   -2.8358 H   0  0  0  0  0  0  0  0  0  0  0  0
  1  2  2  0  0  0  0
  1109  1  0  0  0  0
  2  3  1  0  0  0  0
  2 14  1  0  0  0  0
  3  4  2  0  0  0  0
  3  7  1  0  0  0  0
  4  5  1  0  0  0  0
  5  6  2  0  0  0  0
  6  1  1  0  0  0  0
  6110  1  0  0  0  0
  7  8  2  0  0  0  0
  8  9  1  0  0  0  0
  8111  1  0  0  0  0
  9 10  2  0  0  0  0
  9 25  1  0  0  0  0
 10  4  1  0  0  0  0
 10 11  1  0  0  0  0
 11 12  1  0  0  0  0
 11 20  2  0  0  0  0
 12 13  1  0  0  0  0
 12 17  1  0  0  0  0
 13  5  1  0  0  0  0
 13 19  2  0  0  0  0
 14 15  1  0  0  0  0
 14 24  2  0  0  0  0
 15 16  1  0  0  0  0
 15 21  1  0  0  0  0
 16  7  1  0  0  0  0
 16 23  2  0  0  0  0
 17 18  1  0  0  0  0
 17112  1  0  0  0  0
 17113  1  0  0  0  0
 18114  1  0  0  0  0
 18115  1  0  0  0  0
 18116  1  0  0  0  0
 21 22  1  0  0  0  0
 21117  1  0  0  0  0
 21118  1  0  0  0  0
 22119  1  0  0  0  0
 22120  1  0  0  0  0
 22121  1  0  0  0  0
 25 26  2  0  0  0  0
 26 27  1  0  0  0  0
 26122  1  0  0  0  0
 27 28  2  0  0  0  0
 27 35  1  0  0  0  0
 28 29  1  0  0  0  0
 28 30  1  0  0  0  0
 29 25  1  0  0  0  0
 30 31  2  0  0  0  0
 31 32  1  0  0  0  0
 31 36  1  0  0  0  0
 32 33  2  0  0  0  0
 32123  1  0  0  0  0
 33 34  1  0  0  0  0
 33 37  1  0  0  0  0
 34 30  1  0  0  0  0
 37 38  2  0  0  0  0
 38 39  1  0  0  0  0
 38 50  1  0  0  0  0
 39 40  2  0  0  0  0
 39 43  1  0  0  0  0
 40 41  1  0  0  0  0
 41 42  2  0  0  0  0
 42 37  1  0  0  0  0
 42124  1  0  0  0  0
 43 44  2  0  0  0  0
 44 45  1  0  0  0  0
 44125  1  0  0  0  0
 45 46  2  0  0  0  0
 45 61  1  0  0  0  0
 46 40  1  0  0  0  0
 46 47  1  0  0  0  0
 47 48  1  0  0  0  0
 47 56  2  0  0  0  0
 48 49  1  0  0  0  0
 48 53  1  0  0  0  0
 49 41  1  0  0  0  0
 49 55  2  0  0  0  0
 50 51  1  0  0  0  0
 50 60  2  0  0  0  0
 51 52  1  0  0  0  0
 51 57  1  0  0  0  0
 52 43  1  0  0  0  0
 52 59  2  0  0  0  0
 53 54  1  0  0  0  0
 53126  1  0  0  0  0
 53127  1  0  0  0  0
 54128  1  0  0  0  0
 54129  1  0  0  0  0
 54130  1  0  0  0  0
 57 58  1  0  0  0  0
 57131  1  0  0  0  0
 57132  1  0  0  0  0
 58133  1  0  0  0  0
 58134  1  0  0  0  0
 58135  1  0  0  0  0
 61 62  2  0  0  0  0
 62 63  1  0  0  0  0
 62136  1  0  0  0  0
 63 64  2  0  0  0  0
 63 71  1  0  0  0  0
 64 65  1  0  0  0  0
 64 66  1  0  0  0  0
 65 61  1  0  0  0  0
 66 67  2  0  0  0  0
 67 68  1  0  0  0  0
 67 72  1  0  0  0  0
 68 69  2  0  0  0  0
 68137  1  0  0  0  0
 69 70  1  0  0  0  0
 69 73  1  0  0  0  0
 70 66  1  0  0  0  0
 73 74  2  0  0  0  0
 74 75  1  0  0  0  0
 74 86  1  0  0  0  0
 75 76  2  0  0  0  0
 75 79  1  0  0  0  0
 76 77  1  0  0  0  0
 77 78  2  0  0  0  0
 78 73  1  0  0  0  0
 78138  1  0  0  0  0
 79 80  2  0  0  0  0
 80 81  1  0  0  0  0
 80139  1  0  0  0  0
 81 82  2  0  0  0  0
 81 97  1  0  0  0  0
 82 76  1  0  0  0  0
 82 83  1  0  0  0  0
 83 84  1  0  0  0  0
 83 92  2  0  0  0  0
 84 85  1  0  0  0  0
 84 89  1  0  0  0  0
 85 77  1  0  0  0  0
 85 91  2  0  0  0  0
 86 87  1  0  0  0  0
 86 96  2  0  0  0  0
 87 88  1  0  0  0  0
 87 93  1  0  0  0  0
 88 79  1  0  0  0  0
 88 95  2  0  0  0  0
 89 90  1  0  0  0  0
 89140  1  0  0  0  0
 89141  1  0  0  0  0
 90142  1  0  0  0  0
 90143  1  0  0  0  0
 90144  1  0  0  0  0
 93 94  1  0  0  0  0
 93145  1  0  0  0  0
 93146  1  0  0  0  0
 94147  1  0  0  0  0
 94148  1  0  0  0  0
 94149  1  0  0  0  0
 97 98  2  0  0  0  0
 98 99  1  0  0  0  0
 98150  1  0  0  0  0
 99100  2  0  0  0  0
 99107  1  0  0  0  0
100101  1  0  0  0  0
100102  1  0  0  0  0
101 97  1  0  0  0  0
102103  2  0  0  0  0
103104  1  0  0  0  0
103108  1  0  0  0  0
104105  2  0  0  0  0
104151  1  0  0  0  0
105106  1  0  0  0  0
105152  1  0  0  0  0
106102  1  0  0  0  0
M  END
