PD-dIDTC6.mol
  xtb     01102218293D
 energy: -252.825634129585 gnorm: 0.000168424968 xtb: 6.4.1 (unknown)
151165  0     0  0            999 V2000
    3.4572   -0.0443  -13.4573 O   0  0  0  0  0  0  0  0  0  0  0  0
    3.7099    0.8944  -14.1855 C   0  0  0  0  0  0  0  0  0  0  0  0
    3.2783    1.0121  -15.5973 C   0  0  0  0  0  0  0  0  0  0  0  0
    3.7613    2.2108  -16.1433 C   0  0  0  0  0  0  0  0  0  0  0  0
    3.4638    2.5391  -17.4567 C   0  0  0  0  0  0  0  0  0  0  0  0
    2.5103    0.1266  -16.3268 C   0  0  0  0  0  0  0  0  0  0  0  0
    2.2179    0.4607  -17.6390 C   0  0  0  0  0  0  0  0  0  0  0  0
    1.4740   -0.3667  -18.3847 F   0  0  0  0  0  0  0  0  0  0  0  0
    2.6888    1.6524  -18.1897 C   0  0  0  0  0  0  0  0  0  0  0  0
    2.3850    1.9540  -19.4578 F   0  0  0  0  0  0  0  0  0  0  0  0
    4.4494    2.1358  -13.8933 C   0  0  0  0  0  0  0  0  0  0  0  0
    4.5374    2.9086  -15.1180 C   0  0  0  0  0  0  0  0  0  0  0  0
    5.2562    4.0569  -15.3303 C   0  0  0  0  0  0  0  0  0  0  0  0
    6.0888    4.7032  -14.3917 C   0  0  0  0  0  0  0  0  0  0  0  0
    6.8023    5.2858  -13.7053 N   0  0  0  0  0  0  0  0  0  0  0  0
    5.2901    4.7498  -16.5591 C   0  0  0  0  0  0  0  0  0  0  0  0
    5.3564    5.3651  -17.5259 N   0  0  0  0  0  0  0  0  0  0  0  0
    4.8791    2.6052  -12.6727 C   0  0  0  0  0  0  0  0  0  0  0  0
    4.8823    2.0150  -11.4037 C   0  0  0  0  0  0  0  0  0  0  0  0
    4.6271    0.7155  -10.9629 C   0  0  0  0  0  0  0  0  0  0  0  0
    4.6924    0.6008   -9.5888 C   0  0  0  0  0  0  0  0  0  0  0  0
    5.0292    1.7993   -8.9527 C   0  0  0  0  0  0  0  0  0  0  0  0
    5.2669    3.0845  -10.0465 S   0  0  0  0  0  0  0  0  0  0  0  0
    5.0687    1.6286   -7.5383 C   0  0  0  0  0  0  0  0  0  0  0  0
    4.7463    0.2759   -7.2794 C   0  0  0  0  0  0  0  0  0  0  0  0
    4.4762   -0.4824   -8.5674 C   0  0  0  0  0  0  0  0  0  0  0  0
    3.0066   -0.9598   -8.5419 C   0  0  0  0  0  0  0  0  0  0  0  0
    2.5193   -1.6428   -9.8129 C   0  0  0  0  0  0  0  0  0  0  0  0
    5.4522   -1.6546   -8.7586 C   0  0  0  0  0  0  0  0  0  0  0  0
    6.9111   -1.2247   -8.6557 C   0  0  0  0  0  0  0  0  0  0  0  0
    4.6383   -0.1760   -5.9849 C   0  0  0  0  0  0  0  0  0  0  0  0
    5.3176    2.5441   -6.5152 C   0  0  0  0  0  0  0  0  0  0  0  0
    5.2157    2.0924   -5.2212 C   0  0  0  0  0  0  0  0  0  0  0  0
    5.3625    2.8667   -3.9234 C   0  0  0  0  0  0  0  0  0  0  0  0
    6.8455    3.1703   -3.6037 C   0  0  0  0  0  0  0  0  0  0  0  0
    7.5630    4.0644   -4.6058 C   0  0  0  0  0  0  0  0  0  0  0  0
    4.5037    4.1390   -3.9000 C   0  0  0  0  0  0  0  0  0  0  0  0
    3.0182    3.8434   -4.0726 C   0  0  0  0  0  0  0  0  0  0  0  0
    4.8533    0.7459   -4.9643 C   0  0  0  0  0  0  0  0  0  0  0  0
    4.6695    0.6292   -3.5534 C   0  0  0  0  0  0  0  0  0  0  0  0
    4.8884    1.8429   -2.9244 C   0  0  0  0  0  0  0  0  0  0  0  0
    4.5933    1.8109   -1.5634 C   0  0  0  0  0  0  0  0  0  0  0  0
    4.1397    0.5711   -1.1594 C   0  0  0  0  0  0  0  0  0  0  0  0
    3.6023    0.2307    0.1301 C   0  0  0  0  0  0  0  0  0  0  0  0
    3.4634    1.2375    1.0010 N   0  0  0  0  0  0  0  0  0  0  0  0
    2.8320    1.0238    2.1281 C   0  0  0  0  0  0  0  0  0  0  0  0
    2.2589   -0.2066    2.4892 C   0  0  0  0  0  0  0  0  0  0  0  0
    2.5016   -1.2803    1.6208 C   0  0  0  0  0  0  0  0  0  0  0  0
    3.1774   -1.0680    0.4437 C   0  0  0  0  0  0  0  0  0  0  0  0
    1.4064   -0.3470    3.6375 C   0  0  0  0  0  0  0  0  0  0  0  0
    0.8438    0.6544    4.4033 C   0  0  0  0  0  0  0  0  0  0  0  0
   -0.0514    0.1633    5.3547 C   0  0  0  0  0  0  0  0  0  0  0  0
   -0.1743   -1.2134    5.3108 C   0  0  0  0  0  0  0  0  0  0  0  0
    0.8299   -1.9309    4.1194 S   0  0  0  0  0  0  0  0  0  0  0  0
   -1.1891   -1.6667    6.2057 C   0  0  0  0  0  0  0  0  0  0  0  0
   -1.6514   -2.9531    6.4717 C   0  0  0  0  0  0  0  0  0  0  0  0
   -2.7054   -3.0807    7.3466 C   0  0  0  0  0  0  0  0  0  0  0  0
   -3.2314   -1.9345    7.9909 C   0  0  0  0  0  0  0  0  0  0  0  0
   -4.2781   -2.3715    8.8555 C   0  0  0  0  0  0  0  0  0  0  0  0
   -5.4061   -1.6313    9.9007 S   0  0  0  0  0  0  0  0  0  0  0  0
   -6.1020   -3.2076   10.2625 C   0  0  0  0  0  0  0  0  0  0  0  0
   -7.2041   -3.4694   11.0775 C   0  0  0  0  0  0  0  0  0  0  0  0
   -8.0372   -2.6176   11.7686 C   0  0  0  0  0  0  0  0  0  0  0  0
   -7.9173   -1.1607   11.8244 C   0  0  0  0  0  0  0  0  0  0  0  0
   -9.0573   -0.6904   12.6414 C   0  0  0  0  0  0  0  0  0  0  0  0
   -9.8142   -1.7960   13.0625 C   0  0  0  0  0  0  0  0  0  0  0  0
  -10.9430   -1.6005   13.8420 C   0  0  0  0  0  0  0  0  0  0  0  0
  -11.2847   -0.2987   14.1792 C   0  0  0  0  0  0  0  0  0  0  0  0
  -12.3730   -0.0896   14.9299 F   0  0  0  0  0  0  0  0  0  0  0  0
  -10.5260    0.7919   13.7562 C   0  0  0  0  0  0  0  0  0  0  0  0
  -10.8937    2.0318   14.1047 F   0  0  0  0  0  0  0  0  0  0  0  0
   -9.3953    0.6049   12.9771 C   0  0  0  0  0  0  0  0  0  0  0  0
   -7.0649   -0.4560   11.3147 O   0  0  0  0  0  0  0  0  0  0  0  0
   -9.1962   -3.0164   12.5377 C   0  0  0  0  0  0  0  0  0  0  0  0
   -9.6662   -4.2872   12.7527 C   0  0  0  0  0  0  0  0  0  0  0  0
  -10.8164   -4.5871   13.5129 C   0  0  0  0  0  0  0  0  0  0  0  0
  -11.7415   -4.9012   14.1155 N   0  0  0  0  0  0  0  0  0  0  0  0
   -9.0917   -5.4774   12.2601 C   0  0  0  0  0  0  0  0  0  0  0  0
   -8.6930   -6.4937   11.9016 N   0  0  0  0  0  0  0  0  0  0  0  0
   -5.4295   -4.2338    9.5743 C   0  0  0  0  0  0  0  0  0  0  0  0
   -4.4114   -3.7622    8.7815 C   0  0  0  0  0  0  0  0  0  0  0  0
   -3.4380   -4.3356    7.7840 C   0  0  0  0  0  0  0  0  0  0  0  0
   -4.2742   -4.9595    6.6419 C   0  0  0  0  0  0  0  0  0  0  0  0
   -3.4917   -5.4576    5.4344 C   0  0  0  0  0  0  0  0  0  0  0  0
   -2.4897   -5.3625    8.4217 C   0  0  0  0  0  0  0  0  0  0  0  0
   -1.7659   -4.8071    9.6429 C   0  0  0  0  0  0  0  0  0  0  0  0
   -2.7358   -0.6517    7.7569 C   0  0  0  0  0  0  0  0  0  0  0  0
   -1.7310   -0.5159    6.8288 C   0  0  0  0  0  0  0  0  0  0  0  0
   -1.0273    0.7448    6.3475 C   0  0  0  0  0  0  0  0  0  0  0  0
   -1.9671    1.6939    5.5736 C   0  0  0  0  0  0  0  0  0  0  0  0
   -3.0591    2.3737    6.3887 C   0  0  0  0  0  0  0  0  0  0  0  0
   -0.3208    1.4043    7.5476 C   0  0  0  0  0  0  0  0  0  0  0  0
    0.5223    2.6245    7.2019 C   0  0  0  0  0  0  0  0  0  0  0  0
    4.1113   -0.5816   -2.4732 S   0  0  0  0  0  0  0  0  0  0  0  0
    3.7995    3.4473  -17.9293 H   0  0  0  0  0  0  0  0  0  0  0  0
    2.1474   -0.7923  -15.8946 H   0  0  0  0  0  0  0  0  0  0  0  0
    5.2414    3.6266  -12.6667 H   0  0  0  0  0  0  0  0  0  0  0  0
    4.4101   -0.0802  -11.6494 H   0  0  0  0  0  0  0  0  0  0  0  0
    2.8938   -1.6474   -7.7010 H   0  0  0  0  0  0  0  0  0  0  0  0
    2.3757   -0.0894   -8.3420 H   0  0  0  0  0  0  0  0  0  0  0  0
    3.0940   -2.5396  -10.0261 H   0  0  0  0  0  0  0  0  0  0  0  0
    2.5792   -0.9765  -10.6681 H   0  0  0  0  0  0  0  0  0  0  0  0
    1.4789   -1.9338   -9.6849 H   0  0  0  0  0  0  0  0  0  0  0  0
    5.2413   -2.4114   -8.0005 H   0  0  0  0  0  0  0  0  0  0  0  0
    5.2807   -2.0966   -9.7403 H   0  0  0  0  0  0  0  0  0  0  0  0
    7.1214   -0.7961   -7.6781 H   0  0  0  0  0  0  0  0  0  0  0  0
    7.1481   -0.4819   -9.4143 H   0  0  0  0  0  0  0  0  0  0  0  0
    7.5632   -2.0822   -8.8026 H   0  0  0  0  0  0  0  0  0  0  0  0
    4.3704   -1.1951   -5.7507 H   0  0  0  0  0  0  0  0  0  0  0  0
    5.5434    3.5717   -6.7544 H   0  0  0  0  0  0  0  0  0  0  0  0
    6.8809    3.6344   -2.6156 H   0  0  0  0  0  0  0  0  0  0  0  0
    7.3770    2.2171   -3.5405 H   0  0  0  0  0  0  0  0  0  0  0  0
    7.6047    3.5954   -5.5851 H   0  0  0  0  0  0  0  0  0  0  0  0
    7.0753    5.0311   -4.6966 H   0  0  0  0  0  0  0  0  0  0  0  0
    8.5833    4.2336   -4.2690 H   0  0  0  0  0  0  0  0  0  0  0  0
    4.6645    4.6494   -2.9484 H   0  0  0  0  0  0  0  0  0  0  0  0
    4.8291    4.8041   -4.7004 H   0  0  0  0  0  0  0  0  0  0  0  0
    2.6510    3.2206   -3.2601 H   0  0  0  0  0  0  0  0  0  0  0  0
    2.8365    3.3251   -5.0118 H   0  0  0  0  0  0  0  0  0  0  0  0
    2.4509    4.7711   -4.0761 H   0  0  0  0  0  0  0  0  0  0  0  0
    4.6645    2.6336   -0.8767 H   0  0  0  0  0  0  0  0  0  0  0  0
    2.7610    1.8822    2.7825 H   0  0  0  0  0  0  0  0  0  0  0  0
    2.1286   -2.2638    1.8698 H   0  0  0  0  0  0  0  0  0  0  0  0
    3.3567   -1.8769   -0.2482 H   0  0  0  0  0  0  0  0  0  0  0  0
    1.0532    1.6953    4.2383 H   0  0  0  0  0  0  0  0  0  0  0  0
   -1.1824   -3.8018    5.9991 H   0  0  0  0  0  0  0  0  0  0  0  0
   -7.4382   -4.5252   11.1413 H   0  0  0  0  0  0  0  0  0  0  0  0
  -11.5643   -2.4069   14.1948 H   0  0  0  0  0  0  0  0  0  0  0  0
   -8.8054    1.4449   12.6467 H   0  0  0  0  0  0  0  0  0  0  0  0
   -5.7190   -5.2647    9.6778 H   0  0  0  0  0  0  0  0  0  0  0  0
   -4.9954   -4.2096    6.3062 H   0  0  0  0  0  0  0  0  0  0  0  0
   -4.8383   -5.7914    7.0695 H   0  0  0  0  0  0  0  0  0  0  0  0
   -2.7405   -6.1885    5.7209 H   0  0  0  0  0  0  0  0  0  0  0  0
   -3.0080   -4.6342    4.9167 H   0  0  0  0  0  0  0  0  0  0  0  0
   -4.1771   -5.9359    4.7381 H   0  0  0  0  0  0  0  0  0  0  0  0
   -3.0700   -6.2412    8.7102 H   0  0  0  0  0  0  0  0  0  0  0  0
   -1.7510   -5.6715    7.6816 H   0  0  0  0  0  0  0  0  0  0  0  0
   -2.4747   -4.5241   10.4177 H   0  0  0  0  0  0  0  0  0  0  0  0
   -1.1811   -3.9293    9.3761 H   0  0  0  0  0  0  0  0  0  0  0  0
   -1.0936   -5.5576   10.0517 H   0  0  0  0  0  0  0  0  0  0  0  0
   -3.1457    0.1846    8.3003 H   0  0  0  0  0  0  0  0  0  0  0  0
   -2.4342    1.1126    4.7738 H   0  0  0  0  0  0  0  0  0  0  0  0
   -1.3490    2.4581    5.0989 H   0  0  0  0  0  0  0  0  0  0  0  0
   -3.7714    1.6492    6.7718 H   0  0  0  0  0  0  0  0  0  0  0  0
   -3.6004    3.0682    5.7494 H   0  0  0  0  0  0  0  0  0  0  0  0
   -2.6442    2.9365    7.2203 H   0  0  0  0  0  0  0  0  0  0  0  0
   -1.0766    1.6801    8.2842 H   0  0  0  0  0  0  0  0  0  0  0  0
    0.3213    0.6483    8.0079 H   0  0  0  0  0  0  0  0  0  0  0  0
    1.3159    2.3622    6.5076 H   0  0  0  0  0  0  0  0  0  0  0  0
    0.9819    3.0155    8.1069 H   0  0  0  0  0  0  0  0  0  0  0  0
   -0.0827    3.4133    6.7631 H   0  0  0  0  0  0  0  0  0  0  0  0
  1  2  2  0  0  0  0
  2  3  1  0  0  0  0
  3  4  2  0  0  0  0
  4  5  1  0  0  0  0
  3  6  1  0  0  0  0
  6  7  2  0  0  0  0
  7  8  1  0  0  0  0
  7  9  1  0  0  0  0
  5  9  2  0  0  0  0
  9 10  1  0  0  0  0
  2 11  1  0  0  0  0
 11 12  1  0  0  0  0
  4 12  1  0  0  0  0
 12 13  2  0  0  0  0
 13 14  1  0  0  0  0
 14 15  3  0  0  0  0
 13 16  1  0  0  0  0
 16 17  3  0  0  0  0
 11 18  2  0  0  0  0
 18 19  1  0  0  0  0
 19 20  2  0  0  0  0
 20 21  1  0  0  0  0
 21 22  2  0  0  0  0
 22 23  1  0  0  0  0
 19 23  1  0  0  0  0
 22 24  1  0  0  0  0
 24 25  2  0  0  0  0
 25 26  1  0  0  0  0
 21 26  1  0  0  0  0
 26 27  1  0  0  0  0
 27 28  1  0  0  0  0
 26 29  1  0  0  0  0
 29 30  1  0  0  0  0
 25 31  1  0  0  0  0
 24 32  1  0  0  0  0
 32 33  2  0  0  0  0
 33 34  1  0  0  0  0
 34 35  1  0  0  0  0
 35 36  1  0  0  0  0
 34 37  1  0  0  0  0
 37 38  1  0  0  0  0
 33 39  1  0  0  0  0
 31 39  2  0  0  0  0
 39 40  1  0  0  0  0
 40 41  2  0  0  0  0
 34 41  1  0  0  0  0
 41 42  1  0  0  0  0
 42 43  2  0  0  0  0
 43 44  1  0  0  0  0
 44 45  2  0  0  0  0
 45 46  1  0  0  0  0
 46 47  2  0  0  0  0
 47 48  1  0  0  0  0
 48 49  2  0  0  0  0
 44 49  1  0  0  0  0
 47 50  1  0  0  0  0
 50 51  2  0  0  0  0
 51 52  1  0  0  0  0
 52 53  2  0  0  0  0
 53 54  1  0  0  0  0
 50 54  1  0  0  0  0
 53 55  1  0  0  0  0
 55 56  2  0  0  0  0
 56 57  1  0  0  0  0
 57 58  2  0  0  0  0
 58 59  1  0  0  0  0
 59 60  1  0  0  0  0
 60 61  1  0  0  0  0
 61 62  1  0  0  0  0
 62 63  2  0  0  0  0
 63 64  1  0  0  0  0
 64 65  1  0  0  0  0
 65 66  2  0  0  0  0
 66 67  1  0  0  0  0
 67 68  2  0  0  0  0
 68 69  1  0  0  0  0
 68 70  1  0  0  0  0
 70 71  1  0  0  0  0
 70 72  2  0  0  0  0
 65 72  1  0  0  0  0
 64 73  2  0  0  0  0
 63 74  1  0  0  0  0
 66 74  1  0  0  0  0
 74 75  2  0  0  0  0
 75 76  1  0  0  0  0
 76 77  3  0  0  0  0
 75 78  1  0  0  0  0
 78 79  3  0  0  0  0
 61 80  2  0  0  0  0
 59 81  2  0  0  0  0
 80 81  1  0  0  0  0
 81 82  1  0  0  0  0
 57 82  1  0  0  0  0
 82 83  1  0  0  0  0
 83 84  1  0  0  0  0
 82 85  1  0  0  0  0
 85 86  1  0  0  0  0
 58 87  1  0  0  0  0
 87 88  2  0  0  0  0
 55 88  1  0  0  0  0
 88 89  1  0  0  0  0
 52 89  1  0  0  0  0
 89 90  1  0  0  0  0
 90 91  1  0  0  0  0
 89 92  1  0  0  0  0
 92 93  1  0  0  0  0
 43 94  1  0  0  0  0
 40 94  1  0  0  0  0
  5 95  1  0  0  0  0
  6 96  1  0  0  0  0
 18 97  1  0  0  0  0
 20 98  1  0  0  0  0
 27 99  1  0  0  0  0
 27100  1  0  0  0  0
 28101  1  0  0  0  0
 28102  1  0  0  0  0
 28103  1  0  0  0  0
 29104  1  0  0  0  0
 29105  1  0  0  0  0
 30106  1  0  0  0  0
 30107  1  0  0  0  0
 30108  1  0  0  0  0
 31109  1  0  0  0  0
 32110  1  0  0  0  0
 35111  1  0  0  0  0
 35112  1  0  0  0  0
 36113  1  0  0  0  0
 36114  1  0  0  0  0
 36115  1  0  0  0  0
 37116  1  0  0  0  0
 37117  1  0  0  0  0
 38118  1  0  0  0  0
 38119  1  0  0  0  0
 38120  1  0  0  0  0
 42121  1  0  0  0  0
 46122  1  0  0  0  0
 48123  1  0  0  0  0
 49124  1  0  0  0  0
 51125  1  0  0  0  0
 56126  1  0  0  0  0
 62127  1  0  0  0  0
 67128  1  0  0  0  0
 72129  1  0  0  0  0
 80130  1  0  0  0  0
 83131  1  0  0  0  0
 83132  1  0  0  0  0
 84133  1  0  0  0  0
 84134  1  0  0  0  0
 84135  1  0  0  0  0
 85136  1  0  0  0  0
 85137  1  0  0  0  0
 86138  1  0  0  0  0
 86139  1  0  0  0  0
 86140  1  0  0  0  0
 87141  1  0  0  0  0
 90142  1  0  0  0  0
 90143  1  0  0  0  0
 91144  1  0  0  0  0
 91145  1  0  0  0  0
 91146  1  0  0  0  0
 92147  1  0  0  0  0
 92148  1  0  0  0  0
 93149  1  0  0  0  0
 93150  1  0  0  0  0
 93151  1  0  0  0  0
M  END
