PF2-DTGe.sdf
  xtb     12222116213D
 energy: -380.593763325438 gnorm: 0.000634673777 xtb: 6.4.1 (unknown)
236259  0     0  0            999 V2000
    3.4613   -1.2034    2.6290 C   0  0  0  0  0  0  0  0  0  0  0  0
    2.8720   -2.1957    3.4459 C   0  0  0  0  0  0  0  0  0  0  0  0
    2.5803   -3.4296    2.9053 C   0  0  0  0  0  0  0  0  0  0  0  0
    2.9418   -3.6506    1.5727 C   0  0  0  0  0  0  0  0  0  0  0  0
    3.6503   -2.6899    0.8069 C   0  0  0  0  0  0  0  0  0  0  0  0
    3.8899   -1.4428    1.3269 C   0  0  0  0  0  0  0  0  0  0  0  0
    2.6661   -4.7398    0.6897 C   0  0  0  0  0  0  0  0  0  0  0  0
    3.2125   -4.5046   -0.5753 C   0  0  0  0  0  0  0  0  0  0  0  0
    3.9750   -3.2070   -0.5818 C   0  0  0  0  0  0  0  0  0  0  0  0
    3.4090    0.0255    3.3429 C   0  0  0  0  0  0  0  0  0  0  0  0
    2.8482   -0.1583    4.6091 C   0  0  0  0  0  0  0  0  0  0  0  0
    2.6119   -1.6375    4.8421 C   0  0  0  0  0  0  0  0  0  0  0  0
    1.7570   -6.1819    0.7532 S   0  0  0  0  0  0  0  0  0  0  0  0
    2.0816   -6.4750   -0.9546 C   0  0  0  0  0  0  0  0  0  0  0  0
    2.9107   -5.4913   -1.4915 C   0  0  0  0  0  0  0  0  0  0  0  0
    3.6364    1.6483    2.8997 S   0  0  0  0  0  0  0  0  0  0  0  0
    2.9900    2.1563    4.4510 C   0  0  0  0  0  0  0  0  0  0  0  0
    2.6597    1.0488    5.2526 C   0  0  0  0  0  0  0  0  0  0  0  0
    3.4631   -2.2224   -1.6489 C   0  0  0  0  0  0  0  0  0  0  0  0
    5.4792   -3.5381   -0.7088 C   0  0  0  0  0  0  0  0  0  0  0  0
    6.4147   -2.3429   -0.5858 C   0  0  0  0  0  0  0  0  0  0  0  0
    3.8516   -2.5502   -3.0845 C   0  0  0  0  0  0  0  0  0  0  0  0
    1.1880   -1.9583    5.3182 C   0  0  0  0  0  0  0  0  0  0  0  0
    3.7117   -2.1469    5.8036 C   0  0  0  0  0  0  0  0  0  0  0  0
    0.8922   -1.6144    6.7731 C   0  0  0  0  0  0  0  0  0  0  0  0
    3.7483   -3.6589    5.9794 C   0  0  0  0  0  0  0  0  0  0  0  0
    2.7600    3.4878    4.8343 C   0  0  0  0  0  0  0  0  0  0  0  0
    1.3610   -7.4889   -1.6002 C   0  0  0  0  0  0  0  0  0  0  0  0
    1.4910   -7.9732   -2.8796 C   0  0  0  0  0  0  0  0  0  0  0  0
    2.7456    4.6221    4.0569 C   0  0  0  0  0  0  0  0  0  0  0  0
    2.8642    4.6388    2.5975 C   0  0  0  0  0  0  0  0  0  0  0  0
    2.3261    5.9357    2.1664 C   0  0  0  0  0  0  0  0  0  0  0  0
    2.0821    6.7478    3.2868 C   0  0  0  0  0  0  0  0  0  0  0  0
    2.3804    5.9654    4.4848 C   0  0  0  0  0  0  0  0  0  0  0  0
    2.6817   -7.9395   -3.7571 C   0  0  0  0  0  0  0  0  0  0  0  0
    2.4240   -8.9628   -4.7956 C   0  0  0  0  0  0  0  0  0  0  0  0
    1.1331   -9.4955   -4.6340 C   0  0  0  0  0  0  0  0  0  0  0  0
    0.4986   -8.8137   -3.5128 C   0  0  0  0  0  0  0  0  0  0  0  0
    2.0454    6.3343    0.8869 C   0  0  0  0  0  0  0  0  0  0  0  0
    1.4969    7.6064    0.6736 C   0  0  0  0  0  0  0  0  0  0  0  0
    1.3225    8.4493    1.7774 C   0  0  0  0  0  0  0  0  0  0  0  0
    1.6040    8.0355    3.0729 C   0  0  0  0  0  0  0  0  0  0  0  0
    3.2578   -9.3918   -5.8089 C   0  0  0  0  0  0  0  0  0  0  0  0
    2.7912  -10.3770   -6.6691 C   0  0  0  0  0  0  0  0  0  0  0  0
    1.5216  -10.9124   -6.5079 C   0  0  0  0  0  0  0  0  0  0  0  0
    0.6757  -10.4787   -5.4947 C   0  0  0  0  0  0  0  0  0  0  0  0
    3.3055    3.7796    1.8543 O   0  0  0  0  0  0  0  0  0  0  0  0
    3.6821   -7.2590   -3.6591 O   0  0  0  0  0  0  0  0  0  0  0  0
   -0.8421   -8.7948   -3.2221 C   0  0  0  0  0  0  0  0  0  0  0  0
    2.3459    6.4349    5.7724 C   0  0  0  0  0  0  0  0  0  0  0  0
    2.0071    7.7616    6.1072 C   0  0  0  0  0  0  0  0  0  0  0  0
    2.6659    5.6744    6.9155 C   0  0  0  0  0  0  0  0  0  0  0  0
   -1.8014   -9.5974   -3.8692 C   0  0  0  0  0  0  0  0  0  0  0  0
   -1.4088   -7.8675   -2.3237 C   0  0  0  0  0  0  0  0  0  0  0  0
    1.7377    8.8296    6.4311 N   0  0  0  0  0  0  0  0  0  0  0  0
    2.9200    5.1133    7.8849 N   0  0  0  0  0  0  0  0  0  0  0  0
   -1.9064   -7.0669   -1.6666 N   0  0  0  0  0  0  0  0  0  0  0  0
   -2.6160  -10.2400   -4.3605 N   0  0  0  0  0  0  0  0  0  0  0  0
    1.0984    7.9340   -0.6780 C   0  0  0  0  0  0  0  0  0  0  0  0
    1.0854    9.1109   -1.3925 C   0  0  0  0  0  0  0  0  0  0  0  0
    0.7168    8.9433   -2.7359 C   0  0  0  0  0  0  0  0  0  0  0  0
    0.4122    7.6223   -3.0147 C   0  0  0  0  0  0  0  0  0  0  0  0
    0.5903    6.5853   -1.6644 S   0  0  0  0  0  0  0  0  0  0  0  0
    0.6087    9.9323   -4.4563 Ge  0  0  0  0  0  4  0  0  0  0  0  0
    0.1888    8.2058   -5.3445 C   0  0  0  0  0  0  0  0  0  0  0  0
    0.1140    7.2494   -4.3462 C   0  0  0  0  0  0  0  0  0  0  0  0
    0.0008    7.6358   -6.6119 C   0  0  0  0  0  0  0  0  0  0  0  0
   -0.2383    6.2789   -6.5750 C   0  0  0  0  0  0  0  0  0  0  0  0
   -0.2366    5.6809   -4.9322 S   0  0  0  0  0  0  0  0  0  0  0  0
    2.3881   10.6618   -5.0250 C   0  0  0  0  0  0  0  0  0  0  0  0
   -0.9138   11.2377   -4.5483 C   0  0  0  0  0  0  0  0  0  0  0  0
   -1.1903   11.7068   -5.9681 C   0  0  0  0  0  0  0  0  0  0  0  0
    3.4968    9.6285   -4.9000 C   0  0  0  0  0  0  0  0  0  0  0  0
   -0.3888   -2.8292   -0.9767 C   0  0  0  0  0  0  0  0  0  0  0  0
   -0.2572   -1.4252   -1.1539 C   0  0  0  0  0  0  0  0  0  0  0  0
   -0.0283   -0.9246   -2.4144 C   0  0  0  0  0  0  0  0  0  0  0  0
   -0.0015   -1.8312   -3.4708 C   0  0  0  0  0  0  0  0  0  0  0  0
   -0.1860   -3.2207   -3.3025 C   0  0  0  0  0  0  0  0  0  0  0  0
   -0.3494   -3.7361   -2.0368 C   0  0  0  0  0  0  0  0  0  0  0  0
    0.0743   -1.5896   -4.8714 C   0  0  0  0  0  0  0  0  0  0  0  0
   -0.0856   -2.7633   -5.6015 C   0  0  0  0  0  0  0  0  0  0  0  0
   -0.2333   -3.9285   -4.6504 C   0  0  0  0  0  0  0  0  0  0  0  0
   -0.6467   -3.0490    0.4102 C   0  0  0  0  0  0  0  0  0  0  0  0
   -0.7414   -1.8363    1.0847 C   0  0  0  0  0  0  0  0  0  0  0  0
   -0.5153   -0.6798    0.1444 C   0  0  0  0  0  0  0  0  0  0  0  0
    0.1781   -0.1945   -5.8377 S   0  0  0  0  0  0  0  0  0  0  0  0
   -0.0282   -1.1700   -7.2804 C   0  0  0  0  0  0  0  0  0  0  0  0
   -0.1197   -2.5242   -6.9716 C   0  0  0  0  0  0  0  0  0  0  0  0
   -0.9178   -4.3879    1.4316 S   0  0  0  0  0  0  0  0  0  0  0  0
   -1.1893   -3.3074    2.7962 C   0  0  0  0  0  0  0  0  0  0  0  0
   -1.0588   -1.9737    2.4236 C   0  0  0  0  0  0  0  0  0  0  0  0
    0.9525   -4.9102   -4.7353 C   0  0  0  0  0  0  0  0  0  0  0  0
   -1.5802   -4.6479   -4.8408 C   0  0  0  0  0  0  0  0  0  0  0  0
   -2.7778   -3.7247   -4.6471 C   0  0  0  0  0  0  0  0  0  0  0  0
    1.0434   -5.7123   -6.0267 C   0  0  0  0  0  0  0  0  0  0  0  0
   -1.8596    0.0889    0.0837 C   0  0  0  0  0  0  0  0  0  0  0  0
    0.6551    0.1726    0.6845 C   0  0  0  0  0  0  0  0  0  0  0  0
   -1.9038    1.3538   -0.7613 C   0  0  0  0  0  0  0  0  0  0  0  0
    1.4591    0.9818   -0.3255 C   0  0  0  0  0  0  0  0  0  0  0  0
   -1.4126   -3.9000    4.0515 C   0  0  0  0  0  0  0  0  0  0  0  0
    0.0096   -0.5411   -8.5530 C   0  0  0  0  0  0  0  0  0  0  0  0
   -0.3253    0.7696   -8.7404 C   0  0  0  0  0  0  0  0  0  0  0  0
   -1.9079   -3.3479    5.2016 C   0  0  0  0  0  0  0  0  0  0  0  0
   -2.6818   -2.0954    5.3485 C   0  0  0  0  0  0  0  0  0  0  0  0
   -3.3898   -2.2338    6.6405 C   0  0  0  0  0  0  0  0  0  0  0  0
   -2.9602   -3.4042    7.2966 C   0  0  0  0  0  0  0  0  0  0  0  0
   -1.9664   -4.0564    6.4675 C   0  0  0  0  0  0  0  0  0  0  0  0
   -1.1377    1.5642   -7.7795 C   0  0  0  0  0  0  0  0  0  0  0  0
   -0.7925    2.9647   -8.0664 C   0  0  0  0  0  0  0  0  0  0  0  0
   -0.0951    3.0361   -9.2861 C   0  0  0  0  0  0  0  0  0  0  0  0
    0.0792    1.6797   -9.8014 C   0  0  0  0  0  0  0  0  0  0  0  0
   -4.3347   -1.3972    7.1819 C   0  0  0  0  0  0  0  0  0  0  0  0
   -4.9011   -1.7249    8.4254 C   0  0  0  0  0  0  0  0  0  0  0  0
   -4.4580   -2.8877    9.0765 C   0  0  0  0  0  0  0  0  0  0  0  0
   -3.4996   -3.7225    8.5361 C   0  0  0  0  0  0  0  0  0  0  0  0
   -0.9523    4.0470   -7.2434 C   0  0  0  0  0  0  0  0  0  0  0  0
   -0.3535    5.2651   -7.5976 C   0  0  0  0  0  0  0  0  0  0  0  0
    0.2428    5.3690   -8.8618 C   0  0  0  0  0  0  0  0  0  0  0  0
    0.3673    4.2776   -9.7091 C   0  0  0  0  0  0  0  0  0  0  0  0
   -2.7638   -1.1534    4.5875 O   0  0  0  0  0  0  0  0  0  0  0  0
   -1.9796    1.1590   -7.0088 O   0  0  0  0  0  0  0  0  0  0  0  0
    0.5858    1.3432  -11.0295 C   0  0  0  0  0  0  0  0  0  0  0  0
   -1.1155   -5.0661    6.8463 C   0  0  0  0  0  0  0  0  0  0  0  0
   -1.1826   -5.7236    8.0894 C   0  0  0  0  0  0  0  0  0  0  0  0
   -0.0155   -5.4745    6.0682 C   0  0  0  0  0  0  0  0  0  0  0  0
    0.9627    2.2932  -11.9996 C   0  0  0  0  0  0  0  0  0  0  0  0
    0.7509    0.0172  -11.4758 C   0  0  0  0  0  0  0  0  0  0  0  0
   -1.2001   -6.2917    9.0870 N   0  0  0  0  0  0  0  0  0  0  0  0
    0.9313   -5.7831    5.4933 N   0  0  0  0  0  0  0  0  0  0  0  0
    0.9059   -1.0472  -11.8779 N   0  0  0  0  0  0  0  0  0  0  0  0
    1.2793    3.0327  -12.8188 N   0  0  0  0  0  0  0  0  0  0  0  0
   -5.9171   -0.8949    9.0125 C   0  0  0  0  0  0  0  0  0  0  0  0
   -6.5276    0.2228    8.4795 C   0  0  0  0  0  0  0  0  0  0  0  0
   -7.4945    0.7864    9.3098 C   0  0  0  0  0  0  0  0  0  0  0  0
   -7.6265    0.0893   10.5022 C   0  0  0  0  0  0  0  0  0  0  0  0
   -6.5637   -1.2563   10.5979 S   0  0  0  0  0  0  0  0  0  0  0  0
   -8.7636    2.2970    9.3195 Ge  0  0  0  0  0  4  0  0  0  0  0  0
   -9.3214    1.6818   11.1071 C   0  0  0  0  0  0  0  0  0  0  0  0
   -8.5844    0.5594   11.4412 C   0  0  0  0  0  0  0  0  0  0  0  0
  -10.2284    2.0297   12.1219 C   0  0  0  0  0  0  0  0  0  0  0  0
  -10.1713    1.1863   13.1898 C   0  0  0  0  0  0  0  0  0  0  0  0
   -9.0052   -0.0641   12.9939 S   0  0  0  0  0  0  0  0  0  0  0  0
   -7.8591    4.0869    9.3364 C   0  0  0  0  0  0  0  0  0  0  0  0
  -10.1990    2.1216    7.9292 C   0  0  0  0  0  0  0  0  0  0  0  0
  -11.2923    3.1660    8.0906 C   0  0  0  0  0  0  0  0  0  0  0  0
   -7.1881    4.4084    8.0102 C   0  0  0  0  0  0  0  0  0  0  0  0
    2.0721   -4.2017    3.4632 H   0  0  0  0  0  0  0  0  0  0  0  0
    4.3501   -0.6485    0.7613 H   0  0  0  0  0  0  0  0  0  0  0  0
    3.2420   -5.5307   -2.5108 H   0  0  0  0  0  0  0  0  0  0  0  0
    2.2636    1.1849    6.2431 H   0  0  0  0  0  0  0  0  0  0  0  0
    3.8348   -1.2262   -1.4056 H   0  0  0  0  0  0  0  0  0  0  0  0
    2.3733   -2.1960   -1.5709 H   0  0  0  0  0  0  0  0  0  0  0  0
    5.6346   -4.0315   -1.6690 H   0  0  0  0  0  0  0  0  0  0  0  0
    5.7271   -4.2606    0.0733 H   0  0  0  0  0  0  0  0  0  0  0  0
    6.1861   -1.5800   -1.3248 H   0  0  0  0  0  0  0  0  0  0  0  0
    7.4398   -2.6705   -0.7439 H   0  0  0  0  0  0  0  0  0  0  0  0
    6.3510   -1.9010    0.4050 H   0  0  0  0  0  0  0  0  0  0  0  0
    4.9205   -2.4369   -3.2427 H   0  0  0  0  0  0  0  0  0  0  0  0
    3.3354   -1.8703   -3.7600 H   0  0  0  0  0  0  0  0  0  0  0  0
    3.5707   -3.5652   -3.3456 H   0  0  0  0  0  0  0  0  0  0  0  0
    1.0065   -3.0221    5.1631 H   0  0  0  0  0  0  0  0  0  0  0  0
    0.4952   -1.4115    4.6751 H   0  0  0  0  0  0  0  0  0  0  0  0
    3.5684   -1.6638    6.7709 H   0  0  0  0  0  0  0  0  0  0  0  0
    4.6769   -1.8135    5.4119 H   0  0  0  0  0  0  0  0  0  0  0  0
   -0.1706   -1.7469    6.9685 H   0  0  0  0  0  0  0  0  0  0  0  0
    1.1433   -0.5816    6.9946 H   0  0  0  0  0  0  0  0  0  0  0  0
    1.4412   -2.2605    7.4529 H   0  0  0  0  0  0  0  0  0  0  0  0
    2.7923   -4.0498    6.3151 H   0  0  0  0  0  0  0  0  0  0  0  0
    4.0081   -4.1507    5.0459 H   0  0  0  0  0  0  0  0  0  0  0  0
    4.5008   -3.9189    6.7206 H   0  0  0  0  0  0  0  0  0  0  0  0
    2.4701    3.5987    5.8732 H   0  0  0  0  0  0  0  0  0  0  0  0
    0.5705   -7.9254   -0.9983 H   0  0  0  0  0  0  0  0  0  0  0  0
    2.2425    5.6630    0.0648 H   0  0  0  0  0  0  0  0  0  0  0  0
    0.9187    9.4384    1.6203 H   0  0  0  0  0  0  0  0  0  0  0  0
    1.4212    8.7103    3.8938 H   0  0  0  0  0  0  0  0  0  0  0  0
    4.2427   -8.9643   -5.9192 H   0  0  0  0  0  0  0  0  0  0  0  0
    3.4218  -10.7313   -7.4705 H   0  0  0  0  0  0  0  0  0  0  0  0
    1.1802  -11.6827   -7.1828 H   0  0  0  0  0  0  0  0  0  0  0  0
   -0.3059  -10.9111   -5.3840 H   0  0  0  0  0  0  0  0  0  0  0  0
    1.3775   10.0545   -0.9646 H   0  0  0  0  0  0  0  0  0  0  0  0
    0.0329    8.1967   -7.5302 H   0  0  0  0  0  0  0  0  0  0  0  0
    2.3052   11.0010   -6.0573 H   0  0  0  0  0  0  0  0  0  0  0  0
    2.6139   11.5351   -4.4133 H   0  0  0  0  0  0  0  0  0  0  0  0
   -0.6786   12.0879   -3.9086 H   0  0  0  0  0  0  0  0  0  0  0  0
   -1.7974   10.7520   -4.1346 H   0  0  0  0  0  0  0  0  0  0  0  0
   -2.0324   12.3963   -5.9851 H   0  0  0  0  0  0  0  0  0  0  0  0
   -1.4275   10.8610   -6.6101 H   0  0  0  0  0  0  0  0  0  0  0  0
   -0.3233   12.2178   -6.3817 H   0  0  0  0  0  0  0  0  0  0  0  0
    3.5990    9.2986   -3.8678 H   0  0  0  0  0  0  0  0  0  0  0  0
    3.2786    8.7565   -5.5140 H   0  0  0  0  0  0  0  0  0  0  0  0
    4.4485   10.0465   -5.2228 H   0  0  0  0  0  0  0  0  0  0  0  0
    0.0947    0.1264   -2.6154 H   0  0  0  0  0  0  0  0  0  0  0  0
   -0.5063   -4.7890   -1.8549 H   0  0  0  0  0  0  0  0  0  0  0  0
   -0.2597   -3.2680   -7.7359 H   0  0  0  0  0  0  0  0  0  0  0  0
   -1.2036   -1.1633    3.1116 H   0  0  0  0  0  0  0  0  0  0  0  0
    0.8793   -5.5956   -3.8879 H   0  0  0  0  0  0  0  0  0  0  0  0
    1.8717   -4.3323   -4.6169 H   0  0  0  0  0  0  0  0  0  0  0  0
   -1.6160   -5.0668   -5.8471 H   0  0  0  0  0  0  0  0  0  0  0  0
   -1.6395   -5.4694   -4.1238 H   0  0  0  0  0  0  0  0  0  0  0  0
   -2.7461   -2.8943   -5.3491 H   0  0  0  0  0  0  0  0  0  0  0  0
   -2.7966   -3.3218   -3.6373 H   0  0  0  0  0  0  0  0  0  0  0  0
   -3.6992   -4.2777   -4.8116 H   0  0  0  0  0  0  0  0  0  0  0  0
    0.2034   -6.3943   -6.1337 H   0  0  0  0  0  0  0  0  0  0  0  0
    1.9570   -6.3035   -6.0204 H   0  0  0  0  0  0  0  0  0  0  0  0
    1.0750   -5.0541   -6.8902 H   0  0  0  0  0  0  0  0  0  0  0  0
   -2.6167   -0.6077   -0.2873 H   0  0  0  0  0  0  0  0  0  0  0  0
   -2.1289    0.3461    1.1108 H   0  0  0  0  0  0  0  0  0  0  0  0
    0.2484    0.8439    1.4440 H   0  0  0  0  0  0  0  0  0  0  0  0
    1.3472   -0.5065    1.1893 H   0  0  0  0  0  0  0  0  0  0  0  0
   -1.2177    2.1063   -0.3836 H   0  0  0  0  0  0  0  0  0  0  0  0
   -1.6741    1.1456   -1.8019 H   0  0  0  0  0  0  0  0  0  0  0  0
   -2.9092    1.7682   -0.7192 H   0  0  0  0  0  0  0  0  0  0  0  0
    1.9678    0.3255   -1.0259 H   0  0  0  0  0  0  0  0  0  0  0  0
    0.8370    1.6727   -0.8848 H   0  0  0  0  0  0  0  0  0  0  0  0
    2.2099    1.5623    0.2080 H   0  0  0  0  0  0  0  0  0  0  0  0
   -1.1809   -4.9595    4.0846 H   0  0  0  0  0  0  0  0  0  0  0  0
    0.3968   -1.1309   -9.3749 H   0  0  0  0  0  0  0  0  0  0  0  0
   -4.6252   -0.5084    6.6455 H   0  0  0  0  0  0  0  0  0  0  0  0
   -4.8904   -3.1391   10.0340 H   0  0  0  0  0  0  0  0  0  0  0  0
   -3.1962   -4.6097    9.0686 H   0  0  0  0  0  0  0  0  0  0  0  0
   -1.4780    3.9324   -6.3073 H   0  0  0  0  0  0  0  0  0  0  0  0
    0.6721    6.3133   -9.1612 H   0  0  0  0  0  0  0  0  0  0  0  0
    0.8700    4.3965  -10.6559 H   0  0  0  0  0  0  0  0  0  0  0  0
   -6.2887    0.6190    7.5084 H   0  0  0  0  0  0  0  0  0  0  0  0
  -10.8973    2.8709   12.0675 H   0  0  0  0  0  0  0  0  0  0  0  0
  -10.7481    1.2191   14.0935 H   0  0  0  0  0  0  0  0  0  0  0  0
   -8.6022    4.8466    9.5778 H   0  0  0  0  0  0  0  0  0  0  0  0
   -7.1230    4.0855   10.1399 H   0  0  0  0  0  0  0  0  0  0  0  0
  -10.6214    1.1199    8.0058 H   0  0  0  0  0  0  0  0  0  0  0  0
   -9.7388    2.2058    6.9450 H   0  0  0  0  0  0  0  0  0  0  0  0
  -11.7584    3.0823    9.0702 H   0  0  0  0  0  0  0  0  0  0  0  0
  -12.0627    3.0346    7.3328 H   0  0  0  0  0  0  0  0  0  0  0  0
  -10.8849    4.1703    7.9919 H   0  0  0  0  0  0  0  0  0  0  0  0
   -6.7008    5.3810    8.0533 H   0  0  0  0  0  0  0  0  0  0  0  0
   -6.4356    3.6596    7.7721 H   0  0  0  0  0  0  0  0  0  0  0  0
   -7.9173    4.4279    7.2026 H   0  0  0  0  0  0  0  0  0  0  0  0
  1  2  1  0  0  0  0
  2  3  2  0  0  0  0
  3  4  1  0  0  0  0
  4  5  2  0  0  0  0
  5  6  1  0  0  0  0
  6  1  2  0  0  0  0
  4  7  1  0  0  0  0
  7  8  2  0  0  0  0
  8  9  1  0  0  0  0
  9  5  1  0  0  0  0
  1 10  1  0  0  0  0
 10 11  2  0  0  0  0
 11 12  1  0  0  0  0
 12  2  1  0  0  0  0
  7 13  1  0  0  0  0
 13 14  1  0  0  0  0
 14 15  2  0  0  0  0
 15  8  1  0  0  0  0
 10 16  1  0  0  0  0
 16 17  1  0  0  0  0
 17 18  2  0  0  0  0
 18 11  1  0  0  0  0
  9 19  1  0  0  0  0
  9 20  1  0  0  0  0
 20 21  1  0  0  0  0
 19 22  1  0  0  0  0
 12 23  1  0  0  0  0
 12 24  1  0  0  0  0
 23 25  1  0  0  0  0
 24 26  1  0  0  0  0
 17 27  1  0  0  0  0
 14 28  1  0  0  0  0
 28 29  2  0  0  0  0
 27 30  2  0  0  0  0
 30 31  1  0  0  0  0
 31 32  1  0  0  0  0
 32 33  2  0  0  0  0
 33 34  1  0  0  0  0
 34 30  1  0  0  0  0
 29 35  1  0  0  0  0
 35 36  1  0  0  0  0
 36 37  2  0  0  0  0
 37 38  1  0  0  0  0
 38 29  1  0  0  0  0
 32 39  1  0  0  0  0
 39 40  2  0  0  0  0
 40 41  1  0  0  0  0
 41 42  2  0  0  0  0
 42 33  1  0  0  0  0
 36 43  1  0  0  0  0
 43 44  2  0  0  0  0
 44 45  1  0  0  0  0
 45 46  2  0  0  0  0
 46 37  1  0  0  0  0
 31 47  2  0  0  0  0
 35 48  2  0  0  0  0
 38 49  2  0  0  0  0
 34 50  2  0  0  0  0
 50 51  1  0  0  0  0
 50 52  1  0  0  0  0
 49 53  1  0  0  0  0
 49 54  1  0  0  0  0
 51 55  3  0  0  0  0
 52 56  3  0  0  0  0
 54 57  3  0  0  0  0
 53 58  3  0  0  0  0
 40 59  1  0  0  0  0
 59 60  2  0  0  0  0
 60 61  1  0  0  0  0
 61 62  2  0  0  0  0
 62 63  1  0  0  0  0
 63 59  1  0  0  0  0
 61 64  1  0  0  0  0
 64 65  1  0  0  0  0
 65 66  2  0  0  0  0
 66 62  1  0  0  0  0
 65 67  1  0  0  0  0
 67 68  2  0  0  0  0
 68 69  1  0  0  0  0
 69 66  1  0  0  0  0
 64 70  1  0  0  0  0
 64 71  1  0  0  0  0
 71 72  1  0  0  0  0
 70 73  1  0  0  0  0
 74 75  1  0  0  0  0
 75 76  2  0  0  0  0
 76 77  1  0  0  0  0
 77 78  2  0  0  0  0
 78 79  1  0  0  0  0
 79 74  2  0  0  0  0
 77 80  1  0  0  0  0
 80 81  2  0  0  0  0
 81 82  1  0  0  0  0
 82 78  1  0  0  0  0
 74 83  1  0  0  0  0
 83 84  2  0  0  0  0
 84 85  1  0  0  0  0
 85 75  1  0  0  0  0
 80 86  1  0  0  0  0
 86 87  1  0  0  0  0
 87 88  2  0  0  0  0
 88 81  1  0  0  0  0
 83 89  1  0  0  0  0
 89 90  1  0  0  0  0
 90 91  2  0  0  0  0
 91 84  1  0  0  0  0
 82 92  1  0  0  0  0
 82 93  1  0  0  0  0
 93 94  1  0  0  0  0
 92 95  1  0  0  0  0
 85 96  1  0  0  0  0
 85 97  1  0  0  0  0
 96 98  1  0  0  0  0
 97 99  1  0  0  0  0
 90100  1  0  0  0  0
 87101  1  0  0  0  0
101102  2  0  0  0  0
100103  2  0  0  0  0
103104  1  0  0  0  0
104105  1  0  0  0  0
105106  2  0  0  0  0
106107  1  0  0  0  0
107103  1  0  0  0  0
102108  1  0  0  0  0
108109  1  0  0  0  0
109110  2  0  0  0  0
110111  1  0  0  0  0
111102  1  0  0  0  0
105112  1  0  0  0  0
112113  2  0  0  0  0
113114  1  0  0  0  0
114115  2  0  0  0  0
115106  1  0  0  0  0
109116  1  0  0  0  0
116117  2  0  0  0  0
117118  1  0  0  0  0
118119  2  0  0  0  0
119110  1  0  0  0  0
104120  2  0  0  0  0
108121  2  0  0  0  0
111122  2  0  0  0  0
107123  2  0  0  0  0
123124  1  0  0  0  0
123125  1  0  0  0  0
122126  1  0  0  0  0
122127  1  0  0  0  0
124128  3  0  0  0  0
125129  3  0  0  0  0
127130  3  0  0  0  0
126131  3  0  0  0  0
113132  1  0  0  0  0
132133  2  0  0  0  0
133134  1  0  0  0  0
134135  2  0  0  0  0
135136  1  0  0  0  0
136132  1  0  0  0  0
134137  1  0  0  0  0
137138  1  0  0  0  0
138139  2  0  0  0  0
139135  1  0  0  0  0
138140  1  0  0  0  0
140141  2  0  0  0  0
141142  1  0  0  0  0
142139  1  0  0  0  0
137143  1  0  0  0  0
137144  1  0  0  0  0
144145  1  0  0  0  0
143146  1  0  0  0  0
 68117  1  0  0  0  0
  3147  1  0  0  0  0
  6148  1  0  0  0  0
 15149  1  0  0  0  0
 18150  1  0  0  0  0
 19151  1  0  0  0  0
 19152  1  0  0  0  0
 20153  1  0  0  0  0
 20154  1  0  0  0  0
 21155  1  0  0  0  0
 21156  1  0  0  0  0
 21157  1  0  0  0  0
 22158  1  0  0  0  0
 22159  1  0  0  0  0
 22160  1  0  0  0  0
 23161  1  0  0  0  0
 23162  1  0  0  0  0
 24163  1  0  0  0  0
 24164  1  0  0  0  0
 25165  1  0  0  0  0
 25166  1  0  0  0  0
 25167  1  0  0  0  0
 26168  1  0  0  0  0
 26169  1  0  0  0  0
 26170  1  0  0  0  0
 27171  1  0  0  0  0
 28172  1  0  0  0  0
 39173  1  0  0  0  0
 41174  1  0  0  0  0
 42175  1  0  0  0  0
 43176  1  0  0  0  0
 44177  1  0  0  0  0
 45178  1  0  0  0  0
 46179  1  0  0  0  0
 60180  1  0  0  0  0
 67181  1  0  0  0  0
 70182  1  0  0  0  0
 70183  1  0  0  0  0
 71184  1  0  0  0  0
 71185  1  0  0  0  0
 72186  1  0  0  0  0
 72187  1  0  0  0  0
 72188  1  0  0  0  0
 73189  1  0  0  0  0
 73190  1  0  0  0  0
 73191  1  0  0  0  0
 76192  1  0  0  0  0
 79193  1  0  0  0  0
 88194  1  0  0  0  0
 91195  1  0  0  0  0
 92196  1  0  0  0  0
 92197  1  0  0  0  0
 93198  1  0  0  0  0
 93199  1  0  0  0  0
 94200  1  0  0  0  0
 94201  1  0  0  0  0
 94202  1  0  0  0  0
 95203  1  0  0  0  0
 95204  1  0  0  0  0
 95205  1  0  0  0  0
 96206  1  0  0  0  0
 96207  1  0  0  0  0
 97208  1  0  0  0  0
 97209  1  0  0  0  0
 98210  1  0  0  0  0
 98211  1  0  0  0  0
 98212  1  0  0  0  0
 99213  1  0  0  0  0
 99214  1  0  0  0  0
 99215  1  0  0  0  0
100216  1  0  0  0  0
101217  1  0  0  0  0
112218  1  0  0  0  0
114219  1  0  0  0  0
115220  1  0  0  0  0
116221  1  0  0  0  0
118222  1  0  0  0  0
119223  1  0  0  0  0
133224  1  0  0  0  0
140225  1  0  0  0  0
141226  1  0  0  0  0
143227  1  0  0  0  0
143228  1  0  0  0  0
144229  1  0  0  0  0
144230  1  0  0  0  0
145231  1  0  0  0  0
145232  1  0  0  0  0
145233  1  0  0  0  0
146234  1  0  0  0  0
146235  1  0  0  0  0
146236  1  0  0  0  0
M  END
