SCF done       -160.730631882076          0.000667639962
 OpenBabel12282109493D

 93102  0  0  0  0  0  0  0  0999 V2000
    0.9454   -2.5743   -1.8617 C   0  0  0  0  0  0  0  0  0  0  0  0
    1.9066   -3.2361   -2.6202 C   0  0  0  0  0  0  0  0  0  0  0  0
    2.8989   -2.5825   -3.3390 C   0  0  0  0  0  0  0  0  0  0  0  0
    3.0180   -1.1961   -3.3588 C   0  0  0  0  0  0  0  0  0  0  0  0
    2.0645   -0.4792   -2.5839 C   0  0  0  0  0  0  0  0  0  0  0  0
    1.0349   -1.1545   -1.8417 C   0  0  0  0  0  0  0  0  0  0  0  0
    1.9929    0.8427   -2.4486 N   0  0  0  0  0  0  0  0  0  0  0  0
    0.7586    1.2033   -1.4858 S   0  0  0  0  0  0  0  0  0  0  0  0
    0.2523   -0.2932   -1.1932 N   0  0  0  0  0  0  0  0  0  0  0  0
    3.9946   -0.4439   -4.0796 C   0  0  0  0  0  0  0  0  0  0  0  0
    4.9748   -0.8944   -4.9105 C   0  0  0  0  0  0  0  0  0  0  0  0
    5.8415    0.0337   -5.5347 C   0  0  0  0  0  0  0  0  0  0  0  0
    5.2514   -2.2339   -5.2540 C   0  0  0  0  0  0  0  0  0  0  0  0
    6.5422    0.7866   -6.0410 N   0  0  0  0  0  0  0  0  0  0  0  0
    5.5249   -3.3017   -5.5746 N   0  0  0  0  0  0  0  0  0  0  0  0
   -6.6338  -12.6404    2.2679 C   0  0  0  0  0  0  0  0  0  0  0  0
   -6.0053  -13.8724    2.1141 C   0  0  0  0  0  0  0  0  0  0  0  0
   -6.6325  -15.0828    2.3790 C   0  0  0  0  0  0  0  0  0  0  0  0
   -7.9580  -15.1663    2.7897 C   0  0  0  0  0  0  0  0  0  0  0  0
   -8.6190  -13.9333    3.0189 C   0  0  0  0  0  0  0  0  0  0  0  0
   -7.9687  -12.6766    2.7596 C   0  0  0  0  0  0  0  0  0  0  0  0
   -9.8334  -13.7687    3.5356 N   0  0  0  0  0  0  0  0  0  0  0  0
  -10.1520  -12.2022    3.6421 S   0  0  0  0  0  0  0  0  0  0  0  0
   -8.7576  -11.6472    3.0661 N   0  0  0  0  0  0  0  0  0  0  0  0
   -8.5921  -16.4370    2.9769 C   0  0  0  0  0  0  0  0  0  0  0  0
   -9.9199  -16.7044    2.8686 C   0  0  0  0  0  0  0  0  0  0  0  0
  -10.3972  -18.0131    3.1165 C   0  0  0  0  0  0  0  0  0  0  0  0
  -10.9186  -15.8190    2.4026 C   0  0  0  0  0  0  0  0  0  0  0  0
  -10.7741  -19.0750    3.3278 N   0  0  0  0  0  0  0  0  0  0  0  0
  -11.7705  -15.2096    1.9345 N   0  0  0  0  0  0  0  0  0  0  0  0
   -0.0793   -3.2762   -1.1559 C   0  0  0  0  0  0  0  0  0  0  0  0
   -1.1048   -2.7609   -0.3909 C   0  0  0  0  0  0  0  0  0  0  0  0
   -1.9498   -3.7364    0.1350 C   0  0  0  0  0  0  0  0  0  0  0  0
   -1.5928   -5.0243   -0.2057 C   0  0  0  0  0  0  0  0  0  0  0  0
   -0.1716   -5.0160   -1.2014 S   0  0  0  0  0  0  0  0  0  0  0  0
   -2.2423   -6.2608    0.1519 C   0  0  0  0  0  0  0  0  0  0  0  0
   -1.5965   -7.4880   -0.0533 C   0  0  0  0  0  0  0  0  0  0  0  0
   -2.1955   -8.6854    0.2751 C   0  0  0  0  0  0  0  0  0  0  0  0
   -3.4721   -8.6609    0.8210 C   0  0  0  0  0  0  0  0  0  0  0  0
   -4.1363   -7.4330    1.0350 C   0  0  0  0  0  0  0  0  0  0  0  0
   -3.5349   -6.2473    0.7009 C   0  0  0  0  0  0  0  0  0  0  0  0
   -4.3648   -9.6956    1.2385 C   0  0  0  0  0  0  0  0  0  0  0  0
   -5.5672   -9.1610    1.6774 C   0  0  0  0  0  0  0  0  0  0  0  0
   -5.5295   -7.6559    1.6017 C   0  0  0  0  0  0  0  0  0  0  0  0
   -4.3404  -11.4065    1.3235 S   0  0  0  0  0  0  0  0  0  0  0  0
   -5.9786  -11.4085    1.9612 C   0  0  0  0  0  0  0  0  0  0  0  0
   -6.4797  -10.1254    2.0897 C   0  0  0  0  0  0  0  0  0  0  0  0
   -5.7291   -7.1080    3.0022 C   0  0  0  0  0  0  0  0  0  0  0  0
   -6.5282   -7.0692    0.6207 C   0  0  0  0  0  0  0  0  0  0  0  0
   -4.6678   -6.6841    3.7876 C   0  0  0  0  0  0  0  0  0  0  0  0
   -4.8896   -6.2266    5.0748 C   0  0  0  0  0  0  0  0  0  0  0  0
   -6.1683   -6.1941    5.6125 C   0  0  0  0  0  0  0  0  0  0  0  0
   -7.2262   -6.6327    4.8251 C   0  0  0  0  0  0  0  0  0  0  0  0
   -7.0115   -7.0863    3.5388 C   0  0  0  0  0  0  0  0  0  0  0  0
   -7.0387   -7.8280   -0.4229 C   0  0  0  0  0  0  0  0  0  0  0  0
   -7.9014   -7.2633   -1.3440 C   0  0  0  0  0  0  0  0  0  0  0  0
   -8.2668   -5.9270   -1.2552 C   0  0  0  0  0  0  0  0  0  0  0  0
   -7.7490   -5.1704   -0.2120 C   0  0  0  0  0  0  0  0  0  0  0  0
   -6.8886   -5.7308    0.7129 C   0  0  0  0  0  0  0  0  0  0  0  0
   -6.4128   -5.6532    6.9917 C   0  0  0  0  0  0  0  0  0  0  0  0
   -6.7417   -4.1602    6.9293 C   0  0  0  0  0  0  0  0  0  0  0  0
   -9.2362   -5.3290   -2.2332 C   0  0  0  0  0  0  0  0  0  0  0  0
  -10.6735   -5.5180   -1.7441 C   0  0  0  0  0  0  0  0  0  0  0  0
    1.8741   -4.3154   -2.6554 H   0  0  0  0  0  0  0  0  0  0  0  0
    3.5978   -3.1805   -3.9014 H   0  0  0  0  0  0  0  0  0  0  0  0
    3.9262    0.6284   -3.9395 H   0  0  0  0  0  0  0  0  0  0  0  0
   -4.9830  -13.8862    1.7653 H   0  0  0  0  0  0  0  0  0  0  0  0
   -6.0808  -15.9981    2.2203 H   0  0  0  0  0  0  0  0  0  0  0  0
   -7.9348  -17.2722    3.1912 H   0  0  0  0  0  0  0  0  0  0  0  0
   -1.2224   -1.7050   -0.2312 H   0  0  0  0  0  0  0  0  0  0  0  0
   -2.7914   -3.5034    0.7616 H   0  0  0  0  0  0  0  0  0  0  0  0
   -0.6031   -7.4869   -0.4778 H   0  0  0  0  0  0  0  0  0  0  0  0
   -1.6883   -9.6237    0.1097 H   0  0  0  0  0  0  0  0  0  0  0  0
   -4.0573   -5.3150    0.8437 H   0  0  0  0  0  0  0  0  0  0  0  0
   -7.4676   -9.9373    2.4656 H   0  0  0  0  0  0  0  0  0  0  0  0
   -3.6611   -6.7074    3.3965 H   0  0  0  0  0  0  0  0  0  0  0  0
   -4.0516   -5.8942    5.6710 H   0  0  0  0  0  0  0  0  0  0  0  0
   -8.2295   -6.6213    5.2263 H   0  0  0  0  0  0  0  0  0  0  0  0
   -7.8460   -7.4186    2.9388 H   0  0  0  0  0  0  0  0  0  0  0  0
   -6.7640   -8.8682   -0.5189 H   0  0  0  0  0  0  0  0  0  0  0  0
   -8.2923   -7.8706   -2.1479 H   0  0  0  0  0  0  0  0  0  0  0  0
   -8.0199   -4.1278   -0.1242 H   0  0  0  0  0  0  0  0  0  0  0  0
   -6.5031   -5.1259    1.5212 H   0  0  0  0  0  0  0  0  0  0  0  0
   -7.2459   -6.1853    7.4552 H   0  0  0  0  0  0  0  0  0  0  0  0
   -5.5258   -5.8008    7.6107 H   0  0  0  0  0  0  0  0  0  0  0  0
   -7.6311   -3.9935    6.3257 H   0  0  0  0  0  0  0  0  0  0  0  0
   -6.9207   -3.7677    7.9275 H   0  0  0  0  0  0  0  0  0  0  0  0
   -5.9168   -3.6096    6.4823 H   0  0  0  0  0  0  0  0  0  0  0  0
   -9.0333   -4.2627   -2.3512 H   0  0  0  0  0  0  0  0  0  0  0  0
   -9.1220   -5.8087   -3.2074 H   0  0  0  0  0  0  0  0  0  0  0  0
  -10.8113   -5.0351   -0.7792 H   0  0  0  0  0  0  0  0  0  0  0  0
  -11.3764   -5.0863   -2.4526 H   0  0  0  0  0  0  0  0  0  0  0  0
  -10.8986   -6.5762   -1.6319 H   0  0  0  0  0  0  0  0  0  0  0  0
  1  6  1  0  0  0  0
  1 31  1  0  0  0  0
  2  1  2  0  0  0  0
  3  2  1  0  0  0  0
  4  3  2  0  0  0  0
  4  5  1  0  0  0  0
  5  7  2  0  0  0  0
  5  6  1  0  0  0  0
  6  9  2  0  0  0  0
  7  8  1  0  0  0  0
  8  9  1  0  0  0  0
 10 66  1  0  0  0  0
 10  4  1  0  0  0  0
 11 10  2  0  0  0  0
 12 11  1  0  0  0  0
 13 11  1  0  0  0  0
 14 12  3  0  0  0  0
 15 13  3  0  0  0  0
 16 21  1  0  0  0  0
 17 16  2  0  0  0  0
 17 18  1  0  0  0  0
 18 19  2  0  0  0  0
 19 25  1  0  0  0  0
 19 20  1  0  0  0  0
 20 22  2  0  0  0  0
 21 20  1  0  0  0  0
 21 24  2  0  0  0  0
 22 23  1  0  0  0  0
 24 23  1  0  0  0  0
 25 69  1  0  0  0  0
 26 25  2  0  0  0  0
 26 27  1  0  0  0  0
 27 29  3  0  0  0  0
 28 26  1  0  0  0  0
 30 28  3  0  0  0  0
 31 32  2  0  0  0  0
 32 70  1  0  0  0  0
 32 33  1  0  0  0  0
 33 71  1  0  0  0  0
 34 33  2  0  0  0  0
 34 36  1  0  0  0  0
 35 31  1  0  0  0  0
 35 34  1  0  0  0  0
 36 41  1  0  0  0  0
 37 36  2  0  0  0  0
 37 38  1  0  0  0  0
 38 39  2  0  0  0  0
 39 40  1  0  0  0  0
 39 42  1  0  0  0  0
 40 44  1  0  0  0  0
 41 74  1  0  0  0  0
 41 40  2  0  0  0  0
 42 45  1  0  0  0  0
 42 43  2  0  0  0  0
 43 47  1  0  0  0  0
 44 43  1  0  0  0  0
 44 48  1  0  0  0  0
 45 46  1  0  0  0  0
 46 47  2  0  0  0  0
 46 16  1  0  0  0  0
 47 75  1  0  0  0  0
 48 54  2  0  0  0  0
 48 50  1  0  0  0  0
 49 59  1  0  0  0  0
 49 44  1  0  0  0  0
 50 51  2  0  0  0  0
 51 52  1  0  0  0  0
 51 77  1  0  0  0  0
 52 60  1  0  0  0  0
 53 78  1  0  0  0  0
 53 52  2  0  0  0  0
 54 53  1  0  0  0  0
 55 49  2  0  0  0  0
 56 57  2  0  0  0  0
 56 55  1  0  0  0  0
 57 58  1  0  0  0  0
 58 82  1  0  0  0  0
 58 59  2  0  0  0  0
 59 83  1  0  0  0  0
 60 84  1  0  0  0  0
 60 85  1  0  0  0  0
 61 60  1  0  0  0  0
 61 87  1  0  0  0  0
 62 63  1  0  0  0  0
 62 57  1  0  0  0  0
 63 93  1  0  0  0  0
 63 91  1  0  0  0  0
 64  2  1  0  0  0  0
 65  3  1  0  0  0  0
 67 17  1  0  0  0  0
 68 18  1  0  0  0  0
 72 37  1  0  0  0  0
 73 38  1  0  0  0  0
 76 50  1  0  0  0  0
 79 54  1  0  0  0  0
 80 55  1  0  0  0  0
 81 56  1  0  0  0  0
 86 61  1  0  0  0  0
 88 61  1  0  0  0  0
 89 62  1  0  0  0  0
 90 62  1  0  0  0  0
 92 63  1  0  0  0  0
M  END
