PT2IC-4Cl.mol
  xtb     01102218403D
 energy: -198.251378175878 gnorm: 0.000899781259 xtb: 6.4.1 (unknown)
101113  0     0  0            999 V2000
   13.9217    2.1242    5.4609 N   0  0  0  0  0  0  0  0  0  0  0  0
   12.8704    1.9837    5.0216 C   0  0  0  0  0  0  0  0  0  0  0  0
   11.5652    1.9062    4.4897 C   0  0  0  0  0  0  0  0  0  0  0  0
   11.0419    3.2087    4.3396 C   0  0  0  0  0  0  0  0  0  0  0  0
   10.7203    4.3071    4.2427 N   0  0  0  0  0  0  0  0  0  0  0  0
   10.9454    0.7310    4.1510 C   0  0  0  0  0  0  0  0  0  0  0  0
   11.5672   -0.5889    4.2449 C   0  0  0  0  0  0  0  0  0  0  0  0
   12.7873   -1.0019    4.7543 C   0  0  0  0  0  0  0  0  0  0  0  0
   13.1114   -2.3533    4.6956 C   0  0  0  0  0  0  0  0  0  0  0  0
   14.6200   -2.8747    5.3314 Cl  0  0  0  0  0  0  0  0  0  0  0  0
   12.2355   -3.2868    4.1323 C   0  0  0  0  0  0  0  0  0  0  0  0
   12.6713   -4.9471    4.0705 Cl  0  0  0  0  0  0  0  0  0  0  0  0
   11.0101   -2.8760    3.6239 C   0  0  0  0  0  0  0  0  0  0  0  0
   10.6915   -1.5354    3.6911 C   0  0  0  0  0  0  0  0  0  0  0  0
    9.4530   -0.8668    3.2382 C   0  0  0  0  0  0  0  0  0  0  0  0
    9.6136    0.5550    3.5957 C   0  0  0  0  0  0  0  0  0  0  0  0
    8.6920    1.5739    3.5214 C   0  0  0  0  0  0  0  0  0  0  0  0
    7.3729    1.6111    3.0507 C   0  0  0  0  0  0  0  0  0  0  0  0
    6.5233    3.1607    3.2503 S   0  0  0  0  0  0  0  0  0  0  0  0
    6.5706    0.6493    2.4464 C   0  0  0  0  0  0  0  0  0  0  0  0
    5.3069    1.1386    2.1634 C   0  0  0  0  0  0  0  0  0  0  0  0
    5.1143    2.4950    2.5383 C   0  0  0  0  0  0  0  0  0  0  0  0
    3.8099    2.8228    2.1845 C   0  0  0  0  0  0  0  0  0  0  0  0
    3.2296    1.6582    1.6170 C   0  0  0  0  0  0  0  0  0  0  0  0
    4.1503    0.6379    1.6182 N   0  0  0  0  0  0  0  0  0  0  0  0
    4.0654   -0.6323    0.9398 C   0  0  0  0  0  0  0  0  0  0  0  0
    4.0231   -0.4522   -0.5761 C   0  0  0  0  0  0  0  0  0  0  0  0
    1.9028    1.9038    1.2307 C   0  0  0  0  0  0  0  0  0  0  0  0
    1.5357    3.2364    1.4798 C   0  0  0  0  0  0  0  0  0  0  0  0
    2.7590    4.2093    2.2164 S   0  0  0  0  0  0  0  0  0  0  0  0
    0.2061    3.4029    1.0552 C   0  0  0  0  0  0  0  0  0  0  0  0
   -0.1886    2.1580    0.5138 C   0  0  0  0  0  0  0  0  0  0  0  0
    0.8354    1.2316    0.6572 N   0  0  0  0  0  0  0  0  0  0  0  0
    0.5635   -0.1645    0.9562 C   0  0  0  0  0  0  0  0  0  0  0  0
    0.6571   -0.4455    2.4557 C   0  0  0  0  0  0  0  0  0  0  0  0
   -1.4532    2.0286   -0.0938 C   0  0  0  0  0  0  0  0  0  0  0  0
   -2.4322    3.0388    0.1149 C   0  0  0  0  0  0  0  0  0  0  0  0
   -2.0845    4.2522    0.7532 C   0  0  0  0  0  0  0  0  0  0  0  0
   -2.8497    5.3064    0.9873 N   0  0  0  0  0  0  0  0  0  0  0  0
   -1.9421    6.4660    1.6575 S   0  0  0  0  0  0  0  0  0  0  0  0
   -0.5353    5.6698    1.6802 N   0  0  0  0  0  0  0  0  0  0  0  0
   -0.7218    4.4645    1.1667 C   0  0  0  0  0  0  0  0  0  0  0  0
   -3.6032    2.5791   -0.5071 C   0  0  0  0  0  0  0  0  0  0  0  0
   -3.2972    1.3510   -1.1145 C   0  0  0  0  0  0  0  0  0  0  0  0
   -1.9870    1.0203   -0.8697 N   0  0  0  0  0  0  0  0  0  0  0  0
   -1.2694    0.1382   -1.7681 C   0  0  0  0  0  0  0  0  0  0  0  0
   -1.2613    0.6903   -3.1927 C   0  0  0  0  0  0  0  0  0  0  0  0
   -4.3881    0.7961   -1.7839 C   0  0  0  0  0  0  0  0  0  0  0  0
   -5.5258    1.6158   -1.6654 C   0  0  0  0  0  0  0  0  0  0  0  0
   -5.2431    3.0768   -0.7366 S   0  0  0  0  0  0  0  0  0  0  0  0
   -6.6518    1.1161   -2.3015 C   0  0  0  0  0  0  0  0  0  0  0  0
   -7.9778    1.8011   -2.2526 C   0  0  0  0  0  0  0  0  0  0  0  0
   -8.8309    1.2514   -1.1057 C   0  0  0  0  0  0  0  0  0  0  0  0
   -4.7038   -0.6231   -2.7073 S   0  0  0  0  0  0  0  0  0  0  0  0
   -6.3836   -0.1195   -2.9228 C   0  0  0  0  0  0  0  0  0  0  0  0
   -7.3582   -0.8514   -3.6023 C   0  0  0  0  0  0  0  0  0  0  0  0
   -7.2915   -2.0618   -4.2550 C   0  0  0  0  0  0  0  0  0  0  0  0
   -8.4075   -2.7255   -4.8966 C   0  0  0  0  0  0  0  0  0  0  0  0
   -9.7182   -2.3211   -4.9293 C   0  0  0  0  0  0  0  0  0  0  0  0
  -10.7516   -3.0391   -5.5676 C   0  0  0  0  0  0  0  0  0  0  0  0
  -11.6393   -3.5688   -6.0667 N   0  0  0  0  0  0  0  0  0  0  0  0
  -10.2387   -1.1544   -4.3322 C   0  0  0  0  0  0  0  0  0  0  0  0
  -10.7447   -0.2283   -3.8771 N   0  0  0  0  0  0  0  0  0  0  0  0
   -7.8928   -3.9516   -5.5073 C   0  0  0  0  0  0  0  0  0  0  0  0
   -8.5158   -4.9421   -6.2475 C   0  0  0  0  0  0  0  0  0  0  0  0
   -7.7528   -6.0106   -6.7081 C   0  0  0  0  0  0  0  0  0  0  0  0
   -8.5182   -7.2431   -7.6277 Cl  0  0  0  0  0  0  0  0  0  0  0  0
   -6.3837   -6.0951   -6.4365 C   0  0  0  0  0  0  0  0  0  0  0  0
   -5.4719   -7.4278   -7.0216 Cl  0  0  0  0  0  0  0  0  0  0  0  0
   -5.7551   -5.1032   -5.6937 C   0  0  0  0  0  0  0  0  0  0  0  0
   -6.5164   -4.0468   -5.2395 C   0  0  0  0  0  0  0  0  0  0  0  0
   -6.0926   -2.8785   -4.4415 C   0  0  0  0  0  0  0  0  0  0  0  0
   -4.9636   -2.6569   -4.0385 O   0  0  0  0  0  0  0  0  0  0  0  0
    8.5236   -1.4273    2.6889 O   0  0  0  0  0  0  0  0  0  0  0  0
   13.4892   -0.3151    5.1972 H   0  0  0  0  0  0  0  0  0  0  0  0
   10.3226   -3.5839    3.1887 H   0  0  0  0  0  0  0  0  0  0  0  0
    9.0193    2.5275    3.9185 H   0  0  0  0  0  0  0  0  0  0  0  0
    6.9296   -0.3431    2.2476 H   0  0  0  0  0  0  0  0  0  0  0  0
    3.1833   -1.1761    1.2878 H   0  0  0  0  0  0  0  0  0  0  0  0
    4.9491   -1.2075    1.2217 H   0  0  0  0  0  0  0  0  0  0  0  0
    4.9309    0.0377   -0.9196 H   0  0  0  0  0  0  0  0  0  0  0  0
    3.1729    0.1608   -0.8676 H   0  0  0  0  0  0  0  0  0  0  0  0
    3.9447   -1.4196   -1.0644 H   0  0  0  0  0  0  0  0  0  0  0  0
   -0.4530   -0.3887    0.6342 H   0  0  0  0  0  0  0  0  0  0  0  0
    1.2568   -0.8027    0.4010 H   0  0  0  0  0  0  0  0  0  0  0  0
   -0.0573    0.1730    2.9946 H   0  0  0  0  0  0  0  0  0  0  0  0
    0.4247   -1.4900    2.6461 H   0  0  0  0  0  0  0  0  0  0  0  0
    1.6506   -0.2320    2.8413 H   0  0  0  0  0  0  0  0  0  0  0  0
   -0.2406    0.0413   -1.4267 H   0  0  0  0  0  0  0  0  0  0  0  0
   -1.7563   -0.8417   -1.7554 H   0  0  0  0  0  0  0  0  0  0  0  0
   -2.2706    0.7570   -3.5882 H   0  0  0  0  0  0  0  0  0  0  0  0
   -0.6856    0.0291   -3.8339 H   0  0  0  0  0  0  0  0  0  0  0  0
   -0.8094    1.6798   -3.2117 H   0  0  0  0  0  0  0  0  0  0  0  0
   -7.8047    2.8665   -2.0877 H   0  0  0  0  0  0  0  0  0  0  0  0
   -8.5172    1.6838   -3.1932 H   0  0  0  0  0  0  0  0  0  0  0  0
   -8.3239    1.3956   -0.1545 H   0  0  0  0  0  0  0  0  0  0  0  0
   -9.0223    0.1899   -1.2421 H   0  0  0  0  0  0  0  0  0  0  0  0
   -9.7844    1.7703   -1.0768 H   0  0  0  0  0  0  0  0  0  0  0  0
   -8.3276   -0.3724   -3.6025 H   0  0  0  0  0  0  0  0  0  0  0  0
   -9.5677   -4.9122   -6.4788 H   0  0  0  0  0  0  0  0  0  0  0  0
   -4.6999   -5.1556   -5.4773 H   0  0  0  0  0  0  0  0  0  0  0  0
  1  2  3  0  0  0  0
  2  3  1  0  0  0  0
  3  4  1  0  0  0  0
  4  5  3  0  0  0  0
  3  6  2  0  0  0  0
  6  7  1  0  0  0  0
  7  8  2  0  0  0  0
  8  9  1  0  0  0  0
  9 10  1  0  0  0  0
  9 11  2  0  0  0  0
 11 12  1  0  0  0  0
 11 13  1  0  0  0  0
 13 14  2  0  0  0  0
  7 14  1  0  0  0  0
 14 15  1  0  0  0  0
 15 16  1  0  0  0  0
  6 16  1  0  0  0  0
 16 17  2  0  0  0  0
 17 18  1  0  0  0  0
 18 19  1  0  0  0  0
 18 20  2  0  0  0  0
 20 21  1  0  0  0  0
 21 22  2  0  0  0  0
 19 22  1  0  0  0  0
 22 23  1  0  0  0  0
 23 24  2  0  0  0  0
 24 25  1  0  0  0  0
 21 25  1  0  0  0  0
 25 26  1  0  0  0  0
 26 27  1  0  0  0  0
 24 28  1  0  0  0  0
 28 29  2  0  0  0  0
 29 30  1  0  0  0  0
 23 30  1  0  0  0  0
 29 31  1  0  0  0  0
 31 32  2  0  0  0  0
 32 33  1  0  0  0  0
 28 33  1  0  0  0  0
 33 34  1  0  0  0  0
 34 35  1  0  0  0  0
 32 36  1  0  0  0  0
 36 37  2  0  0  0  0
 37 38  1  0  0  0  0
 38 39  2  0  0  0  0
 39 40  1  0  0  0  0
 40 41  1  0  0  0  0
 41 42  2  0  0  0  0
 38 42  1  0  0  0  0
 31 42  1  0  0  0  0
 37 43  1  0  0  0  0
 43 44  2  0  0  0  0
 44 45  1  0  0  0  0
 36 45  1  0  0  0  0
 45 46  1  0  0  0  0
 46 47  1  0  0  0  0
 44 48  1  0  0  0  0
 48 49  2  0  0  0  0
 49 50  1  0  0  0  0
 43 50  1  0  0  0  0
 49 51  1  0  0  0  0
 51 52  1  0  0  0  0
 52 53  1  0  0  0  0
 48 54  1  0  0  0  0
 54 55  1  0  0  0  0
 51 55  2  0  0  0  0
 55 56  1  0  0  0  0
 56 57  2  0  0  0  0
 57 58  1  0  0  0  0
 58 59  2  0  0  0  0
 59 60  1  0  0  0  0
 60 61  3  0  0  0  0
 59 62  1  0  0  0  0
 62 63  3  0  0  0  0
 58 64  1  0  0  0  0
 64 65  2  0  0  0  0
 65 66  1  0  0  0  0
 66 67  1  0  0  0  0
 66 68  2  0  0  0  0
 68 69  1  0  0  0  0
 68 70  1  0  0  0  0
 70 71  2  0  0  0  0
 64 71  1  0  0  0  0
 71 72  1  0  0  0  0
 57 72  1  0  0  0  0
 72 73  2  0  0  0  0
 15 74  2  0  0  0  0
  8 75  1  0  0  0  0
 13 76  1  0  0  0  0
 17 77  1  0  0  0  0
 20 78  1  0  0  0  0
 26 79  1  0  0  0  0
 26 80  1  0  0  0  0
 27 81  1  0  0  0  0
 27 82  1  0  0  0  0
 27 83  1  0  0  0  0
 34 84  1  0  0  0  0
 34 85  1  0  0  0  0
 35 86  1  0  0  0  0
 35 87  1  0  0  0  0
 35 88  1  0  0  0  0
 46 89  1  0  0  0  0
 46 90  1  0  0  0  0
 47 91  1  0  0  0  0
 47 92  1  0  0  0  0
 47 93  1  0  0  0  0
 52 94  1  0  0  0  0
 52 95  1  0  0  0  0
 53 96  1  0  0  0  0
 53 97  1  0  0  0  0
 53 98  1  0  0  0  0
 56 99  1  0  0  0  0
 65100  1  0  0  0  0
 70101  1  0  0  0  0
M  END
