PTB4F.sdf
  xtb     12222118473D
 energy: -201.072529218370 gnorm: 0.000831173142 xtb: 6.4.1 (unknown)
112120  0     0  0            999 V2000
    5.7035   -1.8890    5.7553 C   0  0  0  0  0  0  0  0  0  0  0  0
    5.8204   -2.4464    4.6853 O   0  0  0  0  0  0  0  0  0  0  0  0
    6.4334   -2.2203    6.9991 C   0  0  0  0  0  0  0  0  0  0  0  0
    7.2105   -3.3292    7.2643 C   0  0  0  0  0  0  0  0  0  0  0  0
    7.7799   -3.4277    8.5234 C   0  0  0  0  0  0  0  0  0  0  0  0
    7.5803   -2.4262    9.4733 C   0  0  0  0  0  0  0  0  0  0  0  0
    6.8067   -1.3073    9.2023 C   0  0  0  0  0  0  0  0  0  0  0  0
    6.2223   -1.2085    7.9491 C   0  0  0  0  0  0  0  0  0  0  0  0
    5.3327   -0.1975    7.3728 C   0  0  0  0  0  0  0  0  0  0  0  0
    4.9305    0.9507    8.0060 C   0  0  0  0  0  0  0  0  0  0  0  0
    5.3620    1.3370    9.2925 C   0  0  0  0  0  0  0  0  0  0  0  0
    5.6716    1.7087   10.3335 N   0  0  0  0  0  0  0  0  0  0  0  0
    4.0475    1.9145    7.4761 C   0  0  0  0  0  0  0  0  0  0  0  0
    3.3330    2.7423    7.1242 N   0  0  0  0  0  0  0  0  0  0  0  0
    4.9288   -0.6706    6.0665 C   0  0  0  0  0  0  0  0  0  0  0  0
    4.0280   -0.0624    5.2290 C   0  0  0  0  0  0  0  0  0  0  0  0
    3.3853   -0.6115    4.1035 C   0  0  0  0  0  0  0  0  0  0  0  0
    3.0638   -1.9318    3.7706 C   0  0  0  0  0  0  0  0  0  0  0  0
    2.4182   -2.0187    2.5365 C   0  0  0  0  0  0  0  0  0  0  0  0
    2.1967   -0.8015    1.9152 C   0  0  0  0  0  0  0  0  0  0  0  0
    2.7855    0.4957    2.8912 S   0  0  0  0  0  0  0  0  0  0  0  0
    0.0789   -0.1344   -1.7175 C   0  0  0  0  0  0  0  0  0  0  0  0
   -0.7524    0.0770   -2.8706 C   0  0  0  0  0  0  0  0  0  0  0  0
   -1.3788    1.2508   -3.2531 C   0  0  0  0  0  0  0  0  0  0  0  0
   -2.1804    1.1377   -4.3899 C   0  0  0  0  0  0  0  0  0  0  0  0
   -2.1454   -0.1518   -4.9319 C   0  0  0  0  0  0  0  0  0  0  0  0
   -1.1700   -1.2123   -3.9413 S   0  0  0  0  0  0  0  0  0  0  0  0
   -2.7867   -0.7123   -6.0518 C   0  0  0  0  0  0  0  0  0  0  0  0
   -3.2352   -0.0708   -7.1793 C   0  0  0  0  0  0  0  0  0  0  0  0
   -4.1486   -0.6135   -8.1611 C   0  0  0  0  0  0  0  0  0  0  0  0
   -4.7250   -1.8582   -8.1660 C   0  0  0  0  0  0  0  0  0  0  0  0
   -4.5155   -2.8645   -7.2000 C   0  0  0  0  0  0  0  0  0  0  0  0
   -4.4104   -3.7337   -6.4566 N   0  0  0  0  0  0  0  0  0  0  0  0
   -5.6196   -2.3116   -9.1583 C   0  0  0  0  0  0  0  0  0  0  0  0
   -6.3488   -2.7409   -9.9339 N   0  0  0  0  0  0  0  0  0  0  0  0
   -4.4173    0.4415   -9.1409 C   0  0  0  0  0  0  0  0  0  0  0  0
   -5.2825    0.4883  -10.2231 C   0  0  0  0  0  0  0  0  0  0  0  0
   -5.3513    1.6670  -10.9510 C   0  0  0  0  0  0  0  0  0  0  0  0
   -4.5763    2.7787  -10.6218 C   0  0  0  0  0  0  0  0  0  0  0  0
   -3.6986    2.7346   -9.5508 C   0  0  0  0  0  0  0  0  0  0  0  0
   -3.6373    1.5645   -8.8222 C   0  0  0  0  0  0  0  0  0  0  0  0
   -2.8065    1.2671   -7.6342 C   0  0  0  0  0  0  0  0  0  0  0  0
   -1.8934    1.9429   -7.2110 O   0  0  0  0  0  0  0  0  0  0  0  0
   -4.6855    3.9014  -11.3448 F   0  0  0  0  0  0  0  0  0  0  0  0
   -6.1893    1.7364  -11.9931 F   0  0  0  0  0  0  0  0  0  0  0  0
    0.4828    0.9363   -0.9141 C   0  0  0  0  0  0  0  0  0  0  0  0
    1.2082    0.7451    0.2465 C   0  0  0  0  0  0  0  0  0  0  0  0
    1.5334   -0.5688    0.6615 C   0  0  0  0  0  0  0  0  0  0  0  0
    1.1741   -1.6336   -0.1685 C   0  0  0  0  0  0  0  0  0  0  0  0
    0.4774   -1.4410   -1.3464 C   0  0  0  0  0  0  0  0  0  0  0  0
    0.1415   -2.4231   -2.2156 O   0  0  0  0  0  0  0  0  0  0  0  0
    0.2390   -3.7894   -1.8556 C   0  0  0  0  0  0  0  0  0  0  0  0
   -0.8308   -4.2041   -0.8525 C   0  0  0  0  0  0  0  0  0  0  0  0
    1.6373    1.7392    1.0538 O   0  0  0  0  0  0  0  0  0  0  0  0
    1.3281    3.0910    0.7650 C   0  0  0  0  0  0  0  0  0  0  0  0
    1.9397    3.9413    1.8664 C   0  0  0  0  0  0  0  0  0  0  0  0
    8.5246   -4.4974    8.8334 F   0  0  0  0  0  0  0  0  0  0  0  0
    8.1439   -2.5465   10.6818 F   0  0  0  0  0  0  0  0  0  0  0  0
   -3.0390    2.2154   -4.8724 C   0  0  0  0  0  0  0  0  0  0  0  0
    3.2771   -3.0808    4.6456 C   0  0  0  0  0  0  0  0  0  0  0  0
   -2.5291    3.4980   -5.0531 C   0  0  0  0  0  0  0  0  0  0  0  0
   -3.3231    4.4953   -5.5870 C   0  0  0  0  0  0  0  0  0  0  0  0
   -4.6402    4.2447   -5.9470 C   0  0  0  0  0  0  0  0  0  0  0  0
   -5.1579    2.9722   -5.7254 C   0  0  0  0  0  0  0  0  0  0  0  0
   -4.3722    1.9702   -5.1948 C   0  0  0  0  0  0  0  0  0  0  0  0
   -5.5060    5.3324   -6.5121 C   0  0  0  0  0  0  0  0  0  0  0  0
   -6.2513    6.0587   -5.3898 C   0  0  0  0  0  0  0  0  0  0  0  0
    3.8427   -4.2506    4.1461 C   0  0  0  0  0  0  0  0  0  0  0  0
    4.1331   -5.3024    4.9942 C   0  0  0  0  0  0  0  0  0  0  0  0
    3.8641   -5.2196    6.3536 C   0  0  0  0  0  0  0  0  0  0  0  0
    3.2558   -4.0667    6.8404 C   0  0  0  0  0  0  0  0  0  0  0  0
    2.9637   -3.0113    6.0014 C   0  0  0  0  0  0  0  0  0  0  0  0
    4.1740   -6.3653    7.2720 C   0  0  0  0  0  0  0  0  0  0  0  0
    2.9810   -7.3201    7.3580 C   0  0  0  0  0  0  0  0  0  0  0  0
    7.3614   -4.0983    6.5241 H   0  0  0  0  0  0  0  0  0  0  0  0
    6.6852   -0.5622    9.9713 H   0  0  0  0  0  0  0  0  0  0  0  0
    3.7650    0.9685    5.4338 H   0  0  0  0  0  0  0  0  0  0  0  0
    2.0855   -2.9598    2.1373 H   0  0  0  0  0  0  0  0  0  0  0  0
   -1.3037    2.1710   -2.7024 H   0  0  0  0  0  0  0  0  0  0  0  0
   -2.9265   -1.7852   -5.9941 H   0  0  0  0  0  0  0  0  0  0  0  0
   -5.9022   -0.3416  -10.5206 H   0  0  0  0  0  0  0  0  0  0  0  0
   -3.0948    3.5891   -9.2911 H   0  0  0  0  0  0  0  0  0  0  0  0
    0.2180    1.9343   -1.2177 H   0  0  0  0  0  0  0  0  0  0  0  0
    1.4654   -2.6272    0.1242 H   0  0  0  0  0  0  0  0  0  0  0  0
    1.2447   -4.0170   -1.4833 H   0  0  0  0  0  0  0  0  0  0  0  0
    0.0923   -4.3198   -2.7996 H   0  0  0  0  0  0  0  0  0  0  0  0
   -1.8164   -3.9969   -1.2613 H   0  0  0  0  0  0  0  0  0  0  0  0
   -0.7239   -3.6594    0.0828 H   0  0  0  0  0  0  0  0  0  0  0  0
   -0.7503   -5.2685   -0.6523 H   0  0  0  0  0  0  0  0  0  0  0  0
    0.2388    3.2265    0.7357 H   0  0  0  0  0  0  0  0  0  0  0  0
    1.7492    3.3684   -0.2105 H   0  0  0  0  0  0  0  0  0  0  0  0
    3.0149    3.7906    1.8970 H   0  0  0  0  0  0  0  0  0  0  0  0
    1.7308    4.9906    1.6814 H   0  0  0  0  0  0  0  0  0  0  0  0
    1.5255    3.6583    2.8297 H   0  0  0  0  0  0  0  0  0  0  0  0
   -1.4949    3.6961   -4.8179 H   0  0  0  0  0  0  0  0  0  0  0  0
   -2.9081    5.4811   -5.7414 H   0  0  0  0  0  0  0  0  0  0  0  0
   -6.1885    2.7657   -5.9785 H   0  0  0  0  0  0  0  0  0  0  0  0
   -4.7904    0.9880   -5.0241 H   0  0  0  0  0  0  0  0  0  0  0  0
   -6.2315    4.9043   -7.2072 H   0  0  0  0  0  0  0  0  0  0  0  0
   -4.8911    6.0503   -7.0583 H   0  0  0  0  0  0  0  0  0  0  0  0
   -6.8779    6.8476   -5.7986 H   0  0  0  0  0  0  0  0  0  0  0  0
   -5.5446    6.5021   -4.6917 H   0  0  0  0  0  0  0  0  0  0  0  0
   -6.8822    5.3625   -4.8414 H   0  0  0  0  0  0  0  0  0  0  0  0
    4.0988   -4.3118    3.0997 H   0  0  0  0  0  0  0  0  0  0  0  0
    4.5928   -6.1959    4.5965 H   0  0  0  0  0  0  0  0  0  0  0  0
    3.0164   -3.9953    7.8923 H   0  0  0  0  0  0  0  0  0  0  0  0
    2.4883   -2.1235    6.3944 H   0  0  0  0  0  0  0  0  0  0  0  0
    5.0446   -6.9111    6.9034 H   0  0  0  0  0  0  0  0  0  0  0  0
    4.4046   -5.9870    8.2702 H   0  0  0  0  0  0  0  0  0  0  0  0
    3.2023   -8.1438    8.0321 H   0  0  0  0  0  0  0  0  0  0  0  0
    2.1023   -6.7956    7.7265 H   0  0  0  0  0  0  0  0  0  0  0  0
    2.7499   -7.7266    6.3760 H   0  0  0  0  0  0  0  0  0  0  0  0
  1  2  2  0  0  0  0
  1  3  1  0  0  0  0
  3  4  2  0  0  0  0
  4  5  1  0  0  0  0
  5  6  2  0  0  0  0
  6  7  1  0  0  0  0
  7  8  2  0  0  0  0
  3  8  1  0  0  0  0
  8  9  1  0  0  0  0
  9 10  2  0  0  0  0
 10 11  1  0  0  0  0
 11 12  3  0  0  0  0
 10 13  1  0  0  0  0
 13 14  3  0  0  0  0
  9 15  1  0  0  0  0
  1 15  1  0  0  0  0
 15 16  2  0  0  0  0
 16 17  1  0  0  0  0
 17 18  2  0  0  0  0
 18 19  1  0  0  0  0
 19 20  2  0  0  0  0
 20 21  1  0  0  0  0
 17 21  1  0  0  0  0
 22 23  1  0  0  0  0
 23 24  2  0  0  0  0
 24 25  1  0  0  0  0
 25 26  2  0  0  0  0
 26 27  1  0  0  0  0
 23 27  1  0  0  0  0
 26 28  1  0  0  0  0
 28 29  2  0  0  0  0
 29 30  1  0  0  0  0
 30 31  2  0  0  0  0
 31 32  1  0  0  0  0
 32 33  3  0  0  0  0
 31 34  1  0  0  0  0
 34 35  3  0  0  0  0
 30 36  1  0  0  0  0
 36 37  2  0  0  0  0
 37 38  1  0  0  0  0
 38 39  2  0  0  0  0
 39 40  1  0  0  0  0
 40 41  2  0  0  0  0
 36 41  1  0  0  0  0
 41 42  1  0  0  0  0
 29 42  1  0  0  0  0
 42 43  2  0  0  0  0
 39 44  1  0  0  0  0
 38 45  1  0  0  0  0
 22 46  2  0  0  0  0
 46 47  1  0  0  0  0
 47 48  2  0  0  0  0
 48 49  1  0  0  0  0
 49 50  2  0  0  0  0
 50 22  1  0  0  0  0
 50 51  1  0  0  0  0
 51 52  1  0  0  0  0
 52 53  1  0  0  0  0
 47 54  1  0  0  0  0
 54 55  1  0  0  0  0
 55 56  1  0  0  0  0
 48 20  1  0  0  0  0
  5 57  1  0  0  0  0
  6 58  1  0  0  0  0
 25 59  1  0  0  0  0
 18 60  1  0  0  0  0
 59 61  2  0  0  0  0
 61 62  1  0  0  0  0
 62 63  2  0  0  0  0
 63 64  1  0  0  0  0
 64 65  2  0  0  0  0
 65 59  1  0  0  0  0
 63 66  1  0  0  0  0
 66 67  1  0  0  0  0
 60 68  2  0  0  0  0
 68 69  1  0  0  0  0
 69 70  2  0  0  0  0
 70 71  1  0  0  0  0
 71 72  2  0  0  0  0
 72 60  1  0  0  0  0
 70 73  1  0  0  0  0
 73 74  1  0  0  0  0
  4 75  1  0  0  0  0
  7 76  1  0  0  0  0
 16 77  1  0  0  0  0
 19 78  1  0  0  0  0
 24 79  1  0  0  0  0
 28 80  1  0  0  0  0
 37 81  1  0  0  0  0
 40 82  1  0  0  0  0
 46 83  1  0  0  0  0
 49 84  1  0  0  0  0
 52 85  1  0  0  0  0
 52 86  1  0  0  0  0
 53 87  1  0  0  0  0
 53 88  1  0  0  0  0
 53 89  1  0  0  0  0
 55 90  1  0  0  0  0
 55 91  1  0  0  0  0
 56 92  1  0  0  0  0
 56 93  1  0  0  0  0
 56 94  1  0  0  0  0
 61 95  1  0  0  0  0
 62 96  1  0  0  0  0
 64 97  1  0  0  0  0
 65 98  1  0  0  0  0
 66 99  1  0  0  0  0
 66100  1  0  0  0  0
 67101  1  0  0  0  0
 67102  1  0  0  0  0
 67103  1  0  0  0  0
 68104  1  0  0  0  0
 69105  1  0  0  0  0
 71106  1  0  0  0  0
 72107  1  0  0  0  0
 73108  1  0  0  0  0
 73109  1  0  0  0  0
 74110  1  0  0  0  0
 74111  1  0  0  0  0
 74112  1  0  0  0  0
M  END
