PTB4Cl.mol
  xtb     01102218413D
 energy: -200.384781767663 gnorm: 0.000381973592 xtb: 6.4.1 (unknown)
112120  0     0  0            999 V2000
   -3.6609    4.8056    1.1635 O   0  0  0  0  0  0  0  0  0  0  0  0
   -4.4889    5.2576    1.9334 C   0  0  0  0  0  0  0  0  0  0  0  0
   -4.7381    4.8731    3.3252 C   0  0  0  0  0  0  0  0  0  0  0  0
   -4.0340    3.9393    4.0504 C   0  0  0  0  0  0  0  0  0  0  0  0
   -2.9843    3.0970    3.6746 C   0  0  0  0  0  0  0  0  0  0  0  0
   -2.3509    2.2076    4.5663 C   0  0  0  0  0  0  0  0  0  0  0  0
   -1.4516    1.3557    3.9322 C   0  0  0  0  0  0  0  0  0  0  0  0
   -1.3453    1.5673    2.5684 C   0  0  0  0  0  0  0  0  0  0  0  0
   -0.5356    0.8779    1.5968 C   0  0  0  0  0  0  0  0  0  0  0  0
    0.3085   -0.2173    1.9112 C   0  0  0  0  0  0  0  0  0  0  0  0
    0.3723   -0.6098    3.2072 O   0  0  0  0  0  0  0  0  0  0  0  0
    1.1964   -1.6994    3.5793 C   0  0  0  0  0  0  0  0  0  0  0  0
    1.0590   -1.8770    5.0839 C   0  0  0  0  0  0  0  0  0  0  0  0
    1.0123   -0.8407    0.8955 C   0  0  0  0  0  0  0  0  0  0  0  0
    0.9329   -0.4343   -0.4398 C   0  0  0  0  0  0  0  0  0  0  0  0
    1.6300   -1.1392   -1.4808 C   0  0  0  0  0  0  0  0  0  0  0  0
    2.5348   -2.1811   -1.3210 C   0  0  0  0  0  0  0  0  0  0  0  0
    2.9921   -2.7159   -2.5170 C   0  0  0  0  0  0  0  0  0  0  0  0
    3.9285   -3.8356   -2.5937 C   0  0  0  0  0  0  0  0  0  0  0  0
    5.1024   -3.8163   -1.8437 C   0  0  0  0  0  0  0  0  0  0  0  0
    6.0092   -4.8530   -1.9369 C   0  0  0  0  0  0  0  0  0  0  0  0
    5.7688   -5.9400   -2.7686 C   0  0  0  0  0  0  0  0  0  0  0  0
    4.5813   -5.9738   -3.4891 C   0  0  0  0  0  0  0  0  0  0  0  0
    3.6725   -4.9385   -3.4072 C   0  0  0  0  0  0  0  0  0  0  0  0
    6.7441   -7.0767   -2.8509 C   0  0  0  0  0  0  0  0  0  0  0  0
    6.3906   -8.1643   -1.8338 C   0  0  0  0  0  0  0  0  0  0  0  0
    2.4406   -2.0669   -3.6425 C   0  0  0  0  0  0  0  0  0  0  0  0
    2.8455   -2.3544   -4.9489 C   0  0  0  0  0  0  0  0  0  0  0  0
    2.3841   -1.8830   -6.1567 C   0  0  0  0  0  0  0  0  0  0  0  0
    2.9149   -2.2565   -7.4511 C   0  0  0  0  0  0  0  0  0  0  0  0
    2.0922   -1.5993   -8.4681 C   0  0  0  0  0  0  0  0  0  0  0  0
    1.0988   -0.8426   -7.8245 C   0  0  0  0  0  0  0  0  0  0  0  0
    1.2474   -0.9819   -6.3599 C   0  0  0  0  0  0  0  0  0  0  0  0
    0.5450   -0.4507   -5.5194 O   0  0  0  0  0  0  0  0  0  0  0  0
    0.1679   -0.1082   -8.5285 C   0  0  0  0  0  0  0  0  0  0  0  0
    0.2276   -0.1285   -9.9166 C   0  0  0  0  0  0  0  0  0  0  0  0
   -0.9125    0.7736  -10.8317 Cl  0  0  0  0  0  0  0  0  0  0  0  0
    1.2110   -0.8794  -10.5674 C   0  0  0  0  0  0  0  0  0  0  0  0
    1.2735   -0.8985  -12.2842 Cl  0  0  0  0  0  0  0  0  0  0  0  0
    2.1479   -1.6180   -9.8516 C   0  0  0  0  0  0  0  0  0  0  0  0
    3.9905   -3.0662   -7.7160 C   0  0  0  0  0  0  0  0  0  0  0  0
    4.8098   -3.7104   -6.7650 C   0  0  0  0  0  0  0  0  0  0  0  0
    5.5352   -4.2772   -6.0769 N   0  0  0  0  0  0  0  0  0  0  0  0
    4.4419   -3.3764   -9.0164 C   0  0  0  0  0  0  0  0  0  0  0  0
    4.8633   -3.6736  -10.0423 N   0  0  0  0  0  0  0  0  0  0  0  0
    1.3406   -0.8028   -3.1496 S   0  0  0  0  0  0  0  0  0  0  0  0
    0.1134    0.6781   -0.7475 C   0  0  0  0  0  0  0  0  0  0  0  0
    0.0929    1.0595   -2.0384 O   0  0  0  0  0  0  0  0  0  0  0  0
   -0.7479    2.1174   -2.4680 C   0  0  0  0  0  0  0  0  0  0  0  0
   -0.4824    2.3275   -3.9497 C   0  0  0  0  0  0  0  0  0  0  0  0
   -0.5970    1.2956    0.2632 C   0  0  0  0  0  0  0  0  0  0  0  0
   -2.3772    2.8668    2.0561 S   0  0  0  0  0  0  0  0  0  0  0  0
   -2.6033    2.1703    6.0041 C   0  0  0  0  0  0  0  0  0  0  0  0
   -2.6173    3.3332    6.7732 C   0  0  0  0  0  0  0  0  0  0  0  0
   -2.8797    3.2736    8.1268 C   0  0  0  0  0  0  0  0  0  0  0  0
   -3.1373    2.0596    8.7515 C   0  0  0  0  0  0  0  0  0  0  0  0
   -3.4000    1.9994   10.2269 C   0  0  0  0  0  0  0  0  0  0  0  0
   -2.0862    1.8589   10.9993 C   0  0  0  0  0  0  0  0  0  0  0  0
   -3.0954    0.8985    7.9884 C   0  0  0  0  0  0  0  0  0  0  0  0
   -2.8270    0.9480    6.6358 C   0  0  0  0  0  0  0  0  0  0  0  0
   -5.4613    6.3286    1.6297 C   0  0  0  0  0  0  0  0  0  0  0  0
   -6.2600    6.5676    2.7606 C   0  0  0  0  0  0  0  0  0  0  0  0
   -5.8359    5.6683    3.8348 C   0  0  0  0  0  0  0  0  0  0  0  0
   -6.4052    5.6126    5.0819 C   0  0  0  0  0  0  0  0  0  0  0  0
   -6.0298    4.7542    6.1368 C   0  0  0  0  0  0  0  0  0  0  0  0
   -5.8032    4.1027    7.0560 N   0  0  0  0  0  0  0  0  0  0  0  0
   -7.4797    6.4288    5.4950 C   0  0  0  0  0  0  0  0  0  0  0  0
   -8.3490    7.0596    5.9006 N   0  0  0  0  0  0  0  0  0  0  0  0
   -7.2493    7.5350    2.7060 C   0  0  0  0  0  0  0  0  0  0  0  0
   -7.4225    8.2467    1.5232 C   0  0  0  0  0  0  0  0  0  0  0  0
   -8.6476    9.4488    1.4485 Cl  0  0  0  0  0  0  0  0  0  0  0  0
   -6.6217    8.0008    0.4038 C   0  0  0  0  0  0  0  0  0  0  0  0
   -6.8633    8.8985   -1.0406 Cl  0  0  0  0  0  0  0  0  0  0  0  0
   -5.6285    7.0304    0.4544 C   0  0  0  0  0  0  0  0  0  0  0  0
   -4.3320    3.8121    5.0842 H   0  0  0  0  0  0  0  0  0  0  0  0
   -0.8781    0.6199    4.4612 H   0  0  0  0  0  0  0  0  0  0  0  0
    0.8746   -2.6117    3.0593 H   0  0  0  0  0  0  0  0  0  0  0  0
    2.2420   -1.4893    3.3170 H   0  0  0  0  0  0  0  0  0  0  0  0
    1.3724   -0.9714    5.5966 H   0  0  0  0  0  0  0  0  0  0  0  0
    1.6784   -2.7052    5.4153 H   0  0  0  0  0  0  0  0  0  0  0  0
    0.0237   -2.0829    5.3421 H   0  0  0  0  0  0  0  0  0  0  0  0
    1.6344   -1.6872    1.1283 H   0  0  0  0  0  0  0  0  0  0  0  0
    2.8510   -2.5630   -0.3669 H   0  0  0  0  0  0  0  0  0  0  0  0
    5.3141   -2.9651   -1.2126 H   0  0  0  0  0  0  0  0  0  0  0  0
    6.9251   -4.8130   -1.3643 H   0  0  0  0  0  0  0  0  0  0  0  0
    4.3717   -6.8169   -4.1308 H   0  0  0  0  0  0  0  0  0  0  0  0
    2.7449   -4.9895   -3.9599 H   0  0  0  0  0  0  0  0  0  0  0  0
    6.7254   -7.5022   -3.8556 H   0  0  0  0  0  0  0  0  0  0  0  0
    7.7537   -6.7125   -2.6522 H   0  0  0  0  0  0  0  0  0  0  0  0
    5.3907   -8.5493   -2.0218 H   0  0  0  0  0  0  0  0  0  0  0  0
    7.0973   -8.9882   -1.8980 H   0  0  0  0  0  0  0  0  0  0  0  0
    6.4174   -7.7621   -0.8232 H   0  0  0  0  0  0  0  0  0  0  0  0
    3.6573   -3.0705   -4.9976 H   0  0  0  0  0  0  0  0  0  0  0  0
   -0.5852    0.4666   -8.0132 H   0  0  0  0  0  0  0  0  0  0  0  0
    2.8892   -2.1843  -10.3907 H   0  0  0  0  0  0  0  0  0  0  0  0
   -1.7976    1.8455   -2.2966 H   0  0  0  0  0  0  0  0  0  0  0  0
   -0.5226    3.0309   -1.9026 H   0  0  0  0  0  0  0  0  0  0  0  0
    0.5260    2.7035   -4.0986 H   0  0  0  0  0  0  0  0  0  0  0  0
   -0.5711    1.3816   -4.4761 H   0  0  0  0  0  0  0  0  0  0  0  0
   -1.1930    3.0419   -4.3542 H   0  0  0  0  0  0  0  0  0  0  0  0
   -1.2360    2.1318    0.0300 H   0  0  0  0  0  0  0  0  0  0  0  0
   -2.3961    4.2840    6.3091 H   0  0  0  0  0  0  0  0  0  0  0  0
   -2.8948    4.1846    8.7067 H   0  0  0  0  0  0  0  0  0  0  0  0
   -3.9113    2.9090   10.5458 H   0  0  0  0  0  0  0  0  0  0  0  0
   -4.0434    1.1473   10.4535 H   0  0  0  0  0  0  0  0  0  0  0  0
   -2.2772    1.8156   12.0689 H   0  0  0  0  0  0  0  0  0  0  0  0
   -1.4348    2.7063   10.7970 H   0  0  0  0  0  0  0  0  0  0  0  0
   -1.5667    0.9502   10.7024 H   0  0  0  0  0  0  0  0  0  0  0  0
   -3.2868   -0.0551    8.4598 H   0  0  0  0  0  0  0  0  0  0  0  0
   -2.8211    0.0407    6.0493 H   0  0  0  0  0  0  0  0  0  0  0  0
   -7.8869    7.7549    3.5463 H   0  0  0  0  0  0  0  0  0  0  0  0
   -5.0031    6.8295   -0.4009 H   0  0  0  0  0  0  0  0  0  0  0  0
  1  2  2  0  0  0  0
  2  3  1  0  0  0  0
  3  4  2  0  0  0  0
  4  5  1  0  0  0  0
  5  6  2  0  0  0  0
  6  7  1  0  0  0  0
  7  8  2  0  0  0  0
  8  9  1  0  0  0  0
  9 10  2  0  0  0  0
 10 11  1  0  0  0  0
 11 12  1  0  0  0  0
 12 13  1  0  0  0  0
 10 14  1  0  0  0  0
 14 15  2  0  0  0  0
 15 16  1  0  0  0  0
 16 17  2  0  0  0  0
 17 18  1  0  0  0  0
 18 19  1  0  0  0  0
 19 20  2  0  0  0  0
 20 21  1  0  0  0  0
 21 22  2  0  0  0  0
 22 23  1  0  0  0  0
 23 24  2  0  0  0  0
 19 24  1  0  0  0  0
 22 25  1  0  0  0  0
 25 26  1  0  0  0  0
 18 27  2  0  0  0  0
 27 28  1  0  0  0  0
 28 29  2  0  0  0  0
 29 30  1  0  0  0  0
 30 31  1  0  0  0  0
 31 32  2  0  0  0  0
 32 33  1  0  0  0  0
 29 33  1  0  0  0  0
 33 34  2  0  0  0  0
 32 35  1  0  0  0  0
 35 36  2  0  0  0  0
 36 37  1  0  0  0  0
 36 38  1  0  0  0  0
 38 39  1  0  0  0  0
 38 40  2  0  0  0  0
 31 40  1  0  0  0  0
 30 41  2  0  0  0  0
 41 42  1  0  0  0  0
 42 43  3  0  0  0  0
 41 44  1  0  0  0  0
 44 45  3  0  0  0  0
 27 46  1  0  0  0  0
 16 46  1  0  0  0  0
 15 47  1  0  0  0  0
 47 48  1  0  0  0  0
 48 49  1  0  0  0  0
 49 50  1  0  0  0  0
 47 51  2  0  0  0  0
  9 51  1  0  0  0  0
  8 52  1  0  0  0  0
  5 52  1  0  0  0  0
  6 53  1  0  0  0  0
 53 54  2  0  0  0  0
 54 55  1  0  0  0  0
 55 56  2  0  0  0  0
 56 57  1  0  0  0  0
 57 58  1  0  0  0  0
 56 59  1  0  0  0  0
 59 60  2  0  0  0  0
 53 60  1  0  0  0  0
  2 61  1  0  0  0  0
 61 62  2  0  0  0  0
 62 63  1  0  0  0  0
  3 63  1  0  0  0  0
 63 64  2  0  0  0  0
 64 65  1  0  0  0  0
 65 66  3  0  0  0  0
 64 67  1  0  0  0  0
 67 68  3  0  0  0  0
 62 69  1  0  0  0  0
 69 70  2  0  0  0  0
 70 71  1  0  0  0  0
 70 72  1  0  0  0  0
 72 73  1  0  0  0  0
 72 74  2  0  0  0  0
 61 74  1  0  0  0  0
  4 75  1  0  0  0  0
  7 76  1  0  0  0  0
 12 77  1  0  0  0  0
 12 78  1  0  0  0  0
 13 79  1  0  0  0  0
 13 80  1  0  0  0  0
 13 81  1  0  0  0  0
 14 82  1  0  0  0  0
 17 83  1  0  0  0  0
 20 84  1  0  0  0  0
 21 85  1  0  0  0  0
 23 86  1  0  0  0  0
 24 87  1  0  0  0  0
 25 88  1  0  0  0  0
 25 89  1  0  0  0  0
 26 90  1  0  0  0  0
 26 91  1  0  0  0  0
 26 92  1  0  0  0  0
 28 93  1  0  0  0  0
 35 94  1  0  0  0  0
 40 95  1  0  0  0  0
 49 96  1  0  0  0  0
 49 97  1  0  0  0  0
 50 98  1  0  0  0  0
 50 99  1  0  0  0  0
 50100  1  0  0  0  0
 51101  1  0  0  0  0
 54102  1  0  0  0  0
 55103  1  0  0  0  0
 57104  1  0  0  0  0
 57105  1  0  0  0  0
 58106  1  0  0  0  0
 58107  1  0  0  0  0
 58108  1  0  0  0  0
 59109  1  0  0  0  0
 60110  1  0  0  0  0
 69111  1  0  0  0  0
 74112  1  0  0  0  0
M  END
