PTIC.sdf
  xtb     12222118493D
 energy: -171.295564780478 gnorm: 0.000802111420 xtb: 6.4.1 (unknown)
 92 98  0     0  0            999 V2000
    5.5671    0.3127   -5.6582 C   0  0  0  0  0  0  0  0  0  0  0  0
    4.5364   -0.3034   -5.8437 O   0  0  0  0  0  0  0  0  0  0  0  0
    6.6659    0.4836   -6.6366 C   0  0  0  0  0  0  0  0  0  0  0  0
    6.8018   -0.0988   -7.8805 C   0  0  0  0  0  0  0  0  0  0  0  0
    7.9198    0.2348   -8.6280 C   0  0  0  0  0  0  0  0  0  0  0  0
    8.8619    1.1367   -8.1337 C   0  0  0  0  0  0  0  0  0  0  0  0
    8.7215    1.7267   -6.8864 C   0  0  0  0  0  0  0  0  0  0  0  0
    7.6092    1.3921   -6.1299 C   0  0  0  0  0  0  0  0  0  0  0  0
    7.1806    1.8184   -4.7977 C   0  0  0  0  0  0  0  0  0  0  0  0
    7.8877    2.6503   -3.9686 C   0  0  0  0  0  0  0  0  0  0  0  0
    9.1067    3.2674   -4.3214 C   0  0  0  0  0  0  0  0  0  0  0  0
   10.0956    3.8042   -4.5486 N   0  0  0  0  0  0  0  0  0  0  0  0
    7.5250    3.0009   -2.6505 C   0  0  0  0  0  0  0  0  0  0  0  0
    7.3189    3.3248   -1.5678 N   0  0  0  0  0  0  0  0  0  0  0  0
    5.9349    1.1404   -4.4996 C   0  0  0  0  0  0  0  0  0  0  0  0
    5.1633    1.3751   -3.3874 C   0  0  0  0  0  0  0  0  0  0  0  0
    4.0576    0.6857   -2.8608 C   0  0  0  0  0  0  0  0  0  0  0  0
    3.6232   -0.6446   -2.8657 C   0  0  0  0  0  0  0  0  0  0  0  0
    2.4462   -0.8017   -2.1329 C   0  0  0  0  0  0  0  0  0  0  0  0
    1.9577    0.3484   -1.5363 C   0  0  0  0  0  0  0  0  0  0  0  0
    3.0087    1.6745   -1.8561 S   0  0  0  0  0  0  0  0  0  0  0  0
   -1.4775    0.7339    0.9592 C   0  0  0  0  0  0  0  0  0  0  0  0
   -2.6154    0.8464    1.8292 C   0  0  0  0  0  0  0  0  0  0  0  0
   -2.9778    1.9532    2.5913 C   0  0  0  0  0  0  0  0  0  0  0  0
   -4.1257    1.7741    3.3426 C   0  0  0  0  0  0  0  0  0  0  0  0
   -4.6811    0.4901    3.1687 C   0  0  0  0  0  0  0  0  0  0  0  0
   -3.7257   -0.4537    2.0483 S   0  0  0  0  0  0  0  0  0  0  0  0
   -5.8335    0.0596    3.8303 C   0  0  0  0  0  0  0  0  0  0  0  0
   -6.5044   -1.1421    3.7950 C   0  0  0  0  0  0  0  0  0  0  0  0
   -7.6925   -1.4458    4.5662 C   0  0  0  0  0  0  0  0  0  0  0  0
   -8.3339   -0.6425    5.4750 C   0  0  0  0  0  0  0  0  0  0  0  0
   -7.9538    0.6648    5.8447 C   0  0  0  0  0  0  0  0  0  0  0  0
   -7.7176    1.7285    6.2107 N   0  0  0  0  0  0  0  0  0  0  0  0
   -9.4895   -1.0231    6.1903 C   0  0  0  0  0  0  0  0  0  0  0  0
  -10.4290   -1.2649    6.8038 N   0  0  0  0  0  0  0  0  0  0  0  0
   -8.1083   -2.8060    4.2165 C   0  0  0  0  0  0  0  0  0  0  0  0
   -9.1729   -3.5815    4.6480 C   0  0  0  0  0  0  0  0  0  0  0  0
   -9.3054   -4.8581    4.1211 C   0  0  0  0  0  0  0  0  0  0  0  0
   -8.4035   -5.3621    3.1846 C   0  0  0  0  0  0  0  0  0  0  0  0
   -7.3364   -4.5932    2.7487 C   0  0  0  0  0  0  0  0  0  0  0  0
   -7.2055   -3.3235    3.2738 C   0  0  0  0  0  0  0  0  0  0  0  0
   -6.1673   -2.3103    2.9778 C   0  0  0  0  0  0  0  0  0  0  0  0
   -5.2405   -2.4517    2.2021 O   0  0  0  0  0  0  0  0  0  0  0  0
   -8.5695   -6.6002    2.7014 F   0  0  0  0  0  0  0  0  0  0  0  0
  -10.3274   -5.6218    4.5247 F   0  0  0  0  0  0  0  0  0  0  0  0
   -0.6000    1.8055    0.7651 C   0  0  0  0  0  0  0  0  0  0  0  0
    0.5047    1.7075   -0.0588 C   0  0  0  0  0  0  0  0  0  0  0  0
    0.7824    0.4874   -0.7213 C   0  0  0  0  0  0  0  0  0  0  0  0
   -0.1038   -0.5782   -0.5435 C   0  0  0  0  0  0  0  0  0  0  0  0
   -1.2157   -0.4780    0.2719 C   0  0  0  0  0  0  0  0  0  0  0  0
   -2.0948   -1.4733    0.5072 O   0  0  0  0  0  0  0  0  0  0  0  0
   -2.0441   -2.7040   -0.1891 C   0  0  0  0  0  0  0  0  0  0  0  0
   -2.5614   -2.5851   -1.6181 C   0  0  0  0  0  0  0  0  0  0  0  0
    1.3761    2.7141   -0.2918 O   0  0  0  0  0  0  0  0  0  0  0  0
    1.2583    3.9463    0.3963 C   0  0  0  0  0  0  0  0  0  0  0  0
    2.4323    4.8156   -0.0237 C   0  0  0  0  0  0  0  0  0  0  0  0
    8.0970   -0.3137   -9.8367 F   0  0  0  0  0  0  0  0  0  0  0  0
    9.9295    1.4453   -8.8794 F   0  0  0  0  0  0  0  0  0  0  0  0
   -4.6529    2.8196    4.2727 C   0  0  0  0  0  0  0  0  0  0  0  0
   -4.1698    2.5689    5.7043 C   0  0  0  0  0  0  0  0  0  0  0  0
    4.3332   -1.8252   -3.4369 C   0  0  0  0  0  0  0  0  0  0  0  0
    5.7755   -1.9522   -2.9488 C   0  0  0  0  0  0  0  0  0  0  0  0
    6.0690   -0.7920   -8.2617 H   0  0  0  0  0  0  0  0  0  0  0  0
    9.4744    2.4217   -6.5532 H   0  0  0  0  0  0  0  0  0  0  0  0
    5.4073    2.2699   -2.8251 H   0  0  0  0  0  0  0  0  0  0  0  0
    1.9735   -1.7619   -2.0269 H   0  0  0  0  0  0  0  0  0  0  0  0
   -2.4223    2.8739    2.6080 H   0  0  0  0  0  0  0  0  0  0  0  0
   -6.2621    0.8089    4.4819 H   0  0  0  0  0  0  0  0  0  0  0  0
   -9.8985   -3.2411    5.3681 H   0  0  0  0  0  0  0  0  0  0  0  0
   -6.6367   -4.9783    2.0244 H   0  0  0  0  0  0  0  0  0  0  0  0
   -0.8004    2.7330    1.2723 H   0  0  0  0  0  0  0  0  0  0  0  0
    0.0981   -1.5011   -1.0590 H   0  0  0  0  0  0  0  0  0  0  0  0
   -1.0292   -3.1188   -0.1644 H   0  0  0  0  0  0  0  0  0  0  0  0
   -2.7034   -3.3537    0.3918 H   0  0  0  0  0  0  0  0  0  0  0  0
   -3.5790   -2.2040   -1.6049 H   0  0  0  0  0  0  0  0  0  0  0  0
   -1.9464   -1.9080   -2.2065 H   0  0  0  0  0  0  0  0  0  0  0  0
   -2.5583   -3.5638   -2.0896 H   0  0  0  0  0  0  0  0  0  0  0  0
    0.3093    4.4315    0.1311 H   0  0  0  0  0  0  0  0  0  0  0  0
    1.2799    3.7710    1.4800 H   0  0  0  0  0  0  0  0  0  0  0  0
    2.3839    5.7725    0.4872 H   0  0  0  0  0  0  0  0  0  0  0  0
    3.3680    4.3236    0.2257 H   0  0  0  0  0  0  0  0  0  0  0  0
    2.4059    4.9811   -1.0969 H   0  0  0  0  0  0  0  0  0  0  0  0
   -5.7436    2.8415    4.2610 H   0  0  0  0  0  0  0  0  0  0  0  0
   -4.2949    3.7964    3.9423 H   0  0  0  0  0  0  0  0  0  0  0  0
   -4.5506    3.3431    6.3643 H   0  0  0  0  0  0  0  0  0  0  0  0
   -3.0829    2.5753    5.7452 H   0  0  0  0  0  0  0  0  0  0  0  0
   -4.5226    1.6066    6.0667 H   0  0  0  0  0  0  0  0  0  0  0  0
    3.7816   -2.7261   -3.1613 H   0  0  0  0  0  0  0  0  0  0  0  0
    4.3241   -1.7483   -4.5282 H   0  0  0  0  0  0  0  0  0  0  0  0
    6.2192   -2.8626   -3.3442 H   0  0  0  0  0  0  0  0  0  0  0  0
    6.3788   -1.1090   -3.2738 H   0  0  0  0  0  0  0  0  0  0  0  0
    5.8061   -1.9962   -1.8619 H   0  0  0  0  0  0  0  0  0  0  0  0
  1  2  2  0  0  0  0
  1  3  1  0  0  0  0
  3  4  2  0  0  0  0
  4  5  1  0  0  0  0
  5  6  2  0  0  0  0
  6  7  1  0  0  0  0
  7  8  2  0  0  0  0
  3  8  1  0  0  0  0
  8  9  1  0  0  0  0
  9 10  2  0  0  0  0
 10 11  1  0  0  0  0
 11 12  3  0  0  0  0
 10 13  1  0  0  0  0
 13 14  3  0  0  0  0
  9 15  1  0  0  0  0
  1 15  1  0  0  0  0
 15 16  2  0  0  0  0
 16 17  1  0  0  0  0
 17 18  2  0  0  0  0
 18 19  1  0  0  0  0
 19 20  2  0  0  0  0
 20 21  1  0  0  0  0
 17 21  1  0  0  0  0
 22 23  1  0  0  0  0
 23 24  2  0  0  0  0
 24 25  1  0  0  0  0
 25 26  2  0  0  0  0
 26 27  1  0  0  0  0
 23 27  1  0  0  0  0
 26 28  1  0  0  0  0
 28 29  2  0  0  0  0
 29 30  1  0  0  0  0
 30 31  2  0  0  0  0
 31 32  1  0  0  0  0
 32 33  3  0  0  0  0
 31 34  1  0  0  0  0
 34 35  3  0  0  0  0
 30 36  1  0  0  0  0
 36 37  2  0  0  0  0
 37 38  1  0  0  0  0
 38 39  2  0  0  0  0
 39 40  1  0  0  0  0
 40 41  2  0  0  0  0
 36 41  1  0  0  0  0
 41 42  1  0  0  0  0
 29 42  1  0  0  0  0
 42 43  2  0  0  0  0
 39 44  1  0  0  0  0
 38 45  1  0  0  0  0
 22 46  2  0  0  0  0
 46 47  1  0  0  0  0
 47 48  2  0  0  0  0
 48 49  1  0  0  0  0
 49 50  2  0  0  0  0
 50 22  1  0  0  0  0
 50 51  1  0  0  0  0
 51 52  1  0  0  0  0
 52 53  1  0  0  0  0
 47 54  1  0  0  0  0
 54 55  1  0  0  0  0
 55 56  1  0  0  0  0
 48 20  1  0  0  0  0
  5 57  1  0  0  0  0
  6 58  1  0  0  0  0
 25 59  1  0  0  0  0
 59 60  1  0  0  0  0
 18 61  1  0  0  0  0
 61 62  1  0  0  0  0
  4 63  1  0  0  0  0
  7 64  1  0  0  0  0
 16 65  1  0  0  0  0
 19 66  1  0  0  0  0
 24 67  1  0  0  0  0
 28 68  1  0  0  0  0
 37 69  1  0  0  0  0
 40 70  1  0  0  0  0
 46 71  1  0  0  0  0
 49 72  1  0  0  0  0
 52 73  1  0  0  0  0
 52 74  1  0  0  0  0
 53 75  1  0  0  0  0
 53 76  1  0  0  0  0
 53 77  1  0  0  0  0
 55 78  1  0  0  0  0
 55 79  1  0  0  0  0
 56 80  1  0  0  0  0
 56 81  1  0  0  0  0
 56 82  1  0  0  0  0
 59 83  1  0  0  0  0
 59 84  1  0  0  0  0
 60 85  1  0  0  0  0
 60 86  1  0  0  0  0
 60 87  1  0  0  0  0
 61 88  1  0  0  0  0
 61 89  1  0  0  0  0
 62 90  1  0  0  0  0
 62 91  1  0  0  0  0
 62 92  1  0  0  0  0
M  END
