Py-2H.sdf
  xtb     12222120523D
 energy: -169.769376563809 gnorm: 0.000367344889 xtb: 6.4.1 (unknown)
104113  0     0  0            999 V2000
    3.0935    0.9405   -2.9610 C   0  0  0  0  0  0  0  0  0  0  0  0
    2.4961   -0.1605   -2.2396 C   0  0  0  0  0  0  0  0  0  0  0  0
    4.3719    0.9598   -3.4943 C   0  0  0  0  0  0  0  0  0  0  0  0
    4.7419    2.1829   -4.0366 C   0  0  0  0  0  0  0  0  0  0  0  0
    3.7336    3.1542   -3.9079 C   0  0  0  0  0  0  0  0  0  0  0  0
    2.3248    2.4794   -3.1199 S   0  0  0  0  0  0  0  0  0  0  0  0
    3.8719    4.4755   -4.3473 C   0  0  0  0  0  0  0  0  0  0  0  0
    3.0001    5.5361   -4.3033 C   0  0  0  0  0  0  0  0  0  0  0  0
    3.2900    6.8761   -4.7727 C   0  0  0  0  0  0  0  0  0  0  0  0
    2.0873    7.6840   -4.5634 C   0  0  0  0  0  0  0  0  0  0  0  0
    1.0936    6.8742   -3.9871 C   0  0  0  0  0  0  0  0  0  0  0  0
    1.6221    5.5097   -3.8005 C   0  0  0  0  0  0  0  0  0  0  0  0
    1.8126    9.0160   -4.8293 C   0  0  0  0  0  0  0  0  0  0  0  0
    0.5524    9.5092   -4.5144 C   0  0  0  0  0  0  0  0  0  0  0  0
   -0.4221    8.7019   -3.9466 C   0  0  0  0  0  0  0  0  0  0  0  0
   -0.1581    7.3663   -3.6761 C   0  0  0  0  0  0  0  0  0  0  0  0
    1.0155    4.5619   -3.3331 O   0  0  0  0  0  0  0  0  0  0  0  0
    4.4643    7.3391   -5.3104 C   0  0  0  0  0  0  0  0  0  0  0  0
    4.6712    8.6669   -5.7397 C   0  0  0  0  0  0  0  0  0  0  0  0
    5.6368    6.5839   -5.5175 C   0  0  0  0  0  0  0  0  0  0  0  0
    6.6328    6.0465   -5.7194 N   0  0  0  0  0  0  0  0  0  0  0  0
    4.9154    9.7259   -6.1105 N   0  0  0  0  0  0  0  0  0  0  0  0
   -3.3513   -3.5146    0.8172 C   0  0  0  0  0  0  0  0  0  0  0  0
   -4.5342   -4.2238    0.6906 C   0  0  0  0  0  0  0  0  0  0  0  0
   -4.9844   -4.7896    1.8758 C   0  0  0  0  0  0  0  0  0  0  0  0
   -4.1370   -4.5060    2.9612 C   0  0  0  0  0  0  0  0  0  0  0  0
   -2.7704   -3.5448    2.4431 S   0  0  0  0  0  0  0  0  0  0  0  0
   -4.3974   -4.9150    4.2737 C   0  0  0  0  0  0  0  0  0  0  0  0
   -3.6736   -4.7493    5.4291 C   0  0  0  0  0  0  0  0  0  0  0  0
   -4.0913   -5.1844    6.7464 C   0  0  0  0  0  0  0  0  0  0  0  0
   -2.9997   -4.8843    7.6742 C   0  0  0  0  0  0  0  0  0  0  0  0
   -1.9580   -4.2661    6.9612 C   0  0  0  0  0  0  0  0  0  0  0  0
   -2.3402   -4.1475    5.5413 C   0  0  0  0  0  0  0  0  0  0  0  0
   -2.8592   -5.1027    9.0354 C   0  0  0  0  0  0  0  0  0  0  0  0
   -1.6831   -4.6976    9.6544 C   0  0  0  0  0  0  0  0  0  0  0  0
   -0.6617   -4.0861    8.9429 C   0  0  0  0  0  0  0  0  0  0  0  0
   -0.7909   -3.8637    7.5788 C   0  0  0  0  0  0  0  0  0  0  0  0
   -1.6660   -3.6555    4.6537 O   0  0  0  0  0  0  0  0  0  0  0  0
   -5.2922   -5.7469    7.0987 C   0  0  0  0  0  0  0  0  0  0  0  0
   -6.3654   -6.0189    6.2255 C   0  0  0  0  0  0  0  0  0  0  0  0
   -5.6340   -6.1287    8.4129 C   0  0  0  0  0  0  0  0  0  0  0  0
   -5.9828   -6.4634    9.4545 N   0  0  0  0  0  0  0  0  0  0  0  0
   -7.2868   -6.2697    5.5855 N   0  0  0  0  0  0  0  0  0  0  0  0
    6.0949    2.4266   -4.6248 C   0  0  0  0  0  0  0  0  0  0  0  0
    7.0367    3.0423   -3.5856 C   0  0  0  0  0  0  0  0  0  0  0  0
   -6.2061   -5.6484    1.9514 C   0  0  0  0  0  0  0  0  0  0  0  0
   -5.8316   -7.1332    1.9288 C   0  0  0  0  0  0  0  0  0  0  0  0
    1.1118   -0.4436   -2.2460 C   0  0  0  0  0  0  0  0  0  0  0  0
    0.6020   -1.4351   -1.3667 C   0  0  0  0  0  0  0  0  0  0  0  0
    1.4883   -2.1875   -0.5500 C   0  0  0  0  0  0  0  0  0  0  0  0
    2.8745   -1.9448   -0.6221 C   0  0  0  0  0  0  0  0  0  0  0  0
    3.3394   -0.9425   -1.4470 C   0  0  0  0  0  0  0  0  0  0  0  0
    0.2106    0.1904   -3.1399 C   0  0  0  0  0  0  0  0  0  0  0  0
   -1.1200   -0.0599   -3.1030 C   0  0  0  0  0  0  0  0  0  0  0  0
   -1.6829   -0.9585   -2.1582 C   0  0  0  0  0  0  0  0  0  0  0  0
   -0.8014   -1.6641   -1.2960 C   0  0  0  0  0  0  0  0  0  0  0  0
   -1.3191   -2.5857   -0.3482 C   0  0  0  0  0  0  0  0  0  0  0  0
   -0.4024   -3.3607    0.4081 C   0  0  0  0  0  0  0  0  0  0  0  0
    0.9356   -3.1765    0.3065 C   0  0  0  0  0  0  0  0  0  0  0  0
   -3.0711   -1.1823   -2.0680 C   0  0  0  0  0  0  0  0  0  0  0  0
   -3.5521   -2.0443   -1.1046 C   0  0  0  0  0  0  0  0  0  0  0  0
   -2.7183   -2.7335   -0.2221 C   0  0  0  0  0  0  0  0  0  0  0  0
    3.8704   -2.7535    0.1611 C   0  0  0  0  0  0  0  0  0  0  0  0
    4.1653   -4.0800   -0.5441 C   0  0  0  0  0  0  0  0  0  0  0  0
   -4.0570   -0.4491   -2.9333 C   0  0  0  0  0  0  0  0  0  0  0  0
   -4.3170    0.9581   -2.3894 C   0  0  0  0  0  0  0  0  0  0  0  0
    5.0097    0.0932   -3.5200 H   0  0  0  0  0  0  0  0  0  0  0  0
    4.8382    4.6808   -4.7875 H   0  0  0  0  0  0  0  0  0  0  0  0
    2.5478    9.6687   -5.2704 H   0  0  0  0  0  0  0  0  0  0  0  0
    0.3310   10.5461   -4.7184 H   0  0  0  0  0  0  0  0  0  0  0  0
   -1.3915    9.1166   -3.7138 H   0  0  0  0  0  0  0  0  0  0  0  0
   -0.8997    6.7186   -3.2342 H   0  0  0  0  0  0  0  0  0  0  0  0
   -5.0427   -4.3504   -0.2496 H   0  0  0  0  0  0  0  0  0  0  0  0
   -5.3340   -5.4458    4.3784 H   0  0  0  0  0  0  0  0  0  0  0  0
   -3.6338   -5.5762    9.6157 H   0  0  0  0  0  0  0  0  0  0  0  0
   -1.5661   -4.8647   10.7147 H   0  0  0  0  0  0  0  0  0  0  0  0
    0.2391   -3.7819    9.4545 H   0  0  0  0  0  0  0  0  0  0  0  0
   -0.0101   -3.3899    7.0038 H   0  0  0  0  0  0  0  0  0  0  0  0
    6.0346    3.0876   -5.4907 H   0  0  0  0  0  0  0  0  0  0  0  0
    6.5077    1.4729   -4.9588 H   0  0  0  0  0  0  0  0  0  0  0  0
    6.6559    4.0004   -3.2408 H   0  0  0  0  0  0  0  0  0  0  0  0
    7.1386    2.3825   -2.7268 H   0  0  0  0  0  0  0  0  0  0  0  0
    8.0178    3.2025   -4.0238 H   0  0  0  0  0  0  0  0  0  0  0  0
   -6.7788   -5.4358    2.8559 H   0  0  0  0  0  0  0  0  0  0  0  0
   -6.8426   -5.4286    1.0925 H   0  0  0  0  0  0  0  0  0  0  0  0
   -5.2904   -7.3741    1.0163 H   0  0  0  0  0  0  0  0  0  0  0  0
   -5.2014   -7.3842    2.7787 H   0  0  0  0  0  0  0  0  0  0  0  0
   -6.7297   -7.7431    1.9742 H   0  0  0  0  0  0  0  0  0  0  0  0
    4.3971   -0.7228   -1.4502 H   0  0  0  0  0  0  0  0  0  0  0  0
    0.5973    0.8702   -3.8816 H   0  0  0  0  0  0  0  0  0  0  0  0
   -1.7645    0.4365   -3.8100 H   0  0  0  0  0  0  0  0  0  0  0  0
   -0.7795   -4.1280    1.0645 H   0  0  0  0  0  0  0  0  0  0  0  0
    1.5937   -3.7949    0.8946 H   0  0  0  0  0  0  0  0  0  0  0  0
   -4.6210   -2.1629   -1.0006 H   0  0  0  0  0  0  0  0  0  0  0  0
    4.7997   -2.1870    0.2494 H   0  0  0  0  0  0  0  0  0  0  0  0
    3.5052   -2.9446    1.1708 H   0  0  0  0  0  0  0  0  0  0  0  0
    4.5691   -3.8954   -1.5372 H   0  0  0  0  0  0  0  0  0  0  0  0
    4.8920   -4.6567    0.0234 H   0  0  0  0  0  0  0  0  0  0  0  0
    3.2587   -4.6707   -0.6515 H   0  0  0  0  0  0  0  0  0  0  0  0
   -3.6966   -0.3867   -3.9611 H   0  0  0  0  0  0  0  0  0  0  0  0
   -4.9985   -1.0021   -2.9479 H   0  0  0  0  0  0  0  0  0  0  0  0
   -5.0386    1.4780   -3.0154 H   0  0  0  0  0  0  0  0  0  0  0  0
   -3.3973    1.5373   -2.3617 H   0  0  0  0  0  0  0  0  0  0  0  0
   -4.7132    0.9010   -1.3779 H   0  0  0  0  0  0  0  0  0  0  0  0
  1  2  1  0  0  0  0
  1  3  2  0  0  0  0
  3  4  1  0  0  0  0
  4  5  2  0  0  0  0
  5  6  1  0  0  0  0
  6  1  1  0  0  0  0
  5  7  1  0  0  0  0
  7  8  2  0  0  0  0
  8  9  1  0  0  0  0
  9 10  1  0  0  0  0
 10 11  2  0  0  0  0
 11 12  1  0  0  0  0
 12  8  1  0  0  0  0
 10 13  1  0  0  0  0
 13 14  2  0  0  0  0
 14 15  1  0  0  0  0
 15 16  2  0  0  0  0
 16 11  1  0  0  0  0
 12 17  2  0  0  0  0
  9 18  2  0  0  0  0
 18 19  1  0  0  0  0
 18 20  1  0  0  0  0
 20 21  3  0  0  0  0
 19 22  3  0  0  0  0
 23 24  2  0  0  0  0
 24 25  1  0  0  0  0
 25 26  2  0  0  0  0
 26 27  1  0  0  0  0
 27 23  1  0  0  0  0
 26 28  1  0  0  0  0
 28 29  2  0  0  0  0
 29 30  1  0  0  0  0
 30 31  1  0  0  0  0
 31 32  2  0  0  0  0
 32 33  1  0  0  0  0
 33 29  1  0  0  0  0
 31 34  1  0  0  0  0
 34 35  2  0  0  0  0
 35 36  1  0  0  0  0
 36 37  2  0  0  0  0
 37 32  1  0  0  0  0
 33 38  2  0  0  0  0
 30 39  2  0  0  0  0
 39 40  1  0  0  0  0
 39 41  1  0  0  0  0
 41 42  3  0  0  0  0
 40 43  3  0  0  0  0
  4 44  1  0  0  0  0
 44 45  1  0  0  0  0
 25 46  1  0  0  0  0
 46 47  1  0  0  0  0
  2 48  1  0  0  0  0
 48 49  2  0  0  0  0
 49 50  1  0  0  0  0
 50 51  2  0  0  0  0
 51 52  1  0  0  0  0
 52  2  2  0  0  0  0
 48 53  1  0  0  0  0
 53 54  2  0  0  0  0
 54 55  1  0  0  0  0
 55 56  2  0  0  0  0
 56 49  1  0  0  0  0
 56 57  1  0  0  0  0
 57 58  1  0  0  0  0
 58 59  2  0  0  0  0
 59 50  1  0  0  0  0
 55 60  1  0  0  0  0
 60 61  2  0  0  0  0
 61 62  1  0  0  0  0
 62 57  2  0  0  0  0
 62 23  1  0  0  0  0
 51 63  1  0  0  0  0
 63 64  1  0  0  0  0
 60 65  1  0  0  0  0
 65 66  1  0  0  0  0
  3 67  1  0  0  0  0
  7 68  1  0  0  0  0
 13 69  1  0  0  0  0
 14 70  1  0  0  0  0
 15 71  1  0  0  0  0
 16 72  1  0  0  0  0
 24 73  1  0  0  0  0
 28 74  1  0  0  0  0
 34 75  1  0  0  0  0
 35 76  1  0  0  0  0
 36 77  1  0  0  0  0
 37 78  1  0  0  0  0
 44 79  1  0  0  0  0
 44 80  1  0  0  0  0
 45 81  1  0  0  0  0
 45 82  1  0  0  0  0
 45 83  1  0  0  0  0
 46 84  1  0  0  0  0
 46 85  1  0  0  0  0
 47 86  1  0  0  0  0
 47 87  1  0  0  0  0
 47 88  1  0  0  0  0
 52 89  1  0  0  0  0
 53 90  1  0  0  0  0
 54 91  1  0  0  0  0
 58 92  1  0  0  0  0
 59 93  1  0  0  0  0
 61 94  1  0  0  0  0
 63 95  1  0  0  0  0
 63 96  1  0  0  0  0
 64 97  1  0  0  0  0
 64 98  1  0  0  0  0
 64 99  1  0  0  0  0
 65100  1  0  0  0  0
 65101  1  0  0  0  0
 66102  1  0  0  0  0
 66103  1  0  0  0  0
 66104  1  0  0  0  0
M  END
