PY5-PZ.sdf
  xtb     12222120143D
 energy: -455.170642016329 gnorm: 0.000282050873 xtb: 6.4.1 (unknown)
260289  0     0  0            999 V2000
   -2.8916    2.0447    5.6938 C   0  0  0  0  0  0  0  0  0  0  0  0
   -4.0756    2.1122    5.4342 O   0  0  0  0  0  0  0  0  0  0  0  0
   -2.1089    0.8193    5.9373 C   0  0  0  0  0  0  0  0  0  0  0  0
   -2.5216   -0.5000    5.8959 C   0  0  0  0  0  0  0  0  0  0  0  0
   -1.5679   -1.4941    6.0250 C   0  0  0  0  0  0  0  0  0  0  0  0
   -0.2139   -1.1838    6.1928 C   0  0  0  0  0  0  0  0  0  0  0  0
    0.1957    0.1536    6.2503 C   0  0  0  0  0  0  0  0  0  0  0  0
   -0.7541    1.1483    6.1277 C   0  0  0  0  0  0  0  0  0  0  0  0
   -0.6164    2.5997    6.0869 C   0  0  0  0  0  0  0  0  0  0  0  0
    0.5018    3.3148    6.4244 C   0  0  0  0  0  0  0  0  0  0  0  0
    0.5478    4.7238    6.4860 C   0  0  0  0  0  0  0  0  0  0  0  0
    0.6317    5.8647    6.5821 N   0  0  0  0  0  0  0  0  0  0  0  0
    1.7230    2.7182    6.7963 C   0  0  0  0  0  0  0  0  0  0  0  0
    2.7379    2.2703    7.0928 N   0  0  0  0  0  0  0  0  0  0  0  0
   -1.9014    3.1470    5.6995 C   0  0  0  0  0  0  0  0  0  0  0  0
   -2.0759    4.3757    5.1317 C   0  0  0  0  0  0  0  0  0  0  0  0
   -3.2676    4.9850    4.6710 C   0  0  0  0  0  0  0  0  0  0  0  0
   -3.0771    5.8285    3.1253 S   0  0  0  0  0  0  0  0  0  0  0  0
   -4.7551    6.2058    3.0956 C   0  0  0  0  0  0  0  0  0  0  0  0
   -5.3876    5.7797    4.2693 C   0  0  0  0  0  0  0  0  0  0  0  0
   -4.5590    5.0898    5.1680 C   0  0  0  0  0  0  0  0  0  0  0  0
   -5.0267    4.6660    6.5198 C   0  0  0  0  0  0  0  0  0  0  0  0
   -4.1827    5.2693    7.6420 C   0  0  0  0  0  0  0  0  0  0  0  0
   -7.0965    6.1623    4.3005 S   0  0  0  0  0  0  0  0  0  0  0  0
   -6.9542    6.8403    2.7139 C   0  0  0  0  0  0  0  0  0  0  0  0
   -5.6520    6.8022    2.2057 C   0  0  0  0  0  0  0  0  0  0  0  0
   -5.6236    7.3107    0.9364 N   0  0  0  0  0  0  0  0  0  0  0  0
   -4.4538    7.0940    0.1165 C   0  0  0  0  0  0  0  0  0  0  0  0
   -4.6800    5.9769   -0.8993 C   0  0  0  0  0  0  0  0  0  0  0  0
   -6.9190    7.6539    0.5899 C   0  0  0  0  0  0  0  0  0  0  0  0
   -7.7681    7.3665    1.6985 C   0  0  0  0  0  0  0  0  0  0  0  0
   -9.1709    7.5106    1.6165 C   0  0  0  0  0  0  0  0  0  0  0  0
  -10.0785    7.2886    2.5542 N   0  0  0  0  0  0  0  0  0  0  0  0
  -11.5463    7.5198    1.9129 S   0  0  0  0  0  0  0  0  0  0  0  0
  -11.0817    7.9097    0.4127 N   0  0  0  0  0  0  0  0  0  0  0  0
   -9.7593    7.8779    0.3608 C   0  0  0  0  0  0  0  0  0  0  0  0
   -8.9148    8.1695   -0.7330 C   0  0  0  0  0  0  0  0  0  0  0  0
   -7.4953    8.1496   -0.6091 C   0  0  0  0  0  0  0  0  0  0  0  0
   -6.9459    8.5414   -1.8209 N   0  0  0  0  0  0  0  0  0  0  0  0
   -5.6562    9.1297   -2.1152 C   0  0  0  0  0  0  0  0  0  0  0  0
   -5.3419   10.2881   -1.1724 C   0  0  0  0  0  0  0  0  0  0  0  0
   -7.9801    8.7407   -2.6955 C   0  0  0  0  0  0  0  0  0  0  0  0
   -9.2057    8.5207   -2.0619 C   0  0  0  0  0  0  0  0  0  0  0  0
  -10.5651    8.6836   -3.1221 S   0  0  0  0  0  0  0  0  0  0  0  0
   -9.4712    8.9856   -4.4551 C   0  0  0  0  0  0  0  0  0  0  0  0
   -8.1294    9.0081   -4.0586 C   0  0  0  0  0  0  0  0  0  0  0  0
   -7.0764    9.2367   -5.4012 S   0  0  0  0  0  0  0  0  0  0  0  0
   -8.4546    9.1464   -6.5106 C   0  0  0  0  0  0  0  0  0  0  0  0
   -9.6658    9.0816   -5.8449 C   0  0  0  0  0  0  0  0  0  0  0  0
  -11.0037    9.2613   -6.4791 C   0  0  0  0  0  0  0  0  0  0  0  0
  -11.6604   10.5526   -5.9880 C   0  0  0  0  0  0  0  0  0  0  0  0
   -8.0825    9.0061   -7.8712 C   0  0  0  0  0  0  0  0  0  0  0  0
   -8.5712    8.0897   -8.7541 C   0  0  0  0  0  0  0  0  0  0  0  0
   -7.9939    7.8204  -10.0580 C   0  0  0  0  0  0  0  0  0  0  0  0
   -7.3423    8.7155  -10.8611 C   0  0  0  0  0  0  0  0  0  0  0  0
   -7.1574   10.0744  -10.5286 C   0  0  0  0  0  0  0  0  0  0  0  0
   -6.9940   11.1894  -10.3101 N   0  0  0  0  0  0  0  0  0  0  0  0
   -6.8357    8.3898  -12.1358 C   0  0  0  0  0  0  0  0  0  0  0  0
   -6.4106    8.1675  -13.1788 N   0  0  0  0  0  0  0  0  0  0  0  0
   -8.2937    6.4290  -10.3808 C   0  0  0  0  0  0  0  0  0  0  0  0
   -7.7242    5.5773  -11.3073 C   0  0  0  0  0  0  0  0  0  0  0  0
   -8.1371    4.2373  -11.3455 C   0  0  0  0  0  0  0  0  0  0  0  0
   -9.1813    3.8214  -10.5031 C   0  0  0  0  0  0  0  0  0  0  0  0
   -9.7228    4.6581   -9.5478 C   0  0  0  0  0  0  0  0  0  0  0  0
   -9.2431    5.9529   -9.4590 C   0  0  0  0  0  0  0  0  0  0  0  0
   -9.4655    6.9547   -8.4039 C   0  0  0  0  0  0  0  0  0  0  0  0
  -10.1339    6.8145   -7.4019 O   0  0  0  0  0  0  0  0  0  0  0  0
    0.7829   -2.2386    6.1897 C   0  0  0  0  0  0  0  0  0  0  0  0
    1.9431   -2.3812    6.9181 C   0  0  0  0  0  0  0  0  0  0  0  0
    2.7064   -3.4813    6.4825 C   0  0  0  0  0  0  0  0  0  0  0  0
    2.1388   -4.1769    5.4461 C   0  0  0  0  0  0  0  0  0  0  0  0
    0.6120   -3.4930    5.0020 S   0  0  0  0  0  0  0  0  0  0  0  0
    4.3995   -8.0868    2.2267 C   0  0  0  0  0  0  0  0  0  0  0  0
    3.7649   -8.8442    1.2804 C   0  0  0  0  0  0  0  0  0  0  0  0
    4.6403   -9.6514    0.5190 C   0  0  0  0  0  0  0  0  0  0  0  0
    5.9373   -9.4820    0.8989 C   0  0  0  0  0  0  0  0  0  0  0  0
    6.1171   -8.3624    2.1912 S   0  0  0  0  0  0  0  0  0  0  0  0
    4.1894  -10.5669   -0.5743 C   0  0  0  0  0  0  0  0  0  0  0  0
    3.4860   -9.7986   -1.6915 C   0  0  0  0  0  0  0  0  0  0  0  0
    2.3318   -1.5586    8.1080 C   0  0  0  0  0  0  0  0  0  0  0  0
    2.3141   -2.4113    9.3782 C   0  0  0  0  0  0  0  0  0  0  0  0
    2.6901   -5.2829    4.7157 C   0  0  0  0  0  0  0  0  0  0  0  0
    3.9675   -5.6146    4.9468 N   0  0  0  0  0  0  0  0  0  0  0  0
    4.4992   -6.5484    4.1919 C   0  0  0  0  0  0  0  0  0  0  0  0
    3.7961   -7.1615    3.1455 C   0  0  0  0  0  0  0  0  0  0  0  0
    2.4925   -6.8933    2.9733 N   0  0  0  0  0  0  0  0  0  0  0  0
    1.9485   -5.9928    3.7556 C   0  0  0  0  0  0  0  0  0  0  0  0
    0.4402   -4.4088   -3.5544 C   0  0  0  0  0  0  0  0  0  0  0  0
    0.8912   -3.5650   -2.8072 O   0  0  0  0  0  0  0  0  0  0  0  0
   -0.2759   -4.1679   -4.8163 C   0  0  0  0  0  0  0  0  0  0  0  0
   -0.6222   -2.9614   -5.3949 C   0  0  0  0  0  0  0  0  0  0  0  0
   -1.3558   -2.9826   -6.5646 C   0  0  0  0  0  0  0  0  0  0  0  0
   -1.7336   -4.1895   -7.1702 C   0  0  0  0  0  0  0  0  0  0  0  0
   -1.3123   -5.4056   -6.6141 C   0  0  0  0  0  0  0  0  0  0  0  0
   -0.5997   -5.3904   -5.4293 C   0  0  0  0  0  0  0  0  0  0  0  0
   -0.0842   -6.4772   -4.5968 C   0  0  0  0  0  0  0  0  0  0  0  0
   -0.2959   -7.8172   -4.8035 C   0  0  0  0  0  0  0  0  0  0  0  0
   -1.0265   -8.3392   -5.8889 C   0  0  0  0  0  0  0  0  0  0  0  0
   -1.6233   -8.8136   -6.7481 N   0  0  0  0  0  0  0  0  0  0  0  0
    0.1541   -8.8315   -3.9345 C   0  0  0  0  0  0  0  0  0  0  0  0
    0.4817   -9.6999   -3.2579 N   0  0  0  0  0  0  0  0  0  0  0  0
    0.5763   -5.8837   -3.4580 C   0  0  0  0  0  0  0  0  0  0  0  0
    1.4003   -6.5055   -2.5560 C   0  0  0  0  0  0  0  0  0  0  0  0
    1.8555   -5.9117   -1.3606 C   0  0  0  0  0  0  0  0  0  0  0  0
    3.5084   -6.2558   -0.8427 S   0  0  0  0  0  0  0  0  0  0  0  0
    3.3622   -5.1262    0.4462 C   0  0  0  0  0  0  0  0  0  0  0  0
    2.0677   -4.5911    0.5093 C   0  0  0  0  0  0  0  0  0  0  0  0
    1.2030   -5.0405   -0.4939 C   0  0  0  0  0  0  0  0  0  0  0  0
   -0.2550   -4.7261   -0.5217 C   0  0  0  0  0  0  0  0  0  0  0  0
   -0.9276   -5.0692    0.8078 C   0  0  0  0  0  0  0  0  0  0  0  0
    1.8796   -3.4018    1.7767 S   0  0  0  0  0  0  0  0  0  0  0  0
    3.5372   -3.6253    2.2044 C   0  0  0  0  0  0  0  0  0  0  0  0
    4.1976   -4.5795    1.4233 C   0  0  0  0  0  0  0  0  0  0  0  0
    5.5061   -4.6910    1.8193 N   0  0  0  0  0  0  0  0  0  0  0  0
    6.4645   -5.1828    0.8516 C   0  0  0  0  0  0  0  0  0  0  0  0
    7.0099   -4.0399   -0.0017 C   0  0  0  0  0  0  0  0  0  0  0  0
    5.7012   -3.7947    2.8610 C   0  0  0  0  0  0  0  0  0  0  0  0
    4.4810   -3.0996    3.0979 C   0  0  0  0  0  0  0  0  0  0  0  0
    4.3946   -2.0222    4.0062 C   0  0  0  0  0  0  0  0  0  0  0  0
    3.3532   -1.2514    4.2855 N   0  0  0  0  0  0  0  0  0  0  0  0
    3.8321   -0.0977    5.3203 S   0  0  0  0  0  0  0  0  0  0  0  0
    5.3783   -0.5431    5.4555 N   0  0  0  0  0  0  0  0  0  0  0  0
    5.5814   -1.6061    4.6930 C   0  0  0  0  0  0  0  0  0  0  0  0
    6.7673   -2.3522    4.5215 C   0  0  0  0  0  0  0  0  0  0  0  0
    6.8233   -3.4955    3.6732 C   0  0  0  0  0  0  0  0  0  0  0  0
    8.0678   -4.0803    3.8094 N   0  0  0  0  0  0  0  0  0  0  0  0
    8.5022   -5.4209    3.4865 C   0  0  0  0  0  0  0  0  0  0  0  0
    9.5747   -5.4411    2.3984 C   0  0  0  0  0  0  0  0  0  0  0  0
    8.8023   -3.3080    4.6709 C   0  0  0  0  0  0  0  0  0  0  0  0
    8.0295   -2.2296    5.1181 C   0  0  0  0  0  0  0  0  0  0  0  0
    8.8596   -1.1795    6.2078 S   0  0  0  0  0  0  0  0  0  0  0  0
   10.2836   -2.1848    6.0621 C   0  0  0  0  0  0  0  0  0  0  0  0
   10.0880   -3.2903    5.2199 C   0  0  0  0  0  0  0  0  0  0  0  0
   11.5178   -4.2434    5.1029 S   0  0  0  0  0  0  0  0  0  0  0  0
   12.4029   -3.0776    6.0895 C   0  0  0  0  0  0  0  0  0  0  0  0
   11.5861   -2.0582    6.5649 C   0  0  0  0  0  0  0  0  0  0  0  0
   11.9973   -1.0417    7.5757 C   0  0  0  0  0  0  0  0  0  0  0  0
   11.0567   -1.0113    8.7794 C   0  0  0  0  0  0  0  0  0  0  0  0
   13.7791   -3.3261    6.2763 C   0  0  0  0  0  0  0  0  0  0  0  0
   14.7658   -2.3800    6.3433 C   0  0  0  0  0  0  0  0  0  0  0  0
   16.1581   -2.6208    6.6574 C   0  0  0  0  0  0  0  0  0  0  0  0
   16.6650   -3.7301    7.2824 C   0  0  0  0  0  0  0  0  0  0  0  0
   18.0296   -3.9152    7.5846 C   0  0  0  0  0  0  0  0  0  0  0  0
   19.1265   -4.1276    7.8489 N   0  0  0  0  0  0  0  0  0  0  0  0
   15.8852   -4.8158    7.7334 C   0  0  0  0  0  0  0  0  0  0  0  0
   15.3067   -5.7184    8.1451 N   0  0  0  0  0  0  0  0  0  0  0  0
   16.9123   -1.4307    6.2720 C   0  0  0  0  0  0  0  0  0  0  0  0
   18.2678   -1.1460    6.3175 C   0  0  0  0  0  0  0  0  0  0  0  0
   18.6978    0.0989    5.8761 C   0  0  0  0  0  0  0  0  0  0  0  0
   17.8049    1.0462    5.3965 C   0  0  0  0  0  0  0  0  0  0  0  0
   16.4461    0.7682    5.3401 C   0  0  0  0  0  0  0  0  0  0  0  0
   16.0142   -0.4667    5.7818 C   0  0  0  0  0  0  0  0  0  0  0  0
   14.6374   -1.0014    5.8138 C   0  0  0  0  0  0  0  0  0  0  0  0
   13.6393   -0.4529    5.3958 O   0  0  0  0  0  0  0  0  0  0  0  0
   -2.6045   -4.1384   -8.3281 C   0  0  0  0  0  0  0  0  0  0  0  0
   -3.6582   -4.9668   -8.6701 C   0  0  0  0  0  0  0  0  0  0  0  0
   -4.3988   -4.4494   -9.7503 C   0  0  0  0  0  0  0  0  0  0  0  0
   -3.9151   -3.2664  -10.2460 C   0  0  0  0  0  0  0  0  0  0  0  0
   -2.4985   -2.7632   -9.3889 S   0  0  0  0  0  0  0  0  0  0  0  0
   -6.2072    1.0993  -12.5482 C   0  0  0  0  0  0  0  0  0  0  0  0
   -5.8613    2.1087  -13.4048 C   0  0  0  0  0  0  0  0  0  0  0  0
   -6.5454    3.3207  -13.1738 C   0  0  0  0  0  0  0  0  0  0  0  0
   -7.4078    3.2364  -12.0983 C   0  0  0  0  0  0  0  0  0  0  0  0
   -7.4323    1.6172  -11.4429 S   0  0  0  0  0  0  0  0  0  0  0  0
   -6.3084    4.5119  -14.0504 C   0  0  0  0  0  0  0  0  0  0  0  0
   -4.9564    5.1652  -13.7529 C   0  0  0  0  0  0  0  0  0  0  0  0
   -4.0344   -6.2152   -7.9290 C   0  0  0  0  0  0  0  0  0  0  0  0
   -5.5028   -6.6001   -8.0807 C   0  0  0  0  0  0  0  0  0  0  0  0
   -4.5072   -2.3554  -11.1917 C   0  0  0  0  0  0  0  0  0  0  0  0
   -3.7141   -1.4769  -11.8112 N   0  0  0  0  0  0  0  0  0  0  0  0
   -4.2534   -0.4588  -12.4368 C   0  0  0  0  0  0  0  0  0  0  0  0
   -5.6322   -0.2061  -12.3313 C   0  0  0  0  0  0  0  0  0  0  0  0
   -6.4324   -1.1664  -11.8600 N   0  0  0  0  0  0  0  0  0  0  0  0
   -5.8998   -2.2571  -11.3679 C   0  0  0  0  0  0  0  0  0  0  0  0
   -3.5639   -0.7370    5.7481 H   0  0  0  0  0  0  0  0  0  0  0  0
   -1.8607   -2.5327    5.9788 H   0  0  0  0  0  0  0  0  0  0  0  0
    1.2457    0.3840    6.3172 H   0  0  0  0  0  0  0  0  0  0  0  0
   -1.1750    4.9216    4.8667 H   0  0  0  0  0  0  0  0  0  0  0  0
   -4.9982    3.5760    6.5797 H   0  0  0  0  0  0  0  0  0  0  0  0
   -6.0654    4.9838    6.6313 H   0  0  0  0  0  0  0  0  0  0  0  0
   -4.5712    4.9527    8.6065 H   0  0  0  0  0  0  0  0  0  0  0  0
   -3.1454    4.9522    7.5663 H   0  0  0  0  0  0  0  0  0  0  0  0
   -4.2126    6.3561    7.5983 H   0  0  0  0  0  0  0  0  0  0  0  0
   -3.6483    6.8032    0.7954 H   0  0  0  0  0  0  0  0  0  0  0  0
   -4.1462    8.0225   -0.3630 H   0  0  0  0  0  0  0  0  0  0  0  0
   -4.8815    5.0420   -0.3815 H   0  0  0  0  0  0  0  0  0  0  0  0
   -3.7921    5.8472   -1.5123 H   0  0  0  0  0  0  0  0  0  0  0  0
   -5.5269    6.1960   -1.5452 H   0  0  0  0  0  0  0  0  0  0  0  0
   -5.7168    9.5073   -3.1391 H   0  0  0  0  0  0  0  0  0  0  0  0
   -4.8701    8.3742   -2.1039 H   0  0  0  0  0  0  0  0  0  0  0  0
   -4.3676   10.7057   -1.4115 H   0  0  0  0  0  0  0  0  0  0  0  0
   -5.3419    9.9653   -0.1339 H   0  0  0  0  0  0  0  0  0  0  0  0
   -6.0899   11.0699   -1.2825 H   0  0  0  0  0  0  0  0  0  0  0  0
  -11.6334    8.4077   -6.2228 H   0  0  0  0  0  0  0  0  0  0  0  0
  -10.8945    9.2948   -7.5627 H   0  0  0  0  0  0  0  0  0  0  0  0
  -11.0386   11.4120   -6.2309 H   0  0  0  0  0  0  0  0  0  0  0  0
  -11.8114   10.5241   -4.9119 H   0  0  0  0  0  0  0  0  0  0  0  0
  -12.6268   10.6792   -6.4687 H   0  0  0  0  0  0  0  0  0  0  0  0
   -7.1926    9.5569   -8.1591 H   0  0  0  0  0  0  0  0  0  0  0  0
   -6.9193    5.9186  -11.9328 H   0  0  0  0  0  0  0  0  0  0  0  0
   -9.5303    2.8020  -10.5751 H   0  0  0  0  0  0  0  0  0  0  0  0
  -10.4788    4.3110   -8.8607 H   0  0  0  0  0  0  0  0  0  0  0  0
    3.6599   -3.7570    6.8956 H   0  0  0  0  0  0  0  0  0  0  0  0
    2.6980   -8.8204    1.1576 H   0  0  0  0  0  0  0  0  0  0  0  0
    6.8114   -9.9602    0.5029 H   0  0  0  0  0  0  0  0  0  0  0  0
    5.0519  -11.1015   -0.9765 H   0  0  0  0  0  0  0  0  0  0  0  0
    3.4975  -11.3035   -0.1580 H   0  0  0  0  0  0  0  0  0  0  0  0
    3.1854  -10.4767   -2.4855 H   0  0  0  0  0  0  0  0  0  0  0  0
    4.1483   -9.0412   -2.1071 H   0  0  0  0  0  0  0  0  0  0  0  0
    2.5930   -9.3104   -1.3111 H   0  0  0  0  0  0  0  0  0  0  0  0
    3.3362   -1.1547    7.9604 H   0  0  0  0  0  0  0  0  0  0  0  0
    1.6443   -0.7224    8.2330 H   0  0  0  0  0  0  0  0  0  0  0  0
    3.0070   -3.2446    9.2957 H   0  0  0  0  0  0  0  0  0  0  0  0
    2.6001   -1.8069   10.2353 H   0  0  0  0  0  0  0  0  0  0  0  0
    1.3167   -2.8097    9.5528 H   0  0  0  0  0  0  0  0  0  0  0  0
    5.5229   -6.8217    4.4151 H   0  0  0  0  0  0  0  0  0  0  0  0
    0.8910   -5.8089    3.6179 H   0  0  0  0  0  0  0  0  0  0  0  0
   -0.3424   -2.0335   -4.9208 H   0  0  0  0  0  0  0  0  0  0  0  0
   -1.6706   -2.0539   -7.0163 H   0  0  0  0  0  0  0  0  0  0  0  0
   -1.5225   -6.3283   -7.1251 H   0  0  0  0  0  0  0  0  0  0  0  0
    1.8046   -7.4816   -2.7965 H   0  0  0  0  0  0  0  0  0  0  0  0
   -0.7337   -5.2864   -1.3265 H   0  0  0  0  0  0  0  0  0  0  0  0
   -0.3777   -3.6609   -0.7339 H   0  0  0  0  0  0  0  0  0  0  0  0
   -0.5505   -4.4414    1.6104 H   0  0  0  0  0  0  0  0  0  0  0  0
   -0.7477   -6.1110    1.0644 H   0  0  0  0  0  0  0  0  0  0  0  0
   -2.0002   -4.9122    0.7258 H   0  0  0  0  0  0  0  0  0  0  0  0
    5.9304   -5.8949    0.2172 H   0  0  0  0  0  0  0  0  0  0  0  0
    7.2744   -5.7167    1.3368 H   0  0  0  0  0  0  0  0  0  0  0  0
    7.7124   -4.4269   -0.7347 H   0  0  0  0  0  0  0  0  0  0  0  0
    6.1992   -3.5415   -0.5285 H   0  0  0  0  0  0  0  0  0  0  0  0
    7.5161   -3.3050    0.6213 H   0  0  0  0  0  0  0  0  0  0  0  0
    8.9247   -5.8595    4.3976 H   0  0  0  0  0  0  0  0  0  0  0  0
    7.6303   -6.0164    3.2128 H   0  0  0  0  0  0  0  0  0  0  0  0
   10.4963   -5.0050    2.7736 H   0  0  0  0  0  0  0  0  0  0  0  0
    9.2672   -4.8762    1.5231 H   0  0  0  0  0  0  0  0  0  0  0  0
    9.7767   -6.4676    2.1054 H   0  0  0  0  0  0  0  0  0  0  0  0
   12.0135   -0.0607    7.0932 H   0  0  0  0  0  0  0  0  0  0  0  0
   13.0108   -1.2618    7.9151 H   0  0  0  0  0  0  0  0  0  0  0  0
   10.9962   -1.9960    9.2384 H   0  0  0  0  0  0  0  0  0  0  0  0
   10.0574   -0.6987    8.4910 H   0  0  0  0  0  0  0  0  0  0  0  0
   11.4348   -0.3095    9.5183 H   0  0  0  0  0  0  0  0  0  0  0  0
   14.0668   -4.3714    6.2818 H   0  0  0  0  0  0  0  0  0  0  0  0
   18.9837   -1.8664    6.6784 H   0  0  0  0  0  0  0  0  0  0  0  0
   19.7520    0.3301    5.9069 H   0  0  0  0  0  0  0  0  0  0  0  0
   18.1712    2.0056    5.0633 H   0  0  0  0  0  0  0  0  0  0  0  0
   15.7343    1.4884    4.9670 H   0  0  0  0  0  0  0  0  0  0  0  0
   -5.2676   -4.9310  -10.1589 H   0  0  0  0  0  0  0  0  0  0  0  0
   -5.1398    1.9873  -14.1937 H   0  0  0  0  0  0  0  0  0  0  0  0
   -6.3121    4.1770  -15.0908 H   0  0  0  0  0  0  0  0  0  0  0  0
   -7.1107    5.2402  -13.9360 H   0  0  0  0  0  0  0  0  0  0  0  0
   -4.8729    5.4289  -12.7006 H   0  0  0  0  0  0  0  0  0  0  0  0
   -4.1423    4.4857  -13.9943 H   0  0  0  0  0  0  0  0  0  0  0  0
   -4.8454    6.0716  -14.3410 H   0  0  0  0  0  0  0  0  0  0  0  0
   -3.4166   -7.0473   -8.2803 H   0  0  0  0  0  0  0  0  0  0  0  0
   -3.8121   -6.0722   -6.8680 H   0  0  0  0  0  0  0  0  0  0  0  0
   -5.7277   -6.9018   -9.1004 H   0  0  0  0  0  0  0  0  0  0  0  0
   -5.7253   -7.4397   -7.4269 H   0  0  0  0  0  0  0  0  0  0  0  0
   -6.1499   -5.7693   -7.8073 H   0  0  0  0  0  0  0  0  0  0  0  0
   -3.5811    0.1999  -12.9674 H   0  0  0  0  0  0  0  0  0  0  0  0
   -6.5833   -3.0299  -11.0481 H   0  0  0  0  0  0  0  0  0  0  0  0
  1  2  2  0  0  0  0
  1  3  1  0  0  0  0
  3  4  2  0  0  0  0
  4  5  1  0  0  0  0
  5  6  2  0  0  0  0
  6  7  1  0  0  0  0
  7  8  2  0  0  0  0
  3  8  1  0  0  0  0
  8  9  1  0  0  0  0
  9 10  2  0  0  0  0
 10 11  1  0  0  0  0
 11 12  3  0  0  0  0
 10 13  1  0  0  0  0
 13 14  3  0  0  0  0
  9 15  1  0  0  0  0
  1 15  1  0  0  0  0
 15 16  2  0  0  0  0
 16 17  1  0  0  0  0
 17 18  1  0  0  0  0
 18 19  1  0  0  0  0
 19 20  2  0  0  0  0
 20 21  1  0  0  0  0
 21 22  1  0  0  0  0
 22 23  1  0  0  0  0
 17 21  2  0  0  0  0
 20 24  1  0  0  0  0
 24 25  1  0  0  0  0
 25 26  2  0  0  0  0
 19 26  1  0  0  0  0
 26 27  1  0  0  0  0
 27 28  1  0  0  0  0
 28 29  1  0  0  0  0
 27 30  1  0  0  0  0
 30 31  2  0  0  0  0
 25 31  1  0  0  0  0
 31 32  1  0  0  0  0
 32 33  2  0  0  0  0
 33 34  1  0  0  0  0
 34 35  1  0  0  0  0
 35 36  2  0  0  0  0
 32 36  1  0  0  0  0
 36 37  1  0  0  0  0
 37 38  2  0  0  0  0
 30 38  1  0  0  0  0
 38 39  1  0  0  0  0
 39 40  1  0  0  0  0
 40 41  1  0  0  0  0
 39 42  1  0  0  0  0
 42 43  2  0  0  0  0
 37 43  1  0  0  0  0
 43 44  1  0  0  0  0
 44 45  1  0  0  0  0
 45 46  2  0  0  0  0
 42 46  1  0  0  0  0
 46 47  1  0  0  0  0
 47 48  1  0  0  0  0
 48 49  2  0  0  0  0
 45 49  1  0  0  0  0
 49 50  1  0  0  0  0
 50 51  1  0  0  0  0
 48 52  1  0  0  0  0
 52 53  2  0  0  0  0
 53 54  1  0  0  0  0
 54 55  2  0  0  0  0
 55 56  1  0  0  0  0
 56 57  3  0  0  0  0
 55 58  1  0  0  0  0
 58 59  3  0  0  0  0
 54 60  1  0  0  0  0
 60 61  2  0  0  0  0
 61 62  1  0  0  0  0
 62 63  2  0  0  0  0
 63 64  1  0  0  0  0
 64 65  2  0  0  0  0
 60 65  1  0  0  0  0
 65 66  1  0  0  0  0
 66 67  2  0  0  0  0
 53 66  1  0  0  0  0
  6 68  1  0  0  0  0
 68 69  2  0  0  0  0
 69 70  1  0  0  0  0
 70 71  2  0  0  0  0
 71 72  1  0  0  0  0
 72 68  1  0  0  0  0
 73 74  2  0  0  0  0
 74 75  1  0  0  0  0
 75 76  2  0  0  0  0
 76 77  1  0  0  0  0
 77 73  1  0  0  0  0
 75 78  1  0  0  0  0
 78 79  1  0  0  0  0
 69 80  1  0  0  0  0
 80 81  1  0  0  0  0
 71 82  1  0  0  0  0
 82 83  2  0  0  0  0
 83 84  1  0  0  0  0
 84 85  2  0  0  0  0
 85 86  1  0  0  0  0
 86 87  2  0  0  0  0
 87 82  1  0  0  0  0
 85 73  1  0  0  0  0
 88 89  2  0  0  0  0
 88 90  1  0  0  0  0
 90 91  2  0  0  0  0
 91 92  1  0  0  0  0
 92 93  2  0  0  0  0
 93 94  1  0  0  0  0
 94 95  2  0  0  0  0
 90 95  1  0  0  0  0
 95 96  1  0  0  0  0
 96 97  2  0  0  0  0
 97 98  1  0  0  0  0
 98 99  3  0  0  0  0
 97100  1  0  0  0  0
100101  3  0  0  0  0
 96102  1  0  0  0  0
 88102  1  0  0  0  0
102103  2  0  0  0  0
103104  1  0  0  0  0
104105  1  0  0  0  0
105106  1  0  0  0  0
106107  2  0  0  0  0
107108  1  0  0  0  0
108109  1  0  0  0  0
109110  1  0  0  0  0
104108  2  0  0  0  0
107111  1  0  0  0  0
111112  1  0  0  0  0
112113  2  0  0  0  0
106113  1  0  0  0  0
113114  1  0  0  0  0
114115  1  0  0  0  0
115116  1  0  0  0  0
114117  1  0  0  0  0
117118  2  0  0  0  0
112118  1  0  0  0  0
118119  1  0  0  0  0
119120  2  0  0  0  0
120121  1  0  0  0  0
121122  1  0  0  0  0
122123  2  0  0  0  0
119123  1  0  0  0  0
123124  1  0  0  0  0
124125  2  0  0  0  0
117125  1  0  0  0  0
125126  1  0  0  0  0
126127  1  0  0  0  0
127128  1  0  0  0  0
126129  1  0  0  0  0
129130  2  0  0  0  0
124130  1  0  0  0  0
130131  1  0  0  0  0
131132  1  0  0  0  0
132133  2  0  0  0  0
129133  1  0  0  0  0
133134  1  0  0  0  0
134135  1  0  0  0  0
135136  2  0  0  0  0
132136  1  0  0  0  0
136137  1  0  0  0  0
137138  1  0  0  0  0
135139  1  0  0  0  0
139140  2  0  0  0  0
140141  1  0  0  0  0
141142  2  0  0  0  0
142143  1  0  0  0  0
143144  3  0  0  0  0
142145  1  0  0  0  0
145146  3  0  0  0  0
141147  1  0  0  0  0
147148  2  0  0  0  0
148149  1  0  0  0  0
149150  2  0  0  0  0
150151  1  0  0  0  0
151152  2  0  0  0  0
147152  1  0  0  0  0
152153  1  0  0  0  0
153154  2  0  0  0  0
140153  1  0  0  0  0
 93155  1  0  0  0  0
155156  2  0  0  0  0
156157  1  0  0  0  0
157158  2  0  0  0  0
158159  1  0  0  0  0
159155  1  0  0  0  0
160161  2  0  0  0  0
161162  1  0  0  0  0
162163  2  0  0  0  0
163164  1  0  0  0  0
164160  1  0  0  0  0
162165  1  0  0  0  0
165166  1  0  0  0  0
156167  1  0  0  0  0
167168  1  0  0  0  0
158169  1  0  0  0  0
169170  2  0  0  0  0
170171  1  0  0  0  0
171172  2  0  0  0  0
172173  1  0  0  0  0
173174  2  0  0  0  0
174169  1  0  0  0  0
172160  1  0  0  0  0
 62163  1  0  0  0  0
  4175  1  0  0  0  0
  5176  1  0  0  0  0
  7177  1  0  0  0  0
 16178  1  0  0  0  0
 22179  1  0  0  0  0
 22180  1  0  0  0  0
 23181  1  0  0  0  0
 23182  1  0  0  0  0
 23183  1  0  0  0  0
 28184  1  0  0  0  0
 28185  1  0  0  0  0
 29186  1  0  0  0  0
 29187  1  0  0  0  0
 29188  1  0  0  0  0
 40189  1  0  0  0  0
 40190  1  0  0  0  0
 41191  1  0  0  0  0
 41192  1  0  0  0  0
 41193  1  0  0  0  0
 50194  1  0  0  0  0
 50195  1  0  0  0  0
 51196  1  0  0  0  0
 51197  1  0  0  0  0
 51198  1  0  0  0  0
 52199  1  0  0  0  0
 61200  1  0  0  0  0
 63201  1  0  0  0  0
 64202  1  0  0  0  0
 70203  1  0  0  0  0
 74204  1  0  0  0  0
 76205  1  0  0  0  0
 78206  1  0  0  0  0
 78207  1  0  0  0  0
 79208  1  0  0  0  0
 79209  1  0  0  0  0
 79210  1  0  0  0  0
 80211  1  0  0  0  0
 80212  1  0  0  0  0
 81213  1  0  0  0  0
 81214  1  0  0  0  0
 81215  1  0  0  0  0
 84216  1  0  0  0  0
 87217  1  0  0  0  0
 91218  1  0  0  0  0
 92219  1  0  0  0  0
 94220  1  0  0  0  0
103221  1  0  0  0  0
109222  1  0  0  0  0
109223  1  0  0  0  0
110224  1  0  0  0  0
110225  1  0  0  0  0
110226  1  0  0  0  0
115227  1  0  0  0  0
115228  1  0  0  0  0
116229  1  0  0  0  0
116230  1  0  0  0  0
116231  1  0  0  0  0
127232  1  0  0  0  0
127233  1  0  0  0  0
128234  1  0  0  0  0
128235  1  0  0  0  0
128236  1  0  0  0  0
137237  1  0  0  0  0
137238  1  0  0  0  0
138239  1  0  0  0  0
138240  1  0  0  0  0
138241  1  0  0  0  0
139242  1  0  0  0  0
148243  1  0  0  0  0
149244  1  0  0  0  0
150245  1  0  0  0  0
151246  1  0  0  0  0
157247  1  0  0  0  0
161248  1  0  0  0  0
165249  1  0  0  0  0
165250  1  0  0  0  0
166251  1  0  0  0  0
166252  1  0  0  0  0
166253  1  0  0  0  0
167254  1  0  0  0  0
167255  1  0  0  0  0
168256  1  0  0  0  0
168257  1  0  0  0  0
168258  1  0  0  0  0
171259  1  0  0  0  0
174260  1  0  0  0  0
M  END
