PYTT-2_dimer.sdf
  xtb     12222120303D
 energy: -365.041331982995 gnorm: 0.000588841076 xtb: 6.4.1 (unknown)
194219  0     0  0            999 V2000
   15.1888  -13.4194   18.8386 C   0  0  0  0  0  0  0  0  0  0  0  0
   14.2565  -13.8086   19.5032 O   0  0  0  0  0  0  0  0  0  0  0  0
   16.5685  -13.1360   19.2629 C   0  0  0  0  0  0  0  0  0  0  0  0
   17.2774  -12.6470   18.1700 C   0  0  0  0  0  0  0  0  0  0  0  0
   16.4460  -12.5472   17.0057 C   0  0  0  0  0  0  0  0  0  0  0  0
   16.7513  -11.8216   15.8764 C   0  0  0  0  0  0  0  0  0  0  0  0
   18.0243  -11.2403   15.7151 C   0  0  0  0  0  0  0  0  0  0  0  0
   19.0687  -10.7847   15.5759 N   0  0  0  0  0  0  0  0  0  0  0  0
   15.8277  -11.5149   14.8623 C   0  0  0  0  0  0  0  0  0  0  0  0
   15.0932  -11.2192   14.0308 N   0  0  0  0  0  0  0  0  0  0  0  0
   15.1842  -13.1627   17.3642 C   0  0  0  0  0  0  0  0  0  0  0  0
   14.1066  -13.5609   16.6357 C   0  0  0  0  0  0  0  0  0  0  0  0
   13.9345  -13.7793   15.2480 C   0  0  0  0  0  0  0  0  0  0  0  0
   12.2892  -13.5508   14.6523 S   0  0  0  0  0  0  0  0  0  0  0  0
   12.7616  -14.0186   13.0654 C   0  0  0  0  0  0  0  0  0  0  0  0
   14.1139  -14.3758   13.0336 C   0  0  0  0  0  0  0  0  0  0  0  0
   14.7885  -14.2448   14.2553 C   0  0  0  0  0  0  0  0  0  0  0  0
   16.1933  -14.7286   14.4236 C   0  0  0  0  0  0  0  0  0  0  0  0
   16.2829  -15.9026   15.3993 C   0  0  0  0  0  0  0  0  0  0  0  0
   14.6476  -14.9234   11.4604 S   0  0  0  0  0  0  0  0  0  0  0  0
   13.0476  -14.6670   10.8575 C   0  0  0  0  0  0  0  0  0  0  0  0
   12.1548  -14.1754   11.8148 C   0  0  0  0  0  0  0  0  0  0  0  0
   10.9131  -14.0197   11.2629 N   0  0  0  0  0  0  0  0  0  0  0  0
    9.7735  -13.8083   12.1259 C   0  0  0  0  0  0  0  0  0  0  0  0
   10.9793  -14.4334    9.9429 C   0  0  0  0  0  0  0  0  0  0  0  0
   12.3147  -14.8571    9.6778 C   0  0  0  0  0  0  0  0  0  0  0  0
   12.6861  -15.4471    8.4497 C   0  0  0  0  0  0  0  0  0  0  0  0
   13.8721  -15.9008    8.0754 N   0  0  0  0  0  0  0  0  0  0  0  0
   13.7289  -16.5552    6.6023 S   0  0  0  0  0  0  0  0  0  0  0  0
   12.1470  -16.2883    6.3858 N   0  0  0  0  0  0  0  0  0  0  0  0
   11.6762  -15.6717    7.4585 C   0  0  0  0  0  0  0  0  0  0  0  0
   10.3664  -15.2046    7.7028 C   0  0  0  0  0  0  0  0  0  0  0  0
   10.0164  -14.5167    8.9013 C   0  0  0  0  0  0  0  0  0  0  0  0
    8.6959  -14.1077    8.7964 N   0  0  0  0  0  0  0  0  0  0  0  0
    7.9848  -13.0592    9.4962 C   0  0  0  0  0  0  0  0  0  0  0  0
    8.7331  -11.7309    9.4221 C   0  0  0  0  0  0  0  0  0  0  0  0
    8.2177  -14.5484    7.5913 C   0  0  0  0  0  0  0  0  0  0  0  0
    9.2180  -15.2379    6.8999 C   0  0  0  0  0  0  0  0  0  0  0  0
    8.7019  -15.8698    5.3770 S   0  0  0  0  0  0  0  0  0  0  0  0
    7.1079  -15.2074    5.6645 C   0  0  0  0  0  0  0  0  0  0  0  0
    7.0091  -14.5338    6.8891 C   0  0  0  0  0  0  0  0  0  0  0  0
    5.4043  -13.9793    7.1643 S   0  0  0  0  0  0  0  0  0  0  0  0
    4.8839  -14.6174    5.6057 C   0  0  0  0  0  0  0  0  0  0  0  0
    5.9156  -15.2568    4.9285 C   0  0  0  0  0  0  0  0  0  0  0  0
    5.7774  -16.0739    3.6818 C   0  0  0  0  0  0  0  0  0  0  0  0
    6.7540  -15.6555    2.5820 C   0  0  0  0  0  0  0  0  0  0  0  0
    3.4969  -14.5306    5.3371 C   0  0  0  0  0  0  0  0  0  0  0  0
    2.8196  -14.4598    4.1590 C   0  0  0  0  0  0  0  0  0  0  0  0
    3.2325  -14.1208    2.8129 C   0  0  0  0  0  0  0  0  0  0  0  0
    4.2977  -13.3474    2.4256 C   0  0  0  0  0  0  0  0  0  0  0  0
    4.5174  -13.0352    1.0695 C   0  0  0  0  0  0  0  0  0  0  0  0
    4.7076  -12.7938   -0.0361 N   0  0  0  0  0  0  0  0  0  0  0  0
    5.1976  -12.7527    3.3287 C   0  0  0  0  0  0  0  0  0  0  0  0
    5.9272  -12.2199    4.0371 N   0  0  0  0  0  0  0  0  0  0  0  0
    2.1540  -14.5460    1.9598 C   0  0  0  0  0  0  0  0  0  0  0  0
    1.0540  -14.9693    2.6939 C   0  0  0  0  0  0  0  0  0  0  0  0
    1.3795  -14.8460    4.1231 C   0  0  0  0  0  0  0  0  0  0  0  0
    0.6769  -15.0363    5.0925 O   0  0  0  0  0  0  0  0  0  0  0  0
    8.9238  -15.0706   12.2502 C   0  0  0  0  0  0  0  0  0  0  0  0
   -0.0237  -15.3892    1.8667 C   0  0  0  0  0  0  0  0  0  0  0  0
    0.3220  -15.2464    0.5386 C   0  0  0  0  0  0  0  0  0  0  0  0
    1.8950  -14.6152    0.2691 S   0  0  0  0  0  0  0  0  0  0  0  0
   18.8952  -12.2490   18.5710 S   0  0  0  0  0  0  0  0  0  0  0  0
   18.6217  -12.7653   20.2238 C   0  0  0  0  0  0  0  0  0  0  0  0
   17.3289  -13.2035   20.4307 C   0  0  0  0  0  0  0  0  0  0  0  0
   19.6781  -12.6952   21.1756 C   0  0  0  0  0  0  0  0  0  0  0  0
   19.4362  -13.2134   22.8216 S   0  0  0  0  0  0  0  0  0  0  0  0
   21.0590  -12.8245   23.2150 C   0  0  0  0  0  0  0  0  0  0  0  0
   21.7471  -12.3269   22.1512 C   0  0  0  0  0  0  0  0  0  0  0  0
   20.9649  -12.2510   20.9874 C   0  0  0  0  0  0  0  0  0  0  0  0
   -7.3663  -19.5491    0.2327 C   0  0  0  0  0  0  0  0  0  0  0  0
   -7.2799  -19.8029   -0.9465 O   0  0  0  0  0  0  0  0  0  0  0  0
   -6.4223  -18.8091    1.0865 C   0  0  0  0  0  0  0  0  0  0  0  0
   -6.9078  -18.8111    2.3914 C   0  0  0  0  0  0  0  0  0  0  0  0
   -8.1320  -19.5490    2.4999 C   0  0  0  0  0  0  0  0  0  0  0  0
   -8.6751  -19.9854    3.6859 C   0  0  0  0  0  0  0  0  0  0  0  0
   -8.1409  -19.5578    4.9176 C   0  0  0  0  0  0  0  0  0  0  0  0
   -7.7222  -19.1929    5.9223 N   0  0  0  0  0  0  0  0  0  0  0  0
   -9.6997  -20.9387    3.8102 C   0  0  0  0  0  0  0  0  0  0  0  0
  -10.4899  -21.7538    3.9851 N   0  0  0  0  0  0  0  0  0  0  0  0
   -8.5028  -19.8993    1.1377 C   0  0  0  0  0  0  0  0  0  0  0  0
   -9.6495  -20.4076    0.6137 C   0  0  0  0  0  0  0  0  0  0  0  0
  -10.9348  -20.5065    1.2027 C   0  0  0  0  0  0  0  0  0  0  0  0
  -11.9084  -21.9064    0.7636 S   0  0  0  0  0  0  0  0  0  0  0  0
  -13.1763  -21.3816    1.8035 C   0  0  0  0  0  0  0  0  0  0  0  0
  -12.8735  -20.1466    2.3888 C   0  0  0  0  0  0  0  0  0  0  0  0
  -11.6052  -19.6449    2.0584 C   0  0  0  0  0  0  0  0  0  0  0  0
  -11.1153  -18.2991    2.4866 C   0  0  0  0  0  0  0  0  0  0  0  0
  -12.0774  -17.1886    2.0633 C   0  0  0  0  0  0  0  0  0  0  0  0
  -14.1367  -19.5615    3.4466 S   0  0  0  0  0  0  0  0  0  0  0  0
  -15.0540  -20.9848    3.1042 C   0  0  0  0  0  0  0  0  0  0  0  0
  -14.4196  -21.8661    2.2244 C   0  0  0  0  0  0  0  0  0  0  0  0
  -15.2059  -22.9663    2.0163 N   0  0  0  0  0  0  0  0  0  0  0  0
  -14.8992  -23.8649    0.9272 C   0  0  0  0  0  0  0  0  0  0  0  0
  -16.3704  -22.8029    2.7485 C   0  0  0  0  0  0  0  0  0  0  0  0
  -16.2972  -21.5482    3.4216 C   0  0  0  0  0  0  0  0  0  0  0  0
  -17.3781  -21.0281    4.1661 C   0  0  0  0  0  0  0  0  0  0  0  0
  -17.4594  -19.8745    4.8103 N   0  0  0  0  0  0  0  0  0  0  0  0
  -18.9477  -19.7399    5.4327 S   0  0  0  0  0  0  0  0  0  0  0  0
  -19.5463  -21.1473    4.9021 N   0  0  0  0  0  0  0  0  0  0  0  0
  -18.5994  -21.7747    4.2221 C   0  0  0  0  0  0  0  0  0  0  0  0
  -18.6454  -23.0495    3.6172 C   0  0  0  0  0  0  0  0  0  0  0  0
  -17.5257  -23.6099    2.9361 C   0  0  0  0  0  0  0  0  0  0  0  0
  -17.8552  -24.9006    2.5524 N   0  0  0  0  0  0  0  0  0  0  0  0
  -17.0047  -26.0176    2.2032 C   0  0  0  0  0  0  0  0  0  0  0  0
  -15.9768  -26.3007    3.2955 C   0  0  0  0  0  0  0  0  0  0  0  0
  -19.1399  -25.1428    2.9593 C   0  0  0  0  0  0  0  0  0  0  0  0
  -19.6594  -24.0170    3.6035 C   0  0  0  0  0  0  0  0  0  0  0  0
  -21.2860  -24.2165    4.1502 S   0  0  0  0  0  0  0  0  0  0  0  0
  -21.2788  -25.8465    3.5153 C   0  0  0  0  0  0  0  0  0  0  0  0
  -20.0674  -26.1885    2.9022 C   0  0  0  0  0  0  0  0  0  0  0  0
  -20.1332  -27.7742    2.2370 S   0  0  0  0  0  0  0  0  0  0  0  0
  -21.7685  -27.9946    2.8525 C   0  0  0  0  0  0  0  0  0  0  0  0
  -22.2459  -26.8636    3.4988 C   0  0  0  0  0  0  0  0  0  0  0  0
  -23.6541  -26.6531    3.9629 C   0  0  0  0  0  0  0  0  0  0  0  0
  -23.7452  -26.1859    5.4157 C   0  0  0  0  0  0  0  0  0  0  0  0
  -22.4058  -29.2186    2.5202 C   0  0  0  0  0  0  0  0  0  0  0  0
  -23.3101  -29.9476    3.2238 C   0  0  0  0  0  0  0  0  0  0  0  0
  -23.7066  -29.9077    4.6211 C   0  0  0  0  0  0  0  0  0  0  0  0
  -22.9832  -29.4581    5.6962 C   0  0  0  0  0  0  0  0  0  0  0  0
  -23.4891  -29.5712    7.0072 C   0  0  0  0  0  0  0  0  0  0  0  0
  -23.9047  -29.6454    8.0742 N   0  0  0  0  0  0  0  0  0  0  0  0
  -21.6797  -28.9344    5.6175 C   0  0  0  0  0  0  0  0  0  0  0  0
  -20.6008  -28.5420    5.6169 N   0  0  0  0  0  0  0  0  0  0  0  0
  -24.9179  -30.6798    4.7045 C   0  0  0  0  0  0  0  0  0  0  0  0
  -25.1913  -31.3227    3.5042 C   0  0  0  0  0  0  0  0  0  0  0  0
  -24.1568  -30.9626    2.5228 C   0  0  0  0  0  0  0  0  0  0  0  0
  -24.0176  -31.3553    1.3877 O   0  0  0  0  0  0  0  0  0  0  0  0
  -15.8804  -23.6969   -0.2305 C   0  0  0  0  0  0  0  0  0  0  0  0
  -26.3388  -32.1312    3.5674 C   0  0  0  0  0  0  0  0  0  0  0  0
  -26.9042  -32.0812    4.8072 C   0  0  0  0  0  0  0  0  0  0  0  0
  -26.0562  -31.0713    5.9228 S   0  0  0  0  0  0  0  0  0  0  0  0
   -5.8467  -18.0241    3.4822 S   0  0  0  0  0  0  0  0  0  0  0  0
   -4.7409  -17.6760    2.1667 C   0  0  0  0  0  0  0  0  0  0  0  0
   -5.1932  -18.1631    0.9552 C   0  0  0  0  0  0  0  0  0  0  0  0
   -3.5216  -16.9975    2.4370 C   0  0  0  0  0  0  0  0  0  0  0  0
   -2.4002  -16.6117    1.1643 S   0  0  0  0  0  0  0  0  0  0  0  0
   -1.2847  -15.9168    2.3072 C   0  0  0  0  0  0  0  0  0  0  0  0
   -1.7811  -15.9843    3.5872 C   0  0  0  0  0  0  0  0  0  0  0  0
   -3.0375  -16.5879    3.6599 C   0  0  0  0  0  0  0  0  0  0  0  0
   13.2303  -13.7837   17.2410 H   0  0  0  0  0  0  0  0  0  0  0  0
   16.8455  -13.9228   14.7657 H   0  0  0  0  0  0  0  0  0  0  0  0
   16.5535  -15.0472   13.4430 H   0  0  0  0  0  0  0  0  0  0  0  0
   15.9397  -15.6165   16.3907 H   0  0  0  0  0  0  0  0  0  0  0  0
   17.3127  -16.2425   15.4740 H   0  0  0  0  0  0  0  0  0  0  0  0
   15.6704  -16.7301   15.0491 H   0  0  0  0  0  0  0  0  0  0  0  0
    9.1861  -12.9570   11.7826 H   0  0  0  0  0  0  0  0  0  0  0  0
   10.1731  -13.5463   13.1086 H   0  0  0  0  0  0  0  0  0  0  0  0
    7.7800  -13.3516   10.5263 H   0  0  0  0  0  0  0  0  0  0  0  0
    7.0188  -12.9549    8.9961 H   0  0  0  0  0  0  0  0  0  0  0  0
    9.7327  -11.8151    9.8421 H   0  0  0  0  0  0  0  0  0  0  0  0
    8.1852  -10.9669    9.9670 H   0  0  0  0  0  0  0  0  0  0  0  0
    8.8266  -11.4158    8.3855 H   0  0  0  0  0  0  0  0  0  0  0  0
    4.7512  -16.0273    3.3169 H   0  0  0  0  0  0  0  0  0  0  0  0
    5.9866  -17.1155    3.9468 H   0  0  0  0  0  0  0  0  0  0  0  0
    6.6733  -14.5946    2.3608 H   0  0  0  0  0  0  0  0  0  0  0  0
    6.5475  -16.2152    1.6731 H   0  0  0  0  0  0  0  0  0  0  0  0
    7.7775  -15.8570    2.8860 H   0  0  0  0  0  0  0  0  0  0  0  0
    2.8560  -14.5824    6.2140 H   0  0  0  0  0  0  0  0  0  0  0  0
    8.5737  -15.4083   11.2775 H   0  0  0  0  0  0  0  0  0  0  0  0
    8.0650  -14.8784   12.8874 H   0  0  0  0  0  0  0  0  0  0  0  0
    9.5116  -15.8702   12.6949 H   0  0  0  0  0  0  0  0  0  0  0  0
   -0.2952  -15.4834   -0.3066 H   0  0  0  0  0  0  0  0  0  0  0  0
   16.9669  -13.5478   21.3822 H   0  0  0  0  0  0  0  0  0  0  0  0
   21.4087  -12.9880   24.2149 H   0  0  0  0  0  0  0  0  0  0  0  0
   22.7777  -12.0253   22.1986 H   0  0  0  0  0  0  0  0  0  0  0  0
   21.3232  -11.8849   20.0416 H   0  0  0  0  0  0  0  0  0  0  0  0
   -9.5642  -20.7702   -0.4069 H   0  0  0  0  0  0  0  0  0  0  0  0
  -10.1373  -18.1044    2.0446 H   0  0  0  0  0  0  0  0  0  0  0  0
  -11.0098  -18.2878    3.5760 H   0  0  0  0  0  0  0  0  0  0  0  0
  -12.2125  -17.1986    0.9839 H   0  0  0  0  0  0  0  0  0  0  0  0
  -11.6709  -16.2228    2.3523 H   0  0  0  0  0  0  0  0  0  0  0  0
  -13.0469  -17.3095    2.5377 H   0  0  0  0  0  0  0  0  0  0  0  0
  -14.8622  -24.8958    1.2791 H   0  0  0  0  0  0  0  0  0  0  0  0
  -13.8934  -23.6072    0.5863 H   0  0  0  0  0  0  0  0  0  0  0  0
  -16.5324  -25.8543    1.2343 H   0  0  0  0  0  0  0  0  0  0  0  0
  -17.6616  -26.8843    2.0967 H   0  0  0  0  0  0  0  0  0  0  0  0
  -15.3477  -25.4335    3.4826 H   0  0  0  0  0  0  0  0  0  0  0  0
  -15.3470  -27.1367    3.0032 H   0  0  0  0  0  0  0  0  0  0  0  0
  -16.4839  -26.5581    4.2224 H   0  0  0  0  0  0  0  0  0  0  0  0
  -24.2309  -27.5680    3.8227 H   0  0  0  0  0  0  0  0  0  0  0  0
  -24.0992  -25.8817    3.3259 H   0  0  0  0  0  0  0  0  0  0  0  0
  -23.2112  -26.8564    6.0838 H   0  0  0  0  0  0  0  0  0  0  0  0
  -24.7867  -26.1479    5.7255 H   0  0  0  0  0  0  0  0  0  0  0  0
  -23.3168  -25.1935    5.5248 H   0  0  0  0  0  0  0  0  0  0  0  0
  -22.1639  -29.6203    1.5397 H   0  0  0  0  0  0  0  0  0  0  0  0
  -16.9051  -23.8623    0.0939 H   0  0  0  0  0  0  0  0  0  0  0  0
  -15.6431  -24.4010   -1.0233 H   0  0  0  0  0  0  0  0  0  0  0  0
  -15.8112  -22.6885   -0.6319 H   0  0  0  0  0  0  0  0  0  0  0  0
  -26.7201  -32.7133    2.7491 H   0  0  0  0  0  0  0  0  0  0  0  0
  -27.7839  -32.5924    5.1464 H   0  0  0  0  0  0  0  0  0  0  0  0
   -4.6464  -18.0596    0.0357 H   0  0  0  0  0  0  0  0  0  0  0  0
   -1.2438  -15.6149    4.4416 H   0  0  0  0  0  0  0  0  0  0  0  0
   -3.5812  -16.7338    4.5766 H   0  0  0  0  0  0  0  0  0  0  0  0
  1  2  2  0  0  0  0
  1  3  1  0  0  0  0
  1 11  1  0  0  0  0
  3  4  2  0  0  0  0
  4  5  1  0  0  0  0
  4 63  1  0  0  0  0
  5  6  2  0  0  0  0
  5 11  1  0  0  0  0
  6  7  1  0  0  0  0
  6  9  1  0  0  0  0
  7  8  3  0  0  0  0
  9 10  3  0  0  0  0
 11 12  2  0  0  0  0
 12 13  1  0  0  0  0
 12141  1  0  0  0  0
 13 14  1  0  0  0  0
 13 17  2  0  0  0  0
 14 15  1  0  0  0  0
 15 16  2  0  0  0  0
 15 22  1  0  0  0  0
 16 17  1  0  0  0  0
 16 20  1  0  0  0  0
 17 18  1  0  0  0  0
 18 19  1  0  0  0  0
 18142  1  0  0  0  0
 18143  1  0  0  0  0
 19144  1  0  0  0  0
 19145  1  0  0  0  0
 19146  1  0  0  0  0
 20 21  1  0  0  0  0
 21 22  2  0  0  0  0
 21 26  1  0  0  0  0
 22 23  1  0  0  0  0
 23 24  1  0  0  0  0
 23 25  1  0  0  0  0
 24 59  1  0  0  0  0
 24147  1  0  0  0  0
 24148  1  0  0  0  0
 25 26  2  0  0  0  0
 25 33  1  0  0  0  0
 26 27  1  0  0  0  0
 27 28  2  0  0  0  0
 27 31  1  0  0  0  0
 28 29  1  0  0  0  0
 29 30  1  0  0  0  0
 30 31  2  0  0  0  0
 31 32  1  0  0  0  0
 32 33  2  0  0  0  0
 32 38  1  0  0  0  0
 33 34  1  0  0  0  0
 34 35  1  0  0  0  0
 34 37  1  0  0  0  0
 35 36  1  0  0  0  0
 35149  1  0  0  0  0
 35150  1  0  0  0  0
 36151  1  0  0  0  0
 36152  1  0  0  0  0
 36153  1  0  0  0  0
 37 38  2  0  0  0  0
 37 41  1  0  0  0  0
 38 39  1  0  0  0  0
 39 40  1  0  0  0  0
 40 41  2  0  0  0  0
 40 44  1  0  0  0  0
 41 42  1  0  0  0  0
 42 43  1  0  0  0  0
 43 44  2  0  0  0  0
 43 47  1  0  0  0  0
 44 45  1  0  0  0  0
 45 46  1  0  0  0  0
 45154  1  0  0  0  0
 45155  1  0  0  0  0
 46156  1  0  0  0  0
 46157  1  0  0  0  0
 46158  1  0  0  0  0
 47 48  2  0  0  0  0
 47159  1  0  0  0  0
 48 49  1  0  0  0  0
 48 57  1  0  0  0  0
 49 50  2  0  0  0  0
 49 55  1  0  0  0  0
 50 51  1  0  0  0  0
 50 53  1  0  0  0  0
 51 52  3  0  0  0  0
 53 54  3  0  0  0  0
 55 56  2  0  0  0  0
 56 57  1  0  0  0  0
 56 60  1  0  0  0  0
 57 58  2  0  0  0  0
 59160  1  0  0  0  0
 59161  1  0  0  0  0
 59162  1  0  0  0  0
 60 61  2  0  0  0  0
 60138  1  0  0  0  0
 61 62  1  0  0  0  0
 61163  1  0  0  0  0
 62 55  1  0  0  0  0
 63 64  1  0  0  0  0
 64 65  2  0  0  0  0
 64 66  1  0  0  0  0
 65  3  1  0  0  0  0
 65164  1  0  0  0  0
 66 67  1  0  0  0  0
 67 68  1  0  0  0  0
 68 69  2  0  0  0  0
 68165  1  0  0  0  0
 69 70  1  0  0  0  0
 69166  1  0  0  0  0
 70 66  2  0  0  0  0
 70167  1  0  0  0  0
 71 72  2  0  0  0  0
 71 73  1  0  0  0  0
 71 81  1  0  0  0  0
 73 74  2  0  0  0  0
 74 75  1  0  0  0  0
 74133  1  0  0  0  0
 75 76  2  0  0  0  0
 75 81  1  0  0  0  0
 76 77  1  0  0  0  0
 76 79  1  0  0  0  0
 77 78  3  0  0  0  0
 79 80  3  0  0  0  0
 81 82  2  0  0  0  0
 82 83  1  0  0  0  0
 82168  1  0  0  0  0
 83 84  1  0  0  0  0
 83 87  2  0  0  0  0
 84 85  1  0  0  0  0
 85 86  2  0  0  0  0
 85 92  1  0  0  0  0
 86 87  1  0  0  0  0
 86 90  1  0  0  0  0
 87 88  1  0  0  0  0
 88 89  1  0  0  0  0
 88169  1  0  0  0  0
 88170  1  0  0  0  0
 89171  1  0  0  0  0
 89172  1  0  0  0  0
 89173  1  0  0  0  0
 90 91  1  0  0  0  0
 91 92  2  0  0  0  0
 91 96  1  0  0  0  0
 92 93  1  0  0  0  0
 93 94  1  0  0  0  0
 93 95  1  0  0  0  0
 94129  1  0  0  0  0
 94174  1  0  0  0  0
 94175  1  0  0  0  0
 95 96  2  0  0  0  0
 95103  1  0  0  0  0
 96 97  1  0  0  0  0
 97 98  2  0  0  0  0
 97101  1  0  0  0  0
 98 99  1  0  0  0  0
 99100  1  0  0  0  0
100101  2  0  0  0  0
101102  1  0  0  0  0
102103  2  0  0  0  0
102108  1  0  0  0  0
103104  1  0  0  0  0
104105  1  0  0  0  0
104107  1  0  0  0  0
105106  1  0  0  0  0
105176  1  0  0  0  0
105177  1  0  0  0  0
106178  1  0  0  0  0
106179  1  0  0  0  0
106180  1  0  0  0  0
107108  2  0  0  0  0
107111  1  0  0  0  0
108109  1  0  0  0  0
109110  1  0  0  0  0
110111  2  0  0  0  0
110114  1  0  0  0  0
111112  1  0  0  0  0
112113  1  0  0  0  0
113114  2  0  0  0  0
113117  1  0  0  0  0
114115  1  0  0  0  0
115116  1  0  0  0  0
115181  1  0  0  0  0
115182  1  0  0  0  0
116183  1  0  0  0  0
116184  1  0  0  0  0
116185  1  0  0  0  0
117118  2  0  0  0  0
117186  1  0  0  0  0
118119  1  0  0  0  0
118127  1  0  0  0  0
119120  2  0  0  0  0
119125  1  0  0  0  0
120121  1  0  0  0  0
120123  1  0  0  0  0
121122  3  0  0  0  0
123124  3  0  0  0  0
125126  2  0  0  0  0
126127  1  0  0  0  0
126130  1  0  0  0  0
127128  2  0  0  0  0
129187  1  0  0  0  0
129188  1  0  0  0  0
129189  1  0  0  0  0
130131  2  0  0  0  0
130190  1  0  0  0  0
131132  1  0  0  0  0
131191  1  0  0  0  0
132125  1  0  0  0  0
133134  1  0  0  0  0
134135  2  0  0  0  0
134136  1  0  0  0  0
135 73  1  0  0  0  0
135192  1  0  0  0  0
136137  1  0  0  0  0
137138  1  0  0  0  0
138139  2  0  0  0  0
139140  1  0  0  0  0
139193  1  0  0  0  0
140136  2  0  0  0  0
140194  1  0  0  0  0
M  END
