PZ-dIDTC6.sdf
  xtb     12222120413D
 energy: -253.086788662684 gnorm: 0.000263272547 xtb: 6.4.1 (unknown)
150164  0     0  0            999 V2000
    5.7417   -3.3064    0.4558 C   0  0  0  0  0  0  0  0  0  0  0  0
    6.0656   -3.6469    1.7900 C   0  0  0  0  0  0  0  0  0  0  0  0
    7.2855   -3.3009    2.3183 C   0  0  0  0  0  0  0  0  0  0  0  0
    8.1521   -2.5730    1.5043 C   0  0  0  0  0  0  0  0  0  0  0  0
    7.8179   -2.2038    0.1775 C   0  0  0  0  0  0  0  0  0  0  0  0
    6.6193   -2.6049   -0.3673 C   0  0  0  0  0  0  0  0  0  0  0  0
    9.4501   -2.0481    1.7713 C   0  0  0  0  0  0  0  0  0  0  0  0
    9.9373   -1.3544    0.6627 C   0  0  0  0  0  0  0  0  0  0  0  0
    8.9179   -1.3650   -0.4468 C   0  0  0  0  0  0  0  0  0  0  0  0
    4.4066   -3.7604    0.2261 C   0  0  0  0  0  0  0  0  0  0  0  0
    3.8800   -4.3450    1.3690 C   0  0  0  0  0  0  0  0  0  0  0  0
    4.8987   -4.3364    2.4773 C   0  0  0  0  0  0  0  0  0  0  0  0
   10.5294   -2.0223    3.0897 S   0  0  0  0  0  0  0  0  0  0  0  0
   11.6571   -1.0200    2.1621 C   0  0  0  0  0  0  0  0  0  0  0  0
   11.1715   -0.7740    0.8773 C   0  0  0  0  0  0  0  0  0  0  0  0
    3.2902   -3.7030   -1.0745 S   0  0  0  0  0  0  0  0  0  0  0  0
    2.0801   -4.4486   -0.0601 C   0  0  0  0  0  0  0  0  0  0  0  0
    2.5563   -4.7466    1.2022 C   0  0  0  0  0  0  0  0  0  0  0  0
    9.4684   -1.9908   -1.7368 C   0  0  0  0  0  0  0  0  0  0  0  0
    8.4802    0.1038   -0.6639 C   0  0  0  0  0  0  0  0  0  0  0  0
    7.3409    0.3254   -1.6492 C   0  0  0  0  0  0  0  0  0  0  0  0
   10.0419   -3.3846   -1.5094 C   0  0  0  0  0  0  0  0  0  0  0  0
    4.4660   -3.4469    3.6644 C   0  0  0  0  0  0  0  0  0  0  0  0
    5.2603   -5.7585    2.9359 C   0  0  0  0  0  0  0  0  0  0  0  0
    3.1876   -3.8753    4.3724 C   0  0  0  0  0  0  0  0  0  0  0  0
    5.8218   -6.6134    1.8057 C   0  0  0  0  0  0  0  0  0  0  0  0
   12.8185   -0.6263    2.8381 C   0  0  0  0  0  0  0  0  0  0  0  0
   13.8144    0.2623    2.5060 C   0  0  0  0  0  0  0  0  0  0  0  0
   13.8848    1.1699    1.3458 C   0  0  0  0  0  0  0  0  0  0  0  0
   15.0269    2.0732    1.6175 C   0  0  0  0  0  0  0  0  0  0  0  0
   15.6467    1.7061    2.8214 C   0  0  0  0  0  0  0  0  0  0  0  0
   14.9457    0.5454    3.3704 C   0  0  0  0  0  0  0  0  0  0  0  0
   15.4661    3.1389    0.8578 C   0  0  0  0  0  0  0  0  0  0  0  0
   16.5545    3.8563    1.3267 C   0  0  0  0  0  0  0  0  0  0  0  0
   17.1749    3.5023    2.5247 C   0  0  0  0  0  0  0  0  0  0  0  0
   16.7356    2.4283    3.2845 C   0  0  0  0  0  0  0  0  0  0  0  0
   13.1783    1.2192    0.3596 O   0  0  0  0  0  0  0  0  0  0  0  0
   15.3490   -0.1576    4.4762 C   0  0  0  0  0  0  0  0  0  0  0  0
   14.7505   -1.3311    4.9834 C   0  0  0  0  0  0  0  0  0  0  0  0
   16.4703    0.1842    5.2622 C   0  0  0  0  0  0  0  0  0  0  0  0
   17.3639    0.4075    5.9472 N   0  0  0  0  0  0  0  0  0  0  0  0
   14.3464   -2.2960    5.4581 N   0  0  0  0  0  0  0  0  0  0  0  0
   -6.2677   -1.4343   -1.6085 C   0  0  0  0  0  0  0  0  0  0  0  0
   -6.6190   -1.1353   -2.9484 C   0  0  0  0  0  0  0  0  0  0  0  0
   -7.6809   -0.3016   -3.2096 C   0  0  0  0  0  0  0  0  0  0  0  0
   -8.3243    0.2833   -2.1192 C   0  0  0  0  0  0  0  0  0  0  0  0
   -7.9590   -0.0046   -0.7826 C   0  0  0  0  0  0  0  0  0  0  0  0
   -6.9388   -0.8870   -0.5181 C   0  0  0  0  0  0  0  0  0  0  0  0
   -9.3573    1.2653   -2.0643 C   0  0  0  0  0  0  0  0  0  0  0  0
   -9.6445    1.6049   -0.7399 C   0  0  0  0  0  0  0  0  0  0  0  0
   -8.7978    0.7906    0.1977 C   0  0  0  0  0  0  0  0  0  0  0  0
   -5.1264   -2.2903   -1.6557 C   0  0  0  0  0  0  0  0  0  0  0  0
   -4.7420   -2.5243   -2.9663 C   0  0  0  0  0  0  0  0  0  0  0  0
   -5.6954   -1.8519   -3.9233 C   0  0  0  0  0  0  0  0  0  0  0  0
  -10.2628    2.1751   -3.1850 S   0  0  0  0  0  0  0  0  0  0  0  0
  -11.0278    3.0701   -1.8607 C   0  0  0  0  0  0  0  0  0  0  0  0
  -10.5807    2.6116   -0.6206 C   0  0  0  0  0  0  0  0  0  0  0  0
   -4.0530   -2.9752   -0.5069 S   0  0  0  0  0  0  0  0  0  0  0  0
   -3.0243   -3.5232   -1.8074 C   0  0  0  0  0  0  0  0  0  0  0  0
   -3.5324   -3.2126   -3.0533 C   0  0  0  0  0  0  0  0  0  0  0  0
   -7.9253    1.6908    1.0924 C   0  0  0  0  0  0  0  0  0  0  0  0
   -9.6602   -0.1322    1.0801 C   0  0  0  0  0  0  0  0  0  0  0  0
  -10.5590   -1.0603    0.2722 C   0  0  0  0  0  0  0  0  0  0  0  0
   -7.0353    2.6384    0.2974 C   0  0  0  0  0  0  0  0  0  0  0  0
   -4.8778   -0.8891   -4.8092 C   0  0  0  0  0  0  0  0  0  0  0  0
   -6.5286   -2.8785   -4.7170 C   0  0  0  0  0  0  0  0  0  0  0  0
   -5.6535   -0.1054   -5.8599 C   0  0  0  0  0  0  0  0  0  0  0  0
   -5.7217   -3.7618   -5.6592 C   0  0  0  0  0  0  0  0  0  0  0  0
   -1.7529   -4.0793   -1.4510 C   0  0  0  0  0  0  0  0  0  0  0  0
  -11.9149    4.0830   -2.2442 C   0  0  0  0  0  0  0  0  0  0  0  0
  -12.5652    5.0561   -1.5208 C   0  0  0  0  0  0  0  0  0  0  0  0
  -12.4465    5.3669   -0.0844 C   0  0  0  0  0  0  0  0  0  0  0  0
  -13.1852    6.6356    0.1105 C   0  0  0  0  0  0  0  0  0  0  0  0
  -13.7595    7.0417   -1.1032 C   0  0  0  0  0  0  0  0  0  0  0  0
  -13.4332    6.0491   -2.1276 C   0  0  0  0  0  0  0  0  0  0  0  0
  -13.3212    7.3687    1.2725 C   0  0  0  0  0  0  0  0  0  0  0  0
  -14.0492    8.5454    1.2075 C   0  0  0  0  0  0  0  0  0  0  0  0
  -14.6188    8.9616    0.0042 C   0  0  0  0  0  0  0  0  0  0  0  0
  -14.4860    8.2210   -1.1610 C   0  0  0  0  0  0  0  0  0  0  0  0
  -11.8733    4.7551    0.7942 O   0  0  0  0  0  0  0  0  0  0  0  0
  -13.9212    6.0658   -3.4090 C   0  0  0  0  0  0  0  0  0  0  0  0
  -13.6923    5.0933   -4.4059 C   0  0  0  0  0  0  0  0  0  0  0  0
  -14.7710    7.0723   -3.9161 C   0  0  0  0  0  0  0  0  0  0  0  0
  -15.4590    7.8559   -4.3957 N   0  0  0  0  0  0  0  0  0  0  0  0
  -13.5777    4.3511   -5.2753 N   0  0  0  0  0  0  0  0  0  0  0  0
   17.0130    4.9011    0.6254 F   0  0  0  0  0  0  0  0  0  0  0  0
   18.2202    4.2170    2.9580 F   0  0  0  0  0  0  0  0  0  0  0  0
  -15.3104   10.1069   -0.0324 F   0  0  0  0  0  0  0  0  0  0  0  0
  -14.2043    9.2920    2.3085 F   0  0  0  0  0  0  0  0  0  0  0  0
   -1.5885   -4.4500   -0.1739 N   0  0  0  0  0  0  0  0  0  0  0  0
   -0.3855   -4.7315    0.2562 C   0  0  0  0  0  0  0  0  0  0  0  0
    0.7424   -4.5365   -0.5640 C   0  0  0  0  0  0  0  0  0  0  0  0
    0.5618   -4.3171   -1.8734 N   0  0  0  0  0  0  0  0  0  0  0  0
   -0.6542   -4.1498   -2.3280 C   0  0  0  0  0  0  0  0  0  0  0  0
    7.5750   -3.5610    3.3251 H   0  0  0  0  0  0  0  0  0  0  0  0
    6.3439   -2.3868   -1.3869 H   0  0  0  0  0  0  0  0  0  0  0  0
   11.7203   -0.1883    0.1641 H   0  0  0  0  0  0  0  0  0  0  0  0
    1.9592   -5.2408    1.9463 H   0  0  0  0  0  0  0  0  0  0  0  0
    8.6651   -2.0531   -2.4715 H   0  0  0  0  0  0  0  0  0  0  0  0
   10.2461   -1.3368   -2.1356 H   0  0  0  0  0  0  0  0  0  0  0  0
    9.3594    0.6558   -1.0027 H   0  0  0  0  0  0  0  0  0  0  0  0
    8.1877    0.5134    0.3066 H   0  0  0  0  0  0  0  0  0  0  0  0
    6.4179   -0.1181   -1.2863 H   0  0  0  0  0  0  0  0  0  0  0  0
    7.1760    1.3941   -1.7670 H   0  0  0  0  0  0  0  0  0  0  0  0
    7.5737   -0.0874   -2.6269 H   0  0  0  0  0  0  0  0  0  0  0  0
   10.3983   -3.7991   -2.4493 H   0  0  0  0  0  0  0  0  0  0  0  0
   10.8765   -3.3513   -0.8127 H   0  0  0  0  0  0  0  0  0  0  0  0
    9.2828   -4.0513   -1.1053 H   0  0  0  0  0  0  0  0  0  0  0  0
    5.2858   -3.4324    4.3854 H   0  0  0  0  0  0  0  0  0  0  0  0
    4.3367   -2.4278    3.2907 H   0  0  0  0  0  0  0  0  0  0  0  0
    4.3655   -6.2392    3.3333 H   0  0  0  0  0  0  0  0  0  0  0  0
    5.9953   -5.6904    3.7403 H   0  0  0  0  0  0  0  0  0  0  0  0
    2.3334   -3.8092    3.7048 H   0  0  0  0  0  0  0  0  0  0  0  0
    3.2641   -4.8909    4.7509 H   0  0  0  0  0  0  0  0  0  0  0  0
    3.0058   -3.2141    5.2167 H   0  0  0  0  0  0  0  0  0  0  0  0
    5.1001   -6.7047    0.9971 H   0  0  0  0  0  0  0  0  0  0  0  0
    6.7323   -6.1741    1.4044 H   0  0  0  0  0  0  0  0  0  0  0  0
    6.0536   -7.6104    2.1725 H   0  0  0  0  0  0  0  0  0  0  0  0
   12.9104   -1.0826    3.8169 H   0  0  0  0  0  0  0  0  0  0  0  0
   14.9811    3.4088   -0.0667 H   0  0  0  0  0  0  0  0  0  0  0  0
   17.2489    2.1992    4.2036 H   0  0  0  0  0  0  0  0  0  0  0  0
   -8.0132   -0.0775   -4.2105 H   0  0  0  0  0  0  0  0  0  0  0  0
   -6.6390   -1.1377    0.4878 H   0  0  0  0  0  0  0  0  0  0  0  0
  -10.9349    3.0299    0.3028 H   0  0  0  0  0  0  0  0  0  0  0  0
   -3.0284   -3.4705   -3.9670 H   0  0  0  0  0  0  0  0  0  0  0  0
   -8.5830    2.2717    1.7414 H   0  0  0  0  0  0  0  0  0  0  0  0
   -7.3033    1.0541    1.7244 H   0  0  0  0  0  0  0  0  0  0  0  0
  -10.2741    0.4914    1.7326 H   0  0  0  0  0  0  0  0  0  0  0  0
   -8.9961   -0.7280    1.7091 H   0  0  0  0  0  0  0  0  0  0  0  0
  -11.1341   -1.6954    0.9415 H   0  0  0  0  0  0  0  0  0  0  0  0
   -9.9678   -1.6969   -0.3827 H   0  0  0  0  0  0  0  0  0  0  0  0
  -11.2550   -0.4900   -0.3386 H   0  0  0  0  0  0  0  0  0  0  0  0
   -7.6349    3.3144   -0.3079 H   0  0  0  0  0  0  0  0  0  0  0  0
   -6.4295    3.2348    0.9752 H   0  0  0  0  0  0  0  0  0  0  0  0
   -6.3702    2.0834   -0.3609 H   0  0  0  0  0  0  0  0  0  0  0  0
   -4.3698   -0.1839   -4.1458 H   0  0  0  0  0  0  0  0  0  0  0  0
   -4.1055   -1.4780   -5.3072 H   0  0  0  0  0  0  0  0  0  0  0  0
   -7.0455   -3.5128   -3.9919 H   0  0  0  0  0  0  0  0  0  0  0  0
   -7.2923   -2.3422   -5.2819 H   0  0  0  0  0  0  0  0  0  0  0  0
   -4.9523    0.4535   -6.4763 H   0  0  0  0  0  0  0  0  0  0  0  0
   -6.3309    0.6072   -5.3995 H   0  0  0  0  0  0  0  0  0  0  0  0
   -6.2212   -0.7642   -6.5110 H   0  0  0  0  0  0  0  0  0  0  0  0
   -6.3872   -4.4634   -6.1572 H   0  0  0  0  0  0  0  0  0  0  0  0
   -5.2197   -3.1734   -6.4223 H   0  0  0  0  0  0  0  0  0  0  0  0
   -4.9786   -4.3336   -5.1101 H   0  0  0  0  0  0  0  0  0  0  0  0
  -12.0743    4.1173   -3.3156 H   0  0  0  0  0  0  0  0  0  0  0  0
  -12.8763    7.0425    2.1990 H   0  0  0  0  0  0  0  0  0  0  0  0
  -14.9443    8.5895   -2.0636 H   0  0  0  0  0  0  0  0  0  0  0  0
   -0.3079   -5.0715    1.2788 H   0  0  0  0  0  0  0  0  0  0  0  0
   -0.7554   -4.0199   -3.3959 H   0  0  0  0  0  0  0  0  0  0  0  0
  1  2  1  0  0  0  0
  2  3  2  0  0  0  0
  3  4  1  0  0  0  0
  4  5  2  0  0  0  0
  5  6  1  0  0  0  0
  6  1  2  0  0  0  0
  4  7  1  0  0  0  0
  7  8  2  0  0  0  0
  8  9  1  0  0  0  0
  9  5  1  0  0  0  0
  1 10  1  0  0  0  0
 10 11  2  0  0  0  0
 11 12  1  0  0  0  0
 12  2  1  0  0  0  0
  7 13  1  0  0  0  0
 13 14  1  0  0  0  0
 14 15  2  0  0  0  0
 15  8  1  0  0  0  0
 10 16  1  0  0  0  0
 16 17  1  0  0  0  0
 17 18  2  0  0  0  0
 18 11  1  0  0  0  0
  9 19  1  0  0  0  0
  9 20  1  0  0  0  0
 20 21  1  0  0  0  0
 19 22  1  0  0  0  0
 12 23  1  0  0  0  0
 12 24  1  0  0  0  0
 23 25  1  0  0  0  0
 24 26  1  0  0  0  0
 14 27  1  0  0  0  0
 27 28  2  0  0  0  0
 28 29  1  0  0  0  0
 29 30  1  0  0  0  0
 30 31  2  0  0  0  0
 31 32  1  0  0  0  0
 32 28  1  0  0  0  0
 30 33  1  0  0  0  0
 33 34  2  0  0  0  0
 34 35  1  0  0  0  0
 35 36  2  0  0  0  0
 36 31  1  0  0  0  0
 29 37  2  0  0  0  0
 32 38  2  0  0  0  0
 38 39  1  0  0  0  0
 38 40  1  0  0  0  0
 40 41  3  0  0  0  0
 39 42  3  0  0  0  0
 43 44  1  0  0  0  0
 44 45  2  0  0  0  0
 45 46  1  0  0  0  0
 46 47  2  0  0  0  0
 47 48  1  0  0  0  0
 48 43  2  0  0  0  0
 46 49  1  0  0  0  0
 49 50  2  0  0  0  0
 50 51  1  0  0  0  0
 51 47  1  0  0  0  0
 43 52  1  0  0  0  0
 52 53  2  0  0  0  0
 53 54  1  0  0  0  0
 54 44  1  0  0  0  0
 49 55  1  0  0  0  0
 55 56  1  0  0  0  0
 56 57  2  0  0  0  0
 57 50  1  0  0  0  0
 52 58  1  0  0  0  0
 58 59  1  0  0  0  0
 59 60  2  0  0  0  0
 60 53  1  0  0  0  0
 51 61  1  0  0  0  0
 51 62  1  0  0  0  0
 62 63  1  0  0  0  0
 61 64  1  0  0  0  0
 54 65  1  0  0  0  0
 54 66  1  0  0  0  0
 65 67  1  0  0  0  0
 66 68  1  0  0  0  0
 59 69  1  0  0  0  0
 56 70  1  0  0  0  0
 70 71  2  0  0  0  0
 71 72  1  0  0  0  0
 72 73  1  0  0  0  0
 73 74  2  0  0  0  0
 74 75  1  0  0  0  0
 75 71  1  0  0  0  0
 73 76  1  0  0  0  0
 76 77  2  0  0  0  0
 77 78  1  0  0  0  0
 78 79  2  0  0  0  0
 79 74  1  0  0  0  0
 72 80  2  0  0  0  0
 75 81  2  0  0  0  0
 81 82  1  0  0  0  0
 81 83  1  0  0  0  0
 83 84  3  0  0  0  0
 82 85  3  0  0  0  0
 34 86  1  0  0  0  0
 35 87  1  0  0  0  0
 78 88  1  0  0  0  0
 77 89  1  0  0  0  0
 69 90  2  0  0  0  0
 90 91  1  0  0  0  0
 91 92  2  0  0  0  0
 92 93  1  0  0  0  0
 93 94  2  0  0  0  0
 94 69  1  0  0  0  0
 92 17  1  0  0  0  0
  3 95  1  0  0  0  0
  6 96  1  0  0  0  0
 15 97  1  0  0  0  0
 18 98  1  0  0  0  0
 19 99  1  0  0  0  0
 19100  1  0  0  0  0
 20101  1  0  0  0  0
 20102  1  0  0  0  0
 21103  1  0  0  0  0
 21104  1  0  0  0  0
 21105  1  0  0  0  0
 22106  1  0  0  0  0
 22107  1  0  0  0  0
 22108  1  0  0  0  0
 23109  1  0  0  0  0
 23110  1  0  0  0  0
 24111  1  0  0  0  0
 24112  1  0  0  0  0
 25113  1  0  0  0  0
 25114  1  0  0  0  0
 25115  1  0  0  0  0
 26116  1  0  0  0  0
 26117  1  0  0  0  0
 26118  1  0  0  0  0
 27119  1  0  0  0  0
 33120  1  0  0  0  0
 36121  1  0  0  0  0
 45122  1  0  0  0  0
 48123  1  0  0  0  0
 57124  1  0  0  0  0
 60125  1  0  0  0  0
 61126  1  0  0  0  0
 61127  1  0  0  0  0
 62128  1  0  0  0  0
 62129  1  0  0  0  0
 63130  1  0  0  0  0
 63131  1  0  0  0  0
 63132  1  0  0  0  0
 64133  1  0  0  0  0
 64134  1  0  0  0  0
 64135  1  0  0  0  0
 65136  1  0  0  0  0
 65137  1  0  0  0  0
 66138  1  0  0  0  0
 66139  1  0  0  0  0
 67140  1  0  0  0  0
 67141  1  0  0  0  0
 67142  1  0  0  0  0
 68143  1  0  0  0  0
 68144  1  0  0  0  0
 68145  1  0  0  0  0
 70146  1  0  0  0  0
 76147  1  0  0  0  0
 79148  1  0  0  0  0
 91149  1  0  0  0  0
 94150  1  0  0  0  0
M  END
