Qx1.mol
  xtb     01102218483D
 energy: -298.186842277381 gnorm: 0.000689182683 xtb: 6.4.1 (unknown)
190208  0     0  0            999 V2000
    6.5589    5.8119    9.6246 O   0  0  0  0  0  0  0  0  0  0  0  0
    5.3964    5.6468    9.9187 C   0  0  0  0  0  0  0  0  0  0  0  0
    4.8221    6.1647   11.0699 N   0  0  0  0  0  0  0  0  0  0  0  0
    3.5123    5.8965   11.2858 C   0  0  0  0  0  0  0  0  0  0  0  0
    2.6336    6.3922   12.5676 S   0  0  0  0  0  0  0  0  0  0  0  0
    5.6008    6.9868   11.9754 C   0  0  0  0  0  0  0  0  0  0  0  0
    5.3868    8.4691   11.6964 C   0  0  0  0  0  0  0  0  0  0  0  0
    4.4082    4.8823    9.1525 C   0  0  0  0  0  0  0  0  0  0  0  0
    2.8661    4.9064    9.9813 S   0  0  0  0  0  0  0  0  0  0  0  0
    4.7479    4.2809    7.9883 C   0  0  0  0  0  0  0  0  0  0  0  0
    3.9693    3.4928    7.0909 C   0  0  0  0  0  0  0  0  0  0  0  0
    4.6234    2.9716    5.9313 C   0  0  0  0  0  0  0  0  0  0  0  0
    5.8921    3.3197    5.6720 N   0  0  0  0  0  0  0  0  0  0  0  0
    6.5061    2.8446    4.6119 C   0  0  0  0  0  0  0  0  0  0  0  0
    7.8324    3.3962    4.3218 C   0  0  0  0  0  0  0  0  0  0  0  0
    8.6854    3.7137    5.3769 C   0  0  0  0  0  0  0  0  0  0  0  0
    9.9336    4.2502    5.1260 C   0  0  0  0  0  0  0  0  0  0  0  0
   10.3378    4.4896    3.8226 C   0  0  0  0  0  0  0  0  0  0  0  0
    9.4842    4.1993    2.7702 C   0  0  0  0  0  0  0  0  0  0  0  0
    8.2376    3.6554    3.0137 C   0  0  0  0  0  0  0  0  0  0  0  0
    5.8542    1.8745    3.7902 C   0  0  0  0  0  0  0  0  0  0  0  0
    6.4936    1.0998    2.7202 C   0  0  0  0  0  0  0  0  0  0  0  0
    7.7955    0.6185    2.8392 C   0  0  0  0  0  0  0  0  0  0  0  0
    8.3348   -0.1707    1.8406 C   0  0  0  0  0  0  0  0  0  0  0  0
    7.5841   -0.4977    0.7223 C   0  0  0  0  0  0  0  0  0  0  0  0
    6.2843   -0.0331    0.6033 C   0  0  0  0  0  0  0  0  0  0  0  0
    5.7433    0.7629    1.5941 C   0  0  0  0  0  0  0  0  0  0  0  0
    2.6159    3.2067    7.2400 C   0  0  0  0  0  0  0  0  0  0  0  0
    1.9202    2.4396    6.3200 C   0  0  0  0  0  0  0  0  0  0  0  0
    2.5312    1.8723    5.2068 C   0  0  0  0  0  0  0  0  0  0  0  0
    3.9239    2.1383    5.0203 C   0  0  0  0  0  0  0  0  0  0  0  0
    4.5889    1.5932    3.9944 N   0  0  0  0  0  0  0  0  0  0  0  0
    1.7982    1.0845    4.2631 C   0  0  0  0  0  0  0  0  0  0  0  0
    2.2952    0.2573    3.2735 C   0  0  0  0  0  0  0  0  0  0  0  0
    1.2942   -0.2603    2.4628 C   0  0  0  0  0  0  0  0  0  0  0  0
    0.0196    0.1343    2.8381 C   0  0  0  0  0  0  0  0  0  0  0  0
    0.0382    1.1595    4.2135 S   0  0  0  0  0  0  0  0  0  0  0  0
   -0.9558   -0.3692    1.9218 C   0  0  0  0  0  0  0  0  0  0  0  0
   -0.2498   -1.1023    0.9368 C   0  0  0  0  0  0  0  0  0  0  0  0
    1.2351   -1.1591    1.2561 C   0  0  0  0  0  0  0  0  0  0  0  0
    1.7098   -2.5324    1.7015 C   0  0  0  0  0  0  0  0  0  0  0  0
    3.0728   -2.7441    1.8794 C   0  0  0  0  0  0  0  0  0  0  0  0
    3.5409   -3.9670    2.3175 C   0  0  0  0  0  0  0  0  0  0  0  0
    2.6642   -5.0095    2.5933 C   0  0  0  0  0  0  0  0  0  0  0  0
    3.1731   -6.3263    3.1053 C   0  0  0  0  0  0  0  0  0  0  0  0
    3.2697   -6.3070    4.6321 C   0  0  0  0  0  0  0  0  0  0  0  0
    1.3046   -4.7876    2.4272 C   0  0  0  0  0  0  0  0  0  0  0  0
    0.8292   -3.5640    1.9893 C   0  0  0  0  0  0  0  0  0  0  0  0
    2.0299   -0.6691    0.0633 C   0  0  0  0  0  0  0  0  0  0  0  0
    2.4002   -1.5623   -0.9352 C   0  0  0  0  0  0  0  0  0  0  0  0
    3.0827   -1.1233   -2.0534 C   0  0  0  0  0  0  0  0  0  0  0  0
    3.4072    0.2184   -2.2117 C   0  0  0  0  0  0  0  0  0  0  0  0
    4.1692    0.6833   -3.4199 C   0  0  0  0  0  0  0  0  0  0  0  0
    5.6788    0.5675   -3.1940 C   0  0  0  0  0  0  0  0  0  0  0  0
    3.0375    1.1065   -1.2107 C   0  0  0  0  0  0  0  0  0  0  0  0
    2.3528    0.6717   -0.0897 C   0  0  0  0  0  0  0  0  0  0  0  0
   -0.8974   -1.6082   -0.1642 C   0  0  0  0  0  0  0  0  0  0  0  0
   -2.2716   -1.4021   -0.2432 C   0  0  0  0  0  0  0  0  0  0  0  0
   -2.9915   -0.7431    0.7800 C   0  0  0  0  0  0  0  0  0  0  0  0
   -4.4756   -0.6872    0.4450 C   0  0  0  0  0  0  0  0  0  0  0  0
   -4.4816   -1.3033   -0.9338 C   0  0  0  0  0  0  0  0  0  0  0  0
   -3.2054   -1.7285   -1.2714 C   0  0  0  0  0  0  0  0  0  0  0  0
   -3.1227   -2.3849   -2.8501 S   0  0  0  0  0  0  0  0  0  0  0  0
   -4.8380   -2.1326   -3.0543 C   0  0  0  0  0  0  0  0  0  0  0  0
   -5.4602   -2.4922   -4.2887 C   0  0  0  0  0  0  0  0  0  0  0  0
   -4.6582   -2.7806   -5.4309 C   0  0  0  0  0  0  0  0  0  0  0  0
   -5.2495   -3.1705   -6.6641 C   0  0  0  0  0  0  0  0  0  0  0  0
   -4.4639   -3.7227   -7.5990 N   0  0  0  0  0  0  0  0  0  0  0  0
   -3.1604   -3.7269   -7.4516 C   0  0  0  0  0  0  0  0  0  0  0  0
   -2.3558   -4.5863   -8.3190 C   0  0  0  0  0  0  0  0  0  0  0  0
   -2.7605   -4.8636   -9.6233 C   0  0  0  0  0  0  0  0  0  0  0  0
   -1.9965   -5.6801  -10.4341 C   0  0  0  0  0  0  0  0  0  0  0  0
   -0.8293   -6.2474   -9.9496 C   0  0  0  0  0  0  0  0  0  0  0  0
   -0.4355   -6.0025   -8.6437 C   0  0  0  0  0  0  0  0  0  0  0  0
   -1.1892   -5.1781   -7.8316 C   0  0  0  0  0  0  0  0  0  0  0  0
   -2.5762   -2.9457   -6.3943 C   0  0  0  0  0  0  0  0  0  0  0  0
   -1.1953   -2.4634   -6.4249 C   0  0  0  0  0  0  0  0  0  0  0  0
   -0.5937   -2.1314   -7.6393 C   0  0  0  0  0  0  0  0  0  0  0  0
    0.6946   -1.6332   -7.6607 C   0  0  0  0  0  0  0  0  0  0  0  0
    1.3966   -1.4567   -6.4788 C   0  0  0  0  0  0  0  0  0  0  0  0
    0.8014   -1.7737   -5.2686 C   0  0  0  0  0  0  0  0  0  0  0  0
   -0.4870   -2.2716   -5.2401 C   0  0  0  0  0  0  0  0  0  0  0  0
   -3.3351   -2.5968   -5.3854 N   0  0  0  0  0  0  0  0  0  0  0  0
   -6.6634   -3.1171   -6.8169 C   0  0  0  0  0  0  0  0  0  0  0  0
   -7.3319   -3.3248   -8.0640 C   0  0  0  0  0  0  0  0  0  0  0  0
   -6.8697   -3.0986   -9.3144 C   0  0  0  0  0  0  0  0  0  0  0  0
   -7.7272   -3.2878  -10.4897 C   0  0  0  0  0  0  0  0  0  0  0  0
   -7.0712   -2.8708  -11.6345 N   0  0  0  0  0  0  0  0  0  0  0  0
   -5.8143   -2.3836  -11.4808 C   0  0  0  0  0  0  0  0  0  0  0  0
   -5.3268   -2.4372   -9.7916 S   0  0  0  0  0  0  0  0  0  0  0  0
   -4.8532   -1.8399  -12.6834 S   0  0  0  0  0  0  0  0  0  0  0  0
   -7.7033   -2.9891  -12.9339 C   0  0  0  0  0  0  0  0  0  0  0  0
   -7.2694   -4.2658  -13.6428 C   0  0  0  0  0  0  0  0  0  0  0  0
   -8.8568   -3.7239  -10.4862 O   0  0  0  0  0  0  0  0  0  0  0  0
   -7.4167   -2.8539   -5.6749 C   0  0  0  0  0  0  0  0  0  0  0  0
   -6.8409   -2.5586   -4.4505 C   0  0  0  0  0  0  0  0  0  0  0  0
   -5.4150   -1.5558   -1.9322 C   0  0  0  0  0  0  0  0  0  0  0  0
   -4.9297    0.7578    0.4797 C   0  0  0  0  0  0  0  0  0  0  0  0
   -5.3586    1.3239    1.6741 C   0  0  0  0  0  0  0  0  0  0  0  0
   -5.7291    2.6538    1.7276 C   0  0  0  0  0  0  0  0  0  0  0  0
   -5.6761    3.4555    0.5946 C   0  0  0  0  0  0  0  0  0  0  0  0
   -6.1273    4.8868    0.6455 C   0  0  0  0  0  0  0  0  0  0  0  0
   -7.6302    4.9836    0.3754 C   0  0  0  0  0  0  0  0  0  0  0  0
   -5.2388    2.8877   -0.5942 C   0  0  0  0  0  0  0  0  0  0  0  0
   -4.8635    1.5580   -0.6521 C   0  0  0  0  0  0  0  0  0  0  0  0
   -5.3284   -1.5685    1.3396 C   0  0  0  0  0  0  0  0  0  0  0  0
   -4.7738   -2.5298    2.1715 C   0  0  0  0  0  0  0  0  0  0  0  0
   -5.5868   -3.3482    2.9353 C   0  0  0  0  0  0  0  0  0  0  0  0
   -6.9689   -3.2363    2.8808 C   0  0  0  0  0  0  0  0  0  0  0  0
   -7.8456   -4.0945    3.7465 C   0  0  0  0  0  0  0  0  0  0  0  0
   -8.0879   -3.4188    5.0978 C   0  0  0  0  0  0  0  0  0  0  0  0
   -7.5197   -2.2781    2.0388 C   0  0  0  0  0  0  0  0  0  0  0  0
   -6.7126   -1.4582    1.2751 C   0  0  0  0  0  0  0  0  0  0  0  0
   -2.3378   -0.2035    1.8636 C   0  0  0  0  0  0  0  0  0  0  0  0
    5.3007    6.7435   12.9975 H   0  0  0  0  0  0  0  0  0  0  0  0
    6.6468    6.7150   11.8151 H   0  0  0  0  0  0  0  0  0  0  0  0
    4.3420    8.7338   11.8411 H   0  0  0  0  0  0  0  0  0  0  0  0
    5.6763    8.7058   10.6751 H   0  0  0  0  0  0  0  0  0  0  0  0
    5.9929    9.0581   12.3782 H   0  0  0  0  0  0  0  0  0  0  0  0
    5.7803    4.4227    7.6862 H   0  0  0  0  0  0  0  0  0  0  0  0
    8.3573    3.5281    6.3881 H   0  0  0  0  0  0  0  0  0  0  0  0
   10.5914    4.4869    5.9490 H   0  0  0  0  0  0  0  0  0  0  0  0
   11.3132    4.9096    3.6265 H   0  0  0  0  0  0  0  0  0  0  0  0
    9.7903    4.4009    1.7542 H   0  0  0  0  0  0  0  0  0  0  0  0
    7.5687    3.4486    2.1910 H   0  0  0  0  0  0  0  0  0  0  0  0
    8.3761    0.8473    3.7208 H   0  0  0  0  0  0  0  0  0  0  0  0
    9.3448   -0.5402    1.9400 H   0  0  0  0  0  0  0  0  0  0  0  0
    8.0107   -1.1181   -0.0520 H   0  0  0  0  0  0  0  0  0  0  0  0
    5.6857   -0.2935   -0.2571 H   0  0  0  0  0  0  0  0  0  0  0  0
    4.7345    1.1360    1.5017 H   0  0  0  0  0  0  0  0  0  0  0  0
    2.0814    3.5962    8.0922 H   0  0  0  0  0  0  0  0  0  0  0  0
    0.8667    2.2595    6.4795 H   0  0  0  0  0  0  0  0  0  0  0  0
    3.3446    0.0674    3.1634 H   0  0  0  0  0  0  0  0  0  0  0  0
    3.7717   -1.9488    1.6631 H   0  0  0  0  0  0  0  0  0  0  0  0
    4.6039   -4.1154    2.4449 H   0  0  0  0  0  0  0  0  0  0  0  0
    2.4993   -7.1286    2.7979 H   0  0  0  0  0  0  0  0  0  0  0  0
    4.1606   -6.5294    2.6857 H   0  0  0  0  0  0  0  0  0  0  0  0
    3.6424   -7.2594    5.0021 H   0  0  0  0  0  0  0  0  0  0  0  0
    3.9443   -5.5187    4.9585 H   0  0  0  0  0  0  0  0  0  0  0  0
    2.2915   -6.1223    5.0707 H   0  0  0  0  0  0  0  0  0  0  0  0
    0.6047   -5.5834    2.6399 H   0  0  0  0  0  0  0  0  0  0  0  0
   -0.2340   -3.4178    1.8668 H   0  0  0  0  0  0  0  0  0  0  0  0
    2.1601   -2.6110   -0.8325 H   0  0  0  0  0  0  0  0  0  0  0  0
    3.3686   -1.8345   -2.8164 H   0  0  0  0  0  0  0  0  0  0  0  0
    3.9170    1.7232   -3.6376 H   0  0  0  0  0  0  0  0  0  0  0  0
    3.8891    0.0768   -4.2845 H   0  0  0  0  0  0  0  0  0  0  0  0
    5.9525   -0.4642   -2.9805 H   0  0  0  0  0  0  0  0  0  0  0  0
    5.9872    1.1868   -2.3540 H   0  0  0  0  0  0  0  0  0  0  0  0
    6.2210    0.8914   -4.0794 H   0  0  0  0  0  0  0  0  0  0  0  0
    3.2830    2.1543   -1.3112 H   0  0  0  0  0  0  0  0  0  0  0  0
    2.0652    1.3840    0.6704 H   0  0  0  0  0  0  0  0  0  0  0  0
   -0.3711   -2.1309   -0.9479 H   0  0  0  0  0  0  0  0  0  0  0  0
   -3.6686   -4.4184   -9.9937 H   0  0  0  0  0  0  0  0  0  0  0  0
   -2.3123   -5.8749  -11.4483 H   0  0  0  0  0  0  0  0  0  0  0  0
   -0.2315   -6.8843  -10.5845 H   0  0  0  0  0  0  0  0  0  0  0  0
    0.4641   -6.4571   -8.2556 H   0  0  0  0  0  0  0  0  0  0  0  0
   -0.8845   -5.0063   -6.8096 H   0  0  0  0  0  0  0  0  0  0  0  0
   -1.1438   -2.2446   -8.5618 H   0  0  0  0  0  0  0  0  0  0  0  0
    1.1512   -1.3751   -8.6047 H   0  0  0  0  0  0  0  0  0  0  0  0
    2.4031   -1.0654   -6.5037 H   0  0  0  0  0  0  0  0  0  0  0  0
    1.3367   -1.6238   -4.3424 H   0  0  0  0  0  0  0  0  0  0  0  0
   -0.9561   -2.5235   -4.3031 H   0  0  0  0  0  0  0  0  0  0  0  0
   -8.3699   -3.6365   -8.0145 H   0  0  0  0  0  0  0  0  0  0  0  0
   -7.4292   -2.1123  -13.5254 H   0  0  0  0  0  0  0  0  0  0  0  0
   -8.7808   -2.9993  -12.7531 H   0  0  0  0  0  0  0  0  0  0  0  0
   -7.7757   -4.3398  -14.6007 H   0  0  0  0  0  0  0  0  0  0  0  0
   -7.5256   -5.1357  -13.0423 H   0  0  0  0  0  0  0  0  0  0  0  0
   -6.1958   -4.2548  -13.8152 H   0  0  0  0  0  0  0  0  0  0  0  0
   -8.4940   -2.8595   -5.7574 H   0  0  0  0  0  0  0  0  0  0  0  0
   -7.4820   -2.3687   -3.6038 H   0  0  0  0  0  0  0  0  0  0  0  0
   -6.4581   -1.3049   -1.8703 H   0  0  0  0  0  0  0  0  0  0  0  0
   -5.4132    0.7162    2.5661 H   0  0  0  0  0  0  0  0  0  0  0  0
   -6.0621    3.0770    2.6648 H   0  0  0  0  0  0  0  0  0  0  0  0
   -5.5888    5.4718   -0.1028 H   0  0  0  0  0  0  0  0  0  0  0  0
   -5.9112    5.3080    1.6295 H   0  0  0  0  0  0  0  0  0  0  0  0
   -7.8644    4.5797   -0.6072 H   0  0  0  0  0  0  0  0  0  0  0  0
   -7.9582    6.0198    0.4123 H   0  0  0  0  0  0  0  0  0  0  0  0
   -8.1855    4.4165    1.1193 H   0  0  0  0  0  0  0  0  0  0  0  0
   -5.1859    3.4942   -1.4873 H   0  0  0  0  0  0  0  0  0  0  0  0
   -4.5179    1.1414   -1.5871 H   0  0  0  0  0  0  0  0  0  0  0  0
   -3.7009   -2.6413    2.2279 H   0  0  0  0  0  0  0  0  0  0  0  0
   -5.1374   -4.0888    3.5817 H   0  0  0  0  0  0  0  0  0  0  0  0
   -7.3701   -5.0639    3.9094 H   0  0  0  0  0  0  0  0  0  0  0  0
   -8.8042   -4.2628    3.2516 H   0  0  0  0  0  0  0  0  0  0  0  0
   -8.7194   -4.0413    5.7274 H   0  0  0  0  0  0  0  0  0  0  0  0
   -8.5770   -2.4573    4.9575 H   0  0  0  0  0  0  0  0  0  0  0  0
   -7.1437   -3.2502    5.6108 H   0  0  0  0  0  0  0  0  0  0  0  0
   -8.5941   -2.1759    1.9788 H   0  0  0  0  0  0  0  0  0  0  0  0
   -7.1579   -0.7154    0.6289 H   0  0  0  0  0  0  0  0  0  0  0  0
   -2.8616    0.3422    2.6334 H   0  0  0  0  0  0  0  0  0  0  0  0
  1  2  2  0  0  0  0
  2  3  1  0  0  0  0
  3  4  1  0  0  0  0
  4  5  2  0  0  0  0
  3  6  1  0  0  0  0
  6  7  1  0  0  0  0
  2  8  1  0  0  0  0
  8  9  1  0  0  0  0
  4  9  1  0  0  0  0
  8 10  2  0  0  0  0
 10 11  1  0  0  0  0
 11 12  1  0  0  0  0
 12 13  2  0  0  0  0
 13 14  1  0  0  0  0
 14 15  1  0  0  0  0
 15 16  2  0  0  0  0
 16 17  1  0  0  0  0
 17 18  2  0  0  0  0
 18 19  1  0  0  0  0
 19 20  2  0  0  0  0
 15 20  1  0  0  0  0
 14 21  2  0  0  0  0
 21 22  1  0  0  0  0
 22 23  2  0  0  0  0
 23 24  1  0  0  0  0
 24 25  2  0  0  0  0
 25 26  1  0  0  0  0
 26 27  2  0  0  0  0
 22 27  1  0  0  0  0
 11 28  2  0  0  0  0
 28 29  1  0  0  0  0
 29 30  2  0  0  0  0
 30 31  1  0  0  0  0
 12 31  1  0  0  0  0
 31 32  2  0  0  0  0
 21 32  1  0  0  0  0
 30 33  1  0  0  0  0
 33 34  2  0  0  0  0
 34 35  1  0  0  0  0
 35 36  2  0  0  0  0
 36 37  1  0  0  0  0
 33 37  1  0  0  0  0
 36 38  1  0  0  0  0
 38 39  2  0  0  0  0
 39 40  1  0  0  0  0
 35 40  1  0  0  0  0
 40 41  1  0  0  0  0
 41 42  2  0  0  0  0
 42 43  1  0  0  0  0
 43 44  2  0  0  0  0
 44 45  1  0  0  0  0
 45 46  1  0  0  0  0
 44 47  1  0  0  0  0
 47 48  2  0  0  0  0
 41 48  1  0  0  0  0
 40 49  1  0  0  0  0
 49 50  2  0  0  0  0
 50 51  1  0  0  0  0
 51 52  2  0  0  0  0
 52 53  1  0  0  0  0
 53 54  1  0  0  0  0
 52 55  1  0  0  0  0
 55 56  2  0  0  0  0
 49 56  1  0  0  0  0
 39 57  1  0  0  0  0
 57 58  2  0  0  0  0
 58 59  1  0  0  0  0
 59 60  1  0  0  0  0
 60 61  1  0  0  0  0
 61 62  2  0  0  0  0
 58 62  1  0  0  0  0
 62 63  1  0  0  0  0
 63 64  1  0  0  0  0
 64 65  1  0  0  0  0
 65 66  1  0  0  0  0
 66 67  1  0  0  0  0
 67 68  2  0  0  0  0
 68 69  1  0  0  0  0
 69 70  1  0  0  0  0
 70 71  2  0  0  0  0
 71 72  1  0  0  0  0
 72 73  2  0  0  0  0
 73 74  1  0  0  0  0
 74 75  2  0  0  0  0
 70 75  1  0  0  0  0
 69 76  2  0  0  0  0
 76 77  1  0  0  0  0
 77 78  2  0  0  0  0
 78 79  1  0  0  0  0
 79 80  2  0  0  0  0
 80 81  1  0  0  0  0
 81 82  2  0  0  0  0
 77 82  1  0  0  0  0
 76 83  1  0  0  0  0
 66 83  2  0  0  0  0
 67 84  1  0  0  0  0
 84 85  1  0  0  0  0
 85 86  2  0  0  0  0
 86 87  1  0  0  0  0
 87 88  1  0  0  0  0
 88 89  1  0  0  0  0
 89 90  1  0  0  0  0
 86 90  1  0  0  0  0
 89 91  2  0  0  0  0
 88 92  1  0  0  0  0
 92 93  1  0  0  0  0
 87 94  2  0  0  0  0
 84 95  2  0  0  0  0
 95 96  1  0  0  0  0
 65 96  2  0  0  0  0
 64 97  2  0  0  0  0
 61 97  1  0  0  0  0
 60 98  1  0  0  0  0
 98 99  2  0  0  0  0
 99100  1  0  0  0  0
100101  2  0  0  0  0
101102  1  0  0  0  0
102103  1  0  0  0  0
101104  1  0  0  0  0
104105  2  0  0  0  0
 98105  1  0  0  0  0
 60106  1  0  0  0  0
106107  2  0  0  0  0
107108  1  0  0  0  0
108109  2  0  0  0  0
109110  1  0  0  0  0
110111  1  0  0  0  0
109112  1  0  0  0  0
112113  2  0  0  0  0
106113  1  0  0  0  0
 59114  2  0  0  0  0
 38114  1  0  0  0  0
  6115  1  0  0  0  0
  6116  1  0  0  0  0
  7117  1  0  0  0  0
  7118  1  0  0  0  0
  7119  1  0  0  0  0
 10120  1  0  0  0  0
 16121  1  0  0  0  0
 17122  1  0  0  0  0
 18123  1  0  0  0  0
 19124  1  0  0  0  0
 20125  1  0  0  0  0
 23126  1  0  0  0  0
 24127  1  0  0  0  0
 25128  1  0  0  0  0
 26129  1  0  0  0  0
 27130  1  0  0  0  0
 28131  1  0  0  0  0
 29132  1  0  0  0  0
 34133  1  0  0  0  0
 42134  1  0  0  0  0
 43135  1  0  0  0  0
 45136  1  0  0  0  0
 45137  1  0  0  0  0
 46138  1  0  0  0  0
 46139  1  0  0  0  0
 46140  1  0  0  0  0
 47141  1  0  0  0  0
 48142  1  0  0  0  0
 50143  1  0  0  0  0
 51144  1  0  0  0  0
 53145  1  0  0  0  0
 53146  1  0  0  0  0
 54147  1  0  0  0  0
 54148  1  0  0  0  0
 54149  1  0  0  0  0
 55150  1  0  0  0  0
 56151  1  0  0  0  0
 57152  1  0  0  0  0
 71153  1  0  0  0  0
 72154  1  0  0  0  0
 73155  1  0  0  0  0
 74156  1  0  0  0  0
 75157  1  0  0  0  0
 78158  1  0  0  0  0
 79159  1  0  0  0  0
 80160  1  0  0  0  0
 81161  1  0  0  0  0
 82162  1  0  0  0  0
 85163  1  0  0  0  0
 92164  1  0  0  0  0
 92165  1  0  0  0  0
 93166  1  0  0  0  0
 93167  1  0  0  0  0
 93168  1  0  0  0  0
 95169  1  0  0  0  0
 96170  1  0  0  0  0
 97171  1  0  0  0  0
 99172  1  0  0  0  0
100173  1  0  0  0  0
102174  1  0  0  0  0
102175  1  0  0  0  0
103176  1  0  0  0  0
103177  1  0  0  0  0
103178  1  0  0  0  0
104179  1  0  0  0  0
105180  1  0  0  0  0
107181  1  0  0  0  0
108182  1  0  0  0  0
110183  1  0  0  0  0
110184  1  0  0  0  0
111185  1  0  0  0  0
111186  1  0  0  0  0
111187  1  0  0  0  0
112188  1  0  0  0  0
113189  1  0  0  0  0
114190  1  0  0  0  0
M  END
