SCF done       -196.934919114248          0.000534232327
 OpenBabel12282109493D

118128  0  0  0  0  0  0  0  0999 V2000
    2.1948   -2.4667   -0.2368 C   0  0  0  0  0  0  0  0  0  0  0  0
    2.4103   -1.9582    1.0664 C   0  0  0  0  0  0  0  0  0  0  0  0
    1.5223   -1.0688    1.6686 C   0  0  0  0  0  0  0  0  0  0  0  0
    0.3948   -0.7184    0.9620 C   0  0  0  0  0  0  0  0  0  0  0  0
    0.1534   -1.2790   -0.3165 C   0  0  0  0  0  0  0  0  0  0  0  0
    1.0612   -2.1333   -0.9381 C   0  0  0  0  0  0  0  0  0  0  0  0
    3.3086   -3.4125   -0.6414 C   0  0  0  0  0  0  0  0  0  0  0  0
    4.1317   -3.4369    0.6163 C   0  0  0  0  0  0  0  0  0  0  0  0
    3.5976   -2.5755    1.5672 C   0  0  0  0  0  0  0  0  0  0  0  0
    5.2391   -4.1284    1.0797 C   0  0  0  0  0  0  0  0  0  0  0  0
    5.5545   -3.8043    2.3947 C   0  0  0  0  0  0  0  0  0  0  0  0
    4.4710   -2.5926    3.0454 S   0  0  0  0  0  0  0  0  0  0  0  0
   -0.7557    0.1790    1.3827 C   0  0  0  0  0  0  0  0  0  0  0  0
   -1.7342   -0.0663    0.2632 C   0  0  0  0  0  0  0  0  0  0  0  0
   -1.1554   -0.8671   -0.7098 C   0  0  0  0  0  0  0  0  0  0  0  0
   -3.0444    0.2901   -0.0297 C   0  0  0  0  0  0  0  0  0  0  0  0
   -3.4900   -0.2576   -1.2218 C   0  0  0  0  0  0  0  0  0  0  0  0
   -2.2249   -1.2054   -2.0015 S   0  0  0  0  0  0  0  0  0  0  0  0
    6.5611   -4.3969    3.2104 C   0  0  0  0  0  0  0  0  0  0  0  0
   -4.7920   -0.2117   -1.8094 C   0  0  0  0  0  0  0  0  0  0  0  0
    2.7706   -4.8108   -0.9942 C   0  0  0  0  0  0  0  0  0  0  0  0
    4.1093   -2.8511   -1.8323 C   0  0  0  0  0  0  0  0  0  0  0  0
    7.3708   -5.4444    2.7767 C   0  0  0  0  0  0  0  0  0  0  0  0
    8.2742   -6.0794    3.6115 C   0  0  0  0  0  0  0  0  0  0  0  0
    8.4473   -5.7088    4.9434 C   0  0  0  0  0  0  0  0  0  0  0  0
    7.6795   -4.5941    5.4144 C   0  0  0  0  0  0  0  0  0  0  0  0
    6.7442   -3.9561    4.5576 C   0  0  0  0  0  0  0  0  0  0  0  0
   -5.0989   -1.0094   -2.9085 C   0  0  0  0  0  0  0  0  0  0  0  0
   -6.3669   -1.0903   -3.4550 C   0  0  0  0  0  0  0  0  0  0  0  0
   -7.4329   -0.3586   -2.9414 C   0  0  0  0  0  0  0  0  0  0  0  0
   -7.1487    0.5346   -1.8561 C   0  0  0  0  0  0  0  0  0  0  0  0
   -5.8451    0.6098   -1.2889 C   0  0  0  0  0  0  0  0  0  0  0  0
    9.3028   -6.3351    5.8967 C   0  0  0  0  0  0  0  0  0  0  0  0
   10.0646   -7.4620    5.8751 C   0  0  0  0  0  0  0  0  0  0  0  0
   -8.7890   -0.4112   -3.3811 C   0  0  0  0  0  0  0  0  0  0  0  0
   -9.4560   -1.1947   -4.2703 C   0  0  0  0  0  0  0  0  0  0  0  0
   -9.0473   -2.2987   -5.1338 C   0  0  0  0  0  0  0  0  0  0  0  0
  -10.1409   -2.8253   -5.8130 N   0  0  0  0  0  0  0  0  0  0  0  0
  -11.3463   -2.2463   -5.5762 C   0  0  0  0  0  0  0  0  0  0  0  0
  -11.1937   -0.9256   -4.4470 S   0  0  0  0  0  0  0  0  0  0  0  0
   10.3127   -8.4807    4.8599 C   0  0  0  0  0  0  0  0  0  0  0  0
   11.1169   -9.4963    5.3659 N   0  0  0  0  0  0  0  0  0  0  0  0
   11.5260   -9.3695    6.6547 C   0  0  0  0  0  0  0  0  0  0  0  0
   10.9250   -7.8906    7.3578 S   0  0  0  0  0  0  0  0  0  0  0  0
   11.4186  -10.6315    4.5127 C   0  0  0  0  0  0  0  0  0  0  0  0
    9.9152   -8.5086    3.7135 O   0  0  0  0  0  0  0  0  0  0  0  0
   12.3109  -10.2215    7.3914 C   0  0  0  0  0  0  0  0  0  0  0  0
   -7.9326   -2.7495   -5.2966 O   0  0  0  0  0  0  0  0  0  0  0  0
   -9.9332   -3.9746   -6.6754 C   0  0  0  0  0  0  0  0  0  0  0  0
  -12.5702   -2.5700   -6.1072 C   0  0  0  0  0  0  0  0  0  0  0  0
   10.4517  -11.7846    4.7542 C   0  0  0  0  0  0  0  0  0  0  0  0
  -10.2370   -5.2800   -5.9498 C   0  0  0  0  0  0  0  0  0  0  0  0
    7.8324   -4.1587    6.6780 N   0  0  0  0  0  0  0  0  0  0  0  0
    7.1031   -3.1508    7.0811 C   0  0  0  0  0  0  0  0  0  0  0  0
    6.1713   -2.5266    6.2360 C   0  0  0  0  0  0  0  0  0  0  0  0
    6.0076   -2.9298    5.0032 N   0  0  0  0  0  0  0  0  0  0  0  0
   -8.1416    1.3019   -1.3700 N   0  0  0  0  0  0  0  0  0  0  0  0
   -7.8768    2.1143   -0.3814 C   0  0  0  0  0  0  0  0  0  0  0  0
   -6.5896    2.1962    0.1709 C   0  0  0  0  0  0  0  0  0  0  0  0
   -5.6055    1.4596   -0.2753 N   0  0  0  0  0  0  0  0  0  0  0  0
   -1.3339   -0.2099    2.7505 C   0  0  0  0  0  0  0  0  0  0  0  0
   12.6302   -9.8857    8.7240 C   0  0  0  0  0  0  0  0  0  0  0  0
   12.8532  -11.4466    6.9689 C   0  0  0  0  0  0  0  0  0  0  0  0
  -13.7054   -1.8224   -5.7290 C   0  0  0  0  0  0  0  0  0  0  0  0
  -12.8488   -3.6043   -7.0162 C   0  0  0  0  0  0  0  0  0  0  0  0
  -13.1503   -4.4342   -7.7513 N   0  0  0  0  0  0  0  0  0  0  0  0
  -14.6366   -1.2239   -5.4282 N   0  0  0  0  0  0  0  0  0  0  0  0
   12.8959   -9.6244    9.8089 N   0  0  0  0  0  0  0  0  0  0  0  0
   13.3200  -12.4598    6.6947 N   0  0  0  0  0  0  0  0  0  0  0  0
   -0.3617    1.6740    1.3308 C   0  0  0  0  0  0  0  0  0  0  0  0
    1.9599   -5.4376    0.1335 C   0  0  0  0  0  0  0  0  0  0  0  0
    4.6789   -1.4630   -1.5661 C   0  0  0  0  0  0  0  0  0  0  0  0
   -1.8416   -1.6471    2.7814 C   0  0  0  0  0  0  0  0  0  0  0  0
    0.7547    2.0922    2.2779 C   0  0  0  0  0  0  0  0  0  0  0  0
    1.7139   -0.7099    2.6678 H   0  0  0  0  0  0  0  0  0  0  0  0
    0.8512   -2.5329   -1.9188 H   0  0  0  0  0  0  0  0  0  0  0  0
    5.7910   -4.8472    0.5020 H   0  0  0  0  0  0  0  0  0  0  0  0
   -3.6814    0.8985    0.5835 H   0  0  0  0  0  0  0  0  0  0  0  0
    2.1476   -4.7304   -1.8871 H   0  0  0  0  0  0  0  0  0  0  0  0
    3.6173   -5.4569   -1.2352 H   0  0  0  0  0  0  0  0  0  0  0  0
    4.9253   -3.5413   -2.0569 H   0  0  0  0  0  0  0  0  0  0  0  0
    3.4527   -2.8121   -2.7037 H   0  0  0  0  0  0  0  0  0  0  0  0
    7.2826   -5.7966    1.7613 H   0  0  0  0  0  0  0  0  0  0  0  0
    8.8503   -6.9003    3.2192 H   0  0  0  0  0  0  0  0  0  0  0  0
   -4.3164   -1.6172   -3.3395 H   0  0  0  0  0  0  0  0  0  0  0  0
   -6.5330   -1.7536   -4.2867 H   0  0  0  0  0  0  0  0  0  0  0  0
    9.3069   -5.8035    6.8433 H   0  0  0  0  0  0  0  0  0  0  0  0
   -9.4082    0.3140   -2.8621 H   0  0  0  0  0  0  0  0  0  0  0  0
   11.3127  -10.2708    3.4858 H   0  0  0  0  0  0  0  0  0  0  0  0
   12.4499  -10.9441    4.6817 H   0  0  0  0  0  0  0  0  0  0  0  0
  -10.5512   -3.8705   -7.5682 H   0  0  0  0  0  0  0  0  0  0  0  0
   -8.8777   -3.9483   -6.9600 H   0  0  0  0  0  0  0  0  0  0  0  0
    9.4302  -11.4636    4.5622 H   0  0  0  0  0  0  0  0  0  0  0  0
   10.6937  -12.6024    4.0822 H   0  0  0  0  0  0  0  0  0  0  0  0
   10.5245  -12.1497    5.7759 H   0  0  0  0  0  0  0  0  0  0  0  0
  -11.2788   -5.3240   -5.6413 H   0  0  0  0  0  0  0  0  0  0  0  0
  -10.0439   -6.1144   -6.6171 H   0  0  0  0  0  0  0  0  0  0  0  0
   -9.6010   -5.3780   -5.0727 H   0  0  0  0  0  0  0  0  0  0  0  0
    7.2540   -2.8221    8.1003 H   0  0  0  0  0  0  0  0  0  0  0  0
    5.5614   -1.6972    6.5648 H   0  0  0  0  0  0  0  0  0  0  0  0
   -8.6957    2.7193   -0.0167 H   0  0  0  0  0  0  0  0  0  0  0  0
   -6.3593    2.8724    0.9832 H   0  0  0  0  0  0  0  0  0  0  0  0
   -0.5623   -0.0900    3.5114 H   0  0  0  0  0  0  0  0  0  0  0  0
   -2.1538    0.4710    2.9879 H   0  0  0  0  0  0  0  0  0  0  0  0
   -0.0572    1.9050    0.3066 H   0  0  0  0  0  0  0  0  0  0  0  0
   -1.2585    2.2587    1.5483 H   0  0  0  0  0  0  0  0  0  0  0  0
    1.1020   -4.8164    0.3812 H   0  0  0  0  0  0  0  0  0  0  0  0
    1.5994   -6.4186   -0.1666 H   0  0  0  0  0  0  0  0  0  0  0  0
    2.5683   -5.5543    1.0274 H   0  0  0  0  0  0  0  0  0  0  0  0
    5.3529   -1.4794   -0.7127 H   0  0  0  0  0  0  0  0  0  0  0  0
    5.2333   -1.1150   -2.4344 H   0  0  0  0  0  0  0  0  0  0  0  0
    3.8811   -0.7531   -1.3596 H   0  0  0  0  0  0  0  0  0  0  0  0
   -1.0390   -2.3422    2.5439 H   0  0  0  0  0  0  0  0  0  0  0  0
   -2.2232   -1.8877    3.7708 H   0  0  0  0  0  0  0  0  0  0  0  0
   -2.6438   -1.7897    2.0610 H   0  0  0  0  0  0  0  0  0  0  0  0
    1.6790    1.5720    2.0418 H   0  0  0  0  0  0  0  0  0  0  0  0
    0.9320    3.1605    2.1742 H   0  0  0  0  0  0  0  0  0  0  0  0
    0.4921    1.8947    3.3137 H   0  0  0  0  0  0  0  0  0  0  0  0
  1  2  2  0  0  0  0
  2  9  1  0  0  0  0
  2  3  1  0  0  0  0
  3 75  1  0  0  0  0
  4 13  1  0  0  0  0
  4  3  2  0  0  0  0
  5  4  1  0  0  0  0
  6  5  2  0  0  0  0
  6  1  1  0  0  0  0
  7  1  1  0  0  0  0
  7  8  1  0  0  0  0
  8 10  1  0  0  0  0
  8  9  2  0  0  0  0
  9 12  1  0  0  0  0
 10 11  2  0  0  0  0
 11 12  1  0  0  0  0
 11 19  1  0  0  0  0
 13 61  1  0  0  0  0
 14 13  1  0  0  0  0
 15  5  1  0  0  0  0
 15 14  2  0  0  0  0
 16 14  1  0  0  0  0
 16 78  1  0  0  0  0
 17 16  2  0  0  0  0
 18 17  1  0  0  0  0
 18 15  1  0  0  0  0
 19 27  1  0  0  0  0
 20 32  1  0  0  0  0
 20 17  1  0  0  0  0
 21  7  1  0  0  0  0
 21 71  1  0  0  0  0
 22 72  1  0  0  0  0
 22  7  1  0  0  0  0
 23 19  2  0  0  0  0
 23 24  1  0  0  0  0
 24 25  2  0  0  0  0
 25 26  1  0  0  0  0
 25 33  1  0  0  0  0
 26 53  2  0  0  0  0
 27 56  2  0  0  0  0
 27 26  1  0  0  0  0
 28 20  2  0  0  0  0
 29 30  2  0  0  0  0
 29 28  1  0  0  0  0
 30 31  1  0  0  0  0
 31 57  2  0  0  0  0
 31 32  1  0  0  0  0
 32 60  2  0  0  0  0
 33 87  1  0  0  0  0
 34 33  2  0  0  0  0
 34 44  1  0  0  0  0
 35 30  1  0  0  0  0
 35 88  1  0  0  0  0
 36 35  2  0  0  0  0
 37 36  1  0  0  0  0
 38 39  1  0  0  0  0
 38 37  1  0  0  0  0
 39 40  1  0  0  0  0
 40 36  1  0  0  0  0
 41 42  1  0  0  0  0
 41 34  1  0  0  0  0
 42 43  1  0  0  0  0
 43 44  1  0  0  0  0
 43 47  2  0  0  0  0
 45 90  1  0  0  0  0
 45 51  1  0  0  0  0
 45 42  1  0  0  0  0
 46 41  2  0  0  0  0
 47 62  1  0  0  0  0
 48 37  2  0  0  0  0
 49 52  1  0  0  0  0
 49 38  1  0  0  0  0
 50 64  1  0  0  0  0
 50 39  2  0  0  0  0
 51 95  1  0  0  0  0
 52 96  1  0  0  0  0
 52 98  1  0  0  0  0
 53 54  1  0  0  0  0
 54 99  1  0  0  0  0
 55100  1  0  0  0  0
 55 54  2  0  0  0  0
 56 55  1  0  0  0  0
 57 58  1  0  0  0  0
 58101  1  0  0  0  0
 58 59  2  0  0  0  0
 59102  1  0  0  0  0
 60 59  1  0  0  0  0
 61 73  1  0  0  0  0
 61104  1  0  0  0  0
 61103  1  0  0  0  0
 62 68  3  0  0  0  0
 63 47  1  0  0  0  0
 64 67  3  0  0  0  0
 65 50  1  0  0  0  0
 66 65  3  0  0  0  0
 69 63  3  0  0  0  0
 70 13  1  0  0  0  0
 70106  1  0  0  0  0
 70 74  1  0  0  0  0
 71107  1  0  0  0  0
 71109  1  0  0  0  0
 72112  1  0  0  0  0
 72110  1  0  0  0  0
 73114  1  0  0  0  0
 74118  1  0  0  0  0
 76  6  1  0  0  0  0
 77 10  1  0  0  0  0
 79 21  1  0  0  0  0
 80 21  1  0  0  0  0
 81 22  1  0  0  0  0
 82 22  1  0  0  0  0
 83 23  1  0  0  0  0
 84 24  1  0  0  0  0
 85 28  1  0  0  0  0
 86 29  1  0  0  0  0
 89 45  1  0  0  0  0
 91 49  1  0  0  0  0
 92 49  1  0  0  0  0
 93 51  1  0  0  0  0
 94 51  1  0  0  0  0
 97 52  1  0  0  0  0
105 70  1  0  0  0  0
108 71  1  0  0  0  0
111 72  1  0  0  0  0
113 73  1  0  0  0  0
115 73  1  0  0  0  0
116 74  1  0  0  0  0
117 74  1  0  0  0  0
M  END
