SCF done       -365.855519991954          0.000344321787
 OpenBabel12282109493D

224247  0  0  0  0  0  0  0  0999 V2000
    4.8890    0.0017    1.9988 C   0  0  0  0  0  0  0  0  0  0  0  0
    4.0782   -0.8474    1.2085 C   0  0  0  0  0  0  0  0  0  0  0  0
    6.1764   -0.6102    2.0820 C   0  0  0  0  0  0  0  0  0  0  0  0
    6.1951   -1.8059    1.3809 C   0  0  0  0  0  0  0  0  0  0  0  0
    4.8485   -2.0797    0.7673 C   0  0  0  0  0  0  0  0  0  0  0  0
    5.0399   -2.1864   -0.7357 C   0  0  0  0  0  0  0  0  0  0  0  0
    4.1635   -3.3116    1.3298 C   0  0  0  0  0  0  0  0  0  0  0  0
    5.5291   -3.3738   -1.2677 C   0  0  0  0  0  0  0  0  0  0  0  0
    5.7662   -3.4888   -2.6233 C   0  0  0  0  0  0  0  0  0  0  0  0
    5.5242   -2.4243   -3.4825 C   0  0  0  0  0  0  0  0  0  0  0  0
    5.0444   -1.2386   -2.9440 C   0  0  0  0  0  0  0  0  0  0  0  0
    4.8121   -1.1144   -1.5858 C   0  0  0  0  0  0  0  0  0  0  0  0
    3.1063   -3.8904    0.6393 C   0  0  0  0  0  0  0  0  0  0  0  0
    2.4533   -4.9938    1.1540 C   0  0  0  0  0  0  0  0  0  0  0  0
    2.8369   -5.5484    2.3682 C   0  0  0  0  0  0  0  0  0  0  0  0
    3.8860   -4.9585    3.0595 C   0  0  0  0  0  0  0  0  0  0  0  0
    4.5402   -3.8516    2.5508 C   0  0  0  0  0  0  0  0  0  0  0  0
    5.7287   -2.5692   -4.9630 C   0  0  0  0  0  0  0  0  0  0  0  0
    4.4495   -3.0798   -5.6297 C   0  0  0  0  0  0  0  0  0  0  0  0
    2.1029   -6.7255    2.9427 C   0  0  0  0  0  0  0  0  0  0  0  0
    0.9392   -6.2547    3.8174 C   0  0  0  0  0  0  0  0  0  0  0  0
    7.6979   -0.1752    2.7843 S   0  0  0  0  0  0  0  0  0  0  0  0
    8.3972   -1.6211    2.1007 C   0  0  0  0  0  0  0  0  0  0  0  0
    7.4585   -2.3892    1.3735 C   0  0  0  0  0  0  0  0  0  0  0  0
    4.4218    1.2194    2.4900 C   0  0  0  0  0  0  0  0  0  0  0  0
    3.1434    1.5865    2.1452 C   0  0  0  0  0  0  0  0  0  0  0  0
    2.3281    0.7308    1.3658 C   0  0  0  0  0  0  0  0  0  0  0  0
    2.7817   -0.5023    0.9062 C   0  0  0  0  0  0  0  0  0  0  0  0
    2.4170    2.8840    2.4634 C   0  0  0  0  0  0  0  0  0  0  0  0
    1.1259    2.6751    1.7170 C   0  0  0  0  0  0  0  0  0  0  0  0
    1.1053    1.4275    1.1206 C   0  0  0  0  0  0  0  0  0  0  0  0
    2.2449    2.9803    3.9674 C   0  0  0  0  0  0  0  0  0  0  0  0
    3.0780    4.1228    1.8879 C   0  0  0  0  0  0  0  0  0  0  0  0
    0.0088    3.4334    1.3677 C   0  0  0  0  0  0  0  0  0  0  0  0
   -0.8653    2.7323    0.5144 C   0  0  0  0  0  0  0  0  0  0  0  0
   -0.3039    1.1285    0.1572 S   0  0  0  0  0  0  0  0  0  0  0  0
   -0.5026    5.0700    1.6425 S   0  0  0  0  0  0  0  0  0  0  0  0
   -1.8455    4.8112    0.5766 C   0  0  0  0  0  0  0  0  0  0  0  0
   -1.9180    3.5278    0.0661 C   0  0  0  0  0  0  0  0  0  0  0  0
   -2.8421    5.6444   -0.0195 C   0  0  0  0  0  0  0  0  0  0  0  0
   -3.5810    4.8310   -0.9128 C   0  0  0  0  0  0  0  0  0  0  0  0
   -3.0995    3.3912   -0.8566 C   0  0  0  0  0  0  0  0  0  0  0  0
   -4.0832    2.4505   -0.1797 C   0  0  0  0  0  0  0  0  0  0  0  0
   -2.7409    2.9181   -2.2502 C   0  0  0  0  0  0  0  0  0  0  0  0
   -3.0753    7.0122    0.0920 C   0  0  0  0  0  0  0  0  0  0  0  0
   -4.0205    7.5590   -0.7445 C   0  0  0  0  0  0  0  0  0  0  0  0
   -4.7399    6.7495   -1.6553 C   0  0  0  0  0  0  0  0  0  0  0  0
   -4.5377    5.3730   -1.7360 C   0  0  0  0  0  0  0  0  0  0  0  0
   -4.4221    9.0180   -0.8791 C   0  0  0  0  0  0  0  0  0  0  0  0
   -5.4131    8.9341   -2.0087 C   0  0  0  0  0  0  0  0  0  0  0  0
   -5.5732    7.6198   -2.4217 C   0  0  0  0  0  0  0  0  0  0  0  0
   -5.0351    9.4718    0.4335 C   0  0  0  0  0  0  0  0  0  0  0  0
   -3.2980    9.9382   -1.3203 C   0  0  0  0  0  0  0  0  0  0  0  0
   -6.1454    9.8140   -2.7970 C   0  0  0  0  0  0  0  0  0  0  0  0
   -6.8770    9.1492   -3.8084 C   0  0  0  0  0  0  0  0  0  0  0  0
   -6.6459    7.4217   -3.7638 S   0  0  0  0  0  0  0  0  0  0  0  0
    3.2772    3.4835    4.7493 C   0  0  0  0  0  0  0  0  0  0  0  0
    3.1528    3.5387    6.1239 C   0  0  0  0  0  0  0  0  0  0  0  0
    1.9993    3.0901    6.7548 C   0  0  0  0  0  0  0  0  0  0  0  0
    0.9728    2.5849    5.9692 C   0  0  0  0  0  0  0  0  0  0  0  0
    1.0937    2.5242    4.5928 C   0  0  0  0  0  0  0  0  0  0  0  0
    3.9962    4.0467    0.8507 C   0  0  0  0  0  0  0  0  0  0  0  0
    4.5294    5.1996    0.3030 C   0  0  0  0  0  0  0  0  0  0  0  0
    4.1489    6.4527    0.7629 C   0  0  0  0  0  0  0  0  0  0  0  0
    3.2192    6.5229    1.7926 C   0  0  0  0  0  0  0  0  0  0  0  0
    2.6876    5.3751    2.3473 C   0  0  0  0  0  0  0  0  0  0  0  0
   -5.1957    2.9147    0.5060 C   0  0  0  0  0  0  0  0  0  0  0  0
   -6.0409    2.0266    1.1474 C   0  0  0  0  0  0  0  0  0  0  0  0
   -5.7914    0.6616    1.1314 C   0  0  0  0  0  0  0  0  0  0  0  0
   -4.6694    0.2041    0.4513 C   0  0  0  0  0  0  0  0  0  0  0  0
   -3.8239    1.0850   -0.1937 C   0  0  0  0  0  0  0  0  0  0  0  0
   -1.4651    3.1054   -2.7631 C   0  0  0  0  0  0  0  0  0  0  0  0
   -1.1565    2.6888   -4.0447 C   0  0  0  0  0  0  0  0  0  0  0  0
   -2.1147    2.0904   -4.8512 C   0  0  0  0  0  0  0  0  0  0  0  0
   -3.3956    1.9239   -4.3406 C   0  0  0  0  0  0  0  0  0  0  0  0
   -3.7077    2.3334   -3.0584 C   0  0  0  0  0  0  0  0  0  0  0  0
   -4.2142    9.9228    1.4595 C   0  0  0  0  0  0  0  0  0  0  0  0
   -4.7545   10.3096    2.6706 C   0  0  0  0  0  0  0  0  0  0  0  0
   -6.1246   10.2523    2.8924 C   0  0  0  0  0  0  0  0  0  0  0  0
   -6.9389    9.7918    1.8671 C   0  0  0  0  0  0  0  0  0  0  0  0
   -6.4028    9.4000    0.6541 C   0  0  0  0  0  0  0  0  0  0  0  0
   -2.1254    9.4509   -1.8781 C   0  0  0  0  0  0  0  0  0  0  0  0
   -1.1454   10.3244   -2.3153 C   0  0  0  0  0  0  0  0  0  0  0  0
   -1.3157   11.6984   -2.2186 C   0  0  0  0  0  0  0  0  0  0  0  0
   -2.5011   12.1802   -1.6768 C   0  0  0  0  0  0  0  0  0  0  0  0
   -3.4803   11.3135   -1.2331 C   0  0  0  0  0  0  0  0  0  0  0  0
    1.8473    3.1982    8.2446 C   0  0  0  0  0  0  0  0  0  0  0  0
    1.2492    4.5548    8.6230 C   0  0  0  0  0  0  0  0  0  0  0  0
    4.7614    7.7007    0.1958 C   0  0  0  0  0  0  0  0  0  0  0  0
    6.0093    8.0908    0.9905 C   0  0  0  0  0  0  0  0  0  0  0  0
   -6.7363   -0.3014    1.7905 C   0  0  0  0  0  0  0  0  0  0  0  0
   -7.8159   -0.7500    0.8034 C   0  0  0  0  0  0  0  0  0  0  0  0
   -1.7621    1.5883   -6.2215 C   0  0  0  0  0  0  0  0  0  0  0  0
   -1.2720    0.1407   -6.1471 C   0  0  0  0  0  0  0  0  0  0  0  0
   -6.7142   10.7284    4.1882 C   0  0  0  0  0  0  0  0  0  0  0  0
   -7.0336   12.2227    4.1095 C   0  0  0  0  0  0  0  0  0  0  0  0
   -0.2707   12.6435   -2.7370 C   0  0  0  0  0  0  0  0  0  0  0  0
   -0.5618   13.0129   -4.1930 C   0  0  0  0  0  0  0  0  0  0  0  0
   10.9462   -4.0308    1.1878 C   0  0  0  0  0  0  0  0  0  0  0  0
   11.2413   -5.1638    0.4661 C   0  0  0  0  0  0  0  0  0  0  0  0
   10.2908   -5.9490   -0.3262 C   0  0  0  0  0  0  0  0  0  0  0  0
   11.0797   -7.0322   -0.9485 C   0  0  0  0  0  0  0  0  0  0  0  0
   12.4222   -6.9186   -0.5497 C   0  0  0  0  0  0  0  0  0  0  0  0
   12.5533   -5.7648    0.3410 C   0  0  0  0  0  0  0  0  0  0  0  0
    9.0944   -5.7680   -0.4598 O   0  0  0  0  0  0  0  0  0  0  0  0
   13.7232   -5.3577    0.9307 C   0  0  0  0  0  0  0  0  0  0  0  0
   13.8757   -4.2547    1.7963 C   0  0  0  0  0  0  0  0  0  0  0  0
   14.9654   -6.0020    0.7504 C   0  0  0  0  0  0  0  0  0  0  0  0
   14.0928   -3.3792    2.5080 N   0  0  0  0  0  0  0  0  0  0  0  0
   16.0071   -6.4736    0.6482 N   0  0  0  0  0  0  0  0  0  0  0  0
   10.6506   -8.0318   -1.7962 C   0  0  0  0  0  0  0  0  0  0  0  0
   11.5876   -8.9459   -2.2621 C   0  0  0  0  0  0  0  0  0  0  0  0
   12.9263   -8.8420   -1.8719 C   0  0  0  0  0  0  0  0  0  0  0  0
   13.3531   -7.8320   -1.0155 C   0  0  0  0  0  0  0  0  0  0  0  0
   11.0961  -10.2055   -3.3212 Cl  0  0  0  0  0  0  0  0  0  0  0  0
   14.0757   -9.9776   -2.4551 Cl  0  0  0  0  0  0  0  0  0  0  0  0
   -7.9020   12.5217   -4.8605 C   0  0  0  0  0  0  0  0  0  0  0  0
   -8.6926   12.7804   -5.9546 C   0  0  0  0  0  0  0  0  0  0  0  0
   -9.3553   11.8198   -6.8588 C   0  0  0  0  0  0  0  0  0  0  0  0
  -10.0834   12.6418   -7.8496 C   0  0  0  0  0  0  0  0  0  0  0  0
   -9.8843   14.0037   -7.5753 C   0  0  0  0  0  0  0  0  0  0  0  0
   -9.0170   14.1235   -6.4040 C   0  0  0  0  0  0  0  0  0  0  0  0
   -9.3443   10.6058   -6.8339 O   0  0  0  0  0  0  0  0  0  0  0  0
   -8.5925   15.3155   -5.8738 C   0  0  0  0  0  0  0  0  0  0  0  0
   -7.7327   15.4949   -4.7692 C   0  0  0  0  0  0  0  0  0  0  0  0
   -8.9590   16.5807   -6.3814 C   0  0  0  0  0  0  0  0  0  0  0  0
   -7.0377   15.7545   -3.8915 N   0  0  0  0  0  0  0  0  0  0  0  0
   -9.2114   17.6439   -6.7332 N   0  0  0  0  0  0  0  0  0  0  0  0
  -10.8574   12.2131   -8.9078 C   0  0  0  0  0  0  0  0  0  0  0  0
  -11.4514   13.1717   -9.7187 C   0  0  0  0  0  0  0  0  0  0  0  0
  -11.2604   14.5316   -9.4543 C   0  0  0  0  0  0  0  0  0  0  0  0
  -10.4791   14.9574   -8.3854 C   0  0  0  0  0  0  0  0  0  0  0  0
  -12.0000   15.7089  -10.4634 Cl  0  0  0  0  0  0  0  0  0  0  0  0
  -12.4212   12.6823  -11.0489 Cl  0  0  0  0  0  0  0  0  0  0  0  0
    8.1739   -3.7885    0.6750 S   0  0  0  0  0  0  0  0  0  0  0  0
    9.7389   -3.3445    1.3542 C   0  0  0  0  0  0  0  0  0  0  0  0
    9.6658   -2.1586    2.0952 C   0  0  0  0  0  0  0  0  0  0  0  0
   -6.3737   11.5114   -2.8868 S   0  0  0  0  0  0  0  0  0  0  0  0
   -7.4339   11.3257   -4.2982 C   0  0  0  0  0  0  0  0  0  0  0  0
   -7.5945    9.9884   -4.6417 C   0  0  0  0  0  0  0  0  0  0  0  0
    5.7220   -4.2140   -0.6174 H   0  0  0  0  0  0  0  0  0  0  0  0
    6.1507   -4.4184   -3.0165 H   0  0  0  0  0  0  0  0  0  0  0  0
    4.8544   -0.3957   -3.5936 H   0  0  0  0  0  0  0  0  0  0  0  0
    4.4487   -0.1766   -1.1913 H   0  0  0  0  0  0  0  0  0  0  0  0
    2.8033   -3.4850   -0.3152 H   0  0  0  0  0  0  0  0  0  0  0  0
    1.6368   -5.4355    0.6005 H   0  0  0  0  0  0  0  0  0  0  0  0
    4.1999   -5.3722    4.0073 H   0  0  0  0  0  0  0  0  0  0  0  0
    5.3529   -3.4113    3.1099 H   0  0  0  0  0  0  0  0  0  0  0  0
    5.9999   -1.6045   -5.3968 H   0  0  0  0  0  0  0  0  0  0  0  0
    6.5408   -3.2724   -5.1570 H   0  0  0  0  0  0  0  0  0  0  0  0
    3.6296   -2.3862   -5.4561 H   0  0  0  0  0  0  0  0  0  0  0  0
    4.5944   -3.1853   -6.7023 H   0  0  0  0  0  0  0  0  0  0  0  0
    4.1707   -4.0479   -5.2195 H   0  0  0  0  0  0  0  0  0  0  0  0
    1.7162   -7.3508    2.1354 H   0  0  0  0  0  0  0  0  0  0  0  0
    2.7848   -7.3285    3.5454 H   0  0  0  0  0  0  0  0  0  0  0  0
    0.2409   -5.6618    3.2309 H   0  0  0  0  0  0  0  0  0  0  0  0
    0.4075   -7.1067    4.2348 H   0  0  0  0  0  0  0  0  0  0  0  0
    1.3062   -5.6388    4.6355 H   0  0  0  0  0  0  0  0  0  0  0  0
    5.0606    1.8551    3.0832 H   0  0  0  0  0  0  0  0  0  0  0  0
    2.1465   -1.1354    0.3064 H   0  0  0  0  0  0  0  0  0  0  0  0
   -2.5048    7.6149    0.7814 H   0  0  0  0  0  0  0  0  0  0  0  0
   -5.0935    4.7720   -2.4391 H   0  0  0  0  0  0  0  0  0  0  0  0
    4.1784    3.8476    4.2776 H   0  0  0  0  0  0  0  0  0  0  0  0
    3.9650    3.9346    6.7168 H   0  0  0  0  0  0  0  0  0  0  0  0
    0.0664    2.2300    6.4388 H   0  0  0  0  0  0  0  0  0  0  0  0
    0.2824    2.1200    4.0047 H   0  0  0  0  0  0  0  0  0  0  0  0
    4.2998    3.0835    0.4672 H   0  0  0  0  0  0  0  0  0  0  0  0
    5.2485    5.1219   -0.5003 H   0  0  0  0  0  0  0  0  0  0  0  0
    2.9026    7.4879    2.1617 H   0  0  0  0  0  0  0  0  0  0  0  0
    1.9659    5.4497    3.1479 H   0  0  0  0  0  0  0  0  0  0  0  0
   -5.4081    3.9732    0.5411 H   0  0  0  0  0  0  0  0  0  0  0  0
   -6.9063    2.4046    1.6731 H   0  0  0  0  0  0  0  0  0  0  0  0
   -4.4525   -0.8544    0.4300 H   0  0  0  0  0  0  0  0  0  0  0  0
   -2.9564    0.7117   -0.7188 H   0  0  0  0  0  0  0  0  0  0  0  0
   -0.7039    3.5785   -2.1595 H   0  0  0  0  0  0  0  0  0  0  0  0
   -0.1550    2.8343   -4.4241 H   0  0  0  0  0  0  0  0  0  0  0  0
   -4.1591    1.4678   -4.9546 H   0  0  0  0  0  0  0  0  0  0  0  0
   -4.7079    2.1866   -2.6768 H   0  0  0  0  0  0  0  0  0  0  0  0
   -3.1472    9.9863    1.3033 H   0  0  0  0  0  0  0  0  0  0  0  0
   -4.1017   10.6619    3.4565 H   0  0  0  0  0  0  0  0  0  0  0  0
   -8.0075    9.7368    2.0183 H   0  0  0  0  0  0  0  0  0  0  0  0
   -7.0590    9.0396   -0.1250 H   0  0  0  0  0  0  0  0  0  0  0  0
   -1.9709    8.3858   -1.9715 H   0  0  0  0  0  0  0  0  0  0  0  0
   -0.2337    9.9279   -2.7393 H   0  0  0  0  0  0  0  0  0  0  0  0
   -2.6599   13.2459   -1.6002 H   0  0  0  0  0  0  0  0  0  0  0  0
   -4.3924   11.7064   -0.8077 H   0  0  0  0  0  0  0  0  0  0  0  0
    1.1943    2.4027    8.6091 H   0  0  0  0  0  0  0  0  0  0  0  0
    2.8216    3.0881    8.7251 H   0  0  0  0  0  0  0  0  0  0  0  0
    0.2717    4.6787    8.1622 H   0  0  0  0  0  0  0  0  0  0  0  0
    1.1377    4.6343    9.7019 H   0  0  0  0  0  0  0  0  0  0  0  0
    1.8934    5.3612    8.2796 H   0  0  0  0  0  0  0  0  0  0  0  0
    5.0362    7.5379   -0.8483 H   0  0  0  0  0  0  0  0  0  0  0  0
    4.0389    8.5185    0.2364 H   0  0  0  0  0  0  0  0  0  0  0  0
    6.7467    7.2921    0.9525 H   0  0  0  0  0  0  0  0  0  0  0  0
    6.4545    8.9947    0.5812 H   0  0  0  0  0  0  0  0  0  0  0  0
    5.7532    8.2704    2.0323 H   0  0  0  0  0  0  0  0  0  0  0  0
   -6.1865   -1.1760    2.1441 H   0  0  0  0  0  0  0  0  0  0  0  0
   -7.2110    0.1752    2.6505 H   0  0  0  0  0  0  0  0  0  0  0  0
   -7.3627   -1.2396   -0.0557 H   0  0  0  0  0  0  0  0  0  0  0  0
   -8.5013   -1.4472    1.2795 H   0  0  0  0  0  0  0  0  0  0  0  0
   -8.3831    0.1075    0.4484 H   0  0  0  0  0  0  0  0  0  0  0  0
   -2.6375    1.6389   -6.8718 H   0  0  0  0  0  0  0  0  0  0  0  0
   -0.9775    2.2121   -6.6546 H   0  0  0  0  0  0  0  0  0  0  0  0
   -2.0460   -0.4992   -5.7293 H   0  0  0  0  0  0  0  0  0  0  0  0
   -1.0149   -0.2262   -7.1380 H   0  0  0  0  0  0  0  0  0  0  0  0
   -0.3922    0.0716   -5.5110 H   0  0  0  0  0  0  0  0  0  0  0  0
   -7.6305   10.1754    4.4042 H   0  0  0  0  0  0  0  0  0  0  0  0
   -6.0087   10.5534    5.0030 H   0  0  0  0  0  0  0  0  0  0  0  0
   -7.7440   12.4160    3.3089 H   0  0  0  0  0  0  0  0  0  0  0  0
   -7.4624   12.5704    5.0464 H   0  0  0  0  0  0  0  0  0  0  0  0
   -6.1293   12.7926    3.9080 H   0  0  0  0  0  0  0  0  0  0  0  0
   -0.2607   13.5521   -2.1317 H   0  0  0  0  0  0  0  0  0  0  0  0
    0.7149   12.1781   -2.6732 H   0  0  0  0  0  0  0  0  0  0  0  0
   -1.5335   13.4947   -4.2736 H   0  0  0  0  0  0  0  0  0  0  0  0
    0.1965   13.6941   -4.5717 H   0  0  0  0  0  0  0  0  0  0  0  0
   -0.5700   12.1204   -4.8150 H   0  0  0  0  0  0  0  0  0  0  0  0
   11.7719   -3.5627    1.7099 H   0  0  0  0  0  0  0  0  0  0  0  0
    9.6146   -8.0992   -2.0881 H   0  0  0  0  0  0  0  0  0  0  0  0
   14.3933   -7.7862   -0.7386 H   0  0  0  0  0  0  0  0  0  0  0  0
   -7.5486   13.3948   -4.3250 H   0  0  0  0  0  0  0  0  0  0  0  0
  -10.9939   11.1602   -9.0977 H   0  0  0  0  0  0  0  0  0  0  0  0
  -10.3580   16.0144   -8.2164 H   0  0  0  0  0  0  0  0  0  0  0  0
   10.5208   -1.7287    2.5854 H   0  0  0  0  0  0  0  0  0  0  0  0
   -8.2032    9.6692   -5.4673 H   0  0  0  0  0  0  0  0  0  0  0  0
  1  3  1  0  0  0  0
  1 25  2  0  0  0  0
  2  1  1  0  0  0  0
  3 22  1  0  0  0  0
  4  3  2  0  0  0  0
  5  2  1  0  0  0  0
  5  7  1  0  0  0  0
  5  4  1  0  0  0  0
  6  5  1  0  0  0  0
  7 17  2  0  0  0  0
  8  6  1  0  0  0  0
  8141  1  0  0  0  0
  9  8  2  0  0  0  0
 10 11  2  0  0  0  0
 10  9  1  0  0  0  0
 11 12  1  0  0  0  0
 12144  1  0  0  0  0
 12  6  2  0  0  0  0
 13 14  2  0  0  0  0
 13  7  1  0  0  0  0
 14 15  1  0  0  0  0
 15 20  1  0  0  0  0
 15 16  2  0  0  0  0
 16147  1  0  0  0  0
 17 16  1  0  0  0  0
 17148  1  0  0  0  0
 18 10  1  0  0  0  0
 19151  1  0  0  0  0
 19153  1  0  0  0  0
 19 18  1  0  0  0  0
 20155  1  0  0  0  0
 20 21  1  0  0  0  0
 21157  1  0  0  0  0
 21158  1  0  0  0  0
 23 22  1  0  0  0  0
 24  4  1  0  0  0  0
 24 23  2  0  0  0  0
 25159  1  0  0  0  0
 26 29  1  0  0  0  0
 26 25  1  0  0  0  0
 27 26  2  0  0  0  0
 28  2  2  0  0  0  0
 28 27  1  0  0  0  0
 29 32  1  0  0  0  0
 30 29  1  0  0  0  0
 31 27  1  0  0  0  0
 31 30  2  0  0  0  0
 32 61  2  0  0  0  0
 32 57  1  0  0  0  0
 33 66  1  0  0  0  0
 33 29  1  0  0  0  0
 34 37  1  0  0  0  0
 34 30  1  0  0  0  0
 35 34  2  0  0  0  0
 36 35  1  0  0  0  0
 36 31  1  0  0  0  0
 38 37  1  0  0  0  0
 39 35  1  0  0  0  0
 39 38  2  0  0  0  0
 40 45  1  0  0  0  0
 40 38  1  0  0  0  0
 41 42  1  0  0  0  0
 41 40  2  0  0  0  0
 42 43  1  0  0  0  0
 42 39  1  0  0  0  0
 43 67  1  0  0  0  0
 44 42  1  0  0  0  0
 45161  1  0  0  0  0
 46 45  2  0  0  0  0
 47 46  1  0  0  0  0
 48 47  2  0  0  0  0
 48 41  1  0  0  0  0
 49 46  1  0  0  0  0
 49 52  1  0  0  0  0
 50 49  1  0  0  0  0
 51 50  2  0  0  0  0
 51 47  1  0  0  0  0
 52 81  2  0  0  0  0
 52 77  1  0  0  0  0
 53 86  1  0  0  0  0
 53 49  1  0  0  0  0
 54 50  1  0  0  0  0
 55 56  1  0  0  0  0
 55 54  2  0  0  0  0
 56 51  1  0  0  0  0
 57 58  2  0  0  0  0
 58164  1  0  0  0  0
 58 59  1  0  0  0  0
 59 87  1  0  0  0  0
 60165  1  0  0  0  0
 60 59  2  0  0  0  0
 61 60  1  0  0  0  0
 62 33  2  0  0  0  0
 63 64  2  0  0  0  0
 63 62  1  0  0  0  0
 64 65  1  0  0  0  0
 65169  1  0  0  0  0
 65 66  2  0  0  0  0
 66170  1  0  0  0  0
 67171  1  0  0  0  0
 67 68  2  0  0  0  0
 68172  1  0  0  0  0
 69 68  1  0  0  0  0
 69 91  1  0  0  0  0
 70 69  2  0  0  0  0
 71 43  2  0  0  0  0
 71 70  1  0  0  0  0
 72 44  1  0  0  0  0
 72175  1  0  0  0  0
 73 72  2  0  0  0  0
 74 75  2  0  0  0  0
 74 73  1  0  0  0  0
 75 76  1  0  0  0  0
 76178  1  0  0  0  0
 76 44  2  0  0  0  0
 77 78  2  0  0  0  0
 78 79  1  0  0  0  0
 78180  1  0  0  0  0
 79 95  1  0  0  0  0
 80181  1  0  0  0  0
 80 79  2  0  0  0  0
 81 80  1  0  0  0  0
 82 53  2  0  0  0  0
 83 84  2  0  0  0  0
 83 82  1  0  0  0  0
 84 85  1  0  0  0  0
 85185  1  0  0  0  0
 85 86  2  0  0  0  0
 86186  1  0  0  0  0
 87187  1  0  0  0  0
 87 88  1  0  0  0  0
 87188  1  0  0  0  0
 88190  1  0  0  0  0
 89193  1  0  0  0  0
 89 64  1  0  0  0  0
 89 90  1  0  0  0  0
 90196  1  0  0  0  0
 91197  1  0  0  0  0
 91198  1  0  0  0  0
 92200  1  0  0  0  0
 92 91  1  0  0  0  0
 93 94  1  0  0  0  0
 93 74  1  0  0  0  0
 94204  1  0  0  0  0
 94206  1  0  0  0  0
 95207  1  0  0  0  0
 95208  1  0  0  0  0
 96 95  1  0  0  0  0
 96210  1  0  0  0  0
 97213  1  0  0  0  0
 97 84  1  0  0  0  0
 97212  1  0  0  0  0
 98 97  1  0  0  0  0
 99136  1  0  0  0  0
 99217  1  0  0  0  0
100 99  2  0  0  0  0
101100  1  0  0  0  0
102103  1  0  0  0  0
102101  1  0  0  0  0
103104  1  0  0  0  0
104100  1  0  0  0  0
104106  2  0  0  0  0
105101  2  0  0  0  0
106107  1  0  0  0  0
107109  3  0  0  0  0
108106  1  0  0  0  0
110108  3  0  0  0  0
111102  2  0  0  0  0
112113  2  0  0  0  0
112111  1  0  0  0  0
113114  1  0  0  0  0
114219  1  0  0  0  0
114103  2  0  0  0  0
115112  1  0  0  0  0
116113  1  0  0  0  0
117220  1  0  0  0  0
117139  1  0  0  0  0
118117  2  0  0  0  0
119123  2  0  0  0  0
119118  1  0  0  0  0
120121  1  0  0  0  0
120119  1  0  0  0  0
121122  1  0  0  0  0
122118  1  0  0  0  0
122124  2  0  0  0  0
124125  1  0  0  0  0
125127  3  0  0  0  0
126124  1  0  0  0  0
128126  3  0  0  0  0
129120  2  0  0  0  0
130131  2  0  0  0  0
130129  1  0  0  0  0
131132  1  0  0  0  0
132222  1  0  0  0  0
132121  2  0  0  0  0
133131  1  0  0  0  0
134130  1  0  0  0  0
135136  1  0  0  0  0
135 24  1  0  0  0  0
136137  2  0  0  0  0
137 23  1  0  0  0  0
137223  1  0  0  0  0
138 54  1  0  0  0  0
139138  1  0  0  0  0
140139  2  0  0  0  0
140 55  1  0  0  0  0
142  9  1  0  0  0  0
143 11  1  0  0  0  0
145 13  1  0  0  0  0
146 14  1  0  0  0  0
149 18  1  0  0  0  0
150 18  1  0  0  0  0
152 19  1  0  0  0  0
154 20  1  0  0  0  0
156 21  1  0  0  0  0
160 28  1  0  0  0  0
162 48  1  0  0  0  0
163 57  1  0  0  0  0
166 61  1  0  0  0  0
167 62  1  0  0  0  0
168 63  1  0  0  0  0
173 70  1  0  0  0  0
174 71  1  0  0  0  0
176 73  1  0  0  0  0
177 75  1  0  0  0  0
179 77  1  0  0  0  0
182 81  1  0  0  0  0
183 82  1  0  0  0  0
184 83  1  0  0  0  0
189 88  1  0  0  0  0
191 88  1  0  0  0  0
192 89  1  0  0  0  0
194 90  1  0  0  0  0
195 90  1  0  0  0  0
199 92  1  0  0  0  0
201 92  1  0  0  0  0
202 93  1  0  0  0  0
203 93  1  0  0  0  0
205 94  1  0  0  0  0
209 96  1  0  0  0  0
211 96  1  0  0  0  0
214 98  1  0  0  0  0
215 98  1  0  0  0  0
216 98  1  0  0  0  0
218111  1  0  0  0  0
221129  1  0  0  0  0
224140  1  0  0  0  0
M  END
