SeCT-IC.sdf
  xtb     12222121243D
 energy: -225.031415536767 gnorm: 0.000491879035 xtb: 6.4.1 (unknown)
138152  0     0  0            999 V2000
    1.2608   -0.0109    0.5815 C   0  0  0  0  0  0  0  0  0  0  0  0
    1.0732    1.0359   -0.3239 C   0  0  0  0  0  0  0  0  0  0  0  0
   -0.1698    1.6150   -0.4222 C   0  0  0  0  0  0  0  0  0  0  0  0
   -1.2602    1.2161    0.4072 C   0  0  0  0  0  0  0  0  0  0  0  0
   -1.0629    0.1913    1.3347 C   0  0  0  0  0  0  0  0  0  0  0  0
    0.1654   -0.4244    1.3960 C   0  0  0  0  0  0  0  0  0  0  0  0
   -0.6575    2.9369   -1.6927 Se  0  0  0  0  0  2  0  0  0  0  0  0
   -2.3687    2.7911   -0.9580 C   0  0  0  0  0  0  0  0  0  0  0  0
   -2.4555    1.9077    0.1050 C   0  0  0  0  0  0  0  0  0  0  0  0
    0.5792   -1.9314    2.4711 Se  0  0  0  0  0  2  0  0  0  0  0  0
    2.2574   -1.8685    1.6508 C   0  0  0  0  0  0  0  0  0  0  0  0
    2.4055   -0.8194    0.7581 C   0  0  0  0  0  0  0  0  0  0  0  0
    4.4759    0.4673    0.7187 C   0  0  0  0  0  0  0  0  0  0  0  0
    3.8907   -0.9092   -1.3243 C   0  0  0  0  0  0  0  0  0  0  0  0
   -4.0205    2.4600    2.0219 C   0  0  0  0  0  0  0  0  0  0  0  0
   -4.3659    0.4087    0.5770 C   0  0  0  0  0  0  0  0  0  0  0  0
    3.4442   -2.6419    1.6673 C   0  0  0  0  0  0  0  0  0  0  0  0
    4.3780   -2.0465    0.8051 C   0  0  0  0  0  0  0  0  0  0  0  0
    3.8056   -0.7923    0.1829 C   0  0  0  0  0  0  0  0  0  0  0  0
    3.9991   -4.0939    2.3787 S   0  0  0  0  0  0  0  0  0  0  0  0
    5.5206   -3.9305    1.5092 C   0  0  0  0  0  0  0  0  0  0  0  0
    5.5450   -2.7669    0.7226 C   0  0  0  0  0  0  0  0  0  0  0  0
   -3.6605    3.2975   -1.2361 C   0  0  0  0  0  0  0  0  0  0  0  0
   -4.5784    2.7523   -0.3383 C   0  0  0  0  0  0  0  0  0  0  0  0
   -3.8702    1.8438    0.6421 C   0  0  0  0  0  0  0  0  0  0  0  0
   -4.3944    4.3050   -2.4067 S   0  0  0  0  0  0  0  0  0  0  0  0
   -5.9729    3.9864   -1.6977 C   0  0  0  0  0  0  0  0  0  0  0  0
   -5.8762    3.1743   -0.5751 C   0  0  0  0  0  0  0  0  0  0  0  0
    4.9530    0.4967    2.0231 C   0  0  0  0  0  0  0  0  0  0  0  0
    5.5284    1.6431    2.5365 C   0  0  0  0  0  0  0  0  0  0  0  0
    5.6364    2.7941    1.7670 C   0  0  0  0  0  0  0  0  0  0  0  0
    5.1411    2.7659    0.4707 C   0  0  0  0  0  0  0  0  0  0  0  0
    4.5661    1.6205   -0.0485 C   0  0  0  0  0  0  0  0  0  0  0  0
    2.7927   -1.2521   -2.0990 C   0  0  0  0  0  0  0  0  0  0  0  0
    2.9142   -1.3663   -3.4728 C   0  0  0  0  0  0  0  0  0  0  0  0
    4.1315   -1.1541   -4.1039 C   0  0  0  0  0  0  0  0  0  0  0  0
    5.2347   -0.8385   -3.3198 C   0  0  0  0  0  0  0  0  0  0  0  0
    5.1185   -0.7189   -1.9491 C   0  0  0  0  0  0  0  0  0  0  0  0
   -5.2645    2.4260    2.6424 C   0  0  0  0  0  0  0  0  0  0  0  0
   -5.4531    3.0245    3.8724 C   0  0  0  0  0  0  0  0  0  0  0  0
   -4.4092    3.6804    4.5135 C   0  0  0  0  0  0  0  0  0  0  0  0
   -3.1692    3.7080    3.8916 C   0  0  0  0  0  0  0  0  0  0  0  0
   -2.9741    3.1097    2.6592 C   0  0  0  0  0  0  0  0  0  0  0  0
   -4.7414   -0.1373   -0.6436 C   0  0  0  0  0  0  0  0  0  0  0  0
   -5.1339   -1.4601   -0.7251 C   0  0  0  0  0  0  0  0  0  0  0  0
   -5.1558   -2.2713    0.4018 C   0  0  0  0  0  0  0  0  0  0  0  0
   -4.7791   -1.7192    1.6187 C   0  0  0  0  0  0  0  0  0  0  0  0
   -4.3890   -0.3959    1.7087 C   0  0  0  0  0  0  0  0  0  0  0  0
    6.5965   -4.8250    1.5267 C   0  0  0  0  0  0  0  0  0  0  0  0
    6.7471   -6.0314    2.1657 C   0  0  0  0  0  0  0  0  0  0  0  0
    7.9009   -6.9026    2.0734 C   0  0  0  0  0  0  0  0  0  0  0  0
    7.6040   -8.1052    2.8537 C   0  0  0  0  0  0  0  0  0  0  0  0
    6.3263   -7.9708    3.4247 C   0  0  0  0  0  0  0  0  0  0  0  0
    5.7505   -6.6722    3.0301 C   0  0  0  0  0  0  0  0  0  0  0  0
    8.3351   -9.2600    3.0815 C   0  0  0  0  0  0  0  0  0  0  0  0
    7.7753  -10.2544    3.8743 C   0  0  0  0  0  0  0  0  0  0  0  0
    6.5147  -10.1120    4.4349 C   0  0  0  0  0  0  0  0  0  0  0  0
    5.7731   -8.9596    4.2135 C   0  0  0  0  0  0  0  0  0  0  0  0
    4.6638   -6.2322    3.3635 O   0  0  0  0  0  0  0  0  0  0  0  0
    9.0697   -6.6724    1.3937 C   0  0  0  0  0  0  0  0  0  0  0  0
   10.1574   -7.5702    1.3598 C   0  0  0  0  0  0  0  0  0  0  0  0
    9.3741   -5.5225    0.6362 C   0  0  0  0  0  0  0  0  0  0  0  0
   11.0810   -8.2491    1.2918 N   0  0  0  0  0  0  0  0  0  0  0  0
    9.7069   -4.6261   -0.0014 N   0  0  0  0  0  0  0  0  0  0  0  0
    6.2271    4.0492    2.3412 C   0  0  0  0  0  0  0  0  0  0  0  0
    5.1468    4.8781    3.0389 C   0  0  0  0  0  0  0  0  0  0  0  0
    4.2681   -1.3129   -5.5904 C   0  0  0  0  0  0  0  0  0  0  0  0
    4.6641   -2.7489   -5.9397 C   0  0  0  0  0  0  0  0  0  0  0  0
   -4.6046    4.3025    5.8659 C   0  0  0  0  0  0  0  0  0  0  0  0
   -4.2407    3.3087    6.9709 C   0  0  0  0  0  0  0  0  0  0  0  0
   -5.5236   -3.7234    0.3023 C   0  0  0  0  0  0  0  0  0  0  0  0
   -4.2711   -4.5721    0.0731 C   0  0  0  0  0  0  0  0  0  0  0  0
   -7.1591    4.5448   -2.2235 C   0  0  0  0  0  0  0  0  0  0  0  0
   -7.4051    4.9669   -3.4946 C   0  0  0  0  0  0  0  0  0  0  0  0
   -6.7187    4.7209   -4.7443 C   0  0  0  0  0  0  0  0  0  0  0  0
   -7.1549    5.7508   -5.6851 C   0  0  0  0  0  0  0  0  0  0  0  0
   -8.2468    6.4399   -5.1246 C   0  0  0  0  0  0  0  0  0  0  0  0
   -8.5114    5.9237   -3.7651 C   0  0  0  0  0  0  0  0  0  0  0  0
   -6.7015    6.0852   -6.9501 C   0  0  0  0  0  0  0  0  0  0  0  0
   -7.3555    7.0982   -7.6392 C   0  0  0  0  0  0  0  0  0  0  0  0
   -8.4420    7.7633   -7.0889 C   0  0  0  0  0  0  0  0  0  0  0  0
   -8.8983    7.4410   -5.8181 C   0  0  0  0  0  0  0  0  0  0  0  0
   -9.4020    6.2359   -3.0078 O   0  0  0  0  0  0  0  0  0  0  0  0
   -6.0379    3.5808   -5.0838 C   0  0  0  0  0  0  0  0  0  0  0  0
   -5.8985    2.4704   -4.2263 C   0  0  0  0  0  0  0  0  0  0  0  0
   -5.4870    3.3444   -6.3591 C   0  0  0  0  0  0  0  0  0  0  0  0
   -5.0070    3.1075   -7.3746 N   0  0  0  0  0  0  0  0  0  0  0  0
   -5.8071    1.5233   -3.5833 N   0  0  0  0  0  0  0  0  0  0  0  0
    1.8849    1.3497   -0.9618 H   0  0  0  0  0  0  0  0  0  0  0  0
   -1.8800   -0.1350    1.9589 H   0  0  0  0  0  0  0  0  0  0  0  0
    6.3983   -2.5082    0.1217 H   0  0  0  0  0  0  0  0  0  0  0  0
   -6.7425    2.8740   -0.0149 H   0  0  0  0  0  0  0  0  0  0  0  0
    4.8794   -0.3842    2.6440 H   0  0  0  0  0  0  0  0  0  0  0  0
    5.9026    1.6417    3.5503 H   0  0  0  0  0  0  0  0  0  0  0  0
    5.2090    3.6508   -0.1460 H   0  0  0  0  0  0  0  0  0  0  0  0
    4.2038    1.6252   -1.0661 H   0  0  0  0  0  0  0  0  0  0  0  0
    1.8335   -1.4282   -1.6352 H   0  0  0  0  0  0  0  0  0  0  0  0
    2.0448   -1.6215   -4.0616 H   0  0  0  0  0  0  0  0  0  0  0  0
    6.1949   -0.6794   -3.7890 H   0  0  0  0  0  0  0  0  0  0  0  0
    5.9842   -0.4594   -1.3571 H   0  0  0  0  0  0  0  0  0  0  0  0
   -6.0858    1.9154    2.1617 H   0  0  0  0  0  0  0  0  0  0  0  0
   -6.4269    2.9874    4.3395 H   0  0  0  0  0  0  0  0  0  0  0  0
   -2.3422    4.2103    4.3729 H   0  0  0  0  0  0  0  0  0  0  0  0
   -1.9989    3.1534    2.1973 H   0  0  0  0  0  0  0  0  0  0  0  0
   -4.7380    0.4704   -1.5361 H   0  0  0  0  0  0  0  0  0  0  0  0
   -5.4287   -1.8645   -1.6823 H   0  0  0  0  0  0  0  0  0  0  0  0
   -4.7915   -2.3306    2.5100 H   0  0  0  0  0  0  0  0  0  0  0  0
   -4.1134    0.0128    2.6710 H   0  0  0  0  0  0  0  0  0  0  0  0
    7.4236   -4.4977    0.9082 H   0  0  0  0  0  0  0  0  0  0  0  0
    9.3161   -9.4015    2.6589 H   0  0  0  0  0  0  0  0  0  0  0  0
    8.3382  -11.1580    4.0545 H   0  0  0  0  0  0  0  0  0  0  0  0
    6.1084  -10.9040    5.0458 H   0  0  0  0  0  0  0  0  0  0  0  0
    4.7896   -8.8269    4.6376 H   0  0  0  0  0  0  0  0  0  0  0  0
    6.6791    4.6439    1.5450 H   0  0  0  0  0  0  0  0  0  0  0  0
    7.0063    3.7944    3.0623 H   0  0  0  0  0  0  0  0  0  0  0  0
    4.6916    4.3056    3.8440 H   0  0  0  0  0  0  0  0  0  0  0  0
    4.3668    5.1541    2.3327 H   0  0  0  0  0  0  0  0  0  0  0  0
    5.5750    5.7862    3.4568 H   0  0  0  0  0  0  0  0  0  0  0  0
    3.3211   -1.0718   -6.0770 H   0  0  0  0  0  0  0  0  0  0  0  0
    5.0308   -0.6282   -5.9669 H   0  0  0  0  0  0  0  0  0  0  0  0
    3.9084   -3.4462   -5.5850 H   0  0  0  0  0  0  0  0  0  0  0  0
    4.7658   -2.8640   -7.0161 H   0  0  0  0  0  0  0  0  0  0  0  0
    5.6119   -3.0049   -5.4714 H   0  0  0  0  0  0  0  0  0  0  0  0
   -3.9745    5.1896    5.9587 H   0  0  0  0  0  0  0  0  0  0  0  0
   -5.6457    4.6085    5.9853 H   0  0  0  0  0  0  0  0  0  0  0  0
   -4.8669    2.4218    6.9033 H   0  0  0  0  0  0  0  0  0  0  0  0
   -3.2015    3.0017    6.8769 H   0  0  0  0  0  0  0  0  0  0  0  0
   -4.3826    3.7603    7.9499 H   0  0  0  0  0  0  0  0  0  0  0  0
   -6.2179   -3.8744   -0.5263 H   0  0  0  0  0  0  0  0  0  0  0  0
   -6.0133   -4.0464    1.2234 H   0  0  0  0  0  0  0  0  0  0  0  0
   -3.7773   -4.2745   -0.8492 H   0  0  0  0  0  0  0  0  0  0  0  0
   -3.5690   -4.4410    0.8937 H   0  0  0  0  0  0  0  0  0  0  0  0
   -4.5322   -5.6255    0.0038 H   0  0  0  0  0  0  0  0  0  0  0  0
   -7.9601    4.7158   -1.5102 H   0  0  0  0  0  0  0  0  0  0  0  0
   -5.8549    5.5860   -7.3935 H   0  0  0  0  0  0  0  0  0  0  0  0
   -7.0093    7.3706   -8.6249 H   0  0  0  0  0  0  0  0  0  0  0  0
   -8.9345    8.5398   -7.6546 H   0  0  0  0  0  0  0  0  0  0  0  0
   -9.7396    7.9493   -5.3729 H   0  0  0  0  0  0  0  0  0  0  0  0
  1  2  2  0  0  0  0
  2  3  1  0  0  0  0
  3  4  2  0  0  0  0
  4  5  1  0  0  0  0
  5  6  2  0  0  0  0
  6  1  1  0  0  0  0
  3  7  1  0  0  0  0
  7  8  1  0  0  0  0
  8  9  2  0  0  0  0
  9  4  1  0  0  0  0
  6 10  1  0  0  0  0
 10 11  1  0  0  0  0
 11 12  2  0  0  0  0
 12  1  1  0  0  0  0
 11 17  1  0  0  0  0
 17 18  2  0  0  0  0
 18 19  1  0  0  0  0
 19 12  1  0  0  0  0
 17 20  1  0  0  0  0
 20 21  1  0  0  0  0
 21 22  2  0  0  0  0
 22 18  1  0  0  0  0
  8 23  1  0  0  0  0
 23 24  2  0  0  0  0
 24 25  1  0  0  0  0
 25  9  1  0  0  0  0
 23 26  1  0  0  0  0
 26 27  1  0  0  0  0
 27 28  2  0  0  0  0
 28 24  1  0  0  0  0
 13 29  2  0  0  0  0
 29 30  1  0  0  0  0
 30 31  2  0  0  0  0
 31 32  1  0  0  0  0
 32 33  2  0  0  0  0
 33 13  1  0  0  0  0
 14 34  2  0  0  0  0
 34 35  1  0  0  0  0
 35 36  2  0  0  0  0
 36 37  1  0  0  0  0
 37 38  2  0  0  0  0
 38 14  1  0  0  0  0
 15 39  2  0  0  0  0
 39 40  1  0  0  0  0
 40 41  2  0  0  0  0
 41 42  1  0  0  0  0
 42 43  2  0  0  0  0
 43 15  1  0  0  0  0
 16 44  2  0  0  0  0
 44 45  1  0  0  0  0
 45 46  2  0  0  0  0
 46 47  1  0  0  0  0
 47 48  2  0  0  0  0
 48 16  1  0  0  0  0
 21 49  1  0  0  0  0
 49 50  2  0  0  0  0
 50 51  1  0  0  0  0
 51 52  1  0  0  0  0
 52 53  2  0  0  0  0
 53 54  1  0  0  0  0
 54 50  1  0  0  0  0
 52 55  1  0  0  0  0
 55 56  2  0  0  0  0
 56 57  1  0  0  0  0
 57 58  2  0  0  0  0
 58 53  1  0  0  0  0
 54 59  2  0  0  0  0
 51 60  2  0  0  0  0
 60 61  1  0  0  0  0
 60 62  1  0  0  0  0
 61 63  3  0  0  0  0
 62 64  3  0  0  0  0
 31 65  1  0  0  0  0
 65 66  1  0  0  0  0
 36 67  1  0  0  0  0
 67 68  1  0  0  0  0
 41 69  1  0  0  0  0
 69 70  1  0  0  0  0
 46 71  1  0  0  0  0
 71 72  1  0  0  0  0
 27 73  1  0  0  0  0
 73 74  2  0  0  0  0
 74 75  1  0  0  0  0
 75 76  1  0  0  0  0
 76 77  2  0  0  0  0
 77 78  1  0  0  0  0
 78 74  1  0  0  0  0
 76 79  1  0  0  0  0
 79 80  2  0  0  0  0
 80 81  1  0  0  0  0
 81 82  2  0  0  0  0
 82 77  1  0  0  0  0
 78 83  2  0  0  0  0
 75 84  2  0  0  0  0
 84 85  1  0  0  0  0
 84 86  1  0  0  0  0
 86 87  3  0  0  0  0
 85 88  3  0  0  0  0
 19 14  1  0  0  0  0
 19 13  1  0  0  0  0
 16 25  1  0  0  0  0
 15 25  1  0  0  0  0
  2 89  1  0  0  0  0
  5 90  1  0  0  0  0
 22 91  1  0  0  0  0
 28 92  1  0  0  0  0
 29 93  1  0  0  0  0
 30 94  1  0  0  0  0
 32 95  1  0  0  0  0
 33 96  1  0  0  0  0
 34 97  1  0  0  0  0
 35 98  1  0  0  0  0
 37 99  1  0  0  0  0
 38100  1  0  0  0  0
 39101  1  0  0  0  0
 40102  1  0  0  0  0
 42103  1  0  0  0  0
 43104  1  0  0  0  0
 44105  1  0  0  0  0
 45106  1  0  0  0  0
 47107  1  0  0  0  0
 48108  1  0  0  0  0
 49109  1  0  0  0  0
 55110  1  0  0  0  0
 56111  1  0  0  0  0
 57112  1  0  0  0  0
 58113  1  0  0  0  0
 65114  1  0  0  0  0
 65115  1  0  0  0  0
 66116  1  0  0  0  0
 66117  1  0  0  0  0
 66118  1  0  0  0  0
 67119  1  0  0  0  0
 67120  1  0  0  0  0
 68121  1  0  0  0  0
 68122  1  0  0  0  0
 68123  1  0  0  0  0
 69124  1  0  0  0  0
 69125  1  0  0  0  0
 70126  1  0  0  0  0
 70127  1  0  0  0  0
 70128  1  0  0  0  0
 71129  1  0  0  0  0
 71130  1  0  0  0  0
 72131  1  0  0  0  0
 72132  1  0  0  0  0
 72133  1  0  0  0  0
 73134  1  0  0  0  0
 79135  1  0  0  0  0
 80136  1  0  0  0  0
 81137  1  0  0  0  0
 82138  1  0  0  0  0
M  END
