SFBRCN.sdf
  xtb     12222121163D
 energy: -204.158873824215 gnorm: 0.000600102459 xtb: 6.4.1 (unknown)
115126  0     0  0            999 V2000
    0.6699   -0.3989    3.5615 C   0  0  0  0  0  0  0  0  0  0  0  0
    1.5679    3.9083   -3.4662 C   0  0  0  0  0  0  0  0  0  0  0  0
    2.1698    5.1478   -3.7981 C   0  0  0  0  0  0  0  0  0  0  0  0
    2.2361    5.5904   -5.1650 C   0  0  0  0  0  0  0  0  0  0  0  0
    1.7335    4.7888   -6.2313 C   0  0  0  0  0  0  0  0  0  0  0  0
    1.1325    3.5938   -5.8561 C   0  0  0  0  0  0  0  0  0  0  0  0
    1.0498    3.1823   -4.5267 C   0  0  0  0  0  0  0  0  0  0  0  0
    2.7045    6.0419   -2.9648 N   0  0  0  0  0  0  0  0  0  0  0  0
    3.2329    7.2985   -3.8096 S   0  0  0  0  0  0  0  0  0  0  0  0
    2.8190    6.7816   -5.2759 N   0  0  0  0  0  0  0  0  0  0  0  0
    0.3312   -1.4314    4.5343 C   0  0  0  0  0  0  0  0  0  0  0  0
    0.7682   -1.3807    5.8825 C   0  0  0  0  0  0  0  0  0  0  0  0
    0.4835   -2.4553    6.7980 C   0  0  0  0  0  0  0  0  0  0  0  0
   -0.2399   -3.6032    6.3855 C   0  0  0  0  0  0  0  0  0  0  0  0
   -0.6825   -3.5907    5.0666 C   0  0  0  0  0  0  0  0  0  0  0  0
   -0.4037   -2.5534    4.1813 C   0  0  0  0  0  0  0  0  0  0  0  0
    1.4427   -0.3973    6.4822 N   0  0  0  0  0  0  0  0  0  0  0  0
    1.6956   -0.7740    8.0178 S   0  0  0  0  0  0  0  0  0  0  0  0
    0.9636   -2.2077    8.0122 N   0  0  0  0  0  0  0  0  0  0  0  0
   -0.5033   -4.7375    7.2103 C   0  0  0  0  0  0  0  0  0  0  0  0
   -0.0674   -5.0602    8.4504 C   0  0  0  0  0  0  0  0  0  0  0  0
   -0.4530   -6.3576    9.0258 C   0  0  0  0  0  0  0  0  0  0  0  0
    0.1464   -6.5510   10.2579 N   0  0  0  0  0  0  0  0  0  0  0  0
    0.9450   -5.5389   10.6826 C   0  0  0  0  0  0  0  0  0  0  0  0
    0.9814   -4.1968    9.5437 S   0  0  0  0  0  0  0  0  0  0  0  0
    1.6672   -5.4524   11.8452 C   0  0  0  0  0  0  0  0  0  0  0  0
   -0.0618   -7.8080   10.9540 C   0  0  0  0  0  0  0  0  0  0  0  0
    1.0705   -8.7907   10.6802 C   0  0  0  0  0  0  0  0  0  0  0  0
   -1.1902   -7.1675    8.5103 O   0  0  0  0  0  0  0  0  0  0  0  0
    1.9157    5.2982   -7.5536 C   0  0  0  0  0  0  0  0  0  0  0  0
    1.7013    4.7792   -8.7907 C   0  0  0  0  0  0  0  0  0  0  0  0
    1.2008    3.4862   -9.2526 C   0  0  0  0  0  0  0  0  0  0  0  0
    1.2514    3.4056  -10.6391 N   0  0  0  0  0  0  0  0  0  0  0  0
    1.7083    4.5010  -11.3005 C   0  0  0  0  0  0  0  0  0  0  0  0
    2.1310    5.7746  -10.1848 S   0  0  0  0  0  0  0  0  0  0  0  0
    1.8693    4.6791  -12.6516 C   0  0  0  0  0  0  0  0  0  0  0  0
    0.7742    2.1943  -11.2822 C   0  0  0  0  0  0  0  0  0  0  0  0
   -0.6692    2.3379  -11.7490 C   0  0  0  0  0  0  0  0  0  0  0  0
    0.7940    2.5602   -8.5834 O   0  0  0  0  0  0  0  0  0  0  0  0
    1.7483   -6.4165   12.8642 C   0  0  0  0  0  0  0  0  0  0  0  0
    2.4326   -4.2918   12.0876 C   0  0  0  0  0  0  0  0  0  0  0  0
    2.3771    5.9059  -13.1298 C   0  0  0  0  0  0  0  0  0  0  0  0
    1.5809    3.7500  -13.6655 C   0  0  0  0  0  0  0  0  0  0  0  0
    1.8617   -7.1647   13.7285 N   0  0  0  0  0  0  0  0  0  0  0  0
    3.0619   -3.3552   12.2939 N   0  0  0  0  0  0  0  0  0  0  0  0
    1.3663    3.0426  -14.5448 N   0  0  0  0  0  0  0  0  0  0  0  0
    2.7921    6.8972  -13.5298 N   0  0  0  0  0  0  0  0  0  0  0  0
    1.8680    0.3155    3.6775 C   0  0  0  0  0  0  0  0  0  0  0  0
    2.2616    1.2277    2.7183 C   0  0  0  0  0  0  0  0  0  0  0  0
    1.4458    1.4350    1.6161 C   0  0  0  0  0  0  0  0  0  0  0  0
    0.2235    0.7501    1.5119 C   0  0  0  0  0  0  0  0  0  0  0  0
   -0.1712   -0.1526    2.4674 C   0  0  0  0  0  0  0  0  0  0  0  0
    1.6258    2.2383    0.4244 C   0  0  0  0  0  0  0  0  0  0  0  0
    0.5181    2.0405   -0.4174 C   0  0  0  0  0  0  0  0  0  0  0  0
   -0.4968    1.1425    0.2454 C   0  0  0  0  0  0  0  0  0  0  0  0
    2.6665    3.0603    0.0182 C   0  0  0  0  0  0  0  0  0  0  0  0
    2.6107    3.6357   -1.2361 C   0  0  0  0  0  0  0  0  0  0  0  0
    1.5385    3.3945   -2.1017 C   0  0  0  0  0  0  0  0  0  0  0  0
    0.4676    2.6014   -1.6692 C   0  0  0  0  0  0  0  0  0  0  0  0
   -1.8105    1.8416    0.5195 C   0  0  0  0  0  0  0  0  0  0  0  0
   -2.8705    1.1620   -0.0891 C   0  0  0  0  0  0  0  0  0  0  0  0
   -2.3355    0.0055   -0.7914 C   0  0  0  0  0  0  0  0  0  0  0  0
   -0.9444   -0.0208   -0.6036 C   0  0  0  0  0  0  0  0  0  0  0  0
   -2.0429    2.9849    1.2549 C   0  0  0  0  0  0  0  0  0  0  0  0
   -3.3420    3.4417    1.3745 C   0  0  0  0  0  0  0  0  0  0  0  0
   -4.4110    2.7701    0.7699 C   0  0  0  0  0  0  0  0  0  0  0  0
   -4.1744    1.6163    0.0280 C   0  0  0  0  0  0  0  0  0  0  0  0
   -2.9583   -0.9660   -1.5464 C   0  0  0  0  0  0  0  0  0  0  0  0
   -2.1877   -1.9791   -2.1256 C   0  0  0  0  0  0  0  0  0  0  0  0
   -0.8082   -1.9980   -1.9315 C   0  0  0  0  0  0  0  0  0  0  0  0
   -0.1851   -1.0182   -1.1680 C   0  0  0  0  0  0  0  0  0  0  0  0
   -2.8975   -2.8984   -2.8358 O   0  0  0  0  0  0  0  0  0  0  0  0
   -2.2268   -3.8987   -3.5753 C   0  0  0  0  0  0  0  0  0  0  0  0
   -1.6099   -3.3632   -4.8642 C   0  0  0  0  0  0  0  0  0  0  0  0
   -5.6327    3.3259    0.9945 O   0  0  0  0  0  0  0  0  0  0  0  0
   -6.7801    2.7904    0.3668 C   0  0  0  0  0  0  0  0  0  0  0  0
   -6.8852    3.1838   -1.1041 C   0  0  0  0  0  0  0  0  0  0  0  0
    0.7293    2.9493   -6.6187 H   0  0  0  0  0  0  0  0  0  0  0  0
    0.5927    2.2256   -4.3233 H   0  0  0  0  0  0  0  0  0  0  0  0
   -1.2456   -4.4392    4.7064 H   0  0  0  0  0  0  0  0  0  0  0  0
   -0.7481   -2.6511    3.1632 H   0  0  0  0  0  0  0  0  0  0  0  0
   -1.1355   -5.4979    6.7615 H   0  0  0  0  0  0  0  0  0  0  0  0
   -1.0023   -8.2109   10.5683 H   0  0  0  0  0  0  0  0  0  0  0  0
   -0.1608   -7.6151   12.0232 H   0  0  0  0  0  0  0  0  0  0  0  0
    2.0212   -8.4017   11.0372 H   0  0  0  0  0  0  0  0  0  0  0  0
    0.8687   -9.7242   11.1967 H   0  0  0  0  0  0  0  0  0  0  0  0
    1.1446   -8.9892    9.6133 H   0  0  0  0  0  0  0  0  0  0  0  0
    2.3426    6.2964   -7.5481 H   0  0  0  0  0  0  0  0  0  0  0  0
    0.8403    1.4084  -10.5247 H   0  0  0  0  0  0  0  0  0  0  0  0
    1.4322    1.9479  -12.1167 H   0  0  0  0  0  0  0  0  0  0  0  0
   -0.9962    1.4029  -12.1937 H   0  0  0  0  0  0  0  0  0  0  0  0
   -0.7640    3.1221  -12.4963 H   0  0  0  0  0  0  0  0  0  0  0  0
   -1.3153    2.5695  -10.9051 H   0  0  0  0  0  0  0  0  0  0  0  0
    2.5044    0.1291    4.5272 H   0  0  0  0  0  0  0  0  0  0  0  0
    3.1980    1.7552    2.8189 H   0  0  0  0  0  0  0  0  0  0  0  0
   -1.1237   -0.6529    2.3767 H   0  0  0  0  0  0  0  0  0  0  0  0
    3.5148    3.2355    0.6624 H   0  0  0  0  0  0  0  0  0  0  0  0
    3.4211    4.2617   -1.5737 H   0  0  0  0  0  0  0  0  0  0  0  0
   -0.3918    2.4426   -2.3037 H   0  0  0  0  0  0  0  0  0  0  0  0
   -1.2303    3.5153    1.7289 H   0  0  0  0  0  0  0  0  0  0  0  0
   -3.5658    4.3305    1.9427 H   0  0  0  0  0  0  0  0  0  0  0  0
   -4.9709    1.0684   -0.4491 H   0  0  0  0  0  0  0  0  0  0  0  0
   -4.0246   -0.9723   -1.7068 H   0  0  0  0  0  0  0  0  0  0  0  0
   -0.1989   -2.7745   -2.3659 H   0  0  0  0  0  0  0  0  0  0  0  0
    0.8857   -1.0457   -1.0261 H   0  0  0  0  0  0  0  0  0  0  0  0
   -1.4706   -4.3983   -2.9572 H   0  0  0  0  0  0  0  0  0  0  0  0
   -3.0083   -4.6259   -3.8131 H   0  0  0  0  0  0  0  0  0  0  0  0
   -2.3820   -2.9111   -5.4817 H   0  0  0  0  0  0  0  0  0  0  0  0
   -1.1486   -4.1778   -5.4156 H   0  0  0  0  0  0  0  0  0  0  0  0
   -0.8563   -2.6090   -4.6510 H   0  0  0  0  0  0  0  0  0  0  0  0
   -6.8133    1.7001    0.4841 H   0  0  0  0  0  0  0  0  0  0  0  0
   -7.6172    3.2197    0.9246 H   0  0  0  0  0  0  0  0  0  0  0  0
   -6.8877    4.2670   -1.1952 H   0  0  0  0  0  0  0  0  0  0  0  0
   -7.8080    2.7918   -1.5229 H   0  0  0  0  0  0  0  0  0  0  0  0
   -6.0444    2.7944   -1.6731 H   0  0  0  0  0  0  0  0  0  0  0  0
  2  3  1  0  0  0  0
  3  4  1  0  0  0  0
  4  5  1  0  0  0  0
  5  6  2  0  0  0  0
  6  7  1  0  0  0  0
  7  2  2  0  0  0  0
  3  8  2  0  0  0  0
  8  9  1  0  0  0  0
  9 10  1  0  0  0  0
 10  4  2  0  0  0  0
 11 12  1  0  0  0  0
 12 13  1  0  0  0  0
 13 14  1  0  0  0  0
 14 15  2  0  0  0  0
 15 16  1  0  0  0  0
 16 11  2  0  0  0  0
 12 17  2  0  0  0  0
 17 18  1  0  0  0  0
 18 19  1  0  0  0  0
 19 13  2  0  0  0  0
 11  1  1  0  0  0  0
 20 21  2  0  0  0  0
 21 22  1  0  0  0  0
 22 23  1  0  0  0  0
 23 24  1  0  0  0  0
 24 25  1  0  0  0  0
 25 21  1  0  0  0  0
 24 26  2  0  0  0  0
 23 27  1  0  0  0  0
 27 28  1  0  0  0  0
 22 29  2  0  0  0  0
 30 31  2  0  0  0  0
 31 32  1  0  0  0  0
 32 33  1  0  0  0  0
 33 34  1  0  0  0  0
 34 35  1  0  0  0  0
 35 31  1  0  0  0  0
 34 36  2  0  0  0  0
 33 37  1  0  0  0  0
 37 38  1  0  0  0  0
 32 39  2  0  0  0  0
  5 30  1  0  0  0  0
 14 20  1  0  0  0  0
 26 40  1  0  0  0  0
 26 41  1  0  0  0  0
 36 42  1  0  0  0  0
 36 43  1  0  0  0  0
 40 44  3  0  0  0  0
 41 45  3  0  0  0  0
 43 46  3  0  0  0  0
 42 47  3  0  0  0  0
  1 48  2  0  0  0  0
 48 49  1  0  0  0  0
 49 50  2  0  0  0  0
 50 51  1  0  0  0  0
 51 52  2  0  0  0  0
 52  1  1  0  0  0  0
 50 53  1  0  0  0  0
 53 54  2  0  0  0  0
 54 55  1  0  0  0  0
 55 51  1  0  0  0  0
 53 56  1  0  0  0  0
 56 57  2  0  0  0  0
 57 58  1  0  0  0  0
 58 59  2  0  0  0  0
 59 54  1  0  0  0  0
 58  2  1  0  0  0  0
 55 60  1  0  0  0  0
 60 61  1  0  0  0  0
 61 62  1  0  0  0  0
 62 63  2  0  0  0  0
 63 55  1  0  0  0  0
 60 64  2  0  0  0  0
 64 65  1  0  0  0  0
 65 66  2  0  0  0  0
 66 67  1  0  0  0  0
 67 61  2  0  0  0  0
 62 68  1  0  0  0  0
 68 69  2  0  0  0  0
 69 70  1  0  0  0  0
 70 71  2  0  0  0  0
 71 63  1  0  0  0  0
 69 72  1  0  0  0  0
 72 73  1  0  0  0  0
 73 74  1  0  0  0  0
 66 75  1  0  0  0  0
 75 76  1  0  0  0  0
 76 77  1  0  0  0  0
  6 78  1  0  0  0  0
  7 79  1  0  0  0  0
 15 80  1  0  0  0  0
 16 81  1  0  0  0  0
 20 82  1  0  0  0  0
 27 83  1  0  0  0  0
 27 84  1  0  0  0  0
 28 85  1  0  0  0  0
 28 86  1  0  0  0  0
 28 87  1  0  0  0  0
 30 88  1  0  0  0  0
 37 89  1  0  0  0  0
 37 90  1  0  0  0  0
 38 91  1  0  0  0  0
 38 92  1  0  0  0  0
 38 93  1  0  0  0  0
 48 94  1  0  0  0  0
 49 95  1  0  0  0  0
 52 96  1  0  0  0  0
 56 97  1  0  0  0  0
 57 98  1  0  0  0  0
 59 99  1  0  0  0  0
 64100  1  0  0  0  0
 65101  1  0  0  0  0
 67102  1  0  0  0  0
 68103  1  0  0  0  0
 70104  1  0  0  0  0
 71105  1  0  0  0  0
 73106  1  0  0  0  0
 73107  1  0  0  0  0
 74108  1  0  0  0  0
 74109  1  0  0  0  0
 74110  1  0  0  0  0
 76111  1  0  0  0  0
 76112  1  0  0  0  0
 77113  1  0  0  0  0
 77114  1  0  0  0  0
 77115  1  0  0  0  0
M  END
