SIDIC.sdf
  xtb     12222121193D
 energy: -237.656308433964 gnorm: 0.000415870545 xtb: 6.4.1 (unknown)
142155  0     0  0            999 V2000
    0.6915   -3.8464    2.7012 C   0  0  0  0  0  0  0  0  0  0  0  0
    1.2515   -5.0844    2.3042 C   0  0  0  0  0  0  0  0  0  0  0  0
    0.6151   -6.2634    2.6072 C   0  0  0  0  0  0  0  0  0  0  0  0
   -0.5977   -6.1797    3.2919 C   0  0  0  0  0  0  0  0  0  0  0  0
   -1.1462   -4.9421    3.7052 C   0  0  0  0  0  0  0  0  0  0  0  0
   -0.4966   -3.7639    3.4225 C   0  0  0  0  0  0  0  0  0  0  0  0
   -1.5373   -7.1881    3.6543 C   0  0  0  0  0  0  0  0  0  0  0  0
   -2.6572   -6.6251    4.2718 C   0  0  0  0  0  0  0  0  0  0  0  0
   -2.4984   -5.1328    4.3697 C   0  0  0  0  0  0  0  0  0  0  0  0
    1.5218   -2.8259    2.1529 C   0  0  0  0  0  0  0  0  0  0  0  0
    2.5697   -3.3672    1.4246 C   0  0  0  0  0  0  0  0  0  0  0  0
    2.5048   -4.8716    1.4687 C   0  0  0  0  0  0  0  0  0  0  0  0
   -1.6598   -8.8800    3.4781 S   0  0  0  0  0  0  0  0  0  0  0  0
   -3.2743   -8.8478    4.1997 C   0  0  0  0  0  0  0  0  0  0  0  0
   -3.6232   -7.5569    4.5967 C   0  0  0  0  0  0  0  0  0  0  0  0
    1.4803   -1.1124    2.0883 S   0  0  0  0  0  0  0  0  0  0  0  0
    2.8802   -1.1143    1.0377 C   0  0  0  0  0  0  0  0  0  0  0  0
    3.3554   -2.3949    0.8088 C   0  0  0  0  0  0  0  0  0  0  0  0
   -2.4927   -4.6506    5.8297 C   0  0  0  0  0  0  0  0  0  0  0  0
   -3.5549   -4.3855    3.5246 C   0  0  0  0  0  0  0  0  0  0  0  0
   -5.0011   -4.5748    3.9634 C   0  0  0  0  0  0  0  0  0  0  0  0
   -1.3728   -5.2801    6.6503 C   0  0  0  0  0  0  0  0  0  0  0  0
    3.7479   -5.4833    2.1354 C   0  0  0  0  0  0  0  0  0  0  0  0
    2.2463   -5.4848    0.0742 C   0  0  0  0  0  0  0  0  0  0  0  0
    3.9413   -5.0012    3.5684 C   0  0  0  0  0  0  0  0  0  0  0  0
    3.3175   -5.2120   -0.9732 C   0  0  0  0  0  0  0  0  0  0  0  0
   -3.9629  -10.0656    4.2566 C   0  0  0  0  0  0  0  0  0  0  0  0
   -5.3023  -10.3173    4.4467 C   0  0  0  0  0  0  0  0  0  0  0  0
   -6.4129   -9.3479    4.4013 C   0  0  0  0  0  0  0  0  0  0  0  0
   -7.6453  -10.1650    4.3092 C   0  0  0  0  0  0  0  0  0  0  0  0
   -7.3172  -11.5284    4.3629 C   0  0  0  0  0  0  0  0  0  0  0  0
   -5.8670  -11.6506    4.5065 C   0  0  0  0  0  0  0  0  0  0  0  0
   -8.9473   -9.7262    4.1746 C   0  0  0  0  0  0  0  0  0  0  0  0
   -9.9424  -10.6864    4.0883 C   0  0  0  0  0  0  0  0  0  0  0  0
   -9.6258  -12.0439    4.1365 C   0  0  0  0  0  0  0  0  0  0  0  0
   -8.3175  -12.4836    4.2757 C   0  0  0  0  0  0  0  0  0  0  0  0
   -6.3771   -8.1342    4.3945 O   0  0  0  0  0  0  0  0  0  0  0  0
   -5.1926  -12.8228    4.7317 C   0  0  0  0  0  0  0  0  0  0  0  0
   -3.8082  -12.9343    4.9815 C   0  0  0  0  0  0  0  0  0  0  0  0
   -5.8112  -14.0894    4.7858 C   0  0  0  0  0  0  0  0  0  0  0  0
   -6.2547  -15.1470    4.8332 N   0  0  0  0  0  0  0  0  0  0  0  0
   -2.6976  -13.1095    5.2160 N   0  0  0  0  0  0  0  0  0  0  0  0
    3.1868    3.6477   -1.1287 C   0  0  0  0  0  0  0  0  0  0  0  0
    3.9341    3.5585   -2.3296 C   0  0  0  0  0  0  0  0  0  0  0  0
    3.8516    4.5625   -3.2629 C   0  0  0  0  0  0  0  0  0  0  0  0
    3.0203    5.6455   -2.9727 C   0  0  0  0  0  0  0  0  0  0  0  0
    2.3125    5.7582   -1.7502 C   0  0  0  0  0  0  0  0  0  0  0  0
    2.4163    4.7625   -0.8071 C   0  0  0  0  0  0  0  0  0  0  0  0
    2.6525    6.7642   -3.7733 C   0  0  0  0  0  0  0  0  0  0  0  0
    1.7536    7.5854   -3.0884 C   0  0  0  0  0  0  0  0  0  0  0  0
    1.4951    7.0398   -1.7069 C   0  0  0  0  0  0  0  0  0  0  0  0
    3.3062    2.3869   -0.4729 C   0  0  0  0  0  0  0  0  0  0  0  0
    4.1024    1.5226   -1.2051 C   0  0  0  0  0  0  0  0  0  0  0  0
    4.6727    2.2337   -2.4055 C   0  0  0  0  0  0  0  0  0  0  0  0
    2.9349    7.2826   -5.3726 S   0  0  0  0  0  0  0  0  0  0  0  0
    1.7764    8.6059   -5.1595 C   0  0  0  0  0  0  0  0  0  0  0  0
    1.2579    8.6142   -3.8637 C   0  0  0  0  0  0  0  0  0  0  0  0
    2.5505    1.6134    0.8612 S   0  0  0  0  0  0  0  0  0  0  0  0
    3.2872    0.0920    0.4056 C   0  0  0  0  0  0  0  0  0  0  0  0
    4.1130    0.2262   -0.6985 C   0  0  0  0  0  0  0  0  0  0  0  0
   -0.0239    6.8031   -1.5715 C   0  0  0  0  0  0  0  0  0  0  0  0
    2.0845    7.9562   -0.6149 C   0  0  0  0  0  0  0  0  0  0  0  0
    1.4323    9.3289   -0.5173 C   0  0  0  0  0  0  0  0  0  0  0  0
   -0.5168    6.2770   -0.2295 C   0  0  0  0  0  0  0  0  0  0  0  0
    6.1901    2.4143   -2.1674 C   0  0  0  0  0  0  0  0  0  0  0  0
    4.3870    1.4776   -3.7108 C   0  0  0  0  0  0  0  0  0  0  0  0
    6.9176    3.2591   -3.2043 C   0  0  0  0  0  0  0  0  0  0  0  0
    2.9041    1.1796   -3.9021 C   0  0  0  0  0  0  0  0  0  0  0  0
    1.5042    9.3690   -6.3005 C   0  0  0  0  0  0  0  0  0  0  0  0
    0.5863   10.3667   -6.5423 C   0  0  0  0  0  0  0  0  0  0  0  0
   -0.3748   10.9792   -5.6080 C   0  0  0  0  0  0  0  0  0  0  0  0
   -1.2047   11.8907   -6.4275 C   0  0  0  0  0  0  0  0  0  0  0  0
   -0.7607   11.8685   -7.7577 C   0  0  0  0  0  0  0  0  0  0  0  0
    0.3783   10.9538   -7.8539 C   0  0  0  0  0  0  0  0  0  0  0  0
   -2.2711   12.6654   -6.0170 C   0  0  0  0  0  0  0  0  0  0  0  0
   -2.9125   13.4333   -6.9749 C   0  0  0  0  0  0  0  0  0  0  0  0
   -2.4832   13.4147   -8.3017 C   0  0  0  0  0  0  0  0  0  0  0  0
   -1.4078   12.6400   -8.7108 C   0  0  0  0  0  0  0  0  0  0  0  0
   -0.4995   10.8192   -4.4099 O   0  0  0  0  0  0  0  0  0  0  0  0
    1.0937   10.7293   -9.0025 C   0  0  0  0  0  0  0  0  0  0  0  0
    2.2159    9.8860   -9.1494 C   0  0  0  0  0  0  0  0  0  0  0  0
    0.8077   11.3404  -10.2424 C   0  0  0  0  0  0  0  0  0  0  0  0
    0.6332   11.7941  -11.2823 N   0  0  0  0  0  0  0  0  0  0  0  0
    3.1355    9.2349   -9.3748 N   0  0  0  0  0  0  0  0  0  0  0  0
  -11.2199  -10.3074    3.9538 F   0  0  0  0  0  0  0  0  0  0  0  0
  -10.6066  -12.9495    4.0420 F   0  0  0  0  0  0  0  0  0  0  0  0
   -3.1242   14.1617   -9.2088 F   0  0  0  0  0  0  0  0  0  0  0  0
   -3.9556   14.1972   -6.6250 F   0  0  0  0  0  0  0  0  0  0  0  0
    1.0075   -7.2246    2.3119 H   0  0  0  0  0  0  0  0  0  0  0  0
   -0.8916   -2.8029    3.7146 H   0  0  0  0  0  0  0  0  0  0  0  0
   -4.5450   -7.3487    5.1034 H   0  0  0  0  0  0  0  0  0  0  0  0
    4.2318   -2.5854    0.2177 H   0  0  0  0  0  0  0  0  0  0  0  0
   -2.3834   -3.5644    5.8377 H   0  0  0  0  0  0  0  0  0  0  0  0
   -3.4511   -4.9008    6.2851 H   0  0  0  0  0  0  0  0  0  0  0  0
   -3.3096   -3.3216    3.5520 H   0  0  0  0  0  0  0  0  0  0  0  0
   -3.4523   -4.7205    2.4890 H   0  0  0  0  0  0  0  0  0  0  0  0
   -5.3059   -5.6142    3.8897 H   0  0  0  0  0  0  0  0  0  0  0  0
   -5.1534   -4.2340    4.9837 H   0  0  0  0  0  0  0  0  0  0  0  0
   -5.6484   -3.9887    3.3147 H   0  0  0  0  0  0  0  0  0  0  0  0
   -0.3994   -5.0319    6.2327 H   0  0  0  0  0  0  0  0  0  0  0  0
   -1.4715   -6.3632    6.6704 H   0  0  0  0  0  0  0  0  0  0  0  0
   -1.4107   -4.9150    7.6738 H   0  0  0  0  0  0  0  0  0  0  0  0
    4.6290   -5.2183    1.5497 H   0  0  0  0  0  0  0  0  0  0  0  0
    3.6486   -6.5705    2.1279 H   0  0  0  0  0  0  0  0  0  0  0  0
    2.1390   -6.5639    0.2007 H   0  0  0  0  0  0  0  0  0  0  0  0
    1.2909   -5.0985   -0.2907 H   0  0  0  0  0  0  0  0  0  0  0  0
    4.8348   -5.4502    3.9954 H   0  0  0  0  0  0  0  0  0  0  0  0
    4.0529   -3.9196    3.5989 H   0  0  0  0  0  0  0  0  0  0  0  0
    3.0894   -5.2756    4.1865 H   0  0  0  0  0  0  0  0  0  0  0  0
    3.3778   -4.1514   -1.1992 H   0  0  0  0  0  0  0  0  0  0  0  0
    3.0636   -5.7370   -1.8915 H   0  0  0  0  0  0  0  0  0  0  0  0
    4.2927   -5.5609   -0.6447 H   0  0  0  0  0  0  0  0  0  0  0  0
   -3.3401  -10.9294    4.0534 H   0  0  0  0  0  0  0  0  0  0  0  0
   -9.1863   -8.6754    4.1355 H   0  0  0  0  0  0  0  0  0  0  0  0
   -8.1253  -13.5434    4.3032 H   0  0  0  0  0  0  0  0  0  0  0  0
    4.3654    4.5186   -4.2108 H   0  0  0  0  0  0  0  0  0  0  0  0
    1.9039    4.8033    0.1404 H   0  0  0  0  0  0  0  0  0  0  0  0
    0.5351    9.3452   -3.5537 H   0  0  0  0  0  0  0  0  0  0  0  0
    4.6456   -0.6002   -1.1321 H   0  0  0  0  0  0  0  0  0  0  0  0
   -0.3191    6.1007   -2.3558 H   0  0  0  0  0  0  0  0  0  0  0  0
   -0.5198    7.7517   -1.7829 H   0  0  0  0  0  0  0  0  0  0  0  0
    2.0073    7.4429    0.3448 H   0  0  0  0  0  0  0  0  0  0  0  0
    3.1492    8.0823   -0.8305 H   0  0  0  0  0  0  0  0  0  0  0  0
    0.3805    9.2510   -0.2578 H   0  0  0  0  0  0  0  0  0  0  0  0
    1.5201    9.8688   -1.4558 H   0  0  0  0  0  0  0  0  0  0  0  0
    1.9292    9.9107    0.2561 H   0  0  0  0  0  0  0  0  0  0  0  0
   -0.1878    6.9072    0.5919 H   0  0  0  0  0  0  0  0  0  0  0  0
   -1.6048    6.2679   -0.2308 H   0  0  0  0  0  0  0  0  0  0  0  0
   -0.1781    5.2604   -0.0534 H   0  0  0  0  0  0  0  0  0  0  0  0
    6.6405    1.4196   -2.1317 H   0  0  0  0  0  0  0  0  0  0  0  0
    6.3225    2.8733   -1.1842 H   0  0  0  0  0  0  0  0  0  0  0  0
    4.7396    2.0739   -4.5525 H   0  0  0  0  0  0  0  0  0  0  0  0
    4.9488    0.5412   -3.7015 H   0  0  0  0  0  0  0  0  0  0  0  0
    7.9737    3.3102   -2.9491 H   0  0  0  0  0  0  0  0  0  0  0  0
    6.8333    2.8282   -4.1982 H   0  0  0  0  0  0  0  0  0  0  0  0
    6.5252    4.2721   -3.2233 H   0  0  0  0  0  0  0  0  0  0  0  0
    2.5283    0.5480   -3.1002 H   0  0  0  0  0  0  0  0  0  0  0  0
    2.7455    0.6648   -4.8466 H   0  0  0  0  0  0  0  0  0  0  0  0
    2.3263    2.1012   -3.9111 H   0  0  0  0  0  0  0  0  0  0  0  0
    2.0995    9.0706   -7.1550 H   0  0  0  0  0  0  0  0  0  0  0  0
   -2.5981   12.6731   -4.9896 H   0  0  0  0  0  0  0  0  0  0  0  0
   -1.1196   12.6635   -9.7484 H   0  0  0  0  0  0  0  0  0  0  0  0
  1  2  1  0  0  0  0
  2  3  2  0  0  0  0
  3  4  1  0  0  0  0
  4  5  2  0  0  0  0
  5  6  1  0  0  0  0
  6  1  2  0  0  0  0
  4  7  1  0  0  0  0
  7  8  2  0  0  0  0
  8  9  1  0  0  0  0
  9  5  1  0  0  0  0
  1 10  1  0  0  0  0
 10 11  2  0  0  0  0
 11 12  1  0  0  0  0
 12  2  1  0  0  0  0
  7 13  1  0  0  0  0
 13 14  1  0  0  0  0
 14 15  2  0  0  0  0
 15  8  1  0  0  0  0
 10 16  1  0  0  0  0
 16 17  1  0  0  0  0
 17 18  2  0  0  0  0
 18 11  1  0  0  0  0
  9 19  1  0  0  0  0
  9 20  1  0  0  0  0
 20 21  1  0  0  0  0
 19 22  1  0  0  0  0
 12 23  1  0  0  0  0
 12 24  1  0  0  0  0
 23 25  1  0  0  0  0
 24 26  1  0  0  0  0
 14 27  1  0  0  0  0
 27 28  2  0  0  0  0
 28 29  1  0  0  0  0
 29 30  1  0  0  0  0
 30 31  2  0  0  0  0
 31 32  1  0  0  0  0
 32 28  1  0  0  0  0
 30 33  1  0  0  0  0
 33 34  2  0  0  0  0
 34 35  1  0  0  0  0
 35 36  2  0  0  0  0
 36 31  1  0  0  0  0
 29 37  2  0  0  0  0
 32 38  2  0  0  0  0
 38 39  1  0  0  0  0
 38 40  1  0  0  0  0
 40 41  3  0  0  0  0
 39 42  3  0  0  0  0
 43 44  1  0  0  0  0
 44 45  2  0  0  0  0
 45 46  1  0  0  0  0
 46 47  2  0  0  0  0
 47 48  1  0  0  0  0
 48 43  2  0  0  0  0
 46 49  1  0  0  0  0
 49 50  2  0  0  0  0
 50 51  1  0  0  0  0
 51 47  1  0  0  0  0
 43 52  1  0  0  0  0
 52 53  2  0  0  0  0
 53 54  1  0  0  0  0
 54 44  1  0  0  0  0
 49 55  1  0  0  0  0
 55 56  1  0  0  0  0
 56 57  2  0  0  0  0
 57 50  1  0  0  0  0
 52 58  1  0  0  0  0
 58 59  1  0  0  0  0
 59 60  2  0  0  0  0
 60 53  1  0  0  0  0
 51 61  1  0  0  0  0
 51 62  1  0  0  0  0
 62 63  1  0  0  0  0
 61 64  1  0  0  0  0
 54 65  1  0  0  0  0
 54 66  1  0  0  0  0
 65 67  1  0  0  0  0
 66 68  1  0  0  0  0
 56 69  1  0  0  0  0
 69 70  2  0  0  0  0
 70 71  1  0  0  0  0
 71 72  1  0  0  0  0
 72 73  2  0  0  0  0
 73 74  1  0  0  0  0
 74 70  1  0  0  0  0
 72 75  1  0  0  0  0
 75 76  2  0  0  0  0
 76 77  1  0  0  0  0
 77 78  2  0  0  0  0
 78 73  1  0  0  0  0
 71 79  2  0  0  0  0
 74 80  2  0  0  0  0
 80 81  1  0  0  0  0
 80 82  1  0  0  0  0
 82 83  3  0  0  0  0
 81 84  3  0  0  0  0
 34 85  1  0  0  0  0
 35 86  1  0  0  0  0
 77 87  1  0  0  0  0
 76 88  1  0  0  0  0
 59 17  1  0  0  0  0
  3 89  1  0  0  0  0
  6 90  1  0  0  0  0
 15 91  1  0  0  0  0
 18 92  1  0  0  0  0
 19 93  1  0  0  0  0
 19 94  1  0  0  0  0
 20 95  1  0  0  0  0
 20 96  1  0  0  0  0
 21 97  1  0  0  0  0
 21 98  1  0  0  0  0
 21 99  1  0  0  0  0
 22100  1  0  0  0  0
 22101  1  0  0  0  0
 22102  1  0  0  0  0
 23103  1  0  0  0  0
 23104  1  0  0  0  0
 24105  1  0  0  0  0
 24106  1  0  0  0  0
 25107  1  0  0  0  0
 25108  1  0  0  0  0
 25109  1  0  0  0  0
 26110  1  0  0  0  0
 26111  1  0  0  0  0
 26112  1  0  0  0  0
 27113  1  0  0  0  0
 33114  1  0  0  0  0
 36115  1  0  0  0  0
 45116  1  0  0  0  0
 48117  1  0  0  0  0
 57118  1  0  0  0  0
 60119  1  0  0  0  0
 61120  1  0  0  0  0
 61121  1  0  0  0  0
 62122  1  0  0  0  0
 62123  1  0  0  0  0
 63124  1  0  0  0  0
 63125  1  0  0  0  0
 63126  1  0  0  0  0
 64127  1  0  0  0  0
 64128  1  0  0  0  0
 64129  1  0  0  0  0
 65130  1  0  0  0  0
 65131  1  0  0  0  0
 66132  1  0  0  0  0
 66133  1  0  0  0  0
 67134  1  0  0  0  0
 67135  1  0  0  0  0
 67136  1  0  0  0  0
 68137  1  0  0  0  0
 68138  1  0  0  0  0
 68139  1  0  0  0  0
 69140  1  0  0  0  0
 75141  1  0  0  0  0
 78142  1  0  0  0  0
M  END
