SJ-IC.sdf
  xtb     12222121233D
 energy: -220.694430684213 gnorm: 0.000232809489 xtb: 6.4.1 (unknown)
140152  0     0  0            999 V2000
    1.9542   -6.0536   -1.5592 C   0  0  0  0  0  0  0  0  0  0  0  0
    1.6261   -4.6833   -1.6195 C   0  0  0  0  0  0  0  0  0  0  0  0
    2.7011   -3.5151   -0.8627 S   0  0  0  0  0  0  0  0  0  0  0  0
    1.5873   -2.2599   -1.1938 C   0  0  0  0  0  0  0  0  0  0  0  0
    0.4667   -2.7097   -1.8866 C   0  0  0  0  0  0  0  0  0  0  0  0
    0.4857   -4.0730   -2.1328 C   0  0  0  0  0  0  0  0  0  0  0  0
    1.4485   -0.8840   -0.8429 C   0  0  0  0  0  0  0  0  0  0  0  0
    0.2015   -0.4521   -1.3574 C   0  0  0  0  0  0  0  0  0  0  0  0
   -0.4652   -1.5562   -2.1613 C   0  0  0  0  0  0  0  0  0  0  0  0
    2.2531   -0.0527   -0.0664 C   0  0  0  0  0  0  0  0  0  0  0  0
    1.7569    1.1915    0.2405 C   0  0  0  0  0  0  0  0  0  0  0  0
    0.4765    1.5950   -0.2114 C   0  0  0  0  0  0  0  0  0  0  0  0
   -0.2986    0.7889   -1.0428 C   0  0  0  0  0  0  0  0  0  0  0  0
    2.3765    2.2532    1.1337 C   0  0  0  0  0  0  0  0  0  0  0  0
    1.2203    3.2103    1.2796 C   0  0  0  0  0  0  0  0  0  0  0  0
    0.1853    2.8378    0.4264 C   0  0  0  0  0  0  0  0  0  0  0  0
   -1.8846   -1.7556   -1.6725 C   0  0  0  0  0  0  0  0  0  0  0  0
   -0.4218   -1.3085   -3.6620 C   0  0  0  0  0  0  0  0  0  0  0  0
    3.4907    3.0304    0.4477 C   0  0  0  0  0  0  0  0  0  0  0  0
    2.8487    1.6185    2.4244 C   0  0  0  0  0  0  0  0  0  0  0  0
    0.3465   -0.2990   -4.2220 C   0  0  0  0  0  0  0  0  0  0  0  0
    0.3895   -0.1330   -5.5950 C   0  0  0  0  0  0  0  0  0  0  0  0
   -0.3250   -0.9701   -6.4401 C   0  0  0  0  0  0  0  0  0  0  0  0
   -1.0829   -1.9877   -5.8735 C   0  0  0  0  0  0  0  0  0  0  0  0
   -1.1304   -2.1577   -4.5040 C   0  0  0  0  0  0  0  0  0  0  0  0
   -2.1747   -2.6469   -0.6496 C   0  0  0  0  0  0  0  0  0  0  0  0
   -3.4718   -2.7897   -0.1917 C   0  0  0  0  0  0  0  0  0  0  0  0
   -4.5068   -2.0382   -0.7311 C   0  0  0  0  0  0  0  0  0  0  0  0
   -4.2083   -1.1360   -1.7441 C   0  0  0  0  0  0  0  0  0  0  0  0
   -2.9152   -0.9931   -2.2088 C   0  0  0  0  0  0  0  0  0  0  0  0
    4.1274    1.0804    2.5054 C   0  0  0  0  0  0  0  0  0  0  0  0
    4.5544    0.4594    3.6632 C   0  0  0  0  0  0  0  0  0  0  0  0
    3.7186    0.3567    4.7679 C   0  0  0  0  0  0  0  0  0  0  0  0
    2.4378    0.8841    4.6768 C   0  0  0  0  0  0  0  0  0  0  0  0
    2.0042    1.5042    3.5192 C   0  0  0  0  0  0  0  0  0  0  0  0
    4.2480    3.9231    1.1971 C   0  0  0  0  0  0  0  0  0  0  0  0
    5.2350    4.6807    0.5982 C   0  0  0  0  0  0  0  0  0  0  0  0
    5.4900    4.5722   -0.7635 C   0  0  0  0  0  0  0  0  0  0  0  0
    4.7245    3.6861   -1.5080 C   0  0  0  0  0  0  0  0  0  0  0  0
    3.7338    2.9247   -0.9134 C   0  0  0  0  0  0  0  0  0  0  0  0
   -0.2404   -0.8138   -7.9308 C   0  0  0  0  0  0  0  0  0  0  0  0
    0.9131   -1.6487   -8.4908 C   0  0  0  0  0  0  0  0  0  0  0  0
   -5.9222   -2.2327   -0.2703 C   0  0  0  0  0  0  0  0  0  0  0  0
   -6.6170   -3.2966   -1.1228 C   0  0  0  0  0  0  0  0  0  0  0  0
    6.5306    5.4318   -1.4209 C   0  0  0  0  0  0  0  0  0  0  0  0
    5.9161    6.7561   -1.8796 C   0  0  0  0  0  0  0  0  0  0  0  0
    4.1745   -0.3546    6.0089 C   0  0  0  0  0  0  0  0  0  0  0  0
    3.8957   -1.8549    5.8965 C   0  0  0  0  0  0  0  0  0  0  0  0
    0.9325    4.3380    2.0310 C   0  0  0  0  0  0  0  0  0  0  0  0
   -0.3364    4.8398    1.7594 C   0  0  0  0  0  0  0  0  0  0  0  0
   -1.1507    3.9029    0.5137 S   0  0  0  0  0  0  0  0  0  0  0  0
    1.4558   -8.4179   -1.6962 C   0  0  0  0  0  0  0  0  0  0  0  0
    0.6055   -9.4785   -1.8705 C   0  0  0  0  0  0  0  0  0  0  0  0
    0.9024  -10.8764   -1.6365 C   0  0  0  0  0  0  0  0  0  0  0  0
   -0.3323  -11.6324   -1.8488 C   0  0  0  0  0  0  0  0  0  0  0  0
   -1.3501  -10.7424   -2.2325 C   0  0  0  0  0  0  0  0  0  0  0  0
   -0.8151   -9.3668   -2.2786 C   0  0  0  0  0  0  0  0  0  0  0  0
   -0.6161  -12.9838   -1.7269 C   0  0  0  0  0  0  0  0  0  0  0  0
   -1.9090  -13.4169   -1.9912 C   0  0  0  0  0  0  0  0  0  0  0  0
   -2.9073  -12.5316   -2.3712 C   0  0  0  0  0  0  0  0  0  0  0  0
   -2.6342  -11.1768   -2.4961 C   0  0  0  0  0  0  0  0  0  0  0  0
   -1.4322   -8.3657   -2.5838 O   0  0  0  0  0  0  0  0  0  0  0  0
    2.1113  -11.4206   -1.2854 C   0  0  0  0  0  0  0  0  0  0  0  0
    2.3311  -12.7975   -1.0718 C   0  0  0  0  0  0  0  0  0  0  0  0
    3.3112  -10.7053   -1.0917 C   0  0  0  0  0  0  0  0  0  0  0  0
    2.5841  -13.9011   -0.8806 N   0  0  0  0  0  0  0  0  0  0  0  0
    4.3296  -10.2033   -0.9163 N   0  0  0  0  0  0  0  0  0  0  0  0
   -1.4077    7.4863    4.1750 C   0  0  0  0  0  0  0  0  0  0  0  0
   -1.1329    8.0245    5.4048 C   0  0  0  0  0  0  0  0  0  0  0  0
   -1.9316    8.9936    6.1259 C   0  0  0  0  0  0  0  0  0  0  0  0
   -1.3452    9.1467    7.4576 C   0  0  0  0  0  0  0  0  0  0  0  0
   -0.1920    8.3477    7.5407 C   0  0  0  0  0  0  0  0  0  0  0  0
    0.0100    7.6331    6.2642 C   0  0  0  0  0  0  0  0  0  0  0  0
   -1.7391    9.8955    8.5556 C   0  0  0  0  0  0  0  0  0  0  0  0
   -0.9725    9.8311    9.7120 C   0  0  0  0  0  0  0  0  0  0  0  0
    0.1662    9.0420    9.7846 C   0  0  0  0  0  0  0  0  0  0  0  0
    0.5692    8.2881    8.6915 C   0  0  0  0  0  0  0  0  0  0  0  0
    0.9243    6.8783    5.9999 O   0  0  0  0  0  0  0  0  0  0  0  0
   -3.0266    9.6752    5.6605 C   0  0  0  0  0  0  0  0  0  0  0  0
   -3.7558   10.6173    6.4157 C   0  0  0  0  0  0  0  0  0  0  0  0
   -3.5776    9.5581    4.3675 C   0  0  0  0  0  0  0  0  0  0  0  0
   -4.3956   11.3929    6.9703 N   0  0  0  0  0  0  0  0  0  0  0  0
   -4.0848    9.5276    3.3372 N   0  0  0  0  0  0  0  0  0  0  0  0
    1.1031   -7.0687   -1.8847 C   0  0  0  0  0  0  0  0  0  0  0  0
   -0.6216    6.5091    3.5360 C   0  0  0  0  0  0  0  0  0  0  0  0
   -1.0308    5.8935    2.3900 C   0  0  0  0  0  0  0  0  0  0  0  0
    2.9346   -6.2983   -1.1681 H   0  0  0  0  0  0  0  0  0  0  0  0
   -0.2870   -4.6190   -2.6412 H   0  0  0  0  0  0  0  0  0  0  0  0
    3.2062   -0.3947    0.3065 H   0  0  0  0  0  0  0  0  0  0  0  0
   -1.2668    1.1180   -1.3873 H   0  0  0  0  0  0  0  0  0  0  0  0
    0.9122    0.3671   -3.5871 H   0  0  0  0  0  0  0  0  0  0  0  0
    0.9876    0.6636   -6.0144 H   0  0  0  0  0  0  0  0  0  0  0  0
   -1.6443   -2.6538   -6.5130 H   0  0  0  0  0  0  0  0  0  0  0  0
   -1.7323   -2.9484   -4.0807 H   0  0  0  0  0  0  0  0  0  0  0  0
   -1.3852   -3.2379   -0.2083 H   0  0  0  0  0  0  0  0  0  0  0  0
   -3.6811   -3.4953    0.5996 H   0  0  0  0  0  0  0  0  0  0  0  0
   -4.9983   -0.5371   -2.1747 H   0  0  0  0  0  0  0  0  0  0  0  0
   -2.7056   -0.2922   -3.0043 H   0  0  0  0  0  0  0  0  0  0  0  0
    4.7973    1.1603    1.6611 H   0  0  0  0  0  0  0  0  0  0  0  0
    5.5543    0.0520    3.7115 H   0  0  0  0  0  0  0  0  0  0  0  0
    1.7697    0.8125    5.5231 H   0  0  0  0  0  0  0  0  0  0  0  0
    1.0019    1.9050    3.4715 H   0  0  0  0  0  0  0  0  0  0  0  0
    4.0688    4.0150    2.2583 H   0  0  0  0  0  0  0  0  0  0  0  0
    5.8174    5.3665    1.1968 H   0  0  0  0  0  0  0  0  0  0  0  0
    4.9047    3.5869   -2.5690 H   0  0  0  0  0  0  0  0  0  0  0  0
    3.1521    2.2430   -1.5166 H   0  0  0  0  0  0  0  0  0  0  0  0
   -1.1757   -1.1390   -8.3908 H   0  0  0  0  0  0  0  0  0  0  0  0
   -0.0810    0.2361   -8.1850 H   0  0  0  0  0  0  0  0  0  0  0  0
    0.7665   -2.7010   -8.2578 H   0  0  0  0  0  0  0  0  0  0  0  0
    1.8573   -1.3307   -8.0542 H   0  0  0  0  0  0  0  0  0  0  0  0
    0.9743   -1.5371   -9.5708 H   0  0  0  0  0  0  0  0  0  0  0  0
   -6.4708   -1.2921   -0.3513 H   0  0  0  0  0  0  0  0  0  0  0  0
   -5.9323   -2.5459    0.7755 H   0  0  0  0  0  0  0  0  0  0  0  0
   -6.6290   -2.9952   -2.1679 H   0  0  0  0  0  0  0  0  0  0  0  0
   -6.0899   -4.2450   -1.0470 H   0  0  0  0  0  0  0  0  0  0  0  0
   -7.6424   -3.4408   -0.7907 H   0  0  0  0  0  0  0  0  0  0  0  0
    6.9498    4.9116   -2.2845 H   0  0  0  0  0  0  0  0  0  0  0  0
    7.3406    5.6360   -0.7179 H   0  0  0  0  0  0  0  0  0  0  0  0
    5.5030    7.2958   -1.0304 H   0  0  0  0  0  0  0  0  0  0  0  0
    6.6687    7.3803   -2.3554 H   0  0  0  0  0  0  0  0  0  0  0  0
    5.1139    6.5745   -2.5916 H   0  0  0  0  0  0  0  0  0  0  0  0
    5.2455   -0.1982    6.1526 H   0  0  0  0  0  0  0  0  0  0  0  0
    3.6505    0.0452    6.8791 H   0  0  0  0  0  0  0  0  0  0  0  0
    2.8307   -2.0327    5.7642 H   0  0  0  0  0  0  0  0  0  0  0  0
    4.4206   -2.2747    5.0413 H   0  0  0  0  0  0  0  0  0  0  0  0
    4.2257   -2.3717    6.7946 H   0  0  0  0  0  0  0  0  0  0  0  0
    1.5904    4.7811    2.7553 H   0  0  0  0  0  0  0  0  0  0  0  0
    2.4644   -8.6108   -1.3533 H   0  0  0  0  0  0  0  0  0  0  0  0
    0.1371  -13.6955   -1.4317 H   0  0  0  0  0  0  0  0  0  0  0  0
   -2.1384  -14.4677   -1.8964 H   0  0  0  0  0  0  0  0  0  0  0  0
   -3.9025  -12.9006   -2.5688 H   0  0  0  0  0  0  0  0  0  0  0  0
   -3.3947  -10.4689   -2.7882 H   0  0  0  0  0  0  0  0  0  0  0  0
   -2.3110    7.7928    3.6627 H   0  0  0  0  0  0  0  0  0  0  0  0
   -2.6205   10.5149    8.5309 H   0  0  0  0  0  0  0  0  0  0  0  0
   -1.2744   10.4089   10.5728 H   0  0  0  0  0  0  0  0  0  0  0  0
    0.7399    9.0139   10.6988 H   0  0  0  0  0  0  0  0  0  0  0  0
    1.4495    7.6647    8.7252 H   0  0  0  0  0  0  0  0  0  0  0  0
    0.1121   -6.8519   -2.2509 H   0  0  0  0  0  0  0  0  0  0  0  0
    0.3027    6.2171    4.0090 H   0  0  0  0  0  0  0  0  0  0  0  0
   -1.9806    6.1773    1.9526 H   0  0  0  0  0  0  0  0  0  0  0  0
  1  2  1  0  0  0  0
  2  3  1  0  0  0  0
  3  4  1  0  0  0  0
  4  5  2  0  0  0  0
  5  6  1  0  0  0  0
  6  2  2  0  0  0  0
  4  7  1  0  0  0  0
  7  8  2  0  0  0  0
  8  9  1  0  0  0  0
  9  5  1  0  0  0  0
  7 10  1  0  0  0  0
 10 11  2  0  0  0  0
 11 12  1  0  0  0  0
 12 13  2  0  0  0  0
 13  8  1  0  0  0  0
 11 14  1  0  0  0  0
 14 15  1  0  0  0  0
 15 16  2  0  0  0  0
 16 12  1  0  0  0  0
  9 17  1  0  0  0  0
  9 18  1  0  0  0  0
 14 19  1  0  0  0  0
 14 20  1  0  0  0  0
 18 21  2  0  0  0  0
 21 22  1  0  0  0  0
 22 23  2  0  0  0  0
 23 24  1  0  0  0  0
 24 25  2  0  0  0  0
 25 18  1  0  0  0  0
 17 26  2  0  0  0  0
 26 27  1  0  0  0  0
 27 28  2  0  0  0  0
 28 29  1  0  0  0  0
 29 30  2  0  0  0  0
 30 17  1  0  0  0  0
 20 31  2  0  0  0  0
 31 32  1  0  0  0  0
 32 33  2  0  0  0  0
 33 34  1  0  0  0  0
 34 35  2  0  0  0  0
 35 20  1  0  0  0  0
 19 36  2  0  0  0  0
 36 37  1  0  0  0  0
 37 38  2  0  0  0  0
 38 39  1  0  0  0  0
 39 40  2  0  0  0  0
 40 19  1  0  0  0  0
 23 41  1  0  0  0  0
 41 42  1  0  0  0  0
 28 43  1  0  0  0  0
 43 44  1  0  0  0  0
 38 45  1  0  0  0  0
 45 46  1  0  0  0  0
 33 47  1  0  0  0  0
 47 48  1  0  0  0  0
 15 49  1  0  0  0  0
 49 50  2  0  0  0  0
 50 51  1  0  0  0  0
 51 16  1  0  0  0  0
 52 53  2  0  0  0  0
 53 54  1  0  0  0  0
 54 55  1  0  0  0  0
 55 56  2  0  0  0  0
 56 57  1  0  0  0  0
 57 53  1  0  0  0  0
 55 58  1  0  0  0  0
 58 59  2  0  0  0  0
 59 60  1  0  0  0  0
 60 61  2  0  0  0  0
 61 56  1  0  0  0  0
 57 62  2  0  0  0  0
 54 63  2  0  0  0  0
 63 64  1  0  0  0  0
 63 65  1  0  0  0  0
 64 66  3  0  0  0  0
 65 67  3  0  0  0  0
 68 69  2  0  0  0  0
 69 70  1  0  0  0  0
 70 71  1  0  0  0  0
 71 72  2  0  0  0  0
 72 73  1  0  0  0  0
 73 69  1  0  0  0  0
 71 74  1  0  0  0  0
 74 75  2  0  0  0  0
 75 76  1  0  0  0  0
 76 77  2  0  0  0  0
 77 72  1  0  0  0  0
 73 78  2  0  0  0  0
 70 79  2  0  0  0  0
 79 80  1  0  0  0  0
 79 81  1  0  0  0  0
 80 82  3  0  0  0  0
 81 83  3  0  0  0  0
 52 84  1  0  0  0  0
 84  1  2  0  0  0  0
 68 85  1  0  0  0  0
 85 86  2  0  0  0  0
 50 86  1  0  0  0  0
  1 87  1  0  0  0  0
  6 88  1  0  0  0  0
 10 89  1  0  0  0  0
 13 90  1  0  0  0  0
 21 91  1  0  0  0  0
 22 92  1  0  0  0  0
 24 93  1  0  0  0  0
 25 94  1  0  0  0  0
 26 95  1  0  0  0  0
 27 96  1  0  0  0  0
 29 97  1  0  0  0  0
 30 98  1  0  0  0  0
 31 99  1  0  0  0  0
 32100  1  0  0  0  0
 34101  1  0  0  0  0
 35102  1  0  0  0  0
 36103  1  0  0  0  0
 37104  1  0  0  0  0
 39105  1  0  0  0  0
 40106  1  0  0  0  0
 41107  1  0  0  0  0
 41108  1  0  0  0  0
 42109  1  0  0  0  0
 42110  1  0  0  0  0
 42111  1  0  0  0  0
 43112  1  0  0  0  0
 43113  1  0  0  0  0
 44114  1  0  0  0  0
 44115  1  0  0  0  0
 44116  1  0  0  0  0
 45117  1  0  0  0  0
 45118  1  0  0  0  0
 46119  1  0  0  0  0
 46120  1  0  0  0  0
 46121  1  0  0  0  0
 47122  1  0  0  0  0
 47123  1  0  0  0  0
 48124  1  0  0  0  0
 48125  1  0  0  0  0
 48126  1  0  0  0  0
 49127  1  0  0  0  0
 52128  1  0  0  0  0
 58129  1  0  0  0  0
 59130  1  0  0  0  0
 60131  1  0  0  0  0
 61132  1  0  0  0  0
 68133  1  0  0  0  0
 74134  1  0  0  0  0
 75135  1  0  0  0  0
 76136  1  0  0  0  0
 77137  1  0  0  0  0
 84138  1  0  0  0  0
 85139  1  0  0  0  0
 86140  1  0  0  0  0
M  END
