TfIF-4FIC.sdf
  xtb     12222116303D
 energy: -201.596515848900 gnorm: 0.000655000872 xtb: 6.4.1 (unknown)
114126  0     0  0            999 V2000
   -1.4147    0.4156   -0.4851 C   0  0  0  0  0  0  0  0  0  0  0  0
   -0.8913    1.7126   -0.6355 C   0  0  0  0  0  0  0  0  0  0  0  0
    0.3943    2.0094   -0.2412 C   0  0  0  0  0  0  0  0  0  0  0  0
    1.1508    0.9824    0.3140 C   0  0  0  0  0  0  0  0  0  0  0  0
    0.6218   -0.3108    0.4781 C   0  0  0  0  0  0  0  0  0  0  0  0
   -0.6618   -0.6090    0.0788 C   0  0  0  0  0  0  0  0  0  0  0  0
    2.5126    0.9891    0.8062 C   0  0  0  0  0  0  0  0  0  0  0  0
    2.8204   -0.2971    1.2898 C   0  0  0  0  0  0  0  0  0  0  0  0
    1.6425   -1.2273    1.1127 C   0  0  0  0  0  0  0  0  0  0  0  0
    3.4459    2.0220    0.8375 C   0  0  0  0  0  0  0  0  0  0  0  0
    4.6854    1.7474    1.3674 C   0  0  0  0  0  0  0  0  0  0  0  0
    4.9838    0.4590    1.8689 C   0  0  0  0  0  0  0  0  0  0  0  0
    4.0539   -0.5771    1.8309 C   0  0  0  0  0  0  0  0  0  0  0  0
    5.8772    2.6776    1.5077 C   0  0  0  0  0  0  0  0  0  0  0  0
    6.8747    1.7650    2.1699 C   0  0  0  0  0  0  0  0  0  0  0  0
    6.3251    0.4925    2.3600 C   0  0  0  0  0  0  0  0  0  0  0  0
    8.1676    1.8512    2.6279 C   0  0  0  0  0  0  0  0  0  0  0  0
    8.6277    0.6443    3.1838 C   0  0  0  0  0  0  0  0  0  0  0  0
    7.3904   -0.6059    3.1134 S   0  0  0  0  0  0  0  0  0  0  0  0
    9.9173    0.5173    3.7041 C   0  0  0  0  0  0  0  0  0  0  0  0
   10.5484   -0.5518    4.2990 C   0  0  0  0  0  0  0  0  0  0  0  0
   11.9077   -0.5557    4.7975 C   0  0  0  0  0  0  0  0  0  0  0  0
   12.1512   -1.8710    5.3947 C   0  0  0  0  0  0  0  0  0  0  0  0
   10.9926   -2.6522    5.2529 C   0  0  0  0  0  0  0  0  0  0  0  0
    9.9526   -1.8634    4.5571 C   0  0  0  0  0  0  0  0  0  0  0  0
   13.2661   -2.4020    6.0237 C   0  0  0  0  0  0  0  0  0  0  0  0
   13.1902   -3.7049    6.4946 C   0  0  0  0  0  0  0  0  0  0  0  0
   12.0350   -4.4720    6.3478 C   0  0  0  0  0  0  0  0  0  0  0  0
   10.9159   -3.9485    5.7202 C   0  0  0  0  0  0  0  0  0  0  0  0
   12.0063   -5.7257    6.8174 F   0  0  0  0  0  0  0  0  0  0  0  0
   14.2565   -4.2344    7.1057 F   0  0  0  0  0  0  0  0  0  0  0  0
    8.8342   -2.2507    4.2717 O   0  0  0  0  0  0  0  0  0  0  0  0
   12.8307    0.4564    4.7286 C   0  0  0  0  0  0  0  0  0  0  0  0
   12.6279    1.7232    4.1425 C   0  0  0  0  0  0  0  0  0  0  0  0
   14.1431    0.3654    5.2393 C   0  0  0  0  0  0  0  0  0  0  0  0
   15.2219    0.3600    5.6311 N   0  0  0  0  0  0  0  0  0  0  0  0
   12.5521    2.7747    3.6859 N   0  0  0  0  0  0  0  0  0  0  0  0
    5.5488    3.8828    2.3930 C   0  0  0  0  0  0  0  0  0  0  0  0
    6.3796    3.1378    0.1353 C   0  0  0  0  0  0  0  0  0  0  0  0
    1.1481   -1.7584    2.4618 C   0  0  0  0  0  0  0  0  0  0  0  0
    1.9980   -2.3886    0.1782 C   0  0  0  0  0  0  0  0  0  0  0  0
   -2.7651    0.3994   -1.0069 C   0  0  0  0  0  0  0  0  0  0  0  0
   -3.0799    1.6899   -1.4744 C   0  0  0  0  0  0  0  0  0  0  0  0
   -1.9175    2.6314   -1.2587 C   0  0  0  0  0  0  0  0  0  0  0  0
   -2.3002    3.7594   -0.2942 C   0  0  0  0  0  0  0  0  0  0  0  0
   -1.4186    3.2092   -2.5864 C   0  0  0  0  0  0  0  0  0  0  0  0
   -3.6742   -0.6511   -1.0977 C   0  0  0  0  0  0  0  0  0  0  0  0
   -4.8970   -0.3908   -1.6715 C   0  0  0  0  0  0  0  0  0  0  0  0
   -5.2068    0.9069   -2.1424 C   0  0  0  0  0  0  0  0  0  0  0  0
   -4.3025    1.9613   -2.0436 C   0  0  0  0  0  0  0  0  0  0  0  0
   -6.0508   -1.3486   -1.9072 C   0  0  0  0  0  0  0  0  0  0  0  0
   -7.0405   -0.4450   -2.5915 C   0  0  0  0  0  0  0  0  0  0  0  0
   -6.5222    0.8469   -2.6950 C   0  0  0  0  0  0  0  0  0  0  0  0
   -5.6415   -2.5105   -2.8167 C   0  0  0  0  0  0  0  0  0  0  0  0
   -6.6151   -1.8744   -0.5833 C   0  0  0  0  0  0  0  0  0  0  0  0
   -8.3022   -0.5773   -3.1351 C   0  0  0  0  0  0  0  0  0  0  0  0
   -8.7779    0.6210   -3.6680 C   0  0  0  0  0  0  0  0  0  0  0  0
   -7.5999    1.9259   -3.4549 S   0  0  0  0  0  0  0  0  0  0  0  0
   -9.9806    0.9751   -4.2920 C   0  0  0  0  0  0  0  0  0  0  0  0
  -11.0464    0.2166   -4.7170 C   0  0  0  0  0  0  0  0  0  0  0  0
  -12.2428    0.7879   -5.3082 C   0  0  0  0  0  0  0  0  0  0  0  0
  -13.0387   -0.3106   -5.8556 C   0  0  0  0  0  0  0  0  0  0  0  0
  -12.4026   -1.5210   -5.5418 C   0  0  0  0  0  0  0  0  0  0  0  0
  -11.1563   -1.2524   -4.7879 C   0  0  0  0  0  0  0  0  0  0  0  0
  -10.4082   -2.1054   -4.3553 O   0  0  0  0  0  0  0  0  0  0  0  0
  -12.6262    2.1041   -5.3075 C   0  0  0  0  0  0  0  0  0  0  0  0
  -11.9332    3.1733   -4.7000 C   0  0  0  0  0  0  0  0  0  0  0  0
  -11.4529    4.1010   -4.2223 N   0  0  0  0  0  0  0  0  0  0  0  0
  -13.8195    2.5779   -5.8937 C   0  0  0  0  0  0  0  0  0  0  0  0
  -14.7686    3.0312   -6.3534 N   0  0  0  0  0  0  0  0  0  0  0  0
  -14.2253   -0.3209   -6.5724 C   0  0  0  0  0  0  0  0  0  0  0  0
  -14.7430   -1.5492   -6.9559 C   0  0  0  0  0  0  0  0  0  0  0  0
  -14.1043   -2.7474   -6.6360 C   0  0  0  0  0  0  0  0  0  0  0  0
  -12.9185   -2.7445   -5.9198 C   0  0  0  0  0  0  0  0  0  0  0  0
  -14.6413   -3.9103   -7.0264 F   0  0  0  0  0  0  0  0  0  0  0  0
  -15.8846   -1.5808   -7.6535 F   0  0  0  0  0  0  0  0  0  0  0  0
    0.8061    3.0006   -0.3568 H   0  0  0  0  0  0  0  0  0  0  0  0
   -1.0742   -1.5999    0.1953 H   0  0  0  0  0  0  0  0  0  0  0  0
    3.1991    3.0009    0.4554 H   0  0  0  0  0  0  0  0  0  0  0  0
    4.3097   -1.5533    2.2135 H   0  0  0  0  0  0  0  0  0  0  0  0
    8.7914    2.7265    2.5851 H   0  0  0  0  0  0  0  0  0  0  0  0
   10.4967    1.4286    3.6173 H   0  0  0  0  0  0  0  0  0  0  0  0
   14.1828   -1.8537    6.1642 H   0  0  0  0  0  0  0  0  0  0  0  0
   10.0199   -4.5371    5.6041 H   0  0  0  0  0  0  0  0  0  0  0  0
    5.1893    3.5514    3.3646 H   0  0  0  0  0  0  0  0  0  0  0  0
    6.4368    4.4929    2.5388 H   0  0  0  0  0  0  0  0  0  0  0  0
    4.7791    4.4931    1.9274 H   0  0  0  0  0  0  0  0  0  0  0  0
    6.6099    2.2780   -0.4900 H   0  0  0  0  0  0  0  0  0  0  0  0
    7.2790    3.7379    0.2481 H   0  0  0  0  0  0  0  0  0  0  0  0
    5.6204    3.7357   -0.3625 H   0  0  0  0  0  0  0  0  0  0  0  0
    1.9197   -2.3601    2.9355 H   0  0  0  0  0  0  0  0  0  0  0  0
    0.2630   -2.3743    2.3232 H   0  0  0  0  0  0  0  0  0  0  0  0
    0.8964   -0.9319    3.1229 H   0  0  0  0  0  0  0  0  0  0  0  0
    1.1257   -3.0142    0.0057 H   0  0  0  0  0  0  0  0  0  0  0  0
    2.7829   -2.9993    0.6172 H   0  0  0  0  0  0  0  0  0  0  0  0
    2.3475   -2.0082   -0.7793 H   0  0  0  0  0  0  0  0  0  0  0  0
   -1.4391    4.3920   -0.0935 H   0  0  0  0  0  0  0  0  0  0  0  0
   -2.6545    3.3458    0.6476 H   0  0  0  0  0  0  0  0  0  0  0  0
   -3.0893    4.3714   -0.7239 H   0  0  0  0  0  0  0  0  0  0  0  0
   -2.1933    3.8159   -3.0488 H   0  0  0  0  0  0  0  0  0  0  0  0
   -0.5428    3.8318   -2.4215 H   0  0  0  0  0  0  0  0  0  0  0  0
   -1.1507    2.4064   -3.2701 H   0  0  0  0  0  0  0  0  0  0  0  0
   -3.4198   -1.6353   -0.7351 H   0  0  0  0  0  0  0  0  0  0  0  0
   -4.5642    2.9424   -2.4099 H   0  0  0  0  0  0  0  0  0  0  0  0
   -5.2261   -2.1332   -3.7486 H   0  0  0  0  0  0  0  0  0  0  0  0
   -6.5080   -3.1256   -3.0455 H   0  0  0  0  0  0  0  0  0  0  0  0
   -4.8927   -3.1273   -2.3266 H   0  0  0  0  0  0  0  0  0  0  0  0
   -6.9049   -1.0464    0.0602 H   0  0  0  0  0  0  0  0  0  0  0  0
   -7.4891   -2.4927   -0.7717 H   0  0  0  0  0  0  0  0  0  0  0  0
   -5.8681   -2.4711   -0.0662 H   0  0  0  0  0  0  0  0  0  0  0  0
   -8.8764   -1.4839   -3.1683 H   0  0  0  0  0  0  0  0  0  0  0  0
  -10.0585    2.0386   -4.4866 H   0  0  0  0  0  0  0  0  0  0  0  0
  -14.7572    0.5747   -6.8476 H   0  0  0  0  0  0  0  0  0  0  0  0
  -12.4192   -3.6670   -5.6700 H   0  0  0  0  0  0  0  0  0  0  0  0
  1  2  1  0  0  0  0
  2  3  2  0  0  0  0
  3  4  1  0  0  0  0
  4  5  2  0  0  0  0
  5  6  1  0  0  0  0
  6  1  2  0  0  0  0
  4  7  1  0  0  0  0
  7  8  2  0  0  0  0
  8  9  1  0  0  0  0
  9  5  1  0  0  0  0
  7 10  1  0  0  0  0
 10 11  2  0  0  0  0
 11 12  1  0  0  0  0
 12 13  2  0  0  0  0
 13  8  1  0  0  0  0
 11 14  1  0  0  0  0
 14 15  1  0  0  0  0
 15 16  2  0  0  0  0
 16 12  1  0  0  0  0
 15 17  1  0  0  0  0
 17 18  2  0  0  0  0
 18 19  1  0  0  0  0
 19 16  1  0  0  0  0
 18 20  1  0  0  0  0
 20 21  2  0  0  0  0
 21 22  1  0  0  0  0
 22 23  1  0  0  0  0
 23 24  2  0  0  0  0
 24 25  1  0  0  0  0
 25 21  1  0  0  0  0
 23 26  1  0  0  0  0
 26 27  2  0  0  0  0
 27 28  1  0  0  0  0
 28 29  2  0  0  0  0
 29 24  1  0  0  0  0
 28 30  1  0  0  0  0
 27 31  1  0  0  0  0
 25 32  2  0  0  0  0
 22 33  2  0  0  0  0
 33 34  1  0  0  0  0
 33 35  1  0  0  0  0
 35 36  3  0  0  0  0
 34 37  3  0  0  0  0
 14 38  1  0  0  0  0
 14 39  1  0  0  0  0
  9 40  1  0  0  0  0
  9 41  1  0  0  0  0
  1 42  1  0  0  0  0
 42 43  2  0  0  0  0
 43 44  1  0  0  0  0
 44  2  1  0  0  0  0
 44 45  1  0  0  0  0
 44 46  1  0  0  0  0
 42 47  1  0  0  0  0
 47 48  2  0  0  0  0
 48 49  1  0  0  0  0
 49 50  2  0  0  0  0
 50 43  1  0  0  0  0
 48 51  1  0  0  0  0
 51 52  1  0  0  0  0
 52 53  2  0  0  0  0
 53 49  1  0  0  0  0
 51 54  1  0  0  0  0
 51 55  1  0  0  0  0
 52 56  1  0  0  0  0
 56 57  2  0  0  0  0
 57 58  1  0  0  0  0
 58 53  1  0  0  0  0
 57 59  1  0  0  0  0
 59 60  2  0  0  0  0
 60 61  1  0  0  0  0
 61 62  1  0  0  0  0
 62 63  2  0  0  0  0
 63 64  1  0  0  0  0
 64 60  1  0  0  0  0
 64 65  2  0  0  0  0
 61 66  2  0  0  0  0
 66 67  1  0  0  0  0
 67 68  3  0  0  0  0
 66 69  1  0  0  0  0
 69 70  3  0  0  0  0
 62 71  1  0  0  0  0
 71 72  2  0  0  0  0
 72 73  1  0  0  0  0
 73 74  2  0  0  0  0
 74 63  1  0  0  0  0
 73 75  1  0  0  0  0
 72 76  1  0  0  0  0
  3 77  1  0  0  0  0
  6 78  1  0  0  0  0
 10 79  1  0  0  0  0
 13 80  1  0  0  0  0
 17 81  1  0  0  0  0
 20 82  1  0  0  0  0
 26 83  1  0  0  0  0
 29 84  1  0  0  0  0
 38 85  1  0  0  0  0
 38 86  1  0  0  0  0
 38 87  1  0  0  0  0
 39 88  1  0  0  0  0
 39 89  1  0  0  0  0
 39 90  1  0  0  0  0
 40 91  1  0  0  0  0
 40 92  1  0  0  0  0
 40 93  1  0  0  0  0
 41 94  1  0  0  0  0
 41 95  1  0  0  0  0
 41 96  1  0  0  0  0
 45 97  1  0  0  0  0
 45 98  1  0  0  0  0
 45 99  1  0  0  0  0
 46100  1  0  0  0  0
 46101  1  0  0  0  0
 46102  1  0  0  0  0
 47103  1  0  0  0  0
 50104  1  0  0  0  0
 54105  1  0  0  0  0
 54106  1  0  0  0  0
 54107  1  0  0  0  0
 55108  1  0  0  0  0
 55109  1  0  0  0  0
 55110  1  0  0  0  0
 56111  1  0  0  0  0
 59112  1  0  0  0  0
 71113  1  0  0  0  0
 74114  1  0  0  0  0
M  END
