TPD3.sdf
  xtb     12222115543D
 energy: -274.510139939054 gnorm: 0.000252108368 xtb: 6.4.1 (unknown)
164178  0     0  0            999 V2000
   -0.3796   -0.7492   -2.6541 C   0  0  0  0  0  0  0  0  0  0  0  0
   -1.5824   -1.0138   -1.9553 C   0  0  0  0  0  0  0  0  0  0  0  0
   -1.6600   -1.9871   -0.9618 C   0  0  0  0  0  0  0  0  0  0  0  0
   -0.4928   -2.6273   -0.6194 C   0  0  0  0  0  0  0  0  0  0  0  0
    0.7292   -2.2911   -1.2509 C   0  0  0  0  0  0  0  0  0  0  0  0
    0.7874   -1.3916   -2.3123 C   0  0  0  0  0  0  0  0  0  0  0  0
   -0.5885    0.3327   -3.7012 C   0  0  0  0  0  0  0  0  0  0  0  0
   -1.9930    0.7716   -3.3783 C   0  0  0  0  0  0  0  0  0  0  0  0
   -2.5372   -0.0478   -2.3975 C   0  0  0  0  0  0  0  0  0  0  0  0
   -2.8041    1.8464   -3.7145 C   0  0  0  0  0  0  0  0  0  0  0  0
   -3.9775    1.8540   -2.9747 C   0  0  0  0  0  0  0  0  0  0  0  0
   -4.0873    0.4764   -1.8893 S   0  0  0  0  0  0  0  0  0  0  0  0
   -0.2663   -3.6336    0.4967 C   0  0  0  0  0  0  0  0  0  0  0  0
    1.2395   -3.6428    0.5647 C   0  0  0  0  0  0  0  0  0  0  0  0
    1.7670   -2.9228   -0.5000 C   0  0  0  0  0  0  0  0  0  0  0  0
    2.2057   -4.1315    1.4330 C   0  0  0  0  0  0  0  0  0  0  0  0
    3.4828   -3.7525    1.0455 C   0  0  0  0  0  0  0  0  0  0  0  0
    3.4779   -2.8417   -0.4564 S   0  0  0  0  0  0  0  0  0  0  0  0
    4.6729   -3.8950    1.7948 C   0  0  0  0  0  0  0  0  0  0  0  0
   -0.7009   -5.0435    0.1244 C   0  0  0  0  0  0  0  0  0  0  0  0
   -0.9540   -3.1606    1.7605 C   0  0  0  0  0  0  0  0  0  0  0  0
    0.3266    1.5352   -3.5813 C   0  0  0  0  0  0  0  0  0  0  0  0
   -0.4599   -0.3361   -5.0606 C   0  0  0  0  0  0  0  0  0  0  0  0
   -6.8101    4.4331   -2.1568 C   0  0  0  0  0  0  0  0  0  0  0  0
   -7.9263    5.0284   -1.4970 C   0  0  0  0  0  0  0  0  0  0  0  0
   -7.9647    6.3348   -1.1526 C   0  0  0  0  0  0  0  0  0  0  0  0
    8.3644   -3.1617    2.9572 C   0  0  0  0  0  0  0  0  0  0  0  0
    8.8233   -2.7416    4.1579 C   0  0  0  0  0  0  0  0  0  0  0  0
    8.0153   -2.3360    5.3200 C   0  0  0  0  0  0  0  0  0  0  0  0
    8.8387   -2.0202    6.3878 N   0  0  0  0  0  0  0  0  0  0  0  0
   10.1749   -2.0450    6.1513 C   0  0  0  0  0  0  0  0  0  0  0  0
   10.5216   -2.4974    4.4930 S   0  0  0  0  0  0  0  0  0  0  0  0
   -6.8220    7.2636   -1.1127 C   0  0  0  0  0  0  0  0  0  0  0  0
   -7.2598    8.5483   -0.8353 N   0  0  0  0  0  0  0  0  0  0  0  0
   -8.5803    8.6893   -0.5597 C   0  0  0  0  0  0  0  0  0  0  0  0
   -9.4145    7.1460   -0.6117 S   0  0  0  0  0  0  0  0  0  0  0  0
   -6.3059    9.6374   -0.9443 C   0  0  0  0  0  0  0  0  0  0  0  0
   -5.6521    6.9758   -1.1992 O   0  0  0  0  0  0  0  0  0  0  0  0
   -9.2678    9.8278   -0.2307 C   0  0  0  0  0  0  0  0  0  0  0  0
   -8.7433   11.1297   -0.1416 C   0  0  0  0  0  0  0  0  0  0  0  0
  -10.6466    9.7480    0.0624 C   0  0  0  0  0  0  0  0  0  0  0  0
    0.4180    2.4212   -4.6486 C   0  0  0  0  0  0  0  0  0  0  0  0
    1.2052    3.5515   -4.5556 C   0  0  0  0  0  0  0  0  0  0  0  0
    1.9175    3.8309   -3.3957 C   0  0  0  0  0  0  0  0  0  0  0  0
    1.8065    2.9535   -2.3266 C   0  0  0  0  0  0  0  0  0  0  0  0
    1.0165    1.8207   -2.4126 C   0  0  0  0  0  0  0  0  0  0  0  0
    0.7992   -0.5304   -5.6147 C   0  0  0  0  0  0  0  0  0  0  0  0
    0.9394   -1.1716   -6.8303 C   0  0  0  0  0  0  0  0  0  0  0  0
   -0.1703   -1.6373   -7.5241 C   0  0  0  0  0  0  0  0  0  0  0  0
   -1.4249   -1.4489   -6.9612 C   0  0  0  0  0  0  0  0  0  0  0  0
   -1.5707   -0.8097   -5.7435 C   0  0  0  0  0  0  0  0  0  0  0  0
   -1.1266   -5.3754   -1.1527 C   0  0  0  0  0  0  0  0  0  0  0  0
   -1.4831   -6.6786   -1.4525 C   0  0  0  0  0  0  0  0  0  0  0  0
   -1.4188   -7.6775   -0.4915 C   0  0  0  0  0  0  0  0  0  0  0  0
   -0.9794   -7.3398    0.7829 C   0  0  0  0  0  0  0  0  0  0  0  0
   -0.6231   -6.0414    1.0891 C   0  0  0  0  0  0  0  0  0  0  0  0
   -2.2778   -3.5082    2.0000 C   0  0  0  0  0  0  0  0  0  0  0  0
   -2.9318   -3.0457    3.1256 C   0  0  0  0  0  0  0  0  0  0  0  0
   -2.2847   -2.2244    4.0398 C   0  0  0  0  0  0  0  0  0  0  0  0
   -0.9663   -1.8699    3.7892 C   0  0  0  0  0  0  0  0  0  0  0  0
   -0.3081   -2.3273    2.6623 C   0  0  0  0  0  0  0  0  0  0  0  0
    6.8156   -2.1983    5.3630 O   0  0  0  0  0  0  0  0  0  0  0  0
    8.2229   -1.6241    7.6415 C   0  0  0  0  0  0  0  0  0  0  0  0
   11.2010   -1.7579    7.0127 C   0  0  0  0  0  0  0  0  0  0  0  0
   11.0854   -1.3659    8.3586 C   0  0  0  0  0  0  0  0  0  0  0  0
   12.5346   -1.8346    6.5552 C   0  0  0  0  0  0  0  0  0  0  0  0
   -8.3858   12.2172   -0.0513 N   0  0  0  0  0  0  0  0  0  0  0  0
  -11.7657    9.6983    0.3069 N   0  0  0  0  0  0  0  0  0  0  0  0
   13.6224   -1.8868    6.1966 N   0  0  0  0  0  0  0  0  0  0  0  0
   11.0673   -1.0304    9.4567 N   0  0  0  0  0  0  0  0  0  0  0  0
   -1.7647   -9.0979   -0.8342 C   0  0  0  0  0  0  0  0  0  0  0  0
   -3.0131   -1.6918    5.2398 C   0  0  0  0  0  0  0  0  0  0  0  0
   -0.0141   -2.3693   -8.8257 C   0  0  0  0  0  0  0  0  0  0  0  0
    2.7388    5.0830   -3.2857 C   0  0  0  0  0  0  0  0  0  0  0  0
    1.8676    6.2509   -2.8189 C   0  0  0  0  0  0  0  0  0  0  0  0
    0.1111   -3.8745   -8.5810 C   0  0  0  0  0  0  0  0  0  0  0  0
   -0.5262   -9.8425   -1.3370 C   0  0  0  0  0  0  0  0  0  0  0  0
   -3.7459   -0.3957    4.8872 C   0  0  0  0  0  0  0  0  0  0  0  0
    8.1000   -0.1093    7.7529 C   0  0  0  0  0  0  0  0  0  0  0  0
   -6.3912   10.2913   -2.3183 C   0  0  0  0  0  0  0  0  0  0  0  0
   -5.9916    4.9691   -3.1167 C   0  0  0  0  0  0  0  0  0  0  0  0
   -4.9541    4.1151   -3.5551 C   0  0  0  0  0  0  0  0  0  0  0  0
   -4.9417    2.8862   -2.9211 C   0  0  0  0  0  0  0  0  0  0  0  0
   -6.3010    2.7914   -1.8168 S   0  0  0  0  0  0  0  0  0  0  0  0
    6.1806   -3.1977    1.2314 S   0  0  0  0  0  0  0  0  0  0  0  0
    7.0123   -3.5550    2.7326 C   0  0  0  0  0  0  0  0  0  0  0  0
    6.1625   -4.2315    3.5675 C   0  0  0  0  0  0  0  0  0  0  0  0
    4.8612   -4.4315    3.0555 C   0  0  0  0  0  0  0  0  0  0  0  0
   -5.9102    6.2293   -3.8732 C   0  0  0  0  0  0  0  0  0  0  0  0
   -4.8077    6.0752   -4.6928 N   0  0  0  0  0  0  0  0  0  0  0  0
   -4.1743    4.8399   -4.5645 C   0  0  0  0  0  0  0  0  0  0  0  0
   -4.3627    7.0919   -5.6213 C   0  0  0  0  0  0  0  0  0  0  0  0
   -5.1324    7.0182   -6.9352 C   0  0  0  0  0  0  0  0  0  0  0  0
    6.2479   -4.8657    4.8940 C   0  0  0  0  0  0  0  0  0  0  0  0
    4.9809   -5.3769    5.1171 N   0  0  0  0  0  0  0  0  0  0  0  0
    4.0862   -5.1506    4.0744 C   0  0  0  0  0  0  0  0  0  0  0  0
    4.5992   -6.0257    6.3529 C   0  0  0  0  0  0  0  0  0  0  0  0
    4.0541   -5.0132    7.3540 C   0  0  0  0  0  0  0  0  0  0  0  0
   -3.1938    4.5178   -5.1927 O   0  0  0  0  0  0  0  0  0  0  0  0
   -6.6187    7.2091   -3.8426 O   0  0  0  0  0  0  0  0  0  0  0  0
    7.1850   -4.9782    5.6479 O   0  0  0  0  0  0  0  0  0  0  0  0
    2.9342   -5.5158    4.0813 O   0  0  0  0  0  0  0  0  0  0  0  0
   -2.5905   -2.1890   -0.4539 H   0  0  0  0  0  0  0  0  0  0  0  0
    1.7252   -1.1717   -2.7985 H   0  0  0  0  0  0  0  0  0  0  0  0
   -2.5623    2.6147   -4.4259 H   0  0  0  0  0  0  0  0  0  0  0  0
    2.0196   -4.6940    2.3296 H   0  0  0  0  0  0  0  0  0  0  0  0
   -8.7809    4.3979   -1.2895 H   0  0  0  0  0  0  0  0  0  0  0  0
    9.0482   -3.2186    2.1202 H   0  0  0  0  0  0  0  0  0  0  0  0
   -5.3223    9.1790   -0.8093 H   0  0  0  0  0  0  0  0  0  0  0  0
   -6.4802   10.3598   -0.1457 H   0  0  0  0  0  0  0  0  0  0  0  0
   -0.1277    2.2202   -5.5587 H   0  0  0  0  0  0  0  0  0  0  0  0
    1.2673    4.2274   -5.3961 H   0  0  0  0  0  0  0  0  0  0  0  0
    2.3443    3.1567   -1.4113 H   0  0  0  0  0  0  0  0  0  0  0  0
    0.9400    1.1585   -1.5622 H   0  0  0  0  0  0  0  0  0  0  0  0
    1.6741   -0.1624   -5.0989 H   0  0  0  0  0  0  0  0  0  0  0  0
    1.9261   -1.3085   -7.2494 H   0  0  0  0  0  0  0  0  0  0  0  0
   -2.3023   -1.8029   -7.4837 H   0  0  0  0  0  0  0  0  0  0  0  0
   -2.5590   -0.6737   -5.3292 H   0  0  0  0  0  0  0  0  0  0  0  0
   -1.1860   -4.6172   -1.9200 H   0  0  0  0  0  0  0  0  0  0  0  0
   -1.8192   -6.9196   -2.4511 H   0  0  0  0  0  0  0  0  0  0  0  0
   -0.9171   -8.1028    1.5454 H   0  0  0  0  0  0  0  0  0  0  0  0
   -0.2893   -5.7958    2.0863 H   0  0  0  0  0  0  0  0  0  0  0  0
   -2.7957   -4.1553    1.3064 H   0  0  0  0  0  0  0  0  0  0  0  0
   -3.9597   -3.3310    3.2994 H   0  0  0  0  0  0  0  0  0  0  0  0
   -0.4447   -1.2291    4.4858 H   0  0  0  0  0  0  0  0  0  0  0  0
    0.7176   -2.0358    2.4888 H   0  0  0  0  0  0  0  0  0  0  0  0
    8.8017   -2.0339    8.4700 H   0  0  0  0  0  0  0  0  0  0  0  0
    7.2275   -2.0758    7.6383 H   0  0  0  0  0  0  0  0  0  0  0  0
   -2.5340   -9.1157   -1.6088 H   0  0  0  0  0  0  0  0  0  0  0  0
   -2.1562   -9.6069    0.0488 H   0  0  0  0  0  0  0  0  0  0  0  0
   -2.3048   -1.4970    6.0474 H   0  0  0  0  0  0  0  0  0  0  0  0
   -3.7373   -2.4298    5.5906 H   0  0  0  0  0  0  0  0  0  0  0  0
   -0.8801   -2.1798   -9.4631 H   0  0  0  0  0  0  0  0  0  0  0  0
    0.8775   -2.0140   -9.3459 H   0  0  0  0  0  0  0  0  0  0  0  0
    3.5526    4.9326   -2.5735 H   0  0  0  0  0  0  0  0  0  0  0  0
    3.1745    5.3259   -4.2570 H   0  0  0  0  0  0  0  0  0  0  0  0
    2.4577    7.1616   -2.7464 H   0  0  0  0  0  0  0  0  0  0  0  0
    1.4382    6.0356   -1.8430 H   0  0  0  0  0  0  0  0  0  0  0  0
    1.0530    6.4179   -3.5200 H   0  0  0  0  0  0  0  0  0  0  0  0
   -0.7753   -4.2506   -8.0750 H   0  0  0  0  0  0  0  0  0  0  0  0
    0.9762   -4.0855   -7.9563 H   0  0  0  0  0  0  0  0  0  0  0  0
    0.2249   -4.4051   -9.5234 H   0  0  0  0  0  0  0  0  0  0  0  0
   -0.7749  -10.8719   -1.5842 H   0  0  0  0  0  0  0  0  0  0  0  0
    0.2487   -9.8454   -0.5737 H   0  0  0  0  0  0  0  0  0  0  0  0
   -0.1283   -9.3576   -2.2257 H   0  0  0  0  0  0  0  0  0  0  0  0
   -3.0390    0.3577    4.5466 H   0  0  0  0  0  0  0  0  0  0  0  0
   -4.2749   -0.0092    5.7552 H   0  0  0  0  0  0  0  0  0  0  0  0
   -4.4660   -0.5723    4.0913 H   0  0  0  0  0  0  0  0  0  0  0  0
    9.0779    0.3662    7.7388 H   0  0  0  0  0  0  0  0  0  0  0  0
    7.6125    0.1426    8.6898 H   0  0  0  0  0  0  0  0  0  0  0  0
    7.5020    0.2789    6.9315 H   0  0  0  0  0  0  0  0  0  0  0  0
   -7.3287   10.8288   -2.4386 H   0  0  0  0  0  0  0  0  0  0  0  0
   -5.5741   10.9967   -2.4359 H   0  0  0  0  0  0  0  0  0  0  0  0
   -6.3204    9.5278   -3.0905 H   0  0  0  0  0  0  0  0  0  0  0  0
   -3.2965    6.9255   -5.7918 H   0  0  0  0  0  0  0  0  0  0  0  0
   -4.5148    8.0643   -5.1463 H   0  0  0  0  0  0  0  0  0  0  0  0
   -4.7794    7.7911   -7.6121 H   0  0  0  0  0  0  0  0  0  0  0  0
   -6.1946    7.1680   -6.7562 H   0  0  0  0  0  0  0  0  0  0  0  0
   -4.9853    6.0478   -7.4038 H   0  0  0  0  0  0  0  0  0  0  0  0
    5.4906   -6.5162    6.7509 H   0  0  0  0  0  0  0  0  0  0  0  0
    3.8387   -6.7724    6.1122 H   0  0  0  0  0  0  0  0  0  0  0  0
    3.8034   -5.5120    8.2858 H   0  0  0  0  0  0  0  0  0  0  0  0
    3.1601   -4.5381    6.9570 H   0  0  0  0  0  0  0  0  0  0  0  0
    4.8003   -4.2474    7.5531 H   0  0  0  0  0  0  0  0  0  0  0  0
  1  2  1  0  0  0  0
  2  3  2  0  0  0  0
  3  4  1  0  0  0  0
  4  5  2  0  0  0  0
  5  6  1  0  0  0  0
  6  1  2  0  0  0  0
  1  7  1  0  0  0  0
  7  8  1  0  0  0  0
  8  9  2  0  0  0  0
  9  2  1  0  0  0  0
  8 10  1  0  0  0  0
 10 11  2  0  0  0  0
 11 12  1  0  0  0  0
 12  9  1  0  0  0  0
  4 13  1  0  0  0  0
 13 14  1  0  0  0  0
 14 15  2  0  0  0  0
 15  5  1  0  0  0  0
 14 16  1  0  0  0  0
 16 17  2  0  0  0  0
 17 18  1  0  0  0  0
 18 15  1  0  0  0  0
 17 19  1  0  0  0  0
 13 20  1  0  0  0  0
 13 21  1  0  0  0  0
  7 22  1  0  0  0  0
  7 23  1  0  0  0  0
 24 25  1  0  0  0  0
 25 26  2  0  0  0  0
 27 28  2  0  0  0  0
 28 29  1  0  0  0  0
 29 30  1  0  0  0  0
 30 31  1  0  0  0  0
 31 32  1  0  0  0  0
 32 28  1  0  0  0  0
 26 33  1  0  0  0  0
 33 34  1  0  0  0  0
 34 35  1  0  0  0  0
 35 36  1  0  0  0  0
 36 26  1  0  0  0  0
 34 37  1  0  0  0  0
 33 38  2  0  0  0  0
 35 39  2  0  0  0  0
 39 40  1  0  0  0  0
 39 41  1  0  0  0  0
 22 42  2  0  0  0  0
 42 43  1  0  0  0  0
 43 44  2  0  0  0  0
 44 45  1  0  0  0  0
 45 46  2  0  0  0  0
 46 22  1  0  0  0  0
 23 47  2  0  0  0  0
 47 48  1  0  0  0  0
 48 49  2  0  0  0  0
 49 50  1  0  0  0  0
 50 51  2  0  0  0  0
 51 23  1  0  0  0  0
 20 52  2  0  0  0  0
 52 53  1  0  0  0  0
 53 54  2  0  0  0  0
 54 55  1  0  0  0  0
 55 56  2  0  0  0  0
 56 20  1  0  0  0  0
 21 57  2  0  0  0  0
 57 58  1  0  0  0  0
 58 59  2  0  0  0  0
 59 60  1  0  0  0  0
 60 61  2  0  0  0  0
 61 21  1  0  0  0  0
 29 62  2  0  0  0  0
 30 63  1  0  0  0  0
 31 64  2  0  0  0  0
 64 65  1  0  0  0  0
 64 66  1  0  0  0  0
 40 67  3  0  0  0  0
 41 68  3  0  0  0  0
 66 69  3  0  0  0  0
 65 70  3  0  0  0  0
 54 71  1  0  0  0  0
 59 72  1  0  0  0  0
 49 73  1  0  0  0  0
 44 74  1  0  0  0  0
 74 75  1  0  0  0  0
 73 76  1  0  0  0  0
 71 77  1  0  0  0  0
 72 78  1  0  0  0  0
 63 79  1  0  0  0  0
 37 80  1  0  0  0  0
 24 81  2  0  0  0  0
 81 82  1  0  0  0  0
 82 83  2  0  0  0  0
 83 84  1  0  0  0  0
 84 24  1  0  0  0  0
 19 85  1  0  0  0  0
 85 86  1  0  0  0  0
 86 87  2  0  0  0  0
 87 88  1  0  0  0  0
 88 19  2  0  0  0  0
 86 27  1  0  0  0  0
 83 11  1  0  0  0  0
 81 89  1  0  0  0  0
 89 90  1  0  0  0  0
 90 91  1  0  0  0  0
 91 82  1  0  0  0  0
 90 92  1  0  0  0  0
 92 93  1  0  0  0  0
 87 94  1  0  0  0  0
 94 95  1  0  0  0  0
 95 96  1  0  0  0  0
 96 88  1  0  0  0  0
 95 97  1  0  0  0  0
 97 98  1  0  0  0  0
 91 99  2  0  0  0  0
 89100  2  0  0  0  0
 94101  2  0  0  0  0
 96102  2  0  0  0  0
  3103  1  0  0  0  0
  6104  1  0  0  0  0
 10105  1  0  0  0  0
 16106  1  0  0  0  0
 25107  1  0  0  0  0
 27108  1  0  0  0  0
 37109  1  0  0  0  0
 37110  1  0  0  0  0
 42111  1  0  0  0  0
 43112  1  0  0  0  0
 45113  1  0  0  0  0
 46114  1  0  0  0  0
 47115  1  0  0  0  0
 48116  1  0  0  0  0
 50117  1  0  0  0  0
 51118  1  0  0  0  0
 52119  1  0  0  0  0
 53120  1  0  0  0  0
 55121  1  0  0  0  0
 56122  1  0  0  0  0
 57123  1  0  0  0  0
 58124  1  0  0  0  0
 60125  1  0  0  0  0
 61126  1  0  0  0  0
 63127  1  0  0  0  0
 63128  1  0  0  0  0
 71129  1  0  0  0  0
 71130  1  0  0  0  0
 72131  1  0  0  0  0
 72132  1  0  0  0  0
 73133  1  0  0  0  0
 73134  1  0  0  0  0
 74135  1  0  0  0  0
 74136  1  0  0  0  0
 75137  1  0  0  0  0
 75138  1  0  0  0  0
 75139  1  0  0  0  0
 76140  1  0  0  0  0
 76141  1  0  0  0  0
 76142  1  0  0  0  0
 77143  1  0  0  0  0
 77144  1  0  0  0  0
 77145  1  0  0  0  0
 78146  1  0  0  0  0
 78147  1  0  0  0  0
 78148  1  0  0  0  0
 79149  1  0  0  0  0
 79150  1  0  0  0  0
 79151  1  0  0  0  0
 80152  1  0  0  0  0
 80153  1  0  0  0  0
 80154  1  0  0  0  0
 92155  1  0  0  0  0
 92156  1  0  0  0  0
 93157  1  0  0  0  0
 93158  1  0  0  0  0
 93159  1  0  0  0  0
 97160  1  0  0  0  0
 97161  1  0  0  0  0
 98162  1  0  0  0  0
 98163  1  0  0  0  0
 98164  1  0  0  0  0
M  END
