TPIC.sdf
  xtb     12222116053D
 energy: -231.733122771146 gnorm: 0.000900981109 xtb: 6.4.1 (unknown)
145159  0     0  0            999 V2000
   -2.3863    1.0726    7.0636 C   0  0  0  0  0  0  0  0  0  0  0  0
   -3.4269    1.5887    7.7935 C   0  0  0  0  0  0  0  0  0  0  0  0
   -3.4709    1.5570    9.2458 C   0  0  0  0  0  0  0  0  0  0  0  0
   -4.8106    1.9685    9.6615 C   0  0  0  0  0  0  0  0  0  0  0  0
   -5.5411    2.3327    8.5192 C   0  0  0  0  0  0  0  0  0  0  0  0
   -4.7077    2.1536    7.3130 C   0  0  0  0  0  0  0  0  0  0  0  0
   -5.4090    2.0459   10.9096 C   0  0  0  0  0  0  0  0  0  0  0  0
   -6.7227    2.4898   10.9884 C   0  0  0  0  0  0  0  0  0  0  0  0
   -7.4348    2.8543    9.8549 C   0  0  0  0  0  0  0  0  0  0  0  0
   -6.8460    2.7775    8.6008 C   0  0  0  0  0  0  0  0  0  0  0  0
   -5.0493    2.4238    6.1789 O   0  0  0  0  0  0  0  0  0  0  0  0
   -2.4420    1.2652   10.1038 C   0  0  0  0  0  0  0  0  0  0  0  0
   -1.1126    0.9584    9.7429 C   0  0  0  0  0  0  0  0  0  0  0  0
   -2.5585    1.2714   11.5101 C   0  0  0  0  0  0  0  0  0  0  0  0
   -0.0049    0.7191    9.5525 N   0  0  0  0  0  0  0  0  0  0  0  0
   -2.5764    1.2479   12.6580 N   0  0  0  0  0  0  0  0  0  0  0  0
   -2.1491    1.0172    5.6809 C   0  0  0  0  0  0  0  0  0  0  0  0
   -0.6991    0.1320    5.1823 S   0  0  0  0  0  0  0  0  0  0  0  0
   -1.0361    0.4766    3.5459 C   0  0  0  0  0  0  0  0  0  0  0  0
   -2.1924    1.2400    3.3884 C   0  0  0  0  0  0  0  0  0  0  0  0
   -2.8228    1.5424    4.5813 C   0  0  0  0  0  0  0  0  0  0  0  0
    4.2760   -2.2774   -8.1485 C   0  0  0  0  0  0  0  0  0  0  0  0
    3.8959   -1.9995   -9.4385 C   0  0  0  0  0  0  0  0  0  0  0  0
    4.5720   -2.4538  -10.6356 C   0  0  0  0  0  0  0  0  0  0  0  0
    3.8389   -1.9163  -11.7832 C   0  0  0  0  0  0  0  0  0  0  0  0
    2.7490   -1.1636  -11.3122 C   0  0  0  0  0  0  0  0  0  0  0  0
    2.7398   -1.1887   -9.8373 C   0  0  0  0  0  0  0  0  0  0  0  0
    4.0475   -2.0345  -13.1481 C   0  0  0  0  0  0  0  0  0  0  0  0
    3.1640   -1.3993  -14.0120 C   0  0  0  0  0  0  0  0  0  0  0  0
    2.0915   -0.6587  -13.5378 C   0  0  0  0  0  0  0  0  0  0  0  0
    1.8728   -0.5332  -12.1727 C   0  0  0  0  0  0  0  0  0  0  0  0
    1.9299   -0.6400   -9.1116 O   0  0  0  0  0  0  0  0  0  0  0  0
    5.6865   -3.2503  -10.7165 C   0  0  0  0  0  0  0  0  0  0  0  0
    6.2842   -3.6586  -11.9271 C   0  0  0  0  0  0  0  0  0  0  0  0
    6.4007   -3.7880   -9.6264 C   0  0  0  0  0  0  0  0  0  0  0  0
    6.8237   -4.0340  -12.8690 N   0  0  0  0  0  0  0  0  0  0  0  0
    7.0422   -4.2617   -8.7984 N   0  0  0  0  0  0  0  0  0  0  0  0
   -0.4478    0.1825    2.2797 C   0  0  0  0  0  0  0  0  0  0  0  0
   -1.2739    0.7711    1.2931 C   0  0  0  0  0  0  0  0  0  0  0  0
   -2.4574    1.4839    1.9248 C   0  0  0  0  0  0  0  0  0  0  0  0
    0.7008   -0.5349    1.9497 C   0  0  0  0  0  0  0  0  0  0  0  0
    1.0070   -0.6516    0.6155 C   0  0  0  0  0  0  0  0  0  0  0  0
    0.1926   -0.0459   -0.3684 C   0  0  0  0  0  0  0  0  0  0  0  0
   -0.9526    0.6746   -0.0405 C   0  0  0  0  0  0  0  0  0  0  0  0
    2.1634   -1.4109   -0.0297 C   0  0  0  0  0  0  0  0  0  0  0  0
    1.9361   -1.0911   -1.4924 C   0  0  0  0  0  0  0  0  0  0  0  0
    0.7860   -0.3274   -1.6354 C   0  0  0  0  0  0  0  0  0  0  0  0
    2.5160   -1.3598   -2.7375 C   0  0  0  0  0  0  0  0  0  0  0  0
    1.7546   -0.7992   -3.8003 C   0  0  0  0  0  0  0  0  0  0  0  0
    0.3593    0.0753   -3.2629 S   0  0  0  0  0  0  0  0  0  0  0  0
    3.6013   -2.0137   -3.2586 N   0  0  0  0  0  0  0  0  0  0  0  0
    3.5252   -1.9041   -4.6241 C   0  0  0  0  0  0  0  0  0  0  0  0
    2.3827   -1.1440   -4.9928 C   0  0  0  0  0  0  0  0  0  0  0  0
    4.2591   -2.3350   -5.7112 C   0  0  0  0  0  0  0  0  0  0  0  0
    3.6973   -1.9202   -6.9250 C   0  0  0  0  0  0  0  0  0  0  0  0
    2.2299   -0.9645   -6.6971 S   0  0  0  0  0  0  0  0  0  0  0  0
   -2.4037    2.9468    1.5253 C   0  0  0  0  0  0  0  0  0  0  0  0
    4.6515   -2.7060   -2.5562 C   0  0  0  0  0  0  0  0  0  0  0  0
    4.3583   -4.1970   -2.4059 C   0  0  0  0  0  0  0  0  0  0  0  0
   -3.8008    0.8580    1.5930 C   0  0  0  0  0  0  0  0  0  0  0  0
    1.9416   -2.8783    0.2925 C   0  0  0  0  0  0  0  0  0  0  0  0
    3.5068   -0.8610    0.4137 C   0  0  0  0  0  0  0  0  0  0  0  0
   -3.9049   -0.3964    1.0110 C   0  0  0  0  0  0  0  0  0  0  0  0
   -5.1485   -0.9528    0.7690 C   0  0  0  0  0  0  0  0  0  0  0  0
   -6.3125   -0.2803    1.1126 C   0  0  0  0  0  0  0  0  0  0  0  0
   -6.2008    0.9709    1.7066 C   0  0  0  0  0  0  0  0  0  0  0  0
   -4.9630    1.5328    1.9483 C   0  0  0  0  0  0  0  0  0  0  0  0
   -1.7122    3.8743    2.2913 C   0  0  0  0  0  0  0  0  0  0  0  0
   -1.6368    5.1962    1.8926 C   0  0  0  0  0  0  0  0  0  0  0  0
   -2.2415    5.6238    0.7186 C   0  0  0  0  0  0  0  0  0  0  0  0
   -2.9196    4.6881   -0.0522 C   0  0  0  0  0  0  0  0  0  0  0  0
   -3.0001    3.3665    0.3429 C   0  0  0  0  0  0  0  0  0  0  0  0
    3.6657    0.5179    0.4984 C   0  0  0  0  0  0  0  0  0  0  0  0
    4.8825    1.0684    0.8510 C   0  0  0  0  0  0  0  0  0  0  0  0
    5.9800    0.2607    1.1212 C   0  0  0  0  0  0  0  0  0  0  0  0
    5.8202   -1.1148    1.0306 C   0  0  0  0  0  0  0  0  0  0  0  0
    4.6032   -1.6719    0.6779 C   0  0  0  0  0  0  0  0  0  0  0  0
    1.3299   -3.7310   -0.6172 C   0  0  0  0  0  0  0  0  0  0  0  0
    1.0825   -5.0531   -0.2914 C   0  0  0  0  0  0  0  0  0  0  0  0
    1.4324   -5.5608    0.9514 C   0  0  0  0  0  0  0  0  0  0  0  0
    2.0232   -4.7003    1.8680 C   0  0  0  0  0  0  0  0  0  0  0  0
    2.2694   -3.3791    1.5481 C   0  0  0  0  0  0  0  0  0  0  0  0
   -7.6599   -0.8681    0.8067 C   0  0  0  0  0  0  0  0  0  0  0  0
   -8.1268   -0.4361   -0.5849 C   0  0  0  0  0  0  0  0  0  0  0  0
   -2.1216    7.0504    0.2662 C   0  0  0  0  0  0  0  0  0  0  0  0
   -0.8848    7.2279   -0.6170 C   0  0  0  0  0  0  0  0  0  0  0  0
    1.1269   -6.9838    1.3178 C   0  0  0  0  0  0  0  0  0  0  0  0
   -0.2551   -7.0815    1.9672 C   0  0  0  0  0  0  0  0  0  0  0  0
    7.2902    0.8557    1.5479 C   0  0  0  0  0  0  0  0  0  0  0  0
    7.3548    0.9662    3.0727 C   0  0  0  0  0  0  0  0  0  0  0  0
   -1.6015    0.5974    7.6411 H   0  0  0  0  0  0  0  0  0  0  0  0
   -4.8834    1.7666   11.8077 H   0  0  0  0  0  0  0  0  0  0  0  0
   -7.1969    2.5510   11.9565 H   0  0  0  0  0  0  0  0  0  0  0  0
   -8.4539    3.1978    9.9511 H   0  0  0  0  0  0  0  0  0  0  0  0
   -7.3800    3.0530    7.7043 H   0  0  0  0  0  0  0  0  0  0  0  0
   -3.7275    2.1117    4.6831 H   0  0  0  0  0  0  0  0  0  0  0  0
    5.1696   -2.8782   -8.0291 H   0  0  0  0  0  0  0  0  0  0  0  0
    4.8715   -2.6025  -13.5476 H   0  0  0  0  0  0  0  0  0  0  0  0
    3.3200   -1.4872  -15.0768 H   0  0  0  0  0  0  0  0  0  0  0  0
    1.4233   -0.1774  -14.2361 H   0  0  0  0  0  0  0  0  0  0  0  0
    1.0454    0.0377  -11.7799 H   0  0  0  0  0  0  0  0  0  0  0  0
    1.3114   -0.9707    2.7244 H   0  0  0  0  0  0  0  0  0  0  0  0
   -1.5581    1.1279   -0.8099 H   0  0  0  0  0  0  0  0  0  0  0  0
    5.1555   -2.9277   -5.6718 H   0  0  0  0  0  0  0  0  0  0  0  0
    4.7727   -2.2402   -1.5765 H   0  0  0  0  0  0  0  0  0  0  0  0
    5.5767   -2.5658   -3.1230 H   0  0  0  0  0  0  0  0  0  0  0  0
    3.4648   -4.3515   -1.8055 H   0  0  0  0  0  0  0  0  0  0  0  0
    5.1953   -4.6881   -1.9175 H   0  0  0  0  0  0  0  0  0  0  0  0
    4.2075   -4.6535   -3.3814 H   0  0  0  0  0  0  0  0  0  0  0  0
   -3.0144   -0.9462    0.7428 H   0  0  0  0  0  0  0  0  0  0  0  0
   -5.2121   -1.9296    0.3104 H   0  0  0  0  0  0  0  0  0  0  0  0
   -7.0939    1.5092    1.9893 H   0  0  0  0  0  0  0  0  0  0  0  0
   -4.8959    2.5057    2.4121 H   0  0  0  0  0  0  0  0  0  0  0  0
   -1.2327    3.5671    3.2094 H   0  0  0  0  0  0  0  0  0  0  0  0
   -1.1019    5.9068    2.5066 H   0  0  0  0  0  0  0  0  0  0  0  0
   -3.3948    4.9989   -0.9717 H   0  0  0  0  0  0  0  0  0  0  0  0
   -3.5435    2.6575   -0.2648 H   0  0  0  0  0  0  0  0  0  0  0  0
    2.8264    1.1650    0.2868 H   0  0  0  0  0  0  0  0  0  0  0  0
    4.9823    2.1425    0.9135 H   0  0  0  0  0  0  0  0  0  0  0  0
    6.6599   -1.7642    1.2338 H   0  0  0  0  0  0  0  0  0  0  0  0
    4.5129   -2.7473    0.6221 H   0  0  0  0  0  0  0  0  0  0  0  0
    1.0359   -3.3656   -1.5903 H   0  0  0  0  0  0  0  0  0  0  0  0
    0.6113   -5.6987   -1.0190 H   0  0  0  0  0  0  0  0  0  0  0  0
    2.2944   -5.0691    2.8469 H   0  0  0  0  0  0  0  0  0  0  0  0
    2.7304   -2.7351    2.2819 H   0  0  0  0  0  0  0  0  0  0  0  0
   -7.6065   -1.9580    0.8461 H   0  0  0  0  0  0  0  0  0  0  0  0
   -8.3865   -0.5341    1.5499 H   0  0  0  0  0  0  0  0  0  0  0  0
   -7.4200   -0.7701   -1.3413 H   0  0  0  0  0  0  0  0  0  0  0  0
   -8.1990    0.6479   -0.6395 H   0  0  0  0  0  0  0  0  0  0  0  0
   -9.1024   -0.8613   -0.8088 H   0  0  0  0  0  0  0  0  0  0  0  0
   -2.0419    7.7087    1.1335 H   0  0  0  0  0  0  0  0  0  0  0  0
   -3.0110    7.3358   -0.2992 H   0  0  0  0  0  0  0  0  0  0  0  0
    0.0144    6.9605   -0.0663 H   0  0  0  0  0  0  0  0  0  0  0  0
   -0.9510    6.5877   -1.4938 H   0  0  0  0  0  0  0  0  0  0  0  0
   -0.7968    8.2607   -0.9461 H   0  0  0  0  0  0  0  0  0  0  0  0
    1.1496   -7.6099    0.4235 H   0  0  0  0  0  0  0  0  0  0  0  0
    1.8793   -7.3564    2.0158 H   0  0  0  0  0  0  0  0  0  0  0  0
   -0.2942   -6.4724    2.8675 H   0  0  0  0  0  0  0  0  0  0  0  0
   -1.0212   -6.7264    1.2815 H   0  0  0  0  0  0  0  0  0  0  0  0
   -0.4777   -8.1117    2.2343 H   0  0  0  0  0  0  0  0  0  0  0  0
    7.4056    1.8490    1.1098 H   0  0  0  0  0  0  0  0  0  0  0  0
    8.1131    0.2292    1.1977 H   0  0  0  0  0  0  0  0  0  0  0  0
    8.3031    1.3988    3.3823 H   0  0  0  0  0  0  0  0  0  0  0  0
    7.2560   -0.0166    3.5283 H   0  0  0  0  0  0  0  0  0  0  0  0
    6.5483    1.5962    3.4410 H   0  0  0  0  0  0  0  0  0  0  0  0
  1  2  2  0  0  0  0
  2  3  1  0  0  0  0
  3  4  1  0  0  0  0
  4  5  2  0  0  0  0
  5  6  1  0  0  0  0
  6  2  1  0  0  0  0
  4  7  1  0  0  0  0
  7  8  2  0  0  0  0
  8  9  1  0  0  0  0
  9 10  2  0  0  0  0
 10  5  1  0  0  0  0
  6 11  2  0  0  0  0
  3 12  2  0  0  0  0
 12 13  1  0  0  0  0
 12 14  1  0  0  0  0
 13 15  3  0  0  0  0
 14 16  3  0  0  0  0
  1 17  1  0  0  0  0
 17 18  1  0  0  0  0
 18 19  1  0  0  0  0
 19 20  2  0  0  0  0
 20 21  1  0  0  0  0
 21 17  2  0  0  0  0
 22 23  2  0  0  0  0
 23 24  1  0  0  0  0
 24 25  1  0  0  0  0
 25 26  2  0  0  0  0
 26 27  1  0  0  0  0
 27 23  1  0  0  0  0
 25 28  1  0  0  0  0
 28 29  2  0  0  0  0
 29 30  1  0  0  0  0
 30 31  2  0  0  0  0
 31 26  1  0  0  0  0
 27 32  2  0  0  0  0
 24 33  2  0  0  0  0
 33 34  1  0  0  0  0
 33 35  1  0  0  0  0
 34 36  3  0  0  0  0
 35 37  3  0  0  0  0
 19 38  1  0  0  0  0
 38 39  2  0  0  0  0
 39 40  1  0  0  0  0
 40 20  1  0  0  0  0
 38 41  1  0  0  0  0
 41 42  2  0  0  0  0
 42 43  1  0  0  0  0
 43 44  2  0  0  0  0
 44 39  1  0  0  0  0
 42 45  1  0  0  0  0
 45 46  1  0  0  0  0
 46 47  2  0  0  0  0
 47 43  1  0  0  0  0
 46 48  1  0  0  0  0
 48 49  2  0  0  0  0
 49 50  1  0  0  0  0
 50 47  1  0  0  0  0
 48 51  1  0  0  0  0
 51 52  1  0  0  0  0
 52 53  2  0  0  0  0
 53 49  1  0  0  0  0
 52 54  1  0  0  0  0
 54 55  2  0  0  0  0
 55 56  1  0  0  0  0
 56 53  1  0  0  0  0
 55 22  1  0  0  0  0
 40 57  1  0  0  0  0
 51 58  1  0  0  0  0
 58 59  1  0  0  0  0
 40 60  1  0  0  0  0
 45 61  1  0  0  0  0
 45 62  1  0  0  0  0
 60 63  2  0  0  0  0
 63 64  1  0  0  0  0
 64 65  2  0  0  0  0
 65 66  1  0  0  0  0
 66 67  2  0  0  0  0
 67 60  1  0  0  0  0
 57 68  2  0  0  0  0
 68 69  1  0  0  0  0
 69 70  2  0  0  0  0
 70 71  1  0  0  0  0
 71 72  2  0  0  0  0
 72 57  1  0  0  0  0
 62 73  2  0  0  0  0
 73 74  1  0  0  0  0
 74 75  2  0  0  0  0
 75 76  1  0  0  0  0
 76 77  2  0  0  0  0
 77 62  1  0  0  0  0
 61 78  2  0  0  0  0
 78 79  1  0  0  0  0
 79 80  2  0  0  0  0
 80 81  1  0  0  0  0
 81 82  2  0  0  0  0
 82 61  1  0  0  0  0
 65 83  1  0  0  0  0
 83 84  1  0  0  0  0
 70 85  1  0  0  0  0
 85 86  1  0  0  0  0
 80 87  1  0  0  0  0
 87 88  1  0  0  0  0
 75 89  1  0  0  0  0
 89 90  1  0  0  0  0
  1 91  1  0  0  0  0
  7 92  1  0  0  0  0
  8 93  1  0  0  0  0
  9 94  1  0  0  0  0
 10 95  1  0  0  0  0
 21 96  1  0  0  0  0
 22 97  1  0  0  0  0
 28 98  1  0  0  0  0
 29 99  1  0  0  0  0
 30100  1  0  0  0  0
 31101  1  0  0  0  0
 41102  1  0  0  0  0
 44103  1  0  0  0  0
 54104  1  0  0  0  0
 58105  1  0  0  0  0
 58106  1  0  0  0  0
 59107  1  0  0  0  0
 59108  1  0  0  0  0
 59109  1  0  0  0  0
 63110  1  0  0  0  0
 64111  1  0  0  0  0
 66112  1  0  0  0  0
 67113  1  0  0  0  0
 68114  1  0  0  0  0
 69115  1  0  0  0  0
 71116  1  0  0  0  0
 72117  1  0  0  0  0
 73118  1  0  0  0  0
 74119  1  0  0  0  0
 76120  1  0  0  0  0
 77121  1  0  0  0  0
 78122  1  0  0  0  0
 79123  1  0  0  0  0
 81124  1  0  0  0  0
 82125  1  0  0  0  0
 83126  1  0  0  0  0
 83127  1  0  0  0  0
 84128  1  0  0  0  0
 84129  1  0  0  0  0
 84130  1  0  0  0  0
 85131  1  0  0  0  0
 85132  1  0  0  0  0
 86133  1  0  0  0  0
 86134  1  0  0  0  0
 86135  1  0  0  0  0
 87136  1  0  0  0  0
 87137  1  0  0  0  0
 88138  1  0  0  0  0
 88139  1  0  0  0  0
 88140  1  0  0  0  0
 89141  1  0  0  0  0
 89142  1  0  0  0  0
 90143  1  0  0  0  0
 90144  1  0  0  0  0
 90145  1  0  0  0  0
M  END
