TPQx-6F.sdf
  xtb     12222116103D
 energy: -240.047414120096 gnorm: 0.000469618431 xtb: 6.4.1 (unknown)
126139  0     0  0            999 V2000
   -1.7094    3.5091   -7.4115 C   0  0  0  0  0  0  0  0  0  0  0  0
   -0.8185    3.1665   -6.6541 O   0  0  0  0  0  0  0  0  0  0  0  0
   -1.5263    4.1206   -8.7446 C   0  0  0  0  0  0  0  0  0  0  0  0
   -0.3469    4.4142   -9.3990 C   0  0  0  0  0  0  0  0  0  0  0  0
   -0.4367    4.9919  -10.6553 C   0  0  0  0  0  0  0  0  0  0  0  0
    0.6810    5.2932  -11.3276 F   0  0  0  0  0  0  0  0  0  0  0  0
   -1.6807    5.2616  -11.2254 C   0  0  0  0  0  0  0  0  0  0  0  0
   -1.7382    5.8192  -12.4400 F   0  0  0  0  0  0  0  0  0  0  0  0
   -2.8654    4.9667  -10.5660 C   0  0  0  0  0  0  0  0  0  0  0  0
   -2.7844    4.3887   -9.3092 C   0  0  0  0  0  0  0  0  0  0  0  0
   -3.8226    3.9633   -8.3676 C   0  0  0  0  0  0  0  0  0  0  0  0
   -5.1722    4.0909   -8.5769 C   0  0  0  0  0  0  0  0  0  0  0  0
   -5.7425    4.6504   -9.7402 C   0  0  0  0  0  0  0  0  0  0  0  0
   -6.2710    5.0955  -10.6567 N   0  0  0  0  0  0  0  0  0  0  0  0
   -6.1883    3.6971   -7.6813 C   0  0  0  0  0  0  0  0  0  0  0  0
   -7.0744    3.4046   -7.0105 N   0  0  0  0  0  0  0  0  0  0  0  0
   -3.1538    3.4128   -7.2072 C   0  0  0  0  0  0  0  0  0  0  0  0
   -3.7864    2.8818   -6.1054 C   0  0  0  0  0  0  0  0  0  0  0  0
   -3.2757    2.3316   -4.9296 C   0  0  0  0  0  0  0  0  0  0  0  0
   -1.5592    2.1993   -4.5326 S   0  0  0  0  0  0  0  0  0  0  0  0
   -1.9555    1.4724   -3.0232 C   0  0  0  0  0  0  0  0  0  0  0  0
   -3.3460    1.3333   -2.8491 C   0  0  0  0  0  0  0  0  0  0  0  0
   -4.0988    1.8176   -3.9077 C   0  0  0  0  0  0  0  0  0  0  0  0
   -5.5890    1.7302   -3.9468 C   0  0  0  0  0  0  0  0  0  0  0  0
   -6.0393    0.4796   -4.7075 C   0  0  0  0  0  0  0  0  0  0  0  0
   -3.7918    0.5845   -1.3265 S   0  0  0  0  0  0  0  0  0  0  0  0
   -2.1148    0.4618   -0.9336 C   0  0  0  0  0  0  0  0  0  0  0  0
   -1.2591    0.9689   -1.9237 C   0  0  0  0  0  0  0  0  0  0  0  0
    0.0501    0.8242   -1.5318 N   0  0  0  0  0  0  0  0  0  0  0  0
    1.0782    1.7010   -2.0565 C   0  0  0  0  0  0  0  0  0  0  0  0
    0.7319    3.1689   -1.8103 C   0  0  0  0  0  0  0  0  0  0  0  0
    0.0359    0.2073   -0.2983 C   0  0  0  0  0  0  0  0  0  0  0  0
   -1.3079    0.0080    0.1212 C   0  0  0  0  0  0  0  0  0  0  0  0
   -1.6359   -0.4820    1.4111 C   0  0  0  0  0  0  0  0  0  0  0  0
   -2.8941   -0.7348    1.7594 N   0  0  0  0  0  0  0  0  0  0  0  0
   -3.1521   -1.1151    2.9999 C   0  0  0  0  0  0  0  0  0  0  0  0
   -4.5121   -1.5336    3.2365 C   0  0  0  0  0  0  0  0  0  0  0  0
   -2.1160   -1.1183    3.9824 C   0  0  0  0  0  0  0  0  0  0  0  0
   -2.3208   -1.2313    5.4086 C   0  0  0  0  0  0  0  0  0  0  0  0
   -0.8536   -0.9657    3.6138 N   0  0  0  0  0  0  0  0  0  0  0  0
   -0.5817   -0.7037    2.3380 C   0  0  0  0  0  0  0  0  0  0  0  0
    0.7543   -0.6244    1.8670 C   0  0  0  0  0  0  0  0  0  0  0  0
    1.0697   -0.2729    0.5276 C   0  0  0  0  0  0  0  0  0  0  0  0
    2.4278   -0.4157    0.3157 N   0  0  0  0  0  0  0  0  0  0  0  0
    3.0756   -0.7627   -0.9342 C   0  0  0  0  0  0  0  0  0  0  0  0
    3.3331   -2.2665   -1.0248 C   0  0  0  0  0  0  0  0  0  0  0  0
    2.9808   -0.7934    1.5157 C   0  0  0  0  0  0  0  0  0  0  0  0
    1.9797   -0.9152    2.4895 C   0  0  0  0  0  0  0  0  0  0  0  0
    2.5762   -1.3628    4.0459 S   0  0  0  0  0  0  0  0  0  0  0  0
    4.2003   -1.3932    3.3961 C   0  0  0  0  0  0  0  0  0  0  0  0
    4.2490   -1.0621    2.0330 C   0  0  0  0  0  0  0  0  0  0  0  0
    5.8695   -1.0254    1.4573 S   0  0  0  0  0  0  0  0  0  0  0  0
    6.4696   -1.5209    3.0437 C   0  0  0  0  0  0  0  0  0  0  0  0
    5.4464   -1.6548    3.9787 C   0  0  0  0  0  0  0  0  0  0  0  0
    5.6138   -1.8501    5.4507 C   0  0  0  0  0  0  0  0  0  0  0  0
    4.8829   -3.0927    5.9597 C   0  0  0  0  0  0  0  0  0  0  0  0
    7.8718   -1.5721    3.1910 C   0  0  0  0  0  0  0  0  0  0  0  0
    8.5818   -2.4253    3.9934 C   0  0  0  0  0  0  0  0  0  0  0  0
    9.9833   -2.3208    4.3309 C   0  0  0  0  0  0  0  0  0  0  0  0
   10.7819   -1.2209    4.1537 C   0  0  0  0  0  0  0  0  0  0  0  0
   12.1422   -1.1632    4.5215 C   0  0  0  0  0  0  0  0  0  0  0  0
   13.2526   -1.0620    4.7931 N   0  0  0  0  0  0  0  0  0  0  0  0
   10.3440    0.0036    3.6061 C   0  0  0  0  0  0  0  0  0  0  0  0
   10.0484    1.0333    3.1930 N   0  0  0  0  0  0  0  0  0  0  0  0
   10.3740   -3.5674    4.9870 C   0  0  0  0  0  0  0  0  0  0  0  0
   11.5912   -3.9870    5.5005 C   0  0  0  0  0  0  0  0  0  0  0  0
   11.6521   -5.2437    6.0839 C   0  0  0  0  0  0  0  0  0  0  0  0
   12.8163   -5.6692    6.5860 F   0  0  0  0  0  0  0  0  0  0  0  0
   10.5323   -6.0732    6.1565 C   0  0  0  0  0  0  0  0  0  0  0  0
   10.6366   -7.2776    6.7308 F   0  0  0  0  0  0  0  0  0  0  0  0
    9.3140   -5.6630    5.6394 C   0  0  0  0  0  0  0  0  0  0  0  0
    9.2517   -4.4092    5.0646 C   0  0  0  0  0  0  0  0  0  0  0  0
    8.0863   -3.7473    4.4346 C   0  0  0  0  0  0  0  0  0  0  0  0
    7.0051   -4.2475    4.2158 O   0  0  0  0  0  0  0  0  0  0  0  0
   -5.0142   -2.4977    4.0678 C   0  0  0  0  0  0  0  0  0  0  0  0
   -6.4015   -2.6466    3.9023 C   0  0  0  0  0  0  0  0  0  0  0  0
   -6.9715   -1.8271    2.9690 C   0  0  0  0  0  0  0  0  0  0  0  0
   -5.7538   -0.8444    2.2368 S   0  0  0  0  0  0  0  0  0  0  0  0
   -3.7640   -0.6933    6.2162 S   0  0  0  0  0  0  0  0  0  0  0  0
   -3.1098   -1.0659    7.7734 C   0  0  0  0  0  0  0  0  0  0  0  0
   -1.8452   -1.5624    7.6321 C   0  0  0  0  0  0  0  0  0  0  0  0
   -1.3792   -1.6512    6.3097 C   0  0  0  0  0  0  0  0  0  0  0  0
   -3.8730   -0.8244    9.0289 C   0  0  0  0  0  0  0  0  0  0  0  0
   -4.0520    0.6710    9.2963 C   0  0  0  0  0  0  0  0  0  0  0  0
   -8.4037   -1.7492    2.5670 C   0  0  0  0  0  0  0  0  0  0  0  0
   -8.5938   -2.1143    1.0946 C   0  0  0  0  0  0  0  0  0  0  0  0
   -7.1161   -3.5316    4.6218 F   0  0  0  0  0  0  0  0  0  0  0  0
   -1.1009   -1.9452    8.6849 F   0  0  0  0  0  0  0  0  0  0  0  0
    0.6123    4.2035   -8.9539 H   0  0  0  0  0  0  0  0  0  0  0  0
   -3.7995    5.1957  -11.0519 H   0  0  0  0  0  0  0  0  0  0  0  0
   -4.8670    2.8799   -6.1422 H   0  0  0  0  0  0  0  0  0  0  0  0
   -6.0242    2.6145   -4.4142 H   0  0  0  0  0  0  0  0  0  0  0  0
   -5.9532    1.6716   -2.9193 H   0  0  0  0  0  0  0  0  0  0  0  0
   -5.6864    0.5057   -5.7357 H   0  0  0  0  0  0  0  0  0  0  0  0
   -7.1240    0.4266   -4.7175 H   0  0  0  0  0  0  0  0  0  0  0  0
   -5.6491   -0.4152   -4.2283 H   0  0  0  0  0  0  0  0  0  0  0  0
    2.0200    1.4837   -1.5567 H   0  0  0  0  0  0  0  0  0  0  0  0
    1.1783    1.5203   -3.1312 H   0  0  0  0  0  0  0  0  0  0  0  0
    0.5801    3.3473   -0.7477 H   0  0  0  0  0  0  0  0  0  0  0  0
   -0.1682    3.4537   -2.3470 H   0  0  0  0  0  0  0  0  0  0  0  0
    1.5495    3.7943   -2.1568 H   0  0  0  0  0  0  0  0  0  0  0  0
    4.0229   -0.2181   -1.0016 H   0  0  0  0  0  0  0  0  0  0  0  0
    2.4284   -0.4763   -1.7609 H   0  0  0  0  0  0  0  0  0  0  0  0
    2.3995   -2.8146   -0.9171 H   0  0  0  0  0  0  0  0  0  0  0  0
    3.7659   -2.5013   -1.9930 H   0  0  0  0  0  0  0  0  0  0  0  0
    4.0219   -2.5950   -0.2519 H   0  0  0  0  0  0  0  0  0  0  0  0
    5.1974   -0.9682    5.9486 H   0  0  0  0  0  0  0  0  0  0  0  0
    6.6733   -1.9121    5.7003 H   0  0  0  0  0  0  0  0  0  0  0  0
    5.2505   -3.9774    5.4482 H   0  0  0  0  0  0  0  0  0  0  0  0
    3.8139   -3.0057    5.7856 H   0  0  0  0  0  0  0  0  0  0  0  0
    5.0534   -3.2058    7.0271 H   0  0  0  0  0  0  0  0  0  0  0  0
    8.4243   -0.8813    2.5641 H   0  0  0  0  0  0  0  0  0  0  0  0
   12.4848   -3.3859    5.4620 H   0  0  0  0  0  0  0  0  0  0  0  0
    8.4480   -6.3035    5.6908 H   0  0  0  0  0  0  0  0  0  0  0  0
   -4.4319   -3.0954    4.7440 H   0  0  0  0  0  0  0  0  0  0  0  0
   -0.4074   -2.0109    6.0293 H   0  0  0  0  0  0  0  0  0  0  0  0
   -3.3294   -1.2867    9.8555 H   0  0  0  0  0  0  0  0  0  0  0  0
   -4.8560   -1.2963    8.9542 H   0  0  0  0  0  0  0  0  0  0  0  0
   -4.6114    0.8212   10.2157 H   0  0  0  0  0  0  0  0  0  0  0  0
   -3.0842    1.1571    9.3948 H   0  0  0  0  0  0  0  0  0  0  0  0
   -4.5939    1.1381    8.4769 H   0  0  0  0  0  0  0  0  0  0  0  0
   -8.9769   -2.4309    3.1986 H   0  0  0  0  0  0  0  0  0  0  0  0
   -8.7729   -0.7339    2.7347 H   0  0  0  0  0  0  0  0  0  0  0  0
   -9.6441   -2.0446    0.8244 H   0  0  0  0  0  0  0  0  0  0  0  0
   -8.0232   -1.4369    0.4634 H   0  0  0  0  0  0  0  0  0  0  0  0
   -8.2541   -3.1304    0.9087 H   0  0  0  0  0  0  0  0  0  0  0  0
  1  2  2  0  0  0  0
  1  3  1  0  0  0  0
  3  4  2  0  0  0  0
  4  5  1  0  0  0  0
  5  6  1  0  0  0  0
  5  7  2  0  0  0  0
  7  8  1  0  0  0  0
  7  9  1  0  0  0  0
  9 10  2  0  0  0  0
  3 10  1  0  0  0  0
 10 11  1  0  0  0  0
 11 12  2  0  0  0  0
 12 13  1  0  0  0  0
 13 14  3  0  0  0  0
 12 15  1  0  0  0  0
 15 16  3  0  0  0  0
 11 17  1  0  0  0  0
  1 17  1  0  0  0  0
 17 18  2  0  0  0  0
 18 19  1  0  0  0  0
 19 20  1  0  0  0  0
 20 21  1  0  0  0  0
 21 22  2  0  0  0  0
 22 23  1  0  0  0  0
 23 24  1  0  0  0  0
 24 25  1  0  0  0  0
 19 23  2  0  0  0  0
 22 26  1  0  0  0  0
 26 27  1  0  0  0  0
 27 28  2  0  0  0  0
 21 28  1  0  0  0  0
 28 29  1  0  0  0  0
 29 30  1  0  0  0  0
 30 31  1  0  0  0  0
 29 32  1  0  0  0  0
 32 33  2  0  0  0  0
 27 33  1  0  0  0  0
 33 34  1  0  0  0  0
 34 35  2  0  0  0  0
 35 36  1  0  0  0  0
 36 37  1  0  0  0  0
 36 38  2  0  0  0  0
 38 39  1  0  0  0  0
 38 40  1  0  0  0  0
 40 41  2  0  0  0  0
 34 41  1  0  0  0  0
 41 42  1  0  0  0  0
 42 43  2  0  0  0  0
 32 43  1  0  0  0  0
 43 44  1  0  0  0  0
 44 45  1  0  0  0  0
 45 46  1  0  0  0  0
 44 47  1  0  0  0  0
 47 48  2  0  0  0  0
 42 48  1  0  0  0  0
 48 49  1  0  0  0  0
 49 50  1  0  0  0  0
 50 51  2  0  0  0  0
 47 51  1  0  0  0  0
 51 52  1  0  0  0  0
 52 53  1  0  0  0  0
 53 54  2  0  0  0  0
 50 54  1  0  0  0  0
 54 55  1  0  0  0  0
 55 56  1  0  0  0  0
 53 57  1  0  0  0  0
 57 58  2  0  0  0  0
 58 59  1  0  0  0  0
 59 60  2  0  0  0  0
 60 61  1  0  0  0  0
 61 62  3  0  0  0  0
 60 63  1  0  0  0  0
 63 64  3  0  0  0  0
 59 65  1  0  0  0  0
 65 66  2  0  0  0  0
 66 67  1  0  0  0  0
 67 68  1  0  0  0  0
 67 69  2  0  0  0  0
 69 70  1  0  0  0  0
 69 71  1  0  0  0  0
 71 72  2  0  0  0  0
 65 72  1  0  0  0  0
 72 73  1  0  0  0  0
 73 74  2  0  0  0  0
 58 73  1  0  0  0  0
 37 75  2  0  0  0  0
 75 76  1  0  0  0  0
 76 77  2  0  0  0  0
 77 78  1  0  0  0  0
 78 37  1  0  0  0  0
 39 79  1  0  0  0  0
 79 80  1  0  0  0  0
 80 81  2  0  0  0  0
 81 82  1  0  0  0  0
 82 39  2  0  0  0  0
 80 83  1  0  0  0  0
 83 84  1  0  0  0  0
 77 85  1  0  0  0  0
 85 86  1  0  0  0  0
 76 87  1  0  0  0  0
 81 88  1  0  0  0  0
  4 89  1  0  0  0  0
  9 90  1  0  0  0  0
 18 91  1  0  0  0  0
 24 92  1  0  0  0  0
 24 93  1  0  0  0  0
 25 94  1  0  0  0  0
 25 95  1  0  0  0  0
 25 96  1  0  0  0  0
 30 97  1  0  0  0  0
 30 98  1  0  0  0  0
 31 99  1  0  0  0  0
 31100  1  0  0  0  0
 31101  1  0  0  0  0
 45102  1  0  0  0  0
 45103  1  0  0  0  0
 46104  1  0  0  0  0
 46105  1  0  0  0  0
 46106  1  0  0  0  0
 55107  1  0  0  0  0
 55108  1  0  0  0  0
 56109  1  0  0  0  0
 56110  1  0  0  0  0
 56111  1  0  0  0  0
 57112  1  0  0  0  0
 66113  1  0  0  0  0
 71114  1  0  0  0  0
 75115  1  0  0  0  0
 82116  1  0  0  0  0
 83117  1  0  0  0  0
 83118  1  0  0  0  0
 84119  1  0  0  0  0
 84120  1  0  0  0  0
 84121  1  0  0  0  0
 85122  1  0  0  0  0
 85123  1  0  0  0  0
 86124  1  0  0  0  0
 86125  1  0  0  0  0
 86126  1  0  0  0  0
M  END
