Y18-1D.sdf
  xtb     12222116413D
 energy: -202.244064374816 gnorm: 0.000687725512 xtb: 6.4.1 (unknown)
112123  0     0  0            999 V2000
    2.1198    2.0665    2.7417 C   0  0  0  0  0  0  0  0  0  0  0  0
    3.4908    1.9951    3.1745 C   0  0  0  0  0  0  0  0  0  0  0  0
    4.1692    1.0686    2.4479 N   0  0  0  0  0  0  0  0  0  0  0  0
    3.2885    0.5377    1.5376 C   0  0  0  0  0  0  0  0  0  0  0  0
    2.0311    1.1148    1.6860 C   0  0  0  0  0  0  0  0  0  0  0  0
    1.1572    0.5804    0.7774 N   0  0  0  0  0  0  0  0  0  0  0  0
   -0.0792    1.2646    0.4673 C   0  0  0  0  0  0  0  0  0  0  0  0
   -0.0478    1.8759   -0.9314 C   0  0  0  0  0  0  0  0  0  0  0  0
    1.8544   -0.3593    0.0316 C   0  0  0  0  0  0  0  0  0  0  0  0
    3.2092   -0.3821    0.4808 C   0  0  0  0  0  0  0  0  0  0  0  0
    4.1815   -1.1506   -0.1878 C   0  0  0  0  0  0  0  0  0  0  0  0
    5.4964   -1.3044   -0.0051 N   0  0  0  0  0  0  0  0  0  0  0  0
    5.8707   -2.0776   -0.9976 N   0  0  0  0  0  0  0  0  0  0  0  0
    7.2281   -2.5142   -1.1472 C   0  0  0  0  0  0  0  0  0  0  0  0
    7.4029   -3.9333   -0.6140 C   0  0  0  0  0  0  0  0  0  0  0  0
    4.9263   -2.4608   -1.8249 N   0  0  0  0  0  0  0  0  0  0  0  0
    3.8181   -1.8912   -1.3427 C   0  0  0  0  0  0  0  0  0  0  0  0
    2.4678   -1.9493   -1.7370 C   0  0  0  0  0  0  0  0  0  0  0  0
    1.4598   -1.2445   -1.0129 C   0  0  0  0  0  0  0  0  0  0  0  0
    0.2203   -1.5812   -1.5388 N   0  0  0  0  0  0  0  0  0  0  0  0
   -1.0899   -1.4940   -0.9302 C   0  0  0  0  0  0  0  0  0  0  0  0
   -1.1020   -2.1022    0.4701 C   0  0  0  0  0  0  0  0  0  0  0  0
    0.4371   -2.4446   -2.5792 C   0  0  0  0  0  0  0  0  0  0  0  0
    1.7995   -2.6826   -2.7295 C   0  0  0  0  0  0  0  0  0  0  0  0
    2.0217   -3.5533   -3.7682 N   0  0  0  0  0  0  0  0  0  0  0  0
    0.8089   -3.8880   -4.2823 C   0  0  0  0  0  0  0  0  0  0  0  0
   -0.2412   -3.2047   -3.5737 C   0  0  0  0  0  0  0  0  0  0  0  0
    5.5741    0.7627    2.5244 C   0  0  0  0  0  0  0  0  0  0  0  0
    6.4105    1.8051    1.7847 C   0  0  0  0  0  0  0  0  0  0  0  0
    3.3056   -4.0834   -4.1472 C   0  0  0  0  0  0  0  0  0  0  0  0
    3.5532   -5.4477   -3.5061 C   0  0  0  0  0  0  0  0  0  0  0  0
   -1.5433    4.5806    4.2101 C   0  0  0  0  0  0  0  0  0  0  0  0
   -1.5357    3.7951    3.2818 O   0  0  0  0  0  0  0  0  0  0  0  0
   -2.7590    5.2606    4.7100 C   0  0  0  0  0  0  0  0  0  0  0  0
   -4.0590    5.0953    4.2756 C   0  0  0  0  0  0  0  0  0  0  0  0
   -5.0452    5.8350    4.9065 C   0  0  0  0  0  0  0  0  0  0  0  0
   -6.3213    5.7053    4.5216 F   0  0  0  0  0  0  0  0  0  0  0  0
   -4.7207    6.7121    5.9413 C   0  0  0  0  0  0  0  0  0  0  0  0
   -5.6937    7.4106    6.5381 F   0  0  0  0  0  0  0  0  0  0  0  0
   -3.4137    6.8807    6.3722 C   0  0  0  0  0  0  0  0  0  0  0  0
   -2.4206    6.1436    5.7447 C   0  0  0  0  0  0  0  0  0  0  0  0
   -0.9738    6.0841    5.9488 C   0  0  0  0  0  0  0  0  0  0  0  0
   -0.2881    6.8934    6.8166 C   0  0  0  0  0  0  0  0  0  0  0  0
   -0.8995    7.8612    7.6435 C   0  0  0  0  0  0  0  0  0  0  0  0
   -1.3221    8.6665    8.3437 N   0  0  0  0  0  0  0  0  0  0  0  0
    1.1076    6.9339    7.0270 C   0  0  0  0  0  0  0  0  0  0  0  0
    2.2223    7.0682    7.2723 N   0  0  0  0  0  0  0  0  0  0  0  0
   -0.4333    5.0706    5.0503 C   0  0  0  0  0  0  0  0  0  0  0  0
    0.8853    4.6897    5.1050 C   0  0  0  0  0  0  0  0  0  0  0  0
   -3.1880   -4.4764   -5.4911 C   0  0  0  0  0  0  0  0  0  0  0  0
   -4.4478   -4.1078   -5.0856 C   0  0  0  0  0  0  0  0  0  0  0  0
   -5.6372   -4.4901   -5.8372 C   0  0  0  0  0  0  0  0  0  0  0  0
   -5.6979   -5.0893   -7.0686 C   0  0  0  0  0  0  0  0  0  0  0  0
   -4.6125   -5.4602   -7.8925 C   0  0  0  0  0  0  0  0  0  0  0  0
   -3.8150   -5.7897   -8.6515 N   0  0  0  0  0  0  0  0  0  0  0  0
   -6.9026   -5.4187   -7.7276 C   0  0  0  0  0  0  0  0  0  0  0  0
   -7.8371   -5.7186   -8.3228 N   0  0  0  0  0  0  0  0  0  0  0  0
   -6.8106   -4.0754   -5.0692 C   0  0  0  0  0  0  0  0  0  0  0  0
   -8.1695   -4.2248   -5.3028 C   0  0  0  0  0  0  0  0  0  0  0  0
   -9.0523   -3.7058   -4.3677 C   0  0  0  0  0  0  0  0  0  0  0  0
  -10.3675   -3.8429   -4.5739 F   0  0  0  0  0  0  0  0  0  0  0  0
   -8.6054   -3.0484   -3.2214 C   0  0  0  0  0  0  0  0  0  0  0  0
   -9.4942   -2.5612   -2.3459 F   0  0  0  0  0  0  0  0  0  0  0  0
   -7.2502   -2.8969   -2.9807 C   0  0  0  0  0  0  0  0  0  0  0  0
   -6.3730   -3.4164   -3.9120 C   0  0  0  0  0  0  0  0  0  0  0  0
   -4.8938   -3.3891   -3.8759 C   0  0  0  0  0  0  0  0  0  0  0  0
   -4.2445   -2.8739   -2.9860 O   0  0  0  0  0  0  0  0  0  0  0  0
    3.9400    2.8070    4.2168 C   0  0  0  0  0  0  0  0  0  0  0  0
    3.0520    3.6651    4.8086 C   0  0  0  0  0  0  0  0  0  0  0  0
    1.6919    3.7538    4.4023 C   0  0  0  0  0  0  0  0  0  0  0  0
    1.2416    2.9340    3.3571 C   0  0  0  0  0  0  0  0  0  0  0  0
   -1.5573   -3.3729   -3.9497 C   0  0  0  0  0  0  0  0  0  0  0  0
   -1.8721   -4.2311   -5.0132 C   0  0  0  0  0  0  0  0  0  0  0  0
   -0.8160   -4.8939   -5.6971 C   0  0  0  0  0  0  0  0  0  0  0  0
    0.4987   -4.7336   -5.3483 C   0  0  0  0  0  0  0  0  0  0  0  0
   -0.1860    2.0636    1.2013 H   0  0  0  0  0  0  0  0  0  0  0  0
   -0.9340    0.5995    0.5931 H   0  0  0  0  0  0  0  0  0  0  0  0
    0.7606    2.6004   -1.0005 H   0  0  0  0  0  0  0  0  0  0  0  0
   -0.9864    2.3857   -1.1309 H   0  0  0  0  0  0  0  0  0  0  0  0
    0.1100    1.1175   -1.6943 H   0  0  0  0  0  0  0  0  0  0  0  0
    7.8541   -1.8124   -0.5932 H   0  0  0  0  0  0  0  0  0  0  0  0
    7.4790   -2.4779   -2.2101 H   0  0  0  0  0  0  0  0  0  0  0  0
    8.4325   -4.2535   -0.7446 H   0  0  0  0  0  0  0  0  0  0  0  0
    6.7505   -4.6157   -1.1531 H   0  0  0  0  0  0  0  0  0  0  0  0
    7.1550   -3.9724    0.4440 H   0  0  0  0  0  0  0  0  0  0  0  0
   -1.4476   -0.4636   -0.9221 H   0  0  0  0  0  0  0  0  0  0  0  0
   -1.7681   -2.0634   -1.5663 H   0  0  0  0  0  0  0  0  0  0  0  0
   -0.8297   -3.1541    0.4184 H   0  0  0  0  0  0  0  0  0  0  0  0
   -0.3980   -1.6015    1.1302 H   0  0  0  0  0  0  0  0  0  0  0  0
   -2.0991   -2.0246    0.8948 H   0  0  0  0  0  0  0  0  0  0  0  0
    5.8702    0.7148    3.5764 H   0  0  0  0  0  0  0  0  0  0  0  0
    5.7225   -0.2147    2.0597 H   0  0  0  0  0  0  0  0  0  0  0  0
    6.1448    1.8110    0.7306 H   0  0  0  0  0  0  0  0  0  0  0  0
    7.4658    1.5648    1.8760 H   0  0  0  0  0  0  0  0  0  0  0  0
    6.2393    2.7983    2.1936 H   0  0  0  0  0  0  0  0  0  0  0  0
    3.3500   -4.1620   -5.2371 H   0  0  0  0  0  0  0  0  0  0  0  0
    4.0661   -3.3794   -3.8016 H   0  0  0  0  0  0  0  0  0  0  0  0
    2.7812   -6.1567   -3.7966 H   0  0  0  0  0  0  0  0  0  0  0  0
    4.5196   -5.8330   -3.8186 H   0  0  0  0  0  0  0  0  0  0  0  0
    3.5495   -5.3523   -2.4231 H   0  0  0  0  0  0  0  0  0  0  0  0
   -4.3027    4.4144    3.4758 H   0  0  0  0  0  0  0  0  0  0  0  0
   -3.2202    7.5705    7.1765 H   0  0  0  0  0  0  0  0  0  0  0  0
    1.4521    5.2088    5.8689 H   0  0  0  0  0  0  0  0  0  0  0  0
   -3.1833   -5.1068   -6.3725 H   0  0  0  0  0  0  0  0  0  0  0  0
   -8.5697   -4.7245   -6.1690 H   0  0  0  0  0  0  0  0  0  0  0  0
   -6.8971   -2.3909   -2.0964 H   0  0  0  0  0  0  0  0  0  0  0  0
    4.9650    2.7623    4.5514 H   0  0  0  0  0  0  0  0  0  0  0  0
    3.3912    4.3012    5.6128 H   0  0  0  0  0  0  0  0  0  0  0  0
    0.2122    2.9892    3.0520 H   0  0  0  0  0  0  0  0  0  0  0  0
   -2.3478   -2.8502   -3.4426 H   0  0  0  0  0  0  0  0  0  0  0  0
   -1.0661   -5.5440   -6.5224 H   0  0  0  0  0  0  0  0  0  0  0  0
    1.2762   -5.2491   -5.8909 H   0  0  0  0  0  0  0  0  0  0  0  0
  1  2  2  0  0  0  0
  2  3  1  0  0  0  0
  3  4  1  0  0  0  0
  4  5  2  0  0  0  0
  1  5  1  0  0  0  0
  5  6  1  0  0  0  0
  6  7  1  0  0  0  0
  7  8  1  0  0  0  0
  6  9  1  0  0  0  0
  9 10  2  0  0  0  0
  4 10  1  0  0  0  0
 10 11  1  0  0  0  0
 11 12  2  0  0  0  0
 12 13  1  0  0  0  0
 13 14  1  0  0  0  0
 14 15  1  0  0  0  0
 13 16  1  0  0  0  0
 16 17  2  0  0  0  0
 11 17  1  0  0  0  0
 17 18  1  0  0  0  0
 18 19  2  0  0  0  0
  9 19  1  0  0  0  0
 19 20  1  0  0  0  0
 20 21  1  0  0  0  0
 21 22  1  0  0  0  0
 20 23  1  0  0  0  0
 23 24  2  0  0  0  0
 18 24  1  0  0  0  0
 24 25  1  0  0  0  0
 25 26  1  0  0  0  0
 26 27  2  0  0  0  0
 23 27  1  0  0  0  0
  3 28  1  0  0  0  0
 28 29  1  0  0  0  0
 25 30  1  0  0  0  0
 30 31  1  0  0  0  0
 32 33  2  0  0  0  0
 32 34  1  0  0  0  0
 34 35  2  0  0  0  0
 35 36  1  0  0  0  0
 36 37  1  0  0  0  0
 36 38  2  0  0  0  0
 38 39  1  0  0  0  0
 38 40  1  0  0  0  0
 40 41  2  0  0  0  0
 34 41  1  0  0  0  0
 41 42  1  0  0  0  0
 42 43  2  0  0  0  0
 43 44  1  0  0  0  0
 44 45  3  0  0  0  0
 43 46  1  0  0  0  0
 46 47  3  0  0  0  0
 42 48  1  0  0  0  0
 32 48  1  0  0  0  0
 48 49  2  0  0  0  0
 50 51  2  0  0  0  0
 51 52  1  0  0  0  0
 52 53  2  0  0  0  0
 53 54  1  0  0  0  0
 54 55  3  0  0  0  0
 53 56  1  0  0  0  0
 56 57  3  0  0  0  0
 52 58  1  0  0  0  0
 58 59  2  0  0  0  0
 59 60  1  0  0  0  0
 60 61  1  0  0  0  0
 60 62  2  0  0  0  0
 62 63  1  0  0  0  0
 62 64  1  0  0  0  0
 64 65  2  0  0  0  0
 58 65  1  0  0  0  0
 65 66  1  0  0  0  0
 66 67  2  0  0  0  0
 51 66  1  0  0  0  0
  2 68  1  0  0  0  0
 68 69  2  0  0  0  0
 69 70  1  0  0  0  0
 70 71  2  0  0  0  0
 71  1  1  0  0  0  0
 27 72  1  0  0  0  0
 72 73  2  0  0  0  0
 73 74  1  0  0  0  0
 74 75  2  0  0  0  0
 75 26  1  0  0  0  0
 73 50  1  0  0  0  0
 70 49  1  0  0  0  0
  7 76  1  0  0  0  0
  7 77  1  0  0  0  0
  8 78  1  0  0  0  0
  8 79  1  0  0  0  0
  8 80  1  0  0  0  0
 14 81  1  0  0  0  0
 14 82  1  0  0  0  0
 15 83  1  0  0  0  0
 15 84  1  0  0  0  0
 15 85  1  0  0  0  0
 21 86  1  0  0  0  0
 21 87  1  0  0  0  0
 22 88  1  0  0  0  0
 22 89  1  0  0  0  0
 22 90  1  0  0  0  0
 28 91  1  0  0  0  0
 28 92  1  0  0  0  0
 29 93  1  0  0  0  0
 29 94  1  0  0  0  0
 29 95  1  0  0  0  0
 30 96  1  0  0  0  0
 30 97  1  0  0  0  0
 31 98  1  0  0  0  0
 31 99  1  0  0  0  0
 31100  1  0  0  0  0
 35101  1  0  0  0  0
 40102  1  0  0  0  0
 49103  1  0  0  0  0
 50104  1  0  0  0  0
 59105  1  0  0  0  0
 64106  1  0  0  0  0
 68107  1  0  0  0  0
 69108  1  0  0  0  0
 71109  1  0  0  0  0
 72110  1  0  0  0  0
 74111  1  0  0  0  0
 75112  1  0  0  0  0
M  END
