Y5.mol
  xtb     01102219053D
 energy: -174.310639976056 gnorm: 0.000648315667 xtb: 6.4.1 (unknown)
 97108  0     0  0            999 V2000
    3.6537   -2.7967   -7.4093 O   0  0  0  0  0  0  0  0  0  0  0  0
    3.3769   -2.0994   -8.3618 C   0  0  0  0  0  0  0  0  0  0  0  0
    3.9054   -2.2274   -9.7351 C   0  0  0  0  0  0  0  0  0  0  0  0
    4.7027   -3.2239  -10.2627 C   0  0  0  0  0  0  0  0  0  0  0  0
    5.0870   -3.1213  -11.5925 C   0  0  0  0  0  0  0  0  0  0  0  0
    4.6873   -2.0363  -12.3593 C   0  0  0  0  0  0  0  0  0  0  0  0
    3.8913   -1.0284  -11.8309 C   0  0  0  0  0  0  0  0  0  0  0  0
    3.4933   -1.1267  -10.5070 C   0  0  0  0  0  0  0  0  0  0  0  0
    2.6584   -0.2580   -9.6810 C   0  0  0  0  0  0  0  0  0  0  0  0
    1.9903    0.8610  -10.1071 C   0  0  0  0  0  0  0  0  0  0  0  0
    1.1004    1.6133   -9.3123 C   0  0  0  0  0  0  0  0  0  0  0  0
    0.3442    2.2568   -8.7346 N   0  0  0  0  0  0  0  0  0  0  0  0
    2.0829    1.3927  -11.4095 C   0  0  0  0  0  0  0  0  0  0  0  0
    2.1219    1.8790  -12.4488 N   0  0  0  0  0  0  0  0  0  0  0  0
    2.5791   -0.8497   -8.3635 C   0  0  0  0  0  0  0  0  0  0  0  0
    2.0652   -0.2606   -7.2423 C   0  0  0  0  0  0  0  0  0  0  0  0
    1.7475   -0.8868   -6.0160 C   0  0  0  0  0  0  0  0  0  0  0  0
    1.8974    0.1176   -4.5702 S   0  0  0  0  0  0  0  0  0  0  0  0
    1.2247   -1.1344   -3.6003 C   0  0  0  0  0  0  0  0  0  0  0  0
    0.8786   -2.2479   -4.3778 C   0  0  0  0  0  0  0  0  0  0  0  0
    0.1036   -3.5128   -3.4488 S   0  0  0  0  0  0  0  0  0  0  0  0
    0.2405   -2.5327   -2.0322 C   0  0  0  0  0  0  0  0  0  0  0  0
   -0.1210   -2.5660   -0.6756 C   0  0  0  0  0  0  0  0  0  0  0  0
   -0.6953   -3.5756    0.1287 C   0  0  0  0  0  0  0  0  0  0  0  0
   -1.0263   -4.8116   -0.2093 N   0  0  0  0  0  0  0  0  0  0  0  0
   -1.5886   -5.5714    1.1045 S   0  0  0  0  0  0  0  0  0  0  0  0
   -1.4396   -4.3500    2.1558 N   0  0  0  0  0  0  0  0  0  0  0  0
   -0.9422   -3.3031    1.5172 C   0  0  0  0  0  0  0  0  0  0  0  0
    0.8614   -1.2993   -2.2620 C   0  0  0  0  0  0  0  0  0  0  0  0
    0.8931   -0.5639   -1.1036 N   0  0  0  0  0  0  0  0  0  0  0  0
    1.9226    0.4379   -0.9209 C   0  0  0  0  0  0  0  0  0  0  0  0
    3.3176   -0.1570   -1.1132 C   0  0  0  0  0  0  0  0  0  0  0  0
    0.2515   -1.3070   -0.1277 C   0  0  0  0  0  0  0  0  0  0  0  0
   -0.1820   -0.9726    1.1789 C   0  0  0  0  0  0  0  0  0  0  0  0
   -0.2699    0.2320    1.8484 N   0  0  0  0  0  0  0  0  0  0  0  0
   -0.1667    1.5858    1.3501 C   0  0  0  0  0  0  0  0  0  0  0  0
    0.9982    2.3441    1.9856 C   0  0  0  0  0  0  0  0  0  0  0  0
   -0.7287   -1.9941    2.0061 C   0  0  0  0  0  0  0  0  0  0  0  0
   -1.1176   -1.3764    3.2038 C   0  0  0  0  0  0  0  0  0  0  0  0
   -1.9150   -1.7807    4.6822 S   0  0  0  0  0  0  0  0  0  0  0  0
   -0.8432   -0.0099    3.0686 C   0  0  0  0  0  0  0  0  0  0  0  0
   -1.3142    0.7288    4.1581 C   0  0  0  0  0  0  0  0  0  0  0  0
   -1.9346   -0.0853    5.1163 C   0  0  0  0  0  0  0  0  0  0  0  0
    1.1669   -2.1206   -5.7437 C   0  0  0  0  0  0  0  0  0  0  0  0
    0.7042   -3.1257   -6.7480 C   0  0  0  0  0  0  0  0  0  0  0  0
    1.3571   -4.4925   -6.5420 C   0  0  0  0  0  0  0  0  0  0  0  0
   -3.9945    3.1648    7.4476 C   0  0  0  0  0  0  0  0  0  0  0  0
   -4.4111    4.2267    8.3394 C   0  0  0  0  0  0  0  0  0  0  0  0
   -5.8666    4.1734    8.4413 C   0  0  0  0  0  0  0  0  0  0  0  0
   -6.3313    3.0763    7.6947 C   0  0  0  0  0  0  0  0  0  0  0  0
   -5.1920    2.3783    7.0641 C   0  0  0  0  0  0  0  0  0  0  0  0
   -5.2500    1.4267    6.3145 O   0  0  0  0  0  0  0  0  0  0  0  0
   -7.6773    2.7816    7.6024 C   0  0  0  0  0  0  0  0  0  0  0  0
   -8.5752    3.5986    8.2754 C   0  0  0  0  0  0  0  0  0  0  0  0
   -8.1240    4.6840    9.0125 C   0  0  0  0  0  0  0  0  0  0  0  0
   -6.7715    4.9861    9.1056 C   0  0  0  0  0  0  0  0  0  0  0  0
   -3.5804    5.0704    9.0283 C   0  0  0  0  0  0  0  0  0  0  0  0
   -4.0267    6.0795    9.9061 C   0  0  0  0  0  0  0  0  0  0  0  0
   -4.3311    6.9212   10.6249 N   0  0  0  0  0  0  0  0  0  0  0  0
   -2.1716    5.0108    8.9763 C   0  0  0  0  0  0  0  0  0  0  0  0
   -1.0235    4.9986    8.9943 N   0  0  0  0  0  0  0  0  0  0  0  0
   -2.5103    0.6133    6.1879 C   0  0  0  0  0  0  0  0  0  0  0  0
   -2.3369    1.9829    6.0371 C   0  0  0  0  0  0  0  0  0  0  0  0
   -1.3778    2.3888    4.6129 S   0  0  0  0  0  0  0  0  0  0  0  0
   -3.1120   -0.0415    7.3852 C   0  0  0  0  0  0  0  0  0  0  0  0
   -2.1683   -1.0672    8.0118 C   0  0  0  0  0  0  0  0  0  0  0  0
   -2.7804    3.0669    6.8270 C   0  0  0  0  0  0  0  0  0  0  0  0
    5.0059   -4.0573   -9.6478 H   0  0  0  0  0  0  0  0  0  0  0  0
    5.7025   -3.8901  -12.0347 H   0  0  0  0  0  0  0  0  0  0  0  0
    5.0010   -1.9696  -13.3903 H   0  0  0  0  0  0  0  0  0  0  0  0
    3.6010   -0.1925  -12.4462 H   0  0  0  0  0  0  0  0  0  0  0  0
    1.8981    0.8108   -7.2604 H   0  0  0  0  0  0  0  0  0  0  0  0
    1.8564    0.8316    0.0875 H   0  0  0  0  0  0  0  0  0  0  0  0
    1.7607    1.2441   -1.6438 H   0  0  0  0  0  0  0  0  0  0  0  0
    3.4551   -0.5188   -2.1279 H   0  0  0  0  0  0  0  0  0  0  0  0
    4.0656    0.6063   -0.9171 H   0  0  0  0  0  0  0  0  0  0  0  0
    3.4726   -0.9845   -0.4239 H   0  0  0  0  0  0  0  0  0  0  0  0
   -0.0908    1.5609    0.2631 H   0  0  0  0  0  0  0  0  0  0  0  0
   -1.0975    2.1046    1.6059 H   0  0  0  0  0  0  0  0  0  0  0  0
    0.8172    2.4862    3.0475 H   0  0  0  0  0  0  0  0  0  0  0  0
    1.0962    3.3207    1.5207 H   0  0  0  0  0  0  0  0  0  0  0  0
    1.9381    1.8074    1.8759 H   0  0  0  0  0  0  0  0  0  0  0  0
    0.9048   -2.7649   -7.7571 H   0  0  0  0  0  0  0  0  0  0  0  0
   -0.3796   -3.2313   -6.6321 H   0  0  0  0  0  0  0  0  0  0  0  0
    0.9976   -5.1878   -7.2962 H   0  0  0  0  0  0  0  0  0  0  0  0
    1.1138   -4.8879   -5.5594 H   0  0  0  0  0  0  0  0  0  0  0  0
    2.4361   -4.4055   -6.6286 H   0  0  0  0  0  0  0  0  0  0  0  0
   -8.0069    1.9350    7.0199 H   0  0  0  0  0  0  0  0  0  0  0  0
   -9.6333    3.3905    8.2239 H   0  0  0  0  0  0  0  0  0  0  0  0
   -8.8375    5.3124    9.5242 H   0  0  0  0  0  0  0  0  0  0  0  0
   -6.4474    5.8402    9.6778 H   0  0  0  0  0  0  0  0  0  0  0  0
   -3.3611    0.7196    8.1259 H   0  0  0  0  0  0  0  0  0  0  0  0
   -4.0419   -0.5296    7.0818 H   0  0  0  0  0  0  0  0  0  0  0  0
   -1.9633   -1.8839    7.3256 H   0  0  0  0  0  0  0  0  0  0  0  0
   -2.6224   -1.4794    8.9092 H   0  0  0  0  0  0  0  0  0  0  0  0
   -1.2265   -0.5969    8.2867 H   0  0  0  0  0  0  0  0  0  0  0  0
   -2.1157    3.9232    6.8573 H   0  0  0  0  0  0  0  0  0  0  0  0
  1  2  2  0  0  0  0
  2  3  1  0  0  0  0
  3  4  2  0  0  0  0
  4  5  1  0  0  0  0
  5  6  2  0  0  0  0
  6  7  1  0  0  0  0
  7  8  2  0  0  0  0
  3  8  1  0  0  0  0
  8  9  1  0  0  0  0
  9 10  2  0  0  0  0
 10 11  1  0  0  0  0
 11 12  3  0  0  0  0
 10 13  1  0  0  0  0
 13 14  3  0  0  0  0
  2 15  1  0  0  0  0
  9 15  1  0  0  0  0
 15 16  2  0  0  0  0
 16 17  1  0  0  0  0
 17 18  1  0  0  0  0
 18 19  1  0  0  0  0
 19 20  2  0  0  0  0
 20 21  1  0  0  0  0
 21 22  1  0  0  0  0
 22 23  1  0  0  0  0
 23 24  1  0  0  0  0
 24 25  2  0  0  0  0
 25 26  1  0  0  0  0
 26 27  1  0  0  0  0
 27 28  2  0  0  0  0
 24 28  1  0  0  0  0
 22 29  2  0  0  0  0
 19 29  1  0  0  0  0
 29 30  1  0  0  0  0
 30 31  1  0  0  0  0
 31 32  1  0  0  0  0
 30 33  1  0  0  0  0
 23 33  2  0  0  0  0
 33 34  1  0  0  0  0
 34 35  1  0  0  0  0
 35 36  1  0  0  0  0
 36 37  1  0  0  0  0
 34 38  2  0  0  0  0
 28 38  1  0  0  0  0
 38 39  1  0  0  0  0
 39 40  1  0  0  0  0
 39 41  2  0  0  0  0
 35 41  1  0  0  0  0
 41 42  1  0  0  0  0
 42 43  2  0  0  0  0
 40 43  1  0  0  0  0
 17 44  2  0  0  0  0
 20 44  1  0  0  0  0
 44 45  1  0  0  0  0
 45 46  1  0  0  0  0
 47 48  1  0  0  0  0
 48 49  1  0  0  0  0
 49 50  2  0  0  0  0
 50 51  1  0  0  0  0
 47 51  1  0  0  0  0
 51 52  2  0  0  0  0
 50 53  1  0  0  0  0
 53 54  2  0  0  0  0
 54 55  1  0  0  0  0
 55 56  2  0  0  0  0
 49 56  1  0  0  0  0
 48 57  2  0  0  0  0
 57 58  1  0  0  0  0
 58 59  3  0  0  0  0
 57 60  1  0  0  0  0
 60 61  3  0  0  0  0
 43 62  1  0  0  0  0
 62 63  2  0  0  0  0
 63 64  1  0  0  0  0
 64 42  1  0  0  0  0
 62 65  1  0  0  0  0
 65 66  1  0  0  0  0
 47 67  2  0  0  0  0
 67 63  1  0  0  0  0
  4 68  1  0  0  0  0
  5 69  1  0  0  0  0
  6 70  1  0  0  0  0
  7 71  1  0  0  0  0
 16 72  1  0  0  0  0
 31 73  1  0  0  0  0
 31 74  1  0  0  0  0
 32 75  1  0  0  0  0
 32 76  1  0  0  0  0
 32 77  1  0  0  0  0
 36 78  1  0  0  0  0
 36 79  1  0  0  0  0
 37 80  1  0  0  0  0
 37 81  1  0  0  0  0
 37 82  1  0  0  0  0
 45 83  1  0  0  0  0
 45 84  1  0  0  0  0
 46 85  1  0  0  0  0
 46 86  1  0  0  0  0
 46 87  1  0  0  0  0
 53 88  1  0  0  0  0
 54 89  1  0  0  0  0
 55 90  1  0  0  0  0
 56 91  1  0  0  0  0
 65 92  1  0  0  0  0
 65 93  1  0  0  0  0
 66 94  1  0  0  0  0
 66 95  1  0  0  0  0
 66 96  1  0  0  0  0
 67 97  1  0  0  0  0
M  END
