Y6.mol
  xtb     01102219073D
 energy: -184.877148854861 gnorm: 0.000317724070 xtb: 6.4.1 (unknown)
 91102  0     0  0            999 V2000
    0.6238   -7.4301    0.4706 O   0  0  0  0  0  0  0  0  0  0  0  0
   -0.0044   -8.0688    1.2867 C   0  0  0  0  0  0  0  0  0  0  0  0
    0.5153   -9.1683    2.1330 C   0  0  0  0  0  0  0  0  0  0  0  0
    1.7871   -9.7053    2.1455 C   0  0  0  0  0  0  0  0  0  0  0  0
    2.0471  -10.7209    3.0518 C   0  0  0  0  0  0  0  0  0  0  0  0
    3.2664  -11.2707    3.0982 F   0  0  0  0  0  0  0  0  0  0  0  0
    1.0522  -11.1739    3.9189 C   0  0  0  0  0  0  0  0  0  0  0  0
    1.3355  -12.1491    4.7890 F   0  0  0  0  0  0  0  0  0  0  0  0
   -0.2254  -10.6338    3.9073 C   0  0  0  0  0  0  0  0  0  0  0  0
   -0.4925   -9.6190    3.0021 C   0  0  0  0  0  0  0  0  0  0  0  0
   -1.7072   -8.8478    2.7494 C   0  0  0  0  0  0  0  0  0  0  0  0
   -2.9428   -9.0814    3.2922 C   0  0  0  0  0  0  0  0  0  0  0  0
   -3.2088  -10.0843    4.2474 C   0  0  0  0  0  0  0  0  0  0  0  0
   -3.4746  -10.8795    5.0309 N   0  0  0  0  0  0  0  0  0  0  0  0
   -4.1086   -8.3744    2.9273 C   0  0  0  0  0  0  0  0  0  0  0  0
   -5.0929   -7.8511    2.6533 N   0  0  0  0  0  0  0  0  0  0  0  0
   -1.3939   -7.8547    1.7452 C   0  0  0  0  0  0  0  0  0  0  0  0
   -2.1248   -6.7291    1.4692 C   0  0  0  0  0  0  0  0  0  0  0  0
   -1.8836   -5.8263    0.4142 C   0  0  0  0  0  0  0  0  0  0  0  0
   -2.1544   -4.1173    0.7588 S   0  0  0  0  0  0  0  0  0  0  0  0
   -1.6028   -3.6925   -0.8158 C   0  0  0  0  0  0  0  0  0  0  0  0
   -1.3171   -4.8337   -1.5819 C   0  0  0  0  0  0  0  0  0  0  0  0
   -0.7441   -4.4468   -3.1897 S   0  0  0  0  0  0  0  0  0  0  0  0
   -1.4748   -6.0462   -0.8978 C   0  0  0  0  0  0  0  0  0  0  0  0
   -1.3432   -7.3900   -1.5299 C   0  0  0  0  0  0  0  0  0  0  0  0
   -2.1542   -7.5058   -2.8196 C   0  0  0  0  0  0  0  0  0  0  0  0
   -1.3368   -2.5128   -1.5158 C   0  0  0  0  0  0  0  0  0  0  0  0
   -1.3295   -1.1656   -1.2718 N   0  0  0  0  0  0  0  0  0  0  0  0
   -1.4978   -0.6748    0.0783 C   0  0  0  0  0  0  0  0  0  0  0  0
   -2.9649   -0.6729    0.5079 C   0  0  0  0  0  0  0  0  0  0  0  0
   -0.8504   -2.7668   -2.8051 C   0  0  0  0  0  0  0  0  0  0  0  0
   -0.5074   -1.5289   -3.3652 C   0  0  0  0  0  0  0  0  0  0  0  0
    0.1778   -1.2047   -4.5583 C   0  0  0  0  0  0  0  0  0  0  0  0
    0.5549   -2.0114   -5.5375 N   0  0  0  0  0  0  0  0  0  0  0  0
    1.4065   -1.1524   -6.6123 S   0  0  0  0  0  0  0  0  0  0  0  0
    1.3293    0.2826   -5.8694 N   0  0  0  0  0  0  0  0  0  0  0  0
    0.6290    0.1430   -4.7551 C   0  0  0  0  0  0  0  0  0  0  0  0
   -0.8337   -0.5358   -2.3970 C   0  0  0  0  0  0  0  0  0  0  0  0
   -0.5566    0.8228   -2.6887 C   0  0  0  0  0  0  0  0  0  0  0  0
   -0.8341    1.9923   -2.0048 N   0  0  0  0  0  0  0  0  0  0  0  0
   -0.1520    3.0049   -2.6321 C   0  0  0  0  0  0  0  0  0  0  0  0
   -2.0095    2.3296   -1.2282 C   0  0  0  0  0  0  0  0  0  0  0  0
   -3.0634    3.0170   -2.0961 C   0  0  0  0  0  0  0  0  0  0  0  0
    0.2675    1.1308   -3.8112 C   0  0  0  0  0  0  0  0  0  0  0  0
    0.5358    2.5051   -3.7468 C   0  0  0  0  0  0  0  0  0  0  0  0
    0.2437    8.7870   -0.6421 C   0  0  0  0  0  0  0  0  0  0  0  0
    0.5253   10.1718   -0.3197 C   0  0  0  0  0  0  0  0  0  0  0  0
   -0.1175   10.4600    0.9644 C   0  0  0  0  0  0  0  0  0  0  0  0
   -0.7860    9.3053    1.4044 C   0  0  0  0  0  0  0  0  0  0  0  0
   -1.4848    9.2661    2.5944 C   0  0  0  0  0  0  0  0  0  0  0  0
   -1.5099   10.4192    3.3622 C   0  0  0  0  0  0  0  0  0  0  0  0
   -2.1724   10.4266    4.5251 F   0  0  0  0  0  0  0  0  0  0  0  0
   -0.8499   11.5714    2.9346 C   0  0  0  0  0  0  0  0  0  0  0  0
   -0.8896   12.6700    3.6959 F   0  0  0  0  0  0  0  0  0  0  0  0
   -0.1491   11.6097    1.7377 C   0  0  0  0  0  0  0  0  0  0  0  0
    1.2497   11.0732   -1.0550 C   0  0  0  0  0  0  0  0  0  0  0  0
    1.8688   10.8193   -2.2974 C   0  0  0  0  0  0  0  0  0  0  0  0
    2.3997   10.6994   -3.3089 N   0  0  0  0  0  0  0  0  0  0  0  0
    1.4768   12.4107   -0.6647 C   0  0  0  0  0  0  0  0  0  0  0  0
    1.6992   13.5065   -0.4064 N   0  0  0  0  0  0  0  0  0  0  0  0
   -0.5980    8.2252    0.4147 C   0  0  0  0  0  0  0  0  0  0  0  0
   -1.0622    7.1007    0.4860 O   0  0  0  0  0  0  0  0  0  0  0  0
    1.4469    3.7049   -4.5989 S   0  0  0  0  0  0  0  0  0  0  0  0
    0.9145    4.8964   -3.4289 C   0  0  0  0  0  0  0  0  0  0  0  0
    0.0561    4.3702   -2.4392 C   0  0  0  0  0  0  0  0  0  0  0  0
    1.1769    6.2390   -3.2519 C   0  0  0  0  0  0  0  0  0  0  0  0
    0.5457    6.7705   -2.1214 C   0  0  0  0  0  0  0  0  0  0  0  0
   -0.4126    5.5549   -1.2804 S   0  0  0  0  0  0  0  0  0  0  0  0
    0.7172    8.1046   -1.7383 C   0  0  0  0  0  0  0  0  0  0  0  0
    2.5551   -9.3505    1.4769 H   0  0  0  0  0  0  0  0  0  0  0  0
   -0.9587  -11.0109    4.6013 H   0  0  0  0  0  0  0  0  0  0  0  0
   -2.9068   -6.4415    2.1630 H   0  0  0  0  0  0  0  0  0  0  0  0
   -1.6750   -8.1533   -0.8243 H   0  0  0  0  0  0  0  0  0  0  0  0
   -0.2852   -7.5692   -1.7405 H   0  0  0  0  0  0  0  0  0  0  0  0
   -1.7847   -6.8244   -3.5804 H   0  0  0  0  0  0  0  0  0  0  0  0
   -2.0814   -8.5197   -3.2043 H   0  0  0  0  0  0  0  0  0  0  0  0
   -3.2021   -7.2834   -2.6301 H   0  0  0  0  0  0  0  0  0  0  0  0
   -0.9425   -1.3444    0.7448 H   0  0  0  0  0  0  0  0  0  0  0  0
   -1.0468    0.3145    0.1569 H   0  0  0  0  0  0  0  0  0  0  0  0
   -3.0622   -0.1967    1.4792 H   0  0  0  0  0  0  0  0  0  0  0  0
   -3.5943   -0.1469   -0.2067 H   0  0  0  0  0  0  0  0  0  0  0  0
   -3.3326   -1.6923    0.5877 H   0  0  0  0  0  0  0  0  0  0  0  0
   -2.4428    1.4280   -0.8124 H   0  0  0  0  0  0  0  0  0  0  0  0
   -1.7040    2.9990   -0.4184 H   0  0  0  0  0  0  0  0  0  0  0  0
   -2.6914    3.9582   -2.4904 H   0  0  0  0  0  0  0  0  0  0  0  0
   -3.3443    2.3754   -2.9289 H   0  0  0  0  0  0  0  0  0  0  0  0
   -3.9469    3.2213   -1.4979 H   0  0  0  0  0  0  0  0  0  0  0  0
   -1.9930    8.3728    2.9207 H   0  0  0  0  0  0  0  0  0  0  0  0
    0.3437   12.5253    1.4553 H   0  0  0  0  0  0  0  0  0  0  0  0
    1.8053    6.8314   -3.8920 H   0  0  0  0  0  0  0  0  0  0  0  0
    1.3465    8.6607   -2.4221 H   0  0  0  0  0  0  0  0  0  0  0  0
  1  2  2  0  0  0  0
  2  3  1  0  0  0  0
  3  4  2  0  0  0  0
  4  5  1  0  0  0  0
  5  6  1  0  0  0  0
  5  7  2  0  0  0  0
  7  8  1  0  0  0  0
  7  9  1  0  0  0  0
  9 10  2  0  0  0  0
  3 10  1  0  0  0  0
 10 11  1  0  0  0  0
 11 12  2  0  0  0  0
 12 13  1  0  0  0  0
 13 14  3  0  0  0  0
 12 15  1  0  0  0  0
 15 16  3  0  0  0  0
  2 17  1  0  0  0  0
 11 17  1  0  0  0  0
 17 18  2  0  0  0  0
 18 19  1  0  0  0  0
 19 20  1  0  0  0  0
 20 21  1  0  0  0  0
 21 22  2  0  0  0  0
 22 23  1  0  0  0  0
 22 24  1  0  0  0  0
 19 24  2  0  0  0  0
 24 25  1  0  0  0  0
 25 26  1  0  0  0  0
 21 27  1  0  0  0  0
 27 28  1  0  0  0  0
 28 29  1  0  0  0  0
 29 30  1  0  0  0  0
 27 31  2  0  0  0  0
 23 31  1  0  0  0  0
 31 32  1  0  0  0  0
 32 33  1  0  0  0  0
 33 34  2  0  0  0  0
 34 35  1  0  0  0  0
 35 36  1  0  0  0  0
 36 37  2  0  0  0  0
 33 37  1  0  0  0  0
 32 38  2  0  0  0  0
 28 38  1  0  0  0  0
 38 39  1  0  0  0  0
 39 40  1  0  0  0  0
 40 41  1  0  0  0  0
 40 42  1  0  0  0  0
 42 43  1  0  0  0  0
 39 44  2  0  0  0  0
 37 44  1  0  0  0  0
 44 45  1  0  0  0  0
 41 45  2  0  0  0  0
 46 47  1  0  0  0  0
 47 48  1  0  0  0  0
 48 49  2  0  0  0  0
 49 50  1  0  0  0  0
 50 51  2  0  0  0  0
 51 52  1  0  0  0  0
 51 53  1  0  0  0  0
 53 54  1  0  0  0  0
 53 55  2  0  0  0  0
 48 55  1  0  0  0  0
 47 56  2  0  0  0  0
 56 57  1  0  0  0  0
 57 58  3  0  0  0  0
 56 59  1  0  0  0  0
 59 60  3  0  0  0  0
 46 61  1  0  0  0  0
 49 61  1  0  0  0  0
 61 62  2  0  0  0  0
 45 63  1  0  0  0  0
 63 64  1  0  0  0  0
 64 65  2  0  0  0  0
 65 41  1  0  0  0  0
 64 66  1  0  0  0  0
 66 67  2  0  0  0  0
 67 68  1  0  0  0  0
 68 65  1  0  0  0  0
 67 69  1  0  0  0  0
 69 46  2  0  0  0  0
  4 70  1  0  0  0  0
  9 71  1  0  0  0  0
 18 72  1  0  0  0  0
 25 73  1  0  0  0  0
 25 74  1  0  0  0  0
 26 75  1  0  0  0  0
 26 76  1  0  0  0  0
 26 77  1  0  0  0  0
 29 78  1  0  0  0  0
 29 79  1  0  0  0  0
 30 80  1  0  0  0  0
 30 81  1  0  0  0  0
 30 82  1  0  0  0  0
 42 83  1  0  0  0  0
 42 84  1  0  0  0  0
 43 85  1  0  0  0  0
 43 86  1  0  0  0  0
 43 87  1  0  0  0  0
 50 88  1  0  0  0  0
 55 89  1  0  0  0  0
 66 90  1  0  0  0  0
 69 91  1  0  0  0  0
M  END
