ZY-4Cl.sdf
  xtb     12222117013D
 energy: -174.268408569333 gnorm: 0.000199285898 xtb: 6.4.1 (unknown)
 89100  0     0  0            999 V2000
    8.0175    5.2007    1.9131 C   0  0  0  0  0  0  0  0  0  0  0  0
    8.1840    6.4006    1.9162 O   0  0  0  0  0  0  0  0  0  0  0  0
    9.0547    4.1475    2.0850 C   0  0  0  0  0  0  0  0  0  0  0  0
   10.4148    4.2734    2.2802 C   0  0  0  0  0  0  0  0  0  0  0  0
   11.1707    3.1121    2.4111 C   0  0  0  0  0  0  0  0  0  0  0  0
   12.8678    3.2322    2.6536 Cl  0  0  0  0  0  0  0  0  0  0  0  0
   10.5651    1.8532    2.3473 C   0  0  0  0  0  0  0  0  0  0  0  0
   11.5223    0.4351    2.5133 Cl  0  0  0  0  0  0  0  0  0  0  0  0
    9.1933    1.7318    2.1499 C   0  0  0  0  0  0  0  0  0  0  0  0
    8.4495    2.8870    2.0193 C   0  0  0  0  0  0  0  0  0  0  0  0
    6.9875    3.0435    1.7997 C   0  0  0  0  0  0  0  0  0  0  0  0
    6.1793    2.1371    1.7021 O   0  0  0  0  0  0  0  0  0  0  0  0
    6.7468    4.4782    1.7334 C   0  0  0  0  0  0  0  0  0  0  0  0
    5.5757    5.1594    1.5317 C   0  0  0  0  0  0  0  0  0  0  0  0
    4.2768    4.6863    1.3176 C   0  0  0  0  0  0  0  0  0  0  0  0
    3.8615    2.9706    1.2960 S   0  0  0  0  0  0  0  0  0  0  0  0
    2.2180    3.3614    0.9616 C   0  0  0  0  0  0  0  0  0  0  0  0
    2.0144    4.7492    0.8727 C   0  0  0  0  0  0  0  0  0  0  0  0
    3.1623    5.5041    1.0804 C   0  0  0  0  0  0  0  0  0  0  0  0
    3.1832    6.9947    0.9882 C   0  0  0  0  0  0  0  0  0  0  0  0
    3.5863    7.4435   -0.4191 C   0  0  0  0  0  0  0  0  0  0  0  0
    0.3570    5.1938    0.5087 S   0  0  0  0  0  0  0  0  0  0  0  0
   -0.0524    3.5136    0.4733 C   0  0  0  0  0  0  0  0  0  0  0  0
    1.0267    2.6633    0.7391 C   0  0  0  0  0  0  0  0  0  0  0  0
    0.6185    1.3579    0.6873 N   0  0  0  0  0  0  0  0  0  0  0  0
    1.6105    0.3082    0.6125 C   0  0  0  0  0  0  0  0  0  0  0  0
    1.6840   -0.2931   -0.7887 C   0  0  0  0  0  0  0  0  0  0  0  0
   -0.7279    1.3463    0.3704 C   0  0  0  0  0  0  0  0  0  0  0  0
   -1.1604    2.6970    0.2132 C   0  0  0  0  0  0  0  0  0  0  0  0
   -2.4623    3.0212   -0.2285 C   0  0  0  0  0  0  0  0  0  0  0  0
   -2.9891    4.2171   -0.4394 N   0  0  0  0  0  0  0  0  0  0  0  0
   -4.4881    4.0217   -1.0190 S   0  0  0  0  0  0  0  0  0  0  0  0
   -4.5228    2.4032   -1.0220 N   0  0  0  0  0  0  0  0  0  0  0  0
   -3.3620    1.9585   -0.5673 C   0  0  0  0  0  0  0  0  0  0  0  0
   -2.9545    0.6244   -0.3469 C   0  0  0  0  0  0  0  0  0  0  0  0
   -1.6749    0.3024    0.1912 C   0  0  0  0  0  0  0  0  0  0  0  0
   -1.6227   -1.0674    0.3953 N   0  0  0  0  0  0  0  0  0  0  0  0
   -0.7584   -1.8501    1.2511 C   0  0  0  0  0  0  0  0  0  0  0  0
   -0.7712   -1.3294    2.6860 C   0  0  0  0  0  0  0  0  0  0  0  0
   -2.8129   -1.5973   -0.0252 C   0  0  0  0  0  0  0  0  0  0  0  0
   -3.6481   -0.5842   -0.5042 C   0  0  0  0  0  0  0  0  0  0  0  0
   -5.1710   -1.1578   -1.0836 S   0  0  0  0  0  0  0  0  0  0  0  0
   -4.6870   -2.7956   -0.6953 C   0  0  0  0  0  0  0  0  0  0  0  0
   -3.4082   -2.8588   -0.1245 C   0  0  0  0  0  0  0  0  0  0  0  0
   -2.9625   -4.4800    0.2464 S   0  0  0  0  0  0  0  0  0  0  0  0
   -4.4612   -5.0756   -0.4708 C   0  0  0  0  0  0  0  0  0  0  0  0
   -5.2952   -4.0467   -0.8912 C   0  0  0  0  0  0  0  0  0  0  0  0
   -6.6902   -4.2514   -1.3739 C   0  0  0  0  0  0  0  0  0  0  0  0
   -7.6868   -3.2651   -0.7710 C   0  0  0  0  0  0  0  0  0  0  0  0
   -4.6190   -6.4788   -0.4995 C   0  0  0  0  0  0  0  0  0  0  0  0
   -5.2276   -7.2433   -1.4498 C   0  0  0  0  0  0  0  0  0  0  0  0
   -5.6213   -6.8809   -2.8184 C   0  0  0  0  0  0  0  0  0  0  0  0
   -5.5023   -5.8121   -3.3798 O   0  0  0  0  0  0  0  0  0  0  0  0
   -6.0991   -8.1460   -3.4402 C   0  0  0  0  0  0  0  0  0  0  0  0
   -6.5909   -8.3543   -4.7134 C   0  0  0  0  0  0  0  0  0  0  0  0
   -6.9577   -9.6467   -5.0731 C   0  0  0  0  0  0  0  0  0  0  0  0
   -7.5789   -9.9407   -6.6481 Cl  0  0  0  0  0  0  0  0  0  0  0  0
   -6.8240  -10.7066   -4.1695 C   0  0  0  0  0  0  0  0  0  0  0  0
   -7.2782  -12.2948   -4.6435 Cl  0  0  0  0  0  0  0  0  0  0  0  0
   -6.3220  -10.4921   -2.8902 C   0  0  0  0  0  0  0  0  0  0  0  0
   -5.9635   -9.2062   -2.5371 C   0  0  0  0  0  0  0  0  0  0  0  0
   -5.3904   -8.7003   -1.2634 C   0  0  0  0  0  0  0  0  0  0  0  0
   -5.1182   -9.3430   -0.2747 O   0  0  0  0  0  0  0  0  0  0  0  0
   10.8819    5.2443    2.3297 H   0  0  0  0  0  0  0  0  0  0  0  0
    8.7266    0.7606    2.1001 H   0  0  0  0  0  0  0  0  0  0  0  0
    5.6876    6.2394    1.5288 H   0  0  0  0  0  0  0  0  0  0  0  0
    3.8735    7.4155    1.7204 H   0  0  0  0  0  0  0  0  0  0  0  0
    2.1801    7.3657    1.2079 H   0  0  0  0  0  0  0  0  0  0  0  0
    2.8887    7.0487   -1.1538 H   0  0  0  0  0  0  0  0  0  0  0  0
    4.5850    7.0896   -0.6640 H   0  0  0  0  0  0  0  0  0  0  0  0
    3.5767    8.5284   -0.4802 H   0  0  0  0  0  0  0  0  0  0  0  0
    1.4220   -0.4528    1.3697 H   0  0  0  0  0  0  0  0  0  0  0  0
    2.5706    0.7700    0.8551 H   0  0  0  0  0  0  0  0  0  0  0  0
    0.7243   -0.7015   -1.0971 H   0  0  0  0  0  0  0  0  0  0  0  0
    2.4285   -1.0840   -0.8120 H   0  0  0  0  0  0  0  0  0  0  0  0
    1.9724    0.4726   -1.5049 H   0  0  0  0  0  0  0  0  0  0  0  0
    0.2529   -1.8903    0.8463 H   0  0  0  0  0  0  0  0  0  0  0  0
   -1.1495   -2.8704    1.2356 H   0  0  0  0  0  0  0  0  0  0  0  0
   -1.7765   -1.3944    3.0958 H   0  0  0  0  0  0  0  0  0  0  0  0
   -0.4532   -0.2905    2.7327 H   0  0  0  0  0  0  0  0  0  0  0  0
   -0.1071   -1.9287    3.3028 H   0  0  0  0  0  0  0  0  0  0  0  0
   -6.9968   -5.2722   -1.1355 H   0  0  0  0  0  0  0  0  0  0  0  0
   -6.6931   -4.1605   -2.4648 H   0  0  0  0  0  0  0  0  0  0  0  0
   -7.6292   -3.2788    0.3154 H   0  0  0  0  0  0  0  0  0  0  0  0
   -8.6952   -3.5440   -1.0656 H   0  0  0  0  0  0  0  0  0  0  0  0
   -7.4997   -2.2524   -1.1163 H   0  0  0  0  0  0  0  0  0  0  0  0
   -4.1536   -7.0288    0.3147 H   0  0  0  0  0  0  0  0  0  0  0  0
   -6.6891   -7.5375   -5.4111 H   0  0  0  0  0  0  0  0  0  0  0  0
   -6.2127  -11.3098   -2.1954 H   0  0  0  0  0  0  0  0  0  0  0  0
  1  2  2  0  0  0  0
  1  3  1  0  0  0  0
  3  4  2  0  0  0  0
  4  5  1  0  0  0  0
  5  6  1  0  0  0  0
  5  7  2  0  0  0  0
  7  8  1  0  0  0  0
  7  9  1  0  0  0  0
  9 10  2  0  0  0  0
  3 10  1  0  0  0  0
 10 11  1  0  0  0  0
 11 12  2  0  0  0  0
 11 13  1  0  0  0  0
  1 13  1  0  0  0  0
 13 14  2  0  0  0  0
 14 15  1  0  0  0  0
 15 16  1  0  0  0  0
 16 17  1  0  0  0  0
 17 18  2  0  0  0  0
 18 19  1  0  0  0  0
 19 20  1  0  0  0  0
 20 21  1  0  0  0  0
 15 19  2  0  0  0  0
 18 22  1  0  0  0  0
 22 23  1  0  0  0  0
 23 24  2  0  0  0  0
 17 24  1  0  0  0  0
 24 25  1  0  0  0  0
 25 26  1  0  0  0  0
 26 27  1  0  0  0  0
 25 28  1  0  0  0  0
 28 29  2  0  0  0  0
 23 29  1  0  0  0  0
 29 30  1  0  0  0  0
 30 31  2  0  0  0  0
 31 32  1  0  0  0  0
 32 33  1  0  0  0  0
 33 34  2  0  0  0  0
 30 34  1  0  0  0  0
 34 35  1  0  0  0  0
 35 36  2  0  0  0  0
 28 36  1  0  0  0  0
 36 37  1  0  0  0  0
 37 38  1  0  0  0  0
 38 39  1  0  0  0  0
 37 40  1  0  0  0  0
 40 41  2  0  0  0  0
 35 41  1  0  0  0  0
 41 42  1  0  0  0  0
 42 43  1  0  0  0  0
 43 44  2  0  0  0  0
 40 44  1  0  0  0  0
 44 45  1  0  0  0  0
 45 46  1  0  0  0  0
 46 47  2  0  0  0  0
 43 47  1  0  0  0  0
 47 48  1  0  0  0  0
 48 49  1  0  0  0  0
 46 50  1  0  0  0  0
 50 51  2  0  0  0  0
 51 52  1  0  0  0  0
 52 53  2  0  0  0  0
 52 54  1  0  0  0  0
 54 55  2  0  0  0  0
 55 56  1  0  0  0  0
 56 57  1  0  0  0  0
 56 58  2  0  0  0  0
 58 59  1  0  0  0  0
 58 60  1  0  0  0  0
 60 61  2  0  0  0  0
 54 61  1  0  0  0  0
 61 62  1  0  0  0  0
 62 63  2  0  0  0  0
 51 62  1  0  0  0  0
  4 64  1  0  0  0  0
  9 65  1  0  0  0  0
 14 66  1  0  0  0  0
 20 67  1  0  0  0  0
 20 68  1  0  0  0  0
 21 69  1  0  0  0  0
 21 70  1  0  0  0  0
 21 71  1  0  0  0  0
 26 72  1  0  0  0  0
 26 73  1  0  0  0  0
 27 74  1  0  0  0  0
 27 75  1  0  0  0  0
 27 76  1  0  0  0  0
 38 77  1  0  0  0  0
 38 78  1  0  0  0  0
 39 79  1  0  0  0  0
 39 80  1  0  0  0  0
 39 81  1  0  0  0  0
 48 82  1  0  0  0  0
 48 83  1  0  0  0  0
 49 84  1  0  0  0  0
 49 85  1  0  0  0  0
 49 86  1  0  0  0  0
 50 87  1  0  0  0  0
 55 88  1  0  0  0  0
 60 89  1  0  0  0  0
M  END
