224
PBDT-Se-TAZ.sdf
C         -2.18358        5.46694        2.37842
C         -2.86130        4.38177        1.75787
C         -2.14294        3.35571        1.11202
C         -0.72518        3.31720        1.02664
C         -0.04661        4.40182        1.65319
C         -0.77009        5.42524        2.29873
C         -4.26090        4.18951        1.66767
C         -4.63650        3.02759        1.01667
S         -3.25542        2.22689        0.53053
C          1.35200        4.63050        1.70097
C          1.70918        5.77621        2.40535
S          0.32598        6.51607        2.96227
C         -2.89177        6.59187        3.09417
C         -0.01442        2.18078        0.33141
C         -0.52981        1.49054       -0.76282
C          0.25630        0.45868       -1.21358
C          1.41802        0.29910       -0.49413
Se         1.60374        1.49578        0.85469
C         -2.42088        7.90223        3.15254
C         -3.21306        8.76521        3.86716
C         -4.33234        8.16710        4.39673
Se        -4.45683        6.40006        4.02670
C          3.06847        6.27878        2.64544
S          4.47961        5.55188        2.12618
C          5.55161        6.67141        2.80308
C          4.78550        7.64682        3.44457
C          3.40428        7.42510        3.35557
C          7.03912        6.58253        2.73319
C          7.66700        5.50163        2.04762
C          9.06776        5.39201        1.97456
C          9.89999        6.34453        2.59499
C          9.26802        7.38919        3.26203
C          7.90998        7.52304        3.32948
N          9.83860        8.42527        3.88984
N          8.83341        9.16473        4.33262
N          7.64582        8.65431        4.01820
C         11.37272        6.26277        2.54148
C          9.04716       10.41642        5.05884
C          9.83626       10.15613        6.33944
C         12.13176        5.62789        1.56222
C         13.50635        5.74976        1.76417
C         13.82769        6.45842        2.91226
S         12.41803        6.95953        3.66243
C          2.43239       -0.77119       -0.77482
C         -5.37488        8.89941        5.18510
C         -4.80017        9.46659        6.47840
F          6.94658        4.52765        1.43914
F          9.59224        4.32342        1.32498
C          3.00867       -0.65523       -2.18400
C         17.51163        8.11165        5.91516
C         16.88055        7.53105        4.78610
C         17.63464        7.07541        3.68556
C         19.04608        7.17255        3.59999
C         19.68178        7.75049        4.73573
C         18.92322        8.19337        5.84079
C         15.49443        7.36967        4.58591
C         15.17551        6.74853        3.39102
S         16.57713        6.39752        2.56340
C         21.06524        7.98673        4.91654
C         21.38013        8.55231        6.14564
S         19.97628        8.77912        7.01429
C         16.75735        8.59412        7.13164
C         19.78879        6.69146        2.37367
C         19.26208        6.73032        1.08313
C         20.09579        6.25262        0.10432
C         21.31167        5.82529        0.58195
Se        21.47924        5.98251        2.38014
C         17.15724        9.66457        7.92677
C         16.35435        9.90234        9.01502
C         15.29354        9.03177        9.11558
Se        15.23744        7.80328        7.78613
C         22.71947        8.89769        6.63154
S         24.14773        8.66468        5.79509
C         25.18421        9.25823        6.99108
C         24.39159        9.65592        8.07014
C         23.02159        9.45494        7.86731
C         26.67147        9.30120        6.89414
C         27.33780        8.81847        5.72679
C         28.74232        8.83817        5.62523
C         29.53768        9.31415        6.68836
C         28.86434        9.77985        7.81326
C         27.50530        9.79081        7.92318
N         29.39183       10.31029        8.92262
N         28.36156       10.64245        9.68488
N         27.19350       10.33897        9.11919
C         31.00847        9.34526        6.63467
C         28.52863       11.28025       10.98739
C         29.32208       12.58214       10.84493
C         31.79757        9.41219        5.49092
C         33.16336        9.46005        5.76921
C         33.44558        9.40678        7.12754
S         32.01487        9.33142        7.98491
C         22.40039        5.27495       -0.29107
C         14.28647        9.06532       10.22754
C         13.54486       10.39835       10.29021
F         26.65315        8.31962        4.66911
F         29.31360        8.34692        4.49657
C         22.85899        6.29328       -1.33362
C         37.07874        9.24202       10.62378
C         36.45408        9.36544        9.35419
C         37.21389        9.62059        8.19638
C         38.61713        9.79260        8.19128
C         39.24984        9.66532        9.45751
C         38.48824        9.39780       10.61659
C         35.07241        9.29558        9.07137
C         34.77441        9.43036        7.72510
S         36.18036        9.64190        6.86991
C         40.63019        9.80528        9.74250
C         40.94042        9.60842       11.08657
S         39.53798        9.27066       11.92023
C         36.31941        8.94955       11.89924
C         39.34441       10.07204        6.90037
C         38.79854       10.81134        5.85170
C         39.57802       10.87774        4.72853
C         40.76677       10.19937        4.85151
Se        41.00671        9.43119        6.48142
C         36.70573        9.39151       13.16292
C         35.87336        9.00966       14.18598
C         34.80108        8.25651       13.76922
Se        34.79252        7.93644       11.98833
C         42.26567        9.67036       11.71692
S         43.71204        9.98532       10.94033
C         44.71051        9.84582       12.30141
C         43.88876        9.55377       13.39217
C         42.53102        9.45721       13.06407
C         46.19910        9.97440       12.29627
C         46.90081       10.23661       11.08344
C         48.30740       10.33961       11.05362
C         49.07174       10.16358       12.22690
C         48.36343        9.91245       13.39703
C         47.00034        9.83361       13.45174
N         48.85564        9.74909       14.62945
N         47.80433        9.58438       15.41572
N         46.65475        9.62044       14.74080
C         50.55221       10.24387       12.24485
C         47.93787        9.39830       16.85783
C         48.69246       10.57762       17.47715
C         51.36143       10.91889       11.33664
C         52.72638       10.81802       11.62884
C         53.00402       10.05498       12.75328
S         51.55299        9.53001       13.40173
C         41.77892       10.11577        3.74962
C         33.73456        7.73952       14.68874
C         33.00441        8.87784       15.39881
F         46.24806       10.39097        9.90483
F         48.90581       10.56933        9.85880
C         41.21413        9.39121        2.52917
H         -5.01835        4.84924        2.04054
H         -5.65358        2.69991        0.84879
H          2.10448        4.01463        1.24757
H         -1.45763        1.72384       -1.25820
H         -0.02096       -0.16480       -2.05376
H         -1.53126        8.26402        2.66452
H         -2.97964        9.81587        3.98261
H          5.18692        8.49482        3.97545
H          2.67507        8.08358        3.80753
H          8.07432       10.89214        5.30862
H          9.62710       11.11330        4.41446
H          9.26528        9.47587        7.00511
H         10.02325       11.11262        6.87111
H         10.81765        9.69042        6.10183
H         11.72126        5.11762        0.70459
H         14.23857        5.33138        1.08788
H          1.95242       -1.76562       -0.65525
H          3.26443       -0.69193       -0.04287
H         -6.19919        8.20085        5.44250
H         -5.79236        9.72122        4.56447
H         -4.39411        8.64515        7.10685
H         -5.60446        9.98356        7.04247
H         -3.99200       10.19694        6.26306
H          2.20879       -0.77019       -2.94591
H          3.75835       -1.45917       -2.34197
H          3.50542        0.32878       -2.32030
H         14.72099        7.68798        5.25624
H         21.83762        7.77430        4.20549
H         18.29695        7.12662        0.81725
H         19.81859        6.23310       -0.94189
H         18.01112       10.29220        7.73215
H         16.54739       10.69926        9.72107
H         24.76674       10.07161        8.99147
H         22.27495        9.70218        8.61084
H         29.09179       10.59566       11.65808
H         27.53866       11.49480       11.44345
H         30.32206       12.37991       10.40236
H         29.47452       13.04700       11.84172
H         28.77997       13.29771       10.19177
H         31.41260        9.46005        4.48388
H         33.91723        9.53284        4.99798
H         22.02873        4.36367       -0.80523
H         23.27127        4.99554        0.33929
H         14.80917        8.89145       11.19155
H         13.54449        8.25191       10.07745
H         14.25360       11.23243       10.47863
H         12.81136       10.37024       11.12360
H         13.00054       10.58690        9.34057
H         22.02156        6.56935       -2.00919
H         23.67074        5.85079       -1.94848
H         23.24491        7.20983       -0.83848
H         34.28618        9.16171        9.78635
H         41.39282       10.04592        9.02423
H         37.84448       11.31276        5.87638
H         39.27325       11.40806        3.83483
H         37.55895       10.01451       13.36857
H         36.04387        9.29393       15.21609
H         44.23382        9.39733       14.40115
H         41.76754        9.22694       13.79495
H         48.51951        8.47037       17.04719
H         46.93889        9.30052       17.33183
H         49.70018       10.67972       17.01636
H         48.82861       10.41269       18.56668
H         48.13150       11.52279       17.32113
H         50.99111       11.49424       10.50128
H         53.49230       11.29496       11.03519
H         53.98553        9.84277       13.15189
H         42.67033        9.56082        4.10937
H         42.09194       11.14272        3.46308
H         34.19578        7.06782       15.44285
H         32.99337        7.15582       14.10166
H         33.70818        9.46372       16.02736
H         32.21589        8.45661       16.05715
H         32.52729        9.55484       14.65813
H         40.90944        8.35844        2.80361
H         41.99223        9.33525        1.73945
H         40.33499        9.93186        2.11823
