254
PvBDT-F.sdf
C          5.65612       13.82379       -0.79896
C          4.33335       14.06296       -1.27676
C          3.77189       13.14377       -2.17278
C          4.53649       12.07586       -2.69436
C          5.88702       11.91011       -2.29593
C          6.40150       12.74365       -1.29950
C          3.39203       15.13133       -1.00416
C          2.15813       14.94491       -1.54680
S          2.10122       13.51814       -2.46417
C          6.92398       11.01337       -2.76103
C          8.05367       11.02637       -1.98478
S          7.96945       12.20441       -0.79000
C          6.27252       14.73902        0.18644
C          3.91953       11.10201       -3.63219
C          7.57328       15.22113        0.27676
C          7.72184       16.18784        1.29410
C          6.54556       16.47915        1.93683
S          5.37028       15.30523        1.54802
C          3.01791       11.28305       -4.67408
C          2.75388       10.08539       -5.38016
C          3.47390        9.01272       -4.92654
S          4.22551        9.40354       -3.44567
C          6.23178       17.60026        2.86713
C          5.88697       18.86923        2.09955
C          3.63595        7.65715       -5.52680
C          2.38122        6.82106       -5.42086
C          9.18034       10.16158       -2.11489
S          8.94357        8.47956       -2.22023
C         10.55679        8.22446       -2.74346
C         11.30432        9.36983       -2.54168
C         10.51694       10.48110       -2.12499
C         10.95586        6.89770       -3.22039
C         10.14467        6.20586       -4.14459
C         10.53073        4.91914       -4.53480
C         11.71731        4.36542       -4.02077
C         12.55432        5.05396       -3.11519
C         12.15136        6.32902       -2.71824
C         13.80704        4.69209       -2.48124
C         14.33480        5.67534       -1.68096
S         13.27482        6.98684       -1.56934
C         15.63429        5.68004       -0.93684
C         16.73136        6.37082       -1.73384
C          8.89256        6.54194       -4.82883
C          8.34392        5.51414       -5.56254
S          9.42058        4.21590       -5.66094
C          7.00715        5.43758       -6.22233
C          7.04526        5.93276       -7.65931
C         12.07508        3.02382       -4.45572
S         13.59505        2.77419       -5.18286
C         13.32942        1.09811       -5.27687
C         12.02347        0.76412       -4.99957
C         11.31215        1.87053       -4.47769
F          8.84245       16.81653        1.52128
F          1.95537       10.02882       -6.41178
C         17.93178       -0.91380       -5.65723
C         16.55413       -0.65470       -5.83046
C         15.80463       -1.51848       -6.63905
C         16.42071       -2.53020       -7.38207
C         17.81754       -2.70806       -7.30354
C         18.54372       -1.94269       -6.37747
C         15.71992        0.39454       -5.33422
C         14.39349        0.23548       -5.64572
S         14.12298       -1.17194       -6.51770
C         18.70717       -3.55633       -8.02414
C         19.97981       -3.56834       -7.52564
S         20.17218       -2.48667       -6.26367
C         18.74434       -0.07698       -4.73988
C         15.58514       -3.43394       -8.21196
C         20.03791        0.41343       -4.87962
C         20.39610        1.28962       -3.83399
C         19.38341        1.49925       -2.93909
S         18.13946        0.35815       -3.17895
C         14.47667       -3.16544       -9.00784
C         13.92656       -4.32864       -9.58706
C         14.65139       -5.46146       -9.32439
S         15.86115       -5.13897       -8.16479
C         19.27660        2.54385       -1.88884
C         18.83271        3.86052       -2.51088
C         14.49225       -6.83223       -9.88464
C         13.74535       -7.74844       -8.93651
C         21.03926       -4.38642       -7.96568
S         20.80117       -6.05637       -8.10504
C         22.23624       -6.22783       -9.01607
C         22.99656       -5.07111       -8.94338
C         22.32921       -4.01470       -8.27203
C         22.53675       -7.51714       -9.63082
C         21.52843       -8.20475      -10.36934
C         21.87059       -9.44681      -10.89643
C         23.16271       -9.96245      -10.71266
C         24.16722       -9.28442       -9.98163
C         23.82701       -8.05046       -9.43527
C         25.54428       -9.61831       -9.66109
C         26.21550       -8.64934       -8.95376
S         25.16174       -7.40039       -8.52648
C         27.65012       -8.62841       -8.51715
C         28.55675       -7.95106       -9.53722
C         20.14808       -7.88894      -10.70737
C         19.47037       -8.89925      -11.35964
S         20.53486      -10.14816      -11.75988
C         18.02913       -8.96657      -11.77096
C         17.14046       -9.59309      -10.70172
C         23.47128      -11.25396      -11.30417
S         24.83182      -11.39892      -12.32280
C         24.63842      -13.08273      -12.40468
C         23.41035      -13.48434      -11.93795
C         22.75787      -12.43757      -11.25174
F         21.53453        1.92715       -3.79615
F         12.86217       -4.31643      -10.34310
C         29.11979      -14.71451      -14.00096
C         27.73804      -14.59347      -13.76097
C         26.85982      -15.42309      -14.47531
C         27.32280      -16.30839      -15.45924
C         28.70474      -16.43313      -15.69325
C         29.59039      -15.62899      -14.96102
C         27.00768      -13.73240      -12.87605
C         25.65026      -13.88157      -12.99394
S         25.24818      -15.22288      -13.91555
C         29.42003      -17.28768      -16.58556
C         30.77999      -17.22642      -16.43488
S         31.21629      -15.93163      -15.44649
C         30.05752      -13.86485      -13.23118
C         26.37407      -17.19295      -16.18352
C         30.01029      -12.50643      -12.95540
C         31.12854      -12.06882      -12.20404
C         32.03729      -13.05921      -11.94215
S         31.41488      -14.57265      -12.42959
C         26.45891      -18.54841      -16.47263
C         25.25424      -19.06018      -17.01205
C         24.25347      -18.12849      -17.10166
S         24.91127      -16.56533      -16.87655
C         33.37620      -12.97028      -11.28615
C         33.31254      -13.42468       -9.83919
C         22.80166      -18.32091      -17.39109
C         22.03403      -18.75351      -16.13902
C         31.76000      -18.02177      -17.09628
S         31.34527      -18.94385      -18.46412
C         32.98533      -19.11772      -18.91682
C         33.80351      -18.77950      -17.84901
C         33.08507      -18.20121      -16.76765
C         33.29745      -19.67995      -20.23580
C         32.61355      -19.20522      -21.38521
C         32.84919      -19.86460      -22.59710
C         33.84191      -20.87072      -22.69113
C         34.58080      -21.28078      -21.54536
C         34.24229      -20.71481      -20.31350
C         35.68688      -22.19826      -21.37002
C         36.02898      -22.43476      -20.05901
S         35.09212      -21.49655      -19.01771
C         37.04724      -23.38582      -19.51502
C         36.41309      -24.71671      -19.13375
C         31.67355      -18.11338      -21.57837
C         31.10437      -18.06927      -22.82852
S         31.74901      -19.28511      -23.81563
C         30.05741      -17.12139      -23.34520
C         28.65198      -17.69504      -23.23860
C         34.12948      -21.48220      -24.01005
S         34.34439      -23.18618      -24.17734
C         34.76720      -23.05562      -25.82352
C         34.54967      -21.78720      -26.30286
C         34.21172      -20.88175      -25.25724
F         31.28940      -10.82902      -11.82544
F         25.08821      -20.32185      -17.30035
H          3.60354       16.00197       -0.39038
H          1.28797       15.56969       -1.44575
H          6.81844       10.33668       -3.59938
H          8.38461       14.94443       -0.38355
H          2.58291       12.23169       -4.95424
H          7.09193       17.78867        3.52255
H          5.38659       17.33578        3.51786
H          6.72393       19.19860        1.47103
H          5.65157       19.68107        2.79569
H          5.02012       18.72484        1.44535
H          4.45912        7.12310       -5.03833
H          3.92495        7.76289       -6.58141
H          2.07830        6.69770       -4.37289
H          2.55013        5.82909       -5.84689
H          1.54634        7.28661       -5.96136
H         12.37317        9.43737       -2.70474
H         10.91040       11.47343       -1.94077
H         14.32186        3.75116       -2.63049
H         15.93445        4.64918       -0.71828
H         15.52161        6.18443        0.03041
H         16.90329        5.86067       -2.68882
H         17.66575        6.36676       -1.16131
H         16.48881        7.40984       -1.96112
H          8.37818        7.48442       -4.72324
H          6.29707        6.04346       -5.65115
H          6.61856        4.41285       -6.19942
H          7.41626        6.96013       -7.71189
H          6.04018        5.90799       -8.09204
H          7.69567        5.30374       -8.27606
H         11.61234       -0.23284       -5.10147
H         10.28242        1.81927       -4.14753
H         16.07382        1.22871       -4.74497
H         18.40483       -4.19457       -8.86646
H         20.69220        0.21186       -5.71618
H         14.05251       -2.18121       -9.16117
H         20.24632        2.68690       -1.40180
H         18.56022        2.25874       -1.11189
H         19.50938        4.19913       -3.30272
H         18.81386        4.62839       -1.73825
H         17.83085        3.77086       -2.95003
H         15.48233       -7.25105      -10.10235
H         13.96510       -6.78226      -10.84591
H         14.26042       -7.83891       -7.97691
H         13.66144       -8.75269       -9.37055
H         12.73501       -7.37255       -8.74276
H         23.99279       -4.96775       -9.35792
H         22.73572       -3.02562       -8.12556
H         26.04237      -10.52917       -9.96456
H         27.99529       -9.65789       -8.36384
H         27.75081       -8.11948       -7.55115
H         28.52835       -8.46804      -10.50225
H         29.59293       -7.95678       -9.18236
H         28.26587       -6.90806       -9.70557
H         19.64437       -6.97138      -10.44156
H         17.92054       -9.54260      -12.69912
H         17.66592       -7.95655      -11.98882
H         17.43577      -10.62277      -10.47721
H         16.09942       -9.61183      -11.04240
H         17.17753       -9.02195       -9.76622
H         23.02849      -14.49537      -12.01869
H         21.81014      -12.55616      -10.74288
H         27.45668      -12.99532      -12.22485
H         28.94401      -17.97536      -17.27129
H         29.22116      -11.84321      -13.28539
H         27.31272      -19.17132      -16.24536
H         33.74764      -11.93910      -11.33400
H         34.10499      -13.58287      -11.83525
H         32.60382      -12.81210       -9.27005
H         34.29696      -13.34265       -9.36892
H         32.98879      -14.46699       -9.76463
H         22.68032      -19.08770      -18.16352
H         22.35164      -17.40272      -17.77759
H         22.42244      -19.69122      -15.73268
H         20.97606      -18.90441      -16.38360
H         22.09285      -17.99487      -15.34971
H         34.87716      -18.91001      -17.83258
H         33.54096      -17.84690      -15.85026
H         36.19271      -22.71208      -22.17591
H         37.55380      -22.95493      -18.64218
H         37.82232      -23.55764      -20.27160
H         35.68527      -24.59320      -18.32504
H         37.17883      -25.42022      -18.79372
H         35.89176      -25.16426      -19.98658
H         31.38818      -17.40625      -20.80833
H         30.26586      -16.85489      -24.38745
H         30.10100      -16.18567      -22.77266
H         28.54894      -18.61750      -23.81961
H         27.91974      -16.97520      -23.62129
H         28.39061      -17.92035      -22.19920
H         35.10255      -23.92450      -26.37230
H         34.66131      -21.50965      -27.34292
H         34.04478      -19.82477      -25.42765
