254
PvBDT-Cl.sdf
C         -1.82020        7.22078        4.65836
C         -2.61404        6.22713        5.29184
C         -2.03067        4.95723        5.53417
C         -0.66929        4.72245        5.24168
C          0.13532        5.72404        4.60924
C         -0.46405        6.95564        4.31286
C         -3.96960        6.25329        5.79283
C         -4.42330        5.04725        6.27140
S         -3.22381        3.86304        6.15526
C          1.52815        5.73676        4.24747
C          1.95138        6.88408        3.60773
S          0.65338        7.97229        3.47700
C         -2.39594        8.55878        4.34037
C         -0.02602        3.41518        5.53110
C         -1.83917        9.81980        4.48883
C         -2.67647       10.87240        4.02219
C         -3.90744       10.41875        3.60826
S         -3.95193        8.70516        3.60969
C          0.85178        2.66812        4.76233
C          1.32945        1.49280        5.40891
C          0.73883        1.29510        6.63638
S         -0.22419        2.64421        7.06886
C         -5.09573       11.18636        3.13001
C         -5.97577       11.68495        4.27785
C          0.88128        0.14758        7.59362
C         -0.05894       -1.00505        7.26023
C          3.27755        7.19527        3.10671
S          4.65136        6.24929        3.50417
C          5.76059        7.31816        2.73317
C          5.05239        8.31998        2.08700
C          3.64007        8.22369        2.26005
C          7.22423        7.05329        2.74864
C          7.87900        6.68762        3.95903
C          9.25208        6.39276        3.90656
C          9.98202        6.53692        2.70371
C          9.33551        6.93620        1.50550
C          7.95395        7.16435        1.54090
C          9.85748        7.17709        0.17568
C          8.90563        7.50194       -0.75694
S          7.36860        7.54181       -0.05486
C          9.10229        7.78999       -2.21409
C          8.86143        6.55596       -3.07085
C          7.39219        6.56319        5.32025
C          8.32008        6.08987        6.21777
S          9.80602        5.82483        5.45470
C          8.13199        5.77906        7.67361
C          8.30217        7.00788        8.55492
C         11.43727        6.24840        2.63219
S         12.54122        6.89596        3.78021
C         13.91188        6.15680        3.05758
C         13.54920        5.54448        1.87403
C         12.13907        5.54919        1.66271
Cl        -2.15729       12.50387        4.00999
Cl         2.49823        0.47272        4.68242
C         17.73334        7.41955        6.20976
C         17.00243        6.88899        5.11300
C         17.72105        6.41326        4.00766
C         19.13506        6.46984        3.96760
C         19.86370        7.03407        5.05214
C         19.14679        7.47618        6.17151
C         15.57928        6.72445        4.89170
C         15.23355        6.26966        3.63923
S         16.63104        5.76860        2.82086
C         21.28216        7.27654        5.24317
C         21.63589        7.72179        6.49736
S         20.23417        8.07408        7.38453
C         17.01802        7.93976        7.40715
C         19.85642        5.92706        2.78207
C         17.30687        7.76990        8.75433
C         16.43510        8.48939        9.62198
C         15.42674        9.12848        8.93691
S         15.67445        9.00963        7.24791
C         19.53943        5.99450        1.43132
C         20.46243        5.31182        0.58799
C         21.54474        4.83430        1.29040
S         21.27189        4.95802        2.97366
C         14.26782        9.92492        9.46707
C         13.07618        9.05693        9.84247
C         22.82512        4.24139        0.78462
C         22.81601        2.72292        0.83970
C         22.96488        7.89321        7.05053
S         24.37832        7.80414        6.08035
C         25.45369        7.91288        7.42110
C         24.71928        8.11269        8.58026
C         23.31030        8.14152        8.36493
C         26.92796        7.87456        7.23519
C         27.52691        6.88853        6.39943
C         28.91942        6.93313        6.22081
C         29.71271        7.87091        6.92018
C         29.12170        8.82797        7.78452
C         27.72774        8.83322        7.90570
C         29.71407        9.85004        8.62085
C         28.80345       10.64007        9.27671
S         27.22385       10.15827        8.91777
C         29.07039       11.80714       10.18138
C         29.39360       11.36717       11.59900
C         26.96655        5.77577        5.65912
C         27.86774        5.09057        4.88089
S         29.41821        5.75004        5.04876
C         27.61790        3.94581        3.94718
C         27.62221        2.60278        4.66499
C         31.18592        7.91223        6.76346
S         32.14186        6.49247        6.91958
C         33.62092        7.31930        6.66540
C         33.39530        8.67923        6.56275
C         32.00946        9.01181        6.57842
Cl        16.66921        8.51298       11.31750
Cl        20.22430        5.18462       -1.10118
C         37.17276        3.63411        6.28778
C         36.52856        4.89405        6.43716
C         37.33716        6.03164        6.58789
C         38.74874        5.93688        6.59807
C         39.39065        4.67878        6.49250
C         38.58738        3.54882        6.30846
C         35.12728        5.27159        6.47997
C         34.88939        6.62168        6.62198
S         36.35963        7.44745        6.78344
C         40.79355        4.30691        6.53137
C         41.03786        2.95979        6.38715
S         39.58173        2.15131        6.07431
C         36.38741        2.37539        6.14611
C         39.60218        7.14631        6.71548
C         36.62825        1.12726        6.70871
C         35.73455        0.11304        6.27046
C         34.71657        0.62658        5.50193
S         35.01859        2.26464        5.10580
C         40.72328        7.36438        7.50280
C         41.35920        8.61502        7.24985
C         40.65087        9.39112        6.35902
S         39.34489        8.51064        5.69444
C         33.47427       -0.05479        5.00638
C         33.61064       -0.54813        3.57813
C         40.91389       10.79071        5.88372
C         40.33966       11.84294        6.82337
C         42.30254        2.25753        6.39609
S         43.77610        3.00513        6.85314
C         44.74018        1.66134        6.36424
C         43.90955        0.61248        6.00393
C         42.52532        0.93094        6.08280
C         46.22377        1.70061        6.43612
C         46.93754        2.83290        5.95265
C         48.33652        2.83542        6.08361
C         49.02447        1.70881        6.59400
C         48.31306        0.56723        7.04628
C         46.91331        0.59299        6.98626
C         48.77541       -0.69641        7.58295
C         47.77403       -1.54942        7.97321
S         46.25758       -0.85912        7.69102
C         47.90576       -2.90830        8.59295
C         48.13456       -3.98866        7.54686
C         46.49277        4.05132        5.29964
C         47.48887        4.97003        5.06629
S         48.98243        4.37212        5.58691
C         47.37410        6.34873        4.48413
C         47.39891        6.34148        2.96334
C         50.50610        1.69154        6.71439
S         51.52366        2.17498        5.40632
C         52.95250        1.91940        6.30212
C         52.69317        1.33240        7.51620
C         51.29303        1.24345        7.76851
Cl        35.93016       -1.52424        6.72605
Cl        42.83706        9.04323        7.99886
H         -4.61449        7.12110        5.78932
H         -5.40155        4.81834        6.66450
H          2.20361        4.91381        4.42349
H         -0.84609        9.99304        4.88429
H          1.17347        2.96727        3.77291
H         -5.71758       10.57792        2.46555
H         -4.77728       12.05460        2.54265
H         -6.34178       10.84674        4.89740
H         -6.83148       12.21541        3.88241
H         -5.42608       12.36551        4.94294
H          0.68020        0.48002        8.61908
H          1.91464       -0.21653        7.58669
H         -1.10619       -0.68379        7.26338
H          0.04876       -1.80337        8.00273
H          0.15959       -1.43113        6.27600
H          5.51343        9.09337        1.48541
H          2.93644        8.90789        1.80013
H         10.90247        7.10001       -0.09573
H         10.12863        8.14167       -2.37793
H          8.44105        8.60225       -2.53824
H          9.53803        5.74119       -2.79088
H          9.02945        6.78962       -4.12680
H          7.83451        6.19060       -2.96449
H          6.37917        6.78198        5.63154
H          8.83388        5.00139        7.99851
H          7.12617        5.36829        7.82523
H          9.30939        7.42821        8.46494
H          8.13949        6.74315        9.60511
H          7.58398        7.79117        8.29005
H         14.25092        5.08032        1.19125
H         11.67109        5.08079        0.80502
H         14.82381        6.99373        5.61711
H         22.03143        7.06730        4.49267
H         18.14004        7.18078        9.11731
H         18.66511        6.50094        1.04300
H         13.94546       10.66382        8.72131
H         14.58812       10.49909       10.34433
H         12.70841        8.48275        8.98533
H         12.25467        9.68694       10.20098
H         13.32760        8.34984       10.63965
H         23.66781        4.62205        1.37301
H         23.00914        4.56516       -0.24608
H         22.66134        2.36077        1.86104
H         23.77311        2.32817        0.48404
H         22.01883        2.30907        0.20988
H         25.16377        8.25578        9.55672
H         22.59354        8.30199        9.16188
H         30.77866       10.01498        8.72454
H         28.21377       12.49072       10.19773
H         29.91805       12.38211        9.78126
H         28.56152       10.81232       12.04518
H         29.59445       12.24112       12.22934
H         30.28007       10.72347       11.62567
H         25.91898        5.49586        5.67315
H         28.36661        3.92638        3.14604
H         26.64683        4.08563        3.45828
H         28.59063        2.40355        5.13563
H         27.42116        1.79471        3.95233
H         26.85315        2.56384        5.44365
H         34.18207        9.41792        6.46174
H         31.64445       10.02867        6.49382
H         34.31186        4.56648        6.39383
H         41.59964        5.01509        6.66502
H         37.44973        0.92310        7.38388
H         41.11133        6.63351        8.20231
H         32.62018        0.63011        5.07896
H         33.23031       -0.90401        5.65676
H         33.82970        0.27495        2.88992
H         32.67718       -1.01926        3.25286
H         34.41379       -1.28723        3.48798
H         40.48335       10.93874        4.88562
H         41.99393       10.94866        5.77768
H         39.25762       11.72529        6.94782
H         40.52319       12.84564        6.41823
H         40.80032       11.79193        7.81427
H         44.26412       -0.36510        5.70155
H         41.74045        0.22031        5.85373
H         49.81680       -0.96879        7.69549
H         47.01662       -3.15608        9.18493
H         48.75116       -2.90155        9.29230
H         47.29515       -4.04797        6.84608
H         48.24382       -4.96593        8.02814
H         49.04403       -3.79515        6.96721
H         45.46539        4.26743        5.03734
H         48.18175        6.99199        4.85397
H         46.43717        6.80584        4.82549
H         48.33821        5.92824        2.58094
H         47.29861        7.36436        2.57908
H         46.57571        5.74598        2.55348
H         53.91548        2.17064        5.87888
H         53.46614        1.01037        8.20318
H         50.88573        0.84397        8.68949
