314
Qx-10F.sdf
C         -3.14258       -0.68395        5.63395
C         -3.28476       -1.12818        4.29283
C         -2.14642       -1.59345        3.61875
C         -0.86542       -1.53128        4.21894
C         -0.71435       -1.06632        5.54921
C         -1.86947       -0.68200        6.25379
C         -4.44100       -1.16460        3.41809
C         -4.21137       -1.72324        2.18491
S         -2.60336       -2.24034        2.07132
C          0.45860       -0.88398        6.37886
C          0.19944       -0.51724        7.67896
S         -1.46581       -0.28284        7.88743
C         -4.38459       -0.31610        6.37022
C          0.32169       -1.91589        3.40003
C         -5.62999       -0.92807        6.30096
C         -6.62780       -0.29994        7.09509
C         -6.11269        0.73031        7.84640
S         -4.48880        1.04988        7.41937
C          0.56935       -1.65572        2.05892
C          1.80080       -2.18450        1.58551
C          2.53156       -2.76741        2.59439
S          1.62061       -2.85745        4.03709
C         -6.82017        1.54474        8.88799
C         -6.78502        0.87036       10.25439
C          3.92068       -3.32582        2.51490
C          4.98093       -2.24699        2.69980
C          1.13681       -0.35148        8.76778
S          2.79326       -0.77877        8.62577
C          3.17167       -0.30534       10.23259
C          2.03241        0.17374       10.85100
C          0.87100        0.11620       10.03800
C          4.54521       -0.40197       10.79345
C          5.66341       -0.21317        9.97486
C          6.94363       -0.19685       10.49776
C          7.16693       -0.28249       11.87322
C          6.05051       -0.46611       12.72247
C          4.74631       -0.60335       12.18110
N          6.20462       -0.49205       14.06656
C          5.15267       -0.73470       14.89625
C          3.88792       -1.01530       14.35763
N          3.70924       -0.91727       13.01188
C          8.55255       -0.19804       12.41211
C          2.67455       -1.41721       15.12105
C          5.51760       -0.64879       16.32748
C          1.38599       -0.94856       14.81343
C          0.28388       -1.19762       15.64150
C          0.41876       -1.91109       16.82726
C          1.67801       -2.40253       17.13910
C          2.75392       -2.22475       16.26642
C          4.66766       -0.10419       17.29761
C          4.94631       -0.18030       18.66363
C          6.15681       -0.69032       19.12340
C          7.05826       -1.15082       18.17048
C          6.73341       -1.15798       16.81306
S          9.72995        0.84377       11.69994
C         10.46843       -0.49799       13.74870
C          9.11483       -0.85749       13.49259
F          3.98382        0.21536       19.50841
F          1.91450       -3.00979       18.31181
C         10.94236        0.38287       12.80824
O         -0.70458       -2.04845       17.59304
C         -0.73362       -3.18584       18.45835
C         -2.18173       -3.59081       18.64904
F         -0.91885       -0.71752       15.28735
F          8.25085       -1.63709       18.55103
O          6.55855       -0.79748       20.42659
C          5.64758       -0.32338       21.41662
C          6.31281       -0.42437       22.77417
F          3.49737        0.44769       16.93734
F          7.61045       -1.73454       15.98346
F          1.16917       -0.19472       13.72932
F          3.92030       -2.79304       16.60966
F          7.96200       -0.08139        9.63128
F          5.54121       -0.01031        8.65398
C        -20.50297       -3.11789       -2.43455
C        -21.46966       -2.07994       -2.35361
C        -21.01526       -0.76150       -2.26760
C        -19.63862       -0.46217       -2.13603
C        -18.66853       -1.49837       -2.17665
C        -19.11934       -2.81771       -2.36168
C        -22.92098       -2.11413       -2.31990
C        -23.53006       -0.88073       -2.33938
S        -22.35409        0.33707       -2.41045
C        -17.22331       -1.46824       -2.06625
C        -16.60319       -2.67776       -2.27208
S        -17.76519       -3.88944       -2.50989
C        -21.00345       -4.48955       -2.73040
C        -19.24735        0.95536       -1.91053
C        -22.04480       -4.84698       -3.57780
C        -22.27714       -6.24613       -3.65081
C        -21.35394       -6.95652       -2.91997
S        -20.37101       -5.91216       -1.98875
C        -19.88102        1.89440       -1.10826
C        -19.32041        3.19596       -1.19188
C        -18.18477        3.21649       -1.96702
S        -17.92424        1.70472       -2.72248
C        -21.18516       -8.44530       -2.86582
C        -20.29776       -8.95122       -3.99718
C        -17.27117        4.37967       -2.21018
C        -16.23778        4.53269       -1.10121
C        -15.18650       -2.95898       -2.32471
S        -14.01536       -1.94970       -1.58202
C        -12.69402       -2.93772       -2.07085
C        -13.16479       -4.00957       -2.80215
C        -14.57277       -4.01112       -2.97164
C        -11.27863       -2.63350       -1.69389
C        -10.98171       -2.03608       -0.46687
C         -9.68464       -1.82962       -0.05190
C         -8.60517       -2.28554       -0.81830
C         -8.87091       -2.91433       -2.05842
C        -10.20938       -3.00427       -2.52887
N         -7.86391       -3.41322       -2.79647
C         -8.09570       -3.96227       -4.03430
C         -9.39943       -3.93905       -4.56684
N        -10.42749       -3.48493       -3.81069
C         -7.20289       -2.09858       -0.32194
C         -9.78932       -4.40392       -5.93350
C         -6.88920       -4.55845       -4.64188
C        -10.97324       -5.12916       -6.18003
C        -11.23322       -5.73256       -7.40583
C        -10.32025       -5.65692       -8.45818
C         -9.16086       -4.92669       -8.24830
C         -8.95161       -4.24555       -7.04563
C         -6.93979       -5.75430       -5.38117
C         -5.84806       -6.23277       -6.10705
C         -4.59929       -5.62965       -6.01229
C         -4.50090       -4.50124       -5.20303
C         -5.62486       -3.96708       -4.56495
S         -6.80794       -2.19089        1.35508
C         -4.87295       -1.77100       -0.25239
C         -6.05126       -1.85065       -1.04731
F         -6.07223       -7.27454       -6.92064
F         -8.17737       -4.90588       -9.16315
C         -5.14482       -1.86879        1.09491
O        -10.64203       -6.34300       -9.59351
C        -10.03930       -5.87593      -10.80178
C        -10.98296       -6.20129      -11.94253
F        -12.37849       -6.41294       -7.57381
F         -3.31938       -3.88524       -5.04975
O         -3.45274       -6.04134       -6.63275
C         -3.56670       -7.19525       -7.46535
C         -2.19783       -7.56672       -7.99497
F         -8.08241       -6.44335       -5.47180
F         -5.45241       -2.81885       -3.88651
F        -11.87289       -5.32049       -5.20253
F         -7.83357       -3.50784       -6.94612
F         -9.49492       -1.18079        1.11194
F        -11.96527       -1.66116        0.38352
C        -39.05300       -4.85816        3.54042
C        -39.26924       -5.08702        4.92526
C        -38.21216       -4.83328        5.81307
C        -36.93179       -4.45424        5.34289
C        -36.70478       -4.25510        3.95510
C        -37.78829       -4.41868        3.07774
C        -40.43119       -5.56369        5.65068
C        -40.27883       -5.57660        7.01132
S        -38.75474       -5.01319        7.46029
C        -35.50844       -3.89949        3.21673
C        -35.70687       -3.64961        1.87953
S        -37.32143       -3.96525        1.47359
C        -40.21742       -5.00635        2.61980
C        -35.82701       -4.27987        6.32720
C        -41.54411       -4.65838        2.83959
C        -42.40473       -4.93296        1.73948
C        -41.71179       -5.41708        0.65433
S        -40.08619       -5.74462        1.06397
C        -35.53873       -5.03800        7.45473
C        -34.43317       -4.55473        8.20810
C        -33.82243       -3.48555        7.59550
S        -34.72006       -2.95847        6.24227
C        -42.23379       -5.69607       -0.72370
C        -42.21274       -4.45017       -1.60168
C        -32.57288       -2.77366        8.01717
C        -31.31836       -3.46977        7.50466
C        -34.75766       -3.16897        0.90017
S        -33.18224       -2.64149        1.32700
C        -32.74936       -2.25444       -0.29301
C        -33.82275       -2.50262       -1.12909
C        -34.95882       -3.02126       -0.45621
C        -31.40432       -1.73376       -0.65087
C        -30.26828       -2.11897        0.06954
C        -28.99980       -1.71712       -0.31324
C        -28.79662       -0.94168       -1.45721
C        -29.93358       -0.51622       -2.18073
C        -31.23860       -0.89287       -1.77548
N        -29.79258        0.25337       -3.28052
C        -30.86811        0.68332       -3.99436
C        -32.15872        0.33650       -3.58629
N        -32.31348       -0.44517       -2.48549
C        -27.41678       -0.57286       -1.88688
C        -33.42636        0.79480       -4.20539
C        -30.47446        1.52071       -5.14492
C        -33.57729        0.90756       -5.59444
C        -34.58646        1.68577       -6.16251
C        -35.59482        2.23731       -5.38187
C        -35.55521        2.00596       -4.00974
C        -34.48368        1.30783       -3.43192
C        -29.36018        1.18606       -5.92965
C        -28.96196        1.95931       -7.02191
C        -29.71121        3.06198       -7.43074
C        -30.84199        3.38196       -6.68820
C        -31.16231        2.67827       -5.52840
S        -26.09233       -1.65108       -1.64747
C        -25.56769        0.56290       -2.78853
C        -26.97097        0.56515       -2.53781
F        -27.83502        1.60418       -7.65412
F        -36.50346        2.50973       -3.20511
C        -24.94219       -0.57253       -2.31452
O        -36.50841        3.00602       -6.04597
C        -37.84102        2.97799       -5.53522
C        -38.78512        3.18366       -6.70746
F        -34.53329        1.95240       -7.47683
F        -31.64587        4.38428       -7.07555
O        -29.44475        3.89010       -8.48657
C        -28.19678        3.68805       -9.14587
C        -28.02000        4.76207      -10.19906
F        -28.63556        0.08920       -5.65452
F        -32.18450        3.13298       -4.78765
F        -32.65650        0.37644       -6.41464
F        -34.45494        1.20579       -2.09372
F        -27.97281       -2.10589        0.45893
F        -30.35444       -2.92665        1.13782
H         -5.41425       -0.77407        3.68675
H          1.46821       -1.06753        6.04304
H         -5.83674       -1.79077        5.68098
H         -7.66132       -0.62142        7.14187
H         -0.11507       -1.11573        1.41804
H          2.14615       -2.10096        0.56241
H         -7.86683        1.67684        8.58690
H         -6.38623        2.54784        8.96371
H         -7.24310       -0.12463       10.22258
H         -7.33617        1.46994       10.98643
H         -5.75794        0.75429       10.61661
H          4.05988       -3.79334        1.53252
H          4.06900       -4.11380        3.26188
H          4.88597       -1.45658        1.94660
H          5.98192       -2.68144        2.60462
H          4.90851       -1.77861        3.68723
H          2.01938        0.54640       11.86438
H         -0.10934        0.42127       10.38325
H         11.06360       -0.88543       14.56685
H          8.57218       -1.57176       14.09250
H         11.93930        0.79325       12.72828
H         -0.28792       -2.91885       19.42355
H         -0.19853       -4.03859       18.02446
H         -2.75957       -2.77512       19.09372
H         -2.25452       -4.47307       19.29089
H         -2.64083       -3.81970       17.68114
H          4.74221       -0.94124       21.41513
H          5.39860        0.72736       21.23127
H          6.58472       -1.46088       22.99619
H          5.64206       -0.05732       23.55595
H          7.23569        0.16396       22.79351
H        -23.49837       -3.02981       -2.30137
H        -16.64658       -0.56868       -1.90244
H        -22.63214       -4.12910       -4.13583
H        -23.05037       -6.70549       -4.25402
H        -20.75644        1.67384       -0.51070
H        -19.71877        4.06429       -0.68188
H        -22.17066       -8.91961       -2.95288
H        -20.76846       -8.75945       -1.90247
H        -20.70396       -8.67836       -4.97794
H        -20.21944      -10.04274       -3.95886
H        -19.28635       -8.53651       -3.92797
H        -17.87211        5.29627       -2.26081
H        -16.76257        4.28415       -3.17529
H        -16.71451        4.66746       -0.12382
H        -15.60845        5.40847       -1.29079
H        -15.58654        3.65444       -1.03797
H        -12.52170       -4.77358       -3.21098
H        -15.10202       -4.76281       -3.54449
H         -3.88297       -1.60063       -0.65919
H         -6.04181       -1.73345       -2.12042
H         -9.08002       -6.38441      -10.94898
H         -9.88772       -4.79030      -10.78646
H        -11.15644       -7.27973      -12.01029
H        -10.57888       -5.84297      -12.89260
H        -11.95713       -5.73044      -11.77153
H         -4.22590       -6.97744       -8.31337
H         -3.94939       -8.04385       -6.88629
H         -1.76587       -6.73958       -8.56622
H         -2.26686       -8.44835       -8.64058
H         -1.51450       -7.78562       -7.16854
H        -41.35951       -5.87834        5.19303
H        -41.00210       -5.87559        7.75730
H        -34.53530       -3.77306        3.67024
H        -41.90067       -4.21541        3.76047
H        -43.46964       -4.73518        1.73358
H        -36.11431       -5.90265        7.75833
H        -34.08805       -4.99681        9.13462
H        -43.26564       -6.06030       -0.64969
H        -41.65387       -6.49039       -1.20718
H        -42.81390       -3.64307       -1.16804
H        -42.62177       -4.67841       -2.59167
H        -41.19349       -4.07222       -1.73684
H        -32.53684       -2.73681        9.11259
H        -32.57996       -1.73504        7.66773
H        -31.25556       -4.50214        7.86650
H        -30.42538       -2.93815        7.85009
H        -31.29321       -3.49653        6.40989
H        -33.81013       -2.31914       -2.19517
H        -35.88470       -3.26492       -0.96225
H        -25.04973        1.37097       -3.29093
H        -27.61893        1.38054       -2.83332
H        -37.96694        3.78628       -4.80710
H        -38.07281        2.01478       -5.06819
H        -38.59520        4.14188       -7.20226
H        -39.82791        3.15587       -6.37535
H        -38.63530        2.40277       -7.46060
H        -28.19424        2.70914       -9.63660
H        -27.37230        3.76516       -8.42738
H        -28.84539        4.73954      -10.91730
H        -27.07762        4.61449      -10.73391
H        -28.01569        5.75633       -9.74108
