314
Qx-12F.sdf
C         -4.96507       -3.16696        6.10119
C         -4.69414       -2.63954        4.81977
C         -3.46612       -2.01355        4.58223
C         -2.57322       -1.77865        5.63077
C         -2.90204       -2.18881        6.94359
C         -4.06723       -2.94332        7.14838
C         -5.49378       -2.59876        3.64123
C         -4.81761       -2.19281        2.51878
S         -3.26346       -1.67162        2.90458
C         -2.23729       -1.97008        8.18963
C         -2.76643       -2.69980        9.22114
S         -4.15197       -3.52940        8.76903
C         -6.20943       -3.94254        6.33256
C         -1.26917       -1.13025        5.35217
C         -7.08636       -3.94719        7.40993
C         -8.24646       -4.71478        7.15641
C         -8.27512       -5.25779        5.89941
S         -6.72844       -5.13614        5.18577
C         -0.94398       -0.06160        4.52502
C          0.43113        0.26632        4.58192
C          1.13276       -0.48784        5.48438
S          0.18042       -1.79778        6.02022
C         -9.40884       -5.90293        5.17295
C        -10.32912       -4.85498        4.55114
C          2.52401       -0.30671        5.99371
C          2.55931        0.72316        7.11846
C         -2.21023       -2.81739       10.51997
S         -0.55285       -3.15777       10.66621
C         -0.58872       -2.89496       12.34961
C         -1.88660       -2.72145       12.79538
C         -2.83635       -2.72417       11.73881
C          0.67203       -2.91011       13.09626
C          1.79393       -2.26775       12.56777
C          2.99027       -2.27792       13.24272
C          3.08518       -2.81425       14.52651
C          1.94417       -3.42362       15.09964
C          0.74788       -3.54451       14.35168
N          1.94272       -3.89959       16.36775
C          0.85769       -4.53976       16.87742
C         -0.26400       -4.77810       16.06317
N         -0.30107       -4.25509       14.82434
C          4.37738       -2.77231       15.24644
C         -1.48320       -5.55295       16.44238
C          0.99587       -4.86041       18.30879
C         -2.77741       -5.13385       16.08681
C         -3.92507       -5.79608       16.53639
C         -3.83747       -6.89677       17.38259
C         -2.56777       -7.33072       17.74298
C         -1.42350       -6.71164       17.23047
C         -0.06791       -4.74156       19.20950
C          0.02885       -5.15394       20.53677
C          1.24004       -5.58632       21.06667
C          2.33632       -5.63048       20.20833
C          2.20957       -5.30542       18.85617
S          5.43115       -1.41490       15.09837
C          6.19891       -3.31910       16.62181
C          4.93524       -3.71094       16.09701
F         -1.09669       -5.13539       21.26498
F         -2.40168       -8.32027       18.63363
C          6.61140       -2.11343       16.10925
O         -5.02104       -7.43657       17.80180
C         -4.98089       -8.80302       18.21715
C         -6.34788       -9.40845       17.96351
F         -5.12946       -5.34296       16.15313
F          3.53740       -6.01107       20.67148
O          1.47111       -5.97355       22.35846
C          0.35016       -5.94128       23.24123
C          0.81783       -6.28936       24.63883
F         -1.24952       -4.25328       18.80163
F          3.28869       -5.46941       18.07858
F         -2.95928       -4.03879       15.33731
F         -0.23300       -7.22638       17.57666
F          4.05815       -1.75478       12.61260
F          1.74357       -1.61759       11.39471
F         -9.23692       -4.80431        8.00218
F          0.95698        1.24823        3.90031
C        -14.45334       -4.46731       -9.89751
C        -15.70388       -4.76549      -10.47609
C        -16.87291       -4.32979       -9.84515
C        -16.82262       -3.73859       -8.58354
C        -15.58319       -3.53565       -7.94669
C        -14.40607       -3.83983       -8.65008
C        -16.03341       -5.49487      -11.65025
C        -17.35698       -5.42744      -11.99402
S        -18.24806       -4.57720      -10.85070
C        -15.27931       -3.04204       -6.64085
C        -13.94618       -2.83604       -6.45596
S        -13.02527       -3.28659       -7.79496
C        -13.20649       -4.84628      -10.61244
C        -18.07240       -3.25666       -7.95704
C        -12.01774       -5.39265      -10.14414
C        -11.17079       -5.81464      -11.19882
C        -11.71003       -5.61513      -12.44271
S        -13.04368       -4.55385      -12.31747
C        -19.32959       -3.84157       -7.88205
C        -20.27547       -2.99935       -7.25269
C        -19.73637       -1.83786       -6.76647
S        -18.12889       -1.66104       -7.29924
C        -11.27499       -6.15829      -13.76569
C        -11.80411       -7.57575      -13.97799
C        -20.36029       -0.78117       -5.91882
C        -20.35201       -1.17996       -4.44874
C        -13.34659       -2.27467       -5.30768
S        -12.07846       -3.09286       -4.54620
C        -11.72848       -1.72558       -3.59680
C        -12.72473       -0.77360       -3.68645
C        -13.69742       -1.11449       -4.65922
C        -10.50687       -1.73414       -2.81159
C         -9.31979       -2.17505       -3.41295
C         -8.16688       -2.23952       -2.68855
C         -8.15012       -1.75601       -1.38869
C         -9.31529       -1.20569       -0.79138
C        -10.52840       -1.28803       -1.48196
N         -9.30440       -0.60641        0.42830
C        -10.46117       -0.20010        1.02260
C        -11.68747       -0.42668        0.38769
N        -11.69242       -0.94164       -0.86805
C         -6.90319       -1.89588       -0.65711
C        -13.03634       -0.13409        0.92716
C        -10.24767        0.51169        2.29938
C        -14.04941        0.42863        0.13088
C        -15.27791        0.82919        0.66408
C        -15.55243        0.69759        2.02276
C        -14.56649        0.13483        2.82596
C        -13.36607       -0.32483        2.27752
C        -10.98596        1.64920        2.64468
C        -10.86722        2.27077        3.88650
C         -9.90908        1.85880        4.80660
C         -9.11381        0.76808        4.45725
C         -9.30090        0.09144        3.24650
S         -6.96304       -2.53842        0.90958
C         -4.67927       -1.87661        0.00773
C         -5.59416       -1.73967       -1.07368
F        -11.72706        3.26357        4.15653
F        -14.71293        0.07474        4.15861
C         -5.32954       -2.15159        1.18913
O        -16.76648        1.16052        2.44532
C        -17.26391        0.61178        3.66784
C        -18.77845        0.66600        3.61908
F        -16.19621        1.36517       -0.15564
F         -8.15794        0.33982        5.29729
O         -9.66281        2.42331        6.02944
C        -10.47315        3.54299        6.38953
C         -9.97827        4.10849        7.70489
F        -11.87919        2.16274        1.78431
F         -8.56664       -1.00880        3.03314
F        -13.85044        0.64327       -1.17654
F        -12.48516       -0.90657        3.10803
F         -7.07649       -2.78489       -3.24843
F         -9.26861       -2.55215       -4.69942
F        -10.04219       -6.43940      -10.99749
F        -21.53263       -3.32280       -7.11239
C        -17.19555      -19.11262      -20.92313
C        -16.55037      -20.20487      -20.28380
C        -15.92218      -19.97590      -19.04886
C        -15.81730      -18.67276      -18.52329
C        -16.33975      -17.56705      -19.24311
C        -17.08684      -17.81408      -20.40174
C        -16.38738      -21.58641      -20.67915
C        -15.80787      -22.37521      -19.72068
S        -15.39628      -21.47750      -18.35089
C        -16.24845      -16.15042      -19.01330
C        -17.06198      -15.40425      -19.82848
S        -17.82136      -16.35638      -20.98382
C        -17.98085      -19.33651      -22.15943
C        -15.16301      -18.44527      -17.20874
C        -18.08225      -18.57817      -23.31985
C        -18.84831      -19.22234      -24.31713
C        -19.28819      -20.46374      -23.94306
S        -19.06758      -20.67867      -22.26493
C        -14.02363      -19.01193      -16.65255
C        -13.69871      -18.45348      -15.39254
C        -14.53289      -17.43541      -15.01261
S        -15.89160      -17.38466      -16.04543
C        -19.89043      -21.54327      -24.77715
C        -18.80399      -22.33216      -25.50293
C        -14.40168      -16.47516      -13.87387
C        -13.46353      -15.32403      -14.22470
C        -17.33030      -14.01174      -19.70081
S        -17.70996      -13.40382      -18.16028
C        -17.73292      -11.79550      -18.72520
C        -17.56979      -11.74606      -20.09510
C        -17.38642      -13.03549      -20.66901
C        -17.94668      -10.71326      -17.76276
C        -17.30317      -10.77127      -16.52400
C        -17.52809       -9.80187      -15.58747
C        -18.27802       -8.67147      -15.91478
C        -18.87026       -8.55358      -17.17824
C        -18.78078       -9.62728      -18.07951
N        -19.51562       -7.42039      -17.53487
C        -20.16362       -7.34103      -18.71687
C        -20.20943       -8.46541      -19.55367
N        -19.49870       -9.57918      -19.22997
C        -18.42134       -7.59495      -14.94664
C        -20.97145       -8.59196      -20.80995
C        -20.73170       -6.00547      -18.98815
C        -20.43657       -9.23545      -21.93769
C        -21.10990       -9.26211      -23.15825
C        -22.33465       -8.62279      -23.31697
C        -22.88335       -7.98332      -22.21136
C        -22.24581       -8.02824      -20.97351
C        -20.69618       -5.43241      -20.26345
C        -21.35382       -4.24112      -20.56579
C        -21.97711       -3.49128      -19.57321
C        -21.94416       -3.99586      -18.27526
C        -21.36096       -5.23608      -17.99566
S        -17.05938       -7.13908      -14.04912
C        -19.22213       -5.84549      -13.64247
C        -19.50413       -6.79048      -14.65903
F        -21.38530       -3.87368      -21.85461
F        -24.01085       -7.26436      -22.31166
C        -17.95844       -6.02907      -13.13153
O        -22.87962       -8.66719      -24.56820
C        -24.29470       -8.49383      -24.64278
C        -24.78380       -9.23403      -25.87091
F        -20.54834       -9.90448      -24.19440
F        -22.50642       -3.30353      -17.27169
O        -22.62751       -2.29852      -19.74178
C        -22.68242       -1.78900      -21.07423
C        -23.34037       -0.42493      -21.05538
F        -20.05858       -6.05798      -21.26512
F        -21.46782       -5.69582      -16.74194
F        -19.22811       -9.81005      -21.88492
F        -22.86415       -7.44738      -19.93219
F        -16.99104       -9.97075      -14.36792
F        -16.44803      -11.75637      -16.20710
F        -19.02358      -18.72419      -25.51101
F        -12.65525      -18.82375      -14.70029
H         -6.52549       -2.92281        3.61132
H         -1.35072       -1.35982        8.31271
H         -6.94954       -3.37760        8.31867
H         -1.65214        0.48534        3.91642
H         -9.98417       -6.52670        5.86547
H         -9.03748       -6.56277        4.38039
H        -10.77370       -4.20836        5.31621
H        -11.14413       -5.34162        4.00616
H         -9.78897       -4.21131        3.84692
H          3.18056        0.01597        5.17863
H          2.92390       -1.25606        6.36905
H          2.22874        1.70729        6.76772
H          3.57663        0.82560        7.50794
H          1.90644        0.43164        7.94959
H         -2.15066       -2.58217       13.83463
H         -3.90406       -2.59396       11.86851
H          6.77961       -3.90535       17.32229
H          4.45153       -4.64614       16.34467
H          7.54075       -1.59456       16.29593
H         -4.74113       -8.85003       19.28526
H         -4.24615       -9.37915       17.64320
H         -7.12118       -8.87690       18.52651
H         -6.36153      -10.46446       18.24659
H         -6.60796       -9.32414       16.90279
H         -0.39555       -6.67735       22.91885
H         -0.08534       -4.93613       23.26837
H          1.28953       -7.27634       24.65625
H         -0.02666       -6.28445       25.33382
H          1.56363       -5.56600       24.98338
H        -15.30524       -6.02025      -12.25241
H        -16.00626       -2.80199       -5.87574
H        -11.78809       -5.56977       -9.10219
H        -19.57920       -4.81631       -8.28194
H        -10.18112       -6.16885      -13.82118
H        -11.63142       -5.52238      -14.58437
H        -11.42539       -8.26305      -13.21293
H        -11.49235       -7.95643      -14.95599
H        -12.89927       -7.60717      -13.93812
H        -21.38835       -0.60122       -6.24982
H        -19.82055        0.16706       -6.03086
H        -20.93559       -2.09163       -4.28047
H        -20.78434       -0.38090       -3.83913
H        -19.33316       -1.36635       -4.08958
H        -12.74051        0.14287       -3.11122
H        -14.54805       -0.49832       -4.92408
H         -3.61185       -1.72464       -0.08054
H         -5.30343       -1.49891       -2.08673
H        -16.89344        1.20583        4.51100
H        -16.96847       -0.43654        3.79113
H        -19.12862        1.69734        3.51303
H        -19.21113        0.23259        4.52482
H        -19.14811        0.11063        2.75035
H        -11.51447        3.22155        6.50816
H        -10.39635        4.33063        5.63137
H        -10.00365        3.34698        8.48990
H        -10.59747        4.95697        8.01059
H         -8.94096        4.44495        7.61051
H        -16.71507      -22.00041      -21.62363
H        -15.62344      -23.43911      -19.76551
H        -15.66814      -15.69296      -18.22059
H        -17.59116      -17.62860      -23.48516
H        -13.42016      -19.77173      -17.13002
H        -20.57818      -21.10709      -25.50909
H        -20.47529      -22.23178      -24.15638
H        -18.23407      -21.69101      -26.18507
H        -19.24939      -23.14063      -26.09016
H        -18.09242      -22.77791      -24.79777
H        -14.02103      -16.99812      -12.98963
H        -15.38009      -16.06189      -13.60172
H        -12.45119      -15.68443      -14.43893
H        -13.40060      -14.61784      -13.39050
H        -13.81425      -14.77433      -15.10576
H        -17.58502      -10.82673      -20.66643
H        -17.25614      -13.21630      -21.72854
H        -19.93384       -5.11752      -13.27351
H        -20.46102       -6.87088      -15.15410
H        -24.52408       -7.42589      -24.72808
H        -24.80279       -8.91741      -23.76863
H        -24.31143       -8.84033      -26.77603
H        -25.86932       -9.14951      -25.96606
H        -24.51549      -10.29400      -25.80405
H        -23.27518       -2.46270      -21.70410
H        -21.67056       -1.67232      -21.47798
H        -24.34932       -0.48515      -20.63671
H        -23.39859       -0.01842      -22.06928
H        -22.76835        0.26718      -20.42947
