290
QX2.sdf
C          4.26823        1.47437       -7.59711
C          3.45136        2.38019       -8.32387
C          3.33078        3.69242       -7.85162
C          3.90381        4.08362       -6.61811
C          4.69423        3.16891       -5.86563
C          4.90004        1.88170       -6.39845
C          2.64620        2.20030       -9.51608
C          2.07250        3.34407       -9.97447
S          2.46112        4.66970       -9.00596
C          5.35605        3.28714       -4.58478
C          6.12586        2.20771       -4.22501
S          6.00810        0.98756       -5.39836
C          4.49299        0.12875       -8.19415
C          3.61846        5.45024       -6.10051
C          4.69817       -0.19310       -9.52885
C          4.83320       -1.58869       -9.76820
C          4.82784       -2.31334       -8.59736
S          4.44356       -1.31914       -7.26102
C          2.42454        6.16244       -6.13812
C          2.51166        7.46646       -5.57458
C          3.75067        7.70620       -5.02697
S          4.84205        6.44379       -5.39976
C          5.07272       -3.78156       -8.42168
C          6.56383       -4.09367       -8.32905
C          4.18954        8.90007       -4.23200
C          3.81851        8.76600       -2.76071
C          6.96135        2.05661       -3.05665
S          7.84144        3.38350       -2.42346
C          8.53227        2.45735       -1.14587
C          8.10127        1.14324       -1.23588
C          7.21768        0.91355       -2.33365
C          9.47899        3.08018       -0.18251
C          9.30390        4.40726        0.23631
C         10.20835        5.02329        1.08817
C         11.31291        4.33661        1.59420
C         11.46233        2.97525        1.25949
C         10.57414        2.35425        0.33397
N         12.46330        2.24955        1.80692
C         12.66484        0.96220        1.42969
C         11.86324        0.39001        0.45450
N         10.81060        1.07625       -0.06250
F          8.25120        5.12993       -0.16877
F          9.97158        6.30207        1.42397
C         12.31885        5.03646        2.43988
C         12.12549       -0.90592       -0.17787
C         13.74723        0.28935        2.16081
S         12.79604        6.65165        2.08072
C         13.98699        5.51070        4.01889
C         13.05187        4.56164        3.51072
C         13.94810        6.72007        3.35007
C         13.33492       -1.45432       -0.54711
C         13.23613       -2.77680       -0.99866
C         11.94185       -3.22774       -1.06243
S         10.84842       -2.00440       -0.54828
C         11.45855       -4.57245       -1.50492
C         11.31425       -5.53281       -0.33205
F         14.27104       -3.50770       -1.31256
S         15.17947        1.16505        2.57259
C         15.90022       -0.19320        3.32891
C         15.07911       -1.28877        3.24162
C         13.85418       -1.01030        2.61114
C         17.24206       -0.08389        3.97976
C         17.11732        0.30983        5.44196
F         15.39592       -2.46328        3.71692
F         14.47781       -0.83351       -0.42365
F         12.92339       -1.91399        2.45766
C         15.89527       11.45034        3.06116
C         15.67161       10.09607        3.43603
C         16.48944        9.53691        4.41397
C         17.60097       10.24393        4.94160
C         17.84680       11.59071        4.54325
C         16.95603       12.18756        3.63811
C         14.72437        9.11204        2.94271
C         14.74877        7.90348        3.60114
S         15.89694        7.96530        4.85210
C         18.90215       12.52432        4.89201
C         18.73558       13.79690        4.39383
S         17.35651       13.86236        3.41422
C         14.93615       12.05881        2.10296
C         18.52356        9.53847        5.86670
C         13.55602       11.90756        2.04932
C         12.94679       12.58080        0.95248
C         13.85718       13.32395        0.23649
S         15.45201       13.03085        0.77576
C         18.98241        8.22435        5.81474
C         19.88648        7.88650        6.85934
C         20.16919        8.96873        7.66169
S         19.15626       10.29123        7.28585
C         13.59069       14.25831       -0.90555
C         13.20189       15.64900       -0.41960
C         21.17744        9.05844        8.76668
C         22.57214        9.36615        8.23289
C         19.54346       14.96709        4.64701
S         20.23137       15.25513        6.18759
C         20.94422       16.75245        5.71792
C         20.64855       17.00774        4.38842
C         19.83750       16.00112        3.78281
C         21.70225       17.58143        6.69890
C         22.46450       16.97750        7.70634
C         23.13119       17.72886        8.66206
C         23.09949       19.12495        8.64044
C         22.41388       19.76098        7.58366
C         21.67449       18.99326        6.63860
N         22.44317       21.11027        7.46983
C         21.72285       21.73472        6.50254
C         20.92119       20.99465        5.64639
N         20.92737       19.63505        5.70445
F         22.58193       15.64257        7.78569
F         23.82642       17.06700        9.59990
C         23.74277       19.91601        9.72614
C         19.96125       21.55813        4.69042
C         21.92785       23.18953        6.45162
S         23.65938       19.38881       11.36682
C         24.77016       21.64352       10.93636
C         24.38934       21.13582        9.66318
C         24.44408       20.78213       11.97876
C         19.15765       22.67349        4.80444
C         18.44417       22.97636        3.63560
C         18.60885       22.03860        2.64794
S         19.70041       20.81470        3.15280
C         17.96188       21.98998        1.30012
C         18.81580       22.65550        0.23567
F         17.69344       24.03629        3.50532
S         22.13767       24.08839        7.91403
C         22.26896       25.58202        7.08231
C         22.12814       25.39700        5.73072
C         21.98636       24.04683        5.37215
C         22.51814       26.85569        7.82435
C         24.00914       27.13775        7.94720
F         22.15170       26.37413        4.86486
F         19.10234       23.42146        5.87480
F         21.88655       23.65946        4.12820
C         25.25850       19.96439       16.94963
C         24.98355       20.59074       15.70648
C         24.72385       21.96473       15.70248
C         24.60315       22.69670       16.90678
C         24.82790       22.05204       18.16036
C         25.20784       20.70535       18.15307
C         24.87374       20.04927       14.36469
C         24.64938       20.98986       13.38122
S         24.65260       22.54501       14.06808
C         24.73501       22.54228       19.51852
C         25.19616       21.67034       20.48127
S         25.59880       20.18833       19.76257
C         25.66850       18.53747       16.91904
C         24.17968       24.12197       16.84357
C         26.51761       17.90781       16.01814
C         26.65605       16.51029       16.24407
C         25.98405       16.10263       17.37381
S         25.03812       17.37044       18.02013
C         23.23598       24.71412       16.01341
C         23.07666       26.11180       16.22652
C         23.84573       26.56221       17.27491
S         24.91326       25.34265       17.81710
C         25.98264       14.74324       18.00537
C         27.17314       14.55083       18.93637
C         23.84895       27.92966       17.89465
C         22.74402       28.08413       18.93295
C         25.37606       21.91366       21.89825
S         25.20654       23.48271       22.56744
C         25.63032       22.98255       24.15623
C         25.88574       21.62244       24.16334
C         25.74589       21.01512       22.88024
C         25.72651       23.97008       25.26449
C         24.84823       25.05683       25.32889
C         24.95615       26.01436       26.32308
C         25.92781       25.91949       27.32303
C         26.76960       24.78818       27.33259
C         26.70216       23.83664       26.27544
N         27.65854       24.60504       28.33825
C         28.52518       23.55986       28.30362
C         28.52902       22.69487       27.22011
N         27.60266       22.82271       26.23497
F         23.86535       25.21419       24.42831
F         24.07960       27.03087       26.29976
C         26.08715       27.00784       28.32472
C         29.54249       21.66703       26.97116
C         29.36696       23.43884       29.50158
S         25.90593       28.65990       27.85211
C         26.56614       28.21874       30.28233
C         26.45048       26.94044       29.66135
C         26.26340       29.23918       29.41417
C         30.89995       21.70333       27.21087
C         31.54931       20.49047       26.94784
C         30.72059       19.54049       26.41261
S         29.11680       20.14119       26.28261
C         31.06903       18.15707       25.96489
C         30.86200       17.13181       27.06958
F         32.81837       20.28961       27.18467
S         29.97798       24.85634       30.27863
C         30.80669       23.95027       31.47541
C         30.64444       22.60489       31.26311
C         29.80296       22.31722       30.17631
C         31.56116       24.63437       32.56965
C         30.67166       24.87548       33.78139
F         31.19404       21.68764       32.01258
F         31.52180       22.74758       27.69287
F         29.49078       21.09509       29.83504
H          2.51000        1.25291      -10.02768
H          1.45021        3.47278      -10.85403
H          5.29584        4.16470       -3.95340
H          4.73668        0.54396      -10.31989
H          4.97442       -2.03110      -10.74696
H          1.50962        5.77635       -6.56905
H          1.68941        8.17106       -5.53605
H          4.65143       -4.32282       -9.27780
H          4.56706       -4.15967       -7.52960
H          7.09743       -3.77011       -9.23072
H          6.71837       -5.17180       -8.21557
H          7.02460       -3.59274       -7.47038
H          3.71292        9.80040       -4.63854
H          5.27188        9.05134       -4.32154
H          2.73589        8.65752       -2.62839
H          4.13667        9.65594       -2.20751
H          4.29968        7.89402       -2.30429
H          8.41600        0.35933       -0.55775
H          6.79046       -0.05537       -2.56690
H         14.65888        5.29529        4.84053
H         12.95394        3.55899        3.90944
H         12.17314       -4.99336       -2.22144
H         10.50289       -4.48428       -2.03192
H         12.26261       -5.65771        0.20000
H         10.99026       -6.51667       -0.68894
H         10.56944       -5.17283        0.38667
H         17.86564        0.65100        3.45266
H         17.76512       -1.04477        3.90405
H         16.62862        1.28448        5.55239
H         18.10464        0.37103        5.90525
H         16.52313       -0.42652        6.00119
H         14.04529        9.30112        2.12089
H         19.74448       12.28282        5.52826
H         12.99316       11.30923        2.75547
H         11.88699       12.54931        0.72814
H         18.68924        7.51727        5.04832
H         20.34429        6.91251        6.97995
H         12.77574       13.85437       -1.51839
H         14.46700       14.33461       -1.55949
H         12.30135       15.61851        0.20416
H         12.99735       16.30391       -1.27312
H         14.00310       16.10510        0.17203
H         21.20556        8.10435        9.30667
H         20.89108        9.82518        9.49554
H         22.91107        8.59743        7.52941
H         23.29173        9.40770        9.05703
H         22.59828       10.32972        7.71231
H         20.97346       17.89661        3.86148
H         19.48950       16.04677        2.75763
H         25.25769       22.59537       11.08235
H         24.55074       21.68402        8.74055
H         16.99076       22.49866        1.34793
H         17.75529       20.95430        1.01212
H         19.01095       23.70635        0.48425
H         18.30335       22.62530       -0.73485
H         19.78161       22.15400        0.12294
H         22.06712       26.81780        8.82282
H         22.03700       27.68728        7.29531
H         24.52043       26.34125        8.49912
H         24.17527       28.07955        8.47819
H         24.48048       27.21536        6.96091
H         24.95016       18.99551       14.13276
H         24.39991       23.53676       19.77755
H         27.00954       18.42541       15.20427
H         27.25230       15.84872       15.62736
H         22.66928       24.17155       15.26804
H         22.39184       26.73884       15.66836
H         26.01962       13.98145       17.21751
H         25.05449       14.57325       18.56338
H         28.12285       14.67360       18.40333
H         27.15739       13.54395       19.36686
H         27.15744       15.27138       19.76142
H         23.70604       28.68208       17.10847
H         24.81873       28.14500       18.36026
H         21.75443       27.91510       18.49478
H         22.75683       29.09626       19.35152
H         22.86942       27.37603       19.76044
H         26.19376       21.07319       25.04469
H         25.93639       19.96421       22.69862
H         26.85673       28.37728       31.31323
H         26.65210       26.01091       30.18009
H         26.25390       30.30157       29.61495
H         32.12040       18.13420       25.65188
H         30.47822       17.87680       25.08581
H         31.46453       17.36966       27.95289
H         31.15257       16.13626       26.71869
H         29.81250       17.08823       27.38055
H         31.97205       25.58850       32.21925
H         32.41667       24.01597       32.86711
H         29.81922       25.51479       33.52772
H         31.23874       25.36559       34.57837
H         30.27544       23.93284       34.17567
