138
SM-Cl.sdf
C          1.05792        0.96721       -0.06222
C          1.32220       -0.40762       -0.08220
C          0.27925       -1.35799       -0.04750
C         -1.07434       -0.93521       -0.02476
C         -1.34697        0.44318       -0.02315
C         -0.29678        1.39111       -0.04107
C         -2.30249       -1.68642        0.02296
C         -3.44856       -0.92793        0.01003
S         -3.06460        0.71642        0.04292
C          2.29700        1.71819       -0.06599
C          3.43306        0.94443       -0.06222
S          3.02713       -0.69492       -0.18159
C         -0.56690        2.85242       -0.01539
C          0.62398       -2.80533        0.03401
C         -4.79031       -1.44987        0.04618
C          4.80791        1.37113       -0.02296
C          5.87487        0.69951        0.53423
C          7.14430        1.34595        0.33037
C          6.97726        2.54346       -0.37280
S          5.31584        2.83961       -0.71511
S         -6.12593       -0.72137       -0.71667
C         -7.21129       -1.95771       -0.20408
C         -6.54848       -2.95203        0.51817
C         -5.16198       -2.62216        0.66684
C          0.04584        3.84470        0.73768
C         -0.40945        5.15871        0.42699
C         -1.44694        5.15011       -0.47806
S         -1.70190        3.57366       -1.09260
C          1.58986       -3.42401        0.81676
C          1.68281       -4.82845        0.61204
C          0.71349       -5.29386       -0.24738
S         -0.13463       -3.98845       -0.96545
C         -2.27677        6.29267       -0.98857
C         -3.42768        6.63065       -0.04860
C          0.39264       -6.71138       -0.62906
C         -0.52974       -7.38388        0.38217
C         -8.61991       -1.85807       -0.53064
C          7.97047        3.49975       -0.83318
C         11.49264        4.91666       -1.84197
C        -12.45638       -2.57381       -0.25054
C         12.52007        4.10542       -2.31734
C         13.74595        4.85745       -2.41679
C         13.69828        6.15841       -1.93648
S         12.07580        6.51510       -1.50660
S        -13.45707       -3.03135       -1.57883
C        -14.75411       -3.53269       -0.56887
C        -14.46869       -3.22006        0.73666
C        -13.11899       -2.77763        0.95849
C         14.72559        7.17109       -1.78164
C         16.01540        6.89168       -1.46047
C         16.33479        5.42272       -1.23570
C         17.02177        7.96835       -1.37113
O         18.26906        7.47533       -1.16668
O         16.74200        9.15472       -1.47757
C         19.30329        8.45258       -0.93090
C         19.95314        8.91521       -2.22403
C        -15.91072       -4.10530       -1.17482
C        -16.71646       -5.05276       -0.64699
C        -16.59751       -5.76882        0.64758
C        -17.86102       -5.42364       -1.41777
O        -15.31356       -5.92318        1.05439
O        -17.56953       -6.21438        1.24179
C        -15.11903       -6.65621        2.27694
C        -15.43431       -5.81512        3.50473
N         16.59976        4.20409       -1.04923
N        -18.77137       -5.69324       -2.08544
C          8.46165        0.77753        0.81412
C          8.39007       -0.53410        1.58091
S          9.55909        3.02853       -1.23369
C         10.09509        4.60953       -1.57733
C          9.02046        5.48030       -1.52383
C          7.81606        4.85411       -1.06895
C         12.46841        2.65497       -2.75940
C         12.79116        1.64377       -1.66197
C         -7.16586       -4.19579        1.11597
C         -6.22713       -5.38489        1.26004
C         -9.21166       -1.31667       -1.65608
C        -10.63819       -1.44177       -1.64090
C        -11.10642       -2.11377       -0.52401
S         -9.81907       -2.39740        0.55685
C        -12.60280       -2.57122        2.35958
C        -12.00237       -3.83944        2.96051
Cl         2.86728       -5.77807        1.40200
Cl         0.28537        6.54896        1.14405
H         -2.35207       -2.76594        0.04584
H          2.35072        2.79863       -0.04791
H          5.75672       -0.24384        1.05506
H         -4.45397       -3.23126        1.21518
H          0.82634        3.64682        1.46245
H          2.23628       -2.88728        1.49999
H         -2.68621        6.05664       -1.97805
H         -1.64640        7.17943       -1.12086
H         -4.09002        5.77105        0.10129
H         -4.02625        7.44761       -0.46566
H         -3.06399        6.94919        0.93422
H          1.31957       -7.29186       -0.70594
H         -0.07648       -6.74852       -1.61895
H         -0.07484       -7.42629        1.37791
H         -0.74571       -8.41149        0.07006
H         -1.48326       -6.85229        0.47181
H         14.64132        4.39118       -2.81140
H        -15.17053       -3.38493        1.54575
H         14.41948        8.20768       -1.91496
H         20.05830        7.96948       -0.30186
H         18.91673        9.30669       -0.36227
H         20.36313        8.06671       -2.78070
H         20.76730        9.61745       -2.01375
H         19.23012        9.41285       -2.87737
H        -16.15095       -3.73187       -2.17285
H        -14.06509       -6.95373        2.30237
H        -15.71317       -7.57656        2.26529
H        -14.80092       -4.92655        3.54970
H        -15.27754       -6.39596        4.41850
H        -16.46571       -5.45251        3.49380
H          8.95577        1.52389        1.44795
H          9.10108        0.58736       -0.05382
H          7.78422       -0.44016        2.48702
H          9.39722       -0.84606        1.87719
H          7.96709       -1.33082        0.95937
H          9.08931        6.53619       -1.75486
H          6.88868        5.39199       -0.91205
H         13.20325        2.51061       -3.56283
H         11.50204        2.42282       -3.21728
H         13.81593        1.76403       -1.29571
H         12.69647        0.62394       -2.05393
H         12.12464        1.72842       -0.79959
H         -7.99731       -4.53374        0.48949
H         -7.56737       -3.94044        2.10446
H         -5.80933       -5.67504        0.29059
H         -6.77426       -6.24183        1.66624
H         -5.39940       -5.17134        1.94318
H         -8.65676       -0.87549       -2.47576
H        -11.27483       -1.09338       -2.44570
H        -13.43747       -2.25345        2.99797
H        -11.88157       -1.75041        2.39639
H        -12.74991       -4.63013        3.05233
H        -11.60802       -3.63578        3.96089
H        -11.19354       -4.25124        2.35118
