221
TPD-3F.sdf
C         17.61105       -2.35781       -2.87631
C         18.25469       -1.62306       -3.90269
C         17.65372       -0.43133       -4.33849
C         16.42679        0.01060       -3.78401
C         15.81005       -0.72260       -2.73677
C         16.42938       -1.89132       -2.27978
C         19.47128       -1.88589       -4.64338
C         19.72631       -0.97567       -5.63321
S         18.64529        0.31766       -5.55980
C         14.57910       -0.51462       -2.02166
C         14.36320       -1.39609       -0.98624
S         15.52906       -2.61121       -0.98509
C         18.13413       -3.68185       -2.48218
C         15.79040        1.27516       -4.24332
C         18.34237       -4.24424       -1.23035
C         18.80158       -5.58046       -1.31480
C         18.99899       -6.01281       -2.59932
S         18.43940       -4.85059       -3.71292
C         15.18671        2.29004       -3.50957
C         14.81389        3.39445       -4.31424
C         15.16524        3.25540       -5.63091
S         15.64140        1.64217       -5.93055
C         19.56295       -7.30139       -3.09526
C         18.46577       -8.23929       -3.56964
C         15.14909        4.27218       -6.72837
C         16.39175        5.15786       -6.68251
C         13.32718       -1.32521        0.00745
C         12.72207       -2.31918        0.76966
C         11.75851       -1.79293        1.68704
C         11.68120       -0.42257        1.61401
S         12.70808        0.20450        0.40203
C         10.84905        0.50818        2.29367
S         11.48400        2.05105        2.77333
C          9.90465        2.70010        3.05975
C          8.99801        1.79151        2.58670
C          9.52767        0.48773        2.62528
C          9.82977        3.86532        3.89636
C         10.64070        4.97173        3.79450
C         10.75348        5.65487        5.03609
S          8.97971        3.84732        5.38501
C          9.95999        5.11005        6.02553
F         19.03448       -6.32032       -0.26428
F         14.27055        4.47712       -3.82673
C          7.58763        1.67890        2.46128
N          7.30280        0.40444        2.94542
C          8.43318       -0.41561        2.86701
O          6.83324        2.44283        1.88719
O          8.52922       -1.61061        3.11284
C          6.48518        0.50794        4.13564
C          6.28654       -0.70343        5.01060
C          8.21837        6.71685       10.52363
C          9.09652        6.29836        9.48959
C         10.44122        6.69061        9.56632
C         10.91258        7.46465       10.64543
C         10.01100        7.93086       11.63378
C          8.67803        7.51187       11.58642
C          8.85932        5.51876        8.28680
C          9.91785        5.52598        7.40696
S         11.31302        6.09830        8.19713
C         10.19678        8.85148       12.71694
C          9.12254        8.95821       13.56209
S          7.78949        8.13241       12.94274
C          6.77154        6.43721       10.42498
C         12.34944        7.83548       10.75303
C          5.86902        5.98844       11.37895
C          4.54569        5.93525       10.87965
C          4.44293        6.27856        9.55764
S          5.94171        6.83461        8.96689
C         13.25515        8.25846        9.79010
C         14.51473        8.60134       10.34131
C         14.56500        8.50432       11.70718
S         13.17439        7.69168       12.27663
C          3.25129        6.26688        8.66009
C          2.69655        7.66783        8.46145
C         15.63668        8.95434       12.65119
C         15.54424       10.45003       12.93947
C          9.10572        9.66374       14.80617
C          8.04723       10.26974       15.44684
C          8.44572       10.87328       16.67195
C          9.78309       10.66538       16.94974
S         10.55250        9.80141       15.70799
C         10.48297       10.92322       18.16669
S          9.59145       11.05138       19.64124
C         11.04563       11.17829       20.57124
C         12.04311       10.65077       19.80601
C         11.81586       11.00007       18.46297
C         10.98960       11.92335       21.79834
C          9.95898       11.85167       22.70924
C          9.85538       13.03129       23.48852
S         11.99141       13.28982       22.11170
C         10.86763       13.94259       23.24264
F          3.52385        5.57920       11.61061
F         15.50924        9.03943        9.61740
C         13.43096       10.33054       19.93643
N         14.03558       10.96420       18.85203
C         13.10333       11.25302       17.84588
O         13.92348        9.53131       20.69674
O         13.29619       11.74527       16.75511
C         15.02118       11.91446       19.32028
C         15.62548       12.90311       18.35394
C         12.67067       17.97080       25.80562
C         11.81000       17.10825       25.07237
C         10.42639       17.31816       25.17495
C          9.90180       18.35305       25.97825
C         10.77171       19.17114       26.74306
C         12.15283       19.00735       26.60258
C         12.09300       15.97086       24.20597
C         10.97508       15.25381       23.84735
S          9.57763       16.15771       24.21799
C         10.49617       20.16032       27.74796
C         11.58975       20.87852       28.15645
S         13.00641       20.19882       27.53546
C         14.12463       17.70934       25.83528
C          8.43399       18.58184       26.08331
C         15.20436       18.57100       25.70260
C         16.44367       17.89514       25.80996
C         16.31931       16.54044       25.97697
S         14.68534       16.12388       26.23220
C          7.37352       17.69028       26.17512
C          6.14129       18.33912       26.44096
C          6.25911       19.69478       26.60155
S          7.79174       20.19953       26.03873
C         17.37291       15.48224       25.99040
C         17.74063       15.04906       24.57651
C          5.26415       20.67784       27.13560
C          5.24615       20.67363       28.66311
C         11.56779       22.03557       29.00532
C         12.55416       22.50228       29.84646
C         12.14916       23.67298       30.54489
C         10.89275       24.10937       30.16357
S         10.18800       23.05275       29.03363
C         10.27692       25.36471       30.45529
S         11.27661       26.70396       30.91256
C          9.95165       27.80524       30.83304
C          8.98331       27.20099       30.07660
C          8.99158       25.81172       30.32740
C          9.97399       28.95799       31.67977
C         11.09036       29.71084       31.98242
C         10.95217       30.40813       33.21508
S          8.67489       29.32611       32.73886
C          9.69012       30.27061       33.74723
F         17.59495       18.50370       25.71415
F          5.02256       17.69044       26.62122
C          7.68635       27.52178       29.56953
N          6.87018       26.46834       29.96914
C          7.62811       25.34798       30.29220
O          7.41840       28.42429       28.80204
O          7.22733       24.23875       30.63818
C          5.75789       26.96405       30.75833
C          4.88796       25.99034       31.51273
H         20.11626       -2.74068       -4.48771
H         20.52644       -0.99445       -6.36023
H         13.89399        0.29754       -2.23312
H         18.15540       -3.74015       -0.29060
H         15.06031        2.27828       -2.43531
H         20.14669       -7.78402       -2.30290
H         20.26237       -7.10563       -3.91854
H         17.77633       -8.47730       -2.75313
H         18.89815       -9.17101       -3.94392
H         17.88035       -7.79113       -4.38031
H         14.25542        4.89978       -6.63871
H         15.09840        3.78533       -7.70935
H         16.45366        5.71243       -5.73942
H         16.37060        5.88602       -7.49996
H         17.30975        4.56730       -6.78156
H         12.97636       -3.36217        0.69090
H         11.17337       -2.40185        2.36667
H         11.26650        5.18412        2.93586
H         11.45055        6.46711        5.21106
H          5.51765        0.92430        3.83083
H          6.95546        1.27993        4.76582
H          5.98266       -1.58156        4.44014
H          5.51095       -0.47403        5.75015
H          7.20208       -0.93193        5.56712
H          7.90112        5.09480        8.02426
H         11.11836        9.38592       12.90794
H          6.12943        5.73680       12.39932
H         13.03018        8.35884        8.73751
H          2.47412        5.61662        9.07814
H          3.52454        5.83681        7.68771
H          2.39062        8.10553        9.41730
H          1.82963        7.64287        7.79592
H          3.44387        8.33315        8.01457
H         16.62042        8.73001       12.22369
H         15.57233        8.40881       13.60010
H         15.66589       11.04260       12.02593
H         16.32996       10.75013       13.64104
H         14.57814       10.71535       13.38358
H          7.03360       10.28468       15.06577
H          7.75935       11.38093       17.33973
H          9.20862       11.07155       22.69398
H          9.03084       13.21930       24.16437
H         15.80726       11.34788       19.83085
H         14.52067       12.50198       20.10430
H         16.02099       12.42029       17.46047
H         16.44234       13.42897       18.86338
H         14.89035       13.66048       18.06313
H         13.09251       15.62922       23.97067
H          9.50681       20.38688       28.12250
H         15.12205       19.63784       25.53694
H          7.46717       16.61468       26.12718
H         17.02680       14.60491       26.55031
H         18.26514       15.85349       26.50589
H         16.86568       14.68053       24.02865
H         18.48171       14.24441       24.60903
H         18.16621       15.88028       24.00383
H          4.26364       20.43105       26.76324
H          5.49182       21.69274       26.78909
H          4.97669       19.68743       29.05786
H          4.51446       21.39673       29.03861
H          6.22539       20.94077       29.07689
H         13.52179       22.03220       29.96825
H         12.79158       24.20819       31.23380
H         12.01881       29.63360       31.43185
H         11.75747       30.94327       33.70323
H          9.32311       30.66872       34.68406
H          5.14922       27.60095       30.10731
H          6.20056       27.63877       31.50675
H          4.51203       25.18928       30.87608
H          4.03514       26.53933       31.93118
H          5.43322       25.55599       32.35760
