242
W1.sdf
C         -1.46666        4.56866       -5.01052
C         -2.72568        5.16169       -4.75931
C         -2.78375        6.53274       -4.48952
C         -1.61242        7.29204       -4.36136
C         -0.34429        6.69830       -4.56392
C         -0.29670        5.35904       -4.98100
C         -4.04008        4.59748       -4.70543
C         -5.04653        5.51909       -4.53636
S         -4.42144        7.07417       -4.39298
C          1.00514        7.22204       -4.37921
C          1.97232        6.37544       -4.84447
S          1.32069        4.94898       -5.47124
C         -1.41388        3.11501       -5.31788
C         -1.71826        8.73725       -4.05816
C         -2.26406        2.32108       -6.08025
C         -1.83307        0.97471       -6.15224
C         -0.63497        0.75334       -5.52802
S         -0.20757        2.11044       -4.58666
C         -2.55256        9.42236       -3.18261
C         -2.30017       10.81331       -3.17720
C         -1.24633       11.17616       -3.97251
S         -0.78022        9.87109       -4.96471
C          0.25089       -0.44801       -5.58512
C          1.11922       -0.41599       -6.83957
C         -0.52941       12.48108       -4.05498
C          0.51776       12.58705       -2.95089
C         -6.44914        5.25461       -4.45862
C         -7.52045        6.12201       -4.53282
C         -8.76548        5.46103       -4.31332
C         -8.60814        4.09310       -4.25458
S         -6.96357        3.65157       -4.26948
F         -2.47253        0.05735       -6.82660
F         -2.95307       11.65227       -2.41921
C         -9.57559        3.00504       -4.28944
C         -9.36695        1.94126       -3.38929
C        -10.14357        0.81567       -3.41785
C        -11.23593        0.74655       -4.27010
C        -11.53064        1.84033       -5.14047
C        -10.64971        2.94557       -5.20930
F         -8.38279        1.97788       -2.47462
F         -9.81955       -0.20457       -2.60591
O        -10.96545        3.93485       -6.10808
C         -9.96320        4.55770       -6.91555
C        -10.19088        4.31524       -8.39574
O        -12.71797        1.70866       -5.82698
C        -13.11061        2.63647       -6.82907
C        -14.39474        2.14478       -7.47499
C        -12.03419       -0.47305       -4.20397
C        -12.37978       -1.23429       -3.10258
C        -13.24512       -2.30327       -3.44603
C        -13.51616       -2.31978       -4.79827
S        -12.53260       -1.22253       -5.64574
C        -16.99690       -5.87650       -6.34581
C        -17.55989       -6.13606       -7.60032
C        -17.12311       -5.40521       -8.71666
C        -16.21951       -4.33412       -8.56277
C        -15.71784       -4.02841       -7.27111
C        -16.03781       -4.87541       -6.20384
C        -18.53833       -7.09922       -7.95620
C        -18.68077       -7.25077       -9.30169
S        -17.81779       -6.07321      -10.15745
C        -14.91496       -2.94493       -6.78720
C        -14.43243       -3.14189       -5.51512
S        -15.05224       -4.54734       -4.83487
C        -17.35896       -6.74929       -5.20590
C        -15.72525       -3.57975       -9.75063
C        -17.48936       -8.13097       -5.14723
C        -17.70326       -8.59041       -3.82832
C        -17.66058       -7.58874       -2.89468
S        -17.76885       -6.07007       -3.66877
C        -16.38813       -3.15871      -10.89668
C        -15.53631       -2.48580      -11.80916
C        -14.25270       -2.32607      -11.35811
S        -14.03924       -3.18359       -9.89714
C        -17.53348       -7.68736       -1.41094
C        -16.07576       -7.91048       -1.01261
C        -13.11444       -1.58391      -11.98982
C        -13.18050       -0.08770      -11.70514
C        -19.45452       -8.29404       -9.88152
C        -20.57970       -8.88182       -9.33957
C        -21.12914       -9.87361      -10.19035
C        -20.44251       -9.94474      -11.38129
S        -18.94170       -9.11223      -11.26997
F        -17.80275       -9.85593       -3.52441
F        -15.94865       -2.03083      -12.96202
C        -20.79224      -10.58609      -12.64224
C        -20.50209       -9.86864      -13.80813
C        -20.64723      -10.44958      -15.02932
C        -21.22855      -11.71661      -15.14615
C        -21.70751      -12.39767      -14.00551
C        -21.42237      -11.85718      -12.73009
F        -20.05939       -8.60026      -13.77957
F        -20.22939       -9.75887      -16.10395
O        -21.70748      -12.45108      -11.51679
C        -22.39297      -13.69994      -11.49771
C        -22.64318      -14.14062      -10.06924
O        -22.39028      -13.59164      -14.06179
C        -23.36097      -13.82602      -15.08693
C        -24.67419      -14.31872      -14.52024
C        -21.36597      -12.25171      -16.48027
C        -21.07057      -13.50252      -16.97760
C        -21.58924      -13.67190      -18.28596
C        -22.07346      -12.48143      -18.77607
S        -22.13962      -11.25807      -17.62007
C        -23.60888      -12.51392      -23.72066
C        -23.27782      -11.65519      -24.78210
C        -22.45676      -10.54694      -24.53429
C        -21.96135      -10.29552      -23.24942
C        -22.34839      -11.12695      -22.17351
C        -23.17080      -12.23447      -22.42584
C        -23.63437      -11.71976      -26.15812
C        -23.20177      -10.64122      -26.88639
S        -22.17567       -9.65786      -25.98436
C        -22.03730      -11.06247      -20.78630
C        -22.45745      -12.16460      -20.09423
S        -23.51443      -13.11044      -20.97684
C        -24.43270      -13.71111      -23.99041
C        -21.01586       -9.17072      -23.02152
C        -25.63220      -13.83197      -24.67491
C        -26.10645      -15.16530      -24.69049
C        -25.31973      -16.04008      -23.98809
S        -23.88120      -15.26925      -23.48782
C        -21.03267       -7.86396      -23.49354
C        -19.96813       -7.08692      -22.97727
C        -19.18054       -7.76066      -22.08156
S        -19.55825       -9.42597      -22.11630
C        -25.55135      -17.48308      -23.67768
C        -24.70229      -18.38522      -24.55683
C        -18.10680       -7.22967      -21.18489
C        -18.69834       -6.60157      -19.92581
C        -23.57348      -10.32836      -28.22523
C        -22.94917       -9.51280      -29.14219
C        -23.70468       -9.39176      -30.34683
C        -24.79819      -10.23470      -30.35502
S        -25.00000      -11.00166      -28.84594
F        -27.20992      -15.51890      -25.29217
F        -19.80354       -5.82495      -23.26947
C        -25.70564      -10.65436      -31.41968
C        -27.08009      -10.67498      -31.12406
C        -28.00970      -11.16477      -32.01461
C        -27.63162      -11.60103      -33.28434
C        -26.24596      -11.56848      -33.62591
C        -25.27063      -11.12989      -32.67827
F        -27.53995      -10.22913      -29.94146
F        -29.29316      -11.20002      -31.61789
O        -23.96057      -11.11579      -33.09494
C        -22.88524      -11.54339      -32.25633
C        -22.12708      -12.69982      -32.87798
O        -25.96817      -12.04799      -34.88727
C        -24.67700      -11.87689      -35.45726
C        -24.72438      -12.29458      -36.91319
C        -28.72001      -12.04952      -34.18247
C        -29.85042      -12.78695      -33.85626
C        -30.75680      -12.93410      -34.94399
C        -30.28571      -12.32676      -36.08293
S        -28.79603      -11.53565      -35.82053
H         -4.23851        3.53865       -4.81004
H          1.24799        8.18121       -3.95438
H          3.03882        6.54670       -4.86544
H         -3.14744        2.67887       -6.59210
H         -3.30210        8.96038       -2.55307
H         -0.35652       -1.35981       -5.58467
H          0.89951       -0.49639       -4.70255
H          0.50596       -0.41997       -7.74787
H          1.77793       -1.28904       -6.87138
H          1.74617        0.48285       -6.86836
H         -1.24451       13.30546       -3.96537
H         -0.03520       12.58990       -5.02756
H          0.05640       12.53051       -1.95844
H          1.05287       13.53822       -3.02397
H          1.25414       11.77750       -3.01877
H         -7.42864        7.18231       -4.73300
H         -9.73116        5.95277       -4.33134
H         -8.94728        4.23207       -6.69519
H        -10.05088        5.63590       -6.74049
H        -10.03683        3.25973       -8.63737
H         -9.48095        4.90982       -8.98137
H        -11.20605        4.58568       -8.69798
H        -12.35008        2.69365       -7.61186
H        -13.30446        3.61607       -6.38048
H        -14.23890        1.17250       -7.95383
H        -14.73850        2.85629       -8.23207
H        -15.18244        2.01433       -6.72668
H        -12.06238       -1.01711       -2.08943
H        -13.67880       -2.98371       -2.72313
H        -19.03535       -7.75493       -7.25537
H        -14.64603       -2.08180       -7.38351
H        -17.37616       -8.79499       -5.99448
H        -17.43882       -3.32541      -11.09187
H        -18.14443       -8.51702       -1.04025
H        -17.89931       -6.77523       -0.92574
H        -15.67949       -8.83513       -1.44793
H        -15.98345       -7.98205        0.07526
H        -15.43716       -7.08665       -1.35293
H        -13.12962       -1.74424      -13.07431
H        -12.15293       -1.97028      -11.63071
H        -14.10167        0.35460      -12.09988
H        -12.33399        0.42470      -12.17502
H        -13.14334        0.11814      -10.62969
H        -21.01979       -8.58880       -8.39560
H        -22.03701      -10.42169       -9.97846
H        -21.78440      -14.46975      -11.98465
H        -23.37261      -13.59245      -11.97333
H        -21.70491      -14.22781       -9.51467
H        -23.15061      -15.11099      -10.06363
H        -23.27211      -13.41451       -9.54563
H        -22.97248      -14.62640      -15.72375
H        -23.59325      -12.93924      -15.67740
H        -24.52898      -15.19902      -13.88969
H        -25.34907      -14.57823      -15.34350
H        -25.14553      -13.53917      -13.91632
H        -20.61320      -14.29230      -16.39030
H        -21.55573      -14.59616      -18.85070
H        -24.25415      -12.50234      -26.57751
H        -21.44388      -10.28462      -20.32450
H        -26.15223      -13.00517      -25.14098
H        -21.78582       -7.45780      -24.15550
H        -26.61115      -17.72806      -23.81835
H        -25.32885      -17.67973      -22.62062
H        -24.92397      -18.21748      -25.61577
H        -24.89540      -19.43598      -24.32354
H        -23.63377      -18.19785      -24.40436
H        -17.51860       -6.47694      -21.72172
H        -17.41248       -8.02622      -20.89289
H        -19.37048       -5.77177      -20.17178
H        -17.90298       -6.21083      -19.28278
H        -19.27172       -7.33313      -19.34497
H        -21.99682       -9.02805      -28.96395
H        -23.38316       -8.81427      -31.20471
H        -23.19679      -11.86883      -31.26508
H        -22.18961      -10.69988      -32.17311
H        -22.77033      -13.58211      -32.93895
H        -21.25392      -12.94682      -32.26484
H        -21.78836      -12.45951      -33.88953
H        -23.96925      -12.53871      -34.95347
H        -24.35733      -10.82956      -35.40913
H        -25.11401      -13.31263      -37.00867
H        -23.72308      -12.25388      -37.35225
H        -25.38706      -11.63550      -37.48168
H        -30.04356      -13.17675      -32.86264
H        -31.70575      -13.45255      -34.88833
H        -30.75464      -12.28684      -37.05538
