AOIC1.sdf
  xtb     12172115023D
 energy: -285.649930330574 gnorm: 0.000288002737 xtb: 6.4.1 (unknown)
169186  0     0  0            999 V2000
   -1.0199   -8.9077   -1.0395 C   0  0  0  0  0  0  0  0  0  0  0  0
   -1.5925   -9.5587   -2.1109 C   0  0  0  0  0  0  0  0  0  0  0  0
   -1.9889  -10.9490   -2.1394 C   0  0  0  0  0  0  0  0  0  0  0  0
   -2.6335  -11.1932   -3.4324 C   0  0  0  0  0  0  0  0  0  0  0  0
   -2.6066  -10.0049   -4.1813 C   0  0  0  0  0  0  0  0  0  0  0  0
   -1.9450   -8.9450   -3.3899 C   0  0  0  0  0  0  0  0  0  0  0  0
   -3.2160  -12.3308   -3.9672 C   0  0  0  0  0  0  0  0  0  0  0  0
   -3.7586  -12.2476   -5.2417 C   0  0  0  0  0  0  0  0  0  0  0  0
   -3.7256  -11.0635   -5.9770 C   0  0  0  0  0  0  0  0  0  0  0  0
   -3.1438   -9.9214   -5.4497 C   0  0  0  0  0  0  0  0  0  0  0  0
   -1.7483   -7.7983   -3.7511 O   0  0  0  0  0  0  0  0  0  0  0  0
   -1.8042  -11.8957   -1.1635 C   0  0  0  0  0  0  0  0  0  0  0  0
   -1.1637  -11.6896    0.0758 C   0  0  0  0  0  0  0  0  0  0  0  0
   -2.2313  -13.2359   -1.2708 C   0  0  0  0  0  0  0  0  0  0  0  0
   -2.5537  -14.3374   -1.2908 N   0  0  0  0  0  0  0  0  0  0  0  0
   -0.6529  -11.6117    1.1022 N   0  0  0  0  0  0  0  0  0  0  0  0
   -4.2623  -11.0286   -7.2035 F   0  0  0  0  0  0  0  0  0  0  0  0
   -4.3291  -13.3352   -5.7738 F   0  0  0  0  0  0  0  0  0  0  0  0
   -0.1200    6.3645    1.0922 C   0  0  0  0  0  0  0  0  0  0  0  0
    0.2507    5.0160    2.1326 S   0  0  0  0  0  0  0  0  0  0  0  0
    0.2370    3.9737    0.7527 C   0  0  0  0  0  0  0  0  0  0  0  0
   -0.0181    4.6198   -0.4477 C   0  0  0  0  0  0  0  0  0  0  0  0
   -0.2251    5.9824   -0.2651 C   0  0  0  0  0  0  0  0  0  0  0  0
    0.3624    2.5658    0.5456 C   0  0  0  0  0  0  0  0  0  0  0  0
    0.1362    2.3282   -0.8322 C   0  0  0  0  0  0  0  0  0  0  0  0
   -0.0521    3.6345   -1.5839 C   0  0  0  0  0  0  0  0  0  0  0  0
    1.1260    3.7840   -2.5347 C   0  0  0  0  0  0  0  0  0  0  0  0
   -1.3762    3.7779   -2.3083 C   0  0  0  0  0  0  0  0  0  0  0  0
    0.6119    1.5290    1.4412 C   0  0  0  0  0  0  0  0  0  0  0  0
    0.5951    0.2496    0.9391 C   0  0  0  0  0  0  0  0  0  0  0  0
    0.3129    0.0086   -0.4247 C   0  0  0  0  0  0  0  0  0  0  0  0
    0.1097    1.0474   -1.3307 C   0  0  0  0  0  0  0  0  0  0  0  0
    0.7626   -1.0580    1.7023 C   0  0  0  0  0  0  0  0  0  0  0  0
    0.5412   -2.0712    0.6021 C   0  0  0  0  0  0  0  0  0  0  0  0
    0.2677   -1.4063   -0.5945 C   0  0  0  0  0  0  0  0  0  0  0  0
   -0.3548   -1.0542    2.7334 C   0  0  0  0  0  0  0  0  0  0  0  0
    2.1490   -1.2201    2.2911 C   0  0  0  0  0  0  0  0  0  0  0  0
    0.4745   -3.4516    0.4473 C   0  0  0  0  0  0  0  0  0  0  0  0
    0.0829   -3.7936   -0.8578 C   0  0  0  0  0  0  0  0  0  0  0  0
   -0.1238   -2.4441   -1.9134 S   0  0  0  0  0  0  0  0  0  0  0  0
    0.7127   -4.7094    1.2596 C   0  0  0  0  0  0  0  0  0  0  0  0
    0.1637   -5.7549    0.3022 C   0  0  0  0  0  0  0  0  0  0  0  0
   -0.1286   -5.1816   -0.9497 C   0  0  0  0  0  0  0  0  0  0  0  0
   -0.1158   -7.0965    0.3339 C   0  0  0  0  0  0  0  0  0  0  0  0
   -0.6329   -7.5772   -0.8843 C   0  0  0  0  0  0  0  0  0  0  0  0
   -0.7417   -6.2973   -2.0900 S   0  0  0  0  0  0  0  0  0  0  0  0
    3.2410   -0.5819    1.7174 C   0  0  0  0  0  0  0  0  0  0  0  0
   -2.4616    2.9633   -2.0230 C   0  0  0  0  0  0  0  0  0  0  0  0
   -3.6656    3.1510   -2.6787 C   0  0  0  0  0  0  0  0  0  0  0  0
   -3.8198    4.1618   -3.6172 C   0  0  0  0  0  0  0  0  0  0  0  0
   -2.7345    4.9882   -3.8821 C   0  0  0  0  0  0  0  0  0  0  0  0
   -1.5285    4.8020   -3.2359 C   0  0  0  0  0  0  0  0  0  0  0  0
    1.0780    3.1932   -3.7909 C   0  0  0  0  0  0  0  0  0  0  0  0
    2.1537    3.2904   -4.6527 C   0  0  0  0  0  0  0  0  0  0  0  0
    3.3039    3.9768   -4.2851 C   0  0  0  0  0  0  0  0  0  0  0  0
    3.3507    4.5543   -3.0237 C   0  0  0  0  0  0  0  0  0  0  0  0
    2.2787    4.4570   -2.1560 C   0  0  0  0  0  0  0  0  0  0  0  0
   -0.1563   -0.4863    3.9861 C   0  0  0  0  0  0  0  0  0  0  0  0
   -1.2068   -0.3672    4.8774 C   0  0  0  0  0  0  0  0  0  0  0  0
   -2.4739   -0.7989    4.5248 C   0  0  0  0  0  0  0  0  0  0  0  0
   -2.6803   -1.3592    3.2773 C   0  0  0  0  0  0  0  0  0  0  0  0
   -1.6294   -1.4810    2.3866 C   0  0  0  0  0  0  0  0  0  0  0  0
    2.3588   -2.0513    3.3823 C   0  0  0  0  0  0  0  0  0  0  0  0
    3.6256   -2.2116    3.9096 C   0  0  0  0  0  0  0  0  0  0  0  0
    4.7155   -1.5460    3.3649 C   0  0  0  0  0  0  0  0  0  0  0  0
    4.5059   -0.7423    2.2525 C   0  0  0  0  0  0  0  0  0  0  0  0
    2.2003   -5.0158    1.3851 C   0  0  0  0  0  0  0  0  0  0  0  0
    3.1794   -4.1771    0.8754 C   0  0  0  0  0  0  0  0  0  0  0  0
    4.5139   -4.5406    0.9253 C   0  0  0  0  0  0  0  0  0  0  0  0
    4.9091   -5.7471    1.4825 C   0  0  0  0  0  0  0  0  0  0  0  0
    3.9264   -6.5790    2.0065 C   0  0  0  0  0  0  0  0  0  0  0  0
    2.5940   -6.2237    1.9536 C   0  0  0  0  0  0  0  0  0  0  0  0
   -0.0389   -4.7149    2.5750 C   0  0  0  0  0  0  0  0  0  0  0  0
   -1.4257   -4.6380    2.5468 C   0  0  0  0  0  0  0  0  0  0  0  0
   -2.1589   -4.6600    3.7180 C   0  0  0  0  0  0  0  0  0  0  0  0
   -1.5295   -4.7665    4.9505 C   0  0  0  0  0  0  0  0  0  0  0  0
   -0.1432   -4.8397    4.9740 C   0  0  0  0  0  0  0  0  0  0  0  0
    0.5953   -4.8135    3.8056 C   0  0  0  0  0  0  0  0  0  0  0  0
   -5.1091    4.3295   -4.3675 C   0  0  0  0  0  0  0  0  0  0  0  0
   -5.0670    3.5418   -5.6788 C   0  0  0  0  0  0  0  0  0  0  0  0
    4.4868    4.0508   -5.2064 C   0  0  0  0  0  0  0  0  0  0  0  0
    5.4542    2.8986   -4.9278 C   0  0  0  0  0  0  0  0  0  0  0  0
    6.0887   -1.7148    3.9482 C   0  0  0  0  0  0  0  0  0  0  0  0
    6.8203   -2.8821    3.2851 C   0  0  0  0  0  0  0  0  0  0  0  0
    6.3455   -6.1837    1.4649 C   0  0  0  0  0  0  0  0  0  0  0  0
    6.6053   -7.1059    0.2717 C   0  0  0  0  0  0  0  0  0  0  0  0
   -2.3122   -4.7989    6.2316 C   0  0  0  0  0  0  0  0  0  0  0  0
   -2.1309   -3.5054    7.0260 C   0  0  0  0  0  0  0  0  0  0  0  0
   -0.9662    9.7379   -0.1077 C   0  0  0  0  0  0  0  0  0  0  0  0
   -1.2023   10.8068    0.7218 C   0  0  0  0  0  0  0  0  0  0  0  0
   -1.5411   12.1332    0.2344 C   0  0  0  0  0  0  0  0  0  0  0  0
   -1.9439   12.9411    1.3855 C   0  0  0  0  0  0  0  0  0  0  0  0
   -1.7758   12.1762    2.5497 C   0  0  0  0  0  0  0  0  0  0  0  0
   -1.2743   10.8287    2.1964 C   0  0  0  0  0  0  0  0  0  0  0  0
   -1.0002    9.9560    2.9936 O   0  0  0  0  0  0  0  0  0  0  0  0
   -1.4574   12.5985   -1.0519 C   0  0  0  0  0  0  0  0  0  0  0  0
   -0.9948   11.8780   -2.1745 C   0  0  0  0  0  0  0  0  0  0  0  0
   -0.6197   11.3825   -3.1405 N   0  0  0  0  0  0  0  0  0  0  0  0
   -1.7993   13.9124   -1.4391 C   0  0  0  0  0  0  0  0  0  0  0  0
   -2.0642   14.9604   -1.8247 N   0  0  0  0  0  0  0  0  0  0  0  0
   -2.4254   14.2381    1.4767 C   0  0  0  0  0  0  0  0  0  0  0  0
   -2.7229   14.7350    2.7369 C   0  0  0  0  0  0  0  0  0  0  0  0
   -2.5449   13.9686    3.8890 C   0  0  0  0  0  0  0  0  0  0  0  0
   -2.0660   12.6716    3.8054 C   0  0  0  0  0  0  0  0  0  0  0  0
   -3.1951   15.9822    2.8456 F   0  0  0  0  0  0  0  0  0  0  0  0
   -2.8432   14.4907    5.0851 F   0  0  0  0  0  0  0  0  0  0  0  0
   -0.6009    7.3292   -1.2579 S   0  0  0  0  0  0  0  0  0  0  0  0
   -0.6457    8.3979    0.1573 C   0  0  0  0  0  0  0  0  0  0  0  0
   -0.3530    7.7083    1.3276 C   0  0  0  0  0  0  0  0  0  0  0  0
   -0.8510   -9.5026   -0.1502 H   0  0  0  0  0  0  0  0  0  0  0  0
   -3.2693  -13.2699   -3.4418 H   0  0  0  0  0  0  0  0  0  0  0  0
   -3.1163   -9.0031   -6.0143 H   0  0  0  0  0  0  0  0  0  0  0  0
    0.7959    1.7314    2.4849 H   0  0  0  0  0  0  0  0  0  0  0  0
   -0.0819    0.8423   -2.3724 H   0  0  0  0  0  0  0  0  0  0  0  0
    0.0017   -7.7446    1.1837 H   0  0  0  0  0  0  0  0  0  0  0  0
    3.1031    0.0535    0.8537 H   0  0  0  0  0  0  0  0  0  0  0  0
   -2.3698    2.1765   -1.2882 H   0  0  0  0  0  0  0  0  0  0  0  0
   -4.4994    2.5020   -2.4518 H   0  0  0  0  0  0  0  0  0  0  0  0
   -2.8346    5.7882   -4.6010 H   0  0  0  0  0  0  0  0  0  0  0  0
   -0.6938    5.4510   -3.4586 H   0  0  0  0  0  0  0  0  0  0  0  0
    0.1871    2.6682   -4.1030 H   0  0  0  0  0  0  0  0  0  0  0  0
    2.0964    2.8303   -5.6288 H   0  0  0  0  0  0  0  0  0  0  0  0
    4.2360    5.0920   -2.7155 H   0  0  0  0  0  0  0  0  0  0  0  0
    2.3442    4.9148   -1.1796 H   0  0  0  0  0  0  0  0  0  0  0  0
    0.8241   -0.1313    4.2678 H   0  0  0  0  0  0  0  0  0  0  0  0
   -1.0360    0.0758    5.8476 H   0  0  0  0  0  0  0  0  0  0  0  0
   -3.2991   -0.6843    5.2123 H   0  0  0  0  0  0  0  0  0  0  0  0
   -3.6660   -1.6927    2.9890 H   0  0  0  0  0  0  0  0  0  0  0  0
   -1.8103   -1.8994    1.4080 H   0  0  0  0  0  0  0  0  0  0  0  0
    1.5198   -2.5619    3.8288 H   0  0  0  0  0  0  0  0  0  0  0  0
    3.7673   -2.8542    4.7669 H   0  0  0  0  0  0  0  0  0  0  0  0
    5.3416   -0.2244    1.8035 H   0  0  0  0  0  0  0  0  0  0  0  0
    2.9146   -3.2319    0.4283 H   0  0  0  0  0  0  0  0  0  0  0  0
    5.2555   -3.8723    0.5128 H   0  0  0  0  0  0  0  0  0  0  0  0
    4.2077   -7.5226    2.4517 H   0  0  0  0  0  0  0  0  0  0  0  0
    1.8503   -6.8928    2.3589 H   0  0  0  0  0  0  0  0  0  0  0  0
   -1.9365   -4.5735    1.5961 H   0  0  0  0  0  0  0  0  0  0  0  0
   -3.2369   -4.6058    3.6720 H   0  0  0  0  0  0  0  0  0  0  0  0
    0.3696   -4.9310    5.9208 H   0  0  0  0  0  0  0  0  0  0  0  0
    1.6711   -4.8867    3.8565 H   0  0  0  0  0  0  0  0  0  0  0  0
   -5.9426    3.9728   -3.7594 H   0  0  0  0  0  0  0  0  0  0  0  0
   -5.2734    5.3860   -4.5886 H   0  0  0  0  0  0  0  0  0  0  0  0
   -4.9169    2.4830   -5.4794 H   0  0  0  0  0  0  0  0  0  0  0  0
   -4.2485    3.8916   -6.3039 H   0  0  0  0  0  0  0  0  0  0  0  0
   -5.9987    3.6637   -6.2259 H   0  0  0  0  0  0  0  0  0  0  0  0
    4.1523    3.9972   -6.2440 H   0  0  0  0  0  0  0  0  0  0  0  0
    5.0076    4.9997   -5.0636 H   0  0  0  0  0  0  0  0  0  0  0  0
    4.9569    1.9426   -5.0760 H   0  0  0  0  0  0  0  0  0  0  0  0
    5.8101    2.9428   -3.9008 H   0  0  0  0  0  0  0  0  0  0  0  0
    6.3111    2.9520   -5.5951 H   0  0  0  0  0  0  0  0  0  0  0  0
    6.0104   -1.9045    5.0206 H   0  0  0  0  0  0  0  0  0  0  0  0
    6.6662   -0.7992    3.8050 H   0  0  0  0  0  0  0  0  0  0  0  0
    7.8030   -3.0184    3.7305 H   0  0  0  0  0  0  0  0  0  0  0  0
    6.2496   -3.8001    3.4050 H   0  0  0  0  0  0  0  0  0  0  0  0
    6.9449   -2.6915    2.2216 H   0  0  0  0  0  0  0  0  0  0  0  0
    6.9999   -5.3134    1.3948 H   0  0  0  0  0  0  0  0  0  0  0  0
    6.5825   -6.7175    2.3878 H   0  0  0  0  0  0  0  0  0  0  0  0
    6.3849   -6.5889   -0.6597 H   0  0  0  0  0  0  0  0  0  0  0  0
    5.9739   -7.9895    0.3290 H   0  0  0  0  0  0  0  0  0  0  0  0
    7.6455   -7.4225    0.2559 H   0  0  0  0  0  0  0  0  0  0  0  0
   -3.3715   -4.9423    6.0115 H   0  0  0  0  0  0  0  0  0  0  0  0
   -1.9759   -5.6423    6.8402 H   0  0  0  0  0  0  0  0  0  0  0  0
   -2.7139   -3.5398    7.9434 H   0  0  0  0  0  0  0  0  0  0  0  0
   -1.0854   -3.3578    7.2857 H   0  0  0  0  0  0  0  0  0  0  0  0
   -2.4561   -2.6539    6.4340 H   0  0  0  0  0  0  0  0  0  0  0  0
   -1.0736    9.9369   -1.1677 H   0  0  0  0  0  0  0  0  0  0  0  0
   -2.5834   14.8717    0.6197 H   0  0  0  0  0  0  0  0  0  0  0  0
   -1.9285   12.0731    4.6919 H   0  0  0  0  0  0  0  0  0  0  0  0
   -0.3274    8.1804    2.2920 H   0  0  0  0  0  0  0  0  0  0  0  0
  1  2  2  0  0  0  0
  2  3  1  0  0  0  0
  3  4  1  0  0  0  0
  4  5  2  0  0  0  0
  5  6  1  0  0  0  0
  6  2  1  0  0  0  0
  4  7  1  0  0  0  0
  7  8  2  0  0  0  0
  8  9  1  0  0  0  0
  9 10  2  0  0  0  0
 10  5  1  0  0  0  0
  6 11  2  0  0  0  0
  3 12  2  0  0  0  0
 12 13  1  0  0  0  0
 12 14  1  0  0  0  0
 14 15  3  0  0  0  0
 13 16  3  0  0  0  0
  9 17  1  0  0  0  0
  8 18  1  0  0  0  0
 19 20  1  0  0  0  0
 20 21  1  0  0  0  0
 21 22  2  0  0  0  0
 22 23  1  0  0  0  0
 23 19  2  0  0  0  0
 21 24  1  0  0  0  0
 24 25  2  0  0  0  0
 25 26  1  0  0  0  0
 26 22  1  0  0  0  0
 26 27  1  0  0  0  0
 26 28  1  0  0  0  0
 24 29  1  0  0  0  0
 29 30  2  0  0  0  0
 30 31  1  0  0  0  0
 31 32  2  0  0  0  0
 32 25  1  0  0  0  0
 30 33  1  0  0  0  0
 33 34  1  0  0  0  0
 34 35  2  0  0  0  0
 35 31  1  0  0  0  0
 33 36  1  0  0  0  0
 33 37  1  0  0  0  0
 34 38  1  0  0  0  0
 38 39  2  0  0  0  0
 39 40  1  0  0  0  0
 40 35  1  0  0  0  0
 38 41  1  0  0  0  0
 41 42  1  0  0  0  0
 42 43  2  0  0  0  0
 43 39  1  0  0  0  0
 42 44  1  0  0  0  0
 44 45  2  0  0  0  0
 45 46  1  0  0  0  0
 46 43  1  0  0  0  0
 28 48  2  0  0  0  0
 48 49  1  0  0  0  0
 49 50  2  0  0  0  0
 50 51  1  0  0  0  0
 51 52  2  0  0  0  0
 52 28  1  0  0  0  0
 27 53  2  0  0  0  0
 53 54  1  0  0  0  0
 54 55  2  0  0  0  0
 55 56  1  0  0  0  0
 56 57  2  0  0  0  0
 57 27  1  0  0  0  0
 36 58  2  0  0  0  0
 58 59  1  0  0  0  0
 59 60  2  0  0  0  0
 60 61  1  0  0  0  0
 61 62  2  0  0  0  0
 62 36  1  0  0  0  0
 37 63  2  0  0  0  0
 63 64  1  0  0  0  0
 64 65  2  0  0  0  0
 65 66  1  0  0  0  0
 66 47  2  0  0  0  0
 47 37  1  0  0  0  0
 67 68  2  0  0  0  0
 68 69  1  0  0  0  0
 69 70  2  0  0  0  0
 70 71  1  0  0  0  0
 71 72  2  0  0  0  0
 72 67  1  0  0  0  0
 73 74  2  0  0  0  0
 74 75  1  0  0  0  0
 75 76  2  0  0  0  0
 76 77  1  0  0  0  0
 77 78  2  0  0  0  0
 78 73  1  0  0  0  0
 67 41  1  0  0  0  0
 41 73  1  0  0  0  0
 50 79  1  0  0  0  0
 79 80  1  0  0  0  0
 55 81  1  0  0  0  0
 81 82  1  0  0  0  0
 65 83  1  0  0  0  0
 83 84  1  0  0  0  0
 70 85  1  0  0  0  0
 85 86  1  0  0  0  0
 76 87  1  0  0  0  0
 87 88  1  0  0  0  0
 89 90  2  0  0  0  0
 90 91  1  0  0  0  0
 91 92  1  0  0  0  0
 92 93  2  0  0  0  0
 93 94  1  0  0  0  0
 94 90  1  0  0  0  0
 94 95  2  0  0  0  0
 91 96  2  0  0  0  0
 96 97  1  0  0  0  0
 97 98  3  0  0  0  0
 96 99  1  0  0  0  0
 99100  3  0  0  0  0
 92101  1  0  0  0  0
101102  2  0  0  0  0
102103  1  0  0  0  0
103104  2  0  0  0  0
104 93  1  0  0  0  0
102105  1  0  0  0  0
103106  1  0  0  0  0
 23107  1  0  0  0  0
107108  1  0  0  0  0
108109  2  0  0  0  0
109 19  1  0  0  0  0
108 89  1  0  0  0  0
 45  1  1  0  0  0  0
  1110  1  0  0  0  0
  7111  1  0  0  0  0
 10112  1  0  0  0  0
 29113  1  0  0  0  0
 32114  1  0  0  0  0
 44115  1  0  0  0  0
 47116  1  0  0  0  0
 48117  1  0  0  0  0
 49118  1  0  0  0  0
 51119  1  0  0  0  0
 52120  1  0  0  0  0
 53121  1  0  0  0  0
 54122  1  0  0  0  0
 56123  1  0  0  0  0
 57124  1  0  0  0  0
 58125  1  0  0  0  0
 59126  1  0  0  0  0
 60127  1  0  0  0  0
 61128  1  0  0  0  0
 62129  1  0  0  0  0
 63130  1  0  0  0  0
 64131  1  0  0  0  0
 66132  1  0  0  0  0
 68133  1  0  0  0  0
 69134  1  0  0  0  0
 71135  1  0  0  0  0
 72136  1  0  0  0  0
 74137  1  0  0  0  0
 75138  1  0  0  0  0
 77139  1  0  0  0  0
 78140  1  0  0  0  0
 79141  1  0  0  0  0
 79142  1  0  0  0  0
 80143  1  0  0  0  0
 80144  1  0  0  0  0
 80145  1  0  0  0  0
 81146  1  0  0  0  0
 81147  1  0  0  0  0
 82148  1  0  0  0  0
 82149  1  0  0  0  0
 82150  1  0  0  0  0
 83151  1  0  0  0  0
 83152  1  0  0  0  0
 84153  1  0  0  0  0
 84154  1  0  0  0  0
 84155  1  0  0  0  0
 85156  1  0  0  0  0
 85157  1  0  0  0  0
 86158  1  0  0  0  0
 86159  1  0  0  0  0
 86160  1  0  0  0  0
 87161  1  0  0  0  0
 87162  1  0  0  0  0
 88163  1  0  0  0  0
 88164  1  0  0  0  0
 88165  1  0  0  0  0
 89166  1  0  0  0  0
101167  1  0  0  0  0
104168  1  0  0  0  0
109169  1  0  0  0  0
M  END
