BTP-N.sdf
  xtb     12172115053D
 energy: -203.014294671707 gnorm: 0.000522063112 xtb: 6.4.1 (unknown)
108119  0     0  0            999 V2000
   -0.6147   -6.3588   -5.9778 C   0  0  0  0  0  0  0  0  0  0  0  0
   -0.8349   -5.2964   -5.4227 O   0  0  0  0  0  0  0  0  0  0  0  0
   -1.0154   -6.7140   -7.3563 C   0  0  0  0  0  0  0  0  0  0  0  0
   -1.6990   -5.9453   -8.2764 C   0  0  0  0  0  0  0  0  0  0  0  0
   -1.9542   -6.5058   -9.5178 C   0  0  0  0  0  0  0  0  0  0  0  0
   -2.6142   -5.7964  -10.4425 F   0  0  0  0  0  0  0  0  0  0  0  0
   -1.5296   -7.8007   -9.8128 C   0  0  0  0  0  0  0  0  0  0  0  0
   -1.7886   -8.3171  -11.0199 F   0  0  0  0  0  0  0  0  0  0  0  0
   -0.8426   -8.5725   -8.8866 C   0  0  0  0  0  0  0  0  0  0  0  0
   -0.5834   -8.0193   -7.6429 C   0  0  0  0  0  0  0  0  0  0  0  0
    0.1071   -8.5542   -6.4668 C   0  0  0  0  0  0  0  0  0  0  0  0
    0.6585   -9.8083   -6.3847 C   0  0  0  0  0  0  0  0  0  0  0  0
    1.3259  -10.3475   -5.2656 C   0  0  0  0  0  0  0  0  0  0  0  0
    1.8804  -10.8644   -4.4018 N   0  0  0  0  0  0  0  0  0  0  0  0
    0.6317  -10.7539   -7.4314 C   0  0  0  0  0  0  0  0  0  0  0  0
    0.6448  -11.5695   -8.2391 N   0  0  0  0  0  0  0  0  0  0  0  0
    0.0866   -7.5262   -5.4490 C   0  0  0  0  0  0  0  0  0  0  0  0
    0.6483   -7.6417   -4.1952 C   0  0  0  0  0  0  0  0  0  0  0  0
    0.7080   -6.7452   -3.1303 C   0  0  0  0  0  0  0  0  0  0  0  0
    0.0356   -5.1103   -3.1406 S   0  0  0  0  0  0  0  0  0  0  0  0
    0.5997   -4.8591   -1.5338 C   0  0  0  0  0  0  0  0  0  0  0  0
    1.2657   -5.9895   -1.0214 C   0  0  0  0  0  0  0  0  0  0  0  0
    1.3360   -7.0533   -1.9054 C   0  0  0  0  0  0  0  0  0  0  0  0
    1.9558   -8.3652   -1.5518 C   0  0  0  0  0  0  0  0  0  0  0  0
    0.8893   -9.3704   -1.1080 C   0  0  0  0  0  0  0  0  0  0  0  0
    1.8647   -5.7647    0.6120 S   0  0  0  0  0  0  0  0  0  0  0  0
    1.2278   -4.1550    0.5958 C   0  0  0  0  0  0  0  0  0  0  0  0
    0.5759   -3.8219   -0.6031 C   0  0  0  0  0  0  0  0  0  0  0  0
    0.0951   -2.5374   -0.5384 N   0  0  0  0  0  0  0  0  0  0  0  0
   -0.0734   -1.7636   -1.7532 C   0  0  0  0  0  0  0  0  0  0  0  0
    0.4318   -2.0459    0.7092 C   0  0  0  0  0  0  0  0  0  0  0  0
    1.1769   -3.0253    1.4241 C   0  0  0  0  0  0  0  0  0  0  0  0
    1.7722   -2.6782    2.6567 C   0  0  0  0  0  0  0  0  0  0  0  0
    2.5522   -3.3552    3.5006 N   0  0  0  0  0  0  0  0  0  0  0  0
    2.8750   -2.4760    4.4157 N   0  0  0  0  0  0  0  0  0  0  0  0
    2.3831   -1.2718    4.2701 N   0  0  0  0  0  0  0  0  0  0  0  0
    1.6624   -1.3452    3.1503 C   0  0  0  0  0  0  0  0  0  0  0  0
    0.8338   -0.4135    2.4882 C   0  0  0  0  0  0  0  0  0  0  0  0
    0.1290   -0.8142    1.3221 C   0  0  0  0  0  0  0  0  0  0  0  0
   -0.7428    0.1914    0.9349 N   0  0  0  0  0  0  0  0  0  0  0  0
   -2.0285   -0.0060    0.2937 C   0  0  0  0  0  0  0  0  0  0  0  0
   -3.1590   -0.0607    1.3211 C   0  0  0  0  0  0  0  0  0  0  0  0
   -0.5497    1.2367    1.8040 C   0  0  0  0  0  0  0  0  0  0  0  0
    0.4244    0.9026    2.7570 C   0  0  0  0  0  0  0  0  0  0  0  0
    0.7615    2.1770    3.8766 S   0  0  0  0  0  0  0  0  0  0  0  0
   -0.4093    3.1811    3.0584 C   0  0  0  0  0  0  0  0  0  0  0  0
   -1.0338    2.5331    1.9848 C   0  0  0  0  0  0  0  0  0  0  0  0
   -2.1824    3.5628    1.2163 S   0  0  0  0  0  0  0  0  0  0  0  0
   -1.7399    4.8962    2.2911 C   0  0  0  0  0  0  0  0  0  0  0  0
   -0.8038    4.5149    3.2429 C   0  0  0  0  0  0  0  0  0  0  0  0
   -0.3739    5.3097    4.4335 C   0  0  0  0  0  0  0  0  0  0  0  0
   -0.9051    4.6789    5.7228 C   0  0  0  0  0  0  0  0  0  0  0  0
   -2.3768    6.1407    2.0444 C   0  0  0  0  0  0  0  0  0  0  0  0
    1.2420   -1.6489   -2.5224 C   0  0  0  0  0  0  0  0  0  0  0  0
   -0.4202    7.5811    2.2616 C   0  0  0  0  0  0  0  0  0  0  0  0
    0.1970    8.8021    2.3596 C   0  0  0  0  0  0  0  0  0  0  0  0
    1.6218    9.0479    2.3648 C   0  0  0  0  0  0  0  0  0  0  0  0
    2.6269    8.1148    2.4166 C   0  0  0  0  0  0  0  0  0  0  0  0
    4.0021    8.4302    2.4166 C   0  0  0  0  0  0  0  0  0  0  0  0
    5.1351    8.6142    2.4149 N   0  0  0  0  0  0  0  0  0  0  0  0
    2.4439    6.7208    2.5062 C   0  0  0  0  0  0  0  0  0  0  0  0
    2.3786    5.5776    2.6059 N   0  0  0  0  0  0  0  0  0  0  0  0
    1.8186   10.4980    2.3373 C   0  0  0  0  0  0  0  0  0  0  0  0
    2.9734   11.2634    2.2894 C   0  0  0  0  0  0  0  0  0  0  0  0
    2.8394   12.6437    2.2692 C   0  0  0  0  0  0  0  0  0  0  0  0
    3.9420   13.4003    2.2190 F   0  0  0  0  0  0  0  0  0  0  0  0
    1.5881   13.2596    2.2980 C   0  0  0  0  0  0  0  0  0  0  0  0
    1.5066   14.5956    2.2757 F   0  0  0  0  0  0  0  0  0  0  0  0
    0.4295   12.5012    2.3480 C   0  0  0  0  0  0  0  0  0  0  0  0
    0.5631   11.1274    2.3659 C   0  0  0  0  0  0  0  0  0  0  0  0
   -0.5057   10.1014    2.4098 C   0  0  0  0  0  0  0  0  0  0  0  0
   -1.6984   10.3098    2.4707 O   0  0  0  0  0  0  0  0  0  0  0  0
   -1.8087    7.3779    2.1410 C   0  0  0  0  0  0  0  0  0  0  0  0
    3.6853   -2.8276    5.5457 C   0  0  0  0  0  0  0  0  0  0  0  0
    2.8134   -3.3115    6.7007 C   0  0  0  0  0  0  0  0  0  0  0  0
   -2.0247   -4.9441   -8.0437 H   0  0  0  0  0  0  0  0  0  0  0  0
   -0.5368   -9.5670   -9.1662 H   0  0  0  0  0  0  0  0  0  0  0  0
    1.1334   -8.5853   -3.9869 H   0  0  0  0  0  0  0  0  0  0  0  0
    2.5116   -8.7770   -2.3954 H   0  0  0  0  0  0  0  0  0  0  0  0
    2.6546   -8.2011   -0.7292 H   0  0  0  0  0  0  0  0  0  0  0  0
    0.3492   -8.9918   -0.2435 H   0  0  0  0  0  0  0  0  0  0  0  0
    1.3606  -10.3120   -0.8421 H   0  0  0  0  0  0  0  0  0  0  0  0
    0.1775   -9.5569   -1.9084 H   0  0  0  0  0  0  0  0  0  0  0  0
   -0.8249   -2.2576   -2.3764 H   0  0  0  0  0  0  0  0  0  0  0  0
   -0.4095   -0.7612   -1.4972 H   0  0  0  0  0  0  0  0  0  0  0  0
   -2.0123   -0.9503   -0.2478 H   0  0  0  0  0  0  0  0  0  0  0  0
   -2.2031    0.8170   -0.4069 H   0  0  0  0  0  0  0  0  0  0  0  0
   -4.0979   -0.2689    0.8160 H   0  0  0  0  0  0  0  0  0  0  0  0
   -2.9692   -0.8497    2.0459 H   0  0  0  0  0  0  0  0  0  0  0  0
   -3.2541    0.8836    1.8495 H   0  0  0  0  0  0  0  0  0  0  0  0
   -0.7375    6.3345    4.3607 H   0  0  0  0  0  0  0  0  0  0  0  0
    0.7186    5.3259    4.4632 H   0  0  0  0  0  0  0  0  0  0  0  0
   -0.5974    5.2767    6.5766 H   0  0  0  0  0  0  0  0  0  0  0  0
   -0.5193    3.6713    5.8515 H   0  0  0  0  0  0  0  0  0  0  0  0
   -1.9922    4.6376    5.7039 H   0  0  0  0  0  0  0  0  0  0  0  0
   -3.3996    6.0778    1.6924 H   0  0  0  0  0  0  0  0  0  0  0  0
    1.0942   -1.0262   -3.4000 H   0  0  0  0  0  0  0  0  0  0  0  0
    1.5894   -2.6249   -2.8488 H   0  0  0  0  0  0  0  0  0  0  0  0
    2.0064   -1.1948   -1.8950 H   0  0  0  0  0  0  0  0  0  0  0  0
    0.2015    6.6992    2.1877 H   0  0  0  0  0  0  0  0  0  0  0  0
    3.9628   10.8373    2.2637 H   0  0  0  0  0  0  0  0  0  0  0  0
   -0.5401   12.9726    2.3703 H   0  0  0  0  0  0  0  0  0  0  0  0
   -2.4364    8.2494    2.0288 H   0  0  0  0  0  0  0  0  0  0  0  0
    4.3682   -3.6168    5.2256 H   0  0  0  0  0  0  0  0  0  0  0  0
    4.2460   -1.9375    5.8371 H   0  0  0  0  0  0  0  0  0  0  0  0
    3.4380   -3.5786    7.5481 H   0  0  0  0  0  0  0  0  0  0  0  0
    2.1256   -2.5262    7.0047 H   0  0  0  0  0  0  0  0  0  0  0  0
    2.2410   -4.1847    6.3973 H   0  0  0  0  0  0  0  0  0  0  0  0
  1  2  2  0  0  0  0
  1  3  1  0  0  0  0
  3  4  2  0  0  0  0
  4  5  1  0  0  0  0
  5  6  1  0  0  0  0
  5  7  2  0  0  0  0
  7  8  1  0  0  0  0
  7  9  1  0  0  0  0
  9 10  2  0  0  0  0
  3 10  1  0  0  0  0
 10 11  1  0  0  0  0
 11 12  2  0  0  0  0
 12 13  1  0  0  0  0
 13 14  3  0  0  0  0
 12 15  1  0  0  0  0
 15 16  3  0  0  0  0
 11 17  1  0  0  0  0
  1 17  1  0  0  0  0
 17 18  2  0  0  0  0
 18 19  1  0  0  0  0
 19 20  1  0  0  0  0
 20 21  1  0  0  0  0
 21 22  2  0  0  0  0
 22 23  1  0  0  0  0
 23 24  1  0  0  0  0
 24 25  1  0  0  0  0
 19 23  2  0  0  0  0
 22 26  1  0  0  0  0
 26 27  1  0  0  0  0
 27 28  2  0  0  0  0
 21 28  1  0  0  0  0
 28 29  1  0  0  0  0
 29 30  1  0  0  0  0
 29 31  1  0  0  0  0
 31 32  2  0  0  0  0
 27 32  1  0  0  0  0
 32 33  1  0  0  0  0
 33 34  2  0  0  0  0
 34 35  1  0  0  0  0
 35 36  1  0  0  0  0
 36 37  2  0  0  0  0
 33 37  1  0  0  0  0
 37 38  1  0  0  0  0
 38 39  2  0  0  0  0
 31 39  1  0  0  0  0
 39 40  1  0  0  0  0
 40 41  1  0  0  0  0
 41 42  1  0  0  0  0
 40 43  1  0  0  0  0
 43 44  2  0  0  0  0
 38 44  1  0  0  0  0
 44 45  1  0  0  0  0
 45 46  1  0  0  0  0
 46 47  2  0  0  0  0
 43 47  1  0  0  0  0
 47 48  1  0  0  0  0
 48 49  1  0  0  0  0
 49 50  2  0  0  0  0
 46 50  1  0  0  0  0
 50 51  1  0  0  0  0
 51 52  1  0  0  0  0
 49 53  1  0  0  0  0
 30 54  1  0  0  0  0
 55 56  2  0  0  0  0
 56 57  1  0  0  0  0
 57 58  2  0  0  0  0
 58 59  1  0  0  0  0
 59 60  3  0  0  0  0
 58 61  1  0  0  0  0
 61 62  3  0  0  0  0
 57 63  1  0  0  0  0
 63 64  2  0  0  0  0
 64 65  1  0  0  0  0
 65 66  1  0  0  0  0
 65 67  2  0  0  0  0
 67 68  1  0  0  0  0
 67 69  1  0  0  0  0
 69 70  2  0  0  0  0
 63 70  1  0  0  0  0
 70 71  1  0  0  0  0
 71 72  2  0  0  0  0
 56 71  1  0  0  0  0
 53 73  2  0  0  0  0
 73 55  1  0  0  0  0
 35 74  1  0  0  0  0
 74 75  1  0  0  0  0
  4 76  1  0  0  0  0
  9 77  1  0  0  0  0
 18 78  1  0  0  0  0
 24 79  1  0  0  0  0
 24 80  1  0  0  0  0
 25 81  1  0  0  0  0
 25 82  1  0  0  0  0
 25 83  1  0  0  0  0
 30 84  1  0  0  0  0
 30 85  1  0  0  0  0
 41 86  1  0  0  0  0
 41 87  1  0  0  0  0
 42 88  1  0  0  0  0
 42 89  1  0  0  0  0
 42 90  1  0  0  0  0
 51 91  1  0  0  0  0
 51 92  1  0  0  0  0
 52 93  1  0  0  0  0
 52 94  1  0  0  0  0
 52 95  1  0  0  0  0
 53 96  1  0  0  0  0
 54 97  1  0  0  0  0
 54 98  1  0  0  0  0
 54 99  1  0  0  0  0
 55100  1  0  0  0  0
 64101  1  0  0  0  0
 69102  1  0  0  0  0
 73103  1  0  0  0  0
 74104  1  0  0  0  0
 74105  1  0  0  0  0
 75106  1  0  0  0  0
 75107  1  0  0  0  0
 75108  1  0  0  0  0
M  END
