m-4TBC-4F.sdf
  xtb     12172115433D
 energy: -219.984116157330 gnorm: 0.000467720475 xtb: 6.4.1 (unknown)
118127  0     0  0            999 V2000
   -2.4298   -0.3291   -0.8388 C   0  0  0  0  0  0  0  0  0  0  0  0
   -1.9286   -1.6058   -0.9627 C   0  0  0  0  0  0  0  0  0  0  0  0
   -0.6773   -1.7906   -0.3576 C   0  0  0  0  0  0  0  0  0  0  0  0
   -0.2226   -0.6400    0.2714 C   0  0  0  0  0  0  0  0  0  0  0  0
   -1.3401    0.6771    0.0715 S   0  0  0  0  0  0  0  0  0  0  0  0
    0.0810   -3.0392   -0.4523 C   0  0  0  0  0  0  0  0  0  0  0  0
    0.9849   -0.4138    1.0045 C   0  0  0  0  0  0  0  0  0  0  0  0
   -0.5482   -4.2447   -0.2071 C   0  0  0  0  0  0  0  0  0  0  0  0
    0.1773   -5.4373   -0.2434 C   0  0  0  0  0  0  0  0  0  0  0  0
    1.5241   -5.4029   -0.5669 C   0  0  0  0  0  0  0  0  0  0  0  0
    2.1520   -4.1854   -0.8353 C   0  0  0  0  0  0  0  0  0  0  0  0
    1.4335   -3.0031   -0.7884 C   0  0  0  0  0  0  0  0  0  0  0  0
    1.8010    1.1094    0.8081 S   0  0  0  0  0  0  0  0  0  0  0  0
    3.0887    0.6096    1.8645 C   0  0  0  0  0  0  0  0  0  0  0  0
    2.8617   -0.6656    2.3377 C   0  0  0  0  0  0  0  0  0  0  0  0
    1.6754   -1.2518    1.8706 C   0  0  0  0  0  0  0  0  0  0  0  0
    1.2274   -2.5840    2.2855 C   0  0  0  0  0  0  0  0  0  0  0  0
    2.1501   -3.6295    2.2875 C   0  0  0  0  0  0  0  0  0  0  0  0
    1.7363   -4.9082    2.6234 C   0  0  0  0  0  0  0  0  0  0  0  0
    0.4102   -5.1345    2.9969 C   0  0  0  0  0  0  0  0  0  0  0  0
   -0.5015   -4.0916    3.0146 C   0  0  0  0  0  0  0  0  0  0  0  0
   -0.0839   -2.8066    2.6621 C   0  0  0  0  0  0  0  0  0  0  0  0
    4.1827    1.4745    2.1247 C   0  0  0  0  0  0  0  0  0  0  0  0
    5.2605    1.2408    2.9754 C   0  0  0  0  0  0  0  0  0  0  0  0
    6.1565    2.2875    2.9893 C   0  0  0  0  0  0  0  0  0  0  0  0
    5.8059    3.3525    2.1508 C   0  0  0  0  0  0  0  0  0  0  0  0
    4.2996    3.0096    1.3369 S   0  0  0  0  0  0  0  0  0  0  0  0
    6.5996    4.4987    2.0250 C   0  0  0  0  0  0  0  0  0  0  0  0
    6.4244    5.6194    1.2487 C   0  0  0  0  0  0  0  0  0  0  0  0
    7.3189    6.7578    1.1823 C   0  0  0  0  0  0  0  0  0  0  0  0
    6.7497    7.7055    0.2214 C   0  0  0  0  0  0  0  0  0  0  0  0
    5.5523    7.1728   -0.2843 C   0  0  0  0  0  0  0  0  0  0  0  0
    5.3023    5.8558    0.3368 C   0  0  0  0  0  0  0  0  0  0  0  0
    4.3498    5.1305    0.1175 O   0  0  0  0  0  0  0  0  0  0  0  0
    8.4884    6.9459    1.8717 C   0  0  0  0  0  0  0  0  0  0  0  0
    9.0526    6.0481    2.8025 C   0  0  0  0  0  0  0  0  0  0  0  0
    9.3094    8.0867    1.7400 C   0  0  0  0  0  0  0  0  0  0  0  0
   10.0220    8.9843    1.6806 N   0  0  0  0  0  0  0  0  0  0  0  0
    9.5794    5.3766    3.5713 N   0  0  0  0  0  0  0  0  0  0  0  0
    7.1904    8.9440   -0.2182 C   0  0  0  0  0  0  0  0  0  0  0  0
    6.4190    9.6151   -1.1560 C   0  0  0  0  0  0  0  0  0  0  0  0
    5.2324    9.0754   -1.6530 C   0  0  0  0  0  0  0  0  0  0  0  0
    4.7835    7.8390   -1.2175 C   0  0  0  0  0  0  0  0  0  0  0  0
    4.5215    9.7579   -2.5583 F   0  0  0  0  0  0  0  0  0  0  0  0
    6.8284   10.8109   -1.5929 F   0  0  0  0  0  0  0  0  0  0  0  0
   -3.6354    0.1934   -1.3698 C   0  0  0  0  0  0  0  0  0  0  0  0
   -4.1075    1.4961   -1.2702 C   0  0  0  0  0  0  0  0  0  0  0  0
   -5.3104    1.7036   -1.9213 C   0  0  0  0  0  0  0  0  0  0  0  0
   -5.8066    0.5656   -2.5473 C   0  0  0  0  0  0  0  0  0  0  0  0
   -4.7196   -0.7911   -2.2849 S   0  0  0  0  0  0  0  0  0  0  0  0
   -6.9546    0.3013   -3.3113 C   0  0  0  0  0  0  0  0  0  0  0  0
   -7.9669    1.1134   -3.7590 C   0  0  0  0  0  0  0  0  0  0  0  0
   -9.0821    0.6316   -4.5578 C   0  0  0  0  0  0  0  0  0  0  0  0
   -9.8642    1.7944   -4.9781 C   0  0  0  0  0  0  0  0  0  0  0  0
   -9.2976    2.9450   -4.4095 C   0  0  0  0  0  0  0  0  0  0  0  0
   -8.1098    2.5759   -3.6071 C   0  0  0  0  0  0  0  0  0  0  0  0
   -7.4265    3.3545   -2.9762 O   0  0  0  0  0  0  0  0  0  0  0  0
   -9.4036   -0.6679   -4.8517 C   0  0  0  0  0  0  0  0  0  0  0  0
   -8.7192   -1.8245   -4.4189 C   0  0  0  0  0  0  0  0  0  0  0  0
  -10.5166   -1.0478   -5.6334 C   0  0  0  0  0  0  0  0  0  0  0  0
  -11.4001   -1.4271   -6.2600 N   0  0  0  0  0  0  0  0  0  0  0  0
   -8.2447   -2.8250   -4.1136 N   0  0  0  0  0  0  0  0  0  0  0  0
  -10.9852    1.9073   -5.7866 C   0  0  0  0  0  0  0  0  0  0  0  0
  -11.5094    3.1733   -6.0002 C   0  0  0  0  0  0  0  0  0  0  0  0
  -10.9414    4.3104   -5.4246 C   0  0  0  0  0  0  0  0  0  0  0  0
   -9.8208    4.2058   -4.6174 C   0  0  0  0  0  0  0  0  0  0  0  0
  -11.4833    5.5121   -5.6570 F   0  0  0  0  0  0  0  0  0  0  0  0
  -12.5879    3.3032   -6.7811 F   0  0  0  0  0  0  0  0  0  0  0  0
   -0.5245   -6.5483    0.0902 O   0  0  0  0  0  0  0  0  0  0  0  0
    3.4859   -4.2706   -1.0968 O   0  0  0  0  0  0  0  0  0  0  0  0
    0.1290   -7.8033    0.1423 C   0  0  0  0  0  0  0  0  0  0  0  0
    0.3087   -8.4314   -1.2362 C   0  0  0  0  0  0  0  0  0  0  0  0
    4.2106   -3.0798   -1.3368 C   0  0  0  0  0  0  0  0  0  0  0  0
    5.6677   -3.4592   -1.5486 C   0  0  0  0  0  0  0  0  0  0  0  0
   -1.8110   -4.2190    3.3330 O   0  0  0  0  0  0  0  0  0  0  0  0
    2.5141   -6.0236    2.5918 O   0  0  0  0  0  0  0  0  0  0  0  0
    3.8758   -5.9240    2.2180 C   0  0  0  0  0  0  0  0  0  0  0  0
    4.7605   -5.4044    3.3473 C   0  0  0  0  0  0  0  0  0  0  0  0
   -2.3355   -5.5180    3.5455 C   0  0  0  0  0  0  0  0  0  0  0  0
   -3.8342   -5.3828    3.7631 C   0  0  0  0  0  0  0  0  0  0  0  0
   -2.4395   -2.3787   -1.5090 H   0  0  0  0  0  0  0  0  0  0  0  0
   -1.5897   -4.2809    0.0668 H   0  0  0  0  0  0  0  0  0  0  0  0
    2.1361   -6.2885   -0.6006 H   0  0  0  0  0  0  0  0  0  0  0  0
    1.8953   -2.0533   -1.0016 H   0  0  0  0  0  0  0  0  0  0  0  0
    3.5214   -1.1591    3.0283 H   0  0  0  0  0  0  0  0  0  0  0  0
    3.1612   -3.4283    1.9743 H   0  0  0  0  0  0  0  0  0  0  0  0
    0.1328   -6.1453    3.2436 H   0  0  0  0  0  0  0  0  0  0  0  0
   -0.8033   -2.0045    2.6831 H   0  0  0  0  0  0  0  0  0  0  0  0
    5.3715    0.3452    3.5591 H   0  0  0  0  0  0  0  0  0  0  0  0
    7.0536    2.3064    3.5834 H   0  0  0  0  0  0  0  0  0  0  0  0
    7.4878    4.4683    2.6443 H   0  0  0  0  0  0  0  0  0  0  0  0
    8.0983    9.4066    0.1319 H   0  0  0  0  0  0  0  0  0  0  0  0
    3.8667    7.4168   -1.5968 H   0  0  0  0  0  0  0  0  0  0  0  0
   -3.5697    2.2586   -0.7346 H   0  0  0  0  0  0  0  0  0  0  0  0
   -5.8239    2.6465   -1.9560 H   0  0  0  0  0  0  0  0  0  0  0  0
   -7.0262   -0.7384   -3.6081 H   0  0  0  0  0  0  0  0  0  0  0  0
  -11.4627    1.0639   -6.2569 H   0  0  0  0  0  0  0  0  0  0  0  0
   -9.3751    5.0801   -4.1704 H   0  0  0  0  0  0  0  0  0  0  0  0
   -0.5348   -8.4290    0.7464 H   0  0  0  0  0  0  0  0  0  0  0  0
    1.0876   -7.7105    0.6659 H   0  0  0  0  0  0  0  0  0  0  0  0
   -0.6593   -8.5430   -1.7184 H   0  0  0  0  0  0  0  0  0  0  0  0
    0.9366   -7.8106   -1.8699 H   0  0  0  0  0  0  0  0  0  0  0  0
    0.7674   -9.4111   -1.1348 H   0  0  0  0  0  0  0  0  0  0  0  0
    4.1144   -2.3996   -0.4777 H   0  0  0  0  0  0  0  0  0  0  0  0
    3.8176   -2.5722   -2.2279 H   0  0  0  0  0  0  0  0  0  0  0  0
    5.7540   -4.1372   -2.3930 H   0  0  0  0  0  0  0  0  0  0  0  0
    6.0579   -3.9570   -0.6648 H   0  0  0  0  0  0  0  0  0  0  0  0
    6.2561   -2.5676   -1.7448 H   0  0  0  0  0  0  0  0  0  0  0  0
    3.9835   -5.3116    1.3154 H   0  0  0  0  0  0  0  0  0  0  0  0
    4.1634   -6.9506    1.9720 H   0  0  0  0  0  0  0  0  0  0  0  0
    4.4744   -4.3960    3.6350 H   0  0  0  0  0  0  0  0  0  0  0  0
    4.6616   -6.0478    4.2180 H   0  0  0  0  0  0  0  0  0  0  0  0
    5.7990   -5.4010    3.0274 H   0  0  0  0  0  0  0  0  0  0  0  0
   -1.8647   -5.9739    4.4273 H   0  0  0  0  0  0  0  0  0  0  0  0
   -2.1307   -6.1470    2.6688 H   0  0  0  0  0  0  0  0  0  0  0  0
   -4.2713   -6.3616    3.9378 H   0  0  0  0  0  0  0  0  0  0  0  0
   -4.0291   -4.7462    4.6217 H   0  0  0  0  0  0  0  0  0  0  0  0
   -4.2985   -4.9361    2.8884 H   0  0  0  0  0  0  0  0  0  0  0  0
  1  2  2  0  0  0  0
  2  3  1  0  0  0  0
  3  4  2  0  0  0  0
  4  5  1  0  0  0  0
  5  1  1  0  0  0  0
  3  6  1  0  0  0  0
  4  7  1  0  0  0  0
  6  8  2  0  0  0  0
  8  9  1  0  0  0  0
  9 10  2  0  0  0  0
 10 11  1  0  0  0  0
 11 12  2  0  0  0  0
 12  6  1  0  0  0  0
  7 13  1  0  0  0  0
 13 14  1  0  0  0  0
 14 15  2  0  0  0  0
 15 16  1  0  0  0  0
 16  7  2  0  0  0  0
 16 17  1  0  0  0  0
 17 18  2  0  0  0  0
 18 19  1  0  0  0  0
 19 20  2  0  0  0  0
 20 21  1  0  0  0  0
 21 22  2  0  0  0  0
 22 17  1  0  0  0  0
 14 23  1  0  0  0  0
 23 24  2  0  0  0  0
 24 25  1  0  0  0  0
 25 26  2  0  0  0  0
 26 27  1  0  0  0  0
 27 23  1  0  0  0  0
 26 28  1  0  0  0  0
 28 29  2  0  0  0  0
 29 30  1  0  0  0  0
 30 31  1  0  0  0  0
 31 32  2  0  0  0  0
 32 33  1  0  0  0  0
 33 29  1  0  0  0  0
 33 34  2  0  0  0  0
 30 35  2  0  0  0  0
 35 36  1  0  0  0  0
 35 37  1  0  0  0  0
 37 38  3  0  0  0  0
 36 39  3  0  0  0  0
 31 40  1  0  0  0  0
 40 41  2  0  0  0  0
 41 42  1  0  0  0  0
 42 43  2  0  0  0  0
 43 32  1  0  0  0  0
 42 44  1  0  0  0  0
 41 45  1  0  0  0  0
  1 46  1  0  0  0  0
 46 47  2  0  0  0  0
 47 48  1  0  0  0  0
 48 49  2  0  0  0  0
 49 50  1  0  0  0  0
 50 46  1  0  0  0  0
 51 52  2  0  0  0  0
 52 53  1  0  0  0  0
 53 54  1  0  0  0  0
 54 55  2  0  0  0  0
 55 56  1  0  0  0  0
 56 52  1  0  0  0  0
 56 57  2  0  0  0  0
 53 58  2  0  0  0  0
 58 59  1  0  0  0  0
 58 60  1  0  0  0  0
 60 61  3  0  0  0  0
 59 62  3  0  0  0  0
 54 63  1  0  0  0  0
 63 64  2  0  0  0  0
 64 65  1  0  0  0  0
 65 66  2  0  0  0  0
 66 55  1  0  0  0  0
 65 67  1  0  0  0  0
 64 68  1  0  0  0  0
 51 49  1  0  0  0  0
  9 69  1  0  0  0  0
 11 70  1  0  0  0  0
 69 71  1  0  0  0  0
 71 72  1  0  0  0  0
 70 73  1  0  0  0  0
 73 74  1  0  0  0  0
 21 75  1  0  0  0  0
 19 76  1  0  0  0  0
 76 77  1  0  0  0  0
 77 78  1  0  0  0  0
 75 79  1  0  0  0  0
 79 80  1  0  0  0  0
  2 81  1  0  0  0  0
  8 82  1  0  0  0  0
 10 83  1  0  0  0  0
 12 84  1  0  0  0  0
 15 85  1  0  0  0  0
 18 86  1  0  0  0  0
 20 87  1  0  0  0  0
 22 88  1  0  0  0  0
 24 89  1  0  0  0  0
 25 90  1  0  0  0  0
 28 91  1  0  0  0  0
 40 92  1  0  0  0  0
 43 93  1  0  0  0  0
 47 94  1  0  0  0  0
 48 95  1  0  0  0  0
 51 96  1  0  0  0  0
 63 97  1  0  0  0  0
 66 98  1  0  0  0  0
 71 99  1  0  0  0  0
 71100  1  0  0  0  0
 72101  1  0  0  0  0
 72102  1  0  0  0  0
 72103  1  0  0  0  0
 73104  1  0  0  0  0
 73105  1  0  0  0  0
 74106  1  0  0  0  0
 74107  1  0  0  0  0
 74108  1  0  0  0  0
 77109  1  0  0  0  0
 77110  1  0  0  0  0
 78111  1  0  0  0  0
 78112  1  0  0  0  0
 78113  1  0  0  0  0
 79114  1  0  0  0  0
 79115  1  0  0  0  0
 80116  1  0  0  0  0
 80117  1  0  0  0  0
 80118  1  0  0  0  0
M  END
