Y19.sdf
  xtb     12172115413D
 energy: -197.018937973617 gnorm: 0.000640952202 xtb: 6.4.1 (unknown)
104115  0     0  0            999 V2000
    6.9200   -2.2627   -5.8748 C   0  0  0  0  0  0  0  0  0  0  0  0
    6.9980   -1.8156   -4.7493 O   0  0  0  0  0  0  0  0  0  0  0  0
    8.0255   -2.3784   -6.8530 C   0  0  0  0  0  0  0  0  0  0  0  0
    9.3642   -2.1014   -6.6713 C   0  0  0  0  0  0  0  0  0  0  0  0
   10.2252   -2.2766   -7.7482 C   0  0  0  0  0  0  0  0  0  0  0  0
   11.9013   -1.9535   -7.5590 Cl  0  0  0  0  0  0  0  0  0  0  0  0
    9.7320   -2.7138   -8.9817 C   0  0  0  0  0  0  0  0  0  0  0  0
   10.8062   -2.9179  -10.3068 Cl  0  0  0  0  0  0  0  0  0  0  0  0
    8.3802   -2.9869   -9.1619 C   0  0  0  0  0  0  0  0  0  0  0  0
    7.5216   -2.8197   -8.0883 C   0  0  0  0  0  0  0  0  0  0  0  0
    6.0818   -3.0295   -7.9594 C   0  0  0  0  0  0  0  0  0  0  0  0
    5.2576   -3.5511   -8.9233 C   0  0  0  0  0  0  0  0  0  0  0  0
    5.6804   -3.8942  -10.2241 C   0  0  0  0  0  0  0  0  0  0  0  0
    5.9622   -4.1841  -11.2983 N   0  0  0  0  0  0  0  0  0  0  0  0
    3.8901   -3.8438   -8.7380 C   0  0  0  0  0  0  0  0  0  0  0  0
    2.7806   -4.1279   -8.6531 N   0  0  0  0  0  0  0  0  0  0  0  0
    5.7079   -2.6803   -6.6063 C   0  0  0  0  0  0  0  0  0  0  0  0
    4.4232   -2.5289   -6.1454 C   0  0  0  0  0  0  0  0  0  0  0  0
    4.0007   -2.3971   -4.8119 C   0  0  0  0  0  0  0  0  0  0  0  0
    2.5153   -1.4758   -4.5609 S   0  0  0  0  0  0  0  0  0  0  0  0
    2.6069   -1.7479   -2.8647 C   0  0  0  0  0  0  0  0  0  0  0  0
    3.7020   -2.5641   -2.5339 C   0  0  0  0  0  0  0  0  0  0  0  0
    4.4911   -2.9467   -3.6257 C   0  0  0  0  0  0  0  0  0  0  0  0
    5.6190   -3.9186   -3.5622 C   0  0  0  0  0  0  0  0  0  0  0  0
    5.3442   -5.1070   -2.6448 C   0  0  0  0  0  0  0  0  0  0  0  0
    3.8100   -2.8768   -0.8134 S   0  0  0  0  0  0  0  0  0  0  0  0
    2.3928   -1.9194   -0.5627 C   0  0  0  0  0  0  0  0  0  0  0  0
    1.8666   -1.3788   -1.7397 C   0  0  0  0  0  0  0  0  0  0  0  0
    0.7277   -0.6750   -1.4632 N   0  0  0  0  0  0  0  0  0  0  0  0
   -0.0108   -0.1094   -2.5670 C   0  0  0  0  0  0  0  0  0  0  0  0
    0.4991   -0.7380   -0.0971 C   0  0  0  0  0  0  0  0  0  0  0  0
    1.5375   -1.5389    0.4756 C   0  0  0  0  0  0  0  0  0  0  0  0
    1.5419   -1.8779    1.8427 C   0  0  0  0  0  0  0  0  0  0  0  0
    2.3683   -2.6092    2.5933 N   0  0  0  0  0  0  0  0  0  0  0  0
    1.8089   -2.6030    3.7776 N   0  0  0  0  0  0  0  0  0  0  0  0
    0.6872   -1.9368    3.8931 N   0  0  0  0  0  0  0  0  0  0  0  0
    0.4738   -1.4505    2.6688 C   0  0  0  0  0  0  0  0  0  0  0  0
   -0.5377   -0.6346    2.1261 C   0  0  0  0  0  0  0  0  0  0  0  0
   -0.5172   -0.2220    0.7568 C   0  0  0  0  0  0  0  0  0  0  0  0
   -1.5903    0.6358    0.5630 N   0  0  0  0  0  0  0  0  0  0  0  0
   -1.9791    1.4950   -0.5311 C   0  0  0  0  0  0  0  0  0  0  0  0
   -3.1745    0.9329   -1.3019 C   0  0  0  0  0  0  0  0  0  0  0  0
   -2.2811    0.7281    1.7399 C   0  0  0  0  0  0  0  0  0  0  0  0
   -1.6571   -0.0467    2.7224 C   0  0  0  0  0  0  0  0  0  0  0  0
   -2.4527    0.0033    4.2555 S   0  0  0  0  0  0  0  0  0  0  0  0
   -3.6470    1.0954    3.5852 C   0  0  0  0  0  0  0  0  0  0  0  0
   -3.4102    1.3872    2.2309 C   0  0  0  0  0  0  0  0  0  0  0  0
   -4.6034    2.4556    1.6021 S   0  0  0  0  0  0  0  0  0  0  0  0
   -5.3764    2.5629    3.1857 C   0  0  0  0  0  0  0  0  0  0  0  0
   -4.7617    1.7420    4.1331 C   0  0  0  0  0  0  0  0  0  0  0  0
   -5.3078    1.4907    5.4967 C   0  0  0  0  0  0  0  0  0  0  0  0
   -5.2826    0.0179    5.8967 C   0  0  0  0  0  0  0  0  0  0  0  0
   -6.5275    3.3656    3.2538 C   0  0  0  0  0  0  0  0  0  0  0  0
   -7.0005    4.0636    4.3375 C   0  0  0  0  0  0  0  0  0  0  0  0
   -8.2942    4.7050    4.4234 C   0  0  0  0  0  0  0  0  0  0  0  0
   -9.3719    4.4725    3.6082 C   0  0  0  0  0  0  0  0  0  0  0  0
  -10.6198    5.1145    3.7453 C   0  0  0  0  0  0  0  0  0  0  0  0
  -11.6543    5.6088    3.8021 N   0  0  0  0  0  0  0  0  0  0  0  0
   -9.3880    3.5416    2.5483 C   0  0  0  0  0  0  0  0  0  0  0  0
   -9.4809    2.7832    1.6910 N   0  0  0  0  0  0  0  0  0  0  0  0
   -8.2801    5.5735    5.5974 C   0  0  0  0  0  0  0  0  0  0  0  0
   -9.2408    6.4216    6.1218 C   0  0  0  0  0  0  0  0  0  0  0  0
   -8.9405    7.1327    7.2788 C   0  0  0  0  0  0  0  0  0  0  0  0
  -10.1240    8.1898    7.9369 Cl  0  0  0  0  0  0  0  0  0  0  0  0
   -7.6975    7.0035    7.9069 C   0  0  0  0  0  0  0  0  0  0  0  0
   -7.3609    7.8944    9.3361 Cl  0  0  0  0  0  0  0  0  0  0  0  0
   -6.7300    6.1566    7.3794 C   0  0  0  0  0  0  0  0  0  0  0  0
   -7.0335    5.4501    6.2345 C   0  0  0  0  0  0  0  0  0  0  0  0
   -6.1768    4.5073    5.4792 C   0  0  0  0  0  0  0  0  0  0  0  0
   -5.0129    4.2505    5.7072 O   0  0  0  0  0  0  0  0  0  0  0  0
    0.5925    1.2178   -3.0285 C   0  0  0  0  0  0  0  0  0  0  0  0
    2.4200   -3.2491    4.9027 C   0  0  0  0  0  0  0  0  0  0  0  0
    3.2981   -2.2671    5.6728 C   0  0  0  0  0  0  0  0  0  0  0  0
    9.7316   -1.7613   -5.7160 H   0  0  0  0  0  0  0  0  0  0  0  0
    8.0341   -3.3158  -10.1281 H   0  0  0  0  0  0  0  0  0  0  0  0
    3.6321   -2.4481   -6.8825 H   0  0  0  0  0  0  0  0  0  0  0  0
    5.8260   -4.2807   -4.5720 H   0  0  0  0  0  0  0  0  0  0  0  0
    6.5129   -3.3863   -3.2214 H   0  0  0  0  0  0  0  0  0  0  0  0
    4.4021   -5.5830   -2.9079 H   0  0  0  0  0  0  0  0  0  0  0  0
    5.3017   -4.8027   -1.6032 H   0  0  0  0  0  0  0  0  0  0  0  0
    6.1413   -5.8382   -2.7529 H   0  0  0  0  0  0  0  0  0  0  0  0
   -1.0573   -0.0089   -2.2986 H   0  0  0  0  0  0  0  0  0  0  0  0
    0.0491   -0.8244   -3.3947 H   0  0  0  0  0  0  0  0  0  0  0  0
   -1.1247    1.6738   -1.1772 H   0  0  0  0  0  0  0  0  0  0  0  0
   -2.2690    2.4585   -0.0978 H   0  0  0  0  0  0  0  0  0  0  0  0
   -4.0633    0.9491   -0.6769 H   0  0  0  0  0  0  0  0  0  0  0  0
   -3.3645    1.5406   -2.1822 H   0  0  0  0  0  0  0  0  0  0  0  0
   -3.0039   -0.0963   -1.6114 H   0  0  0  0  0  0  0  0  0  0  0  0
   -6.3355    1.8593    5.5351 H   0  0  0  0  0  0  0  0  0  0  0  0
   -4.7273    2.0793    6.2141 H   0  0  0  0  0  0  0  0  0  0  0  0
   -5.7691   -0.5924    5.1390 H   0  0  0  0  0  0  0  0  0  0  0  0
   -4.2659   -0.3392    6.0316 H   0  0  0  0  0  0  0  0  0  0  0  0
   -5.8149   -0.1101    6.8358 H   0  0  0  0  0  0  0  0  0  0  0  0
   -7.0599    3.4765    2.3157 H   0  0  0  0  0  0  0  0  0  0  0  0
  -10.2061    6.5505    5.6601 H   0  0  0  0  0  0  0  0  0  0  0  0
   -5.7667    6.0512    7.8528 H   0  0  0  0  0  0  0  0  0  0  0  0
    1.5834    1.0522   -3.4430 H   0  0  0  0  0  0  0  0  0  0  0  0
   -0.0325    1.6601   -3.7991 H   0  0  0  0  0  0  0  0  0  0  0  0
    0.6887    1.9209   -2.2033 H   0  0  0  0  0  0  0  0  0  0  0  0
    3.0172   -4.0773    4.5170 H   0  0  0  0  0  0  0  0  0  0  0  0
    1.6194   -3.6259    5.5424 H   0  0  0  0  0  0  0  0  0  0  0  0
    2.6989   -1.4349    6.0341 H   0  0  0  0  0  0  0  0  0  0  0  0
    3.7540   -2.7670    6.5224 H   0  0  0  0  0  0  0  0  0  0  0  0
    4.0846   -1.8822    5.0282 H   0  0  0  0  0  0  0  0  0  0  0  0
  1  2  2  0  0  0  0
  1  3  1  0  0  0  0
  3  4  2  0  0  0  0
  4  5  1  0  0  0  0
  5  6  1  0  0  0  0
  5  7  2  0  0  0  0
  7  8  1  0  0  0  0
  7  9  1  0  0  0  0
  9 10  2  0  0  0  0
  3 10  1  0  0  0  0
 10 11  1  0  0  0  0
 11 12  2  0  0  0  0
 12 13  1  0  0  0  0
 13 14  3  0  0  0  0
 12 15  1  0  0  0  0
 15 16  3  0  0  0  0
 11 17  1  0  0  0  0
  1 17  1  0  0  0  0
 17 18  2  0  0  0  0
 18 19  1  0  0  0  0
 19 20  1  0  0  0  0
 20 21  1  0  0  0  0
 21 22  2  0  0  0  0
 22 23  1  0  0  0  0
 23 24  1  0  0  0  0
 24 25  1  0  0  0  0
 19 23  2  0  0  0  0
 22 26  1  0  0  0  0
 26 27  1  0  0  0  0
 27 28  2  0  0  0  0
 21 28  1  0  0  0  0
 28 29  1  0  0  0  0
 29 30  1  0  0  0  0
 29 31  1  0  0  0  0
 31 32  2  0  0  0  0
 27 32  1  0  0  0  0
 32 33  1  0  0  0  0
 33 34  2  0  0  0  0
 34 35  1  0  0  0  0
 35 36  1  0  0  0  0
 36 37  2  0  0  0  0
 33 37  1  0  0  0  0
 37 38  1  0  0  0  0
 38 39  2  0  0  0  0
 31 39  1  0  0  0  0
 39 40  1  0  0  0  0
 40 41  1  0  0  0  0
 41 42  1  0  0  0  0
 40 43  1  0  0  0  0
 43 44  2  0  0  0  0
 38 44  1  0  0  0  0
 44 45  1  0  0  0  0
 45 46  1  0  0  0  0
 46 47  2  0  0  0  0
 43 47  1  0  0  0  0
 47 48  1  0  0  0  0
 48 49  1  0  0  0  0
 49 50  2  0  0  0  0
 46 50  1  0  0  0  0
 50 51  1  0  0  0  0
 51 52  1  0  0  0  0
 49 53  1  0  0  0  0
 53 54  2  0  0  0  0
 54 55  1  0  0  0  0
 55 56  2  0  0  0  0
 56 57  1  0  0  0  0
 57 58  3  0  0  0  0
 56 59  1  0  0  0  0
 59 60  3  0  0  0  0
 55 61  1  0  0  0  0
 61 62  2  0  0  0  0
 62 63  1  0  0  0  0
 63 64  1  0  0  0  0
 63 65  2  0  0  0  0
 65 66  1  0  0  0  0
 65 67  1  0  0  0  0
 67 68  2  0  0  0  0
 61 68  1  0  0  0  0
 68 69  1  0  0  0  0
 69 70  2  0  0  0  0
 54 69  1  0  0  0  0
 30 71  1  0  0  0  0
 35 72  1  0  0  0  0
 72 73  1  0  0  0  0
  4 74  1  0  0  0  0
  9 75  1  0  0  0  0
 18 76  1  0  0  0  0
 24 77  1  0  0  0  0
 24 78  1  0  0  0  0
 25 79  1  0  0  0  0
 25 80  1  0  0  0  0
 25 81  1  0  0  0  0
 30 82  1  0  0  0  0
 30 83  1  0  0  0  0
 41 84  1  0  0  0  0
 41 85  1  0  0  0  0
 42 86  1  0  0  0  0
 42 87  1  0  0  0  0
 42 88  1  0  0  0  0
 51 89  1  0  0  0  0
 51 90  1  0  0  0  0
 52 91  1  0  0  0  0
 52 92  1  0  0  0  0
 52 93  1  0  0  0  0
 53 94  1  0  0  0  0
 62 95  1  0  0  0  0
 67 96  1  0  0  0  0
 71 97  1  0  0  0  0
 71 98  1  0  0  0  0
 71 99  1  0  0  0  0
 72100  1  0  0  0  0
 72101  1  0  0  0  0
 73102  1  0  0  0  0
 73103  1  0  0  0  0
 73104  1  0  0  0  0
M  END
