Y5.sdf
  xtb     12172115413D
 energy: -174.334412643245 gnorm: 0.000439582784 xtb: 6.4.1 (unknown)
 97108  0     0  0            999 V2000
    6.5394    2.6799    1.6908 C   0  0  0  0  0  0  0  0  0  0  0  0
    5.3443    2.6097    1.4559 O   0  0  0  0  0  0  0  0  0  0  0  0
    7.2942    3.9066    2.0040 C   0  0  0  0  0  0  0  0  0  0  0  0
    6.8391    5.2078    2.0810 C   0  0  0  0  0  0  0  0  0  0  0  0
    7.7555    6.2049    2.3855 C   0  0  0  0  0  0  0  0  0  0  0  0
    9.0885    5.8906    2.6045 C   0  0  0  0  0  0  0  0  0  0  0  0
    9.5489    4.5818    2.5292 C   0  0  0  0  0  0  0  0  0  0  0  0
    8.6431    3.5782    2.2257 C   0  0  0  0  0  0  0  0  0  0  0  0
    8.8072    2.1320    2.0699 C   0  0  0  0  0  0  0  0  0  0  0  0
    9.9827    1.4483    2.2504 C   0  0  0  0  0  0  0  0  0  0  0  0
   10.1564    0.0543    2.1266 C   0  0  0  0  0  0  0  0  0  0  0  0
   10.3841   -1.0698    2.0509 N   0  0  0  0  0  0  0  0  0  0  0  0
   11.2066    2.0545    2.6040 C   0  0  0  0  0  0  0  0  0  0  0  0
   12.2351    2.4764    2.8910 N   0  0  0  0  0  0  0  0  0  0  0  0
    7.5129    1.5853    1.7158 C   0  0  0  0  0  0  0  0  0  0  0  0
    7.2613    0.2660    1.4249 C   0  0  0  0  0  0  0  0  0  0  0  0
    6.0775   -0.3860    1.0689 C   0  0  0  0  0  0  0  0  0  0  0  0
    4.5019    0.3941    0.9081 S   0  0  0  0  0  0  0  0  0  0  0  0
    3.7853   -1.1153    0.4878 C   0  0  0  0  0  0  0  0  0  0  0  0
    4.7259   -2.1601    0.4755 C   0  0  0  0  0  0  0  0  0  0  0  0
    6.0168   -1.7647    0.7963 C   0  0  0  0  0  0  0  0  0  0  0  0
    7.1552   -2.7268    0.8916 C   0  0  0  0  0  0  0  0  0  0  0  0
    7.3479   -3.1979    2.3358 C   0  0  0  0  0  0  0  0  0  0  0  0
    4.0389   -3.7195    0.0569 S   0  0  0  0  0  0  0  0  0  0  0  0
    2.4939   -2.9593   -0.0999 C   0  0  0  0  0  0  0  0  0  0  0  0
    2.5126   -1.5820    0.1494 C   0  0  0  0  0  0  0  0  0  0  0  0
    1.2535   -1.0577    0.0049 N   0  0  0  0  0  0  0  0  0  0  0  0
    0.9595    0.1905    0.6778 C   0  0  0  0  0  0  0  0  0  0  0  0
    0.4887   -0.0630    2.1083 C   0  0  0  0  0  0  0  0  0  0  0  0
    0.4044   -2.1005   -0.3284 C   0  0  0  0  0  0  0  0  0  0  0  0
    1.1646   -3.3063   -0.3749 C   0  0  0  0  0  0  0  0  0  0  0  0
    0.5568   -4.5671   -0.5679 C   0  0  0  0  0  0  0  0  0  0  0  0
    1.1263   -5.7614   -0.5980 N   0  0  0  0  0  0  0  0  0  0  0  0
   -0.0334   -6.8788   -0.7621 S   0  0  0  0  0  0  0  0  0  0  0  0
   -1.3075   -5.8810   -0.8034 N   0  0  0  0  0  0  0  0  0  0  0  0
   -0.8698   -4.6370   -0.6920 C   0  0  0  0  0  0  0  0  0  0  0  0
   -1.6089   -3.4340   -0.7438 C   0  0  0  0  0  0  0  0  0  0  0  0
   -0.9784   -2.1575   -0.6425 C   0  0  0  0  0  0  0  0  0  0  0  0
   -1.9264   -1.1850   -0.8875 N   0  0  0  0  0  0  0  0  0  0  0  0
   -1.7722    0.2053   -1.2533 C   0  0  0  0  0  0  0  0  0  0  0  0
   -2.3005    1.1511   -0.1760 C   0  0  0  0  0  0  0  0  0  0  0  0
   -3.1276   -1.8087   -1.0948 C   0  0  0  0  0  0  0  0  0  0  0  0
   -2.9647   -3.1971   -1.0012 C   0  0  0  0  0  0  0  0  0  0  0  0
   -4.4171   -4.0921   -1.2824 S   0  0  0  0  0  0  0  0  0  0  0  0
   -5.2600   -2.5764   -1.5464 C   0  0  0  0  0  0  0  0  0  0  0  0
   -4.4375   -1.4432   -1.4153 C   0  0  0  0  0  0  0  0  0  0  0  0
   -5.3113    0.0195   -1.6720 S   0  0  0  0  0  0  0  0  0  0  0  0
   -6.7894   -0.8993   -1.9624 C   0  0  0  0  0  0  0  0  0  0  0  0
   -6.5798   -2.2867   -1.8615 C   0  0  0  0  0  0  0  0  0  0  0  0
   -7.6278   -3.3417   -2.0013 C   0  0  0  0  0  0  0  0  0  0  0  0
   -8.3804   -3.5354   -0.6819 C   0  0  0  0  0  0  0  0  0  0  0  0
   -8.0360   -0.3397   -2.2557 C   0  0  0  0  0  0  0  0  0  0  0  0
   -8.4374    0.9711   -2.3507 C   0  0  0  0  0  0  0  0  0  0  0  0
   -9.7837    1.4140   -2.6520 C   0  0  0  0  0  0  0  0  0  0  0  0
  -10.8705    0.6361   -2.9609 C   0  0  0  0  0  0  0  0  0  0  0  0
  -10.8821   -0.7715   -3.0453 C   0  0  0  0  0  0  0  0  0  0  0  0
  -10.9758   -1.9135   -3.1358 N   0  0  0  0  0  0  0  0  0  0  0  0
  -12.1533    1.1457   -3.2525 C   0  0  0  0  0  0  0  0  0  0  0  0
  -13.2218    1.4860   -3.4992 N   0  0  0  0  0  0  0  0  0  0  0  0
   -9.7872    2.8764   -2.5873 C   0  0  0  0  0  0  0  0  0  0  0  0
  -10.8010    3.8047   -2.7614 C   0  0  0  0  0  0  0  0  0  0  0  0
  -10.4944    5.1539   -2.6343 C   0  0  0  0  0  0  0  0  0  0  0  0
   -9.2078    5.5813   -2.3420 C   0  0  0  0  0  0  0  0  0  0  0  0
   -8.1846    4.6603   -2.1639 C   0  0  0  0  0  0  0  0  0  0  0  0
   -8.4870    3.3189   -2.2867 C   0  0  0  0  0  0  0  0  0  0  0  0
   -7.5979    2.1527   -2.1381 C   0  0  0  0  0  0  0  0  0  0  0  0
   -6.4043    2.1836   -1.8872 O   0  0  0  0  0  0  0  0  0  0  0  0
    5.7974    5.4285    1.9055 H   0  0  0  0  0  0  0  0  0  0  0  0
    7.4304    7.2323    2.4513 H   0  0  0  0  0  0  0  0  0  0  0  0
    9.7888    6.6784    2.8386 H   0  0  0  0  0  0  0  0  0  0  0  0
   10.5910    4.3699    2.7029 H   0  0  0  0  0  0  0  0  0  0  0  0
    8.1151   -0.3962    1.4682 H   0  0  0  0  0  0  0  0  0  0  0  0
    6.9252   -3.5896    0.2632 H   0  0  0  0  0  0  0  0  0  0  0  0
    8.0819   -2.2785    0.5309 H   0  0  0  0  0  0  0  0  0  0  0  0
    6.4422   -3.6763    2.7014 H   0  0  0  0  0  0  0  0  0  0  0  0
    8.1649   -3.9118    2.3835 H   0  0  0  0  0  0  0  0  0  0  0  0
    7.5866   -2.3594    2.9857 H   0  0  0  0  0  0  0  0  0  0  0  0
    0.2183    0.7679    0.1352 H   0  0  0  0  0  0  0  0  0  0  0  0
    1.8889    0.7651    0.6929 H   0  0  0  0  0  0  0  0  0  0  0  0
    1.2543   -0.5952    2.6681 H   0  0  0  0  0  0  0  0  0  0  0  0
   -0.4198   -0.6626    2.1133 H   0  0  0  0  0  0  0  0  0  0  0  0
    0.2919    0.8826    2.6057 H   0  0  0  0  0  0  0  0  0  0  0  0
   -2.3518    0.3690   -2.1685 H   0  0  0  0  0  0  0  0  0  0  0  0
   -0.7242    0.3901   -1.4933 H   0  0  0  0  0  0  0  0  0  0  0  0
   -3.3813    1.0656   -0.1062 H   0  0  0  0  0  0  0  0  0  0  0  0
   -2.0597    2.1771   -0.4394 H   0  0  0  0  0  0  0  0  0  0  0  0
   -1.8762    0.9254    0.7985 H   0  0  0  0  0  0  0  0  0  0  0  0
   -7.1347   -4.2780   -2.2702 H   0  0  0  0  0  0  0  0  0  0  0  0
   -8.3379   -3.0904   -2.7904 H   0  0  0  0  0  0  0  0  0  0  0  0
   -9.1293   -4.3137   -0.7962 H   0  0  0  0  0  0  0  0  0  0  0  0
   -8.8807   -2.6164   -0.3852 H   0  0  0  0  0  0  0  0  0  0  0  0
   -7.6908   -3.8260    0.1073 H   0  0  0  0  0  0  0  0  0  0  0  0
   -8.8063   -1.0807   -2.4192 H   0  0  0  0  0  0  0  0  0  0  0  0
  -11.8105    3.5041   -2.9883 H   0  0  0  0  0  0  0  0  0  0  0  0
  -11.2795    5.8831   -2.7670 H   0  0  0  0  0  0  0  0  0  0  0  0
   -9.0025    6.6373   -2.2514 H   0  0  0  0  0  0  0  0  0  0  0  0
   -7.1765    4.9697   -1.9344 H   0  0  0  0  0  0  0  0  0  0  0  0
  1  2  2  0  0  0  0
  1  3  1  0  0  0  0
  3  4  2  0  0  0  0
  4  5  1  0  0  0  0
  5  6  2  0  0  0  0
  6  7  1  0  0  0  0
  7  8  2  0  0  0  0
  3  8  1  0  0  0  0
  8  9  1  0  0  0  0
  9 10  2  0  0  0  0
 10 11  1  0  0  0  0
 11 12  3  0  0  0  0
 10 13  1  0  0  0  0
 13 14  3  0  0  0  0
  9 15  1  0  0  0  0
  1 15  1  0  0  0  0
 15 16  2  0  0  0  0
 16 17  1  0  0  0  0
 17 18  1  0  0  0  0
 18 19  1  0  0  0  0
 19 20  2  0  0  0  0
 20 21  1  0  0  0  0
 21 22  1  0  0  0  0
 22 23  1  0  0  0  0
 17 21  2  0  0  0  0
 20 24  1  0  0  0  0
 24 25  1  0  0  0  0
 25 26  2  0  0  0  0
 19 26  1  0  0  0  0
 26 27  1  0  0  0  0
 27 28  1  0  0  0  0
 28 29  1  0  0  0  0
 27 30  1  0  0  0  0
 30 31  2  0  0  0  0
 25 31  1  0  0  0  0
 31 32  1  0  0  0  0
 32 33  2  0  0  0  0
 33 34  1  0  0  0  0
 34 35  1  0  0  0  0
 35 36  2  0  0  0  0
 32 36  1  0  0  0  0
 36 37  1  0  0  0  0
 37 38  2  0  0  0  0
 30 38  1  0  0  0  0
 38 39  1  0  0  0  0
 39 40  1  0  0  0  0
 40 41  1  0  0  0  0
 39 42  1  0  0  0  0
 42 43  2  0  0  0  0
 37 43  1  0  0  0  0
 43 44  1  0  0  0  0
 44 45  1  0  0  0  0
 45 46  2  0  0  0  0
 42 46  1  0  0  0  0
 46 47  1  0  0  0  0
 47 48  1  0  0  0  0
 48 49  2  0  0  0  0
 45 49  1  0  0  0  0
 49 50  1  0  0  0  0
 50 51  1  0  0  0  0
 48 52  1  0  0  0  0
 52 53  2  0  0  0  0
 53 54  1  0  0  0  0
 54 55  2  0  0  0  0
 55 56  1  0  0  0  0
 56 57  3  0  0  0  0
 55 58  1  0  0  0  0
 58 59  3  0  0  0  0
 54 60  1  0  0  0  0
 60 61  2  0  0  0  0
 61 62  1  0  0  0  0
 62 63  2  0  0  0  0
 63 64  1  0  0  0  0
 64 65  2  0  0  0  0
 60 65  1  0  0  0  0
 65 66  1  0  0  0  0
 66 67  2  0  0  0  0
 53 66  1  0  0  0  0
  4 68  1  0  0  0  0
  5 69  1  0  0  0  0
  6 70  1  0  0  0  0
  7 71  1  0  0  0  0
 16 72  1  0  0  0  0
 22 73  1  0  0  0  0
 22 74  1  0  0  0  0
 23 75  1  0  0  0  0
 23 76  1  0  0  0  0
 23 77  1  0  0  0  0
 28 78  1  0  0  0  0
 28 79  1  0  0  0  0
 29 80  1  0  0  0  0
 29 81  1  0  0  0  0
 29 82  1  0  0  0  0
 40 83  1  0  0  0  0
 40 84  1  0  0  0  0
 41 85  1  0  0  0  0
 41 86  1  0  0  0  0
 41 87  1  0  0  0  0
 50 88  1  0  0  0  0
 50 89  1  0  0  0  0
 51 90  1  0  0  0  0
 51 91  1  0  0  0  0
 51 92  1  0  0  0  0
 52 93  1  0  0  0  0
 61 94  1  0  0  0  0
 62 95  1  0  0  0  0
 63 96  1  0  0  0  0
 64 97  1  0  0  0  0
M  END
