Y6.sdf
  xtb     12172115423D
 energy: -191.217499508440 gnorm: 0.000967473680 xtb: 6.4.1 (unknown)
 97108  0     0  0            999 V2000
    1.6053    7.8832   -4.6128 C   0  0  0  0  0  0  0  0  0  0  0  0
    2.2767    7.5473   -3.6600 O   0  0  0  0  0  0  0  0  0  0  0  0
    1.4482    9.2614   -5.1337 C   0  0  0  0  0  0  0  0  0  0  0  0
    2.0847   10.4113   -4.7117 C   0  0  0  0  0  0  0  0  0  0  0  0
    1.7600   11.5975   -5.3505 C   0  0  0  0  0  0  0  0  0  0  0  0
    2.3580   12.7355   -4.9779 F   0  0  0  0  0  0  0  0  0  0  0  0
    0.8157   11.6178   -6.3771 C   0  0  0  0  0  0  0  0  0  0  0  0
    0.5176   12.7786   -6.9713 F   0  0  0  0  0  0  0  0  0  0  0  0
    0.1725   10.4632   -6.7980 C   0  0  0  0  0  0  0  0  0  0  0  0
    0.4965    9.2726   -6.1670 C   0  0  0  0  0  0  0  0  0  0  0  0
    0.0171    7.9078   -6.3767 C   0  0  0  0  0  0  0  0  0  0  0  0
   -0.8358    7.4997   -7.3688 C   0  0  0  0  0  0  0  0  0  0  0  0
   -1.4499    8.3716   -8.2920 C   0  0  0  0  0  0  0  0  0  0  0  0
   -1.9784    9.0332   -9.0667 N   0  0  0  0  0  0  0  0  0  0  0  0
   -1.1879    6.1556   -7.6164 C   0  0  0  0  0  0  0  0  0  0  0  0
   -1.4927    5.0832   -7.8907 N   0  0  0  0  0  0  0  0  0  0  0  0
    0.6821    7.0567   -5.4142 C   0  0  0  0  0  0  0  0  0  0  0  0
    0.3369    5.7614   -5.1190 C   0  0  0  0  0  0  0  0  0  0  0  0
    1.0614    4.8393   -4.3439 C   0  0  0  0  0  0  0  0  0  0  0  0
    0.1033    3.6356   -3.4782 S   0  0  0  0  0  0  0  0  0  0  0  0
    1.5330    2.9285   -2.8343 C   0  0  0  0  0  0  0  0  0  0  0  0
    2.6861    3.5629   -3.3268 C   0  0  0  0  0  0  0  0  0  0  0  0
    2.4340    4.6376   -4.1891 C   0  0  0  0  0  0  0  0  0  0  0  0
    3.4777    5.3890   -4.9413 C   0  0  0  0  0  0  0  0  0  0  0  0
    4.5844    4.4976   -5.4979 C   0  0  0  0  0  0  0  0  0  0  0  0
    4.1619    2.8668   -2.6891 S   0  0  0  0  0  0  0  0  0  0  0  0
    3.2216    1.7532   -1.7647 C   0  0  0  0  0  0  0  0  0  0  0  0
    1.8407    1.8913   -1.9511 C   0  0  0  0  0  0  0  0  0  0  0  0
    1.1720    0.9909   -1.1658 N   0  0  0  0  0  0  0  0  0  0  0  0
   -0.2477    1.1494   -0.9444 C   0  0  0  0  0  0  0  0  0  0  0  0
    2.1112    0.2535   -0.4707 C   0  0  0  0  0  0  0  0  0  0  0  0
    3.4067    0.7429   -0.8118 C   0  0  0  0  0  0  0  0  0  0  0  0
    4.5724    0.2944   -0.1519 C   0  0  0  0  0  0  0  0  0  0  0  0
    5.8262    0.6766   -0.3370 N   0  0  0  0  0  0  0  0  0  0  0  0
    6.7591   -0.0833    0.7450 S   0  0  0  0  0  0  0  0  0  0  0  0
    5.6000   -0.9310    1.4903 N   0  0  0  0  0  0  0  0  0  0  0  0
    4.4402   -0.6510    0.9170 C   0  0  0  0  0  0  0  0  0  0  0  0
    3.1667   -1.1985    1.1906 C   0  0  0  0  0  0  0  0  0  0  0  0
    2.0063   -0.8199    0.4517 C   0  0  0  0  0  0  0  0  0  0  0  0
    0.9476   -1.6163    0.8569 N   0  0  0  0  0  0  0  0  0  0  0  0
   -0.2336   -2.0231    0.1236 C   0  0  0  0  0  0  0  0  0  0  0  0
    0.1445   -2.8923   -1.0738 C   0  0  0  0  0  0  0  0  0  0  0  0
    1.4157   -2.4578    1.8337 C   0  0  0  0  0  0  0  0  0  0  0  0
    2.7730   -2.2105    2.0755 C   0  0  0  0  0  0  0  0  0  0  0  0
    3.4612   -3.2185    3.2994 S   0  0  0  0  0  0  0  0  0  0  0  0
    1.9009   -3.9988    3.4868 C   0  0  0  0  0  0  0  0  0  0  0  0
    0.9080   -3.4852    2.6314 C   0  0  0  0  0  0  0  0  0  0  0  0
   -0.6062   -4.2748    2.8507 S   0  0  0  0  0  0  0  0  0  0  0  0
    0.0996   -5.3071    4.0980 C   0  0  0  0  0  0  0  0  0  0  0  0
    1.4636   -5.0253    4.3101 C   0  0  0  0  0  0  0  0  0  0  0  0
    2.3421   -5.6794    5.3250 C   0  0  0  0  0  0  0  0  0  0  0  0
    2.1666   -5.0236    6.6978 C   0  0  0  0  0  0  0  0  0  0  0  0
   -0.5894   -6.2921    4.8058 C   0  0  0  0  0  0  0  0  0  0  0  0
   -1.9085   -6.6850    4.7598 C   0  0  0  0  0  0  0  0  0  0  0  0
   -2.4956   -7.7321    5.5698 C   0  0  0  0  0  0  0  0  0  0  0  0
   -1.8646   -8.5470    6.4749 C   0  0  0  0  0  0  0  0  0  0  0  0
   -0.4914   -8.5173    6.7962 C   0  0  0  0  0  0  0  0  0  0  0  0
    0.6137   -8.5629    7.1079 N   0  0  0  0  0  0  0  0  0  0  0  0
   -2.5152   -9.5532    7.2206 C   0  0  0  0  0  0  0  0  0  0  0  0
   -2.9820  -10.3847    7.8592 N   0  0  0  0  0  0  0  0  0  0  0  0
   -3.9220   -7.7901    5.2419 C   0  0  0  0  0  0  0  0  0  0  0  0
   -4.9447   -8.5887    5.7284 C   0  0  0  0  0  0  0  0  0  0  0  0
   -6.2189   -8.4029    5.2115 C   0  0  0  0  0  0  0  0  0  0  0  0
   -7.2196   -9.1630    5.6697 F   0  0  0  0  0  0  0  0  0  0  0  0
   -6.4807   -7.4465    4.2306 C   0  0  0  0  0  0  0  0  0  0  0  0
   -7.7257   -7.3012    3.7605 F   0  0  0  0  0  0  0  0  0  0  0  0
   -5.4637   -6.6444    3.7383 C   0  0  0  0  0  0  0  0  0  0  0  0
   -4.1971   -6.8293    4.2546 C   0  0  0  0  0  0  0  0  0  0  0  0
   -2.9515   -6.1121    3.9107 C   0  0  0  0  0  0  0  0  0  0  0  0
   -2.8428   -5.2281    3.0788 O   0  0  0  0  0  0  0  0  0  0  0  0
   -1.0776    0.5664   -2.0872 C   0  0  0  0  0  0  0  0  0  0  0  0
    2.8114   10.3935   -3.9152 H   0  0  0  0  0  0  0  0  0  0  0  0
   -0.5541   10.5305   -7.5911 H   0  0  0  0  0  0  0  0  0  0  0  0
   -0.6273    5.4067   -5.4659 H   0  0  0  0  0  0  0  0  0  0  0  0
    2.9983    5.9285   -5.7615 H   0  0  0  0  0  0  0  0  0  0  0  0
    3.9098    6.1390   -4.2709 H   0  0  0  0  0  0  0  0  0  0  0  0
    4.1623    3.6857   -6.0861 H   0  0  0  0  0  0  0  0  0  0  0  0
    5.2330    5.0871   -6.1408 H   0  0  0  0  0  0  0  0  0  0  0  0
    5.1902    4.0738   -4.7025 H   0  0  0  0  0  0  0  0  0  0  0  0
   -0.4515    2.2241   -0.8796 H   0  0  0  0  0  0  0  0  0  0  0  0
   -0.5040    0.7121    0.0212 H   0  0  0  0  0  0  0  0  0  0  0  0
   -0.8497   -2.6003    0.8173 H   0  0  0  0  0  0  0  0  0  0  0  0
   -0.8129   -1.1655   -0.2020 H   0  0  0  0  0  0  0  0  0  0  0  0
   -0.7524   -3.2063   -1.6003 H   0  0  0  0  0  0  0  0  0  0  0  0
    0.7854   -2.3430   -1.7610 H   0  0  0  0  0  0  0  0  0  0  0  0
    0.6786   -3.7795   -0.7420 H   0  0  0  0  0  0  0  0  0  0  0  0
    2.1278   -6.7462    5.4030 H   0  0  0  0  0  0  0  0  0  0  0  0
    3.3792   -5.5612    5.0050 H   0  0  0  0  0  0  0  0  0  0  0  0
    2.8214   -5.5028    7.4197 H   0  0  0  0  0  0  0  0  0  0  0  0
    2.4160   -3.9664    6.6467 H   0  0  0  0  0  0  0  0  0  0  0  0
    1.1405   -5.1224    7.0444 H   0  0  0  0  0  0  0  0  0  0  0  0
    0.0322   -6.8210    5.5149 H   0  0  0  0  0  0  0  0  0  0  0  0
   -4.7975   -9.3414    6.4852 H   0  0  0  0  0  0  0  0  0  0  0  0
   -5.6611   -5.9033    2.9803 H   0  0  0  0  0  0  0  0  0  0  0  0
   -2.1340    0.6217   -1.8399 H   0  0  0  0  0  0  0  0  0  0  0  0
   -0.8139   -0.4686   -2.2854 H   0  0  0  0  0  0  0  0  0  0  0  0
   -0.9103    1.1380   -2.9962 H   0  0  0  0  0  0  0  0  0  0  0  0
  1  2  2  0  0  0  0
  1  3  1  0  0  0  0
  3  4  2  0  0  0  0
  4  5  1  0  0  0  0
  5  6  1  0  0  0  0
  5  7  2  0  0  0  0
  7  8  1  0  0  0  0
  7  9  1  0  0  0  0
  9 10  2  0  0  0  0
  3 10  1  0  0  0  0
 10 11  1  0  0  0  0
 11 12  2  0  0  0  0
 12 13  1  0  0  0  0
 13 14  3  0  0  0  0
 12 15  1  0  0  0  0
 15 16  3  0  0  0  0
 11 17  1  0  0  0  0
  1 17  1  0  0  0  0
 17 18  2  0  0  0  0
 18 19  1  0  0  0  0
 19 20  1  0  0  0  0
 20 21  1  0  0  0  0
 21 22  2  0  0  0  0
 22 23  1  0  0  0  0
 23 24  1  0  0  0  0
 24 25  1  0  0  0  0
 19 23  2  0  0  0  0
 22 26  1  0  0  0  0
 26 27  1  0  0  0  0
 27 28  2  0  0  0  0
 21 28  1  0  0  0  0
 28 29  1  0  0  0  0
 29 30  1  0  0  0  0
 29 31  1  0  0  0  0
 31 32  2  0  0  0  0
 27 32  1  0  0  0  0
 32 33  1  0  0  0  0
 33 34  2  0  0  0  0
 34 35  1  0  0  0  0
 35 36  1  0  0  0  0
 36 37  2  0  0  0  0
 33 37  1  0  0  0  0
 37 38  1  0  0  0  0
 38 39  2  0  0  0  0
 31 39  1  0  0  0  0
 39 40  1  0  0  0  0
 40 41  1  0  0  0  0
 41 42  1  0  0  0  0
 40 43  1  0  0  0  0
 43 44  2  0  0  0  0
 38 44  1  0  0  0  0
 44 45  1  0  0  0  0
 45 46  1  0  0  0  0
 46 47  2  0  0  0  0
 43 47  1  0  0  0  0
 47 48  1  0  0  0  0
 48 49  1  0  0  0  0
 49 50  2  0  0  0  0
 46 50  1  0  0  0  0
 50 51  1  0  0  0  0
 51 52  1  0  0  0  0
 49 53  1  0  0  0  0
 53 54  2  0  0  0  0
 54 55  1  0  0  0  0
 55 56  2  0  0  0  0
 56 57  1  0  0  0  0
 57 58  3  0  0  0  0
 56 59  1  0  0  0  0
 59 60  3  0  0  0  0
 55 61  1  0  0  0  0
 61 62  2  0  0  0  0
 62 63  1  0  0  0  0
 63 64  1  0  0  0  0
 63 65  2  0  0  0  0
 65 66  1  0  0  0  0
 65 67  1  0  0  0  0
 67 68  2  0  0  0  0
 61 68  1  0  0  0  0
 68 69  1  0  0  0  0
 69 70  2  0  0  0  0
 54 69  1  0  0  0  0
 30 71  1  0  0  0  0
  4 72  1  0  0  0  0
  9 73  1  0  0  0  0
 18 74  1  0  0  0  0
 24 75  1  0  0  0  0
 24 76  1  0  0  0  0
 25 77  1  0  0  0  0
 25 78  1  0  0  0  0
 25 79  1  0  0  0  0
 30 80  1  0  0  0  0
 30 81  1  0  0  0  0
 41 82  1  0  0  0  0
 41 83  1  0  0  0  0
 42 84  1  0  0  0  0
 42 85  1  0  0  0  0
 42 86  1  0  0  0  0
 51 87  1  0  0  0  0
 51 88  1  0  0  0  0
 52 89  1  0  0  0  0
 52 90  1  0  0  0  0
 52 91  1  0  0  0  0
 53 92  1  0  0  0  0
 62 93  1  0  0  0  0
 67 94  1  0  0  0  0
 71 95  1  0  0  0  0
 71 96  1  0  0  0  0
 71 97  1  0  0  0  0
M  END
