111
2FIFIC.sdf
C          3.09355       -0.02159        0.13005
C          3.04589       -1.42079        0.13239
C          1.69628       -1.91126        0.24715
C          0.62947       -0.95147        0.29548
C          0.78585        0.43527        0.33065
C          2.05478        0.90411        0.29284
C         -0.75728       -1.13999        0.21778
C         -1.43289        0.04234        0.24651
C         -0.54154        1.25453        0.31312
C          4.35483        0.38229       -0.11726
C          5.22347       -0.59853       -0.26967
C          4.51016       -2.04219       -0.30570
S         -1.71442       -2.46578        0.00482
C         -3.08400       -1.48291        0.01124
C         -2.78390       -0.12865        0.15692
S          4.96078        1.91930       -0.10565
C          6.55310        1.48552       -0.15592
C          6.50457        0.04842       -0.15244
C         -0.75116        2.15888        1.59509
C         -0.71949        2.11034       -1.00796
C          0.11682        3.39160       -1.12687
C         -2.14657        2.78963        1.82456
C          3.95445       -2.78513       -1.63370
C          5.77132       -3.00625        0.00094
C          4.96525       -3.12844       -2.80610
C          5.60305       -4.51086        0.06590
C          7.68173        2.57539       -0.15589
C         -4.39925       -2.02224       -0.12255
C          8.35863        3.16709        0.93761
C          7.92710        2.48303        2.14630
C          6.73512        3.20742        2.57113
C          6.72252        4.43885        1.98785
C          7.98174        4.58023        1.34917
C          5.66168        2.76198        3.24174
C          4.51031        3.50094        2.95548
C          4.45778        4.70435        2.31215
C          5.63846        5.30288        2.04024
O          8.23946        1.34094        2.43615
C          8.77456        5.62933        1.70087
C         10.16539        5.73481        1.37595
C          8.27767        6.64166        2.63219
N         11.28983        5.91285        1.17420
N          7.81968        7.40956        3.37049
F          3.27363        5.27892        1.94874
F          3.37639        3.08758        3.23372
C         -8.38901       -2.49000        0.14395
C         -9.23892       -1.63277        0.81925
C         -8.93935       -0.39160        1.61853
C        -10.12431        0.21533        2.06134
C        -11.20943       -0.52814        1.69622
C        -10.75684       -1.74029        0.90591
C        -10.17642        1.40576        2.78675
C        -11.41191        1.87625        3.18136
C        -12.55678        1.14589        2.84293
C        -12.46550       -0.05040        2.10180
O         -7.88378        0.10423        1.94897
C        -11.59261       -2.70582        0.40253
C        -11.18152       -3.88537       -0.31952
C        -13.00776       -2.66555        0.62831
N        -14.14299       -2.58924        0.83636
N        -10.81645       -4.82105       -0.89591
S         -5.79560       -1.31479        0.57269
C         -6.89589       -2.42598       -0.01531
C         -6.12518       -3.30024       -0.77137
C         -4.76101       -3.15901       -0.84366
S         -6.58079       -4.55673       -1.68990
C         -5.10093       -5.06655       -2.18269
C         -4.13115       -4.18703       -1.65346
F         -2.81625       -4.34420       -1.95381
C         -5.06094       -6.27787       -3.02094
O         -6.00747       -6.55755       -3.75888
O         -3.94147       -7.03834       -2.98533
C         -3.44361       -7.77701       -4.04110
C         -4.18388       -9.09765       -4.21762
H          1.39793       -2.93826        0.16796
H          2.22782        1.96211        0.30329
H         -3.47412        0.68924        0.15604
H          7.33187       -0.49749       -0.02510
H         -0.54464        1.57155        2.51003
H         -0.03125        3.00777        1.57868
H         -0.46661        1.47064       -1.88126
H         -1.75941        2.47160       -1.13270
H          1.11290        3.19900       -0.81728
H          0.17419        3.76331       -2.17405
H         -0.18635        4.21252       -0.45652
H         -2.94894        2.02610        1.90153
H         -2.16013        3.36636        2.76947
H         -2.40420        3.57074        1.09518
H          3.48367       -3.77512       -1.37019
H          3.11350       -2.23561       -2.09890
H          6.54787       -2.91746       -0.79512
H          6.29054       -2.75323        0.95290
H          5.84604       -3.74420       -2.57974
H          4.43263       -3.63317       -3.63196
H          5.48827       -2.32451       -3.33045
H          4.78509       -4.85881        0.74055
H          5.45072       -4.97545       -0.79745
H          6.63595       -4.92707        0.16518
H          8.29299        2.51138       -1.05860
H          5.75146        1.80964        3.68870
H          5.79607        5.91695        2.92730
H         -8.80642       -3.34153       -0.38270
H         -9.27186        1.95276        3.04155
H        -11.46927        2.79541        3.74811
H        -13.51684        1.50900        3.15719
H        -13.37318       -0.55158        1.87822
H         -3.52654       -7.17283       -4.97032
H         -2.36439       -7.99099       -3.87363
H         -5.25926       -8.93137       -4.43708
H         -3.74058       -9.65705       -5.07022
H         -4.09120       -9.71564       -3.30040
