82
2T2Se-F.sdf
C          1.02615       -1.04327       -0.13460
C          0.44659       -1.16150        1.08751
C         -0.74278       -0.34949        1.47928
C         -0.18246        0.77242        2.23864
C          1.10350        0.43434        2.55439
C          1.35342       -0.96336        2.21917
C         -0.65127        2.08795        2.39532
C          0.27785        3.06258        2.81049
C          1.61701        2.70697        3.08836
C          2.03007        1.37259        2.98500
O         -1.84982       -0.38849        0.96231
C          1.37768       -1.91434        3.17481
C          1.73008       -3.27626        2.86919
C          0.96150       -1.57047        4.52381
F          2.52444        3.66042        3.41175
F         -0.09945        4.36007        2.87702
N          0.62295       -1.23684        5.58108
N          2.00515       -4.38109        2.66723
C          0.69006        0.12083       -1.04787
C         -0.32805        0.14891       -1.99411
C         -0.54332        1.35577       -2.59115
C          0.31455        2.32016       -2.19457
Se         1.52697        1.72924       -1.03199
C          0.23140        3.70949       -2.58839
S         -0.33675        4.36334       -3.93647
C         -0.18345        6.00639       -3.69544
C          0.36413        6.05983       -2.38604
C          0.58713        4.75716       -1.84198
C          0.74890        7.25066       -1.50158
C          2.19355        7.26980       -1.12191
C         -0.57959        7.06905       -4.73856
S         -0.41697        8.75874       -4.47863
C         -1.00736        9.27174       -5.96789
C         -1.32728        8.18468       -6.66501
C         -1.12889        6.95790       -6.06674
C         -1.47578        5.76983       -6.94552
C         -0.33443        5.23782       -7.79800
C         -1.19955       10.59473       -6.55726
C         -2.18347       10.88078       -7.47396
C         -2.07975       12.15202       -7.96139
C         -1.01816       12.88826       -7.45485
Se        -0.13719       11.99970       -6.15925
C         -0.70846       14.28540       -7.89634
C         -0.12533       15.14348       -7.01870
C         -0.95755       15.32434       -5.80411
C         -0.19455       14.87998       -4.64643
C          1.10679       14.62911       -5.02166
C          1.24846       14.94904       -6.45223
C         -0.65751       14.60011       -3.36383
C          0.23147       14.01342       -2.45057
C          1.55624       13.72240       -2.83446
C          2.00807       14.04074       -4.12524
O         -2.16852       15.49533       -5.80499
C          2.39131       15.17312       -7.14283
C          2.38757       15.48490       -8.55355
C          3.69351       15.21756       -6.50278
F          2.39300       13.10244       -1.96658
F         -0.20080       13.68686       -1.20857
N          4.75295       15.26296       -6.03415
N          2.49980       15.74648       -9.67650
H          2.01941       -1.47517       -0.26694
H         -1.64443        2.36696        2.07184
H          3.06190        1.08673        3.14878
H         -0.99818       -0.60415       -2.23575
H         -1.36951        1.52816       -3.25961
H          0.98641        4.52518       -0.88879
H          0.65913        8.20346       -2.01133
H          0.23592        7.16329       -0.50254
H          2.77227        7.20616       -2.04546
H          2.61011        7.96451       -0.37055
H          2.29695        6.44758       -0.46900
H         -1.70014        8.32381       -7.64841
H         -1.96763        4.99805       -6.32121
H         -2.22795        6.03336       -7.69170
H          0.57563        5.09966       -7.23726
H         -0.55737        4.32945       -8.32317
H         -0.17983        5.84087       -8.65360
H         -2.91691       10.17463       -7.82351
H         -2.76206       12.51166       -8.70821
H         -1.63351       14.61124       -8.34958
H         -1.68964       14.78600       -3.09560
H          3.00931       13.76814       -4.42247
