3TT-OCIC.sdf
     RDKit          3D

150165  0  0  0  0  0  0  0  0999 V2000
    2.7903   -1.6109   -1.2646 C   0  0  0  0  0  0  0  0  0  0  0  0
    3.5158   -0.5788   -0.7213 C   0  0  0  0  0  0  0  0  0  0  0  0
    2.6937   -2.8146   -0.3340 C   0  0  0  0  0  0  0  0  0  0  0  0
    3.6040   -2.2967    0.7723 C   0  0  0  0  0  0  0  0  0  0  0  0
    4.0823   -1.0359    0.5161 C   0  0  0  0  0  0  0  0  0  0  0  0
    1.2903   -2.9964    0.2559 C   0  0  0  0  0  0  0  0  0  0  0  0
    3.2355   -4.0329   -1.0879 C   0  0  0  0  0  0  0  0  0  0  0  0
    3.8057   -2.6304    2.1061 C   0  0  0  0  0  0  0  0  0  0  0  0
    4.4755   -1.6771    2.8257 C   0  0  0  0  0  0  0  0  0  0  0  0
    4.7695   -0.3033    1.8762 S   0  0  0  0  0  0  0  0  0  0  0  0
    4.6068   -4.3758   -1.0634 C   0  0  0  0  0  0  0  0  0  0  0  0
    5.0900   -5.4299   -1.8497 C   0  0  0  0  0  0  0  0  0  0  0  0
    4.2301   -6.1476   -2.6868 C   0  0  0  0  0  0  0  0  0  0  0  0
    2.8668   -5.8148   -2.7151 C   0  0  0  0  0  0  0  0  0  0  0  0
    2.3857   -4.7564   -1.9452 C   0  0  0  0  0  0  0  0  0  0  0  0
    0.8717   -4.2536    0.7447 C   0  0  0  0  0  0  0  0  0  0  0  0
   -0.3820   -4.4103    1.3411 C   0  0  0  0  0  0  0  0  0  0  0  0
   -1.2352   -3.3097    1.4899 C   0  0  0  0  0  0  0  0  0  0  0  0
   -0.8037   -2.0430    1.0798 C   0  0  0  0  0  0  0  0  0  0  0  0
    0.4442   -1.8870    0.4750 C   0  0  0  0  0  0  0  0  0  0  0  0
    3.7463   -3.6817    5.8850 C   0  0  0  0  0  0  0  0  0  0  0  0
    3.3238   -2.9537    6.9356 C   0  0  0  0  0  0  0  0  0  0  0  0
    3.5863   -3.2611    8.3641 C   0  0  0  0  0  0  0  0  0  0  0  0
    3.6977   -1.9397    9.0320 C   0  0  0  0  0  0  0  0  0  0  0  0
    3.2656   -0.9449    8.1732 C   0  0  0  0  0  0  0  0  0  0  0  0
    2.9265   -1.5430    6.8954 C   0  0  0  0  0  0  0  0  0  0  0  0
    2.4479   -0.9323    5.8986 O   0  0  0  0  0  0  0  0  0  0  0  0
    3.5011   -4.4685    8.9702 C   0  0  0  0  0  0  0  0  0  0  0  0
    3.1406   -5.6538    8.2404 C   0  0  0  0  0  0  0  0  0  0  0  0
    2.8151   -6.6082    7.6588 N   0  0  0  0  0  0  0  0  0  0  0  0
    3.5371   -4.6024   10.4094 C   0  0  0  0  0  0  0  0  0  0  0  0
    3.5267   -4.7117   11.5624 N   0  0  0  0  0  0  0  0  0  0  0  0
    4.4301   -1.5909   10.1805 C   0  0  0  0  0  0  0  0  0  0  0  0
    4.6668   -0.2255   10.4702 C   0  0  0  0  0  0  0  0  0  0  0  0
    4.1630    0.7788    9.6158 C   0  0  0  0  0  0  0  0  0  0  0  0
    3.4794    0.4129    8.4414 C   0  0  0  0  0  0  0  0  0  0  0  0
    5.7306    0.1640   11.7983 Cl  0  0  0  0  0  0  0  0  0  0  0  0
    4.5381    2.4762    9.8776 Cl  0  0  0  0  0  0  0  0  0  0  0  0
    3.2376   -3.8358    3.1263 S   0  0  0  0  0  0  0  0  0  0  0  0
    3.8941   -3.1165    4.5275 C   0  0  0  0  0  0  0  0  0  0  0  0
    4.5907   -1.9354    4.1932 C   0  0  0  0  0  0  0  0  0  0  0  0
    3.0000    0.9416   -1.2874 S   0  0  0  0  0  0  0  0  0  0  0  0
    1.9770    0.2023   -2.4208 C   0  0  0  0  0  0  0  0  0  0  0  0
    1.9821   -1.1677   -2.2994 C   0  0  0  0  0  0  0  0  0  0  0  0
   -5.8239    3.2981   -4.5903 C   0  0  0  0  0  0  0  0  0  0  0  0
   -6.7428    2.9306   -3.6749 C   0  0  0  0  0  0  0  0  0  0  0  0
   -8.0719    3.5618   -3.4181 C   0  0  0  0  0  0  0  0  0  0  0  0
   -8.4942    3.0553   -2.0785 C   0  0  0  0  0  0  0  0  0  0  0  0
   -7.5973    2.1028   -1.6327 C   0  0  0  0  0  0  0  0  0  0  0  0
   -6.5105    1.9817   -2.5781 C   0  0  0  0  0  0  0  0  0  0  0  0
   -9.5704    3.4310   -1.2567 C   0  0  0  0  0  0  0  0  0  0  0  0
   -9.7509    2.7867   -0.0198 C   0  0  0  0  0  0  0  0  0  0  0  0
   -8.8369    1.7994    0.4029 C   0  0  0  0  0  0  0  0  0  0  0  0
   -7.7463    1.4570   -0.4066 C   0  0  0  0  0  0  0  0  0  0  0  0
   -5.5038    1.2447   -2.4155 O   0  0  0  0  0  0  0  0  0  0  0  0
   -8.8292    4.2599   -4.3024 C   0  0  0  0  0  0  0  0  0  0  0  0
  -10.1544    4.7420   -3.9921 C   0  0  0  0  0  0  0  0  0  0  0  0
   -8.4007    4.5303   -5.6520 C   0  0  0  0  0  0  0  0  0  0  0  0
   -8.0759    4.7646   -6.7369 N   0  0  0  0  0  0  0  0  0  0  0  0
  -11.2131    5.1415   -3.7650 N   0  0  0  0  0  0  0  0  0  0  0  0
   -9.0269    0.9924    1.9521 Cl  0  0  0  0  0  0  0  0  0  0  0  0
  -11.1242    3.2446    0.9824 Cl  0  0  0  0  0  0  0  0  0  0  0  0
    1.0111    0.6673   -3.3038 C   0  0  0  0  0  0  0  0  0  0  0  0
    0.3996   -0.3815   -3.9529 C   0  0  0  0  0  0  0  0  0  0  0  0
    0.8109   -1.8916   -3.2902 S   0  0  0  0  0  0  0  0  0  0  0  0
    0.1624    1.9312   -3.3339 C   0  0  0  0  0  0  0  0  0  0  0  0
   -0.8871    1.4611   -4.3367 C   0  0  0  0  0  0  0  0  0  0  0  0
   -0.7574    0.1212   -4.6378 C   0  0  0  0  0  0  0  0  0  0  0  0
    0.9032    3.1623   -3.8659 C   0  0  0  0  0  0  0  0  0  0  0  0
   -0.4522    2.1155   -1.9306 C   0  0  0  0  0  0  0  0  0  0  0  0
    0.2671    4.4204   -3.8234 C   0  0  0  0  0  0  0  0  0  0  0  0
    0.9422    5.5799   -4.2023 C   0  0  0  0  0  0  0  0  0  0  0  0
    2.2581    5.5107   -4.6779 C   0  0  0  0  0  0  0  0  0  0  0  0
    2.8881    4.2613   -4.7669 C   0  0  0  0  0  0  0  0  0  0  0  0
    2.2080    3.0965   -4.3892 C   0  0  0  0  0  0  0  0  0  0  0  0
    0.0720    3.0497   -1.0165 C   0  0  0  0  0  0  0  0  0  0  0  0
   -0.5159    3.2304    0.2419 C   0  0  0  0  0  0  0  0  0  0  0  0
   -1.6046    2.4432    0.6329 C   0  0  0  0  0  0  0  0  0  0  0  0
   -2.0839    1.4541   -0.2319 C   0  0  0  0  0  0  0  0  0  0  0  0
   -1.5044    1.2810   -1.4883 C   0  0  0  0  0  0  0  0  0  0  0  0
    3.0211    6.7678   -4.9843 C   0  0  0  0  0  0  0  0  0  0  0  0
    3.7271    7.2766   -3.7292 C   0  0  0  0  0  0  0  0  0  0  0  0
   -2.2950    2.6878    1.9564 C   0  0  0  0  0  0  0  0  0  0  0  0
   -3.4184    3.7089    1.7856 C   0  0  0  0  0  0  0  0  0  0  0  0
   -2.1764    1.8964   -4.6236 C   0  0  0  0  0  0  0  0  0  0  0  0
   -3.0065    0.9204   -5.1026 C   0  0  0  0  0  0  0  0  0  0  0  0
   -2.2156   -0.5785   -5.1550 S   0  0  0  0  0  0  0  0  0  0  0  0
   -3.0628    3.2639   -4.2424 S   0  0  0  0  0  0  0  0  0  0  0  0
   -4.5418    2.6013   -4.7400 C   0  0  0  0  0  0  0  0  0  0  0  0
   -4.3530    1.2773   -5.1724 C   0  0  0  0  0  0  0  0  0  0  0  0
   -2.5833   -3.4824    2.1390 C   0  0  0  0  0  0  0  0  0  0  0  0
   -2.4722   -3.3106    3.6525 C   0  0  0  0  0  0  0  0  0  0  0  0
    4.7470   -7.2780   -3.5332 C   0  0  0  0  0  0  0  0  0  0  0  0
    4.6143   -8.6153   -2.8100 C   0  0  0  0  0  0  0  0  0  0  0  0
    5.6566   -1.3012    5.0780 C   0  0  0  0  0  0  0  0  0  0  0  0
    5.6543    0.2290    5.0250 C   0  0  0  0  0  0  0  0  0  0  0  0
   -5.4447    0.3618   -5.6602 C   0  0  0  0  0  0  0  0  0  0  0  0
   -5.6698    0.5412   -7.1594 C   0  0  0  0  0  0  0  0  0  0  0  0
    5.3109   -3.8279   -0.4520 H   0  0  0  0  0  0  0  0  0  0  0  0
    6.1480   -5.6738   -1.8170 H   0  0  0  0  0  0  0  0  0  0  0  0
    2.1848   -6.3589   -3.3596 H   0  0  0  0  0  0  0  0  0  0  0  0
    1.3380   -4.4969   -2.0228 H   0  0  0  0  0  0  0  0  0  0  0  0
    1.5193   -5.1182    0.6770 H   0  0  0  0  0  0  0  0  0  0  0  0
   -0.6761   -5.3909    1.6910 H   0  0  0  0  0  0  0  0  0  0  0  0
   -1.4253   -1.1728    1.2314 H   0  0  0  0  0  0  0  0  0  0  0  0
    0.7441   -0.8888    0.1960 H   0  0  0  0  0  0  0  0  0  0  0  0
    4.0766   -4.6971    6.0243 H   0  0  0  0  0  0  0  0  0  0  0  0
    4.8671   -2.3489   10.8173 H   0  0  0  0  0  0  0  0  0  0  0  0
    3.1956    1.1670    7.7123 H   0  0  0  0  0  0  0  0  0  0  0  0
   -5.9576    4.1928   -5.1705 H   0  0  0  0  0  0  0  0  0  0  0  0
  -10.2508    4.2125   -1.5330 H   0  0  0  0  0  0  0  0  0  0  0  0
   -7.0228    0.7192   -0.0839 H   0  0  0  0  0  0  0  0  0  0  0  0
   -0.7277    4.5150   -3.4243 H   0  0  0  0  0  0  0  0  0  0  0  0
    0.4420    6.5372   -4.1126 H   0  0  0  0  0  0  0  0  0  0  0  0
    3.9112    4.1924   -5.1211 H   0  0  0  0  0  0  0  0  0  0  0  0
    2.7352    2.1545   -4.4733 H   0  0  0  0  0  0  0  0  0  0  0  0
    0.9226    3.6653   -1.2696 H   0  0  0  0  0  0  0  0  0  0  0  0
   -0.1349    3.9962    0.9020 H   0  0  0  0  0  0  0  0  0  0  0  0
   -2.9166    0.8268    0.0550 H   0  0  0  0  0  0  0  0  0  0  0  0
   -1.8937    0.4910   -2.1204 H   0  0  0  0  0  0  0  0  0  0  0  0
    2.3261    7.5562   -5.3549 H   0  0  0  0  0  0  0  0  0  0  0  0
    3.7706    6.5799   -5.7857 H   0  0  0  0  0  0  0  0  0  0  0  0
    2.9782    7.5408   -2.9505 H   0  0  0  0  0  0  0  0  0  0  0  0
    4.4102    6.4928   -3.3285 H   0  0  0  0  0  0  0  0  0  0  0  0
    4.3243    8.1787   -3.9751 H   0  0  0  0  0  0  0  0  0  0  0  0
   -1.5683    3.0624    2.7081 H   0  0  0  0  0  0  0  0  0  0  0  0
   -2.7283    1.7402    2.3510 H   0  0  0  0  0  0  0  0  0  0  0  0
   -4.1797    3.3418    1.0595 H   0  0  0  0  0  0  0  0  0  0  0  0
   -3.9194    3.8736    2.7641 H   0  0  0  0  0  0  0  0  0  0  0  0
   -3.0209    4.6834    1.4235 H   0  0  0  0  0  0  0  0  0  0  0  0
   -2.9935   -4.4941    1.9135 H   0  0  0  0  0  0  0  0  0  0  0  0
   -3.2982   -2.7396    1.7312 H   0  0  0  0  0  0  0  0  0  0  0  0
   -1.8062   -4.0934    4.0706 H   0  0  0  0  0  0  0  0  0  0  0  0
   -3.4784   -3.4164    4.1126 H   0  0  0  0  0  0  0  0  0  0  0  0
   -2.0602   -2.3082    3.8989 H   0  0  0  0  0  0  0  0  0  0  0  0
    4.1743   -7.3318   -4.4829 H   0  0  0  0  0  0  0  0  0  0  0  0
    5.8115   -7.1118   -3.7986 H   0  0  0  0  0  0  0  0  0  0  0  0
    4.9560   -9.4345   -3.4832 H   0  0  0  0  0  0  0  0  0  0  0  0
    5.2480   -8.6184   -1.8956 H   0  0  0  0  0  0  0  0  0  0  0  0
    3.5570   -8.8028   -2.5286 H   0  0  0  0  0  0  0  0  0  0  0  0
    5.5112   -1.6071    6.1369 H   0  0  0  0  0  0  0  0  0  0  0  0
    6.6471   -1.7011    4.7615 H   0  0  0  0  0  0  0  0  0  0  0  0
    6.0813    0.6397    5.9626 H   0  0  0  0  0  0  0  0  0  0  0  0
    4.6257    0.6422    4.9269 H   0  0  0  0  0  0  0  0  0  0  0  0
    6.2944    0.5886    4.1941 H   0  0  0  0  0  0  0  0  0  0  0  0
   -5.1775   -0.6930   -5.4510 H   0  0  0  0  0  0  0  0  0  0  0  0
   -6.3924    0.5770   -5.1234 H   0  0  0  0  0  0  0  0  0  0  0  0
   -6.4768   -0.1485   -7.4957 H   0  0  0  0  0  0  0  0  0  0  0  0
   -4.7404    0.3012   -7.7236 H   0  0  0  0  0  0  0  0  0  0  0  0
   -5.9764    1.5863   -7.3810 H   0  0  0  0  0  0  0  0  0  0  0  0
  1  3  1  0
  3  4  1  0
  4  5  2  0
  5  2  1  0
  3  6  1  0
  3  7  1  0
  4  8  1  0
  8  9  2  0
  9 10  1  0
 10  5  1  0
  7 11  2  0
 11 12  1  0
 12 13  2  0
 13 14  1  0
 14 15  2  0
 15  7  1  0
  6 16  2  0
 16 17  1  0
 17 18  2  0
 18 19  1  0
 19 20  2  0
 20  6  1  0
 21 22  2  0
 22 23  1  0
 23 24  1  0
 24 25  2  0
 25 26  1  0
 26 22  1  0
 26 27  2  0
 23 28  2  0
 28 29  1  0
 29 30  3  0
 28 31  1  0
 31 32  3  0
 24 33  1  0
 33 34  2  0
 34 35  1  0
 35 36  2  0
 36 25  1  0
 34 37  1  0
 35 38  1  0
  8 39  1  0
 39 40  1  0
 40 41  2  0
 41  9  1  0
 21 40  1  0
  1  2  2  0
  2 42  1  0
 42 43  1  0
 43 44  2  0
 44  1  1  0
 45 46  2  0
 46 47  1  0
 47 48  1  0
 48 49  2  0
 49 50  1  0
 50 46  1  0
 48 51  1  0
 51 52  2  0
 52 53  1  0
 53 54  2  0
 54 49  1  0
 50 55  2  0
 47 56  2  0
 56 57  1  0
 56 58  1  0
 58 59  3  0
 57 60  3  0
 53 61  1  0
 52 62  1  0
 43 63  1  0
 63 64  2  0
 64 65  1  0
 65 44  1  0
 63 66  1  0
 66 67  1  0
 67 68  2  0
 68 64  1  0
 66 69  1  0
 66 70  1  0
 69 71  2  0
 71 72  1  0
 72 73  2  0
 73 74  1  0
 74 75  2  0
 75 69  1  0
 70 76  2  0
 76 77  1  0
 77 78  2  0
 78 79  1  0
 79 80  2  0
 80 70  1  0
 73 81  1  0
 81 82  1  0
 78 83  1  0
 83 84  1  0
 67 85  1  0
 85 86  2  0
 86 87  1  0
 87 68  1  0
 85 88  1  0
 88 89  1  0
 89 90  2  0
 90 86  1  0
 89 45  1  0
 18 91  1  0
 91 92  1  0
 13 93  1  0
 93 94  1  0
 41 95  1  0
 95 96  1  0
 90 97  1  0
 97 98  1  0
 11 99  1  0
 12100  1  0
 14101  1  0
 15102  1  0
 16103  1  0
 17104  1  0
 19105  1  0
 20106  1  0
 21107  1  0
 33108  1  0
 36109  1  0
 45110  1  0
 51111  1  0
 54112  1  0
 71113  1  0
 72114  1  0
 74115  1  0
 75116  1  0
 76117  1  0
 77118  1  0
 79119  1  0
 80120  1  0
 81121  1  0
 81122  1  0
 82123  1  0
 82124  1  0
 82125  1  0
 83126  1  0
 83127  1  0
 84128  1  0
 84129  1  0
 84130  1  0
 91131  1  0
 91132  1  0
 92133  1  0
 92134  1  0
 92135  1  0
 93136  1  0
 93137  1  0
 94138  1  0
 94139  1  0
 94140  1  0
 95141  1  0
 95142  1  0
 96143  1  0
 96144  1  0
 96145  1  0
 97146  1  0
 97147  1  0
 98148  1  0
 98149  1  0
 98150  1  0
M  END

