150
3TT-OCIC.sdf
C         -1.77296       -0.16413       -0.21248
C         -1.91123       -0.28783        1.06261
C         -3.35337       -0.77538       -0.66717
C         -4.09838        0.34603        0.11587
C         -3.28741        0.43428        1.25944
C         -3.84689       -0.98235       -2.17467
C         -3.86160       -2.15818        0.22937
C         -5.28202        1.30149        0.14060
C         -5.29541        2.13822        1.25178
S         -3.90110        1.74650        2.19929
C         -4.61963       -2.03602        1.47590
C         -4.94984       -3.10369        2.32215
C         -4.69154       -4.40889        1.95490
C         -4.07465       -4.63215        0.74498
C         -3.62354       -3.56424       -0.06513
C         -3.61880       -2.21928       -2.77959
C         -4.08349       -2.66814       -3.98038
C         -4.84321       -1.84684       -4.76375
C         -5.09604       -0.54153       -4.27906
C         -4.62990       -0.11195       -2.98548
C         -8.71641        3.99316        0.17997
C         -9.39528        4.40987       -0.97191
C        -10.70908        5.12920       -1.38741
C        -11.05782        4.49922       -2.70258
C         -9.89459        3.96253       -3.17983
C         -8.82426        4.15810       -2.24609
O         -7.69188        4.48700       -2.55250
C        -11.36807        6.24014       -0.94607
C        -12.35401        6.88107       -1.80324
N        -13.12964        7.34849       -2.53074
C        -11.08201        6.99471        0.25514
N        -10.91609        7.65749        1.19055
C        -12.25228        4.38081       -3.47097
C        -12.19697        3.66486       -4.69203
C        -10.96719        3.12521       -5.13567
C         -9.81054        3.30366       -4.37907
Cl       -13.65750        3.42497       -5.64876
Cl       -10.82923        2.18616       -6.61096
S         -6.71442        1.83010       -0.73975
C         -7.35992        3.10376        0.30519
C         -6.38143        3.12396        1.38074
S         -1.09026       -1.92697        1.20860
C          0.00375       -1.61968       -0.23966
C         -0.23076       -0.37174       -0.32205
C          7.77452       -6.93847        0.40670
C          8.97472       -6.96030       -0.35530
C         10.27800       -7.82592       -0.54314
C         11.35347       -6.78779       -0.72288
C         10.72954       -5.64462       -1.14972
C          9.29154       -5.84692       -1.18750
C         12.76894       -6.80604       -0.58120
C         13.49868       -5.63604       -0.86748
C         12.82290       -4.47689       -1.30550
C         11.43061       -4.49151       -1.45977
O          8.58797       -5.54117       -2.13337
C         10.57567       -9.15347       -0.80554
C         11.91488       -9.51494       -1.26173
C          9.68505      -10.27785       -0.88817
N          9.08302      -11.25976       -0.99426
N         12.99097       -9.76340       -1.62041
Cl        13.68731       -2.98630       -1.64600
Cl        15.24990       -5.63433       -0.66854
C          1.53211       -1.86971       -0.19941
C          1.79880       -1.49176        1.02878
S          0.96133        0.13667        0.98895
C          3.07936       -1.53178       -0.89383
C          3.84811       -2.47257        0.09812
C          3.15021       -2.21198        1.29268
C          3.36034       -1.84043       -2.42496
C          3.59553        0.05160       -0.55215
C          2.43474       -2.42970       -3.28646
C          2.62725       -2.57794       -4.65483
C          3.81101       -2.18759       -5.26198
C          4.82824       -1.68778       -4.43340
C          4.61174       -1.51701       -3.04185
C          4.81441        0.33181        0.17348
C          5.20133        1.64237        0.59391
C          4.40861        2.76190        0.32835
C          3.25971        2.56005       -0.40472
C          2.88918        1.28164       -0.84894
C          3.97736       -2.32573       -6.76673
C          2.93429       -1.50874       -7.54905
C          4.75626        4.16084        0.82063
C          5.61236        4.93083       -0.18069
C          4.89645       -3.58158        0.23060
C          4.84063       -4.24596        1.45497
S          3.61217       -3.46799        2.38966
S          6.16281       -4.48350       -0.60959
C          6.63185       -5.73647        0.55106
C          5.69831       -5.42848        1.66315
C         -5.31195       -2.41961       -6.08934
C         -6.81921       -2.47965       -6.24230
C         -5.05278       -5.56227        2.84048
C         -6.03245       -6.49778        2.14352
C         -6.39184        4.15808        2.49421
C         -7.19134        3.74596        3.71546
C          5.57410       -6.22697        2.95103
C          4.15086       -6.82768        3.15535
H         -4.97734       -1.11497        1.89002
H         -5.42112       -2.90541        3.27609
H         -3.91673       -5.64657        0.39261
H         -3.10685       -4.00870       -0.85210
H         -3.06550       -2.96398       -2.38664
H         -3.81709       -3.69111       -4.24139
H         -5.67335        0.12366       -4.89395
H         -4.86843        0.88003       -2.64071
H         -9.27577        4.22702        1.07647
H        -13.21328        4.77323       -3.14796
H         -8.85974        2.89571       -4.67742
H          7.72481       -7.81860        1.04574
H         13.32247       -7.67061       -0.23525
H         10.89384       -3.61147       -1.77405
H          1.48890       -2.80026       -2.97887
H          1.80765       -2.99343       -5.22520
H          5.78571       -1.41315       -4.85813
H          5.41216       -1.09845       -2.47217
H          5.50802       -0.43681        0.45749
H          6.11609        1.78284        1.15575
H          2.61928        3.40735       -0.64390
H          1.95808        1.35818       -1.35702
H          4.98671       -1.97787       -7.07018
H          3.87672       -3.39303       -7.06278
H          3.00725       -0.43222       -7.28742
H          3.09023       -1.61021       -8.64685
H          1.90505       -1.86733       -7.33706
H          3.82480        4.75030        1.00315
H          5.29017        4.10611        1.79336
H          5.07963        5.03552       -1.14973
H          5.82530        5.95072        0.21044
H          6.57716        4.40823       -0.34052
H         -4.86593       -1.82377       -6.90882
H         -4.93510       -3.47767       -6.19530
H         -7.26212       -1.46570       -6.21202
H         -7.07573       -2.93095       -7.24303
H         -7.28335       -3.12039       -5.46578
H         -4.12175       -6.11672        3.10035
H         -5.50897       -5.18890        3.78072
H         -5.59170       -6.91515        1.21353
H         -6.27342       -7.33924        2.82052
H         -6.96244       -5.94936        1.88490
H         -5.34606        4.30883        2.84164
H         -6.74340        5.13823        2.11308
H         -6.79842        2.79052        4.12453
H         -7.13171        4.52656        4.50187
H         -8.26546        3.70810        3.47668
H          6.33543       -7.02792        2.93399
H          5.78656       -5.60258        3.83498
H          3.78841       -7.33626        2.25185
H          4.16661       -7.57546        3.98086
H          3.36324       -6.06891        3.37053
