94
4T-1.sdf
C         -0.18023        0.38325        0.10432
O         -0.17076        1.57434        0.36116
C          0.16927       -0.70908        1.01957
C          0.77995       -0.68903        2.26203
C          1.09378       -1.92474        2.86101
C          0.78739       -3.14229        2.20915
C          0.12931       -3.13495        0.97636
C         -0.16992       -1.90181        0.41817
C         -0.83561       -1.58692       -0.82296
C         -1.89943       -2.20721       -1.36590
C         -2.51633       -1.70782       -2.57231
N         -2.98872       -1.28230       -3.54004
C         -2.51233       -3.30832       -0.66773
N         -2.96030       -4.18847       -0.06614
C         -0.31875       -0.28712       -1.19821
C          0.79405       -0.24203       -1.97328
C          1.50385        0.98971       -2.36182
C          2.64527        1.07963       -3.13980
C          3.02914        2.41357       -3.45753
C          2.13921        3.40205       -2.91593
S          0.97897        2.53854       -2.05788
C          2.03543        4.92134       -3.00220
C         -0.31109       12.33581       -0.94541
C         -0.71003       13.20992       -2.03016
C         -1.26281       14.44307       -1.61422
C         -1.32246       14.65731       -0.22943
S         -0.70812       13.21900        0.45443
C         -1.76452       15.97008        0.46920
C         -1.85869       16.19630        1.84432
C         -2.75784       17.24471        2.47179
C         -2.55204       18.39598        3.20048
C         -3.64308       19.05041        3.89848
N         -4.47068       19.61156        4.48355
C         -1.29537       19.03200        3.50025
N         -0.35283       19.62795        3.81177
C         -4.03974       16.55667        2.45968
C         -5.34852       17.03786        2.45936
C         -6.37772       16.10253        2.32676
C         -6.08208       14.72440        2.22484
C         -4.75853       14.26208        2.31430
C         -3.75601       15.19577        2.44041
C         -2.30182       14.99265        2.46406
O         -1.72517       14.49029        3.41716
F          1.71546       -1.94408        4.06177
F         -7.07878       13.83761        2.01330
S          1.36979        5.84650       -1.75065
C          1.55151        7.37398       -2.41071
C          2.07391        7.21553       -3.66361
C          2.36120        5.87422       -4.01154
C          1.19139        8.62753       -1.74012
C          1.22712        8.77056       -0.39451
C          0.79821       10.03716        0.09365
C          0.34444       10.92561       -0.96301
S          0.63377       10.06430       -2.40218
C         -0.52626       12.94155       -3.51137
C         -0.96015       13.86763       -4.63828
C          4.28400        2.65942       -4.27605
C          4.01874        2.67064       -5.78126
C          2.91822        5.63664       -5.37188
C          1.85182        5.39351       -6.45067
C          0.85704       10.28562        1.60358
C          1.32171        9.06044        2.38582
F          1.12969       -4.32655        2.76943
F         -7.65896       16.53545        2.25377
H          1.03452        0.25073        2.72880
H         -0.10372       -4.05471        0.45132
H          1.25463       -1.19561       -2.24162
H          3.15455        0.18826       -3.48222
H         -1.56077       15.16930       -2.34898
H         -2.15923       16.73196       -0.19849
H         -5.57992       18.09571        2.49587
H         -4.50234       13.21849        2.22053
H          2.26864        8.06903       -4.29062
H          1.58387        7.92440        0.17925
H          0.58451       12.91212       -3.65946
H         -1.25514       12.14342       -3.70914
H         -0.52382       14.86923       -4.50126
H         -0.56052       13.43904       -5.59780
H         -2.06962       13.87032       -4.73805
H          4.74501        3.61928       -3.96358
H          5.01568        1.83145       -4.12587
H          3.05660        3.12389       -6.01327
H          4.77826        3.24376       -6.35907
H          3.93697        1.67708       -6.18115
H          3.67631        6.39657       -5.63081
H          3.55675        4.84216       -5.28414
H          1.08051        6.17035       -6.41882
H          2.26722        5.37036       -7.48803
H          1.32141        4.44447       -6.25246
H          1.62944       10.99787        1.86850
H         -0.15465       10.59608        1.96876
H          2.11569        8.39826        2.01570
H          1.21823        9.06162        3.48466
H          0.59415        8.40848        2.05092
