4TC-4F-C8C8.sdf
     RDKit          3D

154170  0  0  0  0  0  0  0  0999 V2000
   -3.2587   -4.1640   -0.1692 C   0  0  0  0  0  0  0  0  0  0  0  0
   -3.3133   -3.6989   -1.4724 C   0  0  0  0  0  0  0  0  0  0  0  0
   -4.8075   -4.1623    0.5266 S   0  0  0  0  0  0  0  0  0  0  0  0
   -5.5487   -3.6837   -0.9137 C   0  0  0  0  0  0  0  0  0  0  0  0
   -4.6161   -3.4489   -1.8855 C   0  0  0  0  0  0  0  0  0  0  0  0
   -6.8387   -3.2433   -1.2018 C   0  0  0  0  0  0  0  0  0  0  0  0
   -6.8675   -2.6204   -2.4593 C   0  0  0  0  0  0  0  0  0  0  0  0
   -5.3254   -2.6636   -3.1847 S   0  0  0  0  0  0  0  0  0  0  0  0
   -8.0292   -1.9355   -3.0344 C   0  0  0  0  0  0  0  0  0  0  0  0
   -8.6427   -0.8854   -2.4437 C   0  0  0  0  0  0  0  0  0  0  0  0
   -9.9111   -0.2410   -2.9015 C   0  0  0  0  0  0  0  0  0  0  0  0
  -10.0800    0.9510   -2.0033 C   0  0  0  0  0  0  0  0  0  0  0  0
   -9.1475    0.8907   -0.9717 C   0  0  0  0  0  0  0  0  0  0  0  0
   -8.2200   -0.1862   -1.2282 C   0  0  0  0  0  0  0  0  0  0  0  0
  -11.1497    1.8570   -1.9173 C   0  0  0  0  0  0  0  0  0  0  0  0
  -11.3572    2.5490   -0.7181 C   0  0  0  0  0  0  0  0  0  0  0  0
  -10.4867    2.3670    0.3816 C   0  0  0  0  0  0  0  0  0  0  0  0
   -9.3576    1.5479    0.2409 C   0  0  0  0  0  0  0  0  0  0  0  0
  -10.9203    2.6607    1.6187 F   0  0  0  0  0  0  0  0  0  0  0  0
  -12.4837    3.2829   -0.5631 F   0  0  0  0  0  0  0  0  0  0  0  0
   -7.2380   -0.4775   -0.4943 O   0  0  0  0  0  0  0  0  0  0  0  0
  -10.9554   -0.9291   -3.4482 C   0  0  0  0  0  0  0  0  0  0  0  0
  -11.0044   -2.3546   -3.2128 C   0  0  0  0  0  0  0  0  0  0  0  0
  -12.2528   -0.3384   -3.6720 C   0  0  0  0  0  0  0  0  0  0  0  0
  -13.3019    0.1343   -3.8243 N   0  0  0  0  0  0  0  0  0  0  0  0
  -11.0577   -3.4665   -2.9125 N   0  0  0  0  0  0  0  0  0  0  0  0
    4.9694   -0.5999    2.9580 C   0  0  0  0  0  0  0  0  0  0  0  0
    4.9869    0.7728    2.7128 C   0  0  0  0  0  0  0  0  0  0  0  0
    6.2719   -1.3256    2.1306 S   0  0  0  0  0  0  0  0  0  0  0  0
    6.9006    0.1394    1.5833 C   0  0  0  0  0  0  0  0  0  0  0  0
    6.1322    1.1634    2.0205 C   0  0  0  0  0  0  0  0  0  0  0  0
    7.8193    0.4635    0.5889 C   0  0  0  0  0  0  0  0  0  0  0  0
    7.7952    1.8236    0.2711 C   0  0  0  0  0  0  0  0  0  0  0  0
    6.5701    2.5553    1.2068 S   0  0  0  0  0  0  0  0  0  0  0  0
    8.5410    2.3761   -0.8889 C   0  0  0  0  0  0  0  0  0  0  0  0
    8.3999    3.5590   -1.5480 C   0  0  0  0  0  0  0  0  0  0  0  0
    9.0066    3.8492   -2.8975 C   0  0  0  0  0  0  0  0  0  0  0  0
    8.0795    4.8287   -3.5513 C   0  0  0  0  0  0  0  0  0  0  0  0
    7.1258    5.2364   -2.6322 C   0  0  0  0  0  0  0  0  0  0  0  0
    7.3578    4.5861   -1.3528 C   0  0  0  0  0  0  0  0  0  0  0  0
    6.8872    4.9985   -0.2582 O   0  0  0  0  0  0  0  0  0  0  0  0
   10.2155    3.4331   -3.3726 C   0  0  0  0  0  0  0  0  0  0  0  0
   10.6954    3.7744   -4.6911 C   0  0  0  0  0  0  0  0  0  0  0  0
   11.1027    4.0386   -5.7475 N   0  0  0  0  0  0  0  0  0  0  0  0
   11.0997    2.6050   -2.5927 C   0  0  0  0  0  0  0  0  0  0  0  0
   11.7724    1.8957   -1.9758 N   0  0  0  0  0  0  0  0  0  0  0  0
    8.0108    5.2987   -4.8759 C   0  0  0  0  0  0  0  0  0  0  0  0
    6.9834    6.1799   -5.2333 C   0  0  0  0  0  0  0  0  0  0  0  0
    6.0424    6.6097   -4.2763 C   0  0  0  0  0  0  0  0  0  0  0  0
    6.1172    6.1391   -2.9605 C   0  0  0  0  0  0  0  0  0  0  0  0
    5.0649    7.4742   -4.6284 F   0  0  0  0  0  0  0  0  0  0  0  0
    6.8672    6.5787   -6.5231 F   0  0  0  0  0  0  0  0  0  0  0  0
    3.5770    1.3432    2.6626 C   0  0  0  0  0  0  0  0  0  0  0  0
    2.8514    0.0362    2.3896 C   0  0  0  0  0  0  0  0  0  0  0  0
    3.5889   -1.0335    2.8875 C   0  0  0  0  0  0  0  0  0  0  0  0
    3.2825    2.3680    1.5578 C   0  0  0  0  0  0  0  0  0  0  0  0
    3.1913    1.8361    4.0791 C   0  0  0  0  0  0  0  0  0  0  0  0
    3.4633    2.0028    0.2017 C   0  0  0  0  0  0  0  0  0  0  0  0
    2.9060    2.7608   -0.8301 C   0  0  0  0  0  0  0  0  0  0  0  0
    2.2000    3.9363   -0.5265 C   0  0  0  0  0  0  0  0  0  0  0  0
    2.0991    4.3659    0.8034 C   0  0  0  0  0  0  0  0  0  0  0  0
    2.6344    3.5896    1.8312 C   0  0  0  0  0  0  0  0  0  0  0  0
    1.8812    1.6756    4.5800 C   0  0  0  0  0  0  0  0  0  0  0  0
    1.5664    2.0318    5.8891 C   0  0  0  0  0  0  0  0  0  0  0  0
    2.5425    2.5912    6.7240 C   0  0  0  0  0  0  0  0  0  0  0  0
    3.8344    2.8145    6.2183 C   0  0  0  0  0  0  0  0  0  0  0  0
    4.1486    2.4697    4.9005 C   0  0  0  0  0  0  0  0  0  0  0  0
    1.4237    4.6509   -1.6025 C   0  0  0  0  0  0  0  0  0  0  0  0
    2.2336    2.8676    8.1747 C   0  0  0  0  0  0  0  0  0  0  0  0
    1.6934   -0.2190    1.6214 C   0  0  0  0  0  0  0  0  0  0  0  0
    1.2045   -1.5225    1.6759 C   0  0  0  0  0  0  0  0  0  0  0  0
    1.7001   -2.4533    2.5701 C   0  0  0  0  0  0  0  0  0  0  0  0
    2.9885   -2.2902    3.1213 C   0  0  0  0  0  0  0  0  0  0  0  0
    0.1127   -2.0980    1.0852 C   0  0  0  0  0  0  0  0  0  0  0  0
   -0.1639   -3.2438    1.8329 C   0  0  0  0  0  0  0  0  0  0  0  0
    0.8403   -3.4943    2.7107 N   0  0  0  0  0  0  0  0  0  0  0  0
    0.9422   -4.6136    3.6397 C   0  0  0  0  0  0  0  0  0  0  0  0
    0.3796   -4.2107    5.0044 C   0  0  0  0  0  0  0  0  0  0  0  0
   -0.4329   -1.9123   -0.1976 C   0  0  0  0  0  0  0  0  0  0  0  0
   -1.4279   -2.8376   -0.5645 C   0  0  0  0  0  0  0  0  0  0  0  0
   -2.0017   -3.6763    0.3922 C   0  0  0  0  0  0  0  0  0  0  0  0
   -1.3257   -3.9923    1.5796 C   0  0  0  0  0  0  0  0  0  0  0  0
   -1.9669   -3.1975   -1.9454 C   0  0  0  0  0  0  0  0  0  0  0  0
   -1.9880   -2.0243   -2.9218 C   0  0  0  0  0  0  0  0  0  0  0  0
   -1.3695   -2.1105   -4.1892 C   0  0  0  0  0  0  0  0  0  0  0  0
   -1.3391   -1.0156   -5.0514 C   0  0  0  0  0  0  0  0  0  0  0  0
   -1.9196    0.1984   -4.6695 C   0  0  0  0  0  0  0  0  0  0  0  0
   -2.5543    0.2972   -3.4172 C   0  0  0  0  0  0  0  0  0  0  0  0
   -2.5927   -0.8070   -2.5630 C   0  0  0  0  0  0  0  0  0  0  0  0
   -1.2042   -4.4399   -2.4918 C   0  0  0  0  0  0  0  0  0  0  0  0
   -1.8904   -5.4006   -3.2744 C   0  0  0  0  0  0  0  0  0  0  0  0
   -1.3182   -6.6506   -3.5397 C   0  0  0  0  0  0  0  0  0  0  0  0
   -0.0251   -6.9442   -3.0872 C   0  0  0  0  0  0  0  0  0  0  0  0
    0.7189   -5.9476   -2.4286 C   0  0  0  0  0  0  0  0  0  0  0  0
    0.1388   -4.7066   -2.1467 C   0  0  0  0  0  0  0  0  0  0  0  0
   -0.0533    4.2617   -1.5322 C   0  0  0  0  0  0  0  0  0  0  0  0
    2.7640    1.7552    9.0764 C   0  0  0  0  0  0  0  0  0  0  0  0
   -1.8461    1.3840   -5.5934 C   0  0  0  0  0  0  0  0  0  0  0  0
   -0.4416    1.9698   -5.6072 C   0  0  0  0  0  0  0  0  0  0  0  0
    0.5009   -8.3383   -3.1787 C   0  0  0  0  0  0  0  0  0  0  0  0
    0.1877   -9.1199   -1.9015 C   0  0  0  0  0  0  0  0  0  0  0  0
   -7.6617   -3.2790   -0.5078 H   0  0  0  0  0  0  0  0  0  0  0  0
   -8.3997   -2.2987   -3.9873 H   0  0  0  0  0  0  0  0  0  0  0  0
  -11.8604    1.9790   -2.7193 H   0  0  0  0  0  0  0  0  0  0  0  0
   -8.7538    1.3120    1.0876 H   0  0  0  0  0  0  0  0  0  0  0  0
    8.4165   -0.2721    0.0622 H   0  0  0  0  0  0  0  0  0  0  0  0
    9.1901    1.6404   -1.3383 H   0  0  0  0  0  0  0  0  0  0  0  0
    8.6764    4.9417   -5.6426 H   0  0  0  0  0  0  0  0  0  0  0  0
    5.3854    6.4442   -2.2230 H   0  0  0  0  0  0  0  0  0  0  0  0
    3.9431    1.0660   -0.0479 H   0  0  0  0  0  0  0  0  0  0  0  0
    2.9777    2.4183   -1.8521 H   0  0  0  0  0  0  0  0  0  0  0  0
    1.5394    5.2630    1.0402 H   0  0  0  0  0  0  0  0  0  0  0  0
    2.4631    3.9387    2.8391 H   0  0  0  0  0  0  0  0  0  0  0  0
    1.0898    1.2492    3.9625 H   0  0  0  0  0  0  0  0  0  0  0  0
    0.5699    1.8453    6.2630 H   0  0  0  0  0  0  0  0  0  0  0  0
    4.6029    3.2512    6.8477 H   0  0  0  0  0  0  0  0  0  0  0  0
    5.1499    2.6558    4.5463 H   0  0  0  0  0  0  0  0  0  0  0  0
    1.8134    4.3936   -2.6092 H   0  0  0  0  0  0  0  0  0  0  0  0
    1.5216    5.7513   -1.4800 H   0  0  0  0  0  0  0  0  0  0  0  0
    2.6726    3.8435    8.4669 H   0  0  0  0  0  0  0  0  0  0  0  0
    1.1238    2.9608    8.2964 H   0  0  0  0  0  0  0  0  0  0  0  0
    1.1742    0.5584    1.0809 H   0  0  0  0  0  0  0  0  0  0  0  0
    3.4963   -3.0707    3.6882 H   0  0  0  0  0  0  0  0  0  0  0  0
    2.0028   -4.9221    3.7483 H   0  0  0  0  0  0  0  0  0  0  0  0
    0.3793   -5.4861    3.2550 H   0  0  0  0  0  0  0  0  0  0  0  0
   -0.6478   -3.8035    4.8812 H   0  0  0  0  0  0  0  0  0  0  0  0
    0.3422   -5.1067    5.6636 H   0  0  0  0  0  0  0  0  0  0  0  0
    1.0275   -3.4310    5.4638 H   0  0  0  0  0  0  0  0  0  0  0  0
   -0.0160   -1.1939   -0.8949 H   0  0  0  0  0  0  0  0  0  0  0  0
   -1.6598   -4.7897    2.2321 H   0  0  0  0  0  0  0  0  0  0  0  0
   -0.8812   -3.0196   -4.5342 H   0  0  0  0  0  0  0  0  0  0  0  0
   -0.8368   -1.1189   -6.0086 H   0  0  0  0  0  0  0  0  0  0  0  0
   -3.0136    1.2219   -3.1107 H   0  0  0  0  0  0  0  0  0  0  0  0
   -3.0862   -0.7013   -1.5995 H   0  0  0  0  0  0  0  0  0  0  0  0
   -2.9077   -5.2259   -3.6033 H   0  0  0  0  0  0  0  0  0  0  0  0
   -1.9049   -7.4028   -4.0500 H   0  0  0  0  0  0  0  0  0  0  0  0
    1.7250   -6.1562   -2.0795 H   0  0  0  0  0  0  0  0  0  0  0  0
    0.7296   -3.9850   -1.5947 H   0  0  0  0  0  0  0  0  0  0  0  0
   -0.6259    4.7749   -2.3337 H   0  0  0  0  0  0  0  0  0  0  0  0
   -0.4821    4.5442   -0.5405 H   0  0  0  0  0  0  0  0  0  0  0  0
   -0.1668    3.1624   -1.6591 H   0  0  0  0  0  0  0  0  0  0  0  0
    2.0234    1.5577    9.8835 H   0  0  0  0  0  0  0  0  0  0  0  0
    2.8897    0.7992    8.5188 H   0  0  0  0  0  0  0  0  0  0  0  0
    3.7232    2.0657    9.5452 H   0  0  0  0  0  0  0  0  0  0  0  0
   -2.1263    1.0542   -6.6230 H   0  0  0  0  0  0  0  0  0  0  0  0
   -2.5578    2.1703   -5.2779 H   0  0  0  0  0  0  0  0  0  0  0  0
    0.3014    1.2211   -5.9577 H   0  0  0  0  0  0  0  0  0  0  0  0
   -0.1505    2.3280   -4.5938 H   0  0  0  0  0  0  0  0  0  0  0  0
   -0.4174    2.8353   -6.3093 H   0  0  0  0  0  0  0  0  0  0  0  0
    1.6040   -8.3202   -3.3482 H   0  0  0  0  0  0  0  0  0  0  0  0
    0.0398   -8.8632   -4.0418 H   0  0  0  0  0  0  0  0  0  0  0  0
   -0.9077   -9.1052   -1.7048 H   0  0  0  0  0  0  0  0  0  0  0  0
    0.5140  -10.1719   -2.0153 H   0  0  0  0  0  0  0  0  0  0  0  0
    0.7222   -8.6613   -1.0401 H   0  0  0  0  0  0  0  0  0  0  0  0
  1  2  2  0
  1  3  1  0
  3  4  1  0
  4  5  2  0
  5  2  1  0
  4  6  1  0
  6  7  2  0
  7  8  1  0
  8  5  1  0
  7  9  1  0
  9 10  2  0
 10 11  1  0
 11 12  1  0
 12 13  2  0
 13 14  1  0
 14 10  1  0
 12 15  1  0
 15 16  2  0
 16 17  1  0
 17 18  2  0
 18 13  1  0
 17 19  1  0
 16 20  1  0
 14 21  2  0
 11 22  2  0
 22 23  1  0
 22 24  1  0
 24 25  3  0
 23 26  3  0
 27 29  1  0
 29 30  1  0
 30 31  2  0
 31 28  1  0
 30 32  1  0
 32 33  2  0
 33 34  1  0
 34 31  1  0
 33 35  1  0
 35 36  2  0
 36 37  1  0
 37 38  1  0
 38 39  2  0
 39 40  1  0
 40 36  1  0
 40 41  2  0
 37 42  2  0
 42 43  1  0
 43 44  3  0
 42 45  1  0
 45 46  3  0
 38 47  1  0
 47 48  2  0
 48 49  1  0
 49 50  2  0
 50 39  1  0
 49 51  1  0
 48 52  1  0
 27 28  2  0
 28 53  1  0
 53 54  1  0
 54 55  2  0
 55 27  1  0
 53 56  1  0
 53 57  1  0
 56 58  2  0
 58 59  1  0
 59 60  2  0
 60 61  1  0
 61 62  2  0
 62 56  1  0
 57 63  2  0
 63 64  1  0
 64 65  2  0
 65 66  1  0
 66 67  2  0
 67 57  1  0
 60 68  1  0
 65 69  1  0
 54 70  1  0
 70 71  2  0
 71 72  1  0
 72 73  2  0
 73 55  1  0
 71 74  1  0
 74 75  1  0
 75 76  1  0
 76 72  1  0
 76 77  1  0
 77 78  1  0
 74 79  2  0
 79 80  1  0
 80 81  2  0
 81 82  1  0
 82 75  2  0
 81  1  1  0
 80 83  1  0
  2 83  1  0
 83 84  1  0
 84 85  2  0
 85 86  1  0
 86 87  2  0
 87 88  1  0
 88 89  2  0
 89 84  1  0
 90 91  2  0
 91 92  1  0
 92 93  2  0
 93 94  1  0
 94 95  2  0
 95 90  1  0
 83 90  1  0
 68 96  1  0
 69 97  1  0
 87 98  1  0
 98 99  1  0
 93100  1  0
100101  1  0
  6102  1  0
  9103  1  0
 15104  1  0
 18105  1  0
 32106  1  0
 35107  1  0
 47108  1  0
 50109  1  0
 58110  1  0
 59111  1  0
 61112  1  0
 62113  1  0
 63114  1  0
 64115  1  0
 66116  1  0
 67117  1  0
 68118  1  0
 68119  1  0
 69120  1  0
 69121  1  0
 70122  1  0
 73123  1  0
 77124  1  0
 77125  1  0
 78126  1  0
 78127  1  0
 78128  1  0
 79129  1  0
 82130  1  0
 85131  1  0
 86132  1  0
 88133  1  0
 89134  1  0
 91135  1  0
 92136  1  0
 94137  1  0
 95138  1  0
 96139  1  0
 96140  1  0
 96141  1  0
 97142  1  0
 97143  1  0
 97144  1  0
 98145  1  0
 98146  1  0
 99147  1  0
 99148  1  0
 99149  1  0
100150  1  0
100151  1  0
101152  1  0
101153  1  0
101154  1  0
M  END

