146
a-IT-2OM.sdf
C          4.12473       -0.52900       -2.70204
O          4.60581        0.28152       -3.46507
C          3.97769       -1.91753       -3.04131
C          3.97619       -2.52477       -4.30710
C          3.71448       -3.88728       -4.44870
C          3.43731       -4.60850       -3.27791
C          3.51212       -3.97643       -1.99207
C          3.79634       -2.61702       -1.89423
C          3.91740       -1.69478       -0.71402
C          4.26603       -2.07558        0.55148
C          4.34966       -1.15893        1.64687
N          4.38923       -0.35081        2.47131
C          4.62460       -3.43924        0.81802
N          4.90058       -4.55188        0.96342
C          3.73417       -0.31670       -1.28783
C          3.31827        0.85870       -0.70720
C          3.08167        2.14839       -1.47880
C          3.22621        3.47546       -1.00560
C          2.78294        4.43335       -1.92195
C          2.24396        3.91754       -3.05498
S          2.40129        2.26370       -3.04312
C          1.49330        4.83585       -3.77268
C          0.31803        4.69915       -4.73378
C          0.60010        3.86530       -6.04058
C         -0.39005        3.12192       -6.70983
C         -0.26286        2.42384       -7.86049
C          0.95073        2.36787       -8.47997
C          1.06242        1.56467       -9.75907
C          1.50419        2.42055      -10.94380
C          2.02786        3.05415       -7.87223
C          1.85575        3.79114       -6.66858
C         -0.77957        4.03127       -3.71380
C         -1.67567        4.82820       -2.91882
C         -2.44323        4.30289       -1.88194
C         -2.39797        2.93967       -1.61169
C         -3.02822        2.30486       -0.44687
C         -4.40833        1.89839       -0.76025
C         -1.68888        2.12314       -2.40918
C         -0.93031        2.63016       -3.40749
C          0.13290        6.26385       -4.96552
C          0.73857        7.01519       -3.94574
C          1.57729        6.09157       -3.21788
S          2.53778        6.11487       -1.80959
C          0.53139        8.40892       -3.76365
C         -0.29525        9.09747       -4.69324
C         -0.89084       10.56288       -4.77473
C         -1.50806       11.12481       -3.43868
C         -1.51871       10.35318       -2.26363
C         -1.93778       10.77093       -1.04270
C         -2.43239       12.03899       -0.87228
C         -2.85630       12.47142        0.51448
C         -1.70384       12.42011        1.53530
C         -2.51461       12.86839       -2.01329
C         -2.05104       12.42369       -3.28409
C          0.22084       11.54246       -5.41810
C          0.75096       11.33349       -6.72572
C          1.77120       12.13501       -7.26697
C          2.31188       13.20638       -6.54815
C          3.46265       14.03823       -7.06919
C          3.14513       14.72983       -8.39379
C          1.78676       13.47477       -5.30298
C          0.79083       12.67984       -4.76709
C         -1.95889       10.21174       -5.86425
C         -1.40296        9.28886       -6.66125
C         -0.66608        8.39257       -5.83565
C         -0.50264        6.99313       -6.00156
S         -1.88439        9.39739       -8.24200
C         -3.11880       10.49027       -7.81010
C         -3.17409       10.65381       -6.44171
S         -4.59984        9.71540       -6.11320
C         -5.12088        9.36915       -7.71374
C         -4.23119       10.12361       -8.48486
C         -5.97859        8.17285       -8.24964
C         -6.45837        7.14406       -7.46370
C         -7.45078        5.99226       -7.63612
C         -8.09201        5.41992       -8.66131
C         -9.43623        4.93285       -8.38560
N        -10.50598        4.53954       -8.18745
C         -7.55771        5.38784       -9.99754
N         -7.07610        5.39141      -11.04999
C         -7.48334        5.31608       -6.31110
C         -8.10340        4.16091       -5.82026
C         -7.74309        3.71451       -4.54092
C         -6.77501        4.40086       -3.77229
C         -6.19732        5.54062       -4.26937
C         -6.57849        5.93246       -5.51938
C         -6.20716        7.12052       -6.04664
O         -6.67330        7.96766       -5.32572
O          3.70548       -4.45197       -5.70505
O          3.06142       -5.88997       -3.40918
C          2.76921       -6.68191       -2.34664
C          4.03640       -5.77065       -6.04435
H          4.12786       -1.97118       -5.19636
H          3.29706       -4.51256       -1.08889
H          3.04484        0.85002        0.35117
H          3.53468        3.76971       -0.02363
H         -1.30121        2.95924       -6.44794
H         -1.15111        1.92131       -8.24706
H          1.79972        0.75656       -9.61351
H          0.07090        1.12233      -10.02100
H          2.46666        2.91430      -10.70271
H          1.65505        1.82384      -11.86569
H          0.70980        3.15418      -11.18517
H          2.99809        3.03159       -8.32750
H          2.70723        4.29975       -6.24984
H         -1.79534        5.88164       -2.99213
H         -3.02169        4.98709       -1.27544
H         -2.47128        1.38509       -0.13065
H         -3.07844        3.06019        0.35684
H         -4.44511        1.13913       -1.58146
H         -4.76418        1.52530        0.21261
H         -4.92568        2.82410       -1.05400
H         -1.69388        1.04682       -2.23028
H         -0.53484        1.78751       -3.82308
H          0.98329        8.88384       -2.91355
H         -1.21439        9.38327       -2.15132
H         -1.83677       10.03946       -0.24862
H         -3.23444       13.51003        0.46360
H         -3.67184       11.81160        0.88053
H         -0.87330       13.08451        1.21602
H         -2.04328       12.75403        2.53509
H         -1.31952       11.38360        1.64926
H         -2.91841       13.86067       -1.91188
H         -2.11553       13.09736       -4.12158
H          0.43105       10.54234       -7.36834
H          2.14796       11.89083       -8.24714
H          3.72980       14.82120       -6.32237
H          4.35350       13.39294       -7.20310
H          2.28695       15.42187       -8.27275
H          4.01623       15.32452       -8.73040
H          2.91453       13.97808       -9.17510
H          2.14830       14.30206       -4.70333
H          0.56120       13.06337       -3.82734
H         -0.92825        6.50974       -6.86827
H         -4.00051       10.14013       -9.47242
H         -6.29265        8.20023       -9.29323
H         -8.81658        3.57310       -6.37156
H         -8.20969        2.82421       -4.18027
H         -6.45599        4.09046       -2.79765
H         -5.46530        6.13472       -3.72582
H          3.70625       -6.79639       -1.76483
H          1.97742       -6.18478       -1.74318
H          2.39571       -7.65146       -2.71107
H          5.11839       -6.01067       -5.89005
H          3.37869       -6.48936       -5.52016
H          3.88699       -5.96106       -7.12618
