97
ABP4T-4F.sdf
C         -1.31551       -0.29428        1.99770
C         -0.51049        0.71166        1.34741
S         -1.45431        1.35368       -0.00038
C         -2.75918        0.26969        0.14314
C         -2.55549       -0.44357        1.29637
N         -3.41080       -1.46154        1.41340
C         -4.54396       -1.11754        2.35327
C         -3.90950       -1.59735        0.14132
C         -3.70778       -0.46803       -0.65550
C         -4.13757       -0.49740       -2.04216
N         -4.07385        0.53537       -2.92254
S         -4.49662       -0.17884       -4.36707
N         -4.69727       -1.77625       -3.99837
C         -4.48133       -1.78483       -2.65976
C         -4.17588       -2.94422       -1.93054
C         -3.83483       -2.82605       -0.58831
N         -2.78321       -3.68640       -0.39698
C         -1.54767       -2.74711       -0.64527
C         -0.32090       -3.17367       -1.19008
C         -2.93007       -4.72532       -1.30335
C         -3.61447       -4.17562       -2.35750
S         -2.82363       -4.63983       -3.80239
C         -1.55987       -5.52849       -2.98116
C         -1.92400       -5.74329       -1.63619
C         -4.20795       -0.65606        3.77184
C          3.23473       -2.87270       -3.07814
C          3.39191       -2.11022       -4.24439
C          4.21849       -0.92323       -4.70670
C          5.56372       -0.86306       -4.56621
C          6.36771       -0.14676       -5.53775
N          7.06304        0.40351       -6.28282
C          6.26854       -1.67933       -3.60251
N          6.78078       -2.35192       -2.81165
C          3.34443       -0.19844       -5.71820
C          3.26473        1.12429       -6.26923
C          2.20439        1.44271       -7.17663
F          2.02176        2.70257       -7.68086
C          1.31577        0.43974       -7.58717
C          1.45122       -0.86829       -7.07113
C          2.43638       -1.13651       -6.13178
C          2.69087       -2.40703       -5.46277
O          3.00248       -3.40025       -6.10569
S         -0.52056       -6.22293       -0.69718
C          0.61951       -5.69647       -1.91184
C         -0.08508       -5.44056       -3.10454
C          1.88313       -4.93476       -1.71445
C          2.20445       -4.08157       -2.89618
S          0.91914       -4.41855       -4.05315
F          0.35141        0.75058       -8.49893
C          1.32835        3.30195        1.26202
O          0.15198        3.60858        1.22246
C          2.43055        4.24304        1.38828
C          2.31996        5.60757        1.49408
C          3.46230        6.36908        1.77407
C          4.70321        5.74350        1.98122
F          5.80653        6.46572        2.31312
C          4.80031        4.35740        1.88019
C          3.63451        3.60615        1.52734
C          3.35443        2.15345        1.50779
C          4.32693        1.31889        1.81616
C          3.93664        0.23020        2.66697
N          3.65286       -0.65523        3.35552
C          5.74017        1.62396        1.53235
N          6.88053        1.77159        1.36414
C          1.83169        1.95966        1.43066
C          1.03065        0.83651        1.50106
F          3.34760        7.70854        1.89062
C          2.51834       -4.80866       -0.27193
C          3.92554       -5.35970       -0.07319
C         -0.76499       -1.34112        3.04516
C         -0.25076       -2.70236        2.60745
H         -5.13121       -0.25212        1.95943
H         -5.23228       -1.97034        2.47334
H         -1.66851       -2.08689       -1.55894
H         -1.04408       -2.34116        0.21361
H          0.15812       -3.78580       -0.60858
H          0.10483       -3.04854       -2.16023
H         -0.74738       -3.92774       -1.50797
H         -3.75883        0.32824        3.83718
H         -5.04264       -0.53618        4.43461
H         -3.78105       -1.39826        4.37779
H          3.80554       -2.52164       -2.21471
H          3.95512        1.90934       -5.99887
H          0.81056       -1.69144       -7.34002
H          1.34138        6.03943        1.39365
H          5.77128        3.95608        2.14739
H          1.53674       -0.11227        1.65347
H          2.65367       -3.76589        0.02927
H          1.90844       -5.31292        0.48741
H          4.49390       -4.95597        0.78179
H          4.30229       -5.29086        0.94651
H          3.92512       -6.45317       -0.19202
H         -1.46566       -1.61250        3.83357
H          0.15618       -0.90721        3.46607
H          0.60108       -2.39511        1.98816
H          0.35138       -3.37215        3.23766
H         -1.07733       -3.39257        2.27031
