175
AOIC2.sdf
C         -0.81953        0.62391        1.60069
C         -1.56186       -0.49554        1.32052
C         -2.99091       -0.78296        0.86662
C         -3.00441       -2.22776        0.46769
C         -1.79347       -2.81510        0.79952
C         -0.88458       -1.81269        1.31287
O          0.27719       -2.02917        1.63064
C         -4.15728       -0.08288        1.02360
C         -5.42597       -0.40701        0.40769
N         -6.46228       -0.61934       -0.05347
C         -4.31854        0.96647        1.97183
N         -4.55122        1.82692        2.71539
C         -4.05428       -3.04709        0.01053
C         -3.86151       -4.42252       -0.10485
C         -2.62857       -4.99770        0.22650
C         -1.57492       -4.19098        0.67792
F         -4.89622       -5.19818       -0.50975
F         -2.47040       -6.33928        0.13116
C         -1.06263        2.09420        1.46648
S         -2.21046        2.85758        0.48090
C         -1.44166        4.36563        0.59838
C         -0.30788        4.32722        1.35114
C         -0.09126        3.04550        1.87915
C         -1.18627        5.27268       -0.48066
C          0.16131        5.57289       -0.43250
C          0.49619        5.61779        1.09770
C         -0.33506        6.82867        1.82308
C          2.04020        5.75562        1.42651
C         -1.95380        5.39861       -1.57356
C         -1.35152        5.81091       -2.75822
C         -0.04690        5.29939       -2.87384
C          0.79720        5.27339       -1.71094
C         -1.99262        5.93887       -4.08808
C         -1.49701        4.55124       -4.45672
C         -0.17166        4.40599       -4.11009
C         -3.50034        6.45161       -4.02215
C         -1.09379        6.93674       -5.03038
C         -2.05278        3.41699       -5.00610
C         -1.17190        2.49756       -5.54641
S          0.39462        2.96640       -4.91370
C         -0.24828        7.96240       -4.49430
C          2.56411        6.87890        2.14309
C          3.91738        7.03008        2.43547
C          4.84297        6.08394        2.01031
C          4.37581        4.96471        1.31053
C          3.00600        4.79903        1.03329
C         -1.23041        7.71898        1.13774
C         -1.91369        8.76408        1.77906
C         -1.74279        9.00954        3.14243
C         -0.89852        8.16371        3.85365
C         -0.23922        7.09861        3.22811
C         -3.92634        7.66141       -4.63294
C         -5.25356        8.13095       -4.52927
C         -6.21901        7.44971       -3.78244
C         -5.81991        6.28540       -3.13696
C         -4.51045        5.79503       -3.28467
C         -1.01777        6.80907       -6.46185
C         -0.16086        7.61078       -7.25845
C          0.66862        8.58063       -6.68543
C          0.60674        8.74776       -5.29814
C          6.31157        6.27816        2.30129
C          6.87733        5.12690        3.12818
C         -2.42446       10.17294        3.83573
C         -3.78828        9.79981        4.41793
C         -7.64486        7.97191       -3.62149
C         -8.63618        7.52905       -4.71628
C          1.63541        9.40261       -7.53724
C          1.02173       10.70168       -8.06505
C         -6.05626        3.57217      -10.31571
C         -7.42226        3.82910      -10.35311
C         -8.68807        3.42237       -9.59608
C         -9.83577        4.16229      -10.21929
C         -9.37736        5.02113      -11.16802
C         -7.93199        4.86269      -11.29704
C        -11.24110        4.02113      -10.02755
C        -12.12516        4.84766      -10.68695
C        -11.63909        5.77885      -11.60064
C        -10.25716        5.84889      -11.87340
O         -7.25021        5.49393      -12.08703
C         -8.94290        2.63020       -8.53527
C        -10.08311        2.93736       -7.73927
C         -8.20875        1.60716       -7.93252
N         -7.71327        0.75712       -7.33346
N        -11.02475        3.25252       -7.15249
F        -12.51634        6.58143      -12.24253
F        -13.45402        4.72719      -10.43108
S         -3.64796        3.11827       -5.27815
C         -3.26322        1.94407       -6.36654
C         -1.91900        1.74352       -6.55049
C         -4.01702        1.76513       -7.51876
C         -3.18627        1.65671       -8.56517
C         -1.75547        1.21061       -8.03198
C         -0.61460        1.93391       -8.80420
C         -1.73429       -0.34215       -8.10489
S         -5.47830        2.43765       -7.85557
C         -5.17458        2.70821       -9.45106
C         -3.84618        2.22029       -9.72254
C         -0.08551        3.17716       -8.37791
C          0.89518        3.85229       -9.10242
C          1.39004        3.31987      -10.29590
C          0.90447        2.08320      -10.72520
C         -0.06837        1.40835       -9.99352
C         -1.95138       -1.01631       -9.33369
C         -1.95151       -2.40641       -9.42065
C         -1.78240       -3.19036       -8.27795
C         -1.59662       -2.54876       -7.04205
C         -1.56858       -1.14685       -6.95572
C          2.39851        4.07154      -11.13146
C          3.70004        4.35696      -10.38591
C         -1.85210       -4.69835       -8.39054
C         -0.57068       -5.39172       -7.93929
H          0.22171        0.43437        1.87228
H         -5.03467       -2.69771       -0.22931
H         -0.62742       -4.63332        0.95711
H          0.79599        2.75331        2.40248
H         -2.94553        5.07207       -1.44608
H          1.78816        4.85940       -1.75783
H         -0.20103        8.18129       -3.44045
H          1.97392        7.68988        2.51205
H          4.23141        7.90271        2.99812
H          5.07093        4.20417        0.98114
H          2.73766        3.90094        0.51668
H         -1.45708        7.66559        0.09222
H         -2.56893        9.38758        1.18476
H         -0.72786        8.32155        4.91047
H          0.37993        6.54718        3.90456
H         -3.25349        8.28400       -5.19165
H         -5.51776        9.05060       -5.01487
H         -6.53660        5.75091       -2.52332
H         -4.31305        4.88565       -2.80281
H         -1.58827        6.08014       -7.01332
H         -0.13076        7.46161       -8.33400
H          1.23714        9.48729       -4.82092
H          6.87056        6.35352        1.34283
H          6.46847        7.22881        2.85934
H          6.77436        4.16743        2.57949
H          7.95526        5.30085        3.32443
H          6.34700        5.05056        4.10020
H         -1.77288       10.54510        4.65896
H         -2.56132       11.00947        3.11666
H         -3.68678        9.01389        5.19463
H         -4.25601       10.68799        4.89969
H         -4.46252        9.44342        3.61175
H         -8.08587        7.54740       -2.69655
H         -7.63214        9.06828       -3.45754
H         -8.55406        6.42655       -4.86042
H         -9.65458        7.87712       -4.46792
H         -8.59077        7.99863       -5.69878
H          2.54065        9.65871       -6.94096
H          1.98594        8.80262       -8.40891
H          0.72576       11.36866       -7.23039
H          1.76729       11.25607       -8.67910
H          0.13840       10.48249       -8.70029
H         -5.45668        4.16960      -11.00596
H        -11.72761        3.29506       -9.40420
H         -9.88211        6.52762      -12.61631
H         -3.39448        2.36302      -10.68933
H         -0.41658        3.68313       -7.49927
H          1.24503        4.80404       -8.72722
H          1.26257        1.63474      -11.64250
H         -0.36329        0.47987      -10.40604
H         -2.14316       -0.48470      -10.25381
H         -2.10613       -2.86900      -10.38807
H         -1.48239       -3.13368       -6.13969
H         -1.43312       -0.70345       -5.97965
H          2.64157        3.48714      -12.04534
H          1.94862        5.03479      -11.45618
H          4.17923        3.40692      -10.07121
H          4.39722        4.90411      -11.05663
H          3.51830        4.99465       -9.49593
H         -2.70250       -5.06649       -7.77815
H         -2.04362       -5.00000       -9.44481
H         -0.36242       -5.17919       -6.87068
H         -0.69025       -6.49057       -8.05893
H          0.28813       -5.06054       -8.55998
