91
AOT2.sdf
C          0.27167        2.85344        0.74637
C          0.32811        4.03096        1.38393
C          0.03953        5.34733        0.78942
C         -0.84629        5.96483        1.80461
C         -0.64207        5.29808        3.00944
C          0.29856        4.22728        2.81589
O          0.82055        3.53811        3.67839
C          0.53987        5.87961       -0.35076
C          0.19593        7.21097       -0.79440
N         -0.10034        8.28032       -1.12396
C          1.60432        5.22534       -1.07768
N          2.45840        4.76909       -1.71189
C         -1.78243        6.99816        1.72905
C         -2.53241        7.30233        2.88456
C         -2.30704        6.61069        4.09539
C         -1.33649        5.60803        4.16547
F         -3.49688        8.25167        2.82881
F         -3.04877        6.89133        5.19449
C          0.12442        1.54158        1.42976
S         -0.50227        1.17263        2.88933
C         -0.62153       -0.53270        2.84114
C         -0.22649       -0.78752        1.48711
C          0.29980        0.34679        0.81661
C         -1.03255       -1.52875        3.98030
C         -1.53054       -1.37405        5.31624
C         -1.75739       -2.64124        6.02028
C         -1.32812       -3.79212        5.30673
S         -0.79519       -3.18698        3.86846
O         -1.78386       -0.16677        5.91192
O         -2.32844       -2.76326        7.25222
C         -2.10489        1.01841        5.26623
C         -2.99435        2.01326        6.12358
C         -2.40345       -1.84421        8.29886
C         -1.01330       -1.50885        8.94228
C         -1.24574       -5.27379        5.63723
S         -1.54720       -6.00100        7.07618
C         -1.46289       -7.62700        6.73885
C         -0.90318       -7.63732        5.42721
C         -0.83510       -6.31751        4.82694
O         -0.46071       -8.73818        4.75423
C          0.51942       -8.56266        3.77313
C         -0.08688       -8.29343        2.33297
C         -1.85746       -8.60658        7.85598
C         -2.90544       -8.34486        8.75073
C         -3.47126       -9.05643        9.98077
C         -4.36625       -8.03176       10.68370
C         -4.52355       -6.94419        9.84406
C         -3.80121       -7.19133        8.61856
O         -4.05627       -6.63223        7.56805
C         -3.28410      -10.36499       10.32922
C         -3.90993      -10.94276       11.49866
N         -4.42603      -11.37415       12.44118
C         -2.41498      -11.25222        9.58762
N         -1.73012      -12.00103        9.02762
C         -5.03596       -8.00359       11.93803
C         -5.85381       -6.89097       12.27203
C         -5.98102       -5.80988       11.38956
C         -5.30281       -5.82122       10.17735
F         -6.53726       -6.85410       13.44499
F         -6.77586       -4.75044       11.69434
O         -0.34087       -1.89873        0.69335
C         -1.23762       -2.97699        0.62776
C         -2.56457       -3.07291       -0.28891
H          0.10125        2.84738       -0.33741
H         -1.97506        7.51782        0.80233
H         -1.16559        5.04826        5.07704
H          0.73872        0.32519       -0.16538
H         -1.19986        1.61726        5.11525
H         -2.41891        0.75231        4.21636
H         -2.56681        2.81740        6.75027
H         -4.06533        1.89701        6.26811
H         -3.20741        2.86467        5.54834
H         -2.90862       -0.90679        8.04545
H         -3.18625       -2.20173        8.96545
H         -0.42806       -1.78973        9.85669
H         -0.89552       -0.39848        8.99327
H         -0.39481       -2.31170        8.52375
H         -0.49426       -6.11254        3.82693
H          1.24092       -7.84945        4.23504
H          1.28907       -9.35726        3.73268
H         -0.98882       -7.64792        2.24149
H          0.61436       -7.77941        1.63486
H         -0.39590       -9.25849        1.87465
H         -1.24239       -9.47612        7.97808
H         -4.95471       -8.80141       12.65629
H         -5.41232       -4.95405        9.53796
H         -0.59976       -3.75752        0.19022
H         -1.43660       -3.32288        1.60036
H         -2.29115       -3.24675       -1.35173
H         -3.18382       -3.94240        0.08999
H         -3.44224       -2.39500       -0.41326
