124
BCPDT-2.sdf
C         -3.06020        4.48809       -7.49529
O         -2.86462        3.77701       -6.52912
C         -3.08336        3.99997       -8.83989
C         -2.79601        2.71443       -9.26368
C         -2.73079        2.47987      -10.63817
C         -2.95768        3.53260      -11.54984
C         -3.29158        4.81856      -11.08910
C         -3.35792        5.03280       -9.71258
C         -3.66719        6.24573       -8.93129
C         -4.38395        7.29744       -9.27583
C         -4.75611        8.38505       -8.39342
N         -5.08842        9.27214       -7.73648
C         -5.02912        7.34592      -10.61120
N         -5.50539        7.31677      -11.66869
C         -3.07936        5.96035       -7.59582
C         -2.51971        6.87273       -6.78620
C         -2.62604        3.62801       11.20907
O         -3.02602        4.63008       10.63690
C         -1.31159        3.56987       11.66771
C         -0.30347        4.46451       11.33549
C          0.96747        4.20515       11.83239
C          1.18452        3.07532       12.64810
C          0.11799        2.21682       12.99120
C         -1.15175        2.48664       12.48241
C         -2.46615        1.80464       12.65125
C         -2.83665        0.95812       13.64622
C         -4.19190        0.46069       13.75493
N         -5.29170        0.09211       13.79814
C         -1.94084        0.56098       14.69610
N         -1.27307        0.20378       15.56923
C         -3.31532        2.34605       11.56470
C         -4.36501        1.68701       10.98966
C         -5.08700        2.19230        9.82639
S         -5.26654        3.81700        9.47599
C         -5.92279        3.48527        8.02728
C         -6.10142        2.17368        7.76511
C         -5.61576        1.42098        8.77814
C         -5.87867        4.18071        6.83310
C         -6.07158        3.28017        5.86369
C         -6.51935        1.89780        6.33978
S         -5.11073        5.57436        6.34121
C         -4.97648        4.99684        4.74676
C         -5.55921        3.70786        4.68745
C         -4.21109        5.68362        3.67037
C         -2.07899        6.28682        0.33880
S         -2.25766        5.08061       -0.84966
C         -1.31498        5.94347       -1.91632
C         -0.82785        7.09804       -1.42350
C         -1.23223        7.31768       -0.14211
C         -1.21629        6.00906       -3.30076
C         -0.64789        7.18577       -3.65725
C         -0.14379        7.96444       -2.45885
S         -2.11279        5.31163       -4.47486
C         -1.81179        6.60375       -5.53228
C         -0.95300        7.54294       -4.95616
C          1.41659        7.92540       -2.31223
C          2.00482        6.50903       -2.12088
C         -0.70055        9.44008       -2.48682
C         -2.23717        9.62425       -2.44620
C         -8.06861        1.75302        6.19983
C         -8.91307        2.74708        7.02760
C         -5.73341        0.71823        5.62912
C         -6.11953       -0.72176        6.03779
F          2.43019        2.80903       13.10151
F          1.98944        5.03191       11.50669
F         -2.41340        1.24184      -11.08361
F         -2.84042        3.30821      -12.87924
S         -3.45388        4.89219        2.37280
C         -2.84001        6.27120        1.61852
C         -3.23776        7.37040        2.39408
C         -3.97154        7.06691        3.52370
C         -3.11154        8.77730        2.02033
C         -3.37338        9.89514        2.95651
C         -4.08745        9.60511        4.10918
C         -4.51045        8.21033        4.32455
C         -3.09925       11.27219        2.78628
S         -3.78693       12.07722        4.10762
C         -4.42626       10.72630        4.89664
C         -2.39303       11.97985        1.62925
C         -0.88319       12.15366        1.79191
C         -5.24339       10.77942        6.18960
C         -4.62683       10.00510        7.34243
O         -5.46064        8.03928        5.03987
O         -3.20577        9.00236        0.84222
H         -2.59052        1.93291       -8.54196
H         -3.44320        5.62342      -11.79178
H         -2.49933        7.90730       -7.11267
H         -0.49571        5.31876       10.68697
H          0.29702        1.35411       13.60808
H         -4.61510        0.68793       11.31273
H         -5.56816        0.38969        8.63740
H         -5.61481        2.98756        3.92782
H         -0.96184        8.24162        0.31295
H         -0.69764        8.48139       -5.41942
H          1.88771        8.37415       -3.21108
H          1.73570        8.52291       -1.42630
H          1.67425        5.81746       -2.92519
H          3.11197        6.53809       -2.10093
H          1.71659        6.08894       -1.13799
H         -0.29380       10.01475       -1.62596
H         -0.34062        9.93351       -3.41237
H         -2.64867        9.42990       -1.44912
H         -2.50462       10.68575       -2.62728
H         -2.78302        8.98311       -3.16585
H         -8.35239        1.87793        5.13348
H         -8.38987        0.73834        6.51978
H         -8.57168        3.80207        6.91282
H         -9.97962        2.68753        6.76230
H         -8.94472        2.44550        8.08877
H         -5.89517        0.76152        4.52530
H         -4.64473        0.79862        5.81347
H         -7.11767       -0.99432        5.69285
H         -5.46800       -1.43836        5.49901
H         -6.10720       -0.93589        7.12264
H         -2.54657       11.42461        0.69005
H         -2.79679       13.00457        1.53020
H         -0.43060       11.15961        1.73382
H         -0.38288       12.66193        0.95057
H         -0.63210       12.77959        2.67022
H         -5.35942       11.82793        6.54670
H         -6.25167       10.34102        6.02698
H         -3.62765       10.37577        7.65001
H         -5.24782       10.12048        8.25056
H         -4.62400        8.93699        7.06436
