132
BDSeThCl.sdf
C         -0.97362       -0.79955        0.07786
C         -1.01646        0.51892        0.55881
C          0.13841        1.02300        1.18875
C          1.32595        0.26482        1.10588
C          1.40556       -0.93360        0.38049
C          0.19855       -1.52712       -0.00710
Se         2.85114        0.71195        1.96527
C          3.44954       -0.85896        1.27765
C          2.72145       -1.44236        0.28303
C          4.03315       -2.02241        1.95072
C          3.50406       -3.08528        1.25659
C          3.48286       -2.70946       -0.19217
C          2.86934       -3.71290       -1.21202
C          5.08295       -2.40643       -0.55989
C          2.23325       -3.34020       -2.41294
C          1.70120       -4.29643       -3.27806
C          1.94381       -5.65920       -3.05565
C          2.65168       -6.04612       -1.93674
C          3.00225       -5.10122       -0.99186
C          5.99869       -3.39290       -1.06414
C          7.37428       -3.23364       -1.10613
C          7.97627       -2.08162       -0.65971
C          7.16558       -1.02712       -0.26021
C          5.76919       -1.16956       -0.23549
C          1.36432       -6.71934       -3.93116
C          2.52997       -7.48569       -4.53432
C          9.47743       -2.02270       -0.61074
C          9.99167       -0.88779       -1.50689
S          3.94130       -2.22758        3.56090
C          2.93699       -3.56309        3.43409
C          2.72055       -3.90295        2.09881
C          2.25556       -4.02222        4.62136
C          1.87854       -5.27967        4.93495
C          1.91451       -6.51177        4.08664
C          1.46664       -7.60299        4.90504
C          1.18184       -7.19843        6.16396
C          1.42681       -5.74004        6.31155
O          2.18574       -6.62346        2.90416
C          1.34518       -5.03125        7.49620
C          0.91545       -5.66946        8.77919
C          1.66239       -3.59578        7.52089
N          0.57773       -6.17367        9.78449
N          1.92330       -2.46085        7.48798
Se        -2.49748       -1.51001       -0.52740
C         -2.99823        0.20108       -0.40302
C         -2.25096        1.13551        0.22108
C         -4.24152        0.69028       -0.66822
C         -4.42742        1.97615       -0.33621
C         -2.98302        2.56582        0.20639
C         -3.38461        3.04273        1.59947
C         -1.87499        3.58130       -0.48419
C         -3.30299        2.18711        2.71414
C         -3.95872        2.51194        3.89733
C         -4.67775        3.71125        4.00524
C         -4.67412        4.61734        2.94945
C         -4.05886        4.27676        1.75460
C         -0.97979        4.50641        0.17597
C          0.14326        5.10112       -0.48427
C          0.44090        4.80008       -1.82159
C         -0.45513        4.00806       -2.51087
C         -1.56910        3.45225       -1.87716
C         -5.56095        3.96666        5.18559
C         -5.04209        5.22426        5.88763
C          1.68724        5.30290       -2.53966
C          2.52855        4.13515       -3.01664
S         -5.56350       -0.22314       -0.93901
C         -6.67294        0.90409       -0.46997
C         -5.90576        2.15553       -0.26010
C         -8.14247        0.39845       -0.26461
C         -9.27701        1.13149        0.12740
C         -9.38265        2.62600        0.32754
C        -10.68199        2.95572        0.83440
C        -11.49128        1.88916        0.90266
C        -10.73465        0.66647        0.42926
O         -8.60195        3.50221        0.01433
C        -11.30264       -0.56661        0.36442
C        -12.70235       -0.76258        0.68360
C        -10.57892       -1.74966        0.01697
N        -13.82532       -0.86595        0.94795
N        -10.05921       -2.74537       -0.25415
S        -11.40120        4.38197        1.34761
C        -12.85556        3.60462        1.71236
C        -12.76902        2.23580        1.41258
Cl       -14.24955        4.43411        2.38447
S          1.21861       -9.24534        4.67953
C          0.72899       -9.45718        6.29259
C          0.76514       -8.24556        6.98911
Cl         0.24710      -10.99267        6.98335
H          0.16467        1.97268        1.69720
H          0.09927       -2.53833       -0.35837
H          2.11851       -2.32634       -2.70628
H          1.11229       -3.97225       -4.12785
H          2.87474       -7.08810       -1.75142
H          3.38537       -5.51190       -0.08728
H          5.80418       -4.35464       -1.42281
H          7.98647       -4.05679       -1.45656
H          7.61224       -0.09880        0.07807
H          5.30737       -0.27314        0.11975
H          0.65247       -7.36672       -3.36447
H          0.79994       -6.25654       -4.77320
H          3.13295       -7.96864       -3.73279
H          2.18161       -8.24146       -5.24547
H          3.19341       -6.76406       -5.07615
H          9.79941       -1.84966        0.43847
H          9.91790       -2.98048       -0.96532
H          9.60815        0.10238       -1.17672
H         11.09889       -0.84590       -1.47577
H          9.66594       -1.04867       -2.55769
H          1.91456       -4.55669        1.76529
H          2.13194       -3.20421        5.28457
H         -2.82532        1.22150        2.65824
H         -3.95424        1.79436        4.70317
H         -5.23110        5.54519        3.01368
H         -4.21424        4.96396        0.94825
H         -1.04484        4.76838        1.20581
H          0.82376        5.75596        0.05573
H         -0.28149        3.79514       -3.56060
H         -2.15859        2.86985       -2.53924
H         -6.62188        4.06171        4.87074
H         -5.48490        3.13407        5.92144
H         -5.06933        6.10459        5.20965
H         -5.63680        5.44120        6.79350
H         -3.98526        5.06940        6.20386
H          1.42105        5.99229       -3.37482
H          2.33199        5.90333       -1.85267
H          1.94109        3.51556       -3.72078
H          3.45414        4.49732       -3.51485
H          2.82020        3.52904       -2.13124
H         -6.39196        3.05771        0.08893
H         -8.28371       -0.68637       -0.45646
H        -13.60378        1.57492        1.58569
H          0.49944       -8.15832        8.02887
