92
BDTN-Th.sdf
C          1.17787        0.58544        4.11105
O          0.71193        1.63365        4.49172
C          1.07114       -0.54659        4.93282
C          1.48354       -1.66710        4.30057
C          1.94539       -1.32262        2.91994
C          2.35250       -2.25043        2.02026
C          2.44606       -3.65761        2.34558
N          2.51131       -4.77985        2.64336
C          2.64515       -1.95388        0.64269
N          2.89505       -1.79930       -0.47512
C          1.77490        0.20725        2.79361
C          2.08726        1.05425        1.73808
C         10.84029       10.12871       -1.87384
O         10.52566       11.25176       -2.22301
C         12.14795        9.44486       -2.02353
C         11.98347        8.11477       -1.75034
C         10.59419        7.87579       -1.51400
C          9.89179        7.02613       -2.30390
C         10.56835        6.41604       -3.43527
N         10.98406        5.87680       -4.37062
C          8.46173        6.80707       -2.26047
N          7.32682        6.57473       -2.30136
C         10.08326        9.18782       -1.06682
C          9.80444        9.50052        0.20627
C          1.94652        2.57864        1.69694
C          1.68749        3.41006        0.54937
C          1.70722        4.78401        0.83965
C          1.93629        5.00032        2.09461
S          2.15988        3.64436        3.00545
N          1.61320        5.96641        0.10979
C          1.89897        6.99338        1.03673
C          2.00706        6.30153        2.20650
C          2.23446        8.48344        1.27367
C          2.68611        8.48709        2.61760
S          2.34594        7.11657        3.44244
C          2.38332        9.84285        0.60130
C          3.30318       10.83318        1.22128
C          3.99716       10.38857        2.28467
C          3.62903        9.36920        3.11610
S          4.16980       12.31527        0.68419
C          5.62795       11.80331        1.32683
C          5.30636       10.78251        2.14624
C          7.03367       11.72434        1.15777
C          7.38851       10.69417        1.96252
N          6.33019        9.90518        2.19089
S          8.43737       12.07361        0.23201
C          9.38610       10.76578        0.92705
C          8.67188       10.25984        1.97485
O          1.87868       10.11809       -0.62851
O          4.32705        9.16199        4.28249
C          0.75041        9.51636       -1.16877
C         -0.26778        9.11685       -0.17619
C          4.85506       10.09285        5.19049
C          4.27500        9.90533        6.55562
C          6.19801        8.80245        1.08776
C          6.90937        7.46233        1.28776
C          1.45817        5.91381       -1.35074
C         -0.03592        5.82169       -1.77639
C          0.58734       -0.65134        6.21073
S          0.65978       -2.28628        6.57629
C          1.30741       -2.80295        5.09077
C         13.44452        9.77363       -2.34609
S         14.34919        8.32918       -2.23844
C         13.08753        7.29250       -1.81832
H          2.51250        0.61832        0.83819
H          9.96087        8.63226        0.86050
H          1.52854        3.10326       -0.45254
H          9.06302       10.67660        2.89917
H          0.18196       10.01246       -1.92237
H          1.09792        8.58209       -1.57697
H         -0.46791        9.82734        0.64763
H         -1.18953        8.78435       -0.69667
H          0.18182        8.22414        0.22008
H          5.93023       10.00757        5.25647
H          4.82557       11.12713        4.94261
H          4.56753        8.96340        6.94097
H          4.51929       10.62581        7.33195
H          3.30064        9.77180        6.49413
H          5.13003        8.44789        0.97453
H          6.53601        9.14085        0.06875
H          6.63531        7.01506        2.20849
H          6.83636        6.67870        0.53956
H          7.95799        7.48480        1.11083
H          1.87304        6.78920       -1.84940
H          2.12333        5.11366       -1.77587
H         -0.78223        6.32622       -1.13619
H         -0.13454        5.94321       -2.87104
H         -0.55301        4.90074       -1.61928
H          0.22774        0.17690        6.81119
H          1.50500       -3.83008        4.85090
H         13.80762       10.75311       -2.58829
H         13.10998        6.21971       -1.63246
