98
BDTN-BF.sdf
C          5.27677        0.67560        0.24949
O          5.00417        0.67483       -0.93936
C          6.54316        1.10043        0.84409
C          7.69036        1.53557        0.19855
C          8.76181        1.98416        0.98307
C          8.67211        1.97651        2.39045
C          7.52433        1.48790        3.02727
C          6.46212        1.06314        2.22999
C          5.19429        0.41504        2.56351
C          5.06482       -0.43042        3.61203
C          4.19546       -1.55555        3.52972
N          3.54957       -2.50729        3.59805
C          5.92788       -0.46990        4.77232
N          6.62654       -0.49001        5.69581
C          4.33468        0.53380        1.34648
F          9.70109        2.44057        3.13733
C          2.97733        0.68070        1.21897
F          9.88220        2.44453        0.37941
C          0.97459       14.17166        5.29482
O          0.07710       14.53083        6.03828
C          2.21015       14.87168        5.03809
C          2.58853       16.08055        5.56854
C          3.89952       16.50693        5.35451
C          4.80301       15.70956        4.61422
C          4.37703       14.50228        4.02322
C          3.05595       14.10338        4.24628
C          2.26988       12.94516        3.80204
C          2.33168       12.33171        2.59308
C          1.27888       11.44876        2.15404
N          0.44929       10.74410        1.76004
C          3.33148       12.70511        1.61430
N          4.14743       13.02877        0.85835
C          1.23696       12.83365        4.85143
F          6.09022       16.10861        4.48075
C          0.87718       11.74598        5.52744
F          4.30054       17.67780        5.89929
C          2.03001        0.90998        2.36369
C          2.46646        1.53208        3.52058
C          1.43772        1.92211        4.39728
C          0.22844        1.57111        3.92585
S          0.31774        0.80689        2.41436
N          1.35637        2.76409        5.49630
C         -0.01817        2.94606        5.65117
C         -0.67357        2.24951        4.68858
C         -0.84476        3.94416        6.28088
C         -1.96781        4.15701        5.47508
S         -2.21894        2.81014        4.42230
C         -0.59566        4.82858        7.32439
C         -1.11270        6.09650        7.16248
C         -2.04988        6.56549        6.20071
C         -2.58772        5.44493        5.39802
S         -0.29473        7.26490        7.92763
C         -1.06304        8.38458        7.14236
C         -2.07812        8.09072        6.28202
C         -0.74409        9.61956        7.13792
C         -1.62699       10.25074        6.42436
N         -2.56253        9.38732        5.85731
S          0.54839       10.44695        7.73147
C          0.04804       11.76185        6.79069
C         -1.30938       11.61786        6.42518
O          0.18821        4.48897        8.39528
O         -3.45157        5.54388        4.39046
C          0.12678        4.93566        9.74278
C          1.21927        4.17761       10.47605
C         -4.10009        6.65513        4.11416
C         -5.54521        6.34311        4.37138
C         -3.61170       10.07498        4.99666
C         -4.78715        9.36547        4.38994
C          2.46159        3.64972        5.97482
C          3.27271        4.17160        4.77794
H          7.74265        1.54593       -0.88127
H          7.46913        1.46696        4.10522
H          2.57687        0.82478        0.21595
H          1.88442       16.64489        6.16413
H          5.06963       13.88608        3.46164
H          1.34182       10.80315        5.21764
H          3.48564        1.74535        3.54653
H         -1.84081       12.43081        5.97119
H          0.34915        6.00806        9.89406
H         -0.87425        4.74364       10.23171
H          2.14389        4.17082        9.87104
H          1.39900        4.37331       11.56718
H          0.93539        3.14460       10.40285
H         -3.80470        7.38574        4.86384
H         -3.77883        7.02726        3.09602
H         -6.10495        6.01905        3.48571
H         -6.18072        6.19888        3.48351
H         -6.03039        6.81211        5.23471
H         -4.15434       10.80718        5.62389
H         -3.15194       10.59514        4.14788
H         -5.32780        8.95699        5.22060
H         -5.61796        9.82620        3.89687
H         -4.52592        8.81147        3.50946
H          1.99819        4.49585        6.51279
H          3.20721        3.17595        6.62374
H          2.49319        4.48968        4.08202
H          4.04015        4.96771        4.83372
H          3.91720        3.37622        4.41445
