98
BDTP-4F.sdf
C         -0.00580       -1.33141       -1.16994
C          0.48120       -0.56136       -0.04726
S         -0.95054       -0.24861        0.98432
C         -2.02883       -1.25533        0.11132
C         -1.36243       -1.58232       -1.01909
N         -2.00496       -2.48429       -1.70276
C         -3.13235       -1.69613       -2.43913
C         -2.56530       -3.22157       -0.68967
C         -2.96908       -2.37753        0.31934
C         -3.98622       -3.05379        1.08399
N         -4.91295       -2.42487        1.83911
S         -5.81824       -3.69716        2.40457
N         -5.06391       -5.07130        1.85227
C         -4.06653       -4.56456        1.09864
C         -2.91280       -5.30753        0.63824
C         -2.08657       -4.51614       -0.11869
N         -0.80566       -4.97094        0.12828
C         -0.17862       -4.04475        1.20938
C         -0.41908       -4.49362        2.63009
C         -0.89153       -6.35465        0.40637
C         -2.21385       -6.62433        0.75226
S         -2.15442       -8.32111        1.27726
C         -0.46424       -8.74977        0.96954
C          0.08743       -7.55735        0.51151
C         -2.68815       -0.56812       -3.41647
C          1.82527        1.82267        1.53114
O          1.15427        1.60578        2.52180
C          2.69800        2.97220        1.56984
C          2.29226        4.27079        1.79717
C          3.25943        5.28350        1.82109
C          4.61765        4.94605        1.71050
F          5.53745        5.94259        1.74319
C          5.01497        3.59001        1.57966
C          4.01415        2.59779        1.46273
C          3.96725        1.10250        1.39796
C          4.81712        0.29810        2.06538
C          4.36175       -1.01721        2.42649
N          4.02357       -2.07750        2.73980
C          6.04107        0.75276        2.69145
N          7.02576        1.06750        3.21642
C          2.55884        0.72737        0.99115
C          1.99104       -0.35468        0.32785
C          4.14298      -12.53115        0.91463
C          4.14409      -13.91432        1.33229
C          4.91210      -15.27294        0.94570
C          6.02811      -16.08318        1.28805
C          6.12313      -17.49941        0.87432
N          6.24411      -18.61801        0.57776
C          7.13026      -15.88750        2.20519
N          8.06477      -15.92484        2.89309
C          3.81860      -15.99844        0.27231
C          3.77372      -16.99880       -0.72770
C          2.51171      -17.41057       -1.18300
F          2.41693      -18.30198       -2.19994
C          1.34195      -16.87142       -0.61246
C          1.41816      -15.93955        0.42115
C          2.65082      -15.51411        0.82803
C          2.89265      -14.43214        1.75271
O          2.06498      -13.86751        2.43913
N          1.44200       -7.82531        0.23793
C          1.75920       -9.15353        0.54162
C          0.62975       -9.77777        0.99921
C          2.41478       -6.87279       -0.28311
C          3.04393       -6.19739        0.87725
C          3.02488       -9.97621        0.46609
C          2.92500      -11.36490        0.92091
S          1.19810      -11.41857        1.34018
C          0.74475       -2.13782       -2.29047
C          0.99974       -3.65577       -2.10625
F          2.90092        6.58722        1.95039
F          0.12589      -17.21547       -1.08611
H         -3.82756       -2.37283       -2.98167
H         -3.80698       -1.11668       -1.75413
H          0.89475       -3.92225        1.26828
H         -0.62106       -3.03028        1.25211
H          0.00263       -5.51435        2.69074
H         -0.10834       -3.93956        3.52686
H         -1.45743       -4.25083        2.82142
H         -2.19302       -0.98874       -4.31053
H         -3.57760        0.00934       -3.74480
H         -2.04270        0.19881       -2.93149
H          1.23287        4.43759        1.92536
H          6.06421        3.35167        1.55704
H          2.68817       -1.14091        0.00997
H          5.04559      -12.26257        0.36391
H          4.65534      -17.41891       -1.20394
H          0.54799      -15.48531        0.86220
H          3.21972       -7.40745       -0.81275
H          1.88533       -6.14863       -0.90327
H          3.25622       -6.97850        1.48895
H          3.70645       -5.33353        1.06607
H          2.26598       -5.96679        1.45996
H          3.97865       -9.59453        0.10164
H          0.24572       -2.03102       -3.27078
H          1.75283       -1.73237       -2.46645
H          0.20949       -4.29745       -2.54426
H          1.94215       -3.95598       -2.61909
H          1.20748       -3.92509       -1.07197
