132
BN-4F.sdf
C          6.13160        0.44065       -5.37327
O          5.74519       -0.14386       -4.37192
C          7.30047        0.05868       -6.14968
C          8.17343       -1.00903       -5.97316
C          9.06121       -1.30376       -7.02665
C          9.07104       -0.49327       -8.20251
C          8.25212        0.64304       -8.28417
C          7.36705        0.88241       -7.24356
C          6.31960        1.89674       -7.13014
C          6.34444        3.16757       -7.61432
C          5.25019        4.07686       -7.37871
N          4.35221        4.77509       -7.16764
C          7.50787        3.72508       -8.26711
N          8.41784        4.21100       -8.79297
C          5.28306        1.33467       -6.22844
C          4.38601        0.60675       -6.93551
C        -13.82447       -9.04038       -5.72143
O        -13.55555       -8.19979       -4.89492
C        -14.01988      -10.29272       -5.24946
C        -13.47660      -10.65839       -4.03185
C        -13.78026      -11.87978       -3.53748
C        -14.65686      -12.72509       -4.27426
C        -15.21311      -12.28696       -5.54568
C        -14.86135      -11.01378       -6.06007
C        -15.23652      -10.10877       -7.26793
C        -16.21816      -10.22446       -8.25974
C        -16.51101       -9.09133       -9.11792
N        -16.84251       -8.26236       -9.85714
C        -17.20210      -11.34676       -8.52392
N        -17.99844      -12.17246       -8.78875
C        -14.36413       -8.87296       -7.07202
C        -14.09188       -7.82237       -7.90716
C        -13.11196       -6.74982       -7.59390
S        -11.71066       -6.91034       -6.64236
C        -11.22498       -5.35266       -6.97415
C        -12.07399       -4.70014       -7.76895
C        -13.13023       -5.45609       -8.10736
C        -10.12804       -4.52202       -6.74545
C        -10.29534       -3.35165       -7.40860
C        -11.60878       -3.31879       -8.18212
S         -8.67720       -4.66538       -5.98322
C         -8.17677       -3.12232       -6.51377
C         -9.19694       -2.50690       -7.27538
C         -6.81037       -2.61117       -6.24750
C         -6.51445       -1.24129       -6.08943
C         -5.18713       -0.87289       -5.83115
C         -4.15132       -1.82211       -5.77512
C         -4.43305       -3.18232       -5.99101
C         -5.76482       -3.55683       -6.19865
C         -2.77977       -1.33651       -5.55184
S         -1.37934       -2.10645       -6.14413
C         -0.43705       -0.83111       -5.65945
C         -1.11583        0.15482       -5.02344
C         -2.46305       -0.11306       -4.94012
C          0.88970       -0.42823       -5.85046
C          1.06946        0.79817       -5.29577
C         -0.22329        1.33731       -4.65755
S          2.18157       -1.00685       -6.71496
C          3.06734        0.39213       -6.36133
C          2.35267        1.28668       -5.53823
O         -7.51730       -0.32058       -6.17826
C         -0.09251        1.52744       -3.10730
C         -1.32253        2.06245       -2.33746
C        -12.55324       -2.19264       -7.65174
C        -13.93083       -2.01465       -8.32071
O         -3.41212       -4.09203       -5.96939
C         -3.45649       -5.42909       -5.60376
C         -3.16745       -5.58277       -4.11048
C         -7.43832        0.99898       -6.60503
C         -8.81651        1.65626       -6.53494
C        -11.29117       -3.29423       -9.71852
C        -10.46045       -2.13288      -10.29875
C         -0.67111        2.61003       -5.45109
C          0.28673        3.81388       -5.51877
C          9.86114       -0.86366       -9.29556
C         10.64921       -2.01325       -9.22921
C         10.67803       -2.78267       -8.06035
C          9.88934       -2.42948       -6.96119
C        -14.94267      -13.97480       -3.70320
C        -14.36508      -14.35573       -2.47087
C        -13.50543      -13.49379       -1.78173
C        -13.21803      -12.25108       -2.31128
F        -14.63593      -15.57072       -1.94045
F         11.37966       -2.38708      -10.30783
F         11.45237       -3.89269       -8.00075
F        -12.94568      -13.85911       -0.60014
H          8.09863       -1.64205       -5.09659
H          8.23331        1.26235       -9.17088
H          4.74889       -0.40586       -7.14718
H        -12.82616       -9.97463       -3.47365
H        -15.89684      -12.91026       -6.09296
H        -14.51738       -7.74857       -8.89825
H        -13.78295       -5.00402       -8.74505
H         -9.12995       -1.55203       -7.76986
H         -4.93999        0.16457       -5.70551
H         -5.99282       -4.59307       -6.35998
H         -3.17744        0.56102       -4.50499
H          2.71978        2.25078       -5.21318
H          0.12656        0.53248       -2.66136
H          0.76681        2.19574       -2.89068
H         -2.23663        1.46898       -2.53866
H         -1.12300        2.07762       -1.25068
H         -1.53974        3.11854       -2.49970
H        -12.76030       -2.41581       -6.58226
H        -12.02270       -1.22046       -7.70535
H        -14.51640       -2.95078       -8.35138
H        -14.52698       -1.26504       -7.76778
H        -13.87093       -1.57761       -9.32334
H         -4.46397       -5.82657       -5.80222
H         -2.75463       -6.04750       -6.20266
H         -3.93460       -5.03735       -3.51898
H         -3.20824       -6.65768       -3.83075
H         -2.16278       -5.18522       -3.85601
H         -6.75053        1.55303       -5.94555
H         -7.02606        1.08956       -7.63250
H         -9.18945        1.63882       -5.48827
H         -8.74571        2.71463       -6.86688
H         -9.54230        1.12608       -7.18727
H        -10.77304       -4.23888       -9.99777
H        -12.25752       -3.26574      -10.26038
H         -9.40419       -2.16234      -10.00998
H        -10.41011       -2.22552      -11.40021
H        -10.89003       -1.14596      -10.06902
H         -0.89841        2.32116       -6.50097
H         -1.60441        2.98962       -4.98951
H          1.14273        3.64145       -6.17393
H         -0.19319        4.65319       -6.04900
H          0.60941        4.16755       -4.52048
H          9.83943       -0.28208      -10.21058
H          9.90123       -3.05016       -6.07364
H        -15.60172      -14.66021       -4.20866
H        -12.55076      -11.58046       -1.76929
