104
BT2b.sdf
C          3.03569        0.83858       -0.16564
C          3.03154       -0.55000       -0.32729
C          1.81904       -1.25842       -0.34333
C          0.65124       -0.49672       -0.20000
C          0.67208        0.89954       -0.06221
C          1.87724        1.59916       -0.03554
C         -0.73104       -0.89495       -0.16451
C         -1.52098        0.19657       -0.04258
C         -0.73092        1.46776        0.05271
C          4.39505        1.26303       -0.15515
C          5.23130        0.21694       -0.31445
C          4.46012       -1.07891       -0.45983
S         -1.64413       -2.29582       -0.21629
C         -3.13050       -1.44374       -0.12309
C         -2.87734       -0.06825       -0.02689
S          5.21091        2.69339        0.03316
C          6.75044        1.95831       -0.09333
C          6.58170        0.56820       -0.29458
C         -0.96237        2.17949        1.41355
C         -1.08017        2.43062       -1.11255
C         -0.85148        1.83947       -2.50910
C         -0.58978        1.33640        2.64073
C          4.70814       -1.74081       -1.84162
C          4.81272       -2.08377        0.66805
C          4.36448       -0.84846       -3.04070
C          4.56826       -1.55611        2.08599
C          8.02303        2.72914        0.03493
C         -4.47265       -2.07431       -0.11969
C          7.95254        4.10327        0.34012
C          9.09704        4.88442        0.50444
C         10.38616        4.34009        0.36830
C         10.47854        2.97657        0.03483
C          9.30708        2.16992       -0.12196
C         -4.60206       -3.41588        0.26601
C         -5.85099       -4.04509        0.31696
C         -7.03982       -3.36920       -0.03691
C         -6.91226       -2.02817       -0.45231
C         -5.64108       -1.38185       -0.48710
N         11.66173        2.33011       -0.13553
S         11.18649        0.78773       -0.47789
N          9.53906        0.86744       -0.42452
N         -7.96493       -1.26188       -0.84662
S         -7.25208        0.17512       -1.22977
N         -5.65539       -0.09485       -0.92179
C         11.63524        5.14572        0.53347
C         -8.41325       -3.97724       -0.00480
C         11.79411        6.29733        1.22961
S         10.55781        7.13952        2.23821
C         11.84172        8.31142        2.67192
N         13.05766        8.10115        2.11147
C         13.07653        7.00770        1.31150
O         11.62004        9.24486        3.42872
C         14.21010        8.96919        2.33041
C         15.35523        8.22956        3.02185
O         14.07679        6.65640        0.70035
C         -8.80996       -5.21640        0.37528
S         -7.79400       -6.57360        0.98427
C         -9.29943       -7.53496        1.10922
N        -10.43932       -6.90560        0.73588
C        -10.22179       -5.63196        0.33718
O         -9.28475       -8.69105        1.50354
C        -11.75674       -7.53113        0.77200
C        -12.34961       -7.65727       -0.63119
O        -11.12835       -4.89072       -0.01689
H          1.78791       -2.33392       -0.45759
H          1.91043        2.67420        0.08294
H         -3.61345        0.71342        0.07379
H          7.36335       -0.16579       -0.40003
H         -0.35708        3.11119        1.44914
H         -2.03440        2.46430        1.49614
H         -2.15074        2.72185       -1.02857
H         -0.46693        3.35351       -1.02686
H         -1.45715        0.92114       -2.65794
H         -1.15120        2.58296       -3.27693
H          0.22148        1.59697       -2.65961
H          0.49299        1.08920        2.63260
H         -0.80233        1.91486        3.56426
H         -1.17760        0.39562        2.67262
H          5.77910       -2.03073       -1.91978
H          4.09562       -2.66569       -1.91983
H          4.20448       -3.00585        0.53919
H          5.88490       -2.36654        0.58012
H          4.97563        0.07798       -3.03359
H          4.57516       -1.39872       -3.98187
H          3.28801       -0.57627       -3.03308
H          5.17832       -0.65022        2.28227
H          3.49488       -1.31463        2.23525
H          4.85242       -2.33734        2.82197
H          7.00164        4.60302        0.46310
H          8.93354        5.92456        0.71180
H         -3.73123       -3.98840        0.56006
H         -5.83264       -5.06122        0.64133
H         12.52510        4.73834        0.06169
H         -9.21296       -3.32006       -0.33352
H         14.55605        9.37699        1.35649
H         13.93739        9.83280        2.97593
H         15.72774        7.38912        2.40251
H         16.19830        8.93228        3.18840
H         15.01670        7.83571        4.00331
H        -11.69474       -8.55624        1.19675
H        -12.43460       -6.93831        1.42318
H        -11.67099       -8.25556       -1.27589
H        -13.33261       -8.16903       -0.57281
H        -12.50543       -6.66330       -1.09714
