152
BT3.sdf
C          2.88726       -1.26649       -0.20816
C          2.72907       -0.82632        1.11260
C          1.83802        0.21239        1.48820
C          0.90928        0.67871        0.49031
C          0.84665       -0.12250       -0.62152
C          1.80384       -0.98413       -1.05060
C          4.04740       -2.29236       -0.35344
C          3.97580       -2.75513        1.08617
C          3.35304       -1.87066        1.90706
C          4.36538       -3.93022        1.70868
C          3.92069       -4.03908        3.02919
S          3.13490       -2.56852        3.44002
C         -0.30698        1.67811        0.34143
C         -1.25239        0.61903       -0.16751
C         -0.54226       -0.24987       -0.91905
C         -2.57583        0.22803        0.01381
C         -2.83575       -1.02291       -0.57961
S         -1.42125       -1.60961       -1.32816
C          4.06187       -5.30231        3.83669
C         -4.10929       -1.77553       -0.49625
C         -0.68632        2.43512        1.65638
C         -0.09606        2.65866       -0.94325
C          3.77201       -3.40391       -1.43110
C          5.42804       -1.54457       -0.50906
C          4.17162       -5.33767        5.23785
C          4.32425       -6.54859        5.97574
C          4.34220       -7.82600        5.36414
C          4.19806       -7.76058        3.92354
C          4.08086       -6.53354        3.18782
C         -5.32814       -1.12059       -0.36994
C         -6.52749       -1.84016       -0.28956
C         -6.61134       -3.26741       -0.32531
C         -5.34929       -3.89681       -0.43645
C         -4.13157       -3.16671       -0.53230
N          4.19520       -8.84927        3.12173
S          4.03521       -8.26215        1.58002
N          3.96081       -6.65407        1.83425
N         -5.15763       -5.22113       -0.39231
S         -3.55456       -5.44743       -0.59198
N         -3.00047       -3.91150       -0.61817
C          4.47470       -9.17925        6.18424
C          5.09995       -9.52072        7.41440
C         -7.97860       -3.99514       -0.21665
C         -8.39748       -5.23255       -0.70680
C         -7.73178       -6.21216       -1.47737
N         -8.38922       -7.34359       -1.85494
C         -9.67643       -7.33702       -1.40340
S         -9.95036       -5.88912       -0.50980
C          5.88839       -8.76692        8.32725
N          6.34669       -9.35465        9.51050
C          5.97381      -10.68068        9.56550
S          5.09794      -11.06345        8.12638
C          7.17061       -8.49768       10.44690
O          6.19532       -7.62957        8.08429
C          6.22410      -11.59804       10.55234
C          5.95008      -12.99408       10.35980
C          6.77886      -11.39193       11.87260
C          4.16501       -3.23522       -2.77445
C          3.93612       -4.16457       -3.74587
C          3.28734       -5.35425       -3.47128
C          2.87971       -5.59096       -2.15773
C          3.11750       -4.63539       -1.16145
C          6.64857       -2.09931       -0.03410
C          7.87230       -1.41617       -0.16319
C          7.93004       -0.14616       -0.75563
C          6.74246        0.42164       -1.22165
C          5.52514       -0.26371       -1.11868
C          0.30206        2.73887        2.61180
C          0.07368        3.47571        3.74864
C         -1.19228        3.93393        4.04051
C         -2.24445        3.60350        3.16062
C         -1.99235        2.88190        1.97168
C          1.04201        2.55743       -1.81596
C          1.21993        3.37648       -2.94383
C          0.28405        4.36014       -3.27387
C         -0.84658        4.47777       -2.47768
C         -1.05033        3.64472       -1.36576
O         -6.61213       -6.10789       -1.85046
C         -7.59225       -8.35814       -2.61870
C        -10.60345       -8.30125       -1.62234
C        -11.92980       -8.21424       -1.07882
C        -10.40455       -9.46925       -2.44120
N          5.76810      -14.13320       10.28701
N          7.21364      -11.35819       12.94693
N        -10.28819      -10.42050       -3.09122
N        -13.00921       -8.20886       -0.66451
C         -1.35727        4.72981        5.30709
C          0.46331        5.30406       -4.44347
C          9.24251        0.60059       -0.89983
C          3.03308       -6.33076       -4.58231
C          3.56248       -5.80668       -5.92295
C          9.57347        0.90410       -2.36474
C         -2.47419        5.75807        5.20068
C          0.56186        4.57708       -5.78110
C         -7.01842       -7.81171       -3.94941
C          8.60566       -8.97920       10.67342
H          1.83053        0.50328        2.52521
H          1.54357       -1.41377       -1.98023
H          4.90797       -4.69933        1.20481
H         -3.27674        0.77695        0.60613
H          4.17447       -4.41220        5.78008
H          4.40264       -6.44270        7.04174
H         -5.38233       -0.03648       -0.35898
H         -7.35965       -1.19263       -0.22059
H          3.95926      -10.02837        5.71022
H         -8.74990       -3.43122        0.32731
H          7.30723       -7.46376       10.01835
H          6.69096       -8.35601       11.42949
H          4.67197       -2.41393       -3.18260
H          4.28738       -3.90787       -4.73164
H          2.36625       -6.50196       -1.88458
H          2.75302       -4.91726       -0.20527
H          6.68584       -3.06723        0.43990
H          8.77742       -1.88801        0.20024
H          6.75449        1.40240       -1.68132
H          4.67543        0.23972       -1.54400
H          1.30156        2.44944        2.53843
H          0.91762        3.68044        4.39861
H         -3.25435        3.90822        3.38506
H         -2.82376        2.67827        1.32278
H          1.83321        1.84229       -1.68263
H          2.10654        3.23569       -3.54741
H         -1.58669        5.23503       -2.71560
H         -1.98297        3.84670       -0.88331
H         -6.72269       -8.68113       -2.00302
H         -8.11181       -9.28200       -2.82179
H         -1.53729        4.02979        6.15124
H         -0.40492        5.27390        5.52691
H         -0.40065        6.00617       -4.49878
H          1.37640        5.91349       -4.27968
H          9.19101        1.56367       -0.34627
H         10.07360        0.00240       -0.46794
H          3.51651       -7.29646       -4.33731
H          1.94274       -6.49188       -4.68453
H          4.66884       -5.65103       -5.85350
H          3.34569       -6.51158       -6.72319
H          3.07253       -4.82641       -6.16366
H          8.79007        1.54561       -2.82187
H         10.53923        1.44968       -2.42948
H          9.66102       -0.03553       -2.94908
H         -3.43900        5.25046        5.00618
H         -2.55798        6.31488        6.15179
H         -2.26853        6.48216        4.38278
H         -0.36239        3.98936       -5.96795
H          0.69117        5.31882       -6.59797
H          1.44191        3.90429       -5.79656
H         -6.30480       -6.96355       -3.84184
H         -6.42745       -8.60718       -4.44448
H         -7.83909       -7.48211       -4.60992
H          9.10099       -9.10509        9.69813
H          9.23287       -8.26496       11.25733
H          8.62923       -9.89552       11.27309
