158
BTA1.sdf
C          2.76338       -1.54650       -0.70180
C          2.86929       -0.91273        0.54595
C          2.01206        0.10990        0.96459
C          0.96680        0.45428        0.09521
C          0.81802       -0.23660       -1.11612
C          1.71163       -1.21522       -1.56516
C          3.86111       -2.60162       -0.89494
C          4.47660       -2.51600        0.48526
C          3.93007       -1.55736        1.25475
C          5.45581       -3.26936        1.12315
C          5.61484       -2.88362        2.46846
S          4.58222       -1.55621        2.79586
C         -0.13241        1.51394        0.29085
C         -1.01699        1.07817       -0.86879
C         -0.42495        0.17641       -1.67917
C         -2.32685        1.37401       -1.23733
C         -2.71863        0.65502       -2.37518
S         -1.41841       -0.29756       -2.93955
C          6.46576       -3.56268        3.48591
C         -4.08321        0.61663       -2.94438
C         -0.81352        1.37576        1.65983
C          0.38327        2.94545       -0.00573
C          3.22989       -3.97765       -1.18887
C          4.93907       -2.17337       -1.91379
C          6.54947       -3.08185        4.81813
C          7.34027       -3.74488        5.79010
C          8.07251       -4.90172        5.45153
C          7.96509       -5.35836        4.14317
C          7.19471       -4.72989        3.20831
C         -4.30572        0.24897       -4.28885
C         -5.61470        0.18389       -4.81803
C         -6.74594        0.43070       -4.00961
C         -6.48974        0.80110       -2.67530
C         -5.21908        0.89389       -2.17396
N          8.52908       -6.44171        3.58288
N          8.08113       -6.45537        2.33242
N          7.27584       -5.43281        2.06807
N         -7.34744        1.12772       -1.69351
N         -6.60180        1.36489       -0.62211
N         -5.30438        1.22672       -0.87163
C          8.97352       -5.56943        6.40789
C          8.61230       -6.38930        7.41159
C         -8.10290        0.35361       -4.62268
C         -9.27049        0.00643       -4.03746
C         -7.15210        1.57187        0.71234
C          8.40800       -7.48794        1.35938
C         -9.50068       -0.54268       -2.68944
N        -10.78264       -0.46204       -2.28039
C        -11.62458        0.05307       -3.30681
S        -10.82678        0.23802       -4.90728
C          7.25967       -6.84967        7.76667
N          7.21668       -7.75321        8.78172
C          8.54347       -8.00423        9.28267
S          9.86447       -7.12139        8.45576
C          5.92571       -8.33466        9.19518
O          6.25483       -6.48658        7.17062
S          8.87720       -8.88043       10.37258
C          2.82724       -4.29555       -2.50452
C          2.30923       -5.55594       -2.81703
C          2.14787       -6.52637       -1.81781
C          2.49990       -6.20681       -0.49927
C          3.04038       -4.95736       -0.18911
C          5.25886       -0.80712       -2.08205
C          6.23241       -0.39942       -2.99862
C          6.92635       -1.34300       -3.76841
C          6.63093       -2.70394       -3.60107
C          5.65787       -3.11429       -2.68416
C         -0.28777        2.06610        2.77214
C         -0.88558        1.96560        4.03289
C         -2.01978        1.16223        4.22183
C         -2.54119        0.45773        3.12682
C         -1.94985        0.56273        1.86435
C         -0.50343        3.97003       -0.40437
C         -0.03143        5.23406       -0.77640
C          1.33863        5.52873       -0.72841
C          2.22648        4.53844       -0.29307
C          1.76077        3.26750        0.05201
O         -8.62477       -1.02870       -1.99076
C        -11.20470       -0.79318       -0.92392
C         -2.65554        1.04094        5.58759
C          1.86057        6.87733       -1.16929
C          7.96967       -0.89696       -4.76648
C          1.59805       -7.89214       -2.15548
C          2.58532       -9.00600       -1.80059
C          9.35537       -1.44333       -4.42747
C         -4.10266        1.53317        5.59713
C          1.26737        8.02811       -0.36159
S        -13.04732        0.21704       -3.16299
C          5.93998       -9.36487       10.32819
C        -11.34179        0.48983       -0.10622
C         -7.42251        0.22156        1.37647
C          9.10437       -6.87537        0.15223
H          2.12975        0.58384        1.93006
H          1.56032       -1.72455       -2.50473
H          5.95060       -4.08508        0.62247
H         -2.96489        2.03756       -0.67327
H          6.01045       -2.19219        5.11518
H          7.39630       -3.34072        6.79311
H         -3.47070        0.02427       -4.93887
H         -5.74296       -0.08709       -5.85896
H         10.03410       -5.40228        6.24875
H         -8.15343        0.64830       -5.66730
H         -6.43326        2.14290        1.33575
H         -8.09903        2.14733        0.64047
H          9.07266       -8.24893        1.82286
H          7.47154       -7.99112        1.03135
H          5.24896       -7.51133        9.50824
H          5.47286       -8.83902        8.31314
H          2.94741       -3.57631       -3.30505
H          2.04068       -5.77384       -3.84367
H          2.36796       -6.93069        0.29440
H          3.29958       -4.77282        0.84227
H          4.75184       -0.04254       -1.50865
H          6.44310        0.65744       -3.10532
H          7.15424       -3.45217       -4.18226
H          5.47745       -4.17516       -2.58389
H          0.58743        2.69449        2.66888
H         -0.45830        2.51570        4.86279
H         -3.40733       -0.18007        3.24898
H         -2.38640       -0.00806        1.05806
H         -1.56385        3.79537       -0.47093
H         -0.73900        5.97885       -1.11734
H          3.29020        4.73796       -0.24232
H          2.50170        2.54699        0.35504
H        -12.14774       -1.37983       -0.94072
H        -10.44076       -1.41746       -0.41148
H         -2.62828       -0.02314        5.90601
H         -2.08753        1.63570        6.33628
H          2.96790        6.91722       -1.06919
H          1.61402        7.02527       -2.24304
H          7.67475       -1.24031       -5.78136
H          8.03708        0.21271       -4.78907
H          0.65015       -8.05377       -1.60013
H          1.37651       -7.96278       -3.24316
H          2.79302       -9.01995       -0.70992
H          2.15244       -9.98999       -2.07867
H          3.54133       -8.86841       -2.34917
H          9.36018       -2.55315       -4.44168
H         10.08941       -1.08378       -5.17956
H          9.67243       -1.08924       -3.42351
H         -4.73049        0.93979        4.90001
H         -4.52351        1.42295        6.61937
H         -4.14825        2.60449        5.30798
H          1.51035        7.91029        0.71483
H          1.69285        8.98812       -0.72404
H          0.16567        8.07115       -0.48899
H          6.30889       -8.91057       11.27159
H          4.90470       -9.71919       10.51595
H          6.54507      -10.25390       10.04948
H        -12.09548        1.17087       -0.55061
H        -11.63655        0.24962        0.93587
H        -10.36118        1.01518       -0.08169
H         -6.47501       -0.35196        1.47705
H         -7.85175        0.37418        2.38933
H         -8.13974       -0.37514        0.77324
H         10.04257       -6.37591        0.47313
H          9.34769       -7.67047       -0.58287
H          8.44130       -6.12882       -0.33523
