158
BTA2.sdf
C          2.73078       -1.46456       -0.55685
C          2.79192       -0.83457        0.69148
C          1.89339        0.15681        1.09731
C          0.85749        0.47054        0.20584
C          0.74333       -0.23261       -1.00263
C          1.67170       -1.18471       -1.42983
C          3.90021       -2.43751       -0.75617
C          4.45010       -2.40021        0.65809
C          3.85365       -1.45340        1.41602
C          5.39865       -3.14454        1.34559
C          5.51398       -2.73448        2.68867
S          4.44685       -1.43045        2.97709
C         -0.25447        1.51953        0.36161
C         -1.10028        1.07773       -0.81934
C         -0.48624        0.16675       -1.60137
C         -2.38182        1.40173       -1.24815
C         -2.72998        0.70632       -2.41183
S         -1.42729       -0.28241       -2.90952
C          6.37182       -3.36188        3.72864
C         -4.04067        0.77511       -3.09049
C         -0.97551        1.37926        1.70727
C          0.25163        2.95627        0.06200
C          3.39720       -3.83501       -1.14267
C          4.97360       -1.86145       -1.71591
C          6.44857       -2.81335        5.03168
C          7.25058       -3.41255        6.02902
C          8.00778       -4.57540        5.76216
C          7.87344       -5.11432        4.47875
C          7.10786       -4.53294        3.50990
C         -4.17571        0.39115       -4.43716
C         -5.42114        0.46591       -5.09181
C         -6.59028        0.89072       -4.41186
C         -6.41617        1.26960       -3.07397
C         -5.20489        1.21434       -2.44668
N          8.44564       -6.21974        3.96615
N          8.00759       -6.29003        2.71060
N          7.19843       -5.28615        2.40228
N         -7.33126        1.70828       -2.18716
N         -6.66356        1.89375       -1.05164
N         -5.37261        1.60329       -1.17411
C          8.87069       -5.28172        6.75174
C          9.55155       -4.79118        7.81353
C         -7.93299        1.01519       -5.04778
C         -8.44249        0.37359       -6.12595
C         -7.29518        2.34862        0.18925
C          8.35111       -7.33803        1.75089
C         -7.89284       -0.73649       -6.93641
N         -8.62932       -1.02699       -8.03019
C         -9.75217       -0.27740       -8.12362
S        -10.05253        0.85869       -6.76617
C          9.73773       -3.39991        8.27537
N         10.51462       -3.29131        9.37736
C         10.97829       -4.48890        9.81072
S         10.48087       -5.92286        8.85642
C         10.85603       -2.01594       10.00409
O          9.30498       -2.41753        7.69745
O         11.72659       -4.59420       10.77003
C          3.79498       -4.46150       -2.34407
C          3.31041       -5.72185       -2.69616
C          2.41542       -6.39992       -1.85858
C          2.01033       -5.78950       -0.66089
C          2.49149       -4.52216       -0.30864
C          6.27796       -2.40833       -1.74370
C          7.27873       -1.86060       -2.55466
C          7.00564       -0.75300       -3.36869
C          5.71438       -0.21666       -3.37268
C          4.71519       -0.75878       -2.56333
C         -0.50269        2.09267        2.82796
C         -1.13557        1.98364        4.07046
C         -2.24809        1.14611        4.22933
C         -2.72009        0.42158        3.12677
C         -2.09518        0.53596        1.88147
C         -0.64851        3.98129       -0.30571
C         -0.19143        5.24526       -0.69477
C          1.17759        5.54092       -0.69433
C          2.08207        4.55361       -0.28619
C          1.63045        3.28134        0.07504
O         -6.89423       -1.37692       -6.65202
C         -8.25821       -2.05347       -8.99614
C         -2.92109        1.01520        5.57163
C          1.67262        6.89136       -1.15572
C          8.08662       -0.12749       -4.21440
C          1.88122       -7.75707       -2.25362
C          2.99457       -8.79384       -2.40270
C          8.46484       -1.01386       -5.39493
C         -4.00428        2.07374        5.75090
C          2.34640        7.67234       -0.03217
O        -10.54731       -0.40216       -9.04224
C         10.31805       -1.92954       11.43234
C         -8.72642       -3.42480       -8.52388
C         -6.29825        2.42876        1.34963
C          9.28987       -8.38401        2.34564
H          1.98039        0.63931        2.06181
H          1.56460       -1.70001       -2.37556
H          5.93227       -3.95646        0.88701
H         -3.02279        2.08939       -0.72186
H          5.88575       -1.92871        5.29283
H          7.22410       -2.96461        7.00795
H         -3.31303        0.06150       -5.00109
H         -5.42506        0.22669       -6.13684
H          8.99003       -6.34568        6.57184
H         -8.59135        1.74200       -4.57770
H         -7.74196        3.35146        0.02389
H         -8.10307        1.63830        0.46780
H          7.41844       -7.84042        1.41559
H          8.84004       -6.87309        0.86728
H         11.95968       -1.88673       10.00544
H         10.42089       -1.16409        9.43751
H          4.47633       -3.98492       -3.03573
H          3.63105       -6.16482       -3.63079
H          1.31438       -6.29008        0.00083
H          2.15471       -4.07500        0.61737
H          6.54093       -3.24862       -1.12244
H          8.27484       -2.28629       -2.52733
H          5.47621        0.62902       -4.00557
H          3.74713       -0.29121       -2.61653
H          0.35820        2.74353        2.74450
H         -0.75300        2.54882        4.91183
H         -3.57537       -0.23466        3.23107
H         -2.49147       -0.04914        1.06392
H         -1.70983        3.80838       -0.33718
H         -0.91076        5.99090       -1.01024
H          3.14584        4.75731       -0.27474
H          2.38291        2.56173        0.35057
H         -8.71952       -1.84477       -9.98541
H         -7.15625       -2.04912       -9.15223
H         -3.38360        0.00879        5.66839
H         -2.16716        1.10638        6.38392
H          2.39000        6.74614       -1.99352
H          0.82927        7.50632       -1.53821
H          7.73928        0.84248       -4.63174
H          8.97450        0.08263       -3.57814
H          1.16275       -8.12912       -1.49130
H          1.33786       -7.66481       -3.21882
H          3.53961       -8.91557       -1.44298
H          2.55324       -9.77185       -2.68968
H          3.71328       -8.49629       -3.19487
H          7.57789       -1.15439       -6.05047
H          9.26108       -0.51536       -5.98793
H          8.83286       -2.00359       -5.05581
H         -4.78582        1.95888        4.96918
H         -4.48055        1.95179        6.74707
H         -3.56829        3.09300        5.68647
H          3.22373        7.12275        0.36719
H          2.69336        8.65273       -0.42295
H          1.62027        7.85446        0.78824
H         10.75734       -2.71488       12.07943
H         10.57999       -0.94153       11.86598
H          9.21290       -2.03822       11.42953
H         -9.83365       -3.42735       -8.42883
H         -8.43132       -4.19586       -9.26609
H         -8.27602       -3.67665       -7.54148
H         -5.48001        3.14032        1.10946
H         -6.81626        2.77975        2.26706
H         -5.86190        1.42694        1.55310
H          8.80753       -8.87703        3.21608
H          9.51749       -9.15351        1.57960
H         10.23907       -7.90660        2.66827
