254
2T-TTC-BDTFT.mol
C        -12.10770       -4.31010       14.84990
C        -10.91900       -3.69640       14.68680
C        -10.44910       -3.73920       13.34080
C         -9.26820       -3.19010       12.80990
C         -8.33810       -2.40990       13.60320
C         -6.97340       -2.42210       13.54640
C         -6.39870       -1.48000       14.42130
F         -5.06680       -1.33640       14.54270
C         -7.28250       -0.73460       15.14310
C         -6.99830        0.35620       16.11670
C         -7.42690        1.71890       15.57000
S         -8.89560       -1.20920       14.73810
C         -9.03700       -3.40590       11.45450
S         -7.66100       -2.81990       10.56220
C         -9.93750       -4.10040       10.60960
C         -9.46620       -4.16040        9.27460
C         -8.27690       -3.51880        9.08110
C         -7.55340       -3.37130        7.86130
C         -7.92040       -3.79860        6.60250
C         -7.00040       -3.45430        5.61290
C         -5.91440       -2.75520        6.09120
C         -4.75380       -2.29160        5.40580
S         -3.24900       -2.22620        6.31040
C         -4.59190       -1.93010        4.07340
C         -3.23500       -1.64590        3.79950
C         -2.40390       -1.76420        4.89530
C         -1.04250       -1.46480        4.66580
C         -0.19140       -1.68860        5.84280
O          1.11740       -1.59140        5.65060
C          1.97790       -1.93790        6.74190
C          2.39740       -0.69940        7.51830
O         -0.69860       -1.99810        6.90310
C         -0.84910       -1.06600        3.34440
C          0.28490       -0.53100        2.66900
S          0.03590        0.25480        1.12880
C          1.60490       -0.42050        3.05570
C          2.38700        0.31600        2.16880
C          1.68880        0.78540        1.07830
S         -2.35300       -1.12480        2.41930
C         -5.57690       -1.67130        3.02030
O         -6.83290       -1.56060        3.46580
C         -7.82610       -1.18090        2.51280
C         -8.34550       -2.37310        1.72190
O         -5.25340       -1.50200        1.86520
S         -6.02860       -2.54310        7.81260
C        -11.13050       -4.63050       11.13670
C        -12.11550       -5.30750       10.31730
S        -12.55890       -4.70460        8.74120
C        -12.86440       -6.40370       10.63950
C        -13.77040       -6.74710        9.61740
F        -14.59290       -7.80710        9.71860
C        -13.74830       -5.94120        8.51870
C        -14.59300       -6.01520        7.29410
C        -15.55650       -4.83060        7.20680
C        -11.34090       -4.44770       12.50180
S        -12.73650       -4.99370       13.39260
C          2.13540        1.69330        0.07900
C          1.42590        2.18380       -0.97720
C          2.11450        3.17230       -1.72040
C          1.65020        3.89750       -2.83480
C          0.36950        3.63820       -3.45870
C         -0.49820        4.54950       -3.99240
C         -1.62280        3.93170       -4.57120
F         -2.61570        4.64170       -5.13730
C         -1.64040        2.56980       -4.50830
C         -2.65770        1.62750       -5.05020
C         -2.08790        0.80190       -6.20360
S         -0.21640        2.01380       -3.70090
C          2.50830        4.86580       -3.34540
S          2.22370        5.77930       -4.79950
C          3.78060        5.15800       -2.79580
C          4.49640        6.08920       -3.59100
C          3.82620        6.47950       -4.71490
C          4.35440        7.15410       -5.85840
C          5.49500        7.91410       -5.99980
C          5.86820        8.12360       -7.33200
C          5.02650        7.51590       -8.23830
C          5.19650        7.10980       -9.59660
S          3.77240        6.44450      -10.39170
C          6.37070        6.74940      -10.25730
C          6.10250        5.77180      -11.24720
C          4.76220        5.47540      -11.41410
C          4.50440        4.26650      -12.09510
C          3.14870        3.78200      -12.33280
O          2.24760        4.68990      -11.94040
C          0.87050        4.35010      -12.09870
C          0.38310        4.65370      -13.50770
O          2.86190        2.70790      -12.81570
C          5.68710        3.58880      -12.38000
C          5.87670        2.18120      -12.46170
S          4.62730        1.12520      -11.86320
C          7.09060        1.51530      -12.50820
C          7.05340        0.24110      -11.94600
C          5.80560       -0.08810      -11.45210
S          7.09900        4.58710      -12.01920
C          7.74190        7.16900       -9.96130
O          8.60980        6.44180      -10.68080
C          9.99210        6.75450      -10.52450
C         10.79090        5.81440      -11.40660
O          8.08480        8.05450       -9.21320
S          3.67950        6.76910       -7.40930
C          4.23830        4.44170       -1.66960
C          5.51290        4.71640       -1.03970
S          6.08140        6.35100       -0.82250
C          6.38510        3.82590       -0.47920
C          7.49440        4.46650        0.10480
F          8.48460        3.77620        0.70100
C          7.50050        5.82660        0.01690
C          8.50230        6.78730        0.55700
C          7.93250        7.58860        1.72880
C          3.39470        3.44830       -1.17930
S          3.72290        2.42800        0.19700
C          5.46080       -1.01990      -10.42760
C          6.30760       -1.59200       -9.51820
C          5.66040       -2.03290       -8.33760
C          6.25240       -2.52700       -7.15860
C          7.68340       -2.74940       -7.05480
C          8.70390       -1.91840       -7.41530
C          9.96520       -2.48630       -7.14600
F         11.11290       -1.83630       -7.42060
C          9.94050       -3.73380       -6.59880
C         11.08780       -4.58550       -6.17850
C         11.13080       -4.74930       -4.65860
S          8.29810       -4.23630       -6.38750
C          5.40630       -2.73360       -6.07660
S          5.92730       -3.14120       -4.46340
C          4.00750       -2.52030       -6.12830
C          3.41160       -2.64020       -4.85000
C          4.29530       -2.94390       -3.85490
C          4.02000       -3.10020       -2.46770
C          4.87740       -3.52270       -1.47590
C          4.27400       -3.61500       -0.22220
C          2.94370       -3.25220       -0.22300
C          1.96990       -3.39070        0.80750
S          0.29920       -3.62080        0.30730
C          2.13910       -3.54860        2.18060
C          0.92360       -3.93940        2.78800
C         -0.14400       -3.99790        1.91640
C         -1.38040       -4.36520        2.49320
C         -2.50190       -4.38060        1.55110
O         -3.69340       -4.66160        2.06710
C         -4.78820       -4.66320        1.14590
C         -5.97310       -5.33500        1.81140
O         -2.31730       -4.14830        0.37380
C         -1.23630       -4.62410        3.84980
C         -2.16050       -5.03260        4.85300
S         -3.83620       -5.40860        4.56470
C         -1.86180       -5.18100        6.19160
C         -2.95540       -5.58140        6.96990
C         -4.08460       -5.74670        6.22730
S          0.43640       -4.39080        4.37550
C          3.27990       -3.22080        3.03790
O          4.20970       -2.48070        2.42760
C          5.29950       -2.03150        3.23250
C          6.28670       -1.31280        2.33220
O          3.33370       -3.52860        4.20880
S          2.43820       -2.77650       -1.82140
C          3.39780       -2.13070       -7.33960
C          1.95940       -2.03220       -7.47360
S          0.92670       -3.21580       -6.71230
C          1.21900       -1.15460       -8.21510
C         -0.15820       -1.43910       -8.15110
F         -1.07060       -0.69650       -8.80560
C         -0.50170       -2.51740       -7.39030
C         -1.85760       -3.07140       -7.11830
C         -2.14920       -3.15250       -5.62030
C          4.25580       -1.84610       -8.39790
S          3.78680       -1.15570       -9.92740
H        -12.67350       -4.42140       15.75390
H        -10.38060       -3.23240       15.49180
H         -6.39030       -3.08800       12.93870
H         -5.92580        0.36000       16.32250
H         -7.52880        0.16040       17.05220
H         -7.20570        2.49880       16.29390
H         -8.49540        1.72440       15.36580
H         -6.89610        1.94050       14.64700
H         -9.98580       -4.66890        8.48520
H         -8.82850       -4.33960        6.40820
H         -7.11100       -3.72110        4.57940
H          1.44870       -2.63730        7.39540
H          2.83010       -2.43830        6.27620
H          1.52530       -0.22540        7.96310
H          2.88850        0.01490        6.86150
H          3.08440       -0.98420        8.30970
H          1.97860       -0.84650        3.96390
H          3.43000        0.52980        2.32090
H         -7.39770       -0.43790        1.83200
H         -8.62130       -0.72780        3.10830
H         -8.72900       -3.13660        2.39460
H         -9.14670       -2.04730        1.06470
H         -7.54650       -2.79570        1.11850
H        -12.76310       -6.97050       11.54570
H        -15.15610       -6.95050        7.32260
H        -13.95320       -6.02480        6.40760
H        -15.00200       -3.89530        7.17240
H        -16.21390       -4.81240        8.07290
H        -16.16560       -4.90890        6.31010
H          0.42460        1.85680       -1.18850
H         -0.37090        5.61500       -3.95040
H         -2.99380        0.95580       -4.25570
H         -3.51490        2.20870       -5.39630
H         -1.23090        0.22300       -5.86460
H         -1.76640        1.44940       -7.01560
H         -2.84290        0.12140       -6.58740
H          5.50460        6.39750       -3.38670
H          6.05930        8.28130       -5.16150
H          6.75130        8.65650       -7.63070
H          0.34590        4.95700      -11.35820
H          0.74080        3.28630      -11.87370
H         -0.67920        4.43930      -13.57830
H          0.55230        5.70100      -13.74690
H          0.91540        4.03480      -14.22610
H          7.98910        1.98480      -12.86900
H          7.91620       -0.39340      -11.85140
H         10.15100        7.80200      -10.80580
H         10.26340        6.64220       -9.46850
H         10.49450        5.93570      -12.44480
H         11.85010        6.03280      -11.30890
H         10.60870        4.78430      -11.11340
H          6.27330        2.75850       -0.50630
H          8.81270        7.47600       -0.23290
H          9.37700        6.22170        0.88510
H          7.63520        6.92170        2.53470
H          7.06150        8.15650        1.40900
H          8.68040        8.28000        2.10790
H          7.37120       -1.62900       -9.65830
H          8.57530       -0.92760       -7.80990
H         11.00270       -5.57060       -6.64450
H         12.01010       -4.11710       -6.52870
H         11.97510       -5.37080       -4.37260
H         11.23270       -3.78010       -4.17580
H         10.21490       -5.21770       -4.30510
H          2.36920       -2.47280       -4.65000
H          5.90350       -3.78000       -1.67220
H          4.77940       -3.97250        0.65430
H         -5.00630       -3.62370        0.87660
H         -4.48140       -5.19590        0.23910
H         -6.81300       -5.36080        1.12290
H         -6.25510       -4.78770        2.70640
H         -5.71560       -6.35080        2.09920
H         -0.88340       -4.98610        6.59180
H         -2.90740       -5.73150        8.03280
H         -5.05930       -6.04260        6.56200
H          5.76010       -2.89470        3.72700
H          4.91110       -1.36420        4.01100
H          6.67750       -1.99400        1.58140
H          7.11030       -0.92680        2.92570
H          5.79670       -0.48740        1.82260
H          1.61580       -0.31830       -8.75860
H         -1.93430       -4.07280       -7.55230
H         -2.59190       -2.43220       -7.61360
H         -3.14610       -3.55160       -5.45410
H         -1.42860       -3.80320       -5.13000
H         -2.08930       -2.16790       -5.16360
