242
P-FP.mol
F         10.00140       -1.35890        5.57690
C         10.28280       -0.32140        4.76650
C          9.59850        0.87400        5.01960
F          8.72850        0.86410        6.04730
C          9.73450        2.02150        4.24890
C          8.88750        3.16990        4.36580
C          8.89120        4.28350        3.55010
C          7.81770        5.14160        3.78140
C          6.98710        4.70410        4.79050
C          5.70850        5.22520        5.15310
C          4.86210        4.87840        6.17160
C          3.62780        5.53350        5.91580
C          2.37590        5.52210        6.55180
C          2.08460        4.77200        7.77430
C          2.59070        3.49010        7.97520
C          2.28380        2.81170        9.13680
F          2.78680        1.57090        9.30240
C          1.48460        3.34020       10.14500
C          0.98590        4.61440        9.89910
F          0.19330        5.18760       10.83050
C          1.26490        5.32960        8.75280
C          1.14790        2.56390       11.38340
C         -0.02910        1.62030       11.12510
C          1.39110        6.23860        5.88310
C          1.60050        6.95240        4.67370
C          0.30500        7.34610        4.24650
C         -0.57660        6.87030        5.17980
C         -2.00220        6.80520        5.14020
C         -2.86950        6.39230        6.12780
C         -4.17900        6.24010        5.67300
C         -4.32690        6.51400        4.32810
C         -5.47510        6.24250        3.51660
C         -6.65700        5.66080        4.04150
N         -7.02390        5.43280        5.30960
C         -5.49040        6.37560        2.13380
F         -4.45140        6.96320        1.51020
C         -6.50610        5.87060        1.31340
F         -6.33740        6.02090       -0.01390
C         -7.62380        5.19830        1.79020
C         -7.70210        5.16240        3.20520
N         -8.64680        4.65890        4.01060
N         -8.18900        4.85640        5.21480
C         -8.90660        4.41460        6.37630
C         -8.54330        2.96980        6.70660
C         -8.55240        4.50110        0.95130
C         -9.72880        3.88960        1.33610
C        -10.33190        3.15920        0.31340
C         -9.61640        3.19760       -0.86490
C         -9.83820        2.48970       -2.08170
C        -10.78890        1.57310       -2.44730
C        -10.43380        1.11650       -3.74580
C        -10.97210        0.15070       -4.61210
C        -12.20340       -0.58590       -4.32430
C        -13.29810        0.06180       -3.75650
C        -14.45140       -0.64940       -3.49480
F        -15.49380        0.01160       -2.94480
C        -14.58870       -2.00670       -3.75990
C        -13.47640       -2.61530       -4.33350
F        -13.53980       -3.93350       -4.60740
C        -12.30660       -1.94320       -4.62030
C        -15.86040       -2.75820       -3.50070
C        -16.70370       -2.83840       -4.77550
C        -10.22600       -0.05870       -5.76490
C         -9.05150        0.66550       -6.10510
C         -8.61700        0.11160       -7.33820
C         -9.51950       -0.86590       -7.66820
C         -9.55530       -1.76330       -8.77450
S        -10.81070       -2.94860       -8.89670
C         -8.66610       -1.85530       -9.82490
C         -8.98610       -2.87490      -10.71780
C        -10.12300       -3.57480      -10.36570
C        -10.69370       -4.68400      -11.07090
C        -10.08700       -5.24050      -12.22570
N         -8.95970       -4.89770      -12.86430
C        -11.86910       -5.32240      -10.70180
F        -12.54960       -4.88910       -9.62340
C        -12.41700       -6.41520      -11.38890
F        -13.56680       -6.91490      -10.89610
C        -11.84530       -6.98790      -12.51570
C        -10.64310       -6.35570      -12.92260
N         -9.82330       -6.62920      -13.94730
N         -8.87060       -5.74620      -13.84940
C         -7.80280       -5.67990      -14.80600
C         -8.15700       -4.71520      -15.93380
C        -12.39300       -8.11290      -13.21810
C        -11.87120       -8.72400      -14.33480
C        -12.64320       -9.80720      -14.78040
C        -13.74490      -10.01790      -14.00760
S        -13.86500       -8.89920      -12.71900
O        -10.50080       -0.96660       -6.72910
C         -8.52860        1.65110       -5.25280
C         -7.33040        2.43370       -5.56010
C         -6.40200        2.72940       -4.56440
C         -5.28200        3.47200       -4.87530
C         -5.02170        3.96780       -6.14890
C         -5.97380        3.65630       -7.11240
F         -5.79000        4.10860       -8.37260
C         -7.10560        2.91190       -6.84890
C         -3.78040        4.74940       -6.46150
C         -2.62260        3.80790       -6.80180
F         -4.39270        3.72740       -3.89520
C         -9.24150        1.81620       -4.07260
O         -8.91060        2.65480       -3.06600
S         -8.20190        4.18430       -0.72160
S         -2.82050        7.03930        3.63300
O          0.07360        6.23830        6.19900
C          2.87020        7.02970        4.07810
C          3.13290        7.80390        2.86560
C          2.51360        9.03750        2.67240
C          2.77770        9.76320        1.52930
F          2.16780       10.95810        1.37840
C          3.64870        9.33310        0.53430
C          3.88720       10.12020       -0.71970
C          2.88640        9.71380       -1.80430
C          4.24960        8.10070        0.76620
F          5.11240        7.62250       -0.15690
C          4.01790        7.34130        1.89410
C          3.84290        6.27530        4.72200
O          5.11350        6.09880        4.29110
S          7.55450        3.22340        5.48420
C         10.71620        1.90710        3.23190
N         11.15410        2.80920        2.34350
N         12.04080        2.16840        1.63580
C         12.72270        2.79460        0.53930
C         11.88290        2.70290       -0.73140
C         11.18070       -0.49390        3.72080
C         11.41770        0.69010        2.97690
N         12.24370        0.91930        1.94670
C         11.75360       -1.75500        3.35710
C         12.64620       -1.98960        2.32970
C         12.93070       -3.34030        2.14340
C         12.25810       -4.15660        3.02860
S         11.27820       -3.24210        4.12260
C         12.24620       -5.58090        3.08780
C         12.81880       -6.51810        2.26880
C         12.41170       -7.78870        2.75970
C         11.60700       -7.50660        3.89580
O         11.51130       -6.16920        4.07170
C         11.04040       -8.47370        4.71610
C         10.23130       -8.13160        5.88760
C          9.32310       -7.07710        5.83750
C          8.56610       -6.77640        6.95130
F          7.68100       -5.76390        6.86670
C          8.66780       -7.46730        8.15450
C          7.81030       -7.14100        9.34090
C          6.50750       -7.94350        9.30000
C          9.59330       -8.50440        8.16690
F          9.75240       -9.21420        9.30520
C         10.36580       -8.84590        7.07570
C         11.31310       -9.79170        4.32290
C         10.89540      -11.07010        4.80800
C         11.44720      -11.98530        3.98010
O         12.18370      -11.41650        3.00020
C         12.11010      -10.07630        3.18500
C         12.67240       -9.10750        2.35860
C         13.43030       -9.44670        1.15440
C         13.26170       -8.71100       -0.01700
C         13.96640       -9.06060       -1.15000
F         13.77710       -8.32730       -2.26880
C         14.85970      -10.12490       -1.19760
C         15.58020      -10.51100       -2.45490
C         14.74120      -11.49840       -3.26990
C         14.99370      -10.83920       -0.01160
F         15.84370      -11.88730        0.01310
C         14.30860      -10.52770        1.14470
H          9.64250        4.43450        2.79800
H          7.63080        6.04430        3.22850
H          5.10710        4.23340        6.98950
H          3.19210        3.00360        7.22520
H          0.85180        6.31760        8.63210
H          0.89090        3.25620       12.18640
H          2.01730        1.97860       11.68860
H         -0.90540        2.18350       10.81110
H         -0.27390        1.07340       12.03200
H          0.22300        0.90480       10.34580
H          0.04240        7.86080        3.34550
H         -2.54900        6.19210        7.13420
H         -5.00180        5.91050        6.27940
H         -8.63570        5.07680        7.20040
H         -9.97280        4.50010        6.15870
H         -7.47890        2.88720        6.91200
H         -8.79150        2.32070        5.87050
H         -9.09580        2.64160        7.58210
H        -10.11130        3.97030        2.33640
H        -11.24700        2.60750        0.42650
H        -11.61230        1.24570       -1.84830
H        -13.27020        1.11860       -3.54640
H        -11.48470       -2.48150       -5.06190
H        -16.42830       -2.25340       -2.71780
H        -15.61950       -3.76870       -3.16510
H        -16.15530       -3.35390       -5.56040
H        -17.62390       -3.38280       -4.57990
H        -16.95770       -1.84030       -5.12580
H         -7.74190        0.37580       -7.89330
H         -7.81670       -1.20620       -9.93340
H         -8.41970       -3.11590      -11.59760
H         -6.90840       -5.34050      -14.28000
H         -7.65030       -6.68760      -15.19610
H         -8.32760       -3.71850      -15.53470
H         -7.34240       -4.67160      -16.65080
H         -9.05700       -5.04830      -16.44470
H        -10.96350       -8.38920      -14.80010
H        -12.39330      -10.40640      -15.63760
H        -14.49910      -10.77150      -14.12100
H         -6.53770        2.38140       -3.55410
H         -7.81760        2.73580       -7.63860
H         -3.50970        5.35490       -5.59500
H         -3.97180        5.41120       -7.30750
H         -2.41000        3.15040       -5.96190
H         -2.87050        3.19830       -7.66800
H         -1.72820        4.38320       -7.02660
H          1.84950        9.44760        3.41540
H          4.90220        9.93560       -1.07560
H          3.77740       11.18450       -0.50570
H          2.98630        8.65560       -2.03500
H          3.06670       10.28560       -2.71100
H          1.86850        9.90260       -1.47110
H          4.51670        6.39280        2.00270
H         12.89360        3.83880        0.80800
H         13.67530        2.27830        0.40980
H         10.92670        3.19900       -0.58510
H         11.70330        1.66230       -0.99000
H         12.40510        3.18340       -1.55340
H         13.05560       -1.19190        1.73880
H         13.59570       -3.71590        1.38760
H         13.46150       -6.32020        1.43720
H          9.19250       -6.49610        4.93980
H          7.57890       -6.07480        9.33600
H          8.35380       -7.37940       10.25660
H          6.71780       -9.01060        9.31660
H          5.94820       -7.71220        8.39630
H          5.89180       -7.69780       10.16130
H         11.08490       -9.64350        7.16640
H         10.25620      -11.26750        5.64260
H         11.39710      -13.05700        3.97680
H         12.56260       -7.89210       -0.06230
H         16.53520      -10.97230       -2.19830
H         15.76990       -9.61790       -3.05260
H         14.54830      -12.39910       -2.69160
H         13.78880      -11.05020       -3.54420
H         15.26920      -11.77540       -4.17860
H         14.46670      -11.12220        2.02910
