272
PDBT-2Cl.mol
C         -0.04090       -3.44500        4.56680
S          0.84240       -4.44350        3.43570
C          0.46790       -5.84820        4.34540
C          0.67750       -7.23070        4.14040
C          1.32790       -7.87240        3.07740
C          1.91890       -7.08150        2.00140
C          1.27260       -6.29740        1.09040
C          2.15860       -5.57280        0.24850
Cl         1.59600       -4.47870       -0.94390
C          3.47530       -5.81300        0.50320
C          4.66470       -5.25060       -0.19590
C          5.79190       -4.89730        0.76940
S          3.63780       -6.94850        1.80120
Cl        -0.43470       -6.21420        0.94890
C          1.34940       -9.25620        3.09490
C          0.74690      -10.00840        4.13660
C          0.12710       -9.36170        5.21630
C         -0.47790      -10.13210        6.29520
C         -1.79640      -10.21630        6.63570
Cl        -3.04870       -9.39830        5.80060
C         -2.03590      -11.09890        7.72370
Cl        -3.61080      -11.40450        8.33000
C         -0.90370      -11.66950        8.22240
C         -0.77790      -12.70040        9.28850
C         -0.70630      -14.09870        8.66930
S          0.48460      -11.12300        7.34650
C          0.09210       -7.97610        5.19360
S         -0.66360       -6.95760        6.40540
C         -0.24990       -5.53240        5.49160
C         -0.53760       -4.16640        5.62750
S          2.00970      -10.25700        1.81830
C          1.43120      -11.68380        2.62810
C          0.81020      -11.39120        3.83630
S          0.19440      -12.82050        4.57980
C          0.77410      -13.79620        3.24170
C          0.52380      -15.19380        3.21160
C         -0.07680      -15.95680        4.19470
C         -0.20670      -17.28650        3.82630
C          0.28080      -17.57280        2.55770
C          0.21910      -18.85820        1.96280
S         -0.49530      -20.13680        2.91420
C          0.59990      -19.34620        0.71850
C          0.30160      -20.73490        0.53630
C          0.58840      -21.43970       -0.70320
C          1.24360      -20.63280       -1.72900
C          1.65830      -21.11070       -2.94740
C          1.49520      -22.46870       -3.52720
C          0.10300      -22.62990       -4.14480
S          2.41670      -19.85950       -3.87150
C          2.18980      -18.68850       -2.61970
C          2.63240      -17.28470       -2.82200
C          1.46160      -16.40420       -3.26910
C          1.54830      -19.24690       -1.54110
C          1.23020      -18.53670       -0.30800
O          1.48720      -17.34370       -0.15590
O          0.30370      -22.61980       -0.88470
C         -0.29910      -21.31900        1.64330
C         -0.76040      -22.63420        1.92150
C         -1.32340      -23.01300        3.12830
C         -1.70450      -24.35490        3.17240
C         -1.43290      -24.99880        1.99960
S         -0.71060      -23.98760        0.82450
S          0.93290      -16.14010        1.81380
C          1.41780      -13.03960        2.28920
C         -2.47260       10.53370       -7.82770
S         -0.77220       10.15090       -8.02220
C         -1.17770        8.71020       -8.87970
C         -0.46750        7.49770       -9.05750
C          0.88900        7.25580       -8.77830
C          1.81430        8.36610       -8.71320
C          1.90710        9.41160       -9.59610
C          2.90170       10.35750       -9.24120
Cl         3.22320       11.75430      -10.18350
C          3.55900       10.05060       -8.08630
C          4.68470       10.78230       -7.44400
C          6.03170       10.23900       -7.92760
S          2.97130        8.56240       -7.43210
Cl         0.97710        9.55020      -11.02830
C          1.22080        5.94460       -8.46530
C          0.26980        4.89710       -8.53590
C         -0.99820        5.10950       -9.11070
C         -1.87010        3.98140       -9.35570
C         -1.52020        2.77730       -9.91110
Cl         0.03920        2.41130      -10.51810
C         -2.60190        1.86480       -9.99720
Cl        -2.43100        0.29060      -10.65630
C         -3.77650        2.36320       -9.51600
C         -5.08810        1.67000       -9.39550
C         -5.18200        0.91260       -8.06850
S         -3.55820        3.97950       -8.94300
C         -1.36670        6.43520       -9.31080
S         -3.00210        7.00860       -9.61480
C         -2.54730        8.60220       -9.06510
C         -3.28570        9.65440       -8.50380
S          2.71510        5.45260       -7.68850
C          1.94810        3.97970       -7.17100
C          0.70690        3.79310       -7.75670
S         -0.13230        2.47280       -7.01890
C          1.16590        2.27110       -5.85430
C          0.92100        1.58790       -4.60230
C          0.90690        0.27050       -4.23170
C          0.58960        0.10600       -2.88090
C          0.31800        1.29100       -2.21950
C          0.02230        1.39960       -0.83330
S          0.21750       -0.03180        0.13220
C         -0.41200        2.45440       -0.04160
C         -0.51460        2.12470        1.34900
C         -0.83660        3.14520        2.35240
C         -1.45720        4.34350        1.79050
C         -2.04140        5.33660        2.53780
C         -2.14840        5.42030        4.01650
C         -2.61490        6.78190        4.50840
S         -2.70730        6.56340        1.51380
C         -2.14400        5.77810        0.07940
C         -2.44060        6.35410       -1.25790
C         -3.62110        5.63120       -1.91280
C         -1.50240        4.60410        0.38540
C         -0.81270        3.74690       -0.57380
O         -0.60440        4.09460       -1.73200
O         -0.60270        3.02710        3.54710
C         -0.22030        0.79610        1.60590
C         -0.28550       -0.02970        2.76410
C         -0.54620        0.21130        4.09780
C         -0.51380       -0.93970        4.88970
C         -0.20900       -2.08180        4.18280
S         -0.00460       -1.72670        2.50180
S          0.47290        2.64350       -3.29430
C          2.21190        3.11650       -6.09680
C          6.56550        0.39370        5.87450
S          5.77270        0.47830        4.34350
C          4.77680        1.77480        4.90550
C          3.81500        2.63380        4.30930
C          3.26940        2.61800        3.01190
C          3.37540        1.43870        2.17590
C          3.17630        0.13510        2.55670
C          3.30400       -0.78880        1.48780
Cl         3.13150       -2.48170        1.70040
C          3.56210       -0.20180        0.28470
C          3.76230       -0.87010       -1.02970
C          5.22650       -1.27050       -1.22420
S          3.68480        1.51420        0.46570
Cl         2.71350       -0.36600        4.12840
C          2.58680        3.76450        2.61100
C          2.26430        4.80490        3.51580
C          2.66210        4.73430        4.85600
C          2.30590        5.78800        5.79920
C          3.13110        6.71390        6.36840
Cl         4.81040        6.81860        6.04310
C          2.44850        7.62060        7.22310
Cl         3.25050        8.89290        8.04720
C          1.11100        7.37770        7.31680
C          0.08310        8.16580        8.05080
C         -0.47400        9.27960        7.16050
S          0.67350        6.02080        6.33820
C          3.47270        3.66970        5.21510
S          4.21580        3.48460        6.78880
C          5.09920        2.10580        6.21240
C          6.11250        1.30580        6.77370
S          2.07950        4.12310        0.97120
C          1.44260        5.65840        1.48280
C          1.58880        5.85530        2.84780
S          0.94950        7.38070        3.33070
C          0.48560        7.73670        1.67630
C         -0.20250        8.94600        1.38060
C         -0.60140        9.93480        2.25410
C         -1.31070       10.97060        1.64680
C         -1.47500       10.80740        0.28810
C         -2.11130       11.60090       -0.71440
S         -1.85990       11.06510       -2.35150
C         -2.90370       12.74540       -0.69740
C         -3.30140       13.16830       -2.00840
C         -4.05800       14.39880       -2.26840
C         -4.30290       15.20830       -1.07670
C         -4.85070       16.46610       -1.08950
C         -5.34850       17.25930       -2.24260
C         -6.80390       16.89980       -2.55600
S         -4.97490       17.09840        0.51690
C         -4.29790       15.66560        1.21320
C         -4.16300       15.55450        2.68850
C         -5.38420       14.85200        3.28920
C         -3.98480       14.74950        0.24000
C         -3.36810       13.44930        0.50490
O         -3.26560       13.00330        1.63800
O         -4.43010       14.73380       -3.38240
C         -2.83500       12.34040       -3.01600
C         -3.03890       12.28020       -4.42980
C         -4.11550       12.60450       -5.22400
C         -4.01520       12.10980       -6.53020
C         -2.85190       11.41730       -6.76740
S         -1.84290       11.40780       -5.35240
S         -0.70930        9.31910       -0.23520
C          0.82790        6.72190        0.81220
H          5.02970       -5.98330       -0.92290
H          4.34610       -4.36360       -0.74660
H          6.12210       -5.78390        1.30560
H          5.45290       -4.16170        1.49420
H          6.63700       -4.48670        0.22270
H         -1.64390      -12.63350        9.94910
H          0.12520      -12.51460        9.87220
H         -1.60820      -14.30180        8.09720
H          0.15130      -14.17040        8.00420
H         -0.61040      -14.84960        9.44890
H         -1.11330       -3.73880        6.42680
H         -0.40550      -15.55370        5.13680
H         -0.65090      -18.03980        4.45360
H          2.25800      -22.63300       -4.29080
H          1.61120      -23.20860       -2.73300
H         -0.65580      -22.53060       -3.37340
H          0.01120      -23.61400       -4.59580
H         -0.06680      -21.87560       -4.91050
H          3.01830      -16.89670       -1.87730
H          3.42240      -17.25710       -3.57500
H          1.01900      -16.79030       -4.18500
H          0.70280      -16.37680       -2.49190
H          1.80990      -15.39080       -3.44840
H         -1.44880      -22.32770        3.94870
H         -2.15770      -24.82030        4.02940
H         -1.62380      -26.02780        1.76490
H          1.83990      -13.45650        1.39370
H          4.60540       11.84140       -7.69590
H          4.61600       10.67210       -6.36070
H          6.84510       10.77910       -7.45070
H          6.12110        9.18330       -7.68320
H          6.12010       10.35560       -9.00470
H         -5.19280        0.96680      -10.22410
H         -5.89190        2.40530       -9.45450
H         -5.07930        1.60110       -7.23330
H         -4.39240        0.16850       -8.00340
H         -6.14260        0.41020       -7.99290
H         -4.35840        9.70680       -8.49530
H          1.12980       -0.54300       -4.89900
H          0.54630       -0.85120       -2.39040
H         -2.83400        4.64010        4.36370
H         -1.17110        5.17700        4.44310
H         -2.63950        6.79420        5.59460
H         -1.93620        7.56030        4.16590
H         -3.61170        7.00780        4.13480
H         -2.67200        7.41550       -1.15550
H         -1.56240        6.23900       -1.89590
H         -3.83970        6.08190       -2.87690
H         -4.50770        5.69770       -1.28540
H         -3.37750        4.58340       -2.06840
H         -0.72570        1.19800        4.48220
H         -0.67610       -0.93560        5.95270
H          3.09560        3.15720       -5.48760
H          7.33490       -0.33960        6.01350
H          3.45490       -0.19530       -1.83020
H          3.13190       -1.76150       -1.06310
H          5.86270       -0.38900       -1.21300
H          5.54260       -1.93670       -0.42580
H          5.35090       -1.77860       -2.17670
H          0.54110        8.60330        8.93980
H         -0.72780        7.50580        8.36240
H          0.32390        9.95490        6.86260
H         -0.92420        8.85620        6.26610
H         -1.22860        9.84700        7.69820
H          6.48290        1.41080        7.77620
H         -0.38180        9.89800        3.30680
H         -1.71100       11.80900        2.18310
H         -5.27450       18.32440       -2.01380
H         -4.73610       17.03200       -3.11710
H         -7.16430       17.50450       -3.38340
H         -7.43770       17.07680       -1.68940
H         -6.87150       15.85200       -2.83620
H         -4.06080       16.55130        3.12230
H         -3.27350       14.96570        2.91980
H         -5.45020       13.83850        2.90300
H         -6.29650       15.38900        3.03800
H         -5.29040       14.80670        4.37070
H         -4.96140       13.15590       -4.86030
H         -4.77790       12.24420       -7.27590
H          0.63970        6.75150       -0.24530
