PDBT-2F.mol
  xtb     01102217413D
 energy: -527.991434600274 gnorm: 0.000302316444 xtb: 6.4.1 (unknown)
272307  0     0  0            999 V2000
    2.7043   -2.1979   10.7678 O   0  0  0  0  0  0  0  0  0  0  0  0
    1.6028   -1.9660   10.2779 C   0  0  0  0  0  0  0  0  0  0  0  0
    0.7103   -0.9256   10.7834 C   0  0  0  0  0  0  0  0  0  0  0  0
   -0.5103   -0.5561   10.1263 C   0  0  0  0  0  0  0  0  0  0  0  0
   -1.1895    0.4379   10.7845 C   0  0  0  0  0  0  0  0  0  0  0  0
   -2.4542    1.1143   10.3982 C   0  0  0  0  0  0  0  0  0  0  0  0
   -2.1816    2.2331    9.3883 C   0  0  0  0  0  0  0  0  0  0  0  0
    0.9366   -0.2062   11.9308 C   0  0  0  0  0  0  0  0  0  0  0  0
   -0.3410    0.9261   12.2119 S   0  0  0  0  0  0  0  0  0  0  0  0
    2.0950   -0.2691   12.8588 C   0  0  0  0  0  0  0  0  0  0  0  0
    3.2517    0.5890   12.3377 C   0  0  0  0  0  0  0  0  0  0  0  0
    1.0755   -2.7004    9.1394 C   0  0  0  0  0  0  0  0  0  0  0  0
    1.6937   -3.7952    8.5519 C   0  0  0  0  0  0  0  0  0  0  0  0
    3.0217   -4.2872    8.6673 C   0  0  0  0  0  0  0  0  0  0  0  0
    4.3128   -3.2743    9.2501 S   0  0  0  0  0  0  0  0  0  0  0  0
    3.5266   -5.4019    8.0181 C   0  0  0  0  0  0  0  0  0  0  0  0
    4.9103   -5.3943    7.8892 C   0  0  0  0  0  0  0  0  0  0  0  0
    5.4873   -4.2532    8.4145 C   0  0  0  0  0  0  0  0  0  0  0  0
    6.7577   -3.7055    8.0886 C   0  0  0  0  0  0  0  0  0  0  0  0
    7.1614   -2.4077    8.3153 C   0  0  0  0  0  0  0  0  0  0  0  0
    8.2186   -2.0383    7.4803 C   0  0  0  0  0  0  0  0  0  0  0  0
    8.6693   -3.0517    6.6444 C   0  0  0  0  0  0  0  0  0  0  0  0
    7.7956   -4.5173    6.9243 S   0  0  0  0  0  0  0  0  0  0  0  0
    9.4949   -2.5998    5.5849 C   0  0  0  0  0  0  0  0  0  0  0  0
   10.0121   -3.3302    4.5032 C   0  0  0  0  0  0  0  0  0  0  0  0
    9.9718   -4.7845    4.5226 C   0  0  0  0  0  0  0  0  0  0  0  0
    9.3800   -5.6445    3.6423 C   0  0  0  0  0  0  0  0  0  0  0  0
    9.5212   -7.0059    4.0079 C   0  0  0  0  0  0  0  0  0  0  0  0
    9.0027   -8.0103    3.2855 F   0  0  0  0  0  0  0  0  0  0  0  0
   10.2282   -7.2008    5.1555 C   0  0  0  0  0  0  0  0  0  0  0  0
   10.5145   -8.4847    5.8532 C   0  0  0  0  0  0  0  0  0  0  0  0
    9.6872   -8.6045    7.1346 C   0  0  0  0  0  0  0  0  0  0  0  0
   10.7268   -5.6786    5.8060 S   0  0  0  0  0  0  0  0  0  0  0  0
    8.6813   -5.2503    2.5715 F   0  0  0  0  0  0  0  0  0  0  0  0
   10.4782   -2.6059    3.4162 C   0  0  0  0  0  0  0  0  0  0  0  0
   10.9688   -3.3016    1.8843 S   0  0  0  0  0  0  0  0  0  0  0  0
   10.9179   -1.7270    1.1491 C   0  0  0  0  0  0  0  0  0  0  0  0
   10.6845   -0.7181    2.0763 C   0  0  0  0  0  0  0  0  0  0  0  0
   10.4615   -1.1866    3.3944 C   0  0  0  0  0  0  0  0  0  0  0  0
   10.1063   -0.4611    4.5452 C   0  0  0  0  0  0  0  0  0  0  0  0
   10.1808    0.9886    4.5467 C   0  0  0  0  0  0  0  0  0  0  0  0
    8.8581    1.9894    5.0604 S   0  0  0  0  0  0  0  0  0  0  0  0
   11.2197    1.7731    4.1265 C   0  0  0  0  0  0  0  0  0  0  0  0
   12.3949    1.2831    3.7130 F   0  0  0  0  0  0  0  0  0  0  0  0
   10.9505    3.1595    4.2173 C   0  0  0  0  0  0  0  0  0  0  0  0
   11.8371    4.1012    3.8608 F   0  0  0  0  0  0  0  0  0  0  0  0
    9.7104    3.4499    4.7011 C   0  0  0  0  0  0  0  0  0  0  0  0
    9.1034    4.7913    4.9293 C   0  0  0  0  0  0  0  0  0  0  0  0
    7.6955    4.8826    4.3469 C   0  0  0  0  0  0  0  0  0  0  0  0
    9.6080   -1.1874    5.6185 C   0  0  0  0  0  0  0  0  0  0  0  0
    8.8894   -0.4885    7.0597 S   0  0  0  0  0  0  0  0  0  0  0  0
   10.8825   -1.3051   -0.1825 C   0  0  0  0  0  0  0  0  0  0  0  0
   10.5853    0.0373   -0.2842 C   0  0  0  0  0  0  0  0  0  0  0  0
   10.4424    0.7982    1.2871 S   0  0  0  0  0  0  0  0  0  0  0  0
   10.1866    0.7564   -1.4453 C   0  0  0  0  0  0  0  0  0  0  0  0
    9.9488    0.2367   -2.7060 C   0  0  0  0  0  0  0  0  0  0  0  0
    9.2975    1.1375   -3.5354 C   0  0  0  0  0  0  0  0  0  0  0  0
    9.0501    2.3687   -2.9454 C   0  0  0  0  0  0  0  0  0  0  0  0
    8.1931    3.3587   -3.4931 C   0  0  0  0  0  0  0  0  0  0  0  0
    7.8982    4.6609   -3.1081 C   0  0  0  0  0  0  0  0  0  0  0  0
    6.8434    5.2541   -3.8691 C   0  0  0  0  0  0  0  0  0  0  0  0
    6.2891    6.5792   -3.5610 C   0  0  0  0  0  0  0  0  0  0  0  0
    6.9707    7.2675   -2.4656 C   0  0  0  0  0  0  0  0  0  0  0  0
    6.6658    8.5378   -2.0423 C   0  0  0  0  0  0  0  0  0  0  0  0
    5.5707    9.4357   -2.4892 C   0  0  0  0  0  0  0  0  0  0  0  0
    4.2419    9.0433   -1.8357 C   0  0  0  0  0  0  0  0  0  0  0  0
    7.7381    9.0403   -0.7798 S   0  0  0  0  0  0  0  0  0  0  0  0
    8.6039    7.5432   -0.8115 C   0  0  0  0  0  0  0  0  0  0  0  0
    9.7373    7.3110    0.1209 C   0  0  0  0  0  0  0  0  0  0  0  0
    9.2924    6.5055    1.3448 C   0  0  0  0  0  0  0  0  0  0  0  0
    8.0751    6.6963   -1.7545 C   0  0  0  0  0  0  0  0  0  0  0  0
    8.5579    5.3440   -2.0082 C   0  0  0  0  0  0  0  0  0  0  0  0
    9.4325    4.8180   -1.3251 O   0  0  0  0  0  0  0  0  0  0  0  0
    5.3417    7.0616   -4.1620 O   0  0  0  0  0  0  0  0  0  0  0  0
    6.3221    4.3977   -4.8196 C   0  0  0  0  0  0  0  0  0  0  0  0
    5.1529    4.5055   -5.6402 C   0  0  0  0  0  0  0  0  0  0  0  0
    4.1034    3.1115   -5.6954 S   0  0  0  0  0  0  0  0  0  0  0  0
    4.6256    5.5382   -6.3744 C   0  0  0  0  0  0  0  0  0  0  0  0
    3.3806    5.2383   -6.9412 C   0  0  0  0  0  0  0  0  0  0  0  0
    2.9313    3.9744   -6.6375 C   0  0  0  0  0  0  0  0  0  0  0  0
    1.6775    3.3472   -6.9033 C   0  0  0  0  0  0  0  0  0  0  0  0
    1.2245    2.0055   -5.8759 S   0  0  0  0  0  0  0  0  0  0  0  0
    0.7130    3.6390   -7.8380 C   0  0  0  0  0  0  0  0  0  0  0  0
   -0.3862    2.7762   -7.7244 C   0  0  0  0  0  0  0  0  0  0  0  0
   -0.2643    1.8284   -6.7172 C   0  0  0  0  0  0  0  0  0  0  0  0
   -1.4117    1.0212   -6.5280 C   0  0  0  0  0  0  0  0  0  0  0  0
   -1.6464    0.0219   -5.5697 C   0  0  0  0  0  0  0  0  0  0  0  0
   -0.5494   -0.5204   -4.7840 C   0  0  0  0  0  0  0  0  0  0  0  0
   -0.4566   -0.7631   -3.4440 C   0  0  0  0  0  0  0  0  0  0  0  0
    0.7772   -1.3344   -3.0505 C   0  0  0  0  0  0  0  0  0  0  0  0
    1.0722   -1.6036   -1.7709 F   0  0  0  0  0  0  0  0  0  0  0  0
    1.6314   -1.5696   -4.0843 C   0  0  0  0  0  0  0  0  0  0  0  0
    2.9931   -2.1699   -4.0380 C   0  0  0  0  0  0  0  0  0  0  0  0
    3.0597   -3.4737   -4.8331 C   0  0  0  0  0  0  0  0  0  0  0  0
    0.8982   -1.0804   -5.5713 S   0  0  0  0  0  0  0  0  0  0  0  0
   -1.4155   -0.4606   -2.5655 F   0  0  0  0  0  0  0  0  0  0  0  0
   -2.9442   -0.4642   -5.4739 C   0  0  0  0  0  0  0  0  0  0  0  0
   -3.4728   -1.6488   -4.3012 S   0  0  0  0  0  0  0  0  0  0  0  0
   -5.0607   -1.6454   -4.9978 C   0  0  0  0  0  0  0  0  0  0  0  0
   -5.1663   -0.7780   -6.0791 C   0  0  0  0  0  0  0  0  0  0  0  0
   -3.9735   -0.0726   -6.3738 C   0  0  0  0  0  0  0  0  0  0  0  0
   -3.6990    0.8405   -7.4037 C   0  0  0  0  0  0  0  0  0  0  0  0
   -4.6791    1.1746   -8.4301 C   0  0  0  0  0  0  0  0  0  0  0  0
   -6.1963    1.9466   -8.0989 S   0  0  0  0  0  0  0  0  0  0  0  0
   -4.5557    0.9585   -9.7726 C   0  0  0  0  0  0  0  0  0  0  0  0
   -3.4939    0.3632  -10.3288 F   0  0  0  0  0  0  0  0  0  0  0  0
   -5.6843    1.3779  -10.5195 C   0  0  0  0  0  0  0  0  0  0  0  0
   -5.7711    1.2355  -11.8502 F   0  0  0  0  0  0  0  0  0  0  0  0
   -6.6685    1.9356   -9.7623 C   0  0  0  0  0  0  0  0  0  0  0  0
   -8.0048    2.4279  -10.1973 C   0  0  0  0  0  0  0  0  0  0  0  0
   -9.1181    1.5254   -9.6625 C   0  0  0  0  0  0  0  0  0  0  0  0
   -2.4278    1.3968   -7.4383 C   0  0  0  0  0  0  0  0  0  0  0  0
   -1.9197    2.6641   -8.5387 S   0  0  0  0  0  0  0  0  0  0  0  0
   -6.2308   -2.3515   -4.7063 C   0  0  0  0  0  0  0  0  0  0  0  0
   -7.2444   -2.0406   -5.5833 C   0  0  0  0  0  0  0  0  0  0  0  0
   -6.7475   -0.8476   -6.7670 S   0  0  0  0  0  0  0  0  0  0  0  0
   -8.5582   -2.5786   -5.6090 C   0  0  0  0  0  0  0  0  0  0  0  0
   -9.5861   -2.2560   -6.4743 C   0  0  0  0  0  0  0  0  0  0  0  0
  -10.7423   -2.9745   -6.2124 C   0  0  0  0  0  0  0  0  0  0  0  0
  -10.6326   -3.8521   -5.1414 C   0  0  0  0  0  0  0  0  0  0  0  0
  -11.6820   -4.6958   -4.6971 C   0  0  0  0  0  0  0  0  0  0  0  0
  -13.1651   -4.6673   -5.6182 S   0  0  0  0  0  0  0  0  0  0  0  0
  -11.7967   -5.5854   -3.6354 C   0  0  0  0  0  0  0  0  0  0  0  0
  -13.0702   -6.2368   -3.5747 C   0  0  0  0  0  0  0  0  0  0  0  0
  -13.4013   -7.2109   -2.5462 C   0  0  0  0  0  0  0  0  0  0  0  0
  -12.3529   -7.4362   -1.5552 C   0  0  0  0  0  0  0  0  0  0  0  0
  -12.4651   -8.2858   -0.4825 C   0  0  0  0  0  0  0  0  0  0  0  0
  -13.5938   -9.1745   -0.1039 C   0  0  0  0  0  0  0  0  0  0  0  0
  -13.5378  -10.4869   -0.8915 C   0  0  0  0  0  0  0  0  0  0  0  0
  -11.0127   -8.2825    0.4583 S   0  0  0  0  0  0  0  0  0  0  0  0
  -10.2473   -7.1320   -0.5817 C   0  0  0  0  0  0  0  0  0  0  0  0
   -8.8834   -6.6345   -0.2694 C   0  0  0  0  0  0  0  0  0  0  0  0
   -8.9553   -5.3524    0.5656 C   0  0  0  0  0  0  0  0  0  0  0  0
  -11.0884   -6.7664   -1.6050 C   0  0  0  0  0  0  0  0  0  0  0  0
  -10.7488   -5.8179   -2.6580 C   0  0  0  0  0  0  0  0  0  0  0  0
   -9.6572   -5.2530   -2.7032 O   0  0  0  0  0  0  0  0  0  0  0  0
  -14.4746   -7.8052   -2.5078 O   0  0  0  0  0  0  0  0  0  0  0  0
  -13.9361   -5.8493   -4.5884 C   0  0  0  0  0  0  0  0  0  0  0  0
  -15.2687   -6.2121   -4.9236 C   0  0  0  0  0  0  0  0  0  0  0  0
  -15.9693   -5.6697   -5.9874 C   0  0  0  0  0  0  0  0  0  0  0  0
  -17.2614   -6.1788   -6.1253 C   0  0  0  0  0  0  0  0  0  0  0  0
  -17.5454   -7.1096   -5.1678 C   0  0  0  0  0  0  0  0  0  0  0  0
  -16.2505   -7.3823   -4.0845 S   0  0  0  0  0  0  0  0  0  0  0  0
   -9.0379   -3.7796   -4.4526 S   0  0  0  0  0  0  0  0  0  0  0  0
    7.1650    2.8746   -4.8181 S   0  0  0  0  0  0  0  0  0  0  0  0
    9.7160    2.4240   -1.3400 S   0  0  0  0  0  0  0  0  0  0  0  0
    0.7168   -4.4184    7.2378 S   0  0  0  0  0  0  0  0  0  0  0  0
   -0.4180   -3.1045    7.3827 C   0  0  0  0  0  0  0  0  0  0  0  0
   -1.2785   -2.7752    6.2768 C   0  0  0  0  0  0  0  0  0  0  0  0
   -2.2422   -3.4694    5.5994 C   0  0  0  0  0  0  0  0  0  0  0  0
   -2.6698   -2.8248    4.4269 C   0  0  0  0  0  0  0  0  0  0  0  0
   -1.9974   -1.6541    4.1758 C   0  0  0  0  0  0  0  0  0  0  0  0
   -0.8786   -1.2935    5.4536 S   0  0  0  0  0  0  0  0  0  0  0  0
   -1.9953   -0.8143    3.0215 C   0  0  0  0  0  0  0  0  0  0  0  0
   -0.9854    0.0554    2.6857 C   0  0  0  0  0  0  0  0  0  0  0  0
   -1.2106    0.6578    1.4469 C   0  0  0  0  0  0  0  0  0  0  0  0
   -0.2855    1.7840    0.5099 S   0  0  0  0  0  0  0  0  0  0  0  0
   -1.5159    1.7630   -0.7304 C   0  0  0  0  0  0  0  0  0  0  0  0
   -2.6070    0.9084   -0.4270 C   0  0  0  0  0  0  0  0  0  0  0  0
   -3.6898    0.8259   -1.3164 C   0  0  0  0  0  0  0  0  0  0  0  0
   -4.7935   -0.0877   -1.0641 C   0  0  0  0  0  0  0  0  0  0  0  0
   -6.4370    0.4575   -0.9440 S   0  0  0  0  0  0  0  0  0  0  0  0
   -7.0302   -1.1257   -0.5881 C   0  0  0  0  0  0  0  0  0  0  0  0
   -8.4775   -1.3842   -0.3449 C   0  0  0  0  0  0  0  0  0  0  0  0
   -9.1561   -1.9600   -1.5889 C   0  0  0  0  0  0  0  0  0  0  0  0
   -6.0020   -2.0194   -0.6000 C   0  0  0  0  0  0  0  0  0  0  0  0
   -6.1622   -3.3295   -0.3534 F   0  0  0  0  0  0  0  0  0  0  0  0
   -4.7380   -1.4383   -0.8647 C   0  0  0  0  0  0  0  0  0  0  0  0
   -3.6142   -2.1586   -0.9373 F   0  0  0  0  0  0  0  0  0  0  0  0
   -3.6555    1.6401   -2.4412 C   0  0  0  0  0  0  0  0  0  0  0  0
   -2.5494    2.4688   -2.7525 C   0  0  0  0  0  0  0  0  0  0  0  0
   -2.7712    3.1486   -3.9779 C   0  0  0  0  0  0  0  0  0  0  0  0
   -1.8711    4.2734   -4.9280 S   0  0  0  0  0  0  0  0  0  0  0  0
   -3.1780    4.3989   -6.0499 C   0  0  0  0  0  0  0  0  0  0  0  0
   -4.2439    3.6192   -5.7327 C   0  0  0  0  0  0  0  0  0  0  0  0
   -4.0043    2.8919   -4.5517 C   0  0  0  0  0  0  0  0  0  0  0  0
   -4.9332    1.7422   -3.6387 S   0  0  0  0  0  0  0  0  0  0  0  0
   -1.4536    2.5291   -1.8850 C   0  0  0  0  0  0  0  0  0  0  0  0
   -0.3025    3.3852   -2.1474 C   0  0  0  0  0  0  0  0  0  0  0  0
    1.3071    2.7485   -2.2885 S   0  0  0  0  0  0  0  0  0  0  0  0
   -0.2720    4.7463   -2.2480 C   0  0  0  0  0  0  0  0  0  0  0  0
    1.0310    5.2696   -2.4309 C   0  0  0  0  0  0  0  0  0  0  0  0
    1.2793    6.5831   -2.5408 F   0  0  0  0  0  0  0  0  0  0  0  0
    2.0057    4.3187   -2.4729 C   0  0  0  0  0  0  0  0  0  0  0  0
    3.4781    4.5247   -2.5655 C   0  0  0  0  0  0  0  0  0  0  0  0
    4.0742    4.8573   -1.1953 C   0  0  0  0  0  0  0  0  0  0  0  0
   -1.3595    5.5198   -2.1319 F   0  0  0  0  0  0  0  0  0  0  0  0
   -2.3923    0.2762    0.8257 C   0  0  0  0  0  0  0  0  0  0  0  0
   -3.2493   -0.8651    1.8043 S   0  0  0  0  0  0  0  0  0  0  0  0
   -0.1238   -2.3164    8.4709 C   0  0  0  0  0  0  0  0  0  0  0  0
   -0.9775   -1.2016    8.8991 C   0  0  0  0  0  0  0  0  0  0  0  0
   -1.9918   -0.8794    8.3022 O   0  0  0  0  0  0  0  0  0  0  0  0
   -2.9343    1.5285   11.2870 H   0  0  0  0  0  0  0  0  0  0  0  0
   -3.1180    0.3818    9.9348 H   0  0  0  0  0  0  0  0  0  0  0  0
   -1.4834    2.9595    9.7992 H   0  0  0  0  0  0  0  0  0  0  0  0
   -1.7625    1.8133    8.4778 H   0  0  0  0  0  0  0  0  0  0  0  0
   -3.1098    2.7404    9.1403 H   0  0  0  0  0  0  0  0  0  0  0  0
    1.7913    0.0820   13.8469 H   0  0  0  0  0  0  0  0  0  0  0  0
    2.4356   -1.3038   12.9307 H   0  0  0  0  0  0  0  0  0  0  0  0
    3.5964    0.1998   11.3836 H   0  0  0  0  0  0  0  0  0  0  0  0
    2.9349    1.6218   12.2080 H   0  0  0  0  0  0  0  0  0  0  0  0
    4.0780    0.5613   13.0426 H   0  0  0  0  0  0  0  0  0  0  0  0
    2.8892   -6.1631    7.6027 H   0  0  0  0  0  0  0  0  0  0  0  0
    5.4715   -6.1512    7.3697 H   0  0  0  0  0  0  0  0  0  0  0  0
    6.6496   -1.7425    8.9858 H   0  0  0  0  0  0  0  0  0  0  0  0
   10.2745   -9.3072    5.1768 H   0  0  0  0  0  0  0  0  0  0  0  0
   11.5766   -8.5375    6.1024 H   0  0  0  0  0  0  0  0  0  0  0  0
    9.9070   -9.5437    7.6346 H   0  0  0  0  0  0  0  0  0  0  0  0
    9.9191   -7.7843    7.8100 H   0  0  0  0  0  0  0  0  0  0  0  0
    8.6252   -8.5727    6.9036 H   0  0  0  0  0  0  0  0  0  0  0  0
    9.0608    4.9888    6.0047 H   0  0  0  0  0  0  0  0  0  0  0  0
    9.7522    5.5419    4.4740 H   0  0  0  0  0  0  0  0  0  0  0  0
    7.7135    4.6833    3.2787 H   0  0  0  0  0  0  0  0  0  0  0  0
    7.0437    4.1550    4.8248 H   0  0  0  0  0  0  0  0  0  0  0  0
    7.2872    5.8763    4.5101 H   0  0  0  0  0  0  0  0  0  0  0  0
   11.0154   -1.9568   -1.0251 H   0  0  0  0  0  0  0  0  0  0  0  0
   10.2023   -0.7664   -2.9968 H   0  0  0  0  0  0  0  0  0  0  0  0
    8.9833    0.9081   -4.5392 H   0  0  0  0  0  0  0  0  0  0  0  0
    5.8185   10.4673   -2.2315 H   0  0  0  0  0  0  0  0  0  0  0  0
    5.4621    9.3487   -3.5721 H   0  0  0  0  0  0  0  0  0  0  0  0
    3.4678    9.7495   -2.1214 H   0  0  0  0  0  0  0  0  0  0  0  0
    3.9417    8.0546   -2.1700 H   0  0  0  0  0  0  0  0  0  0  0  0
    4.3324    9.0423   -0.7513 H   0  0  0  0  0  0  0  0  0  0  0  0
   10.5114    6.7433   -0.3995 H   0  0  0  0  0  0  0  0  0  0  0  0
   10.1477    8.2708    0.4407 H   0  0  0  0  0  0  0  0  0  0  0  0
    8.9399    5.5271    1.0298 H   0  0  0  0  0  0  0  0  0  0  0  0
   10.1360    6.3674    2.0150 H   0  0  0  0  0  0  0  0  0  0  0  0
    8.4959    7.0222    1.8762 H   0  0  0  0  0  0  0  0  0  0  0  0
    5.1163    6.4863   -6.4863 H   0  0  0  0  0  0  0  0  0  0  0  0
    2.8084    5.9385   -7.5220 H   0  0  0  0  0  0  0  0  0  0  0  0
    0.8000    4.4226   -8.5668 H   0  0  0  0  0  0  0  0  0  0  0  0
    3.7137   -1.4586   -4.4501 H   0  0  0  0  0  0  0  0  0  0  0  0
    3.2499   -2.3540   -2.9931 H   0  0  0  0  0  0  0  0  0  0  0  0
    2.8077   -3.2916   -5.8753 H   0  0  0  0  0  0  0  0  0  0  0  0
    2.3602   -4.2012   -4.4288 H   0  0  0  0  0  0  0  0  0  0  0  0
    4.0618   -3.8905   -4.7828 H   0  0  0  0  0  0  0  0  0  0  0  0
   -8.1579    3.4457   -9.8311 H   0  0  0  0  0  0  0  0  0  0  0  0
   -8.0285    2.4447  -11.2885 H   0  0  0  0  0  0  0  0  0  0  0  0
  -10.0872    1.8969   -9.9840 H   0  0  0  0  0  0  0  0  0  0  0  0
   -9.0931    1.5033   -8.5752 H   0  0  0  0  0  0  0  0  0  0  0  0
   -8.9932    0.5108  -10.0335 H   0  0  0  0  0  0  0  0  0  0  0  0
   -6.3393   -3.0614   -3.9074 H   0  0  0  0  0  0  0  0  0  0  0  0
   -9.4905   -1.5258   -7.2590 H   0  0  0  0  0  0  0  0  0  0  0  0
  -11.6527   -2.8692   -6.7766 H   0  0  0  0  0  0  0  0  0  0  0  0
  -14.5342   -8.6703   -0.3340 H   0  0  0  0  0  0  0  0  0  0  0  0
  -13.5478   -9.3859    0.9663 H   0  0  0  0  0  0  0  0  0  0  0  0
  -13.6480  -10.2843   -1.9534 H   0  0  0  0  0  0  0  0  0  0  0  0
  -12.5909  -10.9957   -0.7227 H   0  0  0  0  0  0  0  0  0  0  0  0
  -14.3476  -11.1398   -0.5782 H   0  0  0  0  0  0  0  0  0  0  0  0
   -8.3646   -6.4133   -1.2033 H   0  0  0  0  0  0  0  0  0  0  0  0
   -8.3298   -7.3981    0.2799 H   0  0  0  0  0  0  0  0  0  0  0  0
   -9.4443   -5.5422    1.5191 H   0  0  0  0  0  0  0  0  0  0  0  0
   -9.5154   -4.5935    0.0258 H   0  0  0  0  0  0  0  0  0  0  0  0
   -7.9518   -4.9800    0.7481 H   0  0  0  0  0  0  0  0  0  0  0  0
  -15.5464   -4.9249   -6.6392 H   0  0  0  0  0  0  0  0  0  0  0  0
  -17.9466   -5.8716   -6.8953 H   0  0  0  0  0  0  0  0  0  0  0  0
  -18.4610   -7.6543   -5.0438 H   0  0  0  0  0  0  0  0  0  0  0  0
   -2.6329   -4.4118    5.9400 H   0  0  0  0  0  0  0  0  0  0  0  0
   -3.4161   -3.2213    3.7616 H   0  0  0  0  0  0  0  0  0  0  0  0
   -0.1174    0.2218    3.2963 H   0  0  0  0  0  0  0  0  0  0  0  0
   -8.9594   -0.4471   -0.0616 H   0  0  0  0  0  0  0  0  0  0  0  0
   -8.5771   -2.0921    0.4814 H   0  0  0  0  0  0  0  0  0  0  0  0
   -9.0150   -1.2964   -2.4392 H   0  0  0  0  0  0  0  0  0  0  0  0
   -8.7419   -2.9343   -1.8333 H   0  0  0  0  0  0  0  0  0  0  0  0
  -10.2227   -2.0745   -1.4125 H   0  0  0  0  0  0  0  0  0  0  0  0
   -3.0727    5.0573   -6.8889 H   0  0  0  0  0  0  0  0  0  0  0  0
   -5.1542    3.5717   -6.2992 H   0  0  0  0  0  0  0  0  0  0  0  0
    3.9418    3.6147   -2.9486 H   0  0  0  0  0  0  0  0  0  0  0  0
    3.6801    5.3455   -3.2585 H   0  0  0  0  0  0  0  0  0  0  0  0
    5.1485    5.0027   -1.2828 H   0  0  0  0  0  0  0  0  0  0  0  0
    3.6326    5.7691   -0.8007 H   0  0  0  0  0  0  0  0  0  0  0  0
    3.8877    4.0470   -0.4942 H   0  0  0  0  0  0  0  0  0  0  0  0
  1  2  2  0  0  0  0
  2  3  1  0  0  0  0
  3  4  1  0  0  0  0
  4  5  2  0  0  0  0
  5  6  1  0  0  0  0
  6  7  1  0  0  0  0
  3  8  2  0  0  0  0
  8  9  1  0  0  0  0
  5  9  1  0  0  0  0
  8 10  1  0  0  0  0
 10 11  1  0  0  0  0
  2 12  1  0  0  0  0
 12 13  2  0  0  0  0
 13 14  1  0  0  0  0
 14 15  1  0  0  0  0
 14 16  2  0  0  0  0
 16 17  1  0  0  0  0
 17 18  2  0  0  0  0
 15 18  1  0  0  0  0
 18 19  1  0  0  0  0
 19 20  2  0  0  0  0
 20 21  1  0  0  0  0
 21 22  2  0  0  0  0
 22 23  1  0  0  0  0
 19 23  1  0  0  0  0
 22 24  1  0  0  0  0
 24 25  2  0  0  0  0
 25 26  1  0  0  0  0
 26 27  2  0  0  0  0
 27 28  1  0  0  0  0
 28 29  1  0  0  0  0
 28 30  2  0  0  0  0
 30 31  1  0  0  0  0
 31 32  1  0  0  0  0
 30 33  1  0  0  0  0
 26 33  1  0  0  0  0
 27 34  1  0  0  0  0
 25 35  1  0  0  0  0
 35 36  1  0  0  0  0
 36 37  1  0  0  0  0
 37 38  2  0  0  0  0
 38 39  1  0  0  0  0
 35 39  2  0  0  0  0
 39 40  1  0  0  0  0
 40 41  1  0  0  0  0
 41 42  1  0  0  0  0
 41 43  2  0  0  0  0
 43 44  1  0  0  0  0
 43 45  1  0  0  0  0
 45 46  1  0  0  0  0
 45 47  2  0  0  0  0
 42 47  1  0  0  0  0
 47 48  1  0  0  0  0
 48 49  1  0  0  0  0
 40 50  2  0  0  0  0
 24 50  1  0  0  0  0
 50 51  1  0  0  0  0
 21 51  1  0  0  0  0
 37 52  1  0  0  0  0
 52 53  2  0  0  0  0
 53 54  1  0  0  0  0
 38 54  1  0  0  0  0
 53 55  1  0  0  0  0
 55 56  2  0  0  0  0
 56 57  1  0  0  0  0
 57 58  2  0  0  0  0
 58 59  1  0  0  0  0
 59 60  2  0  0  0  0
 60 61  1  0  0  0  0
 61 62  1  0  0  0  0
 62 63  1  0  0  0  0
 63 64  2  0  0  0  0
 64 65  1  0  0  0  0
 65 66  1  0  0  0  0
 64 67  1  0  0  0  0
 67 68  1  0  0  0  0
 68 69  1  0  0  0  0
 69 70  1  0  0  0  0
 68 71  2  0  0  0  0
 63 71  1  0  0  0  0
 71 72  1  0  0  0  0
 60 72  1  0  0  0  0
 72 73  2  0  0  0  0
 62 74  2  0  0  0  0
 61 75  2  0  0  0  0
 75 76  1  0  0  0  0
 76 77  1  0  0  0  0
 76 78  2  0  0  0  0
 78 79  1  0  0  0  0
 79 80  2  0  0  0  0
 77 80  1  0  0  0  0
 80 81  1  0  0  0  0
 81 82  1  0  0  0  0
 81 83  2  0  0  0  0
 83 84  1  0  0  0  0
 84 85  2  0  0  0  0
 82 85  1  0  0  0  0
 85 86  1  0  0  0  0
 86 87  2  0  0  0  0
 87 88  1  0  0  0  0
 88 89  2  0  0  0  0
 89 90  1  0  0  0  0
 90 91  1  0  0  0  0
 90 92  2  0  0  0  0
 92 93  1  0  0  0  0
 93 94  1  0  0  0  0
 92 95  1  0  0  0  0
 88 95  1  0  0  0  0
 89 96  1  0  0  0  0
 87 97  1  0  0  0  0
 97 98  1  0  0  0  0
 98 99  1  0  0  0  0
 99100  2  0  0  0  0
100101  1  0  0  0  0
 97101  2  0  0  0  0
101102  1  0  0  0  0
102103  1  0  0  0  0
103104  1  0  0  0  0
103105  2  0  0  0  0
105106  1  0  0  0  0
105107  1  0  0  0  0
107108  1  0  0  0  0
107109  2  0  0  0  0
104109  1  0  0  0  0
109110  1  0  0  0  0
110111  1  0  0  0  0
102112  2  0  0  0  0
 86112  1  0  0  0  0
112113  1  0  0  0  0
 84113  1  0  0  0  0
 99114  1  0  0  0  0
114115  2  0  0  0  0
115116  1  0  0  0  0
100116  1  0  0  0  0
115117  1  0  0  0  0
117118  2  0  0  0  0
118119  1  0  0  0  0
119120  2  0  0  0  0
120121  1  0  0  0  0
121122  1  0  0  0  0
121123  2  0  0  0  0
123124  1  0  0  0  0
124125  1  0  0  0  0
125126  1  0  0  0  0
126127  2  0  0  0  0
127128  1  0  0  0  0
128129  1  0  0  0  0
127130  1  0  0  0  0
130131  1  0  0  0  0
131132  1  0  0  0  0
132133  1  0  0  0  0
131134  2  0  0  0  0
126134  1  0  0  0  0
134135  1  0  0  0  0
123135  1  0  0  0  0
135136  2  0  0  0  0
125137  2  0  0  0  0
124138  2  0  0  0  0
122138  1  0  0  0  0
138139  1  0  0  0  0
139140  2  0  0  0  0
140141  1  0  0  0  0
141142  2  0  0  0  0
142143  1  0  0  0  0
139143  1  0  0  0  0
120144  1  0  0  0  0
117144  1  0  0  0  0
 75145  1  0  0  0  0
 59145  1  0  0  0  0
 58146  1  0  0  0  0
 55146  1  0  0  0  0
 13147  1  0  0  0  0
147148  1  0  0  0  0
148149  1  0  0  0  0
149150  2  0  0  0  0
150151  1  0  0  0  0
151152  2  0  0  0  0
152153  1  0  0  0  0
149153  1  0  0  0  0
152154  1  0  0  0  0
154155  2  0  0  0  0
155156  1  0  0  0  0
156157  1  0  0  0  0
157158  1  0  0  0  0
158159  2  0  0  0  0
159160  1  0  0  0  0
160161  1  0  0  0  0
161162  1  0  0  0  0
162163  1  0  0  0  0
163164  1  0  0  0  0
164165  1  0  0  0  0
163166  2  0  0  0  0
166167  1  0  0  0  0
161168  2  0  0  0  0
166168  1  0  0  0  0
168169  1  0  0  0  0
160170  2  0  0  0  0
170171  1  0  0  0  0
171172  1  0  0  0  0
172173  1  0  0  0  0
173174  1  0  0  0  0
174175  2  0  0  0  0
172176  2  0  0  0  0
175176  1  0  0  0  0
176177  1  0  0  0  0
170177  1  0  0  0  0
171178  2  0  0  0  0
158178  1  0  0  0  0
178179  1  0  0  0  0
179180  1  0  0  0  0
179181  2  0  0  0  0
181182  1  0  0  0  0
182183  1  0  0  0  0
182184  2  0  0  0  0
180184  1  0  0  0  0
184185  1  0  0  0  0
185186  1  0  0  0  0
181187  1  0  0  0  0
156188  2  0  0  0  0
159188  1  0  0  0  0
188189  1  0  0  0  0
154189  1  0  0  0  0
148190  2  0  0  0  0
 12190  1  0  0  0  0
190191  1  0  0  0  0
  4191  1  0  0  0  0
191192  2  0  0  0  0
  6193  1  0  0  0  0
  6194  1  0  0  0  0
  7195  1  0  0  0  0
  7196  1  0  0  0  0
  7197  1  0  0  0  0
 10198  1  0  0  0  0
 10199  1  0  0  0  0
 11200  1  0  0  0  0
 11201  1  0  0  0  0
 11202  1  0  0  0  0
 16203  1  0  0  0  0
 17204  1  0  0  0  0
 20205  1  0  0  0  0
 31206  1  0  0  0  0
 31207  1  0  0  0  0
 32208  1  0  0  0  0
 32209  1  0  0  0  0
 32210  1  0  0  0  0
 48211  1  0  0  0  0
 48212  1  0  0  0  0
 49213  1  0  0  0  0
 49214  1  0  0  0  0
 49215  1  0  0  0  0
 52216  1  0  0  0  0
 56217  1  0  0  0  0
 57218  1  0  0  0  0
 65219  1  0  0  0  0
 65220  1  0  0  0  0
 66221  1  0  0  0  0
 66222  1  0  0  0  0
 66223  1  0  0  0  0
 69224  1  0  0  0  0
 69225  1  0  0  0  0
 70226  1  0  0  0  0
 70227  1  0  0  0  0
 70228  1  0  0  0  0
 78229  1  0  0  0  0
 79230  1  0  0  0  0
 83231  1  0  0  0  0
 93232  1  0  0  0  0
 93233  1  0  0  0  0
 94234  1  0  0  0  0
 94235  1  0  0  0  0
 94236  1  0  0  0  0
110237  1  0  0  0  0
110238  1  0  0  0  0
111239  1  0  0  0  0
111240  1  0  0  0  0
111241  1  0  0  0  0
114242  1  0  0  0  0
118243  1  0  0  0  0
119244  1  0  0  0  0
128245  1  0  0  0  0
128246  1  0  0  0  0
129247  1  0  0  0  0
129248  1  0  0  0  0
129249  1  0  0  0  0
132250  1  0  0  0  0
132251  1  0  0  0  0
133252  1  0  0  0  0
133253  1  0  0  0  0
133254  1  0  0  0  0
140255  1  0  0  0  0
141256  1  0  0  0  0
142257  1  0  0  0  0
150258  1  0  0  0  0
151259  1  0  0  0  0
155260  1  0  0  0  0
164261  1  0  0  0  0
164262  1  0  0  0  0
165263  1  0  0  0  0
165264  1  0  0  0  0
165265  1  0  0  0  0
174266  1  0  0  0  0
175267  1  0  0  0  0
185268  1  0  0  0  0
185269  1  0  0  0  0
186270  1  0  0  0  0
186271  1  0  0  0  0
186272  1  0  0  0  0
M  END
