PDBT-2Cl.mol
  xtb     01102217263D
 energy: -525.914986646453 gnorm: 0.000844737116 xtb: 6.4.1 (unknown)
272307  0     0  0            999 V2000
   -0.0409   -3.4450    4.5668 C   0  0  0  0  0  0  0  0  0  0  0  0
    0.8424   -4.4435    3.4357 S   0  0  0  0  0  0  0  0  0  0  0  0
    0.4679   -5.8482    4.3454 C   0  0  0  0  0  0  0  0  0  0  0  0
    0.6775   -7.2307    4.1404 C   0  0  0  0  0  0  0  0  0  0  0  0
    1.3279   -7.8724    3.0774 C   0  0  0  0  0  0  0  0  0  0  0  0
    1.9189   -7.0815    2.0014 C   0  0  0  0  0  0  0  0  0  0  0  0
    1.2726   -6.2974    1.0904 C   0  0  0  0  0  0  0  0  0  0  0  0
    2.1586   -5.5728    0.2485 C   0  0  0  0  0  0  0  0  0  0  0  0
    1.5960   -4.4787   -0.9439 Cl  0  0  0  0  0  0  0  0  0  0  0  0
    3.4753   -5.8130    0.5032 C   0  0  0  0  0  0  0  0  0  0  0  0
    4.6647   -5.2506   -0.1959 C   0  0  0  0  0  0  0  0  0  0  0  0
    5.7919   -4.8973    0.7694 C   0  0  0  0  0  0  0  0  0  0  0  0
    3.6378   -6.9485    1.8012 S   0  0  0  0  0  0  0  0  0  0  0  0
   -0.4347   -6.2142    0.9489 Cl  0  0  0  0  0  0  0  0  0  0  0  0
    1.3494   -9.2562    3.0949 C   0  0  0  0  0  0  0  0  0  0  0  0
    0.7469  -10.0084    4.1366 C   0  0  0  0  0  0  0  0  0  0  0  0
    0.1271   -9.3617    5.2163 C   0  0  0  0  0  0  0  0  0  0  0  0
   -0.4779  -10.1321    6.2952 C   0  0  0  0  0  0  0  0  0  0  0  0
   -1.7964  -10.2163    6.6357 C   0  0  0  0  0  0  0  0  0  0  0  0
   -3.0487   -9.3983    5.8006 Cl  0  0  0  0  0  0  0  0  0  0  0  0
   -2.0359  -11.0989    7.7237 C   0  0  0  0  0  0  0  0  0  0  0  0
   -3.6108  -11.4045    8.3300 Cl  0  0  0  0  0  0  0  0  0  0  0  0
   -0.9037  -11.6695    8.2224 C   0  0  0  0  0  0  0  0  0  0  0  0
   -0.7779  -12.7004    9.2885 C   0  0  0  0  0  0  0  0  0  0  0  0
   -0.7063  -14.0987    8.6693 C   0  0  0  0  0  0  0  0  0  0  0  0
    0.4846  -11.1230    7.3465 S   0  0  0  0  0  0  0  0  0  0  0  0
    0.0921   -7.9761    5.1936 C   0  0  0  0  0  0  0  0  0  0  0  0
   -0.6636   -6.9576    6.4054 S   0  0  0  0  0  0  0  0  0  0  0  0
   -0.2499   -5.5324    5.4916 C   0  0  0  0  0  0  0  0  0  0  0  0
   -0.5376   -4.1664    5.6275 C   0  0  0  0  0  0  0  0  0  0  0  0
    2.0097  -10.2570    1.8183 S   0  0  0  0  0  0  0  0  0  0  0  0
    1.4312  -11.6838    2.6281 C   0  0  0  0  0  0  0  0  0  0  0  0
    0.8102  -11.3912    3.8363 C   0  0  0  0  0  0  0  0  0  0  0  0
    0.1944  -12.8205    4.5798 S   0  0  0  0  0  0  0  0  0  0  0  0
    0.7741  -13.7962    3.2417 C   0  0  0  0  0  0  0  0  0  0  0  0
    0.5238  -15.1938    3.2116 C   0  0  0  0  0  0  0  0  0  0  0  0
   -0.0768  -15.9568    4.1947 C   0  0  0  0  0  0  0  0  0  0  0  0
   -0.2067  -17.2865    3.8263 C   0  0  0  0  0  0  0  0  0  0  0  0
    0.2808  -17.5728    2.5577 C   0  0  0  0  0  0  0  0  0  0  0  0
    0.2191  -18.8582    1.9628 C   0  0  0  0  0  0  0  0  0  0  0  0
   -0.4953  -20.1368    2.9142 S   0  0  0  0  0  0  0  0  0  0  0  0
    0.5999  -19.3462    0.7185 C   0  0  0  0  0  0  0  0  0  0  0  0
    0.3016  -20.7349    0.5363 C   0  0  0  0  0  0  0  0  0  0  0  0
    0.5884  -21.4397   -0.7032 C   0  0  0  0  0  0  0  0  0  0  0  0
    1.2436  -20.6328   -1.7290 C   0  0  0  0  0  0  0  0  0  0  0  0
    1.6583  -21.1107   -2.9474 C   0  0  0  0  0  0  0  0  0  0  0  0
    1.4952  -22.4687   -3.5272 C   0  0  0  0  0  0  0  0  0  0  0  0
    0.1030  -22.6299   -4.1448 C   0  0  0  0  0  0  0  0  0  0  0  0
    2.4167  -19.8595   -3.8715 S   0  0  0  0  0  0  0  0  0  0  0  0
    2.1898  -18.6885   -2.6197 C   0  0  0  0  0  0  0  0  0  0  0  0
    2.6324  -17.2847   -2.8220 C   0  0  0  0  0  0  0  0  0  0  0  0
    1.4616  -16.4042   -3.2691 C   0  0  0  0  0  0  0  0  0  0  0  0
    1.5483  -19.2469   -1.5411 C   0  0  0  0  0  0  0  0  0  0  0  0
    1.2302  -18.5367   -0.3080 C   0  0  0  0  0  0  0  0  0  0  0  0
    1.4872  -17.3437   -0.1559 O   0  0  0  0  0  0  0  0  0  0  0  0
    0.3037  -22.6198   -0.8847 O   0  0  0  0  0  0  0  0  0  0  0  0
   -0.2991  -21.3190    1.6433 C   0  0  0  0  0  0  0  0  0  0  0  0
   -0.7604  -22.6342    1.9215 C   0  0  0  0  0  0  0  0  0  0  0  0
   -1.3234  -23.0130    3.1283 C   0  0  0  0  0  0  0  0  0  0  0  0
   -1.7045  -24.3549    3.1724 C   0  0  0  0  0  0  0  0  0  0  0  0
   -1.4329  -24.9988    1.9996 C   0  0  0  0  0  0  0  0  0  0  0  0
   -0.7106  -23.9876    0.8245 S   0  0  0  0  0  0  0  0  0  0  0  0
    0.9329  -16.1401    1.8138 S   0  0  0  0  0  0  0  0  0  0  0  0
    1.4178  -13.0396    2.2892 C   0  0  0  0  0  0  0  0  0  0  0  0
   -2.4726   10.5337   -7.8277 C   0  0  0  0  0  0  0  0  0  0  0  0
   -0.7722   10.1509   -8.0222 S   0  0  0  0  0  0  0  0  0  0  0  0
   -1.1777    8.7102   -8.8797 C   0  0  0  0  0  0  0  0  0  0  0  0
   -0.4675    7.4977   -9.0575 C   0  0  0  0  0  0  0  0  0  0  0  0
    0.8890    7.2558   -8.7783 C   0  0  0  0  0  0  0  0  0  0  0  0
    1.8143    8.3661   -8.7132 C   0  0  0  0  0  0  0  0  0  0  0  0
    1.9071    9.4116   -9.5961 C   0  0  0  0  0  0  0  0  0  0  0  0
    2.9017   10.3575   -9.2412 C   0  0  0  0  0  0  0  0  0  0  0  0
    3.2232   11.7543  -10.1835 Cl  0  0  0  0  0  0  0  0  0  0  0  0
    3.5590   10.0506   -8.0863 C   0  0  0  0  0  0  0  0  0  0  0  0
    4.6847   10.7823   -7.4440 C   0  0  0  0  0  0  0  0  0  0  0  0
    6.0317   10.2390   -7.9276 C   0  0  0  0  0  0  0  0  0  0  0  0
    2.9713    8.5624   -7.4321 S   0  0  0  0  0  0  0  0  0  0  0  0
    0.9771    9.5502  -11.0283 Cl  0  0  0  0  0  0  0  0  0  0  0  0
    1.2208    5.9446   -8.4653 C   0  0  0  0  0  0  0  0  0  0  0  0
    0.2698    4.8971   -8.5359 C   0  0  0  0  0  0  0  0  0  0  0  0
   -0.9982    5.1095   -9.1107 C   0  0  0  0  0  0  0  0  0  0  0  0
   -1.8701    3.9814   -9.3557 C   0  0  0  0  0  0  0  0  0  0  0  0
   -1.5202    2.7773   -9.9111 C   0  0  0  0  0  0  0  0  0  0  0  0
    0.0392    2.4113  -10.5181 Cl  0  0  0  0  0  0  0  0  0  0  0  0
   -2.6019    1.8648   -9.9972 C   0  0  0  0  0  0  0  0  0  0  0  0
   -2.4310    0.2906  -10.6563 Cl  0  0  0  0  0  0  0  0  0  0  0  0
   -3.7765    2.3632   -9.5160 C   0  0  0  0  0  0  0  0  0  0  0  0
   -5.0881    1.6700   -9.3955 C   0  0  0  0  0  0  0  0  0  0  0  0
   -5.1820    0.9126   -8.0685 C   0  0  0  0  0  0  0  0  0  0  0  0
   -3.5582    3.9795   -8.9430 S   0  0  0  0  0  0  0  0  0  0  0  0
   -1.3667    6.4352   -9.3108 C   0  0  0  0  0  0  0  0  0  0  0  0
   -3.0021    7.0086   -9.6148 S   0  0  0  0  0  0  0  0  0  0  0  0
   -2.5473    8.6022   -9.0651 C   0  0  0  0  0  0  0  0  0  0  0  0
   -3.2857    9.6544   -8.5038 C   0  0  0  0  0  0  0  0  0  0  0  0
    2.7151    5.4526   -7.6885 S   0  0  0  0  0  0  0  0  0  0  0  0
    1.9481    3.9797   -7.1710 C   0  0  0  0  0  0  0  0  0  0  0  0
    0.7069    3.7931   -7.7567 C   0  0  0  0  0  0  0  0  0  0  0  0
   -0.1323    2.4728   -7.0189 S   0  0  0  0  0  0  0  0  0  0  0  0
    1.1659    2.2711   -5.8543 C   0  0  0  0  0  0  0  0  0  0  0  0
    0.9210    1.5879   -4.6023 C   0  0  0  0  0  0  0  0  0  0  0  0
    0.9069    0.2705   -4.2317 C   0  0  0  0  0  0  0  0  0  0  0  0
    0.5896    0.1060   -2.8809 C   0  0  0  0  0  0  0  0  0  0  0  0
    0.3180    1.2910   -2.2195 C   0  0  0  0  0  0  0  0  0  0  0  0
    0.0223    1.3996   -0.8333 C   0  0  0  0  0  0  0  0  0  0  0  0
    0.2175   -0.0318    0.1322 S   0  0  0  0  0  0  0  0  0  0  0  0
   -0.4120    2.4544   -0.0416 C   0  0  0  0  0  0  0  0  0  0  0  0
   -0.5146    2.1247    1.3490 C   0  0  0  0  0  0  0  0  0  0  0  0
   -0.8366    3.1452    2.3524 C   0  0  0  0  0  0  0  0  0  0  0  0
   -1.4572    4.3435    1.7905 C   0  0  0  0  0  0  0  0  0  0  0  0
   -2.0414    5.3366    2.5378 C   0  0  0  0  0  0  0  0  0  0  0  0
   -2.1484    5.4203    4.0165 C   0  0  0  0  0  0  0  0  0  0  0  0
   -2.6149    6.7819    4.5084 C   0  0  0  0  0  0  0  0  0  0  0  0
   -2.7073    6.5634    1.5138 S   0  0  0  0  0  0  0  0  0  0  0  0
   -2.1440    5.7781    0.0794 C   0  0  0  0  0  0  0  0  0  0  0  0
   -2.4406    6.3541   -1.2579 C   0  0  0  0  0  0  0  0  0  0  0  0
   -3.6211    5.6312   -1.9128 C   0  0  0  0  0  0  0  0  0  0  0  0
   -1.5024    4.6041    0.3854 C   0  0  0  0  0  0  0  0  0  0  0  0
   -0.8127    3.7469   -0.5738 C   0  0  0  0  0  0  0  0  0  0  0  0
   -0.6044    4.0946   -1.7320 O   0  0  0  0  0  0  0  0  0  0  0  0
   -0.6027    3.0271    3.5471 O   0  0  0  0  0  0  0  0  0  0  0  0
   -0.2203    0.7961    1.6059 C   0  0  0  0  0  0  0  0  0  0  0  0
   -0.2855   -0.0297    2.7641 C   0  0  0  0  0  0  0  0  0  0  0  0
   -0.5462    0.2113    4.0978 C   0  0  0  0  0  0  0  0  0  0  0  0
   -0.5138   -0.9397    4.8897 C   0  0  0  0  0  0  0  0  0  0  0  0
   -0.2090   -2.0818    4.1828 C   0  0  0  0  0  0  0  0  0  0  0  0
   -0.0046   -1.7267    2.5018 S   0  0  0  0  0  0  0  0  0  0  0  0
    0.4729    2.6435   -3.2943 S   0  0  0  0  0  0  0  0  0  0  0  0
    2.2119    3.1165   -6.0968 C   0  0  0  0  0  0  0  0  0  0  0  0
    6.5655    0.3937    5.8745 C   0  0  0  0  0  0  0  0  0  0  0  0
    5.7727    0.4783    4.3435 S   0  0  0  0  0  0  0  0  0  0  0  0
    4.7768    1.7748    4.9055 C   0  0  0  0  0  0  0  0  0  0  0  0
    3.8150    2.6338    4.3093 C   0  0  0  0  0  0  0  0  0  0  0  0
    3.2694    2.6180    3.0119 C   0  0  0  0  0  0  0  0  0  0  0  0
    3.3754    1.4387    2.1759 C   0  0  0  0  0  0  0  0  0  0  0  0
    3.1763    0.1351    2.5567 C   0  0  0  0  0  0  0  0  0  0  0  0
    3.3040   -0.7888    1.4878 C   0  0  0  0  0  0  0  0  0  0  0  0
    3.1315   -2.4817    1.7004 Cl  0  0  0  0  0  0  0  0  0  0  0  0
    3.5621   -0.2018    0.2847 C   0  0  0  0  0  0  0  0  0  0  0  0
    3.7623   -0.8701   -1.0297 C   0  0  0  0  0  0  0  0  0  0  0  0
    5.2265   -1.2705   -1.2242 C   0  0  0  0  0  0  0  0  0  0  0  0
    3.6848    1.5142    0.4657 S   0  0  0  0  0  0  0  0  0  0  0  0
    2.7135   -0.3660    4.1284 Cl  0  0  0  0  0  0  0  0  0  0  0  0
    2.5868    3.7645    2.6110 C   0  0  0  0  0  0  0  0  0  0  0  0
    2.2643    4.8049    3.5158 C   0  0  0  0  0  0  0  0  0  0  0  0
    2.6621    4.7343    4.8560 C   0  0  0  0  0  0  0  0  0  0  0  0
    2.3059    5.7880    5.7992 C   0  0  0  0  0  0  0  0  0  0  0  0
    3.1311    6.7139    6.3684 C   0  0  0  0  0  0  0  0  0  0  0  0
    4.8104    6.8186    6.0431 Cl  0  0  0  0  0  0  0  0  0  0  0  0
    2.4485    7.6206    7.2231 C   0  0  0  0  0  0  0  0  0  0  0  0
    3.2505    8.8929    8.0472 Cl  0  0  0  0  0  0  0  0  0  0  0  0
    1.1110    7.3777    7.3168 C   0  0  0  0  0  0  0  0  0  0  0  0
    0.0831    8.1658    8.0508 C   0  0  0  0  0  0  0  0  0  0  0  0
   -0.4740    9.2796    7.1605 C   0  0  0  0  0  0  0  0  0  0  0  0
    0.6735    6.0208    6.3382 S   0  0  0  0  0  0  0  0  0  0  0  0
    3.4727    3.6697    5.2151 C   0  0  0  0  0  0  0  0  0  0  0  0
    4.2158    3.4846    6.7888 S   0  0  0  0  0  0  0  0  0  0  0  0
    5.0992    2.1058    6.2124 C   0  0  0  0  0  0  0  0  0  0  0  0
    6.1125    1.3058    6.7737 C   0  0  0  0  0  0  0  0  0  0  0  0
    2.0795    4.1231    0.9712 S   0  0  0  0  0  0  0  0  0  0  0  0
    1.4426    5.6584    1.4828 C   0  0  0  0  0  0  0  0  0  0  0  0
    1.5888    5.8553    2.8478 C   0  0  0  0  0  0  0  0  0  0  0  0
    0.9495    7.3807    3.3307 S   0  0  0  0  0  0  0  0  0  0  0  0
    0.4856    7.7367    1.6763 C   0  0  0  0  0  0  0  0  0  0  0  0
   -0.2025    8.9460    1.3806 C   0  0  0  0  0  0  0  0  0  0  0  0
   -0.6014    9.9348    2.2541 C   0  0  0  0  0  0  0  0  0  0  0  0
   -1.3107   10.9706    1.6468 C   0  0  0  0  0  0  0  0  0  0  0  0
   -1.4750   10.8074    0.2881 C   0  0  0  0  0  0  0  0  0  0  0  0
   -2.1113   11.6009   -0.7144 C   0  0  0  0  0  0  0  0  0  0  0  0
   -1.8599   11.0651   -2.3515 S   0  0  0  0  0  0  0  0  0  0  0  0
   -2.9037   12.7454   -0.6974 C   0  0  0  0  0  0  0  0  0  0  0  0
   -3.3014   13.1683   -2.0084 C   0  0  0  0  0  0  0  0  0  0  0  0
   -4.0580   14.3988   -2.2684 C   0  0  0  0  0  0  0  0  0  0  0  0
   -4.3029   15.2083   -1.0767 C   0  0  0  0  0  0  0  0  0  0  0  0
   -4.8507   16.4661   -1.0895 C   0  0  0  0  0  0  0  0  0  0  0  0
   -5.3485   17.2593   -2.2426 C   0  0  0  0  0  0  0  0  0  0  0  0
   -6.8039   16.8998   -2.5560 C   0  0  0  0  0  0  0  0  0  0  0  0
   -4.9749   17.0984    0.5169 S   0  0  0  0  0  0  0  0  0  0  0  0
   -4.2979   15.6656    1.2132 C   0  0  0  0  0  0  0  0  0  0  0  0
   -4.1630   15.5545    2.6885 C   0  0  0  0  0  0  0  0  0  0  0  0
   -5.3842   14.8520    3.2892 C   0  0  0  0  0  0  0  0  0  0  0  0
   -3.9848   14.7495    0.2400 C   0  0  0  0  0  0  0  0  0  0  0  0
   -3.3681   13.4493    0.5049 C   0  0  0  0  0  0  0  0  0  0  0  0
   -3.2656   13.0033    1.6380 O   0  0  0  0  0  0  0  0  0  0  0  0
   -4.4301   14.7338   -3.3824 O   0  0  0  0  0  0  0  0  0  0  0  0
   -2.8350   12.3404   -3.0160 C   0  0  0  0  0  0  0  0  0  0  0  0
   -3.0389   12.2802   -4.4298 C   0  0  0  0  0  0  0  0  0  0  0  0
   -4.1155   12.6045   -5.2240 C   0  0  0  0  0  0  0  0  0  0  0  0
   -4.0152   12.1098   -6.5302 C   0  0  0  0  0  0  0  0  0  0  0  0
   -2.8519   11.4173   -6.7674 C   0  0  0  0  0  0  0  0  0  0  0  0
   -1.8429   11.4078   -5.3524 S   0  0  0  0  0  0  0  0  0  0  0  0
   -0.7093    9.3191   -0.2352 S   0  0  0  0  0  0  0  0  0  0  0  0
    0.8279    6.7219    0.8122 C   0  0  0  0  0  0  0  0  0  0  0  0
    5.0297   -5.9833   -0.9229 H   0  0  0  0  0  0  0  0  0  0  0  0
    4.3461   -4.3636   -0.7466 H   0  0  0  0  0  0  0  0  0  0  0  0
    6.1221   -5.7839    1.3056 H   0  0  0  0  0  0  0  0  0  0  0  0
    5.4529   -4.1617    1.4942 H   0  0  0  0  0  0  0  0  0  0  0  0
    6.6370   -4.4867    0.2227 H   0  0  0  0  0  0  0  0  0  0  0  0
   -1.6439  -12.6335    9.9491 H   0  0  0  0  0  0  0  0  0  0  0  0
    0.1252  -12.5146    9.8722 H   0  0  0  0  0  0  0  0  0  0  0  0
   -1.6082  -14.3018    8.0972 H   0  0  0  0  0  0  0  0  0  0  0  0
    0.1513  -14.1704    8.0042 H   0  0  0  0  0  0  0  0  0  0  0  0
   -0.6104  -14.8496    9.4489 H   0  0  0  0  0  0  0  0  0  0  0  0
   -1.1133   -3.7388    6.4268 H   0  0  0  0  0  0  0  0  0  0  0  0
   -0.4055  -15.5537    5.1368 H   0  0  0  0  0  0  0  0  0  0  0  0
   -0.6509  -18.0398    4.4536 H   0  0  0  0  0  0  0  0  0  0  0  0
    2.2580  -22.6330   -4.2908 H   0  0  0  0  0  0  0  0  0  0  0  0
    1.6112  -23.2086   -2.7330 H   0  0  0  0  0  0  0  0  0  0  0  0
   -0.6558  -22.5306   -3.3734 H   0  0  0  0  0  0  0  0  0  0  0  0
    0.0112  -23.6140   -4.5958 H   0  0  0  0  0  0  0  0  0  0  0  0
   -0.0668  -21.8756   -4.9105 H   0  0  0  0  0  0  0  0  0  0  0  0
    3.0183  -16.8967   -1.8773 H   0  0  0  0  0  0  0  0  0  0  0  0
    3.4224  -17.2571   -3.5750 H   0  0  0  0  0  0  0  0  0  0  0  0
    1.0190  -16.7903   -4.1850 H   0  0  0  0  0  0  0  0  0  0  0  0
    0.7028  -16.3768   -2.4919 H   0  0  0  0  0  0  0  0  0  0  0  0
    1.8099  -15.3908   -3.4484 H   0  0  0  0  0  0  0  0  0  0  0  0
   -1.4488  -22.3277    3.9487 H   0  0  0  0  0  0  0  0  0  0  0  0
   -2.1577  -24.8203    4.0294 H   0  0  0  0  0  0  0  0  0  0  0  0
   -1.6238  -26.0278    1.7649 H   0  0  0  0  0  0  0  0  0  0  0  0
    1.8399  -13.4565    1.3937 H   0  0  0  0  0  0  0  0  0  0  0  0
    4.6054   11.8414   -7.6959 H   0  0  0  0  0  0  0  0  0  0  0  0
    4.6160   10.6721   -6.3607 H   0  0  0  0  0  0  0  0  0  0  0  0
    6.8451   10.7791   -7.4507 H   0  0  0  0  0  0  0  0  0  0  0  0
    6.1211    9.1833   -7.6832 H   0  0  0  0  0  0  0  0  0  0  0  0
    6.1201   10.3556   -9.0047 H   0  0  0  0  0  0  0  0  0  0  0  0
   -5.1928    0.9668  -10.2241 H   0  0  0  0  0  0  0  0  0  0  0  0
   -5.8919    2.4053   -9.4545 H   0  0  0  0  0  0  0  0  0  0  0  0
   -5.0793    1.6011   -7.2333 H   0  0  0  0  0  0  0  0  0  0  0  0
   -4.3924    0.1685   -8.0034 H   0  0  0  0  0  0  0  0  0  0  0  0
   -6.1426    0.4102   -7.9929 H   0  0  0  0  0  0  0  0  0  0  0  0
   -4.3584    9.7068   -8.4953 H   0  0  0  0  0  0  0  0  0  0  0  0
    1.1298   -0.5430   -4.8990 H   0  0  0  0  0  0  0  0  0  0  0  0
    0.5463   -0.8512   -2.3904 H   0  0  0  0  0  0  0  0  0  0  0  0
   -2.8340    4.6401    4.3637 H   0  0  0  0  0  0  0  0  0  0  0  0
   -1.1711    5.1770    4.4431 H   0  0  0  0  0  0  0  0  0  0  0  0
   -2.6395    6.7942    5.5946 H   0  0  0  0  0  0  0  0  0  0  0  0
   -1.9362    7.5603    4.1659 H   0  0  0  0  0  0  0  0  0  0  0  0
   -3.6117    7.0078    4.1348 H   0  0  0  0  0  0  0  0  0  0  0  0
   -2.6720    7.4155   -1.1555 H   0  0  0  0  0  0  0  0  0  0  0  0
   -1.5624    6.2390   -1.8959 H   0  0  0  0  0  0  0  0  0  0  0  0
   -3.8397    6.0819   -2.8769 H   0  0  0  0  0  0  0  0  0  0  0  0
   -4.5077    5.6977   -1.2854 H   0  0  0  0  0  0  0  0  0  0  0  0
   -3.3775    4.5834   -2.0684 H   0  0  0  0  0  0  0  0  0  0  0  0
   -0.7257    1.1980    4.4822 H   0  0  0  0  0  0  0  0  0  0  0  0
   -0.6761   -0.9356    5.9527 H   0  0  0  0  0  0  0  0  0  0  0  0
    3.0956    3.1572   -5.4876 H   0  0  0  0  0  0  0  0  0  0  0  0
    7.3349   -0.3396    6.0135 H   0  0  0  0  0  0  0  0  0  0  0  0
    3.4549   -0.1953   -1.8302 H   0  0  0  0  0  0  0  0  0  0  0  0
    3.1319   -1.7615   -1.0631 H   0  0  0  0  0  0  0  0  0  0  0  0
    5.8627   -0.3890   -1.2130 H   0  0  0  0  0  0  0  0  0  0  0  0
    5.5426   -1.9367   -0.4258 H   0  0  0  0  0  0  0  0  0  0  0  0
    5.3509   -1.7786   -2.1767 H   0  0  0  0  0  0  0  0  0  0  0  0
    0.5411    8.6033    8.9398 H   0  0  0  0  0  0  0  0  0  0  0  0
   -0.7278    7.5058    8.3624 H   0  0  0  0  0  0  0  0  0  0  0  0
    0.3239    9.9549    6.8626 H   0  0  0  0  0  0  0  0  0  0  0  0
   -0.9242    8.8562    6.2661 H   0  0  0  0  0  0  0  0  0  0  0  0
   -1.2286    9.8470    7.6982 H   0  0  0  0  0  0  0  0  0  0  0  0
    6.4829    1.4108    7.7762 H   0  0  0  0  0  0  0  0  0  0  0  0
   -0.3818    9.8980    3.3068 H   0  0  0  0  0  0  0  0  0  0  0  0
   -1.7110   11.8090    2.1831 H   0  0  0  0  0  0  0  0  0  0  0  0
   -5.2745   18.3244   -2.0138 H   0  0  0  0  0  0  0  0  0  0  0  0
   -4.7361   17.0320   -3.1171 H   0  0  0  0  0  0  0  0  0  0  0  0
   -7.1643   17.5045   -3.3834 H   0  0  0  0  0  0  0  0  0  0  0  0
   -7.4377   17.0768   -1.6894 H   0  0  0  0  0  0  0  0  0  0  0  0
   -6.8715   15.8520   -2.8362 H   0  0  0  0  0  0  0  0  0  0  0  0
   -4.0608   16.5513    3.1223 H   0  0  0  0  0  0  0  0  0  0  0  0
   -3.2735   14.9657    2.9198 H   0  0  0  0  0  0  0  0  0  0  0  0
   -5.4502   13.8385    2.9030 H   0  0  0  0  0  0  0  0  0  0  0  0
   -6.2965   15.3890    3.0380 H   0  0  0  0  0  0  0  0  0  0  0  0
   -5.2904   14.8067    4.3707 H   0  0  0  0  0  0  0  0  0  0  0  0
   -4.9614   13.1559   -4.8603 H   0  0  0  0  0  0  0  0  0  0  0  0
   -4.7779   12.2442   -7.2759 H   0  0  0  0  0  0  0  0  0  0  0  0
    0.6397    6.7515   -0.2453 H   0  0  0  0  0  0  0  0  0  0  0  0
  1  2  1  0  0  0  0
  2  3  1  0  0  0  0
  3  4  1  0  0  0  0
  4  5  2  0  0  0  0
  5  6  1  0  0  0  0
  6  7  2  0  0  0  0
  7  8  1  0  0  0  0
  8  9  1  0  0  0  0
  8 10  2  0  0  0  0
 10 11  1  0  0  0  0
 11 12  1  0  0  0  0
 10 13  1  0  0  0  0
  6 13  1  0  0  0  0
  7 14  1  0  0  0  0
  5 15  1  0  0  0  0
 15 16  2  0  0  0  0
 16 17  1  0  0  0  0
 17 18  1  0  0  0  0
 18 19  2  0  0  0  0
 19 20  1  0  0  0  0
 19 21  1  0  0  0  0
 21 22  1  0  0  0  0
 21 23  2  0  0  0  0
 23 24  1  0  0  0  0
 24 25  1  0  0  0  0
 23 26  1  0  0  0  0
 18 26  1  0  0  0  0
 17 27  2  0  0  0  0
  4 27  1  0  0  0  0
 27 28  1  0  0  0  0
 28 29  1  0  0  0  0
  3 29  2  0  0  0  0
 29 30  1  0  0  0  0
  1 30  2  0  0  0  0
 15 31  1  0  0  0  0
 31 32  1  0  0  0  0
 32 33  2  0  0  0  0
 16 33  1  0  0  0  0
 33 34  1  0  0  0  0
 34 35  1  0  0  0  0
 35 36  1  0  0  0  0
 36 37  2  0  0  0  0
 37 38  1  0  0  0  0
 38 39  2  0  0  0  0
 39 40  1  0  0  0  0
 40 41  1  0  0  0  0
 40 42  2  0  0  0  0
 42 43  1  0  0  0  0
 43 44  1  0  0  0  0
 44 45  1  0  0  0  0
 45 46  2  0  0  0  0
 46 47  1  0  0  0  0
 47 48  1  0  0  0  0
 46 49  1  0  0  0  0
 49 50  1  0  0  0  0
 50 51  1  0  0  0  0
 51 52  1  0  0  0  0
 50 53  2  0  0  0  0
 45 53  1  0  0  0  0
 53 54  1  0  0  0  0
 42 54  1  0  0  0  0
 54 55  2  0  0  0  0
 44 56  2  0  0  0  0
 43 57  2  0  0  0  0
 41 57  1  0  0  0  0
 57 58  1  0  0  0  0
 58 59  2  0  0  0  0
 59 60  1  0  0  0  0
 60 61  2  0  0  0  0
 61 62  1  0  0  0  0
 58 62  1  0  0  0  0
 39 63  1  0  0  0  0
 36 63  1  0  0  0  0
 35 64  2  0  0  0  0
 32 64  1  0  0  0  0
 65 66  1  0  0  0  0
 66 67  1  0  0  0  0
 67 68  1  0  0  0  0
 68 69  2  0  0  0  0
 69 70  1  0  0  0  0
 70 71  2  0  0  0  0
 71 72  1  0  0  0  0
 72 73  1  0  0  0  0
 72 74  2  0  0  0  0
 74 75  1  0  0  0  0
 75 76  1  0  0  0  0
 74 77  1  0  0  0  0
 70 77  1  0  0  0  0
 71 78  1  0  0  0  0
 69 79  1  0  0  0  0
 79 80  2  0  0  0  0
 80 81  1  0  0  0  0
 81 82  1  0  0  0  0
 82 83  2  0  0  0  0
 83 84  1  0  0  0  0
 83 85  1  0  0  0  0
 85 86  1  0  0  0  0
 85 87  2  0  0  0  0
 87 88  1  0  0  0  0
 88 89  1  0  0  0  0
 87 90  1  0  0  0  0
 82 90  1  0  0  0  0
 81 91  2  0  0  0  0
 68 91  1  0  0  0  0
 91 92  1  0  0  0  0
 92 93  1  0  0  0  0
 67 93  2  0  0  0  0
 93 94  1  0  0  0  0
 65 94  2  0  0  0  0
 79 95  1  0  0  0  0
 95 96  1  0  0  0  0
 96 97  2  0  0  0  0
 80 97  1  0  0  0  0
 97 98  1  0  0  0  0
 98 99  1  0  0  0  0
 99100  1  0  0  0  0
100101  2  0  0  0  0
101102  1  0  0  0  0
102103  2  0  0  0  0
103104  1  0  0  0  0
104105  1  0  0  0  0
104106  2  0  0  0  0
106107  1  0  0  0  0
107108  1  0  0  0  0
108109  1  0  0  0  0
109110  2  0  0  0  0
110111  1  0  0  0  0
111112  1  0  0  0  0
110113  1  0  0  0  0
113114  1  0  0  0  0
114115  1  0  0  0  0
115116  1  0  0  0  0
114117  2  0  0  0  0
109117  1  0  0  0  0
117118  1  0  0  0  0
106118  1  0  0  0  0
118119  2  0  0  0  0
108120  2  0  0  0  0
107121  2  0  0  0  0
105121  1  0  0  0  0
121122  1  0  0  0  0
122123  2  0  0  0  0
123124  1  0  0  0  0
124125  2  0  0  0  0
125126  1  0  0  0  0
122126  1  0  0  0  0
103127  1  0  0  0  0
100127  1  0  0  0  0
 99128  2  0  0  0  0
 96128  1  0  0  0  0
129130  1  0  0  0  0
130131  1  0  0  0  0
131132  1  0  0  0  0
132133  2  0  0  0  0
133134  1  0  0  0  0
134135  2  0  0  0  0
135136  1  0  0  0  0
136137  1  0  0  0  0
136138  2  0  0  0  0
138139  1  0  0  0  0
139140  1  0  0  0  0
138141  1  0  0  0  0
134141  1  0  0  0  0
135142  1  0  0  0  0
133143  1  0  0  0  0
143144  2  0  0  0  0
144145  1  0  0  0  0
145146  1  0  0  0  0
146147  2  0  0  0  0
147148  1  0  0  0  0
147149  1  0  0  0  0
149150  1  0  0  0  0
149151  2  0  0  0  0
151152  1  0  0  0  0
152153  1  0  0  0  0
151154  1  0  0  0  0
146154  1  0  0  0  0
145155  2  0  0  0  0
132155  1  0  0  0  0
155156  1  0  0  0  0
156157  1  0  0  0  0
131157  2  0  0  0  0
157158  1  0  0  0  0
129158  2  0  0  0  0
143159  1  0  0  0  0
159160  1  0  0  0  0
160161  2  0  0  0  0
144161  1  0  0  0  0
161162  1  0  0  0  0
162163  1  0  0  0  0
163164  1  0  0  0  0
164165  2  0  0  0  0
165166  1  0  0  0  0
166167  2  0  0  0  0
167168  1  0  0  0  0
168169  1  0  0  0  0
168170  2  0  0  0  0
170171  1  0  0  0  0
171172  1  0  0  0  0
172173  1  0  0  0  0
173174  2  0  0  0  0
174175  1  0  0  0  0
175176  1  0  0  0  0
174177  1  0  0  0  0
177178  1  0  0  0  0
178179  1  0  0  0  0
179180  1  0  0  0  0
178181  2  0  0  0  0
173181  1  0  0  0  0
181182  1  0  0  0  0
170182  1  0  0  0  0
182183  2  0  0  0  0
172184  2  0  0  0  0
171185  2  0  0  0  0
169185  1  0  0  0  0
185186  1  0  0  0  0
186187  2  0  0  0  0
187188  1  0  0  0  0
188189  2  0  0  0  0
189190  1  0  0  0  0
186190  1  0  0  0  0
167191  1  0  0  0  0
164191  1  0  0  0  0
163192  2  0  0  0  0
160192  1  0  0  0  0
125  1  1  0  0  0  0
189 65  1  0  0  0  0
 11193  1  0  0  0  0
 11194  1  0  0  0  0
 12195  1  0  0  0  0
 12196  1  0  0  0  0
 12197  1  0  0  0  0
 24198  1  0  0  0  0
 24199  1  0  0  0  0
 25200  1  0  0  0  0
 25201  1  0  0  0  0
 25202  1  0  0  0  0
 30203  1  0  0  0  0
 37204  1  0  0  0  0
 38205  1  0  0  0  0
 47206  1  0  0  0  0
 47207  1  0  0  0  0
 48208  1  0  0  0  0
 48209  1  0  0  0  0
 48210  1  0  0  0  0
 51211  1  0  0  0  0
 51212  1  0  0  0  0
 52213  1  0  0  0  0
 52214  1  0  0  0  0
 52215  1  0  0  0  0
 59216  1  0  0  0  0
 60217  1  0  0  0  0
 61218  1  0  0  0  0
 64219  1  0  0  0  0
 75220  1  0  0  0  0
 75221  1  0  0  0  0
 76222  1  0  0  0  0
 76223  1  0  0  0  0
 76224  1  0  0  0  0
 88225  1  0  0  0  0
 88226  1  0  0  0  0
 89227  1  0  0  0  0
 89228  1  0  0  0  0
 89229  1  0  0  0  0
 94230  1  0  0  0  0
101231  1  0  0  0  0
102232  1  0  0  0  0
111233  1  0  0  0  0
111234  1  0  0  0  0
112235  1  0  0  0  0
112236  1  0  0  0  0
112237  1  0  0  0  0
115238  1  0  0  0  0
115239  1  0  0  0  0
116240  1  0  0  0  0
116241  1  0  0  0  0
116242  1  0  0  0  0
123243  1  0  0  0  0
124244  1  0  0  0  0
128245  1  0  0  0  0
129246  1  0  0  0  0
139247  1  0  0  0  0
139248  1  0  0  0  0
140249  1  0  0  0  0
140250  1  0  0  0  0
140251  1  0  0  0  0
152252  1  0  0  0  0
152253  1  0  0  0  0
153254  1  0  0  0  0
153255  1  0  0  0  0
153256  1  0  0  0  0
158257  1  0  0  0  0
165258  1  0  0  0  0
166259  1  0  0  0  0
175260  1  0  0  0  0
175261  1  0  0  0  0
176262  1  0  0  0  0
176263  1  0  0  0  0
176264  1  0  0  0  0
179265  1  0  0  0  0
179266  1  0  0  0  0
180267  1  0  0  0  0
180268  1  0  0  0  0
180269  1  0  0  0  0
187270  1  0  0  0  0
188271  1  0  0  0  0
192272  1  0  0  0  0
M  END
