272
PDBT-Cl.mol
C          5.49260       -4.80950       -3.46170
C          5.12860       -5.92810       -2.74180
C          4.76090       -5.60170       -1.43080
S          4.00540       -6.49560       -0.13640
C          4.86030       -4.24860       -1.13550
S          5.46440       -3.35590       -2.47920
C          4.24660       -3.87230        0.08320
C          3.67510       -4.99750        0.72250
C          2.82360       -4.88870        1.81570
C          2.23820       -6.08600        2.39820
S          0.51710       -6.31020        2.46200
C          0.68690       -7.88340        3.15750
C         -0.50860       -8.67230        3.56040
C         -1.02490       -8.21190        4.92560
C          2.00690       -8.18870        3.31230
Cl         2.55720       -9.67390        3.98530
C          2.89430       -7.18410        2.86740
C          2.51820       -3.59270        2.26740
C          1.66810       -3.14800        3.31560
S          0.66240       -3.90390        4.50170
C          1.61710       -1.76470        3.44840
S          2.61370       -0.94140        2.29450
C          0.76800       -1.30540        4.45540
C          0.16110       -2.34530        5.12410
C         -0.81000       -2.24420        6.15840
S         -1.41890       -3.63700        6.99620
C         -1.40740       -1.07600        6.59850
C         -2.35360       -1.30250        7.58240
C         -2.50240       -2.64000        7.92710
C         -3.43740       -3.09890        8.88770
S         -4.46560       -1.89400        9.62280
C         -5.31420       -3.07250       10.59230
C         -6.35280       -2.57910       11.42850
C         -6.72120       -1.24630       11.49220
C         -7.76850       -0.99540       12.38010
C         -8.19810       -2.13640       12.99370
S         -7.33930       -3.53250       12.50300
C         -4.80230       -4.34120       10.35680
C         -5.27470       -5.54580       11.02080
C         -4.58820       -6.77120       10.62310
C         -4.89390       -8.02570       11.08870
C         -5.90950       -8.43090       12.09450
C         -5.37660       -8.23390       13.51660
S         -3.86160       -9.21730       10.37440
C         -3.01870       -8.03570        9.43490
C         -1.90850       -8.40980        8.52350
C         -1.74910       -9.91290        8.34930
C         -3.52130       -6.77840        9.67050
O         -6.17440       -5.54300       11.85620
C         -3.74260       -4.35630        9.39300
C         -3.05260       -5.57210        9.00250
O         -2.14730       -5.59650        8.16950
C          3.11250       -2.47410        1.62890
C          3.99790       -2.58200        0.57200
C          4.59430       -1.43240       -0.08270
S          3.61320       -0.16750       -0.76030
C          5.91180       -1.23310       -0.36360
C          6.12550       -0.08280       -1.15470
Cl         7.69680        0.36890       -1.68040
C          4.98890        0.59590       -1.48290
C          4.81150        1.73780       -2.41950
C          4.20560        1.26120       -3.74200
C         -6.39270        4.23340       -3.36430
C         -5.34010        5.00890       -3.79040
C         -5.03590        4.77830       -5.13400
S         -3.68530        5.25500       -6.11670
C         -5.85350        3.84370       -5.75830
S         -7.07330        3.27400       -4.66900
C         -5.36590        3.40560       -7.01850
C         -4.12760        4.03860       -7.29900
C         -3.29140        3.62210       -8.32130
C         -1.97940        4.21020       -8.54950
S         -1.53290        4.84160      -10.10690
C          0.07400        5.19640       -9.57160
C          1.06960        5.81990      -10.48560
C          0.74860        7.29440      -10.73690
C          0.21440        4.85480       -8.25930
Cl         1.68400        5.04490       -7.38530
C         -0.94390        4.30130       -7.66940
C         -3.70040        2.49370       -9.04600
C         -2.90790        1.67860       -9.88770
S         -1.22230        1.65360      -10.23630
C         -3.52920        0.51110      -10.30790
S         -5.19170        0.44340       -9.78350
C         -2.65650       -0.42670      -10.87520
C         -1.35190        0.01990      -10.85840
C         -0.13890       -0.71050      -11.00210
S          1.34180        0.07460      -10.53970
C          0.05170       -2.06030      -11.23540
C          1.34140       -2.47300      -10.92450
C          2.16610       -1.45460      -10.46510
C          3.37240       -1.63750       -9.74370
S          3.79000       -3.26680       -9.25900
C          4.97620       -2.69910       -8.10470
C          5.41650       -3.61300       -7.11230
C          5.18290       -4.97970       -7.11170
C          5.31540       -5.57110       -5.86140
C          5.62180       -4.65470       -4.87090
S          5.92460       -3.07790       -5.53710
C          5.13030       -1.32380       -8.20950
C          6.12040       -0.56240       -7.46220
C          6.16380        0.85920       -7.79200
C          7.07240        1.75390       -7.28370
C          8.24400        1.51040       -6.40330
C          7.83580        1.48230       -4.92980
S          6.70200        3.36370       -7.80100
C          5.33790        2.83930       -8.72530
C          4.52920        3.82510       -9.48790
C          5.00930        3.92340      -10.93840
C          5.19280        1.47580       -8.64660
O          6.84770       -1.06820       -6.61250
C          4.22050       -0.72210       -9.13010
C          4.17890        0.71100       -9.36280
O          3.37420        1.23950      -10.12760
C         -4.96740        1.90070       -8.82410
C         -5.84040        2.36890       -7.84760
C         -7.15370        1.80460       -7.61480
S         -7.45570        0.09270       -7.65400
C         -8.29800        2.49290       -7.32600
C         -9.40800        1.64300       -7.13970
Cl       -10.97640        2.24490       -6.76750
C         -9.12710        0.31370       -7.26810
C        -10.05330       -0.84780       -7.17520
C        -10.50740       -1.29950       -8.56540
C         11.50010        1.76340        0.41180
C         11.05380        0.80210        1.26080
C          9.66950        0.93160        1.48300
S          8.53660        0.06990        2.47520
C          9.08070        1.97540        0.79050
S         10.25820        2.82920       -0.14010
C          7.69060        2.12400        1.04350
C          7.25400        1.16190        1.98780
C          5.97240        1.15010        2.53510
C          5.60860        0.16420        3.53670
S          6.05840       -1.50950        3.34510
C          5.38930       -1.93830        4.88100
C          5.53000       -3.31180        5.44340
C          4.27380       -4.16280        5.26190
C          4.82250       -0.84140        5.46210
Cl         4.02800       -0.89530        6.98670
C          4.95500        0.35140        4.71920
C          5.07560        2.13240        2.07490
C          3.71420        2.38490        2.40350
S          2.59920        1.83240        3.60490
C          3.10370        3.32560        1.58310
S          4.19610        4.02970        0.43660
C          1.74750        3.54040        1.84200
C          1.31380        2.79630        2.91170
C         -0.01860        2.71070        3.40740
S         -1.33710        3.12060        2.36090
C         -0.48290        2.28620        4.63210
C         -1.87660        2.28410        4.73500
C         -2.51580        2.69300        3.58430
C         -3.88610        2.80750        3.19940
S         -4.12550        3.50580        1.62500
C         -5.84490        3.27070        1.67330
C         -6.51700        3.52720        0.44030
C         -7.67910        3.02690       -0.10650
C         -7.80330        3.27350       -1.47680
C         -6.75270        3.98710       -2.00870
S         -5.60930        4.40570       -0.76850
C         -6.22130        2.73020        2.89530
C         -7.61930        2.53590        3.29460
C         -7.78830        1.91770        4.60860
C         -9.00080        1.62670        5.18190
C        -10.36950        1.83550        4.64240
C        -10.79520        0.64600        3.77660
S         -8.78690        0.85000        6.71410
C         -7.06350        0.92530        6.59510
C         -6.22230        0.39390        7.69860
C         -5.75090        1.52060        8.62180
C         -6.67850        1.53460        5.42590
O         -8.56380        2.87230        2.59600
C         -5.10950        2.44340        3.75570
C         -5.28610        1.78110        5.05240
O         -4.35890        1.45370        5.77970
C          5.48850        3.01340        1.04080
C          6.77970        3.05630        0.53090
C          7.13210        4.05020       -0.47200
S          7.83140        3.62040       -2.00300
C          6.91400        5.39500       -0.40190
C          7.31730        6.07190       -1.57300
Cl         7.17240        7.77740       -1.75320
C          7.83220        5.26140       -2.54180
C          8.27920        5.62080       -3.91600
C          7.08910        5.69270       -4.87630
H          5.08230       -6.91830       -3.15410
H         -0.23500       -9.72830        3.60780
H         -1.29560       -8.54970        2.81380
H         -1.29810       -7.15960        4.89500
H         -0.25370       -8.34230        5.68070
H         -1.89770       -8.79550        5.20690
H          3.96410       -7.26860        2.91900
H          0.60650       -0.26790        4.67520
H         -1.18260       -0.10330        6.20410
H         -2.93280       -0.51840        8.03830
H         -6.23750       -0.48330       10.90840
H         -8.18260       -0.01840       12.55540
H         -8.98430       -2.22770       13.71750
H         -6.17420       -9.47930       11.94260
H         -6.79890       -7.81060       11.96780
H         -4.46040       -8.80170       13.66550
H         -6.11730       -8.56810       14.23770
H         -5.17460       -7.18060       13.69110
H         -0.98160       -7.97500        8.91230
H         -2.08160       -7.92330        7.55930
H         -2.65810      -10.34980        7.94110
H         -0.92820      -10.12660        7.67030
H         -1.53920      -10.39040        9.30450
H          6.70170       -1.87550       -0.02080
H          4.15790        2.49110       -1.97430
H          5.78660        2.18820       -2.60530
H          3.21870        0.83620       -3.57400
H          4.11270        2.09520       -4.43320
H          4.83560        0.49950       -4.19610
H         -4.78670        5.66440       -3.14350
H          1.07470        5.28190      -11.43620
H          2.05830        5.72990      -10.03230
H          1.48760        7.73120      -11.40360
H         -0.23440        7.39410      -11.19140
H          0.75490        7.84680       -9.80020
H         -0.98810        3.96170       -6.65120
H         -2.95230       -1.40100      -11.21600
H         -0.72370       -2.72530      -11.57110
H          1.67100       -3.49660      -10.97620
H          4.87860       -5.51020       -7.99760
H          5.13830       -6.61450       -5.67290
H          8.98400        2.29710       -6.56530
H          8.68370        0.54460       -6.65950
H          7.30760        2.39330       -4.65930
H          8.71790        1.39420       -4.30240
H          7.19310        0.62700       -4.74450
H          3.48680        3.50010       -9.48530
H          4.60480        4.80270       -9.00680
H          6.06210        4.19590      -10.97660
H          4.87120        2.96770      -11.43660
H          4.43280        4.67620      -11.46910
H         -8.35990        3.56460       -7.28270
H         -9.54940       -1.67590       -6.67280
H        -10.92230       -0.55690       -6.58180
H        -11.02860       -0.49130       -9.07280
H        -11.17970       -2.14920       -8.48190
H         -9.64850       -1.58990       -9.16600
H         12.50160        1.91890        0.06270
H         11.67210        0.04660        1.70820
H          6.37590       -3.80590        4.96240
H          5.74520       -3.21930        6.51140
H          4.07450       -4.32350        4.20610
H          3.41490       -3.67170        5.71170
H          4.40660       -5.13010        5.73930
H          4.63730        1.30810        5.08870
H          1.11590        4.20740        1.28480
H          0.18000        2.01210        5.43530
H         -2.41360        1.98660        5.61520
H         -8.39930        2.47490        0.46680
H         -8.62230        2.91720       -2.07650
H        -10.37260        2.73770        4.02880
H        -11.07300        1.95610        5.46860
H        -11.80530        0.79960        3.40740
H        -10.12560        0.54930        2.92600
H        -10.76840       -0.27650        4.35320
H         -5.34660       -0.09420        7.26620
H         -6.79430       -0.33830        8.27220
H         -6.60120        2.03480        9.06460
H         -5.13080        1.11330        9.41630
H         -5.15910        2.23600        8.05750
H          6.50280        5.89230        0.45710
H          8.77720        6.59240       -3.88480
H          8.99190        4.87450       -4.27070
H          7.42920        5.93730       -5.87900
H          6.38660        6.45470       -4.54890
H          6.56920        4.73800       -4.91060
