
     RDKit          3D

122139  0  0  0  0  0  0  0  0999 V2000
   11.1983   -2.4638   -1.0141 C   0  0  0  0  0  0  0  0  0  0  0  0
   10.6047   -2.6690    0.2433 C   0  0  0  0  0  0  0  0  0  0  0  0
    9.5426   -1.8444    0.6113 C   0  0  0  0  0  0  0  0  0  0  0  0
    8.7353   -1.8398    1.8260 C   0  0  0  0  0  0  0  0  0  0  0  0
    8.8578   -2.6068    2.8165 O   0  0  0  0  0  0  0  0  0  0  0  0
    7.7494   -0.7773    1.6610 C   0  0  0  0  0  0  0  0  0  0  0  0
    7.9506   -0.1794    0.4284 C   0  0  0  0  0  0  0  0  0  0  0  0
    9.0747   -0.8466   -0.2293 C   0  0  0  0  0  0  0  0  0  0  0  0
    9.6478   -0.6323   -1.4830 C   0  0  0  0  0  0  0  0  0  0  0  0
   10.7221   -1.4509   -1.8740 C   0  0  0  0  0  0  0  0  0  0  0  0
    7.1244    0.8524   -0.0194 C   0  0  0  0  0  0  0  0  0  0  0  0
    6.0689    1.2677    0.8106 C   0  0  0  0  0  0  0  0  0  0  0  0
    5.8565    0.6496    2.0661 C   0  0  0  0  0  0  0  0  0  0  0  0
    6.7117   -0.3827    2.5012 C   0  0  0  0  0  0  0  0  0  0  0  0
    4.6821    1.0065    2.8771 C   0  0  0  0  0  0  0  0  0  0  0  0
    4.7377    1.9318    3.9477 C   0  0  0  0  0  0  0  0  0  0  0  0
    5.8503    2.6768    4.3510 C   0  0  0  0  0  0  0  0  0  0  0  0
    6.9863    2.6561    3.8086 O   0  0  0  0  0  0  0  0  0  0  0  0
    5.4569    3.6190    5.6873 S   0  0  0  0  0  0  0  0  0  0  0  0
    3.8606    3.0970    5.7848 C   0  0  0  0  0  0  0  0  0  0  0  0
    3.0423    3.4833    6.6596 O   0  0  0  0  0  0  0  0  0  0  0  0
    3.5957    2.1790    4.7649 C   0  0  0  0  0  0  0  0  0  0  0  0
    2.3728    1.5073    4.5263 C   0  0  0  0  0  0  0  0  0  0  0  0
    2.3484    0.6120    3.4434 C   0  0  0  0  0  0  0  0  0  0  0  0
    3.4525    0.3728    2.6561 C   0  0  0  0  0  0  0  0  0  0  0  0
    3.0516   -0.5666    1.7204 C   0  0  0  0  0  0  0  0  0  0  0  0
    3.7771   -1.0731    0.8225 O   0  0  0  0  0  0  0  0  0  0  0  0
    1.7855   -0.8822    1.8976 O   0  0  0  0  0  0  0  0  0  0  0  0
    1.3389   -0.1847    2.9214 C   0  0  0  0  0  0  0  0  0  0  0  0
    0.1556   -0.2484    3.3444 O   0  0  0  0  0  0  0  0  0  0  0  0
    1.1756    1.6423    5.3692 C   0  0  0  0  0  0  0  0  0  0  0  0
    0.3880    2.7223    5.2770 C   0  0  0  0  0  0  0  0  0  0  0  0
   -1.0847    2.6287    5.4535 C   0  0  0  0  0  0  0  0  0  0  0  0
   -1.6849    1.5623    6.1650 C   0  0  0  0  0  0  0  0  0  0  0  0
   -3.0053    1.2258    5.8787 C   0  0  0  0  0  0  0  0  0  0  0  0
   -3.5900   -0.1071    5.9798 C   0  0  0  0  0  0  0  0  0  0  0  0
   -3.1232   -1.0721    6.6449 O   0  0  0  0  0  0  0  0  0  0  0  0
   -4.6525   -0.1847    4.9851 C   0  0  0  0  0  0  0  0  0  0  0  0
   -4.7840    1.0670    4.4076 C   0  0  0  0  0  0  0  0  0  0  0  0
   -3.7482    1.9507    4.9584 C   0  0  0  0  0  0  0  0  0  0  0  0
   -3.2271    3.1023    4.3662 C   0  0  0  0  0  0  0  0  0  0  0  0
   -1.8941    3.4500    4.6330 C   0  0  0  0  0  0  0  0  0  0  0  0
   -5.4603    1.2213    3.2047 C   0  0  0  0  0  0  0  0  0  0  0  0
   -5.9078    0.0769    2.5313 C   0  0  0  0  0  0  0  0  0  0  0  0
   -5.6700   -1.2391    3.0426 C   0  0  0  0  0  0  0  0  0  0  0  0
   -5.0988   -1.3364    4.3387 C   0  0  0  0  0  0  0  0  0  0  0  0
   -5.6867   -2.4277    2.0951 C   0  0  0  0  0  0  0  0  0  0  0  0
   -4.5676   -3.3076    2.0900 C   0  0  0  0  0  0  0  0  0  0  0  0
   -4.1677   -4.1858    3.1023 C   0  0  0  0  0  0  0  0  0  0  0  0
   -4.8271   -4.4670    4.1379 O   0  0  0  0  0  0  0  0  0  0  0  0
   -2.7535   -4.9772    2.6556 S   0  0  0  0  0  0  0  0  0  0  0  0
   -2.6676   -4.2905    1.1268 C   0  0  0  0  0  0  0  0  0  0  0  0
   -1.7979   -4.5914    0.2679 O   0  0  0  0  0  0  0  0  0  0  0  0
   -3.7487   -3.4271    0.9332 C   0  0  0  0  0  0  0  0  0  0  0  0
   -4.1314   -2.8158   -0.2854 C   0  0  0  0  0  0  0  0  0  0  0  0
   -5.4586   -2.3553   -0.3353 C   0  0  0  0  0  0  0  0  0  0  0  0
   -6.2326   -2.2419    0.8062 C   0  0  0  0  0  0  0  0  0  0  0  0
   -7.4264   -1.6778    0.3892 C   0  0  0  0  0  0  0  0  0  0  0  0
   -8.4026   -1.3926    1.1336 O   0  0  0  0  0  0  0  0  0  0  0  0
   -7.4009   -1.4451   -0.9072 O   0  0  0  0  0  0  0  0  0  0  0  0
   -6.2254   -1.8289   -1.3618 C   0  0  0  0  0  0  0  0  0  0  0  0
   -5.8749   -1.7154   -2.5652 O   0  0  0  0  0  0  0  0  0  0  0  0
   -3.1756   -2.5283   -1.3771 C   0  0  0  0  0  0  0  0  0  0  0  0
   -2.0036   -1.9406   -1.1034 C   0  0  0  0  0  0  0  0  0  0  0  0
   -1.2087   -1.2961   -2.1573 C   0  0  0  0  0  0  0  0  0  0  0  0
   -1.2992    0.0958   -2.4039 C   0  0  0  0  0  0  0  0  0  0  0  0
   -2.0713    1.0230   -1.7007 C   0  0  0  0  0  0  0  0  0  0  0  0
   -2.8039    0.7711   -0.7092 O   0  0  0  0  0  0  0  0  0  0  0  0
   -1.8903    2.5566   -2.3656 S   0  0  0  0  0  0  0  0  0  0  0  0
   -0.8248    2.0688   -3.5712 C   0  0  0  0  0  0  0  0  0  0  0  0
   -0.3075    2.8499   -4.4116 O   0  0  0  0  0  0  0  0  0  0  0  0
   -0.5876    0.6948   -3.4791 C   0  0  0  0  0  0  0  0  0  0  0  0
    0.2375   -0.0808   -4.3304 C   0  0  0  0  0  0  0  0  0  0  0  0
    0.3725   -1.4387   -4.0061 C   0  0  0  0  0  0  0  0  0  0  0  0
   -0.3376   -2.0271   -2.9810 C   0  0  0  0  0  0  0  0  0  0  0  0
   -0.0213   -3.3723   -3.0326 C   0  0  0  0  0  0  0  0  0  0  0  0
   -0.4713   -4.2639   -2.2675 O   0  0  0  0  0  0  0  0  0  0  0  0
    0.8210   -3.6112   -4.0166 O   0  0  0  0  0  0  0  0  0  0  0  0
    1.0674   -2.4661   -4.6184 C   0  0  0  0  0  0  0  0  0  0  0  0
    1.8311   -2.3492   -5.6141 O   0  0  0  0  0  0  0  0  0  0  0  0
    0.7579    0.4403   -5.6116 C   0  0  0  0  0  0  0  0  0  0  0  0
   -0.0475    0.7148   -6.6505 C   0  0  0  0  0  0  0  0  0  0  0  0
   -1.5053    0.4622   -6.6321 C   0  0  0  0  0  0  0  0  0  0  0  0
   -2.0065   -0.8135   -6.2907 C   0  0  0  0  0  0  0  0  0  0  0  0
   -3.3828   -0.9760   -6.1747 C   0  0  0  0  0  0  0  0  0  0  0  0
   -4.1536   -2.1450   -5.7655 C   0  0  0  0  0  0  0  0  0  0  0  0
   -3.6973   -3.2662   -5.4205 O   0  0  0  0  0  0  0  0  0  0  0  0
   -5.5552   -1.7402   -5.7942 C   0  0  0  0  0  0  0  0  0  0  0  0
   -5.6209   -0.4132   -6.1874 C   0  0  0  0  0  0  0  0  0  0  0  0
   -4.2582    0.0652   -6.4261 C   0  0  0  0  0  0  0  0  0  0  0  0
   -3.7912    1.3225   -6.8139 C   0  0  0  0  0  0  0  0  0  0  0  0
   -2.4032    1.5160   -6.9214 C   0  0  0  0  0  0  0  0  0  0  0  0
   -6.8421    0.2553   -6.2821 C   0  0  0  0  0  0  0  0  0  0  0  0
   -8.0129   -0.4565   -5.9679 C   0  0  0  0  0  0  0  0  0  0  0  0
   -7.9435   -1.8086   -5.5660 C   0  0  0  0  0  0  0  0  0  0  0  0
   -6.7031   -2.4644   -5.4780 C   0  0  0  0  0  0  0  0  0  0  0  0
   12.0233   -3.0924   -1.3260 H   0  0  0  0  0  0  0  0  0  0  0  0
   10.9591   -3.4481    0.9043 H   0  0  0  0  0  0  0  0  0  0  0  0
    9.2764    0.1438   -2.1392 H   0  0  0  0  0  0  0  0  0  0  0  0
   11.1865   -1.3024   -2.8388 H   0  0  0  0  0  0  0  0  0  0  0  0
    7.2799    1.3092   -0.9878 H   0  0  0  0  0  0  0  0  0  0  0  0
    5.4016    2.0506    0.4705 H   0  0  0  0  0  0  0  0  0  0  0  0
    6.5490   -0.8832    3.4486 H   0  0  0  0  0  0  0  0  0  0  0  0
    0.7879    0.7139    5.7616 H   0  0  0  0  0  0  0  0  0  0  0  0
    0.7803    3.5927    4.7639 H   0  0  0  0  0  0  0  0  0  0  0  0
   -1.1071    0.9037    6.7986 H   0  0  0  0  0  0  0  0  0  0  0  0
   -3.7801    3.6362    3.6041 H   0  0  0  0  0  0  0  0  0  0  0  0
   -1.4506    4.2644    4.0711 H   0  0  0  0  0  0  0  0  0  0  0  0
   -5.5235    2.1905    2.7217 H   0  0  0  0  0  0  0  0  0  0  0  0
   -6.2931    0.2464    1.5391 H   0  0  0  0  0  0  0  0  0  0  0  0
   -4.8379   -2.2737    4.7835 H   0  0  0  0  0  0  0  0  0  0  0  0
   -3.5100   -2.5859   -2.4040 H   0  0  0  0  0  0  0  0  0  0  0  0
   -1.7132   -1.7600   -0.0753 H   0  0  0  0  0  0  0  0  0  0  0  0
    1.8212    0.6200   -5.7008 H   0  0  0  0  0  0  0  0  0  0  0  0
    0.3788    1.1955   -7.5200 H   0  0  0  0  0  0  0  0  0  0  0  0
   -1.3477   -1.6505   -6.1091 H   0  0  0  0  0  0  0  0  0  0  0  0
   -4.4790    2.1326   -7.0094 H   0  0  0  0  0  0  0  0  0  0  0  0
   -2.0238    2.4938   -7.1911 H   0  0  0  0  0  0  0  0  0  0  0  0
   -6.8866    1.2924   -6.5831 H   0  0  0  0  0  0  0  0  0  0  0  0
   -8.9746    0.0348   -6.0319 H   0  0  0  0  0  0  0  0  0  0  0  0
   -8.8507   -2.3434   -5.3154 H   0  0  0  0  0  0  0  0  0  0  0  0
   -6.6411   -3.4960   -5.1587 H   0  0  0  0  0  0  0  0  0  0  0  0
  1  2  2  0
  2  3  1  0
  3  4  1  0
  4  5  2  0
  4  6  1  0
  6  7  2  0
  7  8  1  0
  8  9  1  0
  9 10  2  0
  7 11  1  0
 11 12  2  0
 12 13  1  0
 13 14  2  0
 13 15  1  0
 15 16  2  0
 16 17  1  0
 17 18  2  0
 17 19  1  0
 19 20  1  0
 20 21  2  0
 20 22  1  0
 22 23  2  0
 23 24  1  0
 24 25  2  0
 25 26  1  0
 26 27  2  0
 26 28  1  0
 28 29  1  0
 29 30  2  0
 23 31  1  0
 31 32  2  3
 32 33  1  0
 33 34  2  0
 34 35  1  0
 35 36  1  0
 36 37  2  0
 36 38  1  0
 38 39  2  0
 39 40  1  0
 40 41  1  0
 41 42  2  0
 39 43  1  0
 43 44  2  0
 44 45  1  0
 45 46  2  0
 45 47  1  0
 47 48  2  0
 48 49  1  0
 49 50  2  0
 49 51  1  0
 51 52  1  0
 52 53  2  0
 52 54  1  0
 54 55  2  0
 55 56  1  0
 56 57  2  0
 57 58  1  0
 58 59  2  0
 58 60  1  0
 60 61  1  0
 61 62  2  0
 55 63  1  0
 63 64  2  3
 64 65  1  0
 65 66  2  0
 66 67  1  0
 67 68  2  0
 67 69  1  0
 69 70  1  0
 70 71  2  0
 70 72  1  0
 72 73  2  0
 73 74  1  0
 74 75  2  0
 75 76  1  0
 76 77  2  0
 76 78  1  0
 78 79  1  0
 79 80  2  0
 73 81  1  0
 81 82  2  3
 82 83  1  0
 83 84  2  0
 84 85  1  0
 85 86  1  0
 86 87  2  0
 86 88  1  0
 88 89  2  0
 89 90  1  0
 90 91  1  0
 91 92  2  0
 89 93  1  0
 93 94  2  0
 94 95  1  0
 95 96  2  0
 10  1  1  0
 25 15  1  0
 42 33  1  0
 57 47  1  0
 75 65  1  0
 92 83  1  0
  8  3  2  0
 22 16  1  0
 29 24  1  0
 40 35  2  0
 54 48  1  0
 61 56  1  0
 72 66  1  0
 79 74  1  0
 90 85  2  0
 14  6  1  0
 46 38  1  0
 96 88  1  0
  1 97  1  0
  2 98  1  0
  9 99  1  0
 10100  1  0
 11101  1  0
 12102  1  0
 14103  1  0
 31104  1  0
 32105  1  0
 34106  1  0
 41107  1  0
 42108  1  0
 43109  1  0
 44110  1  0
 46111  1  0
 63112  1  0
 64113  1  0
 81114  1  0
 82115  1  0
 84116  1  0
 91117  1  0
 92118  1  0
 93119  1  0
 94120  1  0
 95121  1  0
 96122  1  0
M  END

