
     RDKit          3D

228253  0  0  0  0  0  0  0  0999 V2000
    2.7194   -9.4187   10.5594 C   0  0  0  0  0  0  0  0  0  0  0  0
    3.3472   -8.9939    9.3907 C   0  0  0  0  0  0  0  0  0  0  0  0
    2.4484   -8.7141    8.3495 C   0  0  0  0  0  0  0  0  0  0  0  0
    2.7807   -8.2507    7.0608 C   0  0  0  0  0  0  0  0  0  0  0  0
    4.1730   -7.9895    6.6602 C   0  0  0  0  0  0  0  0  0  0  0  0
    5.0256   -8.8829    5.5174 S   0  0  0  0  0  0  0  0  0  0  0  0
    6.4571   -8.0062    5.6436 C   0  0  0  0  0  0  0  0  0  0  0  0
    7.6843   -8.2604    4.8239 C   0  0  0  0  0  0  0  0  0  0  0  0
    7.5587   -7.6169    3.4464 C   0  0  0  0  0  0  0  0  0  0  0  0
    6.2733   -6.9787    6.5697 C   0  0  0  0  0  0  0  0  0  0  0  0
    7.5116   -5.7977    6.9672 Cl  0  0  0  0  0  0  0  0  0  0  0  0
    4.9956   -6.9791    7.1495 C   0  0  0  0  0  0  0  0  0  0  0  0
    4.4716   -5.7915    8.3365 Cl  0  0  0  0  0  0  0  0  0  0  0  0
    1.7179   -8.0444    6.1670 C   0  0  0  0  0  0  0  0  0  0  0  0
    0.3809   -8.2769    6.5149 C   0  0  0  0  0  0  0  0  0  0  0  0
    0.0474   -8.7320    7.8076 C   0  0  0  0  0  0  0  0  0  0  0  0
   -1.3527   -8.9336    8.2205 C   0  0  0  0  0  0  0  0  0  0  0  0
   -2.4993   -7.7056    8.3385 S   0  0  0  0  0  0  0  0  0  0  0  0
   -3.7649   -8.6906    8.8453 C   0  0  0  0  0  0  0  0  0  0  0  0
   -5.1331   -8.1971    9.2106 C   0  0  0  0  0  0  0  0  0  0  0  0
   -5.1978   -7.8413   10.6927 C   0  0  0  0  0  0  0  0  0  0  0  0
   -3.2976  -10.0003    8.9490 C   0  0  0  0  0  0  0  0  0  0  0  0
   -1.9472  -10.1372    8.5909 C   0  0  0  0  0  0  0  0  0  0  0  0
   -1.1068  -11.6848    8.5698 Cl  0  0  0  0  0  0  0  0  0  0  0  0
   -4.3010  -11.3484    9.4645 Cl  0  0  0  0  0  0  0  0  0  0  0  0
    1.1136   -8.9415    8.7011 C   0  0  0  0  0  0  0  0  0  0  0  0
    1.0530   -9.4517   10.3023 S   0  0  0  0  0  0  0  0  0  0  0  0
   -0.5157   -8.0133    5.4679 C   0  0  0  0  0  0  0  0  0  0  0  0
    0.1169   -7.5418    4.3208 C   0  0  0  0  0  0  0  0  0  0  0  0
    1.7841   -7.4685    4.5886 S   0  0  0  0  0  0  0  0  0  0  0  0
   -0.5562   -7.1679    3.0677 C   0  0  0  0  0  0  0  0  0  0  0  0
    0.0213   -6.4732    2.0081 C   0  0  0  0  0  0  0  0  0  0  0  0
   -0.8793   -6.2359    0.9563 C   0  0  0  0  0  0  0  0  0  0  0  0
   -0.6151   -5.4960   -0.2140 C   0  0  0  0  0  0  0  0  0  0  0  0
    0.6365   -4.7335   -0.3999 C   0  0  0  0  0  0  0  0  0  0  0  0
    1.6802   -4.8848   -1.7140 S   0  0  0  0  0  0  0  0  0  0  0  0
    2.6624   -3.5764   -1.3141 C   0  0  0  0  0  0  0  0  0  0  0  0
    3.8496   -3.1257   -2.1118 C   0  0  0  0  0  0  0  0  0  0  0  0
    5.1431   -3.6555   -1.5040 C   0  0  0  0  0  0  0  0  0  0  0  0
    2.1849   -3.0029   -0.1372 C   0  0  0  0  0  0  0  0  0  0  0  0
    2.9041   -1.5817    0.6113 Cl  0  0  0  0  0  0  0  0  0  0  0  0
    1.0476   -3.6451    0.3715 C   0  0  0  0  0  0  0  0  0  0  0  0
    0.1667   -3.0604    1.7781 Cl  0  0  0  0  0  0  0  0  0  0  0  0
   -1.6647   -5.3760   -1.1383 C   0  0  0  0  0  0  0  0  0  0  0  0
   -2.9427   -5.8979   -0.9033 C   0  0  0  0  0  0  0  0  0  0  0  0
   -3.2188   -6.6054    0.2854 C   0  0  0  0  0  0  0  0  0  0  0  0
   -4.5692   -7.1044    0.6014 C   0  0  0  0  0  0  0  0  0  0  0  0
   -4.9774   -8.7295    0.7616 S   0  0  0  0  0  0  0  0  0  0  0  0
   -6.6126   -8.4768    1.0659 C   0  0  0  0  0  0  0  0  0  0  0  0
   -7.6274   -9.5680    1.2400 C   0  0  0  0  0  0  0  0  0  0  0  0
   -8.3100   -9.8870   -0.0868 C   0  0  0  0  0  0  0  0  0  0  0  0
   -6.8652   -7.1054    1.0290 C   0  0  0  0  0  0  0  0  0  0  0  0
   -5.7178   -6.3350    0.7789 C   0  0  0  0  0  0  0  0  0  0  0  0
   -5.7320   -4.5727    0.7440 Cl  0  0  0  0  0  0  0  0  0  0  0  0
   -8.4626   -6.4070    1.2632 Cl  0  0  0  0  0  0  0  0  0  0  0  0
   -2.1522   -6.7719    1.1856 C   0  0  0  0  0  0  0  0  0  0  0  0
   -2.1735   -7.5008    2.6998 S   0  0  0  0  0  0  0  0  0  0  0  0
   -3.8722   -5.5525   -1.8993 C   0  0  0  0  0  0  0  0  0  0  0  0
   -3.3320   -4.7336   -2.8880 C   0  0  0  0  0  0  0  0  0  0  0  0
   -1.7009   -4.4642   -2.5478 S   0  0  0  0  0  0  0  0  0  0  0  0
   -4.1077   -3.8861   -3.8003 C   0  0  0  0  0  0  0  0  0  0  0  0
   -5.3490   -3.3406   -3.4724 C   0  0  0  0  0  0  0  0  0  0  0  0
   -5.6340   -2.1602   -4.1766 C   0  0  0  0  0  0  0  0  0  0  0  0
   -6.6447   -1.2415   -3.8456 C   0  0  0  0  0  0  0  0  0  0  0  0
   -7.6766   -1.5695   -2.8501 C   0  0  0  0  0  0  0  0  0  0  0  0
   -8.9362   -2.6496   -3.1195 S   0  0  0  0  0  0  0  0  0  0  0  0
   -9.6073   -2.5322   -1.5820 C   0  0  0  0  0  0  0  0  0  0  0  0
  -10.8844   -3.1937   -1.1675 C   0  0  0  0  0  0  0  0  0  0  0  0
  -12.0841   -2.3732   -1.6370 C   0  0  0  0  0  0  0  0  0  0  0  0
   -8.8492   -1.6312   -0.8330 C   0  0  0  0  0  0  0  0  0  0  0  0
   -9.2237   -1.1919    0.8277 Cl  0  0  0  0  0  0  0  0  0  0  0  0
   -7.7559   -1.1036   -1.5393 C   0  0  0  0  0  0  0  0  0  0  0  0
   -6.5874   -0.0013   -0.8279 Cl  0  0  0  0  0  0  0  0  0  0  0  0
   -6.5534    0.0400   -4.4169 C   0  0  0  0  0  0  0  0  0  0  0  0
   -5.5629    0.3784   -5.3422 C   0  0  0  0  0  0  0  0  0  0  0  0
   -4.5949   -0.5690   -5.7382 C   0  0  0  0  0  0  0  0  0  0  0  0
   -3.4463   -0.2115   -6.5945 C   0  0  0  0  0  0  0  0  0  0  0  0
   -2.2633    0.9204   -6.2011 S   0  0  0  0  0  0  0  0  0  0  0  0
   -1.3323    0.6942   -7.5857 C   0  0  0  0  0  0  0  0  0  0  0  0
   -0.0440    1.4059   -7.8723 C   0  0  0  0  0  0  0  0  0  0  0  0
    1.1453    0.6111   -7.3440 C   0  0  0  0  0  0  0  0  0  0  0  0
   -1.9150   -0.3118   -8.3540 C   0  0  0  0  0  0  0  0  0  0  0  0
   -3.0997   -0.8205   -7.7966 C   0  0  0  0  0  0  0  0  0  0  0  0
   -4.0542   -2.0894   -8.5531 Cl  0  0  0  0  0  0  0  0  0  0  0  0
   -1.2329   -0.8943   -9.8656 Cl  0  0  0  0  0  0  0  0  0  0  0  0
   -4.6453   -1.8239   -5.1072 C   0  0  0  0  0  0  0  0  0  0  0  0
   -3.4022   -2.9499   -5.0145 S   0  0  0  0  0  0  0  0  0  0  0  0
   -5.5225    1.7504   -5.6281 C   0  0  0  0  0  0  0  0  0  0  0  0
   -6.3882    2.5109   -4.8408 C   0  0  0  0  0  0  0  0  0  0  0  0
   -7.3106    1.4526   -3.9010 S   0  0  0  0  0  0  0  0  0  0  0  0
   -5.9700    3.8418   -4.3774 C   0  0  0  0  0  0  0  0  0  0  0  0
   -5.5116    4.0271   -3.0700 C   0  0  0  0  0  0  0  0  0  0  0  0
   -4.4719    4.9628   -2.9670 C   0  0  0  0  0  0  0  0  0  0  0  0
   -3.6666    5.1779   -1.8300 C   0  0  0  0  0  0  0  0  0  0  0  0
   -3.9369    4.5214   -0.5426 C   0  0  0  0  0  0  0  0  0  0  0  0
   -3.4292    2.9712   -0.1282 S   0  0  0  0  0  0  0  0  0  0  0  0
   -3.9714    3.0352    1.4661 C   0  0  0  0  0  0  0  0  0  0  0  0
   -3.8085    1.9344    2.4725 C   0  0  0  0  0  0  0  0  0  0  0  0
   -5.1010    1.1447    2.6422 C   0  0  0  0  0  0  0  0  0  0  0  0
   -4.5709    4.2753    1.6872 C   0  0  0  0  0  0  0  0  0  0  0  0
   -5.2778    4.7551    3.2216 Cl  0  0  0  0  0  0  0  0  0  0  0  0
   -4.5451    5.1095    0.5599 C   0  0  0  0  0  0  0  0  0  0  0  0
   -5.1962    6.7416    0.5412 Cl  0  0  0  0  0  0  0  0  0  0  0  0
   -2.5166    5.9662   -2.0053 C   0  0  0  0  0  0  0  0  0  0  0  0
   -2.1834    6.5493   -3.2303 C   0  0  0  0  0  0  0  0  0  0  0  0
   -3.0213    6.3862   -4.3512 C   0  0  0  0  0  0  0  0  0  0  0  0
   -2.6727    6.9644   -5.6624 C   0  0  0  0  0  0  0  0  0  0  0  0
   -2.6744    8.6091   -6.0050 S   0  0  0  0  0  0  0  0  0  0  0  0
   -2.1545    8.4630   -7.5989 C   0  0  0  0  0  0  0  0  0  0  0  0
   -2.0148    9.6063   -8.5560 C   0  0  0  0  0  0  0  0  0  0  0  0
   -3.3346    9.8614   -9.2807 C   0  0  0  0  0  0  0  0  0  0  0  0
   -1.9880    7.1108   -7.8887 C   0  0  0  0  0  0  0  0  0  0  0  0
   -2.2609    6.2701   -6.7971 C   0  0  0  0  0  0  0  0  0  0  0  0
   -2.0499    4.5277   -6.8554 Cl  0  0  0  0  0  0  0  0  0  0  0  0
   -1.4903    6.5116   -9.4643 Cl  0  0  0  0  0  0  0  0  0  0  0  0
   -4.1539    5.5688   -4.1864 C   0  0  0  0  0  0  0  0  0  0  0  0
   -5.1489    4.9265   -5.3810 S   0  0  0  0  0  0  0  0  0  0  0  0
   -0.9149    7.1538   -3.2270 C   0  0  0  0  0  0  0  0  0  0  0  0
   -0.2585    7.0349   -2.0025 C   0  0  0  0  0  0  0  0  0  0  0  0
   -1.2523    6.1995   -0.9214 S   0  0  0  0  0  0  0  0  0  0  0  0
    1.1371    7.4211   -1.7371 C   0  0  0  0  0  0  0  0  0  0  0  0
    1.9938    7.8625   -2.6791 N   0  0  0  0  0  0  0  0  0  0  0  0
    3.1813    8.0521   -2.0715 C   0  0  0  0  0  0  0  0  0  0  0  0
    3.0755    7.7507   -0.7234 C   0  0  0  0  0  0  0  0  0  0  0  0
    1.7741    7.3411   -0.5136 C   0  0  0  0  0  0  0  0  0  0  0  0
    4.3636    8.6227   -2.7636 C   0  0  0  0  0  0  0  0  0  0  0  0
    4.1306    9.6937   -3.7640 C   0  0  0  0  0  0  0  0  0  0  0  0
    3.1568   10.4785   -3.6151 O   0  0  0  0  0  0  0  0  0  0  0  0
    4.9851    9.8521   -4.9003 N   0  0  0  0  0  0  0  0  0  0  0  0
    5.6262    8.2344   -2.4971 C   0  0  0  0  0  0  0  0  0  0  0  0
    5.9840    7.1116   -1.6219 C   0  0  0  0  0  0  0  0  0  0  0  0
    6.0541    5.7786   -2.0174 C   0  0  0  0  0  0  0  0  0  0  0  0
    6.6590    4.9544   -1.0489 C   0  0  0  0  0  0  0  0  0  0  0  0
    6.9136    3.5678   -1.1593 C   0  0  0  0  0  0  0  0  0  0  0  0
    6.6346    2.8055   -2.3911 C   0  0  0  0  0  0  0  0  0  0  0  0
    5.7055    1.4016   -2.4644 S   0  0  0  0  0  0  0  0  0  0  0  0
    6.0482    1.0391   -4.0717 C   0  0  0  0  0  0  0  0  0  0  0  0
    5.5182   -0.1545   -4.8069 C   0  0  0  0  0  0  0  0  0  0  0  0
    4.2137    0.1820   -5.5187 C   0  0  0  0  0  0  0  0  0  0  0  0
    6.8922    2.0238   -4.5794 C   0  0  0  0  0  0  0  0  0  0  0  0
    7.5128    2.0161   -6.2250 Cl  0  0  0  0  0  0  0  0  0  0  0  0
    7.2318    3.0085   -3.6365 C   0  0  0  0  0  0  0  0  0  0  0  0
    8.3842    4.2950   -3.9676 Cl  0  0  0  0  0  0  0  0  0  0  0  0
    7.5208    2.9466   -0.0526 C   0  0  0  0  0  0  0  0  0  0  0  0
    7.8802    3.6445    1.1042 C   0  0  0  0  0  0  0  0  0  0  0  0
    7.6400    5.0291    1.2088 C   0  0  0  0  0  0  0  0  0  0  0  0
    7.9924    5.7908    2.4208 C   0  0  0  0  0  0  0  0  0  0  0  0
    9.1015    7.0555    2.4723 S   0  0  0  0  0  0  0  0  0  0  0  0
    8.9427    7.3616    4.1187 C   0  0  0  0  0  0  0  0  0  0  0  0
    9.6366    8.4707    4.8482 C   0  0  0  0  0  0  0  0  0  0  0  0
    8.7943    9.7430    4.8231 C   0  0  0  0  0  0  0  0  0  0  0  0
    7.9923    6.4868    4.6482 C   0  0  0  0  0  0  0  0  0  0  0  0
    7.4638    5.6027    3.6950 C   0  0  0  0  0  0  0  0  0  0  0  0
    6.2053    4.4289    4.0659 Cl  0  0  0  0  0  0  0  0  0  0  0  0
    7.4854    6.5073    6.3292 Cl  0  0  0  0  0  0  0  0  0  0  0  0
    7.0383    5.6536    0.1047 C   0  0  0  0  0  0  0  0  0  0  0  0
    6.6756    7.2853   -0.0957 S   0  0  0  0  0  0  0  0  0  0  0  0
    8.5265    2.8375    2.0568 C   0  0  0  0  0  0  0  0  0  0  0  0
    8.6650    1.5148    1.6524 C   0  0  0  0  0  0  0  0  0  0  0  0
    8.0078    1.3426    0.1103 S   0  0  0  0  0  0  0  0  0  0  0  0
    3.2211   -9.6845   11.4792 H   0  0  0  0  0  0  0  0  0  0  0  0
    4.4212   -8.8913    9.3106 H   0  0  0  0  0  0  0  0  0  0  0  0
    8.5812   -7.8572    5.3406 H   0  0  0  0  0  0  0  0  0  0  0  0
    7.8271   -9.3561    4.7094 H   0  0  0  0  0  0  0  0  0  0  0  0
    6.7195   -8.0785    2.8842 H   0  0  0  0  0  0  0  0  0  0  0  0
    7.3831   -6.5244    3.5417 H   0  0  0  0  0  0  0  0  0  0  0  0
    8.4982   -7.7789    2.8790 H   0  0  0  0  0  0  0  0  0  0  0  0
   -5.8943   -8.9734    8.9808 H   0  0  0  0  0  0  0  0  0  0  0  0
   -5.3718   -7.2930    8.6096 H   0  0  0  0  0  0  0  0  0  0  0  0
   -6.2115   -7.4618   10.9392 H   0  0  0  0  0  0  0  0  0  0  0  0
   -4.4594   -7.0458   10.9330 H   0  0  0  0  0  0  0  0  0  0  0  0
   -4.9885   -8.7361   11.3182 H   0  0  0  0  0  0  0  0  0  0  0  0
   -1.5884   -8.1487    5.5424 H   0  0  0  0  0  0  0  0  0  0  0  0
    1.0500   -6.1309    2.0128 H   0  0  0  0  0  0  0  0  0  0  0  0
    3.8815   -2.0154   -2.1430 H   0  0  0  0  0  0  0  0  0  0  0  0
    3.7585   -3.4937   -3.1556 H   0  0  0  0  0  0  0  0  0  0  0  0
    6.0032   -3.3440   -2.1302 H   0  0  0  0  0  0  0  0  0  0  0  0
    5.1190   -4.7654   -1.4578 H   0  0  0  0  0  0  0  0  0  0  0  0
    5.2794   -3.2512   -0.4778 H   0  0  0  0  0  0  0  0  0  0  0  0
   -7.1247  -10.4811    1.6214 H   0  0  0  0  0  0  0  0  0  0  0  0
   -8.3887   -9.2579    1.9875 H   0  0  0  0  0  0  0  0  0  0  0  0
   -8.8346   -8.9902   -0.4753 H   0  0  0  0  0  0  0  0  0  0  0  0
   -7.5624  -10.2194   -0.8370 H   0  0  0  0  0  0  0  0  0  0  0  0
   -9.0543  -10.6953    0.0592 H   0  0  0  0  0  0  0  0  0  0  0  0
   -4.9210   -5.8168   -1.8644 H   0  0  0  0  0  0  0  0  0  0  0  0
   -5.9332   -3.6792   -2.6245 H   0  0  0  0  0  0  0  0  0  0  0  0
  -10.9385   -4.2066   -1.6214 H   0  0  0  0  0  0  0  0  0  0  0  0
  -10.9213   -3.3112   -0.0626 H   0  0  0  0  0  0  0  0  0  0  0  0
  -13.0233   -2.8597   -1.3042 H   0  0  0  0  0  0  0  0  0  0  0  0
  -12.0924   -2.3061   -2.7452 H   0  0  0  0  0  0  0  0  0  0  0  0
  -12.0381   -1.3501   -1.2078 H   0  0  0  0  0  0  0  0  0  0  0  0
   -0.0517    2.4032   -7.3838 H   0  0  0  0  0  0  0  0  0  0  0  0
    0.0655    1.5582   -8.9669 H   0  0  0  0  0  0  0  0  0  0  0  0
    2.0823    1.1683   -7.5521 H   0  0  0  0  0  0  0  0  0  0  0  0
    1.0567    0.4648   -6.2463 H   0  0  0  0  0  0  0  0  0  0  0  0
    1.2038   -0.3798   -7.8419 H   0  0  0  0  0  0  0  0  0  0  0  0
   -4.7497    2.2034   -6.2362 H   0  0  0  0  0  0  0  0  0  0  0  0
   -5.7790    3.3651   -2.2551 H   0  0  0  0  0  0  0  0  0  0  0  0
   -3.0004    1.2458    2.1456 H   0  0  0  0  0  0  0  0  0  0  0  0
   -3.5071    2.3661    3.4524 H   0  0  0  0  0  0  0  0  0  0  0  0
   -4.9757    0.3951    3.4533 H   0  0  0  0  0  0  0  0  0  0  0  0
   -5.3430    0.6069    1.7011 H   0  0  0  0  0  0  0  0  0  0  0  0
   -5.9426    1.8180    2.9123 H   0  0  0  0  0  0  0  0  0  0  0  0
   -1.7218   10.5226   -7.9993 H   0  0  0  0  0  0  0  0  0  0  0  0
   -1.2183    9.3897   -9.2995 H   0  0  0  0  0  0  0  0  0  0  0  0
   -3.6385    8.9571   -9.8503 H   0  0  0  0  0  0  0  0  0  0  0  0
   -3.2164   10.7122   -9.9830 H   0  0  0  0  0  0  0  0  0  0  0  0
   -4.1313   10.1171   -8.5501 H   0  0  0  0  0  0  0  0  0  0  0  0
   -0.4707    7.6060   -4.1026 H   0  0  0  0  0  0  0  0  0  0  0  0
    1.7914    8.0194   -3.6915 H   0  0  0  0  0  0  0  0  0  0  0  0
    3.8368    7.8602    0.0379 H   0  0  0  0  0  0  0  0  0  0  0  0
    1.3395    7.0354    0.4283 H   0  0  0  0  0  0  0  0  0  0  0  0
    4.8851   10.6839   -5.5191 H   0  0  0  0  0  0  0  0  0  0  0  0
    5.7061    9.1367   -5.1452 H   0  0  0  0  0  0  0  0  0  0  0  0
    6.4578    8.7582   -2.9468 H   0  0  0  0  0  0  0  0  0  0  0  0
    5.7160    5.4314   -2.9875 H   0  0  0  0  0  0  0  0  0  0  0  0
    5.3400   -0.9830   -4.0894 H   0  0  0  0  0  0  0  0  0  0  0  0
    6.2662   -0.5102   -5.5477 H   0  0  0  0  0  0  0  0  0  0  0  0
    3.8564   -0.7067   -6.0784 H   0  0  0  0  0  0  0  0  0  0  0  0
    3.4372    0.4756   -4.7800 H   0  0  0  0  0  0  0  0  0  0  0  0
    4.3709    1.0159   -6.2351 H   0  0  0  0  0  0  0  0  0  0  0  0
    9.8246    8.1721    5.8992 H   0  0  0  0  0  0  0  0  0  0  0  0
   10.6200    8.6682    4.3708 H   0  0  0  0  0  0  0  0  0  0  0  0
    9.3327   10.5524    5.3577 H   0  0  0  0  0  0  0  0  0  0  0  0
    7.8166    9.5701    5.3231 H   0  0  0  0  0  0  0  0  0  0  0  0
    8.6183   10.0665    3.7757 H   0  0  0  0  0  0  0  0  0  0  0  0
    8.8994    3.1979    3.0047 H   0  0  0  0  0  0  0  0  0  0  0  0
    9.1324    0.7278    2.2293 H   0  0  0  0  0  0  0  0  0  0  0  0
  1  2  2  0
  2  3  1  0
  3  4  2  0
  4  5  1  0
  5  6  1  0
  6  7  1  0
  7  8  1  0
  8  9  1  0
  7 10  2  0
 10 11  1  0
 10 12  1  0
 12 13  1  0
  4 14  1  0
 14 15  2  0
 15 16  1  0
 16 17  1  0
 17 18  1  0
 18 19  1  0
 19 20  1  0
 20 21  1  0
 19 22  2  0
 22 23  1  0
 23 24  1  0
 22 25  1  0
 16 26  2  0
 26 27  1  0
 15 28  1  0
 28 29  2  0
 29 30  1  0
 29 31  1  0
 31 32  2  0
 32 33  1  0
 33 34  2  0
 34 35  1  0
 35 36  1  0
 36 37  1  0
 37 38  1  0
 38 39  1  0
 37 40  2  0
 40 41  1  0
 40 42  1  0
 42 43  1  0
 34 44  1  0
 44 45  2  0
 45 46  1  0
 46 47  1  0
 47 48  1  0
 48 49  1  0
 49 50  1  0
 50 51  1  0
 49 52  2  0
 52 53  1  0
 53 54  1  0
 52 55  1  0
 46 56  2  0
 56 57  1  0
 45 58  1  0
 58 59  2  0
 59 60  1  0
 59 61  1  0
 61 62  2  0
 62 63  1  0
 63 64  2  0
 64 65  1  0
 65 66  1  0
 66 67  1  0
 67 68  1  0
 68 69  1  0
 67 70  2  0
 70 71  1  0
 70 72  1  0
 72 73  1  0
 64 74  1  0
 74 75  2  0
 75 76  1  0
 76 77  1  0
 77 78  1  0
 78 79  1  0
 79 80  1  0
 80 81  1  0
 79 82  2  0
 82 83  1  0
 83 84  1  0
 82 85  1  0
 76 86  2  0
 86 87  1  0
 75 88  1  0
 88 89  2  0
 89 90  1  0
 89 91  1  0
 91 92  2  0
 92 93  1  0
 93 94  2  0
 94 95  1  0
 95 96  1  0
 96 97  1  0
 97 98  1  0
 98 99  1  0
 97100  2  0
100101  1  0
100102  1  0
102103  1  0
 94104  1  0
104105  2  0
105106  1  0
106107  1  0
107108  1  0
108109  1  0
109110  1  0
110111  1  0
109112  2  0
112113  1  0
113114  1  0
112115  1  0
106116  2  0
116117  1  0
105118  1  0
118119  2  0
119120  1  0
119121  1  0
121122  1  0
122123  1  0
123124  2  0
124125  1  0
123126  1  0
126127  1  0
127128  2  0
127129  1  0
126130  2  3
130131  1  0
131132  2  0
132133  1  0
133134  2  0
134135  1  0
135136  1  0
136137  1  0
137138  1  0
138139  1  0
137140  2  0
140141  1  0
140142  1  0
142143  1  0
134144  1  0
144145  2  0
145146  1  0
146147  1  0
147148  1  0
148149  1  0
149150  1  0
150151  1  0
149152  2  0
152153  1  0
153154  1  0
152155  1  0
146156  2  0
156157  1  0
145158  1  0
158159  2  0
159160  1  0
 27  1  1  0
 57 31  1  0
 87 61  1  0
117 91  1  0
125121  2  0
157131  1  0
 26  3  1  0
 56 33  1  0
 86 63  1  0
116 93  1  0
156133  1  0
 12  5  2  0
 30 14  1  0
 42 35  2  0
 60 44  1  0
 72 65  2  0
 90 74  1  0
102 95  2  0
120104  1  0
142135  2  0
160144  1  0
 23 17  2  0
 53 47  2  0
 83 77  2  0
113107  2  0
153147  2  0
  1161  1  0
  2162  1  0
  8163  1  0
  8164  1  0
  9165  1  0
  9166  1  0
  9167  1  0
 20168  1  0
 20169  1  0
 21170  1  0
 21171  1  0
 21172  1  0
 28173  1  0
 32174  1  0
 38175  1  0
 38176  1  0
 39177  1  0
 39178  1  0
 39179  1  0
 50180  1  0
 50181  1  0
 51182  1  0
 51183  1  0
 51184  1  0
 58185  1  0
 62186  1  0
 68187  1  0
 68188  1  0
 69189  1  0
 69190  1  0
 69191  1  0
 80192  1  0
 80193  1  0
 81194  1  0
 81195  1  0
 81196  1  0
 88197  1  0
 92198  1  0
 98199  1  0
 98200  1  0
 99201  1  0
 99202  1  0
 99203  1  0
110204  1  0
110205  1  0
111206  1  0
111207  1  0
111208  1  0
118209  1  0
122210  1  0
124211  1  0
125212  1  0
129213  1  0
129214  1  0
130215  1  0
132216  1  0
138217  1  0
138218  1  0
139219  1  0
139220  1  0
139221  1  0
150222  1  0
150223  1  0
151224  1  0
151225  1  0
151226  1  0
158227  1  0
159228  1  0
M  END

