
     RDKit          3D

278307  0  0  0  0  0  0  0  0999 V2000
    4.0250   -7.9915    8.4179 C   0  0  0  0  0  0  0  0  0  0  0  0
    5.1140   -7.4607    7.7568 C   0  0  0  0  0  0  0  0  0  0  0  0
    4.9362   -7.0166    6.5021 C   0  0  0  0  0  0  0  0  0  0  0  0
    5.8851   -6.4462    5.6330 C   0  0  0  0  0  0  0  0  0  0  0  0
    7.2426   -6.1778    6.0197 C   0  0  0  0  0  0  0  0  0  0  0  0
    8.3697   -5.8245    5.4144 C   0  0  0  0  0  0  0  0  0  0  0  0
    9.5204   -5.5470    6.0248 C   0  0  0  0  0  0  0  0  0  0  0  0
    9.6872   -5.5933    7.3585 C   0  0  0  0  0  0  0  0  0  0  0  0
   10.9652   -5.3103    8.5131 S   0  0  0  0  0  0  0  0  0  0  0  0
   11.0014   -3.6275    9.1546 C   0  0  0  0  0  0  0  0  0  0  0  0
   11.3415   -2.6116    8.1123 C   0  0  0  0  0  0  0  0  0  0  0  0
    7.8619   -6.1342    7.8830 Se  0  0  0  0  0  2  0  0  0  0  0  0
    5.4856   -6.0691    4.3703 C   0  0  0  0  0  0  0  0  0  0  0  0
    4.2344   -6.1854    3.8380 C   0  0  0  0  0  0  0  0  0  0  0  0
    3.2893   -6.7397    4.6918 C   0  0  0  0  0  0  0  0  0  0  0  0
    1.8457   -6.8114    4.4441 C   0  0  0  0  0  0  0  0  0  0  0  0
    0.9739   -6.1968    3.6610 C   0  0  0  0  0  0  0  0  0  0  0  0
   -0.3149   -6.5499    3.5627 C   0  0  0  0  0  0  0  0  0  0  0  0
   -0.8506   -7.5558    4.2467 C   0  0  0  0  0  0  0  0  0  0  0  0
   -2.4280   -8.3323    4.3939 S   0  0  0  0  0  0  0  0  0  0  0  0
   -3.3768   -7.5542    5.7266 C   0  0  0  0  0  0  0  0  0  0  0  0
   -2.7406   -7.8452    7.0735 C   0  0  0  0  0  0  0  0  0  0  0  0
    0.7574   -8.1568    5.2484 Se  0  0  0  0  0  2  0  0  0  0  0  0
    3.6753   -7.1305    5.9773 C   0  0  0  0  0  0  0  0  0  0  0  0
    2.7901   -7.8568    7.2738 S   0  0  0  0  0  0  0  0  0  0  0  0
    4.0589   -5.7789    2.5767 C   0  0  0  0  0  0  0  0  0  0  0  0
    5.1356   -5.2704    1.9051 C   0  0  0  0  0  0  0  0  0  0  0  0
    6.3615   -5.3716    3.0387 S   0  0  0  0  0  0  0  0  0  0  0  0
    5.1862   -4.8133    0.5037 C   0  0  0  0  0  0  0  0  0  0  0  0
    5.9713   -3.8632   -0.0626 C   0  0  0  0  0  0  0  0  0  0  0  0
    5.7018   -3.5327   -1.3563 C   0  0  0  0  0  0  0  0  0  0  0  0
    6.2993   -2.5283   -2.1375 C   0  0  0  0  0  0  0  0  0  0  0  0
    7.3254   -1.6337   -1.7098 C   0  0  0  0  0  0  0  0  0  0  0  0
    8.1438   -0.7263   -2.2422 C   0  0  0  0  0  0  0  0  0  0  0  0
    8.9787    0.0420   -1.5589 C   0  0  0  0  0  0  0  0  0  0  0  0
    9.1092    0.0028   -0.2226 C   0  0  0  0  0  0  0  0  0  0  0  0
   10.0802    0.8241    0.9788 S   0  0  0  0  0  0  0  0  0  0  0  0
    9.7108    0.2061    2.6317 C   0  0  0  0  0  0  0  0  0  0  0  0
   10.6276    0.9146    3.5924 C   0  0  0  0  0  0  0  0  0  0  0  0
    7.7978   -1.3945    0.2062 Se  0  0  0  0  0  2  0  0  0  0  0  0
    5.8148   -2.2965   -3.4343 C   0  0  0  0  0  0  0  0  0  0  0  0
    4.8046   -2.9731   -4.0058 C   0  0  0  0  0  0  0  0  0  0  0  0
    4.1820   -3.9866   -3.2434 C   0  0  0  0  0  0  0  0  0  0  0  0
    3.0311   -4.7083   -3.6550 C   0  0  0  0  0  0  0  0  0  0  0  0
    1.9959   -4.8090   -4.4227 C   0  0  0  0  0  0  0  0  0  0  0  0
    1.1678   -5.8278   -4.6106 C   0  0  0  0  0  0  0  0  0  0  0  0
    1.3153   -7.0067   -3.9593 C   0  0  0  0  0  0  0  0  0  0  0  0
    0.4538   -8.5469   -3.9737 S   0  0  0  0  0  0  0  0  0  0  0  0
   -0.8633   -8.5936   -2.7592 C   0  0  0  0  0  0  0  0  0  0  0  0
   -1.9403   -7.6278   -3.1636 C   0  0  0  0  0  0  0  0  0  0  0  0
    2.8865   -6.6688   -2.8708 Se  0  0  0  0  0  2  0  0  0  0  0  0
    4.6833   -4.1913   -1.9523 C   0  0  0  0  0  0  0  0  0  0  0  0
    4.1118   -5.2409   -0.7319 S   0  0  0  0  0  0  0  0  0  0  0  0
    4.3943   -2.6042   -5.2266 C   0  0  0  0  0  0  0  0  0  0  0  0
    5.0633   -1.5044   -5.8157 C   0  0  0  0  0  0  0  0  0  0  0  0
    6.1735   -1.1133   -4.6660 S   0  0  0  0  0  0  0  0  0  0  0  0
    4.5397   -0.9560   -7.1183 C   0  0  0  0  0  0  0  0  0  0  0  0
    4.2522    0.3590   -7.4036 C   0  0  0  0  0  0  0  0  0  0  0  0
    3.3588    0.6252   -8.4035 C   0  0  0  0  0  0  0  0  0  0  0  0
    2.6540    1.8273   -8.6287 C   0  0  0  0  0  0  0  0  0  0  0  0
    3.0073    3.0892   -8.0749 C   0  0  0  0  0  0  0  0  0  0  0  0
    2.5708    4.3352   -8.2408 C   0  0  0  0  0  0  0  0  0  0  0  0
    3.0000    5.4008   -7.5702 C   0  0  0  0  0  0  0  0  0  0  0  0
    3.9589    5.2984   -6.6217 C   0  0  0  0  0  0  0  0  0  0  0  0
    4.7301    6.4930   -5.5778 S   0  0  0  0  0  0  0  0  0  0  0  0
    5.9816    5.7723   -4.5107 C   0  0  0  0  0  0  0  0  0  0  0  0
    5.4609    4.8469   -3.4631 C   0  0  0  0  0  0  0  0  0  0  0  0
    4.3194    3.4000   -6.6803 Se  0  0  0  0  0  2  0  0  0  0  0  0
    1.4927    1.7905   -9.4401 C   0  0  0  0  0  0  0  0  0  0  0  0
    0.9844    0.7193  -10.0438 C   0  0  0  0  0  0  0  0  0  0  0  0
    1.7094   -0.4853   -9.8590 C   0  0  0  0  0  0  0  0  0  0  0  0
    1.4390   -1.6981  -10.5650 C   0  0  0  0  0  0  0  0  0  0  0  0
    1.8398   -2.9666  -10.5967 C   0  0  0  0  0  0  0  0  0  0  0  0
    1.4182   -3.8668  -11.4869 C   0  0  0  0  0  0  0  0  0  0  0  0
    0.5346   -3.5884  -12.4585 C   0  0  0  0  0  0  0  0  0  0  0  0
   -0.1903   -4.4584  -13.8149 S   0  0  0  0  0  0  0  0  0  0  0  0
    0.6369   -4.0588  -15.3867 C   0  0  0  0  0  0  0  0  0  0  0  0
    0.3883   -2.5951  -15.7418 C   0  0  0  0  0  0  0  0  0  0  0  0
    0.1954   -1.7116  -12.1015 Se  0  0  0  0  0  2  0  0  0  0  0  0
    2.8400   -0.4512   -9.0441 C   0  0  0  0  0  0  0  0  0  0  0  0
    3.6024   -1.7949   -8.2553 S   0  0  0  0  0  0  0  0  0  0  0  0
   -0.3553    0.7627  -10.4096 C   0  0  0  0  0  0  0  0  0  0  0  0
   -1.0349    1.8890  -10.1042 C   0  0  0  0  0  0  0  0  0  0  0  0
    0.1320    2.8891   -9.3799 S   0  0  0  0  0  0  0  0  0  0  0  0
   -2.5429    1.8404   -9.6168 C   0  0  0  0  0  0  0  0  0  0  0  0
   -2.9697    2.6486   -8.6323 C   0  0  0  0  0  0  0  0  0  0  0  0
   -3.8837    2.1155   -7.7316 C   0  0  0  0  0  0  0  0  0  0  0  0
   -4.1081    2.6135   -6.4510 C   0  0  0  0  0  0  0  0  0  0  0  0
   -3.7316    3.9142   -5.9353 C   0  0  0  0  0  0  0  0  0  0  0  0
   -2.4095    4.3116   -5.9089 C   0  0  0  0  0  0  0  0  0  0  0  0
   -1.9935    5.4593   -5.2523 C   0  0  0  0  0  0  0  0  0  0  0  0
   -2.9088    6.2625   -4.5863 C   0  0  0  0  0  0  0  0  0  0  0  0
   -2.2796    7.6994   -3.7147 S   0  0  0  0  0  0  0  0  0  0  0  0
   -3.5483    8.4452   -2.6450 C   0  0  0  0  0  0  0  0  0  0  0  0
   -3.9035    7.5195   -1.5115 C   0  0  0  0  0  0  0  0  0  0  0  0
   -4.2237    5.8886   -4.6069 C   0  0  0  0  0  0  0  0  0  0  0  0
   -5.1267    6.6881   -3.9705 F   0  0  0  0  0  0  0  0  0  0  0  0
   -4.6218    4.7319   -5.2746 C   0  0  0  0  0  0  0  0  0  0  0  0
   -4.6972    1.7643   -5.4906 C   0  0  0  0  0  0  0  0  0  0  0  0
   -5.0944    0.4930   -5.6498 C   0  0  0  0  0  0  0  0  0  0  0  0
   -4.8887    0.0051   -6.9611 C   0  0  0  0  0  0  0  0  0  0  0  0
   -5.2050   -1.3071   -7.4321 C   0  0  0  0  0  0  0  0  0  0  0  0
   -4.3239   -2.3927   -7.3387 C   0  0  0  0  0  0  0  0  0  0  0  0
   -4.6218   -3.6114   -7.8908 C   0  0  0  0  0  0  0  0  0  0  0  0
   -5.7975   -3.8452   -8.5659 C   0  0  0  0  0  0  0  0  0  0  0  0
   -6.1316   -5.4489   -9.2957 S   0  0  0  0  0  0  0  0  0  0  0  0
   -7.6684   -5.4892  -10.2416 C   0  0  0  0  0  0  0  0  0  0  0  0
   -7.6344   -4.6910  -11.5024 C   0  0  0  0  0  0  0  0  0  0  0  0
   -6.6787   -2.7919   -8.6649 C   0  0  0  0  0  0  0  0  0  0  0  0
   -6.3725   -1.5650   -8.1064 C   0  0  0  0  0  0  0  0  0  0  0  0
   -7.8433   -3.0193   -9.3133 F   0  0  0  0  0  0  0  0  0  0  0  0
   -4.2844    0.8560   -7.9251 C   0  0  0  0  0  0  0  0  0  0  0  0
   -3.4016    0.3923   -9.3749 S   0  0  0  0  0  0  0  0  0  0  0  0
   -5.3679   -0.2288   -4.5035 C   0  0  0  0  0  0  0  0  0  0  0  0
   -5.2213    0.3332   -3.3435 C   0  0  0  0  0  0  0  0  0  0  0  0
   -4.7033    1.9788   -3.8019 S   0  0  0  0  0  0  0  0  0  0  0  0
   -5.0788    0.0212   -1.8885 C   0  0  0  0  0  0  0  0  0  0  0  0
   -5.7725    0.1181   -0.7883 C   0  0  0  0  0  0  0  0  0  0  0  0
   -5.1312    0.0700    0.4179 C   0  0  0  0  0  0  0  0  0  0  0  0
   -5.6517    0.4190    1.6865 C   0  0  0  0  0  0  0  0  0  0  0  0
   -7.0422    0.3743    1.9699 C   0  0  0  0  0  0  0  0  0  0  0  0
   -7.9877    0.7113    2.7813 C   0  0  0  0  0  0  0  0  0  0  0  0
   -9.2546    0.2883    2.7962 C   0  0  0  0  0  0  0  0  0  0  0  0
   -9.7396   -0.5940    1.9135 C   0  0  0  0  0  0  0  0  0  0  0  0
  -11.2830   -1.4218    1.6326 S   0  0  0  0  0  0  0  0  0  0  0  0
  -11.2544   -3.0050    2.5356 C   0  0  0  0  0  0  0  0  0  0  0  0
  -10.1598   -3.9228    2.0132 C   0  0  0  0  0  0  0  0  0  0  0  0
   -8.1680   -0.9545    0.8007 Se  0  0  0  0  0  2  0  0  0  0  0  0
   -4.7909    0.5923    2.7532 C   0  0  0  0  0  0  0  0  0  0  0  0
   -3.4274    0.4472    2.7464 C   0  0  0  0  0  0  0  0  0  0  0  0
   -2.9253    0.0717    1.4962 C   0  0  0  0  0  0  0  0  0  0  0  0
   -1.5246   -0.1758    1.2459 C   0  0  0  0  0  0  0  0  0  0  0  0
   -0.8676   -0.7262    0.2125 C   0  0  0  0  0  0  0  0  0  0  0  0
    0.4567   -0.8347    0.1448 C   0  0  0  0  0  0  0  0  0  0  0  0
    1.2735   -0.4003    1.1109 C   0  0  0  0  0  0  0  0  0  0  0  0
    3.0143   -0.3728    1.3928 S   0  0  0  0  0  0  0  0  0  0  0  0
    3.3465    0.5021    2.9599 C   0  0  0  0  0  0  0  0  0  0  0  0
    2.9449    1.9546    2.8335 C   0  0  0  0  0  0  0  0  0  0  0  0
   -0.0651    0.3063    2.3810 Se  0  0  0  0  0  2  0  0  0  0  0  0
   -3.7856   -0.0875    0.4214 C   0  0  0  0  0  0  0  0  0  0  0  0
   -3.4383   -0.1756   -1.2506 S   0  0  0  0  0  0  0  0  0  0  0  0
   -2.7774    0.8192    3.8627 C   0  0  0  0  0  0  0  0  0  0  0  0
   -3.5004    1.3168    4.9072 C   0  0  0  0  0  0  0  0  0  0  0  0
   -5.0876    1.2441    4.3299 S   0  0  0  0  0  0  0  0  0  0  0  0
   -2.9538    1.9809    6.1206 C   0  0  0  0  0  0  0  0  0  0  0  0
   -3.6217    2.6493    7.1002 C   0  0  0  0  0  0  0  0  0  0  0  0
   -2.8973    3.3113    8.0111 C   0  0  0  0  0  0  0  0  0  0  0  0
   -3.3691    4.1101    9.0684 C   0  0  0  0  0  0  0  0  0  0  0  0
   -4.7954    4.3250    9.2662 C   0  0  0  0  0  0  0  0  0  0  0  0
   -5.5367    3.9554   10.3120 C   0  0  0  0  0  0  0  0  0  0  0  0
   -6.9090    4.2073   10.3305 C   0  0  0  0  0  0  0  0  0  0  0  0
   -7.5561    4.8348    9.2905 C   0  0  0  0  0  0  0  0  0  0  0  0
   -9.3151    5.1526    9.3653 S   0  0  0  0  0  0  0  0  0  0  0  0
   -9.9299    5.7302    7.7613 C   0  0  0  0  0  0  0  0  0  0  0  0
   -9.7791    4.5382    6.8112 C   0  0  0  0  0  0  0  0  0  0  0  0
   -6.7981    5.2336    8.1850 C   0  0  0  0  0  0  0  0  0  0  0  0
   -7.3737    5.8711    7.1187 F   0  0  0  0  0  0  0  0  0  0  0  0
   -5.4455    4.9768    8.1871 C   0  0  0  0  0  0  0  0  0  0  0  0
   -2.4919    4.7647    9.8933 C   0  0  0  0  0  0  0  0  0  0  0  0
   -1.1344    4.7282    9.7919 C   0  0  0  0  0  0  0  0  0  0  0  0
   -0.6381    3.9351    8.7251 C   0  0  0  0  0  0  0  0  0  0  0  0
    0.7541    3.9969    8.3554 C   0  0  0  0  0  0  0  0  0  0  0  0
    1.8075    3.6736    9.1242 C   0  0  0  0  0  0  0  0  0  0  0  0
    3.1320    3.8586    8.6609 C   0  0  0  0  0  0  0  0  0  0  0  0
    3.3784    4.3760    7.3995 C   0  0  0  0  0  0  0  0  0  0  0  0
    5.0014    4.7364    6.7851 S   0  0  0  0  0  0  0  0  0  0  0  0
    6.2741    4.8424    8.0306 C   0  0  0  0  0  0  0  0  0  0  0  0
    6.0660    6.0610    8.9342 C   0  0  0  0  0  0  0  0  0  0  0  0
    2.2691    4.6990    6.6147 C   0  0  0  0  0  0  0  0  0  0  0  0
    1.0046    4.5179    7.0735 C   0  0  0  0  0  0  0  0  0  0  0  0
    2.5249    5.2106    5.3787 F   0  0  0  0  0  0  0  0  0  0  0  0
   -1.5240    3.2601    7.8874 C   0  0  0  0  0  0  0  0  0  0  0  0
   -1.3202    2.2776    6.4930 S   0  0  0  0  0  0  0  0  0  0  0  0
   -0.4019    5.4176   10.6705 C   0  0  0  0  0  0  0  0  0  0  0  0
   -1.0770    6.1246   11.6300 C   0  0  0  0  0  0  0  0  0  0  0  0
   -2.7116    5.8071   11.2764 S   0  0  0  0  0  0  0  0  0  0  0  0
    4.0235   -8.3818    9.4492 H   0  0  0  0  0  0  0  0  0  0  0  0
    6.0774   -7.4631    8.3170 H   0  0  0  0  0  0  0  0  0  0  0  0
    8.3388   -5.7695    4.2675 H   0  0  0  0  0  0  0  0  0  0  0  0
   10.4424   -5.2533    5.4207 H   0  0  0  0  0  0  0  0  0  0  0  0
    9.9655   -3.3841    9.5359 H   0  0  0  0  0  0  0  0  0  0  0  0
   11.7027   -3.6012   10.0072 H   0  0  0  0  0  0  0  0  0  0  0  0
   11.3923   -1.6163    8.6010 H   0  0  0  0  0  0  0  0  0  0  0  0
   12.3100   -2.8641    7.6025 H   0  0  0  0  0  0  0  0  0  0  0  0
   10.5228   -2.5700    7.3746 H   0  0  0  0  0  0  0  0  0  0  0  0
    1.3315   -5.2845    3.0761 H   0  0  0  0  0  0  0  0  0  0  0  0
   -1.0351   -5.9801    2.8740 H   0  0  0  0  0  0  0  0  0  0  0  0
   -4.4160   -7.9469    5.7650 H   0  0  0  0  0  0  0  0  0  0  0  0
   -3.4225   -6.4496    5.6357 H   0  0  0  0  0  0  0  0  0  0  0  0
   -1.6804   -8.1302    6.9684 H   0  0  0  0  0  0  0  0  0  0  0  0
   -3.2870   -8.6434    7.6272 H   0  0  0  0  0  0  0  0  0  0  0  0
   -2.7685   -6.9337    7.6980 H   0  0  0  0  0  0  0  0  0  0  0  0
    3.1019   -5.8462    2.0100 H   0  0  0  0  0  0  0  0  0  0  0  0
    6.7771   -3.4460    0.5796 H   0  0  0  0  0  0  0  0  0  0  0  0
    8.1070   -0.6307   -3.3927 H   0  0  0  0  0  0  0  0  0  0  0  0
    9.6436    0.8026   -2.0989 H   0  0  0  0  0  0  0  0  0  0  0  0
    8.6674    0.4893    2.9400 H   0  0  0  0  0  0  0  0  0  0  0  0
    9.8955   -0.8675    2.7422 H   0  0  0  0  0  0  0  0  0  0  0  0
   10.8772    0.2958    4.4850 H   0  0  0  0  0  0  0  0  0  0  0  0
   10.1967    1.8523    3.9732 H   0  0  0  0  0  0  0  0  0  0  0  0
   11.6008    1.1916    3.1448 H   0  0  0  0  0  0  0  0  0  0  0  0
    1.7260   -3.8282   -5.0203 H   0  0  0  0  0  0  0  0  0  0  0  0
    0.2752   -5.7876   -5.3280 H   0  0  0  0  0  0  0  0  0  0  0  0
   -0.4679   -8.2855   -1.7605 H   0  0  0  0  0  0  0  0  0  0  0  0
   -1.2409   -9.6381   -2.5883 H   0  0  0  0  0  0  0  0  0  0  0  0
   -2.3378   -7.0267   -2.3103 H   0  0  0  0  0  0  0  0  0  0  0  0
   -1.5509   -6.8854   -3.9044 H   0  0  0  0  0  0  0  0  0  0  0  0
   -2.8153   -8.1853   -3.6152 H   0  0  0  0  0  0  0  0  0  0  0  0
    3.5974   -3.0859   -5.8362 H   0  0  0  0  0  0  0  0  0  0  0  0
    4.7777    1.1244   -6.8076 H   0  0  0  0  0  0  0  0  0  0  0  0
    1.7779    4.5075   -9.0453 H   0  0  0  0  0  0  0  0  0  0  0  0
    2.5958    6.4528   -7.7444 H   0  0  0  0  0  0  0  0  0  0  0  0
    6.6680    5.1778   -5.1871 H   0  0  0  0  0  0  0  0  0  0  0  0
    6.5898    6.5587   -4.0077 H   0  0  0  0  0  0  0  0  0  0  0  0
    6.1095    4.8883   -2.5290 H   0  0  0  0  0  0  0  0  0  0  0  0
    5.3473    3.7986   -3.7986 H   0  0  0  0  0  0  0  0  0  0  0  0
    4.4202    5.1736   -3.1838 H   0  0  0  0  0  0  0  0  0  0  0  0
    2.5883   -3.3026   -9.8013 H   0  0  0  0  0  0  0  0  0  0  0  0
    1.7924   -4.9514  -11.4667 H   0  0  0  0  0  0  0  0  0  0  0  0
    1.7175   -4.2713  -15.3368 H   0  0  0  0  0  0  0  0  0  0  0  0
    0.1686   -4.6443  -16.1619 H   0  0  0  0  0  0  0  0  0  0  0  0
   -0.5305   -2.2930  -15.1624 H   0  0  0  0  0  0  0  0  0  0  0  0
    0.2111   -2.4539  -16.8221 H   0  0  0  0  0  0  0  0  0  0  0  0
    1.2693   -1.9860  -15.4575 H   0  0  0  0  0  0  0  0  0  0  0  0
   -0.8725   -0.0476  -10.9036 H   0  0  0  0  0  0  0  0  0  0  0  0
   -2.6177    3.6816   -8.5533 H   0  0  0  0  0  0  0  0  0  0  0  0
   -1.6709    3.6808   -6.4233 H   0  0  0  0  0  0  0  0  0  0  0  0
   -0.9568    5.7529   -5.2388 H   0  0  0  0  0  0  0  0  0  0  0  0
   -3.1263    9.3594   -2.1826 H   0  0  0  0  0  0  0  0  0  0  0  0
   -4.4242    8.7467   -3.2200 H   0  0  0  0  0  0  0  0  0  0  0  0
   -4.9655    7.6242   -1.2754 H   0  0  0  0  0  0  0  0  0  0  0  0
   -3.7340    6.4540   -1.7292 H   0  0  0  0  0  0  0  0  0  0  0  0
   -3.3390    7.8305   -0.5851 H   0  0  0  0  0  0  0  0  0  0  0  0
   -5.6572    4.4468   -5.2830 H   0  0  0  0  0  0  0  0  0  0  0  0
   -3.3996   -2.1873   -6.8068 H   0  0  0  0  0  0  0  0  0  0  0  0
   -3.9108   -4.4252   -7.8050 H   0  0  0  0  0  0  0  0  0  0  0  0
   -8.5495   -5.2215   -9.6092 H   0  0  0  0  0  0  0  0  0  0  0  0
   -7.8101   -6.5609  -10.5457 H   0  0  0  0  0  0  0  0  0  0  0  0
   -7.5546   -5.3658  -12.4083 H   0  0  0  0  0  0  0  0  0  0  0  0
   -8.5785   -4.0815  -11.6513 H   0  0  0  0  0  0  0  0  0  0  0  0
   -6.7789   -4.0145  -11.5338 H   0  0  0  0  0  0  0  0  0  0  0  0
   -7.1045   -0.7744   -8.2146 H   0  0  0  0  0  0  0  0  0  0  0  0
   -5.7160   -1.2915   -4.5988 H   0  0  0  0  0  0  0  0  0  0  0  0
   -6.8809    0.2728   -0.8438 H   0  0  0  0  0  0  0  0  0  0  0  0
   -7.6954    1.4763    3.6079 H   0  0  0  0  0  0  0  0  0  0  0  0
  -10.0093    0.6583    3.5797 H   0  0  0  0  0  0  0  0  0  0  0  0
  -12.2236   -3.5259    2.2777 H   0  0  0  0  0  0  0  0  0  0  0  0
  -11.1226   -2.8590    3.5979 H   0  0  0  0  0  0  0  0  0  0  0  0
  -10.1512   -4.8414    2.6641 H   0  0  0  0  0  0  0  0  0  0  0  0
   -9.1725   -3.4249    2.1738 H   0  0  0  0  0  0  0  0  0  0  0  0
  -10.2849   -4.2039    0.9610 H   0  0  0  0  0  0  0  0  0  0  0  0
   -1.4977   -1.1518   -0.6369 H   0  0  0  0  0  0  0  0  0  0  0  0
    0.9686   -1.3133   -0.7684 H   0  0  0  0  0  0  0  0  0  0  0  0
    4.4371    0.4470    3.1817 H   0  0  0  0  0  0  0  0  0  0  0  0
    2.8326    0.0602    3.8061 H   0  0  0  0  0  0  0  0  0  0  0  0
    2.6816    2.2036    1.7737 H   0  0  0  0  0  0  0  0  0  0  0  0
    3.7604    2.5748    3.2232 H   0  0  0  0  0  0  0  0  0  0  0  0
    2.0244    2.0889    3.4757 H   0  0  0  0  0  0  0  0  0  0  0  0
   -1.6818    0.7343    4.0010 H   0  0  0  0  0  0  0  0  0  0  0  0
   -4.7378    2.6123    7.0907 H   0  0  0  0  0  0  0  0  0  0  0  0
   -5.0315    3.4409   11.1508 H   0  0  0  0  0  0  0  0  0  0  0  0
   -7.4807    3.8958   11.1910 H   0  0  0  0  0  0  0  0  0  0  0  0
  -11.0208    5.9667    7.8141 H   0  0  0  0  0  0  0  0  0  0  0  0
   -9.4226    6.6235    7.4470 H   0  0  0  0  0  0  0  0  0  0  0  0
   -9.4602    4.8217    5.8056 H   0  0  0  0  0  0  0  0  0  0  0  0
   -9.0637    3.7910    7.2202 H   0  0  0  0  0  0  0  0  0  0  0  0
  -10.7674    4.0163    6.7648 H   0  0  0  0  0  0  0  0  0  0  0  0
   -4.8483    5.2803    7.3268 H   0  0  0  0  0  0  0  0  0  0  0  0
    1.6393    3.2654   10.1281 H   0  0  0  0  0  0  0  0  0  0  0  0
    3.9682    3.5975    9.2886 H   0  0  0  0  0  0  0  0  0  0  0  0
    7.2423    5.0865    7.4787 H   0  0  0  0  0  0  0  0  0  0  0  0
    6.4942    3.9270    8.5805 H   0  0  0  0  0  0  0  0  0  0  0  0
    6.1445    5.8008    9.9884 H   0  0  0  0  0  0  0  0  0  0  0  0
    5.0311    6.4182    8.7099 H   0  0  0  0  0  0  0  0  0  0  0  0
    6.7801    6.8680    8.6676 H   0  0  0  0  0  0  0  0  0  0  0  0
    0.1540    4.7876    6.4353 H   0  0  0  0  0  0  0  0  0  0  0  0
    0.7194    5.4644   10.6956 H   0  0  0  0  0  0  0  0  0  0  0  0
   -0.6291    6.7399   12.4351 H   0  0  0  0  0  0  0  0  0  0  0  0
  1  2  2  0
  2  3  1  0
  3  4  2  0
  4  5  1  0
  5  6  2  0
  6  7  1  0
  7  8  2  0
  8  9  1  0
  9 10  1  0
 10 11  1  0
  8 12  1  0
  4 13  1  0
 13 14  2  0
 14 15  1  0
 15 16  1  0
 16 17  2  0
 17 18  1  0
 18 19  2  0
 19 20  1  0
 20 21  1  0
 21 22  1  0
 19 23  1  0
 15 24  2  0
 24 25  1  0
 14 26  1  0
 26 27  2  0
 27 28  1  0
 27 29  1  0
 29 30  2  0
 30 31  1  0
 31 32  2  0
 32 33  1  0
 33 34  2  0
 34 35  1  0
 35 36  2  0
 36 37  1  0
 37 38  1  0
 38 39  1  0
 36 40  1  0
 32 41  1  0
 41 42  2  0
 42 43  1  0
 43 44  1  0
 44 45  2  0
 45 46  1  0
 46 47  2  0
 47 48  1  0
 48 49  1  0
 49 50  1  0
 47 51  1  0
 43 52  2  0
 52 53  1  0
 42 54  1  0
 54 55  2  0
 55 56  1  0
 55 57  1  0
 57 58  2  0
 58 59  1  0
 59 60  2  0
 60 61  1  0
 61 62  2  0
 62 63  1  0
 63 64  2  0
 64 65  1  0
 65 66  1  0
 66 67  1  0
 64 68  1  0
 60 69  1  0
 69 70  2  0
 70 71  1  0
 71 72  1  0
 72 73  2  0
 73 74  1  0
 74 75  2  0
 75 76  1  0
 76 77  1  0
 77 78  1  0
 75 79  1  0
 71 80  2  0
 80 81  1  0
 70 82  1  0
 82 83  2  0
 83 84  1  0
 83 85  1  0
 85 86  2  0
 86 87  1  0
 87 88  2  0
 88 89  1  0
 89 90  2  0
 90 91  1  0
 91 92  2  0
 92 93  1  0
 93 94  1  0
 94 95  1  0
 92 96  1  0
 96 97  1  0
 96 98  2  0
 88 99  1  0
 99100  2  0
100101  1  0
101102  1  0
102103  2  0
103104  1  0
104105  2  0
105106  1  0
106107  1  0
107108  1  0
105109  1  0
109110  2  0
109111  1  0
101112  2  0
112113  1  0
100114  1  0
114115  2  0
115116  1  0
115117  1  0
117118  2  0
118119  1  0
119120  2  0
120121  1  0
121122  2  0
122123  1  0
123124  2  0
124125  1  0
125126  1  0
126127  1  0
124128  1  0
120129  1  0
129130  2  0
130131  1  0
131132  1  0
132133  2  0
133134  1  0
134135  2  0
135136  1  0
136137  1  0
137138  1  0
135139  1  0
131140  2  0
140141  1  0
130142  1  0
142143  2  0
143144  1  0
143145  1  0
145146  2  0
146147  1  0
147148  2  0
148149  1  0
149150  2  0
150151  1  0
151152  2  0
152153  1  0
153154  1  0
154155  1  0
152156  1  0
156157  1  0
156158  2  0
148159  1  0
159160  2  0
160161  1  0
161162  1  0
162163  2  0
163164  1  0
164165  2  0
165166  1  0
166167  1  0
167168  1  0
165169  1  0
169170  2  0
169171  1  0
161172  2  0
172173  1  0
160174  1  0
174175  2  0
175176  1  0
 25  1  1  0
 53 29  1  0
 81 57  1  0
113 85  1  0
141117  1  0
173145  1  0
 24  3  1  0
 52 31  1  0
 80 59  1  0
112 87  1  0
140119  1  0
172147  1  0
 12  5  1  0
 28 13  1  0
 40 33  1  0
 56 41  1  0
 68 61  1  0
 84 69  1  0
 98 89  1  0
116 99  1  0
128121  1  0
144129  1  0
158149  1  0
176159  1  0
 23 16  1  0
 51 44  1  0
 79 72  1  0
110102  1  0
139132  1  0
170162  1  0
  1177  1  0
  2178  1  0
  6179  1  0
  7180  1  0
 10181  1  0
 10182  1  0
 11183  1  0
 11184  1  0
 11185  1  0
 17186  1  0
 18187  1  0
 21188  1  0
 21189  1  0
 22190  1  0
 22191  1  0
 22192  1  0
 26193  1  0
 30194  1  0
 34195  1  0
 35196  1  0
 38197  1  0
 38198  1  0
 39199  1  0
 39200  1  0
 39201  1  0
 45202  1  0
 46203  1  0
 49204  1  0
 49205  1  0
 50206  1  0
 50207  1  0
 50208  1  0
 54209  1  0
 58210  1  0
 62211  1  0
 63212  1  0
 66213  1  0
 66214  1  0
 67215  1  0
 67216  1  0
 67217  1  0
 73218  1  0
 74219  1  0
 77220  1  0
 77221  1  0
 78222  1  0
 78223  1  0
 78224  1  0
 82225  1  0
 86226  1  0
 90227  1  0
 91228  1  0
 94229  1  0
 94230  1  0
 95231  1  0
 95232  1  0
 95233  1  0
 98234  1  0
103235  1  0
104236  1  0
107237  1  0
107238  1  0
108239  1  0
108240  1  0
108241  1  0
110242  1  0
114243  1  0
118244  1  0
122245  1  0
123246  1  0
126247  1  0
126248  1  0
127249  1  0
127250  1  0
127251  1  0
133252  1  0
134253  1  0
137254  1  0
137255  1  0
138256  1  0
138257  1  0
138258  1  0
142259  1  0
146260  1  0
150261  1  0
151262  1  0
154263  1  0
154264  1  0
155265  1  0
155266  1  0
155267  1  0
158268  1  0
163269  1  0
164270  1  0
167271  1  0
167272  1  0
168273  1  0
168274  1  0
168275  1  0
170276  1  0
174277  1  0
175278  1  0
M  END

