
     RDKit          3D

284313  0  0  0  0  0  0  0  0999 V2000
   -0.3367  -11.7716    2.5555 C   0  0  0  0  0  0  0  0  0  0  0  0
   -0.1111  -10.9618    1.4763 C   0  0  0  0  0  0  0  0  0  0  0  0
   -1.1679  -10.5750    0.7509 C   0  0  0  0  0  0  0  0  0  0  0  0
   -1.1546   -9.7436   -0.3774 C   0  0  0  0  0  0  0  0  0  0  0  0
    0.0093   -9.0088   -0.8345 C   0  0  0  0  0  0  0  0  0  0  0  0
    0.7336   -9.2358   -1.9594 C   0  0  0  0  0  0  0  0  0  0  0  0
    1.8097   -8.4359   -2.3399 C   0  0  0  0  0  0  0  0  0  0  0  0
    2.1679   -7.3638   -1.5471 C   0  0  0  0  0  0  0  0  0  0  0  0
    3.5108   -6.2506   -1.9482 S   0  0  0  0  0  0  0  0  0  0  0  0
    4.2042   -6.5570   -3.5801 C   0  0  0  0  0  0  0  0  0  0  0  0
    3.2089   -6.1373   -4.6366 C   0  0  0  0  0  0  0  0  0  0  0  0
    1.4298   -7.1166   -0.3787 C   0  0  0  0  0  0  0  0  0  0  0  0
    1.8266   -6.0460    0.3762 F   0  0  0  0  0  0  0  0  0  0  0  0
    0.3826   -7.9103   -0.0287 C   0  0  0  0  0  0  0  0  0  0  0  0
   -2.3534   -9.4330   -1.0235 C   0  0  0  0  0  0  0  0  0  0  0  0
   -3.5870   -9.8759   -0.6350 C   0  0  0  0  0  0  0  0  0  0  0  0
   -3.5982  -10.7006    0.4951 C   0  0  0  0  0  0  0  0  0  0  0  0
   -4.8073  -11.1631    1.1260 C   0  0  0  0  0  0  0  0  0  0  0  0
   -5.5479  -10.2814    1.9426 C   0  0  0  0  0  0  0  0  0  0  0  0
   -6.6627  -10.6874    2.6063 C   0  0  0  0  0  0  0  0  0  0  0  0
   -7.1526  -11.9786    2.5354 C   0  0  0  0  0  0  0  0  0  0  0  0
   -8.6013  -12.4886    3.4335 S   0  0  0  0  0  0  0  0  0  0  0  0
   -8.2101  -12.5617    5.2191 C   0  0  0  0  0  0  0  0  0  0  0  0
   -7.1373  -13.5317    5.5485 C   0  0  0  0  0  0  0  0  0  0  0  0
   -6.4142  -12.8495    1.7246 C   0  0  0  0  0  0  0  0  0  0  0  0
   -5.2873  -12.4406    1.0507 C   0  0  0  0  0  0  0  0  0  0  0  0
   -6.9141  -14.1176    1.6440 F   0  0  0  0  0  0  0  0  0  0  0  0
   -2.3995  -11.0235    1.1450 C   0  0  0  0  0  0  0  0  0  0  0  0
   -2.0336  -11.9673    2.5166 S   0  0  0  0  0  0  0  0  0  0  0  0
   -4.6536   -9.4543   -1.3783 C   0  0  0  0  0  0  0  0  0  0  0  0
   -4.4229   -8.6499   -2.4175 C   0  0  0  0  0  0  0  0  0  0  0  0
   -2.6870   -8.4702   -2.3792 S   0  0  0  0  0  0  0  0  0  0  0  0
   -5.2775   -7.8493   -3.3003 C   0  0  0  0  0  0  0  0  0  0  0  0
   -6.4724   -7.2517   -3.0653 C   0  0  0  0  0  0  0  0  0  0  0  0
   -6.9209   -6.3346   -3.9491 C   0  0  0  0  0  0  0  0  0  0  0  0
   -8.0051   -5.4591   -3.8545 C   0  0  0  0  0  0  0  0  0  0  0  0
   -8.8919   -5.4535   -2.6921 C   0  0  0  0  0  0  0  0  0  0  0  0
  -10.1103   -4.9353   -2.5051 C   0  0  0  0  0  0  0  0  0  0  0  0
  -10.6760   -4.8996   -1.2807 C   0  0  0  0  0  0  0  0  0  0  0  0
  -10.1104   -5.3516   -0.1808 C   0  0  0  0  0  0  0  0  0  0  0  0
  -10.4371   -5.5116    1.5520 S   0  0  0  0  0  0  0  0  0  0  0  0
   -8.8707   -6.0281    2.3499 C   0  0  0  0  0  0  0  0  0  0  0  0
   -7.9168   -4.8455    2.1150 C   0  0  0  0  0  0  0  0  0  0  0  0
   -8.3891   -5.9921   -0.9640 Se  0  0  0  0  0  2  0  0  0  0  0  0
   -8.2014   -4.4417   -4.7871 C   0  0  0  0  0  0  0  0  0  0  0  0
   -7.4117   -4.1975   -5.8529 C   0  0  0  0  0  0  0  0  0  0  0  0
   -6.3187   -5.0725   -5.9797 C   0  0  0  0  0  0  0  0  0  0  0  0
   -5.4222   -5.1242   -7.0980 C   0  0  0  0  0  0  0  0  0  0  0  0
   -4.1873   -5.5498   -7.3054 C   0  0  0  0  0  0  0  0  0  0  0  0
   -3.5998   -5.6697   -8.4820 C   0  0  0  0  0  0  0  0  0  0  0  0
   -4.2253   -5.3552   -9.6308 C   0  0  0  0  0  0  0  0  0  0  0  0
   -3.7695   -5.3975  -11.3327 S   0  0  0  0  0  0  0  0  0  0  0  0
   -3.9286   -7.0806  -12.0068 C   0  0  0  0  0  0  0  0  0  0  0  0
   -5.3158   -7.6086  -12.0267 C   0  0  0  0  0  0  0  0  0  0  0  0
   -5.9677   -4.7754   -8.9491 Se  0  0  0  0  0  2  0  0  0  0  0  0
   -6.1138   -6.0868   -5.0353 C   0  0  0  0  0  0  0  0  0  0  0  0
   -4.7898   -7.1357   -4.7725 S   0  0  0  0  0  0  0  0  0  0  0  0
   -7.5481   -2.9804   -6.4735 C   0  0  0  0  0  0  0  0  0  0  0  0
   -8.4524   -2.1233   -5.9521 C   0  0  0  0  0  0  0  0  0  0  0  0
   -9.1372   -2.9925   -4.6554 S   0  0  0  0  0  0  0  0  0  0  0  0
   -8.3611   -0.5828   -5.9856 C   0  0  0  0  0  0  0  0  0  0  0  0
   -7.1034   -0.0148   -6.0838 C   0  0  0  0  0  0  0  0  0  0  0  0
   -6.9646    1.2274   -5.5666 C   0  0  0  0  0  0  0  0  0  0  0  0
   -5.6870    1.7602   -5.2096 C   0  0  0  0  0  0  0  0  0  0  0  0
   -4.4686    1.1877   -5.6742 C   0  0  0  0  0  0  0  0  0  0  0  0
   -4.1208   -0.1279   -5.3308 C   0  0  0  0  0  0  0  0  0  0  0  0
   -2.9513   -0.7078   -5.7443 C   0  0  0  0  0  0  0  0  0  0  0  0
   -2.0459   -0.0179   -6.5270 C   0  0  0  0  0  0  0  0  0  0  0  0
   -0.5253   -0.8252   -7.0643 S   0  0  0  0  0  0  0  0  0  0  0  0
    0.7146   -0.6262   -5.7632 C   0  0  0  0  0  0  0  0  0  0  0  0
    1.9899   -1.3811   -6.0814 C   0  0  0  0  0  0  0  0  0  0  0  0
   -2.3731    1.2598   -6.8645 C   0  0  0  0  0  0  0  0  0  0  0  0
   -1.4979    2.0050   -7.6363 F   0  0  0  0  0  0  0  0  0  0  0  0
   -3.5682    1.8671   -6.4496 C   0  0  0  0  0  0  0  0  0  0  0  0
   -5.6547    2.8293   -4.3379 C   0  0  0  0  0  0  0  0  0  0  0  0
   -6.6822    3.4781   -3.7616 C   0  0  0  0  0  0  0  0  0  0  0  0
   -7.9667    2.9420   -4.1562 C   0  0  0  0  0  0  0  0  0  0  0  0
   -9.1840    3.5637   -3.7099 C   0  0  0  0  0  0  0  0  0  0  0  0
   -9.3945    4.8590   -4.2210 C   0  0  0  0  0  0  0  0  0  0  0  0
  -10.5213    5.5896   -3.8691 C   0  0  0  0  0  0  0  0  0  0  0  0
  -11.4721    5.0925   -3.0200 C   0  0  0  0  0  0  0  0  0  0  0  0
  -12.9067    6.0376   -2.5257 S   0  0  0  0  0  0  0  0  0  0  0  0
  -14.2264    5.7769   -3.7368 C   0  0  0  0  0  0  0  0  0  0  0  0
  -13.8558    6.3929   -5.0629 C   0  0  0  0  0  0  0  0  0  0  0  0
  -11.2559    3.8068   -2.5214 C   0  0  0  0  0  0  0  0  0  0  0  0
  -10.1213    3.0582   -2.8682 C   0  0  0  0  0  0  0  0  0  0  0  0
  -12.1579    3.2759   -1.6968 F   0  0  0  0  0  0  0  0  0  0  0  0
   -8.0133    1.8482   -5.0173 C   0  0  0  0  0  0  0  0  0  0  0  0
   -9.2728    0.6039   -5.2555 S   0  0  0  0  0  0  0  0  0  0  0  0
   -6.3867    4.2918   -2.6836 C   0  0  0  0  0  0  0  0  0  0  0  0
   -5.1459    4.3855   -2.2609 C   0  0  0  0  0  0  0  0  0  0  0  0
   -4.3058    3.3303   -3.4195 S   0  0  0  0  0  0  0  0  0  0  0  0
   -4.3425    4.9197   -1.1077 C   0  0  0  0  0  0  0  0  0  0  0  0
   -3.5457    3.9003   -0.4843 C   0  0  0  0  0  0  0  0  0  0  0  0
   -2.8373    4.2267    0.5756 C   0  0  0  0  0  0  0  0  0  0  0  0
   -1.9466    3.3711    1.2287 C   0  0  0  0  0  0  0  0  0  0  0  0
   -1.8320    1.9559    0.9441 C   0  0  0  0  0  0  0  0  0  0  0  0
   -1.0340    1.4743   -0.0389 C   0  0  0  0  0  0  0  0  0  0  0  0
   -0.8882    0.1014   -0.2696 C   0  0  0  0  0  0  0  0  0  0  0  0
   -1.5581   -0.8121    0.4992 C   0  0  0  0  0  0  0  0  0  0  0  0
   -1.3150   -2.5530    0.2546 S   0  0  0  0  0  0  0  0  0  0  0  0
   -2.2395   -3.2655   -1.0870 C   0  0  0  0  0  0  0  0  0  0  0  0
   -1.6805   -2.7488   -2.4011 C   0  0  0  0  0  0  0  0  0  0  0  0
   -2.3761   -0.3394    1.4955 C   0  0  0  0  0  0  0  0  0  0  0  0
   -3.0719   -1.2118    2.3088 F   0  0  0  0  0  0  0  0  0  0  0  0
   -2.5133    1.0097    1.7203 C   0  0  0  0  0  0  0  0  0  0  0  0
   -1.1681    3.8527    2.2580 C   0  0  0  0  0  0  0  0  0  0  0  0
   -1.1927    5.1265    2.7243 C   0  0  0  0  0  0  0  0  0  0  0  0
   -2.1191    5.9740    2.0543 C   0  0  0  0  0  0  0  0  0  0  0  0
   -2.2722    7.3235    2.5041 C   0  0  0  0  0  0  0  0  0  0  0  0
   -3.3617    7.7416    3.2101 C   0  0  0  0  0  0  0  0  0  0  0  0
   -3.4372    8.9840    3.8329 C   0  0  0  0  0  0  0  0  0  0  0  0
   -2.3690    9.8695    3.7532 C   0  0  0  0  0  0  0  0  0  0  0  0
   -2.3762   11.4164    4.6317 S   0  0  0  0  0  0  0  0  0  0  0  0
   -2.8826   12.8353    3.6801 C   0  0  0  0  0  0  0  0  0  0  0  0
   -4.3268   12.7759    3.2283 C   0  0  0  0  0  0  0  0  0  0  0  0
   -1.2720    9.4499    3.0303 C   0  0  0  0  0  0  0  0  0  0  0  0
   -1.1928    8.2388    2.4196 C   0  0  0  0  0  0  0  0  0  0  0  0
   -0.2336   10.3318    2.9755 F   0  0  0  0  0  0  0  0  0  0  0  0
   -2.8966    5.5131    1.0225 C   0  0  0  0  0  0  0  0  0  0  0  0
   -4.0095    6.1943   -0.1364 S   0  0  0  0  0  0  0  0  0  0  0  0
   -0.2093    5.4429    3.6402 C   0  0  0  0  0  0  0  0  0  0  0  0
    0.6651    4.5222    3.9891 C   0  0  0  0  0  0  0  0  0  0  0  0
    0.1377    3.1313    3.0552 S   0  0  0  0  0  0  0  0  0  0  0  0
    1.9921    4.3905    4.6704 C   0  0  0  0  0  0  0  0  0  0  0  0
    2.9617    5.2442    5.0125 C   0  0  0  0  0  0  0  0  0  0  0  0
    4.2176    4.7541    5.2873 C   0  0  0  0  0  0  0  0  0  0  0  0
    5.4185    5.4731    5.3782 C   0  0  0  0  0  0  0  0  0  0  0  0
    5.5361    6.8713    5.7513 C   0  0  0  0  0  0  0  0  0  0  0  0
    4.7368    7.7927    6.3248 C   0  0  0  0  0  0  0  0  0  0  0  0
    5.1301    9.0479    6.5438 C   0  0  0  0  0  0  0  0  0  0  0  0
    6.3293    9.5213    6.2296 C   0  0  0  0  0  0  0  0  0  0  0  0
    7.2475   11.0301    6.3811 S   0  0  0  0  0  0  0  0  0  0  0  0
    8.1799   10.9092    7.9724 C   0  0  0  0  0  0  0  0  0  0  0  0
    9.1205    9.7467    7.8115 C   0  0  0  0  0  0  0  0  0  0  0  0
    7.1231    7.9009    5.4476 Se  0  0  0  0  0  2  0  0  0  0  0  0
    6.6483    4.7894    5.3320 C   0  0  0  0  0  0  0  0  0  0  0  0
    6.7903    3.4364    5.2150 C   0  0  0  0  0  0  0  0  0  0  0  0
    5.5960    2.7276    5.1617 C   0  0  0  0  0  0  0  0  0  0  0  0
    5.5035    1.2891    5.0987 C   0  0  0  0  0  0  0  0  0  0  0  0
    4.5077    0.4119    5.2463 C   0  0  0  0  0  0  0  0  0  0  0  0
    4.6387   -0.8997    5.1085 C   0  0  0  0  0  0  0  0  0  0  0  0
    5.7878   -1.5020    4.8051 C   0  0  0  0  0  0  0  0  0  0  0  0
    6.3781   -3.1339    4.5426 S   0  0  0  0  0  0  0  0  0  0  0  0
    6.2170   -3.5770    2.7746 C   0  0  0  0  0  0  0  0  0  0  0  0
    6.7555   -4.9391    2.4818 C   0  0  0  0  0  0  0  0  0  0  0  0
    6.9577    0.0806    4.6827 Se  0  0  0  0  0  2  0  0  0  0  0  0
    4.3849    3.4142    5.1949 C   0  0  0  0  0  0  0  0  0  0  0  0
    2.8210    2.8581    4.7485 S   0  0  0  0  0  0  0  0  0  0  0  0
    8.0440    2.9733    4.9823 C   0  0  0  0  0  0  0  0  0  0  0  0
    9.0482    3.8772    4.8860 C   0  0  0  0  0  0  0  0  0  0  0  0
    8.2529    5.3677    5.1308 S   0  0  0  0  0  0  0  0  0  0  0  0
   10.4138    3.6816    4.3048 C   0  0  0  0  0  0  0  0  0  0  0  0
   10.6432    2.8924    3.1634 C   0  0  0  0  0  0  0  0  0  0  0  0
   11.8375    3.0083    2.5786 C   0  0  0  0  0  0  0  0  0  0  0  0
   12.2860    2.4382    1.3712 C   0  0  0  0  0  0  0  0  0  0  0  0
   11.4301    1.5419    0.5671 C   0  0  0  0  0  0  0  0  0  0  0  0
   11.6047    1.0788   -0.6863 C   0  0  0  0  0  0  0  0  0  0  0  0
   10.7362    0.2667   -1.2795 C   0  0  0  0  0  0  0  0  0  0  0  0
    9.6131   -0.1664   -0.6988 C   0  0  0  0  0  0  0  0  0  0  0  0
    8.2607   -1.1755   -1.1763 S   0  0  0  0  0  0  0  0  0  0  0  0
    8.6695   -2.9301   -0.8648 C   0  0  0  0  0  0  0  0  0  0  0  0
    7.6765   -3.8710   -1.4918 C   0  0  0  0  0  0  0  0  0  0  0  0
    9.8160    0.7529    1.0431 Se  0  0  0  0  0  2  0  0  0  0  0  0
   13.5282    2.7584    0.8664 C   0  0  0  0  0  0  0  0  0  0  0  0
   14.4101    3.6161    1.4444 C   0  0  0  0  0  0  0  0  0  0  0  0
   13.9902    4.2097    2.6424 C   0  0  0  0  0  0  0  0  0  0  0  0
   14.6468    5.3105    3.3179 C   0  0  0  0  0  0  0  0  0  0  0  0
   15.5103    6.2797    2.9531 C   0  0  0  0  0  0  0  0  0  0  0  0
   16.0239    7.1441    3.8194 C   0  0  0  0  0  0  0  0  0  0  0  0
   15.7477    7.1550    5.1227 C   0  0  0  0  0  0  0  0  0  0  0  0
   16.1964    8.1449    6.5107 S   0  0  0  0  0  0  0  0  0  0  0  0
   17.7398    7.6188    7.2721 C   0  0  0  0  0  0  0  0  0  0  0  0
   17.5791    6.2569    7.9309 C   0  0  0  0  0  0  0  0  0  0  0  0
   14.4893    5.6304    5.2028 Se  0  0  0  0  0  2  0  0  0  0  0  0
   12.7299    3.8807    3.1534 C   0  0  0  0  0  0  0  0  0  0  0  0
   11.8494    4.5001    4.4949 S   0  0  0  0  0  0  0  0  0  0  0  0
   15.5947    3.8086    0.8298 C   0  0  0  0  0  0  0  0  0  0  0  0
   15.8348    3.1330   -0.3311 C   0  0  0  0  0  0  0  0  0  0  0  0
   14.4041    2.2514   -0.5305 S   0  0  0  0  0  0  0  0  0  0  0  0
    0.4096  -12.1845    3.2617 H   0  0  0  0  0  0  0  0  0  0  0  0
    0.9508  -10.6700    1.2682 H   0  0  0  0  0  0  0  0  0  0  0  0
    0.4539  -10.0853   -2.5926 H   0  0  0  0  0  0  0  0  0  0  0  0
    2.3609   -8.6394   -3.2487 H   0  0  0  0  0  0  0  0  0  0  0  0
    5.1173   -5.9539   -3.7633 H   0  0  0  0  0  0  0  0  0  0  0  0
    4.4646   -7.6374   -3.7022 H   0  0  0  0  0  0  0  0  0  0  0  0
    2.4845   -5.3542   -4.2655 H   0  0  0  0  0  0  0  0  0  0  0  0
    3.7192   -5.6339   -5.4882 H   0  0  0  0  0  0  0  0  0  0  0  0
    2.6191   -6.9905   -4.9629 H   0  0  0  0  0  0  0  0  0  0  0  0
   -0.1792   -7.7248    0.8691 H   0  0  0  0  0  0  0  0  0  0  0  0
   -5.1581   -9.2712    1.9862 H   0  0  0  0  0  0  0  0  0  0  0  0
   -7.1920   -9.9518    3.2213 H   0  0  0  0  0  0  0  0  0  0  0  0
   -7.8456  -11.5234    5.4700 H   0  0  0  0  0  0  0  0  0  0  0  0
   -9.0996  -12.7686    5.8259 H   0  0  0  0  0  0  0  0  0  0  0  0
   -6.1704  -12.9923    5.3832 H   0  0  0  0  0  0  0  0  0  0  0  0
   -7.1172  -13.8032    6.6284 H   0  0  0  0  0  0  0  0  0  0  0  0
   -7.2066  -14.4574    4.9919 H   0  0  0  0  0  0  0  0  0  0  0  0
   -4.7725  -13.1940    0.4344 H   0  0  0  0  0  0  0  0  0  0  0  0
   -5.7033   -9.7815   -1.1328 H   0  0  0  0  0  0  0  0  0  0  0  0
   -7.0391   -7.5742   -2.1589 H   0  0  0  0  0  0  0  0  0  0  0  0
  -10.6638   -4.5366   -3.4040 H   0  0  0  0  0  0  0  0  0  0  0  0
  -11.7343   -4.4463   -1.1552 H   0  0  0  0  0  0  0  0  0  0  0  0
   -9.0482   -6.0836    3.4205 H   0  0  0  0  0  0  0  0  0  0  0  0
   -8.4457   -6.8976    1.8552 H   0  0  0  0  0  0  0  0  0  0  0  0
   -7.2135   -4.6793    2.9316 H   0  0  0  0  0  0  0  0  0  0  0  0
   -8.4792   -3.9137    1.9708 H   0  0  0  0  0  0  0  0  0  0  0  0
   -7.3106   -5.0298    1.2034 H   0  0  0  0  0  0  0  0  0  0  0  0
   -3.5724   -5.8135   -6.3606 H   0  0  0  0  0  0  0  0  0  0  0  0
   -2.5200   -6.0500   -8.5959 H   0  0  0  0  0  0  0  0  0  0  0  0
   -3.2815   -7.7898  -11.4016 H   0  0  0  0  0  0  0  0  0  0  0  0
   -3.4434   -7.0784  -13.0090 H   0  0  0  0  0  0  0  0  0  0  0  0
   -5.4793   -8.2325  -11.0964 H   0  0  0  0  0  0  0  0  0  0  0  0
   -5.3715   -8.3787  -12.8583 H   0  0  0  0  0  0  0  0  0  0  0  0
   -6.1104   -6.8900  -12.1956 H   0  0  0  0  0  0  0  0  0  0  0  0
   -6.9580   -2.6864   -7.3595 H   0  0  0  0  0  0  0  0  0  0  0  0
   -6.2958   -0.5650   -6.5955 H   0  0  0  0  0  0  0  0  0  0  0  0
   -4.8416   -0.6485   -4.7131 H   0  0  0  0  0  0  0  0  0  0  0  0
   -2.6819   -1.7164   -5.4810 H   0  0  0  0  0  0  0  0  0  0  0  0
    0.3329   -1.0052   -4.7966 H   0  0  0  0  0  0  0  0  0  0  0  0
    0.9655    0.4624   -5.6575 H   0  0  0  0  0  0  0  0  0  0  0  0
    2.8298   -0.8181   -5.6607 H   0  0  0  0  0  0  0  0  0  0  0  0
    2.1474   -1.4206   -7.1936 H   0  0  0  0  0  0  0  0  0  0  0  0
    1.9797   -2.3994   -5.6263 H   0  0  0  0  0  0  0  0  0  0  0  0
   -3.7200    2.8869   -6.7769 H   0  0  0  0  0  0  0  0  0  0  0  0
   -8.7046    5.3161   -4.8832 H   0  0  0  0  0  0  0  0  0  0  0  0
  -10.6646    6.6054   -4.2791 H   0  0  0  0  0  0  0  0  0  0  0  0
  -14.2923    4.6551   -3.9127 H   0  0  0  0  0  0  0  0  0  0  0  0
  -15.2129    6.1570   -3.3796 H   0  0  0  0  0  0  0  0  0  0  0  0
  -12.9287    7.0059   -4.9017 H   0  0  0  0  0  0  0  0  0  0  0  0
  -14.6531    7.0856   -5.4187 H   0  0  0  0  0  0  0  0  0  0  0  0
  -13.6417    5.6399   -5.8375 H   0  0  0  0  0  0  0  0  0  0  0  0
   -9.9781    2.0674   -2.4778 H   0  0  0  0  0  0  0  0  0  0  0  0
   -7.2185    4.8621   -2.1855 H   0  0  0  0  0  0  0  0  0  0  0  0
   -3.5846    2.8765   -0.9218 H   0  0  0  0  0  0  0  0  0  0  0  0
   -0.4516    2.1221   -0.7157 H   0  0  0  0  0  0  0  0  0  0  0  0
   -0.2195   -0.1999   -1.0929 H   0  0  0  0  0  0  0  0  0  0  0  0
   -3.3325   -3.1877   -1.0230 H   0  0  0  0  0  0  0  0  0  0  0  0
   -2.0143   -4.3741   -1.1046 H   0  0  0  0  0  0  0  0  0  0  0  0
   -1.8351   -3.4931   -3.2165 H   0  0  0  0  0  0  0  0  0  0  0  0
   -0.5530   -2.6422   -2.3192 H   0  0  0  0  0  0  0  0  0  0  0  0
   -2.0528   -1.7882   -2.7142 H   0  0  0  0  0  0  0  0  0  0  0  0
   -3.1443    1.4321    2.5075 H   0  0  0  0  0  0  0  0  0  0  0  0
   -4.2570    7.1169    3.3287 H   0  0  0  0  0  0  0  0  0  0  0  0
   -4.3041    9.3161    4.3946 H   0  0  0  0  0  0  0  0  0  0  0  0
   -2.8567   13.7215    4.3868 H   0  0  0  0  0  0  0  0  0  0  0  0
   -2.2430   13.1184    2.8504 H   0  0  0  0  0  0  0  0  0  0  0  0
   -4.4594   11.9973    2.4811 H   0  0  0  0  0  0  0  0  0  0  0  0
   -4.5011   13.7457    2.6799 H   0  0  0  0  0  0  0  0  0  0  0  0
   -5.0006   12.7608    4.0859 H   0  0  0  0  0  0  0  0  0  0  0  0
   -0.3534    7.8775    1.8445 H   0  0  0  0  0  0  0  0  0  0  0  0
   -0.1545    6.4629    4.0928 H   0  0  0  0  0  0  0  0  0  0  0  0
    2.7431    6.3346    5.0392 H   0  0  0  0  0  0  0  0  0  0  0  0
    3.7026    7.4410    6.6597 H   0  0  0  0  0  0  0  0  0  0  0  0
    4.4065    9.7873    7.0391 H   0  0  0  0  0  0  0  0  0  0  0  0
    8.6921   11.8387    8.1987 H   0  0  0  0  0  0  0  0  0  0  0  0
    7.5056   10.6814    8.8119 H   0  0  0  0  0  0  0  0  0  0  0  0
   10.1857   10.0227    7.7380 H   0  0  0  0  0  0  0  0  0  0  0  0
    8.9131    9.1299    6.9228 H   0  0  0  0  0  0  0  0  0  0  0  0
    9.0138    9.0162    8.6766 H   0  0  0  0  0  0  0  0  0  0  0  0
    3.4833    0.8340    5.5512 H   0  0  0  0  0  0  0  0  0  0  0  0
    3.7289   -1.5950    5.2486 H   0  0  0  0  0  0  0  0  0  0  0  0
    5.1230   -3.4654    2.5532 H   0  0  0  0  0  0  0  0  0  0  0  0
    6.7542   -2.7986    2.2008 H   0  0  0  0  0  0  0  0  0  0  0  0
    5.8741   -5.6326    2.3851 H   0  0  0  0  0  0  0  0  0  0  0  0
    7.2290   -4.8759    1.4611 H   0  0  0  0  0  0  0  0  0  0  0  0
    7.4377   -5.3345    3.2523 H   0  0  0  0  0  0  0  0  0  0  0  0
    8.3223    1.9037    4.8815 H   0  0  0  0  0  0  0  0  0  0  0  0
    9.8135    2.2472    2.8594 H   0  0  0  0  0  0  0  0  0  0  0  0
   12.5276    1.4034   -1.2449 H   0  0  0  0  0  0  0  0  0  0  0  0
   10.9156   -0.0978   -2.3552 H   0  0  0  0  0  0  0  0  0  0  0  0
    9.6892   -3.1766   -1.2076 H   0  0  0  0  0  0  0  0  0  0  0  0
    8.6062   -3.0376    0.2417 H   0  0  0  0  0  0  0  0  0  0  0  0
    6.6602   -3.6188   -1.1068 H   0  0  0  0  0  0  0  0  0  0  0  0
    7.7363   -3.8966   -2.6020 H   0  0  0  0  0  0  0  0  0  0  0  0
    7.9150   -4.8877   -1.1022 H   0  0  0  0  0  0  0  0  0  0  0  0
   15.7581    6.3568    1.8415 H   0  0  0  0  0  0  0  0  0  0  0  0
   16.7558    7.9518    3.4550 H   0  0  0  0  0  0  0  0  0  0  0  0
   18.1104    8.3301    8.0271 H   0  0  0  0  0  0  0  0  0  0  0  0
   18.5270    7.5330    6.4625 H   0  0  0  0  0  0  0  0  0  0  0  0
   17.7519    5.4291    7.2367 H   0  0  0  0  0  0  0  0  0  0  0  0
   18.3277    6.1377    8.7680 H   0  0  0  0  0  0  0  0  0  0  0  0
   16.5964    6.2095    8.4192 H   0  0  0  0  0  0  0  0  0  0  0  0
   16.4236    4.4544    1.2139 H   0  0  0  0  0  0  0  0  0  0  0  0
   16.7376    3.1868   -0.9580 H   0  0  0  0  0  0  0  0  0  0  0  0
  1  2  2  0
  2  3  1  0
  3  4  2  0
  4  5  1  0
  5  6  2  0
  6  7  1  0
  7  8  2  0
  8  9  1  0
  9 10  1  0
 10 11  1  0
  8 12  1  0
 12 13  1  0
 12 14  2  0
  4 15  1  0
 15 16  2  0
 16 17  1  0
 17 18  1  0
 18 19  2  0
 19 20  1  0
 20 21  2  0
 21 22  1  0
 22 23  1  0
 23 24  1  0
 21 25  1  0
 25 26  2  0
 25 27  1  0
 17 28  2  0
 28 29  1  0
 16 30  1  0
 30 31  2  0
 31 32  1  0
 31 33  1  0
 33 34  2  0
 34 35  1  0
 35 36  2  0
 36 37  1  0
 37 38  2  0
 38 39  1  0
 39 40  2  0
 40 41  1  0
 41 42  1  0
 42 43  1  0
 40 44  1  0
 36 45  1  0
 45 46  2  0
 46 47  1  0
 47 48  1  0
 48 49  2  0
 49 50  1  0
 50 51  2  0
 51 52  1  0
 52 53  1  0
 53 54  1  0
 51 55  1  0
 47 56  2  0
 56 57  1  0
 46 58  1  0
 58 59  2  0
 59 60  1  0
 59 61  1  0
 61 62  2  0
 62 63  1  0
 63 64  2  0
 64 65  1  0
 65 66  2  0
 66 67  1  0
 67 68  2  0
 68 69  1  0
 69 70  1  0
 70 71  1  0
 68 72  1  0
 72 73  1  0
 72 74  2  0
 64 75  1  0
 75 76  2  0
 76 77  1  0
 77 78  1  0
 78 79  2  0
 79 80  1  0
 80 81  2  0
 81 82  1  0
 82 83  1  0
 83 84  1  0
 81 85  1  0
 85 86  2  0
 85 87  1  0
 77 88  2  0
 88 89  1  0
 76 90  1  0
 90 91  2  0
 91 92  1  0
 91 93  1  0
 93 94  2  0
 94 95  1  0
 95 96  2  0
 96 97  1  0
 97 98  2  0
 98 99  1  0
 99100  2  0
100101  1  0
101102  1  0
102103  1  0
100104  1  0
104105  1  0
104106  2  0
 96107  1  0
107108  2  0
108109  1  0
109110  1  0
110111  2  0
111112  1  0
112113  2  0
113114  1  0
114115  1  0
115116  1  0
113117  1  0
117118  2  0
117119  1  0
109120  2  0
120121  1  0
108122  1  0
122123  2  0
123124  1  0
123125  1  0
125126  2  0
126127  1  0
127128  2  0
128129  1  0
129130  2  0
130131  1  0
131132  2  0
132133  1  0
133134  1  0
134135  1  0
132136  1  0
128137  1  0
137138  2  0
138139  1  0
139140  1  0
140141  2  0
141142  1  0
142143  2  0
143144  1  0
144145  1  0
145146  1  0
143147  1  0
139148  2  0
148149  1  0
138150  1  0
150151  2  0
151152  1  0
151153  1  0
153154  2  0
154155  1  0
155156  2  0
156157  1  0
157158  2  0
158159  1  0
159160  2  0
160161  1  0
161162  1  0
162163  1  0
160164  1  0
156165  1  0
165166  2  0
166167  1  0
167168  1  0
168169  2  0
169170  1  0
170171  2  0
171172  1  0
172173  1  0
173174  1  0
171175  1  0
167176  2  0
176177  1  0
166178  1  0
178179  2  0
179180  1  0
 29  1  1  0
 57 33  1  0
 89 61  1  0
121 93  1  0
149125  1  0
177153  1  0
 28  3  1  0
 56 35  1  0
 88 63  1  0
120 95  1  0
148127  1  0
176155  1  0
 14  5  1  0
 32 15  1  0
 44 37  1  0
 60 45  1  0
 74 65  1  0
 92 75  1  0
106 97  1  0
124107  1  0
136129  1  0
152137  1  0
164157  1  0
180165  1  0
 26 18  1  0
 55 48  1  0
 86 78  1  0
118110  1  0
147140  1  0
175168  1  0
  1181  1  0
  2182  1  0
  6183  1  0
  7184  1  0
 10185  1  0
 10186  1  0
 11187  1  0
 11188  1  0
 11189  1  0
 14190  1  0
 19191  1  0
 20192  1  0
 23193  1  0
 23194  1  0
 24195  1  0
 24196  1  0
 24197  1  0
 26198  1  0
 30199  1  0
 34200  1  0
 38201  1  0
 39202  1  0
 42203  1  0
 42204  1  0
 43205  1  0
 43206  1  0
 43207  1  0
 49208  1  0
 50209  1  0
 53210  1  0
 53211  1  0
 54212  1  0
 54213  1  0
 54214  1  0
 58215  1  0
 62216  1  0
 66217  1  0
 67218  1  0
 70219  1  0
 70220  1  0
 71221  1  0
 71222  1  0
 71223  1  0
 74224  1  0
 79225  1  0
 80226  1  0
 83227  1  0
 83228  1  0
 84229  1  0
 84230  1  0
 84231  1  0
 86232  1  0
 90233  1  0
 94234  1  0
 98235  1  0
 99236  1  0
102237  1  0
102238  1  0
103239  1  0
103240  1  0
103241  1  0
106242  1  0
111243  1  0
112244  1  0
115245  1  0
115246  1  0
116247  1  0
116248  1  0
116249  1  0
118250  1  0
122251  1  0
126252  1  0
130253  1  0
131254  1  0
134255  1  0
134256  1  0
135257  1  0
135258  1  0
135259  1  0
141260  1  0
142261  1  0
145262  1  0
145263  1  0
146264  1  0
146265  1  0
146266  1  0
150267  1  0
154268  1  0
158269  1  0
159270  1  0
162271  1  0
162272  1  0
163273  1  0
163274  1  0
163275  1  0
169276  1  0
170277  1  0
173278  1  0
173279  1  0
174280  1  0
174281  1  0
174282  1  0
178283  1  0
179284  1  0
M  END

