
     RDKit          3D

200223  0  0  0  0  0  0  0  0999 V2000
    9.3742   -0.5387    9.3503 N   0  0  0  0  0  0  0  0  0  0  0  0
    9.9728   -0.7084    8.0116 C   0  0  2  0  0  0  0  0  0  0  0  0
   11.0545    0.2955    7.8695 C   0  0  0  0  0  0  0  0  0  0  0  0
   10.9240    1.0065    6.5425 C   0  0  2  0  0  0  0  0  0  0  0  0
   12.0736    1.8634    6.3305 N   0  0  0  0  0  0  0  0  0  0  0  0
   11.5234    3.3653    7.1146 S   0  0  0  0  0  0  0  0  0  0  0  0
    9.7923    2.9718    7.2922 N   0  0  0  0  0  0  0  0  0  0  0  0
    9.6841    1.8129    6.4325 C   0  0  2  0  0  0  0  0  0  0  0  0
    8.5117    0.9908    6.9311 C   0  0  0  0  0  0  0  0  0  0  0  0
    8.8759   -0.4554    7.0078 C   0  0  2  0  0  0  0  0  0  0  0  0
    7.7550   -1.2755    7.3744 N   0  0  0  0  0  0  0  0  0  0  0  0
    7.9237   -1.5743    9.0925 S   0  0  0  0  0  0  0  0  0  0  0  0
    6.7334   -1.7193    6.4957 C   0  0  0  0  0  0  0  0  0  0  0  0
    5.6965   -2.5905    6.7432 C   0  0  0  0  0  0  0  0  0  0  0  0
    4.8296   -2.8471    5.7324 C   0  0  0  0  0  0  0  0  0  0  0  0
    3.7372   -3.7183    5.7529 C   0  0  0  0  0  0  0  0  0  0  0  0
    3.2033   -4.3610    6.9430 C   0  0  0  0  0  0  0  0  0  0  0  0
    3.2869   -4.2652    8.2639 C   0  0  0  0  0  0  0  0  0  0  0  0
    2.6821   -5.0877    9.1234 C   0  0  0  0  0  0  0  0  0  0  0  0
    1.9096   -6.1120    8.7186 C   0  0  0  0  0  0  0  0  0  0  0  0
    0.9613   -7.3350    9.5643 S   0  0  0  0  0  0  0  0  0  0  0  0
   -0.7318   -6.6967    9.7581 C   0  0  0  0  0  0  0  0  0  0  0  0
   -1.4542   -6.5580    8.4354 C   0  0  0  0  0  0  0  0  0  0  0  0
    2.0427   -5.9115    6.7995 Se  0  0  0  0  0  2  0  0  0  0  0  0
    2.9924   -3.8722    4.5702 C   0  0  0  0  0  0  0  0  0  0  0  0
    3.2298   -3.2405    3.3851 C   0  0  0  0  0  0  0  0  0  0  0  0
    4.3084   -2.3695    3.3803 C   0  0  0  0  0  0  0  0  0  0  0  0
    4.6197   -1.4406    2.3272 C   0  0  0  0  0  0  0  0  0  0  0  0
    5.6609   -0.6865    1.9957 C   0  0  0  0  0  0  0  0  0  0  0  0
    5.6142    0.2502    1.0436 C   0  0  0  0  0  0  0  0  0  0  0  0
    4.5182    0.5131    0.3357 C   0  0  0  0  0  0  0  0  0  0  0  0
    4.1561    1.7535   -0.9035 S   0  0  0  0  0  0  0  0  0  0  0  0
    3.4358    3.1489    0.0730 C   0  0  0  0  0  0  0  0  0  0  0  0
    2.1296    2.5644    0.6171 C   0  0  0  0  0  0  0  0  0  0  0  0
    3.2755   -0.7369    1.0677 Se  0  0  0  0  0  2  0  0  0  0  0  0
    5.0590   -2.2192    4.5505 C   0  0  0  0  0  0  0  0  0  0  0  0
    6.4632   -1.2898    4.8657 S   0  0  0  0  0  0  0  0  0  0  0  0
    2.4084   -3.5559    2.3487 C   0  0  0  0  0  0  0  0  0  0  0  0
    1.4218   -4.4689    2.5702 C   0  0  0  0  0  0  0  0  0  0  0  0
    1.6614   -4.8684    4.2358 S   0  0  0  0  0  0  0  0  0  0  0  0
    0.4158   -5.0283    1.7021 N   0  0  0  0  0  0  0  0  0  0  0  0
   -0.8981   -4.5351    1.3646 C   0  0  2  0  0  0  0  0  0  0  0  0
   -1.8560   -4.8393    2.4994 C   0  0  0  0  0  0  0  0  0  0  0  0
   -3.1818   -4.1589    2.2542 C   0  0  2  0  0  0  0  0  0  0  0  0
   -4.1985   -5.1907    2.4458 N   0  0  0  0  0  0  0  0  0  0  0  0
   -5.4621   -4.6577    1.3452 S   0  0  0  0  0  0  0  0  0  0  0  0
   -4.5935   -3.3295    0.5231 N   0  0  0  0  0  0  0  0  0  0  0  0
   -3.2199   -3.7248    0.8300 C   0  0  2  0  0  0  0  0  0  0  0  0
   -2.8002   -4.8633   -0.0916 C   0  0  0  0  0  0  0  0  0  0  0  0
   -1.3150   -5.1124    0.0461 C   0  0  2  0  0  0  0  0  0  0  0  0
   -1.0873   -6.5354    0.0504 N   0  0  0  0  0  0  0  0  0  0  0  0
    0.5372   -6.5498    0.8414 S   0  0  0  0  0  0  0  0  0  0  0  0
   -0.9132   -7.0133   -1.2026 N   0  0  0  0  0  0  0  0  0  0  0  0
   -1.9911   -7.3047   -2.0579 C   0  0  2  0  0  0  0  0  0  0  0  0
   -2.4262   -8.7281   -2.1314 C   0  0  0  0  0  0  0  0  0  0  0  0
   -2.4551   -9.2281   -3.5419 C   0  0  2  0  0  0  0  0  0  0  0  0
   -2.8213  -10.6547   -3.5541 N   0  0  0  0  0  0  0  0  0  0  0  0
   -1.3122  -11.3171   -2.8597 S   0  0  0  0  0  0  0  0  0  0  0  0
   -0.2244   -9.9333   -3.1803 N   0  0  0  0  0  0  0  0  0  0  0  0
   -1.0579   -9.1773   -4.1297 C   0  0  2  0  0  0  0  0  0  0  0  0
   -0.6330   -7.7487   -4.1066 C   0  0  0  0  0  0  0  0  0  0  0  0
   -1.6640   -6.8306   -3.4858 C   0  0  2  0  0  0  0  0  0  0  0  0
   -1.1055   -5.5363   -3.3035 N   0  0  0  0  0  0  0  0  0  0  0  0
    0.2506   -6.0306   -2.1871 S   0  0  0  0  0  0  0  0  0  0  0  0
   -1.3390   -4.1917   -3.5737 C   0  0  0  0  0  0  0  0  0  0  0  0
   -2.4998   -3.5437   -3.9232 C   0  0  0  0  0  0  0  0  0  0  0  0
   -2.4693   -2.2133   -4.0611 C   0  0  0  0  0  0  0  0  0  0  0  0
   -3.5470   -1.3454   -4.3167 C   0  0  0  0  0  0  0  0  0  0  0  0
   -4.8418   -1.8402   -4.7683 C   0  0  0  0  0  0  0  0  0  0  0  0
   -6.0728   -1.2866   -4.8329 C   0  0  0  0  0  0  0  0  0  0  0  0
   -7.0922   -1.8985   -5.4375 C   0  0  0  0  0  0  0  0  0  0  0  0
   -7.0121   -3.0877   -6.0246 C   0  0  0  0  0  0  0  0  0  0  0  0
   -8.0654   -4.1934   -6.9165 S   0  0  0  0  0  0  0  0  0  0  0  0
   -7.1233   -5.6357   -7.5224 C   0  0  0  0  0  0  0  0  0  0  0  0
   -6.1045   -5.2027   -8.5688 C   0  0  0  0  0  0  0  0  0  0  0  0
   -5.1146   -3.4822   -5.6800 Se  0  0  0  0  0  2  0  0  0  0  0  0
   -3.3796    0.0301   -4.3328 C   0  0  0  0  0  0  0  0  0  0  0  0
   -2.1691    0.6610   -4.1223 C   0  0  0  0  0  0  0  0  0  0  0  0
   -1.1134   -0.1991   -3.8806 C   0  0  0  0  0  0  0  0  0  0  0  0
    0.2632    0.2528   -3.8065 C   0  0  0  0  0  0  0  0  0  0  0  0
    1.4101   -0.2687   -3.3820 C   0  0  0  0  0  0  0  0  0  0  0  0
    2.5960    0.3111   -3.5334 C   0  0  0  0  0  0  0  0  0  0  0  0
    2.7562    1.4933   -4.1373 C   0  0  0  0  0  0  0  0  0  0  0  0
    4.1380    2.5374   -4.5019 S   0  0  0  0  0  0  0  0  0  0  0  0
    3.6143    4.0112   -5.4116 C   0  0  0  0  0  0  0  0  0  0  0  0
    4.7577    4.8865   -5.7778 C   0  0  0  0  0  0  0  0  0  0  0  0
    0.9072    1.9090   -4.5970 Se  0  0  0  0  0  2  0  0  0  0  0  0
   -1.2802   -1.5718   -3.8493 C   0  0  0  0  0  0  0  0  0  0  0  0
   -0.2300   -2.8693   -3.4616 S   0  0  0  0  0  0  0  0  0  0  0  0
   -2.2078    2.0109   -4.1032 C   0  0  0  0  0  0  0  0  0  0  0  0
   -3.3925    2.6276   -4.2826 C   0  0  0  0  0  0  0  0  0  0  0  0
   -4.4707    1.3321   -4.4887 S   0  0  0  0  0  0  0  0  0  0  0  0
   -3.7501    4.0532   -4.2388 C   0  0  0  0  0  0  0  0  0  0  0  0
   -5.0237    4.5719   -4.0661 C   0  0  0  0  0  0  0  0  0  0  0  0
   -5.1225    5.9095   -3.9201 C   0  0  0  0  0  0  0  0  0  0  0  0
   -6.2581    6.6491   -3.6501 C   0  0  0  0  0  0  0  0  0  0  0  0
   -7.6024    6.0760   -3.7254 C   0  0  0  0  0  0  0  0  0  0  0  0
   -8.1909    5.0232   -4.2862 C   0  0  0  0  0  0  0  0  0  0  0  0
   -9.4749    4.7018   -4.0752 C   0  0  0  0  0  0  0  0  0  0  0  0
  -10.2949    5.3790   -3.3025 C   0  0  0  0  0  0  0  0  0  0  0  0
  -11.9660    5.3472   -2.7557 S   0  0  0  0  0  0  0  0  0  0  0  0
  -12.0357    4.2460   -1.2854 C   0  0  0  0  0  0  0  0  0  0  0  0
  -11.2055    4.8045   -0.1679 C   0  0  0  0  0  0  0  0  0  0  0  0
   -8.9927    6.8093   -2.7181 Se  0  0  0  0  0  2  0  0  0  0  0  0
   -6.1491    8.0231   -3.4338 C   0  0  0  0  0  0  0  0  0  0  0  0
   -4.9811    8.7444   -3.4724 C   0  0  0  0  0  0  0  0  0  0  0  0
   -3.8471    8.0020   -3.7445 C   0  0  0  0  0  0  0  0  0  0  0  0
   -2.4980    8.5626   -3.7224 C   0  0  0  0  0  0  0  0  0  0  0  0
   -1.8829    9.6405   -3.2555 C   0  0  0  0  0  0  0  0  0  0  0  0
   -0.5981    9.9206   -3.5168 C   0  0  0  0  0  0  0  0  0  0  0  0
    0.1953    9.1678   -4.2559 C   0  0  0  0  0  0  0  0  0  0  0  0
    1.8480    9.1702   -4.8586 S   0  0  0  0  0  0  0  0  0  0  0  0
    3.0549    8.4728   -3.7373 C   0  0  0  0  0  0  0  0  0  0  0  0
    3.2005    9.3127   -2.4736 C   0  0  0  0  0  0  0  0  0  0  0  0
   -1.1276    7.7307   -4.6980 Se  0  0  0  0  0  2  0  0  0  0  0  0
   -3.9533    6.6203   -3.9565 C   0  0  0  0  0  0  0  0  0  0  0  0
   -2.7628    5.4214   -4.1965 S   0  0  0  0  0  0  0  0  0  0  0  0
   -5.1062   10.0755   -3.2497 C   0  0  0  0  0  0  0  0  0  0  0  0
   -6.3646   10.5714   -3.0027 C   0  0  0  0  0  0  0  0  0  0  0  0
   -7.3454    9.1842   -3.0909 S   0  0  0  0  0  0  0  0  0  0  0  0
   10.0391   -1.0165    9.9982 H   0  0  0  0  0  0  0  0  0  0  0  0
   10.3587   -1.7350    7.8602 H   0  0  0  0  0  0  0  0  0  0  0  0
   12.0827   -0.1316    7.9016 H   0  0  0  0  0  0  0  0  0  0  0  0
   11.0308    1.0872    8.6587 H   0  0  0  0  0  0  0  0  0  0  0  0
   10.9276    0.3000    5.6742 H   0  0  0  0  0  0  0  0  0  0  0  0
   12.8887    1.5441    6.8804 H   0  0  0  0  0  0  0  0  0  0  0  0
    9.2834    3.7602    6.8417 H   0  0  0  0  0  0  0  0  0  0  0  0
    9.4967    2.0775    5.3699 H   0  0  0  0  0  0  0  0  0  0  0  0
    7.6440    1.1022    6.2635 H   0  0  0  0  0  0  0  0  0  0  0  0
    8.1984    1.3206    7.9440 H   0  0  0  0  0  0  0  0  0  0  0  0
    9.2610   -0.8549    6.0410 H   0  0  0  0  0  0  0  0  0  0  0  0
    5.6737   -3.0387    7.7610 H   0  0  0  0  0  0  0  0  0  0  0  0
    3.8759   -3.3828    8.7007 H   0  0  0  0  0  0  0  0  0  0  0  0
    2.7998   -4.9609   10.2502 H   0  0  0  0  0  0  0  0  0  0  0  0
   -0.6712   -5.7192   10.3015 H   0  0  0  0  0  0  0  0  0  0  0  0
   -1.2472   -7.4015   10.4349 H   0  0  0  0  0  0  0  0  0  0  0  0
   -2.1992   -7.3964    8.3483 H   0  0  0  0  0  0  0  0  0  0  0  0
   -2.0751   -5.6312    8.4542 H   0  0  0  0  0  0  0  0  0  0  0  0
   -0.7770   -6.5866    7.5577 H   0  0  0  0  0  0  0  0  0  0  0  0
    6.6398   -0.8845    2.5479 H   0  0  0  0  0  0  0  0  0  0  0  0
    6.5456    0.8716    0.8050 H   0  0  0  0  0  0  0  0  0  0  0  0
    4.1467    3.3087    0.8869 H   0  0  0  0  0  0  0  0  0  0  0  0
    3.2087    4.0093   -0.5494 H   0  0  0  0  0  0  0  0  0  0  0  0
    1.6901    1.9685   -0.2219 H   0  0  0  0  0  0  0  0  0  0  0  0
    1.3986    3.3161    0.8985 H   0  0  0  0  0  0  0  0  0  0  0  0
    2.3033    1.8496    1.4261 H   0  0  0  0  0  0  0  0  0  0  0  0
    2.4740   -3.1291    1.3177 H   0  0  0  0  0  0  0  0  0  0  0  0
   -0.7989   -3.4480    1.2632 H   0  0  0  0  0  0  0  0  0  0  0  0
   -1.4086   -4.4024    3.4039 H   0  0  0  0  0  0  0  0  0  0  0  0
   -1.9271   -5.9263    2.6235 H   0  0  0  0  0  0  0  0  0  0  0  0
   -3.3694   -3.3074    2.9243 H   0  0  0  0  0  0  0  0  0  0  0  0
   -3.8200   -6.1202    2.1674 H   0  0  0  0  0  0  0  0  0  0  0  0
   -4.8391   -2.4127    0.9586 H   0  0  0  0  0  0  0  0  0  0  0  0
   -2.6150   -2.8198    0.7106 H   0  0  0  0  0  0  0  0  0  0  0  0
   -3.0204   -4.5040   -1.1138 H   0  0  0  0  0  0  0  0  0  0  0  0
   -3.4274   -5.7163    0.1943 H   0  0  0  0  0  0  0  0  0  0  0  0
   -0.7532   -4.5730   -0.7487 H   0  0  0  0  0  0  0  0  0  0  0  0
   -2.8902   -6.7055   -1.7932 H   0  0  0  0  0  0  0  0  0  0  0  0
   -1.8368   -9.4368   -1.5157 H   0  0  0  0  0  0  0  0  0  0  0  0
   -3.4852   -8.8684   -1.7518 H   0  0  0  0  0  0  0  0  0  0  0  0
   -3.1335   -8.7410   -4.2287 H   0  0  0  0  0  0  0  0  0  0  0  0
   -3.5941  -10.8257   -2.8757 H   0  0  0  0  0  0  0  0  0  0  0  0
    0.6033  -10.3430   -3.6969 H   0  0  0  0  0  0  0  0  0  0  0  0
   -1.0597   -9.6370   -5.1269 H   0  0  0  0  0  0  0  0  0  0  0  0
    0.3545   -7.6426   -3.5989 H   0  0  0  0  0  0  0  0  0  0  0  0
   -0.4830   -7.4141   -5.1544 H   0  0  0  0  0  0  0  0  0  0  0  0
   -2.5722   -6.8248   -4.0607 H   0  0  0  0  0  0  0  0  0  0  0  0
   -3.4050   -4.1765   -4.0631 H   0  0  0  0  0  0  0  0  0  0  0  0
   -6.2156   -0.2820   -4.3395 H   0  0  0  0  0  0  0  0  0  0  0  0
   -8.1281   -1.3885   -5.4773 H   0  0  0  0  0  0  0  0  0  0  0  0
   -7.8334   -6.3727   -7.8832 H   0  0  0  0  0  0  0  0  0  0  0  0
   -6.5505   -6.0354   -6.6557 H   0  0  0  0  0  0  0  0  0  0  0  0
   -5.2597   -4.6883   -8.0445 H   0  0  0  0  0  0  0  0  0  0  0  0
   -5.6850   -6.0929   -9.0426 H   0  0  0  0  0  0  0  0  0  0  0  0
   -6.5378   -4.5091   -9.2985 H   0  0  0  0  0  0  0  0  0  0  0  0
    1.3717   -1.2624   -2.8270 H   0  0  0  0  0  0  0  0  0  0  0  0
    3.5750   -0.1767   -3.1503 H   0  0  0  0  0  0  0  0  0  0  0  0
    2.9149    4.5756   -4.7403 H   0  0  0  0  0  0  0  0  0  0  0  0
    2.9996    3.6887   -6.3030 H   0  0  0  0  0  0  0  0  0  0  0  0
    4.5967    5.9501   -5.4671 H   0  0  0  0  0  0  0  0  0  0  0  0
    5.7394    4.5634   -5.3641 H   0  0  0  0  0  0  0  0  0  0  0  0
    4.9400    4.9248   -6.8894 H   0  0  0  0  0  0  0  0  0  0  0  0
   -1.3060    2.6437   -3.9244 H   0  0  0  0  0  0  0  0  0  0  0  0
   -5.8407    3.8343   -4.0305 H   0  0  0  0  0  0  0  0  0  0  0  0
   -7.5806    4.3961   -5.0183 H   0  0  0  0  0  0  0  0  0  0  0  0
   -9.9238    3.7785   -4.5948 H   0  0  0  0  0  0  0  0  0  0  0  0
  -13.0823    4.0213   -0.9942 H   0  0  0  0  0  0  0  0  0  0  0  0
  -11.5879    3.2498   -1.5718 H   0  0  0  0  0  0  0  0  0  0  0  0
  -10.4349    5.4834   -0.6298 H   0  0  0  0  0  0  0  0  0  0  0  0
  -11.7777    5.3749    0.5796 H   0  0  0  0  0  0  0  0  0  0  0  0
  -10.6124    3.9990    0.3045 H   0  0  0  0  0  0  0  0  0  0  0  0
   -2.4569   10.3279   -2.5504 H   0  0  0  0  0  0  0  0  0  0  0  0
   -0.1195   10.8712   -3.0804 H   0  0  0  0  0  0  0  0  0  0  0  0
    2.6897    7.4738   -3.4045 H   0  0  0  0  0  0  0  0  0  0  0  0
    4.0218    8.3542   -4.2578 H   0  0  0  0  0  0  0  0  0  0  0  0
    2.7205   10.2945   -2.6702 H   0  0  0  0  0  0  0  0  0  0  0  0
    4.2626    9.5164   -2.2796 H   0  0  0  0  0  0  0  0  0  0  0  0
    2.7465    8.8328   -1.6029 H   0  0  0  0  0  0  0  0  0  0  0  0
   -4.2896   10.8333   -3.2725 H   0  0  0  0  0  0  0  0  0  0  0  0
   -6.6330   11.6292   -2.8005 H   0  0  0  0  0  0  0  0  0  0  0  0
  1  2  1  0
  2  3  1  0
  3  4  1  0
  4  5  1  0
  5  6  1  0
  6  7  1  0
  7  8  1  0
  8  9  1  0
  9 10  1  0
 10 11  1  0
 11 12  1  0
 11 13  1  0
 13 14  2  0
 14 15  1  0
 15 16  2  0
 16 17  1  0
 17 18  2  0
 18 19  1  0
 19 20  2  0
 20 21  1  0
 21 22  1  0
 22 23  1  0
 20 24  1  0
 16 25  1  0
 25 26  2  0
 26 27  1  0
 27 28  1  0
 28 29  2  0
 29 30  1  0
 30 31  2  0
 31 32  1  0
 32 33  1  0
 33 34  1  0
 31 35  1  0
 27 36  2  0
 36 37  1  0
 26 38  1  0
 38 39  2  0
 39 40  1  0
 39 41  1  0
 41 42  1  0
 42 43  1  0
 43 44  1  0
 44 45  1  0
 45 46  1  0
 46 47  1  0
 47 48  1  0
 48 49  1  0
 49 50  1  0
 50 51  1  0
 51 52  1  0
 51 53  1  0
 53 54  1  0
 54 55  1  0
 55 56  1  0
 56 57  1  0
 57 58  1  0
 58 59  1  0
 59 60  1  0
 60 61  1  0
 61 62  1  0
 62 63  1  0
 63 64  1  0
 63 65  1  0
 65 66  2  0
 66 67  1  0
 67 68  2  0
 68 69  1  0
 69 70  2  0
 70 71  1  0
 71 72  2  0
 72 73  1  0
 73 74  1  0
 74 75  1  0
 72 76  1  0
 68 77  1  0
 77 78  2  0
 78 79  1  0
 79 80  1  0
 80 81  2  0
 81 82  1  0
 82 83  2  0
 83 84  1  0
 84 85  1  0
 85 86  1  0
 83 87  1  0
 79 88  2  0
 88 89  1  0
 78 90  1  0
 90 91  2  0
 91 92  1  0
 91 93  1  0
 93 94  2  0
 94 95  1  0
 95 96  2  0
 96 97  1  0
 97 98  2  0
 98 99  1  0
 99100  2  0
100101  1  0
101102  1  0
102103  1  0
100104  1  0
 96105  1  0
105106  2  0
106107  1  0
107108  1  0
108109  2  0
109110  1  0
110111  2  0
111112  1  0
112113  1  0
113114  1  0
111115  1  0
107116  2  0
116117  1  0
106118  1  0
118119  2  0
119120  1  0
 12  1  1  0
 37 13  1  0
 52 41  1  0
 64 53  1  0
 89 65  1  0
117 93  1  0
 10  2  1  0
 36 15  1  0
 50 42  1  0
 62 54  1  0
 88 67  1  0
116 95  1  0
  8  4  1  0
 24 17  1  0
 40 25  1  0
 48 44  1  0
 60 56  1  0
 76 69  1  0
 92 77  1  0
104 97  1  0
120105  1  0
 35 28  1  0
 87 80  1  0
115108  1  0
  1121  1  0
  2122  1  1
  3123  1  0
  3124  1  0
  4125  1  6
  5126  1  0
  7127  1  0
  8128  1  6
  9129  1  0
  9130  1  0
 10131  1  6
 14132  1  0
 18133  1  0
 19134  1  0
 22135  1  0
 22136  1  0
 23137  1  0
 23138  1  0
 23139  1  0
 29140  1  0
 30141  1  0
 33142  1  0
 33143  1  0
 34144  1  0
 34145  1  0
 34146  1  0
 38147  1  0
 42148  1  6
 43149  1  0
 43150  1  0
 44151  1  1
 45152  1  0
 47153  1  0
 48154  1  1
 49155  1  0
 49156  1  0
 50157  1  6
 54158  1  1
 55159  1  0
 55160  1  0
 56161  1  6
 57162  1  0
 59163  1  0
 60164  1  6
 61165  1  0
 61166  1  0
 62167  1  6
 66168  1  0
 70169  1  0
 71170  1  0
 74171  1  0
 74172  1  0
 75173  1  0
 75174  1  0
 75175  1  0
 81176  1  0
 82177  1  0
 85178  1  0
 85179  1  0
 86180  1  0
 86181  1  0
 86182  1  0
 90183  1  0
 94184  1  0
 98185  1  0
 99186  1  0
102187  1  0
102188  1  0
103189  1  0
103190  1  0
103191  1  0
109192  1  0
110193  1  0
113194  1  0
113195  1  0
114196  1  0
114197  1  0
114198  1  0
118199  1  0
119200  1  0
M  END

