
     RDKit          3D

203223  0  0  0  0  0  0  0  0999 V2000
   -0.5881   -4.9967    9.2358 C   0  0  0  0  0  0  0  0  0  0  0  0
   -1.5466   -5.1764    7.8768 S   0  0  0  0  0  0  0  0  0  0  0  0
   -1.3808   -3.5508    7.2357 C   0  0  0  0  0  0  0  0  0  0  0  0
   -0.5800   -2.9349    8.1111 C   0  0  0  0  0  0  0  0  0  0  0  0
   -0.1461   -3.7046    9.1910 C   0  0  0  0  0  0  0  0  0  0  0  0
    0.7915   -3.1725   10.2499 C   0  0  2  0  0  0  0  0  0  0  0  0
    0.0580   -3.0214   11.5535 C   0  0  0  0  0  0  0  0  0  0  0  0
   -0.4451   -4.2659   11.9783 F   0  0  0  0  0  0  0  0  0  0  0  0
    0.9400   -2.6563   12.5767 F   0  0  0  0  0  0  0  0  0  0  0  0
   -1.0284   -2.1894   11.5299 F   0  0  0  0  0  0  0  0  0  0  0  0
    1.6774   -2.0716    9.8346 C   0  0  0  0  0  0  0  0  0  0  0  0
    1.4733   -1.7135    8.3773 C   0  0  0  0  0  0  0  0  0  0  0  0
   -0.0607   -1.5562    8.2261 C   0  0  1  0  0  0  0  0  0  0  0  0
   -0.3673   -0.4428    7.3590 C   0  0  0  0  0  0  0  0  0  0  0  0
    0.4086    0.6565    7.9916 F   0  0  0  0  0  0  0  0  0  0  0  0
    0.2532   -0.3995    6.1230 F   0  0  0  0  0  0  0  0  0  0  0  0
   -1.6119    0.0469    7.4798 F   0  0  0  0  0  0  0  0  0  0  0  0
   -2.0499   -3.1460    5.9796 C   0  0  0  0  0  0  0  0  0  0  0  0
   -2.8434   -3.9737    5.1934 C   0  0  0  0  0  0  0  0  0  0  0  0
   -3.3500   -3.4477    4.0757 C   0  0  0  0  0  0  0  0  0  0  0  0
   -4.1673   -4.0852    3.1308 C   0  0  0  0  0  0  0  0  0  0  0  0
   -4.4285   -5.5249    3.1690 C   0  0  0  0  0  0  0  0  0  0  0  0
   -5.3222   -6.2988    2.5659 C   0  0  0  0  0  0  0  0  0  0  0  0
   -5.3073   -7.6346    2.6482 C   0  0  0  0  0  0  0  0  0  0  0  0
   -4.4012   -8.3146    3.3422 C   0  0  0  0  0  0  0  0  0  0  0  0
   -4.0018   -9.9842    3.7196 S   0  0  0  0  0  0  0  0  0  0  0  0
   -4.7314  -10.5445    5.2835 C   0  0  0  0  0  0  0  0  0  0  0  0
   -4.1245   -9.7640    6.4543 C   0  0  0  0  0  0  0  0  0  0  0  0
   -3.3304   -6.7770    4.0335 Se  0  0  0  0  0  2  0  0  0  0  0  0
   -4.5937   -3.3695    2.0448 C   0  0  0  0  0  0  0  0  0  0  0  0
   -4.2992   -2.0664    1.7692 C   0  0  0  0  0  0  0  0  0  0  0  0
   -3.4805   -1.4120    2.6905 C   0  0  0  0  0  0  0  0  0  0  0  0
   -2.9230   -0.0739    2.5435 C   0  0  0  0  0  0  0  0  0  0  0  0
   -2.7696    0.8387    1.5861 C   0  0  0  0  0  0  0  0  0  0  0  0
   -2.2580    2.0549    1.7921 C   0  0  0  0  0  0  0  0  0  0  0  0
   -1.8389    2.4905    2.9784 C   0  0  0  0  0  0  0  0  0  0  0  0
   -1.1525    3.9828    3.6083 S   0  0  0  0  0  0  0  0  0  0  0  0
    0.6535    4.0481    3.4438 C   0  0  0  0  0  0  0  0  0  0  0  0
    1.2720    2.9998    4.3279 C   0  0  0  0  0  0  0  0  0  0  0  0
   -2.2298    0.8876    4.0691 Se  0  0  0  0  0  2  0  0  0  0  0  0
   -3.0555   -2.1416    3.7938 C   0  0  0  0  0  0  0  0  0  0  0  0
   -2.0785   -1.7147    5.1082 S   0  0  0  0  0  0  0  0  0  0  0  0
   -4.7962   -1.5477    0.6420 C   0  0  0  0  0  0  0  0  0  0  0  0
   -5.5798   -2.3805   -0.1824 C   0  0  0  0  0  0  0  0  0  0  0  0
   -5.5638   -3.8086    0.6924 S   0  0  0  0  0  0  0  0  0  0  0  0
   -6.0324   -1.9265   -1.5226 C   0  0  0  0  0  0  0  0  0  0  0  0
   -5.1523   -0.7108   -2.2829 S   0  0  0  0  0  0  0  0  0  0  0  0
   -6.1482   -0.4680   -3.7535 C   0  0  0  0  0  0  0  0  0  0  0  0
   -7.0989   -1.3555   -3.5137 C   0  0  0  0  0  0  0  0  0  0  0  0
   -7.0573   -2.1339   -2.3753 C   0  0  0  0  0  0  0  0  0  0  0  0
   -7.9718   -3.3343   -2.1520 C   0  0  2  0  0  0  0  0  0  0  0  0
   -7.3371   -4.6110   -2.7126 C   0  0  0  0  0  0  0  0  0  0  0  0
   -6.1203   -4.9242   -2.1796 F   0  0  0  0  0  0  0  0  0  0  0  0
   -7.2197   -4.5877   -4.0808 F   0  0  0  0  0  0  0  0  0  0  0  0
   -8.1667   -5.6990   -2.3270 F   0  0  0  0  0  0  0  0  0  0  0  0
   -9.3232   -3.1341   -2.8107 C   0  0  0  0  0  0  0  0  0  0  0  0
   -9.4985   -1.7199   -3.1820 C   0  0  0  0  0  0  0  0  0  0  0  0
   -8.4232   -1.4002   -4.2488 C   0  0  1  0  0  0  0  0  0  0  0  0
   -8.8482   -0.0489   -4.7975 C   0  0  0  0  0  0  0  0  0  0  0  0
   -7.9989    0.4937   -5.6337 F   0  0  0  0  0  0  0  0  0  0  0  0
   -9.3543    0.7729   -3.8117 F   0  0  0  0  0  0  0  0  0  0  0  0
   -9.9914   -0.3940   -5.5615 F   0  0  0  0  0  0  0  0  0  0  0  0
   -5.4801    0.4015   -4.7800 C   0  0  0  0  0  0  0  0  0  0  0  0
   -4.5796    1.8242   -4.2421 S   0  0  0  0  0  0  0  0  0  0  0  0
   -3.6113    2.0850   -5.5816 C   0  0  0  0  0  0  0  0  0  0  0  0
   -3.9831    1.1215   -6.4597 C   0  0  0  0  0  0  0  0  0  0  0  0
   -4.9686    0.2339   -6.0189 C   0  0  0  0  0  0  0  0  0  0  0  0
   -5.1045   -0.8492   -7.0152 C   0  0  2  0  0  0  0  0  0  0  0  0
   -6.0825   -1.8970   -7.0418 C   0  0  0  0  0  0  0  0  0  0  0  0
   -7.3548   -1.5156   -7.2104 F   0  0  0  0  0  0  0  0  0  0  0  0
   -5.9235   -2.8910   -6.0815 F   0  0  0  0  0  0  0  0  0  0  0  0
   -5.7873   -2.6314   -8.2297 F   0  0  0  0  0  0  0  0  0  0  0  0
   -3.6789   -1.3600   -7.2890 C   0  0  0  0  0  0  0  0  0  0  0  0
   -3.1765   -0.3651   -8.3311 C   0  0  0  0  0  0  0  0  0  0  0  0
   -3.3899    1.0317   -7.8478 C   0  0  1  0  0  0  0  0  0  0  0  0
   -3.9601    1.9709   -8.8383 C   0  0  0  0  0  0  0  0  0  0  0  0
   -3.7640    3.3237   -8.4356 F   0  0  0  0  0  0  0  0  0  0  0  0
   -5.3087    1.9201   -9.0868 F   0  0  0  0  0  0  0  0  0  0  0  0
   -3.2336    1.9576  -10.0435 F   0  0  0  0  0  0  0  0  0  0  0  0
   -2.2439    2.7493   -5.3865 C   0  0  0  0  0  0  0  0  0  0  0  0
   -1.8109    3.3919   -4.2596 C   0  0  0  0  0  0  0  0  0  0  0  0
   -0.4686    3.4696   -4.0248 C   0  0  0  0  0  0  0  0  0  0  0  0
    0.1998    3.8283   -2.8256 C   0  0  0  0  0  0  0  0  0  0  0  0
   -0.4460    4.5266   -1.7327 C   0  0  0  0  0  0  0  0  0  0  0  0
   -0.0635    4.9759   -0.5265 C   0  0  0  0  0  0  0  0  0  0  0  0
   -0.8789    5.6096    0.3158 C   0  0  0  0  0  0  0  0  0  0  0  0
   -2.1556    5.8875    0.1035 C   0  0  0  0  0  0  0  0  0  0  0  0
   -3.5011    6.6374    0.9122 S   0  0  0  0  0  0  0  0  0  0  0  0
   -4.9405    6.6857   -0.1890 C   0  0  0  0  0  0  0  0  0  0  0  0
   -4.6196    7.6458   -1.3210 C   0  0  0  0  0  0  0  0  0  0  0  0
   -2.2901    5.0697   -1.7392 Se  0  0  0  0  0  2  0  0  0  0  0  0
    1.5490    3.5643   -2.6771 C   0  0  0  0  0  0  0  0  0  0  0  0
    2.3470    2.9721   -3.6239 C   0  0  0  0  0  0  0  0  0  0  0  0
    1.6823    2.6490   -4.8211 C   0  0  0  0  0  0  0  0  0  0  0  0
    2.4141    2.1964   -5.9893 C   0  0  0  0  0  0  0  0  0  0  0  0
    2.0554    1.5780   -7.1224 C   0  0  0  0  0  0  0  0  0  0  0  0
    2.9008    1.3825   -8.1285 C   0  0  0  0  0  0  0  0  0  0  0  0
    4.1749    1.7724   -8.1241 C   0  0  0  0  0  0  0  0  0  0  0  0
    5.5500    1.7075   -9.2123 S   0  0  0  0  0  0  0  0  0  0  0  0
    7.0023    2.5386   -8.5532 C   0  0  0  0  0  0  0  0  0  0  0  0
    7.6131    1.8843   -7.3568 C   0  0  0  0  0  0  0  0  0  0  0  0
    4.2409    2.6019   -6.3245 Se  0  0  0  0  0  2  0  0  0  0  0  0
    0.3355    2.8984   -4.9628 C   0  0  0  0  0  0  0  0  0  0  0  0
   -0.8024    2.2935   -6.1264 S   0  0  0  0  0  0  0  0  0  0  0  0
    3.5723    2.5682   -3.2199 C   0  0  0  0  0  0  0  0  0  0  0  0
    3.9355    2.7576   -1.9361 C   0  0  0  0  0  0  0  0  0  0  0  0
    2.5699    3.5297   -1.2746 S   0  0  0  0  0  0  0  0  0  0  0  0
    5.0531    2.0895   -1.1746 C   0  0  0  0  0  0  0  0  0  0  0  0
    5.4353    0.7663   -1.4574 C   0  0  0  0  0  0  0  0  0  0  0  0
    6.2638    0.1643   -0.5943 C   0  0  0  0  0  0  0  0  0  0  0  0
    6.7027   -1.1817   -0.6124 C   0  0  0  0  0  0  0  0  0  0  0  0
    6.4128   -2.1428   -1.5942 C   0  0  0  0  0  0  0  0  0  0  0  0
    6.4545   -3.4225   -1.8745 C   0  0  0  0  0  0  0  0  0  0  0  0
    6.1240   -4.0174   -3.0164 C   0  0  0  0  0  0  0  0  0  0  0  0
    5.6768   -3.3596   -4.1034 C   0  0  0  0  0  0  0  0  0  0  0  0
    5.1269   -3.8632   -5.7130 S   0  0  0  0  0  0  0  0  0  0  0  0
    4.7377   -2.3586   -6.6431 C   0  0  0  0  0  0  0  0  0  0  0  0
    6.0122   -1.5465   -6.8847 C   0  0  0  0  0  0  0  0  0  0  0  0
    5.7107   -1.5340   -3.4571 Se  0  0  0  0  0  2  0  0  0  0  0  0
    7.4940   -1.6278    0.4485 C   0  0  0  0  0  0  0  0  0  0  0  0
    7.8937   -0.8912    1.5159 C   0  0  0  0  0  0  0  0  0  0  0  0
    7.4429    0.4446    1.5244 C   0  0  0  0  0  0  0  0  0  0  0  0
    7.6226    1.3373    2.6672 C   0  0  0  0  0  0  0  0  0  0  0  0
    7.5623    2.6663    2.8235 C   0  0  0  0  0  0  0  0  0  0  0  0
    7.6190    3.2435    4.0230 C   0  0  0  0  0  0  0  0  0  0  0  0
    7.7373    2.5860    5.1763 C   0  0  0  0  0  0  0  0  0  0  0  0
    7.8364    2.9395    6.8907 S   0  0  0  0  0  0  0  0  0  0  0  0
    9.5414    2.9935    7.4608 C   0  0  0  0  0  0  0  0  0  0  0  0
   10.1585    1.5950    7.4004 C   0  0  0  0  0  0  0  0  0  0  0  0
    7.7858    0.7392    4.4295 Se  0  0  0  0  0  2  0  0  0  0  0  0
    6.6681    0.9037    0.4971 C   0  0  0  0  0  0  0  0  0  0  0  0
    5.8546    2.4114    0.2364 S   0  0  0  0  0  0  0  0  0  0  0  0
    8.6806   -1.5217    2.4304 C   0  0  0  0  0  0  0  0  0  0  0  0
    9.0021   -2.8294    2.2038 C   0  0  0  0  0  0  0  0  0  0  0  0
    8.2149   -3.1666    0.7342 S   0  0  0  0  0  0  0  0  0  0  0  0
   -0.3613   -5.7640   10.0139 H   0  0  0  0  0  0  0  0  0  0  0  0
    1.5607   -4.0268   10.4979 H   0  0  0  0  0  0  0  0  0  0  0  0
    2.7612   -2.2358    9.9750 H   0  0  0  0  0  0  0  0  0  0  0  0
    1.4254   -1.1573   10.4548 H   0  0  0  0  0  0  0  0  0  0  0  0
    1.8621   -2.5044    7.7603 H   0  0  0  0  0  0  0  0  0  0  0  0
    1.8835   -0.7007    8.2167 H   0  0  0  0  0  0  0  0  0  0  0  0
   -0.3304   -1.1577    9.2903 H   0  0  0  0  0  0  0  0  0  0  0  0
   -3.0123   -4.9982    5.5644 H   0  0  0  0  0  0  0  0  0  0  0  0
   -6.1419   -5.7950    1.9539 H   0  0  0  0  0  0  0  0  0  0  0  0
   -6.1065   -8.2663    2.1123 H   0  0  0  0  0  0  0  0  0  0  0  0
   -5.8087  -10.3900    5.3222 H   0  0  0  0  0  0  0  0  0  0  0  0
   -4.4317  -11.6086    5.4398 H   0  0  0  0  0  0  0  0  0  0  0  0
   -4.0995  -10.3664    7.3735 H   0  0  0  0  0  0  0  0  0  0  0  0
   -4.7557   -8.8561    6.6827 H   0  0  0  0  0  0  0  0  0  0  0  0
   -3.0761   -9.4586    6.2356 H   0  0  0  0  0  0  0  0  0  0  0  0
   -3.0392    0.5512    0.5166 H   0  0  0  0  0  0  0  0  0  0  0  0
   -2.1582    2.7999    0.9228 H   0  0  0  0  0  0  0  0  0  0  0  0
    0.9356    3.8145    2.3892 H   0  0  0  0  0  0  0  0  0  0  0  0
    1.0724    5.0158    3.7317 H   0  0  0  0  0  0  0  0  0  0  0  0
    1.7354    2.1615    3.7691 H   0  0  0  0  0  0  0  0  0  0  0  0
    2.0876    3.4450    4.9690 H   0  0  0  0  0  0  0  0  0  0  0  0
    0.5656    2.5580    5.0427 H   0  0  0  0  0  0  0  0  0  0  0  0
   -4.7110   -0.4965    0.3126 H   0  0  0  0  0  0  0  0  0  0  0  0
   -8.1622   -3.4885   -1.0953 H   0  0  0  0  0  0  0  0  0  0  0  0
   -9.2806   -3.7177   -3.7848 H   0  0  0  0  0  0  0  0  0  0  0  0
  -10.1715   -3.5642   -2.2759 H   0  0  0  0  0  0  0  0  0  0  0  0
   -9.4480   -1.0347   -2.3408 H   0  0  0  0  0  0  0  0  0  0  0  0
  -10.4692   -1.5532   -3.7183 H   0  0  0  0  0  0  0  0  0  0  0  0
   -8.4938   -2.1227   -5.0106 H   0  0  0  0  0  0  0  0  0  0  0  0
   -5.3595   -0.2880   -8.0126 H   0  0  0  0  0  0  0  0  0  0  0  0
   -3.0319   -1.3187   -6.4211 H   0  0  0  0  0  0  0  0  0  0  0  0
   -3.7296   -2.3644   -7.7035 H   0  0  0  0  0  0  0  0  0  0  0  0
   -2.1378   -0.6685   -8.5287 H   0  0  0  0  0  0  0  0  0  0  0  0
   -3.7572   -0.5566   -9.2500 H   0  0  0  0  0  0  0  0  0  0  0  0
   -2.2838    1.4014   -7.7684 H   0  0  0  0  0  0  0  0  0  0  0  0
   -2.5646    3.8226   -3.5895 H   0  0  0  0  0  0  0  0  0  0  0  0
    1.0323    4.8005   -0.2458 H   0  0  0  0  0  0  0  0  0  0  0  0
   -0.4491    5.9511    1.3315 H   0  0  0  0  0  0  0  0  0  0  0  0
   -4.9958    5.6713   -0.6644 H   0  0  0  0  0  0  0  0  0  0  0  0
   -5.8704    6.9414    0.3434 H   0  0  0  0  0  0  0  0  0  0  0  0
   -4.1477    8.5812   -0.9294 H   0  0  0  0  0  0  0  0  0  0  0  0
   -5.5466    7.9085   -1.9060 H   0  0  0  0  0  0  0  0  0  0  0  0
   -3.9361    7.1659   -2.0462 H   0  0  0  0  0  0  0  0  0  0  0  0
    0.9864    1.2065   -7.1965 H   0  0  0  0  0  0  0  0  0  0  0  0
    2.5558    0.8338   -9.0824 H   0  0  0  0  0  0  0  0  0  0  0  0
    6.7679    3.6167   -8.3030 H   0  0  0  0  0  0  0  0  0  0  0  0
    7.7390    2.6098   -9.3855 H   0  0  0  0  0  0  0  0  0  0  0  0
    7.4942    0.8082   -7.3911 H   0  0  0  0  0  0  0  0  0  0  0  0
    8.7270    2.0638   -7.3696 H   0  0  0  0  0  0  0  0  0  0  0  0
    7.1886    2.3795   -6.4505 H   0  0  0  0  0  0  0  0  0  0  0  0
    4.2993    2.0788   -3.9035 H   0  0  0  0  0  0  0  0  0  0  0  0
    5.0079    0.3206   -2.3687 H   0  0  0  0  0  0  0  0  0  0  0  0
    6.8183   -4.1214   -1.0221 H   0  0  0  0  0  0  0  0  0  0  0  0
    6.1972   -5.1595   -3.1552 H   0  0  0  0  0  0  0  0  0  0  0  0
    4.2972   -2.5383   -7.6335 H   0  0  0  0  0  0  0  0  0  0  0  0
    4.0359   -1.6715   -6.1028 H   0  0  0  0  0  0  0  0  0  0  0  0
    5.6654   -0.6704   -7.4596 H   0  0  0  0  0  0  0  0  0  0  0  0
    6.4698   -1.1973   -5.9540 H   0  0  0  0  0  0  0  0  0  0  0  0
    6.6742   -2.1430   -7.5080 H   0  0  0  0  0  0  0  0  0  0  0  0
    7.4778    3.3044    1.8814 H   0  0  0  0  0  0  0  0  0  0  0  0
    7.5785    4.3867    4.1242 H   0  0  0  0  0  0  0  0  0  0  0  0
   10.2015    3.6573    6.8850 H   0  0  0  0  0  0  0  0  0  0  0  0
    9.6122    3.3344    8.5225 H   0  0  0  0  0  0  0  0  0  0  0  0
    9.3654    0.8904    7.7648 H   0  0  0  0  0  0  0  0  0  0  0  0
   11.0177    1.5021    8.0654 H   0  0  0  0  0  0  0  0  0  0  0  0
   10.4344    1.3108    6.3809 H   0  0  0  0  0  0  0  0  0  0  0  0
    9.0743   -1.0262    3.3523 H   0  0  0  0  0  0  0  0  0  0  0  0
    9.6295   -3.4745    2.8467 H   0  0  0  0  0  0  0  0  0  0  0  0
  1  2  1  0
  2  3  1  0
  3  4  2  0
  4  5  1  0
  5  6  1  0
  6  7  1  0
  7  8  1  0
  7  9  1  0
  7 10  1  0
  6 11  1  0
 11 12  1  0
 12 13  1  0
 13 14  1  0
 14 15  1  0
 14 16  1  0
 14 17  1  0
  3 18  1  0
 18 19  2  0
 19 20  1  0
 20 21  2  0
 21 22  1  0
 22 23  2  0
 23 24  1  0
 24 25  2  0
 25 26  1  0
 26 27  1  0
 27 28  1  0
 25 29  1  0
 21 30  1  0
 30 31  2  0
 31 32  1  0
 32 33  1  0
 33 34  2  0
 34 35  1  0
 35 36  2  0
 36 37  1  0
 37 38  1  0
 38 39  1  0
 36 40  1  0
 32 41  2  0
 41 42  1  0
 31 43  1  0
 43 44  2  0
 44 45  1  0
 44 46  1  0
 46 47  1  0
 47 48  1  0
 48 49  2  0
 49 50  1  0
 50 51  1  0
 51 52  1  0
 52 53  1  0
 52 54  1  0
 52 55  1  0
 51 56  1  0
 56 57  1  0
 57 58  1  0
 58 59  1  0
 59 60  1  0
 59 61  1  0
 59 62  1  0
 48 63  1  0
 63 64  1  0
 64 65  1  0
 65 66  2  0
 66 67  1  0
 67 68  1  0
 68 69  1  0
 69 70  1  0
 69 71  1  0
 69 72  1  0
 68 73  1  0
 73 74  1  0
 74 75  1  0
 75 76  1  0
 76 77  1  0
 76 78  1  0
 76 79  1  0
 65 80  1  0
 80 81  2  0
 81 82  1  0
 82 83  2  0
 83 84  1  0
 84 85  2  0
 85 86  1  0
 86 87  2  0
 87 88  1  0
 88 89  1  0
 89 90  1  0
 87 91  1  0
 83 92  1  0
 92 93  2  0
 93 94  1  0
 94 95  1  0
 95 96  2  0
 96 97  1  0
 97 98  2  0
 98 99  1  0
 99100  1  0
100101  1  0
 98102  1  0
 94103  2  0
103104  1  0
 93105  1  0
105106  2  0
106107  1  0
106108  1  0
108109  2  0
109110  1  0
110111  2  0
111112  1  0
112113  2  0
113114  1  0
114115  2  0
115116  1  0
116117  1  0
117118  1  0
115119  1  0
111120  1  0
120121  2  0
121122  1  0
122123  1  0
123124  2  0
124125  1  0
125126  2  0
126127  1  0
127128  1  0
128129  1  0
126130  1  0
122131  2  0
131132  1  0
121133  1  0
133134  2  0
134135  1  0
  5  1  2  0
 42 18  1  0
 50 46  2  0
 67 63  2  0
104 80  1  0
132108  1  0
 13  4  1  0
 41 20  1  0
 58 49  1  0
 75 66  1  0
103 82  1  0
131110  1  0
 29 22  1  0
 45 30  1  0
 91 84  1  0
107 92  1  0
119112  1  0
135120  1  0
 40 33  1  0
102 95  1  0
130123  1  0
  1136  1  0
  6137  1  1
 11138  1  0
 11139  1  0
 12140  1  0
 12141  1  0
 13142  1  1
 19143  1  0
 23144  1  0
 24145  1  0
 27146  1  0
 27147  1  0
 28148  1  0
 28149  1  0
 28150  1  0
 34151  1  0
 35152  1  0
 38153  1  0
 38154  1  0
 39155  1  0
 39156  1  0
 39157  1  0
 43158  1  0
 51159  1  1
 56160  1  0
 56161  1  0
 57162  1  0
 57163  1  0
 58164  1  6
 68165  1  6
 73166  1  0
 73167  1  0
 74168  1  0
 74169  1  0
 75170  1  1
 81171  1  0
 85172  1  0
 86173  1  0
 89174  1  0
 89175  1  0
 90176  1  0
 90177  1  0
 90178  1  0
 96179  1  0
 97180  1  0
100181  1  0
100182  1  0
101183  1  0
101184  1  0
101185  1  0
105186  1  0
109187  1  0
113188  1  0
114189  1  0
117190  1  0
117191  1  0
118192  1  0
118193  1  0
118194  1  0
124195  1  0
125196  1  0
128197  1  0
128198  1  0
129199  1  0
129200  1  0
129201  1  0
133202  1  0
134203  1  0
M  END

