
     RDKit          3D

251271  0  0  0  0  0  0  0  0999 V2000
    9.8757   -1.1083   -0.6244 C   0  0  0  0  0  0  0  0  0  0  0  0
   10.1036    0.2151   -1.3112 C   0  0  0  0  0  0  0  0  0  0  0  0
    9.2145    0.3171   -2.5518 C   0  0  0  0  0  0  0  0  0  0  0  0
    8.1851   -0.7477   -2.4638 C   0  0  0  0  0  0  0  0  0  0  0  0
    8.0633   -1.5032   -3.5228 C   0  0  0  0  0  0  0  0  0  0  0  0
    7.3401   -1.0397   -1.4051 O   0  0  0  0  0  0  0  0  0  0  0  0
    7.5173   -0.4990   -0.0883 C   0  0  2  0  0  0  0  0  0  0  0  0
    8.8105   -1.0491    0.4548 C   0  0  0  0  0  0  0  0  0  0  0  0
    9.3172   -0.0627    1.4554 C   0  0  0  0  0  0  0  0  0  0  0  0
    9.6624    1.1191    0.9901 C   0  0  0  0  0  0  0  0  0  0  0  0
   10.0277    1.4102   -0.4225 C   0  0  0  0  0  0  0  0  0  0  0  0
   11.3633    2.1708   -0.3660 C   0  0  0  0  0  0  0  0  0  0  0  0
    6.3921   -0.9390    0.8373 C   0  0  0  0  0  0  0  0  0  0  0  0
    5.0596   -0.4707    0.2710 C   0  0  0  0  0  0  0  0  0  0  0  0
    4.9051    0.9749    0.1131 C   0  0  0  0  0  0  0  0  0  0  0  0
    4.8957    1.8194    1.3537 C   0  0  0  0  0  0  0  0  0  0  0  0
    3.8696    2.5879    1.5969 C   0  0  0  0  0  0  0  0  0  0  0  0
    3.6917    3.4951    2.7856 C   0  0  0  0  0  0  0  0  0  0  0  0
    3.7162    4.8665    2.1520 C   0  0  0  0  0  0  0  0  0  0  0  0
    3.8390    5.9966    3.1242 C   0  0  0  0  0  0  0  0  0  0  0  0
    2.4781    6.2722    3.7123 C   0  0  0  0  0  0  0  0  0  0  0  0
    2.2384    7.5052    4.0435 C   0  0  0  0  0  0  0  0  0  0  0  0
    1.5678    5.2356    3.8754 O   0  0  0  0  0  0  0  0  0  0  0  0
    1.9211    4.0090    4.5936 C   0  0  2  0  0  0  0  0  0  0  0  0
    2.4096    3.1118    3.4695 C   0  0  0  0  0  0  0  0  0  0  0  0
    1.3006    3.2513    2.4145 C   0  0  0  0  0  0  0  0  0  0  0  0
    1.3173    4.3295    1.6502 C   0  0  0  0  0  0  0  0  0  0  0  0
    2.5691    4.9897    1.1832 C   0  0  0  0  0  0  0  0  0  0  0  0
    2.3430    6.3962    0.6823 C   0  0  0  0  0  0  0  0  0  0  0  0
    0.5387    3.4979    5.0502 C   0  0  0  0  0  0  0  0  0  0  0  0
   -0.2304    4.5715    5.7459 C   0  0  0  0  0  0  0  0  0  0  0  0
    0.1775    5.2192    6.9746 C   0  0  0  0  0  0  0  0  0  0  0  0
   -0.5880    6.3826    7.4460 C   0  0  0  0  0  0  0  0  0  0  0  0
   -1.5547    7.0881    6.9059 C   0  0  0  0  0  0  0  0  0  0  0  0
   -2.1563    6.8432    5.5750 C   0  0  0  0  0  0  0  0  0  0  0  0
   -2.9629    5.8067    5.1937 C   0  0  0  0  0  0  0  0  0  0  0  0
   -3.2047    5.6056    3.8852 C   0  0  0  0  0  0  0  0  0  0  0  0
   -3.8692    4.5553    3.2619 C   0  0  0  0  0  0  0  0  0  0  0  0
   -4.5240    3.4316    3.9434 C   0  0  0  0  0  0  0  0  0  0  0  0
   -4.4914    2.8293    5.1173 C   0  0  0  0  0  0  0  0  0  0  0  0
   -5.3404    1.8656    5.4815 C   0  0  0  0  0  0  0  0  0  0  0  0
   -6.3089    1.3945    4.7230 C   0  0  0  0  0  0  0  0  0  0  0  0
   -7.5932    0.1886    4.7991 S   0  0  0  0  0  0  0  0  0  0  0  0
   -8.6239    0.2200    3.2969 C   0  0  0  0  0  0  0  0  0  0  0  0
   -9.7030   -0.8222    3.4653 C   0  0  0  0  0  0  0  0  0  0  0  0
   -6.0144    2.5297    3.0946 Se  0  0  0  0  0  2  0  0  0  0  0  0
   -3.8661    4.4592    1.8646 C   0  0  0  0  0  0  0  0  0  0  0  0
   -3.2539    5.3239    0.9988 C   0  0  0  0  0  0  0  0  0  0  0  0
   -2.6136    6.3900    1.6276 C   0  0  0  0  0  0  0  0  0  0  0  0
   -2.0888    7.5425    0.8981 C   0  0  0  0  0  0  0  0  0  0  0  0
   -2.2580    8.0451   -0.3395 C   0  0  0  0  0  0  0  0  0  0  0  0
   -1.5875    9.1154   -0.7707 C   0  0  0  0  0  0  0  0  0  0  0  0
   -0.7058    9.7891   -0.0468 C   0  0  0  0  0  0  0  0  0  0  0  0
    0.3199   11.1954   -0.2320 S   0  0  0  0  0  0  0  0  0  0  0  0
    1.3011   11.5065    1.2326 C   0  0  0  0  0  0  0  0  0  0  0  0
    2.3487   10.4463    1.4562 C   0  0  0  0  0  0  0  0  0  0  0  0
   -0.8256    8.6909    1.6132 Se  0  0  0  0  0  2  0  0  0  0  0  0
   -2.6068    6.4927    3.0233 C   0  0  0  0  0  0  0  0  0  0  0  0
   -1.7591    7.5514    4.0629 S   0  0  0  0  0  0  0  0  0  0  0  0
   -3.2055    4.9078   -0.3013 C   0  0  0  0  0  0  0  0  0  0  0  0
   -3.7290    3.7394   -0.6510 C   0  0  0  0  0  0  0  0  0  0  0  0
   -4.3492    3.1596    0.8712 S   0  0  0  0  0  0  0  0  0  0  0  0
   -3.5825    2.8269   -1.8203 C   0  0  0  0  0  0  0  0  0  0  0  0
   -2.4080    2.6127   -2.5043 C   0  0  0  0  0  0  0  0  0  0  0  0
   -2.3381    1.5399   -3.3145 C   0  0  0  0  0  0  0  0  0  0  0  0
   -1.2019    1.0293   -3.9436 C   0  0  0  0  0  0  0  0  0  0  0  0
    0.0577    1.7461   -4.1148 C   0  0  0  0  0  0  0  0  0  0  0  0
    0.4641    3.0138   -4.0020 C   0  0  0  0  0  0  0  0  0  0  0  0
    1.7452    3.3850   -4.1525 C   0  0  0  0  0  0  0  0  0  0  0  0
    2.7319    2.5358   -4.4283 C   0  0  0  0  0  0  0  0  0  0  0  0
    4.4627    2.5998   -4.7013 S   0  0  0  0  0  0  0  0  0  0  0  0
    4.8798    2.8794   -6.4430 C   0  0  0  0  0  0  0  0  0  0  0  0
    4.3990    4.2621   -6.8919 C   0  0  0  0  0  0  0  0  0  0  0  0
    1.6474    0.8620   -4.4932 Se  0  0  0  0  0  2  0  0  0  0  0  0
   -1.2905   -0.2130   -4.5723 C   0  0  0  0  0  0  0  0  0  0  0  0
   -2.4069   -1.0022   -4.6538 C   0  0  0  0  0  0  0  0  0  0  0  0
   -3.5404   -0.4714   -4.0302 C   0  0  0  0  0  0  0  0  0  0  0  0
   -4.8093   -1.1723   -4.0186 C   0  0  0  0  0  0  0  0  0  0  0  0
   -6.0660   -0.7843   -3.6818 C   0  0  0  0  0  0  0  0  0  0  0  0
   -7.0980   -1.6336   -3.7167 C   0  0  0  0  0  0  0  0  0  0  0  0
   -7.0199   -2.9083   -4.0745 C   0  0  0  0  0  0  0  0  0  0  0  0
   -8.1252   -4.2667   -4.3095 S   0  0  0  0  0  0  0  0  0  0  0  0
   -9.8200   -3.5591   -4.1594 C   0  0  0  0  0  0  0  0  0  0  0  0
  -10.0096   -2.6049   -5.3390 C   0  0  0  0  0  0  0  0  0  0  0  0
   -5.0837   -3.0013   -4.4576 Se  0  0  0  0  0  2  0  0  0  0  0  0
   -3.4499    0.7477   -3.3987 C   0  0  0  0  0  0  0  0  0  0  0  0
   -4.5544    1.5652   -2.3201 S   0  0  0  0  0  0  0  0  0  0  0  0
   -2.2438   -2.2076   -5.2243 C   0  0  0  0  0  0  0  0  0  0  0  0
   -1.0007   -2.5609   -5.6712 C   0  0  0  0  0  0  0  0  0  0  0  0
   -0.0684   -1.1948   -5.2987 S   0  0  0  0  0  0  0  0  0  0  0  0
   -0.5265   -3.8804   -6.2159 C   0  0  0  0  0  0  0  0  0  0  0  0
   -1.5943   -4.9034   -6.0130 C   0  0  0  0  0  0  0  0  0  0  0  0
   -1.8334   -5.3014   -4.5778 C   0  0  0  0  0  0  0  0  0  0  0  0
   -1.4645   -4.3128   -3.5690 C   0  0  0  0  0  0  0  0  0  0  0  0
   -2.2910   -4.2097   -2.5163 C   0  0  0  0  0  0  0  0  0  0  0  0
   -0.3654   -3.4514   -3.5383 O   0  0  0  0  0  0  0  0  0  0  0  0
    0.8942   -3.8601   -4.1320 C   0  0  2  0  0  0  0  0  0  0  0  0
    0.7744   -4.2869   -5.5351 C   0  0  0  0  0  0  0  0  0  0  0  0
    0.9644   -5.7337   -5.7194 C   0  0  0  0  0  0  0  0  0  0  0  0
    0.1901   -6.5667   -6.3574 C   0  0  0  0  0  0  0  0  0  0  0  0
   -1.1978   -6.2000   -6.7252 C   0  0  0  0  0  0  0  0  0  0  0  0
   -1.3580   -6.0491   -8.2171 C   0  0  0  0  0  0  0  0  0  0  0  0
    1.5658   -4.8268   -3.1799 C   0  0  0  0  0  0  0  0  0  0  0  0
    1.8631   -4.1179   -1.8499 C   0  0  0  0  0  0  0  0  0  0  0  0
    2.4392   -5.0310   -0.8188 C   0  0  0  0  0  0  0  0  0  0  0  0
    2.8119   -4.2658    0.3910 C   0  0  0  0  0  0  0  0  0  0  0  0
    2.3144   -4.2423    1.5682 C   0  0  0  0  0  0  0  0  0  0  0  0
    1.1640   -5.0204    2.0454 C   0  0  0  0  0  0  0  0  0  0  0  0
    0.6481   -5.0656    3.3112 C   0  0  0  0  0  0  0  0  0  0  0  0
   -0.4557   -5.8159    3.5297 C   0  0  0  0  0  0  0  0  0  0  0  0
   -1.1041   -6.0272    4.7340 C   0  0  0  0  0  0  0  0  0  0  0  0
   -0.8738   -5.3104    5.9856 C   0  0  0  0  0  0  0  0  0  0  0  0
   -0.2843   -4.1948    6.3867 C   0  0  0  0  0  0  0  0  0  0  0  0
   -0.1943   -3.8233    7.6669 C   0  0  0  0  0  0  0  0  0  0  0  0
   -0.6875   -4.5354    8.6726 C   0  0  0  0  0  0  0  0  0  0  0  0
   -0.8051   -4.4087   10.4272 S   0  0  0  0  0  0  0  0  0  0  0  0
   -1.6530   -5.8639   11.1239 C   0  0  0  0  0  0  0  0  0  0  0  0
   -3.1061   -5.9156   10.6565 C   0  0  0  0  0  0  0  0  0  0  0  0
   -1.4422   -6.0494    7.6729 Se  0  0  0  0  0  2  0  0  0  0  0  0
   -2.2091   -6.8932    4.7529 C   0  0  0  0  0  0  0  0  0  0  0  0
   -2.7204   -7.5559    3.6723 C   0  0  0  0  0  0  0  0  0  0  0  0
   -2.0615   -7.3289    2.4508 C   0  0  0  0  0  0  0  0  0  0  0  0
   -2.4424   -7.9277    1.1905 C   0  0  0  0  0  0  0  0  0  0  0  0
   -2.1353   -7.6977   -0.1035 C   0  0  0  0  0  0  0  0  0  0  0  0
   -2.6121   -8.4386   -1.0984 C   0  0  0  0  0  0  0  0  0  0  0  0
   -3.4327   -9.4779   -0.9440 C   0  0  0  0  0  0  0  0  0  0  0  0
   -4.2967  -10.6131   -1.9652 S   0  0  0  0  0  0  0  0  0  0  0  0
   -4.1389  -10.0347   -3.6848 C   0  0  0  0  0  0  0  0  0  0  0  0
   -4.9325   -8.7270   -3.7402 C   0  0  0  0  0  0  0  0  0  0  0  0
   -3.5858   -9.4286    1.0270 Se  0  0  0  0  0  2  0  0  0  0  0  0
   -0.9637   -6.4741    2.4443 C   0  0  0  0  0  0  0  0  0  0  0  0
    0.0966   -6.0270    1.1951 S   0  0  0  0  0  0  0  0  0  0  0  0
   -3.7997   -8.3357    3.8974 C   0  0  0  0  0  0  0  0  0  0  0  0
   -4.2943   -8.4009    5.1764 C   0  0  0  0  0  0  0  0  0  0  0  0
   -3.2396   -7.3770    6.0208 S   0  0  0  0  0  0  0  0  0  0  0  0
   10.8118   -1.4158   -0.1362 H   0  0  0  0  0  0  0  0  0  0  0  0
    9.6667   -1.8445   -1.4141 H   0  0  0  0  0  0  0  0  0  0  0  0
   11.1580    0.1769   -1.7040 H   0  0  0  0  0  0  0  0  0  0  0  0
    9.7848    0.2585   -3.4964 H   0  0  0  0  0  0  0  0  0  0  0  0
    8.6644    1.2868   -2.4703 H   0  0  0  0  0  0  0  0  0  0  0  0
    7.3483   -2.3121   -3.5812 H   0  0  0  0  0  0  0  0  0  0  0  0
    8.6825   -1.3283   -4.3792 H   0  0  0  0  0  0  0  0  0  0  0  0
    7.5709    0.5826   -0.1327 H   0  0  0  0  0  0  0  0  0  0  0  0
    8.7067   -2.0551    0.8659 H   0  0  0  0  0  0  0  0  0  0  0  0
    9.3742   -0.3667    2.4834 H   0  0  0  0  0  0  0  0  0  0  0  0
    9.6831    1.9503    1.6949 H   0  0  0  0  0  0  0  0  0  0  0  0
    9.3327    2.1343   -0.9090 H   0  0  0  0  0  0  0  0  0  0  0  0
   11.4834    2.6975   -1.3318 H   0  0  0  0  0  0  0  0  0  0  0  0
   11.2281    2.9450    0.4161 H   0  0  0  0  0  0  0  0  0  0  0  0
   12.1736    1.4758   -0.1170 H   0  0  0  0  0  0  0  0  0  0  0  0
    6.6030   -0.5998    1.8431 H   0  0  0  0  0  0  0  0  0  0  0  0
    6.3813   -2.0430    0.8182 H   0  0  0  0  0  0  0  0  0  0  0  0
    4.2923   -0.8581    0.9745 H   0  0  0  0  0  0  0  0  0  0  0  0
    4.9154   -0.9548   -0.7224 H   0  0  0  0  0  0  0  0  0  0  0  0
    5.6482    1.4089   -0.6325 H   0  0  0  0  0  0  0  0  0  0  0  0
    3.9247    1.1615   -0.4009 H   0  0  0  0  0  0  0  0  0  0  0  0
    5.7331    1.7678    2.0165 H   0  0  0  0  0  0  0  0  0  0  0  0
    3.0145    2.5846    0.8970 H   0  0  0  0  0  0  0  0  0  0  0  0
    4.5352    3.3289    3.4523 H   0  0  0  0  0  0  0  0  0  0  0  0
    4.6629    4.8762    1.5278 H   0  0  0  0  0  0  0  0  0  0  0  0
    4.4446    5.6529    3.9856 H   0  0  0  0  0  0  0  0  0  0  0  0
    4.3145    6.8793    2.7047 H   0  0  0  0  0  0  0  0  0  0  0  0
    2.9749    8.2689    3.8974 H   0  0  0  0  0  0  0  0  0  0  0  0
    1.2966    7.7690    4.4761 H   0  0  0  0  0  0  0  0  0  0  0  0
    2.6368    4.1423    5.3418 H   0  0  0  0  0  0  0  0  0  0  0  0
    2.4171    2.0684    3.7668 H   0  0  0  0  0  0  0  0  0  0  0  0
    0.5794    2.5061    2.3248 H   0  0  0  0  0  0  0  0  0  0  0  0
    0.3784    4.7678    1.3441 H   0  0  0  0  0  0  0  0  0  0  0  0
    2.8845    4.4217    0.2514 H   0  0  0  0  0  0  0  0  0  0  0  0
    2.7245    6.5334   -0.3791 H   0  0  0  0  0  0  0  0  0  0  0  0
    1.2552    6.6451    0.6139 H   0  0  0  0  0  0  0  0  0  0  0  0
    2.8401    7.1769    1.2539 H   0  0  0  0  0  0  0  0  0  0  0  0
    0.7318    2.6190    5.6982 H   0  0  0  0  0  0  0  0  0  0  0  0
    0.0143    3.1173    4.1556 H   0  0  0  0  0  0  0  0  0  0  0  0
   -1.2341    4.0844    5.9482 H   0  0  0  0  0  0  0  0  0  0  0  0
   -0.3165    5.3986    4.9653 H   0  0  0  0  0  0  0  0  0  0  0  0
    0.0872    4.4540    7.8113 H   0  0  0  0  0  0  0  0  0  0  0  0
    1.2814    5.4643    7.0014 H   0  0  0  0  0  0  0  0  0  0  0  0
   -0.3012    6.7540    8.4686 H   0  0  0  0  0  0  0  0  0  0  0  0
   -1.9704    7.9352    7.4467 H   0  0  0  0  0  0  0  0  0  0  0  0
   -3.4083    5.1863    6.0007 H   0  0  0  0  0  0  0  0  0  0  0  0
   -3.6512    3.1115    5.8427 H   0  0  0  0  0  0  0  0  0  0  0  0
   -5.2550    1.3886    6.5292 H   0  0  0  0  0  0  0  0  0  0  0  0
   -9.1281    1.2102    3.1857 H   0  0  0  0  0  0  0  0  0  0  0  0
   -8.0329   -0.0459    2.4024 H   0  0  0  0  0  0  0  0  0  0  0  0
   -9.3974   -1.8320    3.1134 H   0  0  0  0  0  0  0  0  0  0  0  0
  -10.6355   -0.5529    2.9151 H   0  0  0  0  0  0  0  0  0  0  0  0
  -10.0025   -0.9539    4.5462 H   0  0  0  0  0  0  0  0  0  0  0  0
   -3.0477    7.5554   -1.0174 H   0  0  0  0  0  0  0  0  0  0  0  0
   -1.7813    9.4945   -1.8382 H   0  0  0  0  0  0  0  0  0  0  0  0
    1.8067   12.4913    1.2087 H   0  0  0  0  0  0  0  0  0  0  0  0
    0.6835   11.5346    2.1793 H   0  0  0  0  0  0  0  0  0  0  0  0
    2.1329    9.8166    2.3363 H   0  0  0  0  0  0  0  0  0  0  0  0
    2.5302    9.8581    0.5325 H   0  0  0  0  0  0  0  0  0  0  0  0
    3.3120   10.9537    1.6909 H   0  0  0  0  0  0  0  0  0  0  0  0
   -2.6961    5.5116   -1.0824 H   0  0  0  0  0  0  0  0  0  0  0  0
   -1.6193    3.3261   -2.3135 H   0  0  0  0  0  0  0  0  0  0  0  0
   -0.3119    3.8214   -3.8254 H   0  0  0  0  0  0  0  0  0  0  0  0
    2.0516    4.4868   -4.0422 H   0  0  0  0  0  0  0  0  0  0  0  0
    5.9676    2.8577   -6.5376 H   0  0  0  0  0  0  0  0  0  0  0  0
    4.3835    2.1544   -7.1050 H   0  0  0  0  0  0  0  0  0  0  0  0
    5.0514    5.0749   -6.5085 H   0  0  0  0  0  0  0  0  0  0  0  0
    4.4757    4.2593   -7.9972 H   0  0  0  0  0  0  0  0  0  0  0  0
    3.3132    4.4070   -6.6532 H   0  0  0  0  0  0  0  0  0  0  0  0
   -6.2030    0.2994   -3.3809 H   0  0  0  0  0  0  0  0  0  0  0  0
   -8.1406   -1.2524   -3.4236 H   0  0  0  0  0  0  0  0  0  0  0  0
   -9.8935   -2.9512   -3.2405 H   0  0  0  0  0  0  0  0  0  0  0  0
  -10.5800   -4.3356   -4.1572 H   0  0  0  0  0  0  0  0  0  0  0  0
   -8.9916   -2.2547   -5.6158 H   0  0  0  0  0  0  0  0  0  0  0  0
  -10.5654   -1.7150   -5.0272 H   0  0  0  0  0  0  0  0  0  0  0  0
  -10.4563   -3.1358   -6.1798 H   0  0  0  0  0  0  0  0  0  0  0  0
   -3.0570   -2.9470   -5.3986 H   0  0  0  0  0  0  0  0  0  0  0  0
   -0.3292   -3.7439   -7.2772 H   0  0  0  0  0  0  0  0  0  0  0  0
   -2.5211   -4.5512   -6.4819 H   0  0  0  0  0  0  0  0  0  0  0  0
   -1.2803   -6.2577   -4.3360 H   0  0  0  0  0  0  0  0  0  0  0  0
   -2.9185   -5.5455   -4.4561 H   0  0  0  0  0  0  0  0  0  0  0  0
   -2.0671   -3.4939   -1.7391 H   0  0  0  0  0  0  0  0  0  0  0  0
   -3.1720   -4.8100   -2.4073 H   0  0  0  0  0  0  0  0  0  0  0  0
    1.5097   -2.9097   -4.0815 H   0  0  0  0  0  0  0  0  0  0  0  0
    1.5883   -3.7941   -6.1610 H   0  0  0  0  0  0  0  0  0  0  0  0
    1.8751   -6.1757   -5.2571 H   0  0  0  0  0  0  0  0  0  0  0  0
    0.5401   -7.5660   -6.6391 H   0  0  0  0  0  0  0  0  0  0  0  0
   -1.8536   -7.0357   -6.3989 H   0  0  0  0  0  0  0  0  0  0  0  0
   -1.6282   -7.0347   -8.6849 H   0  0  0  0  0  0  0  0  0  0  0  0
   -0.4014   -5.7665   -8.7004 H   0  0  0  0  0  0  0  0  0  0  0  0
   -2.1486   -5.2852   -8.4622 H   0  0  0  0  0  0  0  0  0  0  0  0
    0.8584   -5.6374   -2.9204 H   0  0  0  0  0  0  0  0  0  0  0  0
    2.5127   -5.2055   -3.5465 H   0  0  0  0  0  0  0  0  0  0  0  0
    2.6451   -3.3412   -2.1141 H   0  0  0  0  0  0  0  0  0  0  0  0
    0.9917   -3.5304   -1.4987 H   0  0  0  0  0  0  0  0  0  0  0  0
    3.4118   -5.4725   -1.2067 H   0  0  0  0  0  0  0  0  0  0  0  0
    1.8172   -5.9205   -0.6229 H   0  0  0  0  0  0  0  0  0  0  0  0
    3.6821   -3.5948    0.2326 H   0  0  0  0  0  0  0  0  0  0  0  0
    2.8004   -3.5675    2.3034 H   0  0  0  0  0  0  0  0  0  0  0  0
    1.2072   -4.4996    4.1069 H   0  0  0  0  0  0  0  0  0  0  0  0
    0.1364   -3.4915    5.5916 H   0  0  0  0  0  0  0  0  0  0  0  0
    0.3291   -2.8441    7.9599 H   0  0  0  0  0  0  0  0  0  0  0  0
   -1.6588   -5.8143   12.2283 H   0  0  0  0  0  0  0  0  0  0  0  0
   -1.1268   -6.8054   10.8517 H   0  0  0  0  0  0  0  0  0  0  0  0
   -3.5144   -4.8844   10.6724 H   0  0  0  0  0  0  0  0  0  0  0  0
   -3.7279   -6.5005   11.3545 H   0  0  0  0  0  0  0  0  0  0  0  0
   -3.1492   -6.3781    9.6438 H   0  0  0  0  0  0  0  0  0  0  0  0
   -1.4472   -6.8096   -0.3222 H   0  0  0  0  0  0  0  0  0  0  0  0
   -2.3146   -8.1874   -2.1767 H   0  0  0  0  0  0  0  0  0  0  0  0
   -3.0729   -9.8070   -3.8538 H   0  0  0  0  0  0  0  0  0  0  0  0
   -4.5364  -10.8001   -4.3449 H   0  0  0  0  0  0  0  0  0  0  0  0
   -4.6665   -8.0830   -2.8568 H   0  0  0  0  0  0  0  0  0  0  0  0
   -4.6912   -8.1614   -4.6434 H   0  0  0  0  0  0  0  0  0  0  0  0
   -6.0103   -8.9440   -3.6807 H   0  0  0  0  0  0  0  0  0  0  0  0
   -4.3538   -8.9396    3.1402 H   0  0  0  0  0  0  0  0  0  0  0  0
   -5.1658   -8.9875    5.5277 H   0  0  0  0  0  0  0  0  0  0  0  0
  1  2  1  0
  2  3  1  0
  3  4  1  0
  4  5  2  3
  4  6  1  0
  6  7  1  0
  7  8  1  0
  8  9  1  0
  9 10  2  0
 10 11  1  0
 11 12  1  0
  7 13  1  0
 13 14  1  0
 14 15  1  0
 15 16  1  0
 16 17  2  3
 17 18  1  0
 18 19  1  0
 19 20  1  0
 20 21  1  0
 21 22  2  3
 21 23  1  0
 23 24  1  0
 24 25  1  0
 25 26  1  0
 26 27  2  0
 27 28  1  0
 28 29  1  0
 24 30  1  0
 30 31  1  0
 31 32  1  0
 32 33  1  0
 33 34  2  3
 34 35  1  0
 35 36  2  0
 36 37  1  0
 37 38  2  0
 38 39  1  0
 39 40  2  0
 40 41  1  0
 41 42  2  0
 42 43  1  0
 43 44  1  0
 44 45  1  0
 42 46  1  0
 38 47  1  0
 47 48  2  0
 48 49  1  0
 49 50  1  0
 50 51  2  0
 51 52  1  0
 52 53  2  0
 53 54  1  0
 54 55  1  0
 55 56  1  0
 53 57  1  0
 49 58  2  0
 58 59  1  0
 48 60  1  0
 60 61  2  0
 61 62  1  0
 61 63  1  0
 63 64  2  0
 64 65  1  0
 65 66  2  0
 66 67  1  0
 67 68  2  0
 68 69  1  0
 69 70  2  0
 70 71  1  0
 71 72  1  0
 72 73  1  0
 70 74  1  0
 66 75  1  0
 75 76  2  0
 76 77  1  0
 77 78  1  0
 78 79  2  0
 79 80  1  0
 80 81  2  0
 81 82  1  0
 82 83  1  0
 83 84  1  0
 81 85  1  0
 77 86  2  0
 86 87  1  0
 76 88  1  0
 88 89  2  0
 89 90  1  0
 89 91  1  0
 91 92  1  0
 92 93  1  0
 93 94  1  0
 94 95  2  3
 94 96  1  0
 96 97  1  0
 97 98  1  0
 98 99  1  0
 99100  2  0
100101  1  0
101102  1  0
 97103  1  0
103104  1  0
104105  1  0
105106  1  0
106107  2  3
107108  1  0
108109  2  0
109110  1  0
110111  2  0
111112  1  0
112113  2  0
113114  1  0
114115  2  0
115116  1  0
116117  1  0
117118  1  0
115119  1  0
111120  1  0
120121  2  0
121122  1  0
122123  1  0
123124  2  0
124125  1  0
125126  2  0
126127  1  0
127128  1  0
128129  1  0
126130  1  0
122131  2  0
131132  1  0
121133  1  0
133134  2  0
134135  1  0
  8  1  1  0
 25 18  1  0
 59 35  1  0
 87 63  1  0
 98 91  1  0
132108  1  0
 11  2  1  0
 28 19  1  0
 58 37  1  0
 86 65  1  0
101 92  1  0
131110  1  0
 46 39  1  0
 62 47  1  0
 74 67  1  0
 90 75  1  0
119112  1  0
135120  1  0
 57 50  1  0
 85 78  1  0
130123  1  0
  1136  1  0
  1137  1  0
  2138  1  0
  3139  1  0
  3140  1  0
  5141  1  0
  5142  1  0
  7143  1  6
  8144  1  0
  9145  1  0
 10146  1  0
 11147  1  0
 12148  1  0
 12149  1  0
 12150  1  0
 13151  1  0
 13152  1  0
 14153  1  0
 14154  1  0
 15155  1  0
 15156  1  0
 16157  1  0
 17158  1  0
 18159  1  0
 19160  1  0
 20161  1  0
 20162  1  0
 22163  1  0
 22164  1  0
 24165  1  1
 25166  1  0
 26167  1  0
 27168  1  0
 28169  1  0
 29170  1  0
 29171  1  0
 29172  1  0
 30173  1  0
 30174  1  0
 31175  1  0
 31176  1  0
 32177  1  0
 32178  1  0
 33179  1  0
 34180  1  0
 36181  1  0
 40182  1  0
 41183  1  0
 44184  1  0
 44185  1  0
 45186  1  0
 45187  1  0
 45188  1  0
 51189  1  0
 52190  1  0
 55191  1  0
 55192  1  0
 56193  1  0
 56194  1  0
 56195  1  0
 60196  1  0
 64197  1  0
 68198  1  0
 69199  1  0
 72200  1  0
 72201  1  0
 73202  1  0
 73203  1  0
 73204  1  0
 79205  1  0
 80206  1  0
 83207  1  0
 83208  1  0
 84209  1  0
 84210  1  0
 84211  1  0
 88212  1  0
 91213  1  0
 92214  1  0
 93215  1  0
 93216  1  0
 95217  1  0
 95218  1  0
 97219  1  6
 98220  1  0
 99221  1  0
100222  1  0
101223  1  0
102224  1  0
102225  1  0
102226  1  0
103227  1  0
103228  1  0
104229  1  0
104230  1  0
105231  1  0
105232  1  0
106233  1  0
107234  1  0
109235  1  0
113236  1  0
114237  1  0
117238  1  0
117239  1  0
118240  1  0
118241  1  0
118242  1  0
124243  1  0
125244  1  0
128245  1  0
128246  1  0
129247  1  0
129248  1  0
129249  1  0
133250  1  0
134251  1  0
M  END

