
     RDKit          3D

194215  0  0  0  0  0  0  0  0999 V2000
   10.4085   -2.1318    2.7454 C   0  0  0  0  0  0  0  0  0  0  0  0
   10.7598   -1.1986    3.6931 C   0  0  0  0  0  0  0  0  0  0  0  0
    9.6476   -1.5090    4.9475 S   0  0  0  0  0  0  0  0  0  0  0  0
    8.7848   -2.7887    4.2425 C   0  0  0  0  0  0  0  0  0  0  0  0
    9.3855   -2.9535    3.0306 C   0  0  0  0  0  0  0  0  0  0  0  0
    8.8183   -3.9776    2.2518 C   0  0  0  0  0  0  0  0  0  0  0  0
    9.3913   -4.2291    0.8767 C   0  0  0  0  0  0  0  0  0  0  0  0
    7.7734   -4.7399    2.6460 C   0  0  0  0  0  0  0  0  0  0  0  0
    7.3622   -5.8486    1.7176 C   0  0  0  0  0  0  0  0  0  0  0  0
    7.1419   -4.5662    3.9034 C   0  0  0  0  0  0  0  0  0  0  0  0
    7.7087   -3.5688    4.6474 C   0  0  0  0  0  0  0  0  0  0  0  0
    6.8233   -3.5312    6.0823 S   0  0  0  0  0  0  0  0  0  0  0  0
    5.7209   -4.7802    5.7437 C   0  0  0  0  0  0  0  0  0  0  0  0
    6.0882   -5.2022    4.4812 C   0  0  0  0  0  0  0  0  0  0  0  0
    5.1979   -6.1998    3.8295 C   0  0  0  0  0  0  0  0  0  0  0  0
    4.2993   -6.8477    4.5335 C   0  0  0  0  0  0  0  0  0  0  0  0
    3.3849   -7.8375    3.9328 C   0  0  0  0  0  0  0  0  0  0  0  0
    3.6944   -8.3596    2.6981 C   0  0  0  0  0  0  0  0  0  0  0  0
    2.3732   -9.3449    2.3207 S   0  0  0  0  0  0  0  0  0  0  0  0
    1.4473   -9.0809    3.7275 C   0  0  0  0  0  0  0  0  0  0  0  0
    2.1878   -8.2222    4.4781 C   0  0  0  0  0  0  0  0  0  0  0  0
    1.5673   -7.8657    5.6779 C   0  0  0  0  0  0  0  0  0  0  0  0
    2.1759   -6.8587    6.6042 C   0  0  0  0  0  0  0  0  0  0  0  0
    0.3314   -8.3508    6.0408 C   0  0  0  0  0  0  0  0  0  0  0  0
   -0.0361   -8.0648    7.4795 C   0  0  0  0  0  0  0  0  0  0  0  0
   -0.4131   -9.2157    5.2584 C   0  0  0  0  0  0  0  0  0  0  0  0
    0.1930   -9.5642    4.0958 C   0  0  0  0  0  0  0  0  0  0  0  0
   -0.8773  -10.6321    3.3582 S   0  0  0  0  0  0  0  0  0  0  0  0
   -2.1199  -10.6326    4.5341 C   0  0  0  0  0  0  0  0  0  0  0  0
   -1.6492   -9.7814    5.4821 C   0  0  0  0  0  0  0  0  0  0  0  0
   -2.5627   -9.2914    6.5571 C   0  0  0  0  0  0  0  0  0  0  0  0
   -2.9090   -8.0090    6.5912 C   0  0  0  0  0  0  0  0  0  0  0  0
   -2.3759   -7.1551    5.5040 C   0  0  0  0  0  0  0  0  0  0  0  0
   -1.8925   -5.8924    5.4714 C   0  0  0  0  0  0  0  0  0  0  0  0
   -1.6615   -5.3026    4.2836 C   0  0  0  0  0  0  0  0  0  0  0  0
   -1.1339   -4.0414    4.0250 C   0  0  0  0  0  0  0  0  0  0  0  0
   -0.8378   -3.0262    5.0323 C   0  0  0  0  0  0  0  0  0  0  0  0
   -1.1343   -2.7656    6.2899 C   0  0  0  0  0  0  0  0  0  0  0  0
   -0.5841   -1.7655    7.0024 C   0  0  0  0  0  0  0  0  0  0  0  0
    0.3145   -0.9249    6.5275 C   0  0  0  0  0  0  0  0  0  0  0  0
    1.2865    0.4488    7.0499 S   0  0  0  0  0  0  0  0  0  0  0  0
    2.9086   -0.0736    7.6818 C   0  0  0  0  0  0  0  0  0  0  0  0
    3.7434   -0.6866    6.5631 C   0  0  0  0  0  0  0  0  0  0  0  0
    0.4822   -1.6421    4.6362 Se  0  0  0  0  0  2  0  0  0  0  0  0
   -0.9340   -3.6291    2.7020 C   0  0  0  0  0  0  0  0  0  0  0  0
   -1.2219   -4.3656    1.5856 C   0  0  0  0  0  0  0  0  0  0  0  0
   -1.7539   -5.6357    1.8469 C   0  0  0  0  0  0  0  0  0  0  0  0
   -2.3035   -6.5105    0.8365 C   0  0  0  0  0  0  0  0  0  0  0  0
   -2.6910   -7.7662    0.7164 C   0  0  0  0  0  0  0  0  0  0  0  0
   -3.3221   -8.2761   -0.3379 C   0  0  0  0  0  0  0  0  0  0  0  0
   -3.6434   -7.5565   -1.4222 C   0  0  0  0  0  0  0  0  0  0  0  0
   -4.4893   -7.8431   -2.9407 S   0  0  0  0  0  0  0  0  0  0  0  0
   -6.2499   -7.4007   -2.8328 C   0  0  0  0  0  0  0  0  0  0  0  0
   -6.3422   -5.8827   -2.6279 C   0  0  0  0  0  0  0  0  0  0  0  0
   -2.9249   -5.8087   -0.8934 Se  0  0  0  0  0  2  0  0  0  0  0  0
   -1.9424   -6.0462    3.1665 C   0  0  0  0  0  0  0  0  0  0  0  0
   -2.5064   -7.5201    3.8130 S   0  0  0  0  0  0  0  0  0  0  0  0
   -0.9609   -3.7991    0.3940 C   0  0  0  0  0  0  0  0  0  0  0  0
   -0.4339   -2.5428    0.3620 C   0  0  0  0  0  0  0  0  0  0  0  0
   -0.3092   -2.1731    2.0437 S   0  0  0  0  0  0  0  0  0  0  0  0
   -0.1355   -1.6313   -0.7559 C   0  0  0  0  0  0  0  0  0  0  0  0
   -0.5314   -1.5863   -2.0482 C   0  0  0  0  0  0  0  0  0  0  0  0
   -0.1707   -0.5206   -2.8039 C   0  0  0  0  0  0  0  0  0  0  0  0
   -0.5366   -0.1960   -4.1004 C   0  0  0  0  0  0  0  0  0  0  0  0
   -1.2052   -1.1180   -5.0439 C   0  0  0  0  0  0  0  0  0  0  0  0
   -1.3448   -2.4510   -5.0819 C   0  0  0  0  0  0  0  0  0  0  0  0
   -2.0956   -3.0497   -6.0096 C   0  0  0  0  0  0  0  0  0  0  0  0
   -2.7603   -2.4181   -6.9654 C   0  0  0  0  0  0  0  0  0  0  0  0
   -3.8098   -2.8182   -8.3216 S   0  0  0  0  0  0  0  0  0  0  0  0
   -5.5307   -2.8941   -7.6901 C   0  0  0  0  0  0  0  0  0  0  0  0
   -6.5130   -3.2596   -8.7596 C   0  0  0  0  0  0  0  0  0  0  0  0
   -2.2391   -0.5475   -6.4880 Se  0  0  0  0  0  2  0  0  0  0  0  0
   -0.1588    1.0088   -4.6637 C   0  0  0  0  0  0  0  0  0  0  0  0
    0.6015    1.9770   -4.0271 C   0  0  0  0  0  0  0  0  0  0  0  0
    0.9793    1.6584   -2.7348 C   0  0  0  0  0  0  0  0  0  0  0  0
    1.7459    2.5086   -1.8258 C   0  0  0  0  0  0  0  0  0  0  0  0
    2.1092    3.7906   -1.7451 C   0  0  0  0  0  0  0  0  0  0  0  0
    2.9433    4.2539   -0.8068 C   0  0  0  0  0  0  0  0  0  0  0  0
    3.5084    3.5483    0.1416 C   0  0  0  0  0  0  0  0  0  0  0  0
    4.5983    3.7008    1.5109 S   0  0  0  0  0  0  0  0  0  0  0  0
    3.6246    4.0638    3.0060 C   0  0  0  0  0  0  0  0  0  0  0  0
    2.9778    5.4528    2.8498 C   0  0  0  0  0  0  0  0  0  0  0  0
    2.6913    1.7519   -0.3678 Se  0  0  0  0  0  2  0  0  0  0  0  0
    0.5842    0.4342   -2.1664 C   0  0  0  0  0  0  0  0  0  0  0  0
    0.7456   -0.1975   -0.5811 S   0  0  0  0  0  0  0  0  0  0  0  0
    0.8246    3.0954   -4.7309 C   0  0  0  0  0  0  0  0  0  0  0  0
    0.2992    3.2132   -5.9921 C   0  0  0  0  0  0  0  0  0  0  0  0
   -0.4999    1.7330   -6.1848 S   0  0  0  0  0  0  0  0  0  0  0  0
    0.4792    4.3385   -6.9742 C   0  0  0  0  0  0  0  0  0  0  0  0
    0.9460    4.0358   -8.2463 C   0  0  0  0  0  0  0  0  0  0  0  0
    0.9634    5.5320   -9.0417 S   0  0  0  0  0  0  0  0  0  0  0  0
    0.3863    6.5080   -7.7855 C   0  0  0  0  0  0  0  0  0  0  0  0
    0.1813    5.6475   -6.7383 C   0  0  0  0  0  0  0  0  0  0  0  0
   -0.3404    6.3157   -5.6164 C   0  0  0  0  0  0  0  0  0  0  0  0
   -0.8212    5.5170   -4.4319 C   0  0  0  0  0  0  0  0  0  0  0  0
   -0.5978    7.6440   -5.5737 C   0  0  0  0  0  0  0  0  0  0  0  0
   -0.8994    8.1970   -4.1952 C   0  0  0  0  0  0  0  0  0  0  0  0
   -0.3860    8.5107   -6.6586 C   0  0  0  0  0  0  0  0  0  0  0  0
    0.1176    7.8687   -7.7451 C   0  0  0  0  0  0  0  0  0  0  0  0
    0.3438    9.0909   -8.9007 S   0  0  0  0  0  0  0  0  0  0  0  0
   -0.2102   10.4114   -8.0042 C   0  0  0  0  0  0  0  0  0  0  0  0
   -0.5782    9.8492   -6.7691 C   0  0  0  0  0  0  0  0  0  0  0  0
   -1.3722   10.7452   -5.8739 C   0  0  0  0  0  0  0  0  0  0  0  0
   -2.5443   10.5991   -5.4135 C   0  0  0  0  0  0  0  0  0  0  0  0
   -3.5204    9.4958   -5.6303 C   0  0  0  0  0  0  0  0  0  0  0  0
   -3.4585    8.8609   -6.8640 C   0  0  0  0  0  0  0  0  0  0  0  0
   -4.6204    7.6342   -6.7547 S   0  0  0  0  0  0  0  0  0  0  0  0
   -5.1632    7.9302   -5.1718 C   0  0  0  0  0  0  0  0  0  0  0  0
   -4.4256    8.9881   -4.7481 C   0  0  0  0  0  0  0  0  0  0  0  0
   -4.7271    9.3641   -3.4070 C   0  0  0  0  0  0  0  0  0  0  0  0
   -3.8573   10.4003   -2.7423 C   0  0  0  0  0  0  0  0  0  0  0  0
   -5.6448    8.7547   -2.6422 C   0  0  0  0  0  0  0  0  0  0  0  0
   -5.9464    9.3036   -1.2863 C   0  0  0  0  0  0  0  0  0  0  0  0
   -6.4103    7.6437   -3.1043 C   0  0  0  0  0  0  0  0  0  0  0  0
   -6.1185    7.2864   -4.3753 C   0  0  0  0  0  0  0  0  0  0  0  0
   -7.0856    5.9492   -4.6963 S   0  0  0  0  0  0  0  0  0  0  0  0
   -7.8781    5.8274   -3.2038 C   0  0  0  0  0  0  0  0  0  0  0  0
   -7.3425    6.8857   -2.4563 C   0  0  0  0  0  0  0  0  0  0  0  0
   -7.8534    7.0390   -1.0729 C   0  0  0  0  0  0  0  0  0  0  0  0
   -8.2413    5.9353   -0.4109 C   0  0  0  0  0  0  0  0  0  0  0  0
   11.0031   -2.1396    1.7982 H   0  0  0  0  0  0  0  0  0  0  0  0
   11.5665   -0.4476    3.6201 H   0  0  0  0  0  0  0  0  0  0  0  0
   10.0559   -5.1145    0.8868 H   0  0  0  0  0  0  0  0  0  0  0  0
   10.0355   -3.3586    0.6275 H   0  0  0  0  0  0  0  0  0  0  0  0
    8.5810   -4.2772    0.1115 H   0  0  0  0  0  0  0  0  0  0  0  0
    8.1854   -6.0192    0.9663 H   0  0  0  0  0  0  0  0  0  0  0  0
    7.2966   -6.7805    2.3134 H   0  0  0  0  0  0  0  0  0  0  0  0
    6.5058   -5.5698    1.1115 H   0  0  0  0  0  0  0  0  0  0  0  0
    4.9036   -5.1407    6.3983 H   0  0  0  0  0  0  0  0  0  0  0  0
    5.2598   -6.3622    2.8006 H   0  0  0  0  0  0  0  0  0  0  0  0
    4.3130   -6.6797    5.5760 H   0  0  0  0  0  0  0  0  0  0  0  0
    4.6183   -8.1617    2.1157 H   0  0  0  0  0  0  0  0  0  0  0  0
    2.9694   -7.2202    7.2246 H   0  0  0  0  0  0  0  0  0  0  0  0
    1.3300   -6.4269    7.2712 H   0  0  0  0  0  0  0  0  0  0  0  0
    2.4490   -5.9356    6.0449 H   0  0  0  0  0  0  0  0  0  0  0  0
    0.9254   -8.1733    8.0952 H   0  0  0  0  0  0  0  0  0  0  0  0
   -0.6258   -8.9161    7.8385 H   0  0  0  0  0  0  0  0  0  0  0  0
   -0.5053   -7.1213    7.6560 H   0  0  0  0  0  0  0  0  0  0  0  0
   -3.0774  -11.1844    4.5427 H   0  0  0  0  0  0  0  0  0  0  0  0
   -2.9199   -9.9735    7.2673 H   0  0  0  0  0  0  0  0  0  0  0  0
   -3.5331   -7.5903    7.3502 H   0  0  0  0  0  0  0  0  0  0  0  0
   -1.6774   -5.4145    6.4582 H   0  0  0  0  0  0  0  0  0  0  0  0
   -1.9349   -3.3860    6.8148 H   0  0  0  0  0  0  0  0  0  0  0  0
   -0.8924   -1.5959    8.1046 H   0  0  0  0  0  0  0  0  0  0  0  0
    2.8638   -0.6939    8.5719 H   0  0  0  0  0  0  0  0  0  0  0  0
    3.4383    0.8717    7.9805 H   0  0  0  0  0  0  0  0  0  0  0  0
    4.1751   -1.6592    6.8905 H   0  0  0  0  0  0  0  0  0  0  0  0
    4.5770   -0.0400    6.2522 H   0  0  0  0  0  0  0  0  0  0  0  0
    3.1156   -0.8811    5.6601 H   0  0  0  0  0  0  0  0  0  0  0  0
   -2.4441   -8.4710    1.5885 H   0  0  0  0  0  0  0  0  0  0  0  0
   -3.6366   -9.3837   -0.3712 H   0  0  0  0  0  0  0  0  0  0  0  0
   -6.7453   -7.8755   -1.9601 H   0  0  0  0  0  0  0  0  0  0  0  0
   -6.7457   -7.7353   -3.7459 H   0  0  0  0  0  0  0  0  0  0  0  0
   -7.3983   -5.5392   -2.5687 H   0  0  0  0  0  0  0  0  0  0  0  0
   -5.8655   -5.6621   -1.6348 H   0  0  0  0  0  0  0  0  0  0  0  0
   -5.7919   -5.4093   -3.4486 H   0  0  0  0  0  0  0  0  0  0  0  0
   -1.1188   -4.2995   -0.5937 H   0  0  0  0  0  0  0  0  0  0  0  0
   -1.1770   -2.4252   -2.4069 H   0  0  0  0  0  0  0  0  0  0  0  0
   -0.7693   -3.0798   -4.3385 H   0  0  0  0  0  0  0  0  0  0  0  0
   -2.2134   -4.2017   -6.0130 H   0  0  0  0  0  0  0  0  0  0  0  0
   -5.5855   -3.6842   -6.8843 H   0  0  0  0  0  0  0  0  0  0  0  0
   -5.7874   -1.9411   -7.1679 H   0  0  0  0  0  0  0  0  0  0  0  0
   -6.8609   -4.2971   -8.6026 H   0  0  0  0  0  0  0  0  0  0  0  0
   -7.4267   -2.6197   -8.6448 H   0  0  0  0  0  0  0  0  0  0  0  0
   -6.0956   -3.1755   -9.7817 H   0  0  0  0  0  0  0  0  0  0  0  0
    1.6438    4.5217   -2.4885 H   0  0  0  0  0  0  0  0  0  0  0  0
    3.1995    5.3837   -0.8212 H   0  0  0  0  0  0  0  0  0  0  0  0
    2.8058    3.3490    3.1682 H   0  0  0  0  0  0  0  0  0  0  0  0
    4.2342    4.1082    3.9167 H   0  0  0  0  0  0  0  0  0  0  0  0
    3.6032    6.2491    3.2674 H   0  0  0  0  0  0  0  0  0  0  0  0
    2.7961    5.6803    1.7883 H   0  0  0  0  0  0  0  0  0  0  0  0
    2.0069    5.4234    3.3645 H   0  0  0  0  0  0  0  0  0  0  0  0
    1.4770    3.9225   -4.3849 H   0  0  0  0  0  0  0  0  0  0  0  0
    1.2260    3.0223   -8.5987 H   0  0  0  0  0  0  0  0  0  0  0  0
   -0.1356    5.4545   -3.6223 H   0  0  0  0  0  0  0  0  0  0  0  0
   -1.3286    4.6513   -4.8415 H   0  0  0  0  0  0  0  0  0  0  0  0
   -1.7096    6.1057   -3.9758 H   0  0  0  0  0  0  0  0  0  0  0  0
   -1.9362    8.0921   -3.9053 H   0  0  0  0  0  0  0  0  0  0  0  0
   -0.5661    9.2298   -4.1391 H   0  0  0  0  0  0  0  0  0  0  0  0
   -0.2281    7.6248   -3.4599 H   0  0  0  0  0  0  0  0  0  0  0  0
   -0.2941   11.4850   -8.2574 H   0  0  0  0  0  0  0  0  0  0  0  0
   -0.8212   11.6547   -5.5976 H   0  0  0  0  0  0  0  0  0  0  0  0
   -2.9767   11.4142   -4.7991 H   0  0  0  0  0  0  0  0  0  0  0  0
   -2.8059    9.1331   -7.7227 H   0  0  0  0  0  0  0  0  0  0  0  0
   -2.7937   10.2065   -3.0761 H   0  0  0  0  0  0  0  0  0  0  0  0
   -3.7313   10.1419   -1.6308 H   0  0  0  0  0  0  0  0  0  0  0  0
   -4.2268   11.3902   -2.7950 H   0  0  0  0  0  0  0  0  0  0  0  0
   -7.0196    9.7062   -1.2913 H   0  0  0  0  0  0  0  0  0  0  0  0
   -5.7365    8.5982   -0.4984 H   0  0  0  0  0  0  0  0  0  0  0  0
   -5.3971   10.2815   -1.1448 H   0  0  0  0  0  0  0  0  0  0  0  0
   -8.6459    5.1090   -2.8671 H   0  0  0  0  0  0  0  0  0  0  0  0
   -7.9485    7.9438   -0.5947 H   0  0  0  0  0  0  0  0  0  0  0  0
   -8.1656    4.9620   -0.9209 H   0  0  0  0  0  0  0  0  0  0  0  0
   -8.6145    5.9390    0.5759 H   0  0  0  0  0  0  0  0  0  0  0  0
  1  2  2  0
  2  3  1  0
  3  4  1  0
  4  5  2  0
  5  6  1  0
  6  7  1  0
  6  8  2  0
  8  9  1  0
  8 10  1  0
 10 11  2  0
 11 12  1  0
 12 13  1  0
 13 14  2  0
 14 15  1  0
 15 16  2  3
 16 17  1  0
 17 18  2  0
 18 19  1  0
 19 20  1  0
 20 21  2  0
 21 22  1  0
 22 23  1  0
 22 24  2  0
 24 25  1  0
 24 26  1  0
 26 27  2  0
 27 28  1  0
 28 29  1  0
 29 30  2  0
 30 31  1  0
 31 32  2  3
 32 33  1  0
 33 34  2  0
 34 35  1  0
 35 36  2  0
 36 37  1  0
 37 38  2  0
 38 39  1  0
 39 40  2  0
 40 41  1  0
 41 42  1  0
 42 43  1  0
 40 44  1  0
 36 45  1  0
 45 46  2  0
 46 47  1  0
 47 48  1  0
 48 49  2  0
 49 50  1  0
 50 51  2  0
 51 52  1  0
 52 53  1  0
 53 54  1  0
 51 55  1  0
 47 56  2  0
 56 57  1  0
 46 58  1  0
 58 59  2  0
 59 60  1  0
 59 61  1  0
 61 62  2  0
 62 63  1  0
 63 64  2  0
 64 65  1  0
 65 66  2  0
 66 67  1  0
 67 68  2  0
 68 69  1  0
 69 70  1  0
 70 71  1  0
 68 72  1  0
 64 73  1  0
 73 74  2  0
 74 75  1  0
 75 76  1  0
 76 77  2  0
 77 78  1  0
 78 79  2  0
 79 80  1  0
 80 81  1  0
 81 82  1  0
 79 83  1  0
 75 84  2  0
 84 85  1  0
 74 86  1  0
 86 87  2  0
 87 88  1  0
 87 89  1  0
 89 90  2  0
 90 91  1  0
 91 92  1  0
 92 93  2  0
 93 94  1  0
 94 95  1  0
 94 96  2  0
 96 97  1  0
 96 98  1  0
 98 99  2  0
 99100  1  0
100101  1  0
101102  2  0
102103  1  0
103104  2  3
104105  1  0
105106  2  0
106107  1  0
107108  1  0
108109  2  0
109110  1  0
110111  1  0
110112  2  0
112113  1  0
112114  1  0
114115  2  0
115116  1  0
116117  1  0
117118  2  0
118119  1  0
119120  2  3
  5  1  1  0
 14 10  1  0
 21 17  1  0
 30 26  1  0
 57 33  1  0
 85 61  1  0
 93 89  1  0
102 98  1  0
109105  1  0
118114  1  0
 11  4  1  0
 27 20  1  0
 56 35  1  0
 84 63  1  0
 99 92  1  0
115108  1  0
 44 37  1  0
 60 45  1  0
 72 65  1  0
 88 73  1  0
 55 48  1  0
 83 76  1  0
  1121  1  0
  2122  1  0
  7123  1  0
  7124  1  0
  7125  1  0
  9126  1  0
  9127  1  0
  9128  1  0
 13129  1  0
 15130  1  0
 16131  1  0
 18132  1  0
 23133  1  0
 23134  1  0
 23135  1  0
 25136  1  0
 25137  1  0
 25138  1  0
 29139  1  0
 31140  1  0
 32141  1  0
 34142  1  0
 38143  1  0
 39144  1  0
 42145  1  0
 42146  1  0
 43147  1  0
 43148  1  0
 43149  1  0
 49150  1  0
 50151  1  0
 53152  1  0
 53153  1  0
 54154  1  0
 54155  1  0
 54156  1  0
 58157  1  0
 62158  1  0
 66159  1  0
 67160  1  0
 70161  1  0
 70162  1  0
 71163  1  0
 71164  1  0
 71165  1  0
 77166  1  0
 78167  1  0
 81168  1  0
 81169  1  0
 82170  1  0
 82171  1  0
 82172  1  0
 86173  1  0
 90174  1  0
 95175  1  0
 95176  1  0
 95177  1  0
 97178  1  0
 97179  1  0
 97180  1  0
101181  1  0
103182  1  0
104183  1  0
106184  1  0
111185  1  0
111186  1  0
111187  1  0
113188  1  0
113189  1  0
113190  1  0
117191  1  0
119192  1  0
120193  1  0
120194  1  0
M  END

