
     RDKit          3D

350379  0  0  0  0  0  0  0  0999 V2000
   11.6591   -3.9256    3.9056 C   0  0  0  0  0  0  0  0  0  0  0  0
   11.7441   -2.6070    3.5105 C   0  0  0  0  0  0  0  0  0  0  0  0
   10.5969   -1.9419    3.2489 C   0  0  0  0  0  0  0  0  0  0  0  0
   10.4439   -0.6095    2.8711 C   0  0  0  0  0  0  0  0  0  0  0  0
   11.5741    0.2931    2.5508 C   0  0  0  0  0  0  0  0  0  0  0  0
   12.8373    0.0803    2.1173 C   0  0  0  0  0  0  0  0  0  0  0  0
   13.6264    1.1528    1.8958 C   0  0  0  0  0  0  0  0  0  0  0  0
   13.1149    2.3830    2.1142 C   0  0  0  0  0  0  0  0  0  0  0  0
   13.9508    4.0225    1.9290 Si  0  0  0  0  0  4  0  0  0  0  0  0
   15.7899    3.8033    1.7158 C   0  0  0  0  0  0  0  0  0  0  0  0
   16.1005    3.4314    0.2828 C   0  0  0  0  0  0  0  0  0  0  0  0
   13.6021    5.1011    3.4350 C   0  0  0  0  0  0  0  0  0  0  0  0
   12.2069    5.6819    3.3489 C   0  0  0  0  0  0  0  0  0  0  0  0
   13.2133    4.8976    0.4585 C   0  0  0  0  0  0  0  0  0  0  0  0
   13.4398    6.3716    0.4813 C   0  0  0  0  0  0  0  0  0  0  0  0
   11.5319    2.0291    2.6260 S   0  0  0  0  0  0  0  0  0  0  0  0
    9.1549   -0.1170    2.6998 C   0  0  0  0  0  0  0  0  0  0  0  0
    7.9925   -0.8286    2.8731 C   0  0  0  0  0  0  0  0  0  0  0  0
    8.1555   -2.1502    3.2374 C   0  0  0  0  0  0  0  0  0  0  0  0
    7.0894   -3.1318    3.3668 C   0  0  0  0  0  0  0  0  0  0  0  0
    5.8260   -3.2613    2.8820 C   0  0  0  0  0  0  0  0  0  0  0  0
    5.1291   -4.3706    3.1671 C   0  0  0  0  0  0  0  0  0  0  0  0
    5.7160   -5.3200    3.9277 C   0  0  0  0  0  0  0  0  0  0  0  0
    5.0456   -6.9514    4.4604 Si  0  0  0  0  0  4  0  0  0  0  0  0
    3.2365   -6.8474    4.9251 C   0  0  0  0  0  0  0  0  0  0  0  0
    2.5173   -7.9814    4.2117 C   0  0  0  0  0  0  0  0  0  0  0  0
    5.1943   -8.1340    3.0154 C   0  0  0  0  0  0  0  0  0  0  0  0
    6.5330   -7.9463    2.3549 C   0  0  0  0  0  0  0  0  0  0  0  0
    6.0747   -7.6358    5.8510 C   0  0  0  0  0  0  0  0  0  0  0  0
    7.0194   -8.7115    5.3375 C   0  0  0  0  0  0  0  0  0  0  0  0
    7.2474   -4.6512    4.2408 S   0  0  0  0  0  0  0  0  0  0  0  0
    9.4416   -2.6356    3.4061 C   0  0  0  0  0  0  0  0  0  0  0  0
    9.9820   -4.1998    3.9061 S   0  0  0  0  0  0  0  0  0  0  0  0
    6.8373   -0.1493    2.6799 C   0  0  0  0  0  0  0  0  0  0  0  0
    6.9405    1.1680    2.3242 C   0  0  0  0  0  0  0  0  0  0  0  0
    8.5988    1.4469    2.2720 S   0  0  0  0  0  0  0  0  0  0  0  0
    5.7840    2.0659    2.0582 C   0  0  0  0  0  0  0  0  0  0  0  0
    5.7514    3.3270    1.5789 C   0  0  0  0  0  0  0  0  0  0  0  0
    4.5311    3.8834    1.3831 C   0  0  0  0  0  0  0  0  0  0  0  0
    4.2478    5.1602    0.8418 C   0  0  0  0  0  0  0  0  0  0  0  0
    5.2524    6.1642    0.7309 C   0  0  0  0  0  0  0  0  0  0  0  0
    5.6369    7.2712    0.1712 C   0  0  0  0  0  0  0  0  0  0  0  0
    6.6470    8.0599    0.5220 C   0  0  0  0  0  0  0  0  0  0  0  0
    7.4579    7.8017    1.5705 C   0  0  0  0  0  0  0  0  0  0  0  0
    8.8472    8.5667    2.3267 S   0  0  0  0  0  0  0  0  0  0  0  0
    9.2878    7.5617    3.8074 C   0  0  0  0  0  0  0  0  0  0  0  0
    8.1285    7.6567    4.8041 C   0  0  0  0  0  0  0  0  0  0  0  0
    6.6970    6.1434    2.2112 Se  0  0  0  0  0  2  0  0  0  0  0  0
    2.9314    5.5316    0.6542 C   0  0  0  0  0  0  0  0  0  0  0  0
    1.8275    4.7408    0.9696 C   0  0  0  0  0  0  0  0  0  0  0  0
    2.1000    3.4906    1.5161 C   0  0  0  0  0  0  0  0  0  0  0  0
    1.1562    2.5740    2.1483 C   0  0  0  0  0  0  0  0  0  0  0  0
   -0.0883    2.6518    2.6375 C   0  0  0  0  0  0  0  0  0  0  0  0
   -0.7394    1.6115    3.1608 C   0  0  0  0  0  0  0  0  0  0  0  0
   -0.3011    0.3888    3.2809 C   0  0  0  0  0  0  0  0  0  0  0  0
   -0.6257   -1.2102    3.8351 S   0  0  0  0  0  0  0  0  0  0  0  0
   -2.1731   -1.3511    4.6553 C   0  0  0  0  0  0  0  0  0  0  0  0
   -2.1320   -0.6301    6.0056 C   0  0  0  0  0  0  0  0  0  0  0  0
    1.5523    0.7782    2.4228 Se  0  0  0  0  0  2  0  0  0  0  0  0
    3.4521    3.1427    1.6803 C   0  0  0  0  0  0  0  0  0  0  0  0
    4.1390    1.6725    2.2364 S   0  0  0  0  0  0  0  0  0  0  0  0
    0.6432    5.2614    0.6833 C   0  0  0  0  0  0  0  0  0  0  0  0
    0.5974    6.5554    0.0906 C   0  0  0  0  0  0  0  0  0  0  0  0
    2.1681    6.9383   -0.0171 S   0  0  0  0  0  0  0  0  0  0  0  0
   -0.7631    7.0987   -0.2559 C   0  0  0  0  0  0  0  0  0  0  0  0
   -1.5525    6.4978   -1.2246 C   0  0  0  0  0  0  0  0  0  0  0  0
   -2.8614    6.8175   -1.2755 C   0  0  0  0  0  0  0  0  0  0  0  0
   -3.8809    6.1116   -1.9402 C   0  0  0  0  0  0  0  0  0  0  0  0
   -3.6300    5.1037   -2.9366 C   0  0  0  0  0  0  0  0  0  0  0  0
   -4.4585    4.4537   -3.7827 C   0  0  0  0  0  0  0  0  0  0  0  0
   -4.0294    3.4844   -4.5861 C   0  0  0  0  0  0  0  0  0  0  0  0
   -2.7710    3.0533   -4.6526 C   0  0  0  0  0  0  0  0  0  0  0  0
   -1.8529    1.8475   -5.5383 S   0  0  0  0  0  0  0  0  0  0  0  0
   -1.1238    2.4505   -7.0794 C   0  0  0  0  0  0  0  0  0  0  0  0
   -0.3897    1.2568   -7.6991 C   0  0  0  0  0  0  0  0  0  0  0  0
   -1.9773    4.2545   -3.2958 Se  0  0  0  0  0  2  0  0  0  0  0  0
   -5.2303    6.3696   -1.5988 C   0  0  0  0  0  0  0  0  0  0  0  0
   -5.6586    7.2408   -0.6879 C   0  0  0  0  0  0  0  0  0  0  0  0
   -4.6325    7.9850   -0.0458 C   0  0  0  0  0  0  0  0  0  0  0  0
   -4.9485    9.1751    0.7217 C   0  0  0  0  0  0  0  0  0  0  0  0
   -4.2718    9.9456    1.5991 C   0  0  0  0  0  0  0  0  0  0  0  0
   -4.7905   11.1097    2.0051 C   0  0  0  0  0  0  0  0  0  0  0  0
   -5.9343   11.6411    1.6525 C   0  0  0  0  0  0  0  0  0  0  0  0
   -6.8871   13.0974    1.9110 S   0  0  0  0  0  0  0  0  0  0  0  0
   -6.4418   14.3241    0.6605 C   0  0  0  0  0  0  0  0  0  0  0  0
   -6.8457   13.9147   -0.7264 C   0  0  0  0  0  0  0  0  0  0  0  0
   -6.5445   10.1807    0.3936 Se  0  0  0  0  0  2  0  0  0  0  0  0
   -3.3008    7.7400   -0.3537 C   0  0  0  0  0  0  0  0  0  0  0  0
   -1.8493    8.1131    0.5370 S   0  0  0  0  0  0  0  0  0  0  0  0
   -6.9382    7.0333   -0.1383 C   0  0  0  0  0  0  0  0  0  0  0  0
   -7.6103    5.9871   -0.5429 C   0  0  0  0  0  0  0  0  0  0  0  0
   -6.5638    5.2602   -1.7446 S   0  0  0  0  0  0  0  0  0  0  0  0
   -8.4787    4.9659    0.3273 C   0  0  0  0  0  0  0  0  0  0  0  0
   -7.9061    4.6617    1.5695 C   0  0  0  0  0  0  0  0  0  0  0  0
   -8.0700    3.3773    2.0229 C   0  0  0  0  0  0  0  0  0  0  0  0
   -7.1131    2.7451    2.9201 C   0  0  0  0  0  0  0  0  0  0  0  0
   -6.3190    3.5671    3.7978 C   0  0  0  0  0  0  0  0  0  0  0  0
   -5.2993    3.2142    4.6511 C   0  0  0  0  0  0  0  0  0  0  0  0
   -4.6808    4.1809    5.3220 C   0  0  0  0  0  0  0  0  0  0  0  0
   -5.0782    5.4608    5.1423 C   0  0  0  0  0  0  0  0  0  0  0  0
   -4.4007    7.0392    5.8657 Si  0  0  0  0  0  4  0  0  0  0  0  0
   -3.1328    7.7572    4.6927 C   0  0  0  0  0  0  0  0  0  0  0  0
   -1.7906    7.9716    5.3470 C   0  0  0  0  0  0  0  0  0  0  0  0
   -3.5374    6.6256    7.4657 C   0  0  0  0  0  0  0  0  0  0  0  0
   -3.0561    7.8815    8.1654 C   0  0  0  0  0  0  0  0  0  0  0  0
   -5.7753    8.2533    6.0974 C   0  0  0  0  0  0  0  0  0  0  0  0
   -6.1013    8.8854    4.7453 C   0  0  0  0  0  0  0  0  0  0  0  0
   -6.3426    5.2868    4.0089 S   0  0  0  0  0  0  0  0  0  0  0  0
   -7.0108    1.3868    2.8811 C   0  0  0  0  0  0  0  0  0  0  0  0
   -7.6973    0.5087    2.1261 C   0  0  0  0  0  0  0  0  0  0  0  0
   -8.6822    1.1264    1.2563 C   0  0  0  0  0  0  0  0  0  0  0  0
   -9.5599    0.4041    0.3763 C   0  0  0  0  0  0  0  0  0  0  0  0
   -9.5141   -0.7446   -0.3254 C   0  0  0  0  0  0  0  0  0  0  0  0
  -10.5732   -1.1015   -1.0889 C   0  0  0  0  0  0  0  0  0  0  0  0
  -11.6448   -0.2574   -1.1006 C   0  0  0  0  0  0  0  0  0  0  0  0
  -13.2583   -0.4924   -1.9542 Si  0  0  0  0  0  4  0  0  0  0  0  0
  -13.4828   -2.2857   -2.4803 C   0  0  0  0  0  0  0  0  0  0  0  0
  -13.7889   -3.1724   -1.3036 C   0  0  0  0  0  0  0  0  0  0  0  0
  -13.4888    0.6592   -3.3923 C   0  0  0  0  0  0  0  0  0  0  0  0
  -14.6678    1.5928   -3.0947 C   0  0  0  0  0  0  0  0  0  0  0  0
  -14.6509   -0.1806   -0.7239 C   0  0  0  0  0  0  0  0  0  0  0  0
  -14.0604   -0.3445    0.6573 C   0  0  0  0  0  0  0  0  0  0  0  0
  -11.1437    0.9877   -0.0697 S   0  0  0  0  0  0  0  0  0  0  0  0
   -8.7807    2.5227    1.2688 C   0  0  0  0  0  0  0  0  0  0  0  0
   -9.2335    3.5686   -0.1253 S   0  0  0  0  0  0  0  0  0  0  0  0
   -7.1981   -0.7285    1.9396 C   0  0  0  0  0  0  0  0  0  0  0  0
   -5.9653   -1.0220    2.5295 C   0  0  0  0  0  0  0  0  0  0  0  0
   -5.6015    0.4038    3.3352 S   0  0  0  0  0  0  0  0  0  0  0  0
   -5.0622   -2.1151    2.0751 C   0  0  0  0  0  0  0  0  0  0  0  0
   -4.9923   -3.3927    1.8346 C   0  0  0  0  0  0  0  0  0  0  0  0
   -3.9243   -3.8898    1.1258 C   0  0  0  0  0  0  0  0  0  0  0  0
   -3.7413   -5.1955    0.6512 C   0  0  0  0  0  0  0  0  0  0  0  0
   -4.6373   -6.2930    0.9313 C   0  0  0  0  0  0  0  0  0  0  0  0
   -5.8810   -6.5273    1.3406 C   0  0  0  0  0  0  0  0  0  0  0  0
   -6.2889   -7.8031    1.6589 C   0  0  0  0  0  0  0  0  0  0  0  0
   -5.5570   -8.8845    1.6035 C   0  0  0  0  0  0  0  0  0  0  0  0
   -5.8039  -10.6051    1.9734 S   0  0  0  0  0  0  0  0  0  0  0  0
   -5.3451  -10.9496    3.7133 C   0  0  0  0  0  0  0  0  0  0  0  0
   -6.2414  -10.2322    4.6976 C   0  0  0  0  0  0  0  0  0  0  0  0
   -3.8577   -8.1408    0.9776 Se  0  0  0  0  0  2  0  0  0  0  0  0
   -2.6531   -5.4832   -0.1832 C   0  0  0  0  0  0  0  0  0  0  0  0
   -1.7115   -4.5930   -0.5927 C   0  0  0  0  0  0  0  0  0  0  0  0
   -1.8941   -3.3002   -0.1159 C   0  0  0  0  0  0  0  0  0  0  0  0
   -1.1414   -2.1387   -0.5998 C   0  0  0  0  0  0  0  0  0  0  0  0
   -0.9814   -0.8838   -0.1236 C   0  0  0  0  0  0  0  0  0  0  0  0
   -0.3690    0.0539   -0.8338 C   0  0  0  0  0  0  0  0  0  0  0  0
    0.1461   -0.1049   -2.0514 C   0  0  0  0  0  0  0  0  0  0  0  0
    0.9412    0.8223   -3.3000 S   0  0  0  0  0  0  0  0  0  0  0  0
    2.7177    0.8971   -3.2258 C   0  0  0  0  0  0  0  0  0  0  0  0
    3.2114    1.6678   -2.0258 C   0  0  0  0  0  0  0  0  0  0  0  0
   -0.3190   -2.0271   -2.2877 Se  0  0  0  0  0  2  0  0  0  0  0  0
   -2.9805   -3.0012    0.7207 C   0  0  0  0  0  0  0  0  0  0  0  0
   -3.5641   -1.5231    1.3158 S   0  0  0  0  0  0  0  0  0  0  0  0
   -0.8087   -5.0180   -1.5012 C   0  0  0  0  0  0  0  0  0  0  0  0
   -0.9075   -6.2863   -1.9582 C   0  0  0  0  0  0  0  0  0  0  0  0
   -2.2505   -6.8984   -1.0986 S   0  0  0  0  0  0  0  0  0  0  0  0
   -0.1508   -6.9587   -3.0150 C   0  0  0  0  0  0  0  0  0  0  0  0
    1.1087   -7.1097   -3.4009 C   0  0  0  0  0  0  0  0  0  0  0  0
    1.3734   -7.8419   -4.5175 C   0  0  0  0  0  0  0  0  0  0  0  0
    2.5974   -8.1692   -5.1142 C   0  0  0  0  0  0  0  0  0  0  0  0
    3.8868   -7.6467   -4.6761 C   0  0  0  0  0  0  0  0  0  0  0  0
    5.1317   -8.0992   -5.0220 C   0  0  0  0  0  0  0  0  0  0  0  0
    6.1988   -7.4714   -4.4939 C   0  0  0  0  0  0  0  0  0  0  0  0
    5.9844   -6.4334   -3.6476 C   0  0  0  0  0  0  0  0  0  0  0  0
    7.2581   -5.3843   -2.7939 Si  0  0  0  0  0  4  0  0  0  0  0  0
    7.0317   -3.6200   -3.2668 C   0  0  0  0  0  0  0  0  0  0  0  0
    8.2154   -2.7737   -2.8041 C   0  0  0  0  0  0  0  0  0  0  0  0
    8.9407   -5.9332   -3.3179 C   0  0  0  0  0  0  0  0  0  0  0  0
    9.4779   -5.2717   -4.5323 C   0  0  0  0  0  0  0  0  0  0  0  0
    7.0998   -5.5645   -0.9415 C   0  0  0  0  0  0  0  0  0  0  0  0
    5.8398   -4.8459   -0.5320 C   0  0  0  0  0  0  0  0  0  0  0  0
    4.2738   -6.3601   -3.6126 S   0  0  0  0  0  0  0  0  0  0  0  0
    2.6178   -8.9643   -6.2610 C   0  0  0  0  0  0  0  0  0  0  0  0
    1.5078   -9.4704   -6.8890 C   0  0  0  0  0  0  0  0  0  0  0  0
    0.2990   -9.1528   -6.3139 C   0  0  0  0  0  0  0  0  0  0  0  0
   -1.0428   -9.5071   -6.8044 C   0  0  0  0  0  0  0  0  0  0  0  0
   -1.5826  -10.5035   -7.5282 C   0  0  0  0  0  0  0  0  0  0  0  0
   -2.9073  -10.4704   -7.7929 C   0  0  0  0  0  0  0  0  0  0  0  0
   -3.6332   -9.4317   -7.3144 C   0  0  0  0  0  0  0  0  0  0  0  0
   -5.4052   -8.9408   -7.4912 Si  0  0  0  0  0  4  0  0  0  0  0  0
   -6.2706   -9.0532   -5.8697 C   0  0  0  0  0  0  0  0  0  0  0  0
   -6.7203   -7.6744   -5.3702 C   0  0  0  0  0  0  0  0  0  0  0  0
   -5.5494   -7.1547   -8.0808 C   0  0  0  0  0  0  0  0  0  0  0  0
   -4.2053   -6.4812   -7.8278 C   0  0  0  0  0  0  0  0  0  0  0  0
   -6.2151  -10.0148   -8.7818 C   0  0  0  0  0  0  0  0  0  0  0  0
   -7.0506   -9.1064   -9.6853 C   0  0  0  0  0  0  0  0  0  0  0  0
   -2.4743   -8.5122   -6.4982 S   0  0  0  0  0  0  0  0  0  0  0  0
    0.2887   -8.3635   -5.1575 C   0  0  0  0  0  0  0  0  0  0  0  0
   -1.0306   -7.8502   -4.2198 S   0  0  0  0  0  0  0  0  0  0  0  0
    1.7188  -10.1894   -8.0174 C   0  0  0  0  0  0  0  0  0  0  0  0
    3.0044  -10.3581   -8.4408 C   0  0  0  0  0  0  0  0  0  0  0  0
    3.8812   -9.5174   -7.2737 S   0  0  0  0  0  0  0  0  0  0  0  0
   12.5094   -4.5912    4.1373 H   0  0  0  0  0  0  0  0  0  0  0  0
   12.7707   -2.1927    3.4710 H   0  0  0  0  0  0  0  0  0  0  0  0
   13.2144   -0.9463    1.9127 H   0  0  0  0  0  0  0  0  0  0  0  0
   14.6777    1.0426    1.5258 H   0  0  0  0  0  0  0  0  0  0  0  0
   16.0946    2.9036    2.3154 H   0  0  0  0  0  0  0  0  0  0  0  0
   16.2665    4.7267    2.0217 H   0  0  0  0  0  0  0  0  0  0  0  0
   17.0326    2.8453    0.2181 H   0  0  0  0  0  0  0  0  0  0  0  0
   15.3223    2.7935   -0.1710 H   0  0  0  0  0  0  0  0  0  0  0  0
   16.1299    4.3803   -0.3370 H   0  0  0  0  0  0  0  0  0  0  0  0
   13.6471    4.5002    4.3475 H   0  0  0  0  0  0  0  0  0  0  0  0
   14.3101    5.9348    3.4882 H   0  0  0  0  0  0  0  0  0  0  0  0
   11.6705    5.4012    2.4294 H   0  0  0  0  0  0  0  0  0  0  0  0
   11.5734    5.3872    4.2099 H   0  0  0  0  0  0  0  0  0  0  0  0
   12.2585    6.7868    3.3617 H   0  0  0  0  0  0  0  0  0  0  0  0
   13.5615    4.4466   -0.5275 H   0  0  0  0  0  0  0  0  0  0  0  0
   12.1164    4.7259    0.4839 H   0  0  0  0  0  0  0  0  0  0  0  0
   13.6348    6.7328   -0.5599 H   0  0  0  0  0  0  0  0  0  0  0  0
   12.5107    6.9318    0.7896 H   0  0  0  0  0  0  0  0  0  0  0  0
   14.2941    6.6988    1.0812 H   0  0  0  0  0  0  0  0  0  0  0  0
    5.3769   -2.4805    2.2266 H   0  0  0  0  0  0  0  0  0  0  0  0
    4.0750   -4.5192    2.8004 H   0  0  0  0  0  0  0  0  0  0  0  0
    2.8363   -5.9178    4.5394 H   0  0  0  0  0  0  0  0  0  0  0  0
    3.1032   -6.9690    6.0174 H   0  0  0  0  0  0  0  0  0  0  0  0
    1.5689   -8.3009    4.7104 H   0  0  0  0  0  0  0  0  0  0  0  0
    3.1498   -8.8946    4.1436 H   0  0  0  0  0  0  0  0  0  0  0  0
    2.2734   -7.7061    3.1632 H   0  0  0  0  0  0  0  0  0  0  0  0
    4.9954   -9.1755    3.3094 H   0  0  0  0  0  0  0  0  0  0  0  0
    4.4039   -7.8462    2.2996 H   0  0  0  0  0  0  0  0  0  0  0  0
    7.0481   -8.9242    2.1682 H   0  0  0  0  0  0  0  0  0  0  0  0
    7.1912   -7.2336    2.8823 H   0  0  0  0  0  0  0  0  0  0  0  0
    6.3867   -7.5156    1.3319 H   0  0  0  0  0  0  0  0  0  0  0  0
    5.4183   -8.1284    6.6084 H   0  0  0  0  0  0  0  0  0  0  0  0
    6.6781   -6.8512    6.3617 H   0  0  0  0  0  0  0  0  0  0  0  0
    6.5946   -9.3096    4.5234 H   0  0  0  0  0  0  0  0  0  0  0  0
    7.9558   -8.2651    4.9896 H   0  0  0  0  0  0  0  0  0  0  0  0
    7.2579   -9.4370    6.1505 H   0  0  0  0  0  0  0  0  0  0  0  0
    5.8231   -0.5573    2.8135 H   0  0  0  0  0  0  0  0  0  0  0  0
    6.7181    3.8280    1.3625 H   0  0  0  0  0  0  0  0  0  0  0  0
    5.0160    7.6058   -0.7573 H   0  0  0  0  0  0  0  0  0  0  0  0
    6.8964    9.0274   -0.0419 H   0  0  0  0  0  0  0  0  0  0  0  0
    9.3771    6.5030    3.5544 H   0  0  0  0  0  0  0  0  0  0  0  0
   10.2039    7.9147    4.2951 H   0  0  0  0  0  0  0  0  0  0  0  0
    8.5138    7.4828    5.8025 H   0  0  0  0  0  0  0  0  0  0  0  0
    7.6429    8.6248    4.7734 H   0  0  0  0  0  0  0  0  0  0  0  0
    7.3663    6.8602    4.5998 H   0  0  0  0  0  0  0  0  0  0  0  0
   -0.5841    3.6860    2.6294 H   0  0  0  0  0  0  0  0  0  0  0  0
   -1.8181    1.8103    3.5608 H   0  0  0  0  0  0  0  0  0  0  0  0
   -2.4743   -2.4094    4.8870 H   0  0  0  0  0  0  0  0  0  0  0  0
   -3.0268   -0.8346    4.1354 H   0  0  0  0  0  0  0  0  0  0  0  0
   -2.3898    0.4302    5.8860 H   0  0  0  0  0  0  0  0  0  0  0  0
   -2.7975   -1.1492    6.7354 H   0  0  0  0  0  0  0  0  0  0  0  0
   -1.0701   -0.7024    6.3200 H   0  0  0  0  0  0  0  0  0  0  0  0
   -0.3486    4.7913    0.8244 H   0  0  0  0  0  0  0  0  0  0  0  0
   -1.0477    5.8126   -1.9052 H   0  0  0  0  0  0  0  0  0  0  0  0
   -5.5503    4.7722   -3.7992 H   0  0  0  0  0  0  0  0  0  0  0  0
   -4.7807    2.9717   -5.2899 H   0  0  0  0  0  0  0  0  0  0  0  0
   -1.9456    2.7672   -7.7487 H   0  0  0  0  0  0  0  0  0  0  0  0
   -0.3574    3.2092   -6.8781 H   0  0  0  0  0  0  0  0  0  0  0  0
    0.1598    0.7298   -6.8825 H   0  0  0  0  0  0  0  0  0  0  0  0
    0.3067    1.5649   -8.5002 H   0  0  0  0  0  0  0  0  0  0  0  0
   -1.1595    0.5377   -8.0741 H   0  0  0  0  0  0  0  0  0  0  0  0
   -3.2666    9.5472    1.9797 H   0  0  0  0  0  0  0  0  0  0  0  0
   -4.1485   11.7048    2.7671 H   0  0  0  0  0  0  0  0  0  0  0  0
   -5.3146   14.3325    0.6476 H   0  0  0  0  0  0  0  0  0  0  0  0
   -6.7939   15.3579    0.9212 H   0  0  0  0  0  0  0  0  0  0  0  0
   -7.4552   12.9694   -0.7143 H   0  0  0  0  0  0  0  0  0  0  0  0
   -5.9781   13.6873   -1.3897 H   0  0  0  0  0  0  0  0  0  0  0  0
   -7.4777   14.6476   -1.2725 H   0  0  0  0  0  0  0  0  0  0  0  0
   -7.3560    7.7239    0.6129 H   0  0  0  0  0  0  0  0  0  0  0  0
   -7.4107    5.4512    2.1054 H   0  0  0  0  0  0  0  0  0  0  0  0
   -5.0116    2.1429    4.7674 H   0  0  0  0  0  0  0  0  0  0  0  0
   -3.8350    3.9756    6.0368 H   0  0  0  0  0  0  0  0  0  0  0  0
   -3.0163    7.0984    3.8426 H   0  0  0  0  0  0  0  0  0  0  0  0
   -3.4684    8.7527    4.3227 H   0  0  0  0  0  0  0  0  0  0  0  0
   -1.4415    7.1172    5.9666 H   0  0  0  0  0  0  0  0  0  0  0  0
   -1.7190    8.9210    5.9225 H   0  0  0  0  0  0  0  0  0  0  0  0
   -0.9974    8.0592    4.5378 H   0  0  0  0  0  0  0  0  0  0  0  0
   -4.1957    6.0249    8.1065 H   0  0  0  0  0  0  0  0  0  0  0  0
   -2.6840    5.9560    7.1861 H   0  0  0  0  0  0  0  0  0  0  0  0
   -3.3306    7.7832    9.2432 H   0  0  0  0  0  0  0  0  0  0  0  0
   -3.6062    8.7160    7.7449 H   0  0  0  0  0  0  0  0  0  0  0  0
   -1.9630    7.9904    8.1427 H   0  0  0  0  0  0  0  0  0  0  0  0
   -6.6514    7.8260    6.5951 H   0  0  0  0  0  0  0  0  0  0  0  0
   -5.3790    9.0837    6.7200 H   0  0  0  0  0  0  0  0  0  0  0  0
   -7.1349    9.2513    4.7895 H   0  0  0  0  0  0  0  0  0  0  0  0
   -6.0572    8.1149    3.9508 H   0  0  0  0  0  0  0  0  0  0  0  0
   -5.3745    9.6836    4.4622 H   0  0  0  0  0  0  0  0  0  0  0  0
   -8.6119   -1.3918   -0.3291 H   0  0  0  0  0  0  0  0  0  0  0  0
  -10.6179   -2.0300   -1.7073 H   0  0  0  0  0  0  0  0  0  0  0  0
  -12.6087   -2.6676   -3.0335 H   0  0  0  0  0  0  0  0  0  0  0  0
  -14.3804   -2.2894   -3.1281 H   0  0  0  0  0  0  0  0  0  0  0  0
  -13.2746   -2.8989   -0.3649 H   0  0  0  0  0  0  0  0  0  0  0  0
  -14.8826   -3.1864   -1.1133 H   0  0  0  0  0  0  0  0  0  0  0  0
  -13.5391   -4.2352   -1.6275 H   0  0  0  0  0  0  0  0  0  0  0  0
  -12.5800    1.2008   -3.6451 H   0  0  0  0  0  0  0  0  0  0  0  0
  -13.8719    0.0094   -4.2389 H   0  0  0  0  0  0  0  0  0  0  0  0
  -15.5563    0.9448   -2.7574 H   0  0  0  0  0  0  0  0  0  0  0  0
  -14.4329    2.2511   -2.2337 H   0  0  0  0  0  0  0  0  0  0  0  0
  -14.9700    2.1925   -3.9620 H   0  0  0  0  0  0  0  0  0  0  0  0
  -15.0251    0.8674   -0.7802 H   0  0  0  0  0  0  0  0  0  0  0  0
  -15.4572   -0.9444   -0.8415 H   0  0  0  0  0  0  0  0  0  0  0  0
  -13.0017   -0.6721    0.6084 H   0  0  0  0  0  0  0  0  0  0  0  0
  -14.0502    0.6356    1.2080 H   0  0  0  0  0  0  0  0  0  0  0  0
  -14.6900   -0.9992    1.2996 H   0  0  0  0  0  0  0  0  0  0  0  0
   -7.6788   -1.5414    1.4077 H   0  0  0  0  0  0  0  0  0  0  0  0
   -5.7861   -4.0758    2.2175 H   0  0  0  0  0  0  0  0  0  0  0  0
   -6.6205   -5.6956    1.3827 H   0  0  0  0  0  0  0  0  0  0  0  0
   -7.3831   -7.9408    1.9880 H   0  0  0  0  0  0  0  0  0  0  0  0
   -4.3202  -10.5337    3.8370 H   0  0  0  0  0  0  0  0  0  0  0  0
   -5.3801  -12.0509    3.8374 H   0  0  0  0  0  0  0  0  0  0  0  0
   -7.2902  -10.1735    4.3303 H   0  0  0  0  0  0  0  0  0  0  0  0
   -5.9025   -9.2030    4.9095 H   0  0  0  0  0  0  0  0  0  0  0  0
   -6.2760  -10.7661    5.6598 H   0  0  0  0  0  0  0  0  0  0  0  0
   -1.4012   -0.6943    0.9258 H   0  0  0  0  0  0  0  0  0  0  0  0
   -0.2909    1.0969   -0.3648 H   0  0  0  0  0  0  0  0  0  0  0  0
    3.2151   -0.1010   -3.3305 H   0  0  0  0  0  0  0  0  0  0  0  0
    3.0654    1.4647   -4.1470 H   0  0  0  0  0  0  0  0  0  0  0  0
    3.9675    2.4356   -2.3531 H   0  0  0  0  0  0  0  0  0  0  0  0
    3.7811    0.9976   -1.3099 H   0  0  0  0  0  0  0  0  0  0  0  0
    2.4165    2.2303   -1.4975 H   0  0  0  0  0  0  0  0  0  0  0  0
    0.0401   -4.3949   -1.8908 H   0  0  0  0  0  0  0  0  0  0  0  0
    1.9414   -6.6468   -2.7994 H   0  0  0  0  0  0  0  0  0  0  0  0
    5.2702   -8.9821   -5.6792 H   0  0  0  0  0  0  0  0  0  0  0  0
    7.2464   -7.7772   -4.7353 H   0  0  0  0  0  0  0  0  0  0  0  0
    6.0762   -3.2366   -2.8090 H   0  0  0  0  0  0  0  0  0  0  0  0
    6.9438   -3.5206   -4.3495 H   0  0  0  0  0  0  0  0  0  0  0  0
    7.7988   -2.0127   -2.0910 H   0  0  0  0  0  0  0  0  0  0  0  0
    8.6982   -2.2232   -3.6300 H   0  0  0  0  0  0  0  0  0  0  0  0
    8.9272   -3.3705   -2.2234 H   0  0  0  0  0  0  0  0  0  0  0  0
    8.9521   -7.0493   -3.4668 H   0  0  0  0  0  0  0  0  0  0  0  0
    9.6953   -5.7646   -2.4961 H   0  0  0  0  0  0  0  0  0  0  0  0
    9.9040   -6.0673   -5.2138 H   0  0  0  0  0  0  0  0  0  0  0  0
    8.6858   -4.8048   -5.1619 H   0  0  0  0  0  0  0  0  0  0  0  0
   10.3383   -4.5804   -4.3484 H   0  0  0  0  0  0  0  0  0  0  0  0
    7.0598   -6.6442   -0.7045 H   0  0  0  0  0  0  0  0  0  0  0  0
    8.0007   -5.1234   -0.4720 H   0  0  0  0  0  0  0  0  0  0  0  0
    5.0499   -4.9567   -1.3152 H   0  0  0  0  0  0  0  0  0  0  0  0
    5.4433   -5.1785    0.4320 H   0  0  0  0  0  0  0  0  0  0  0  0
    6.0592   -3.7704   -0.4404 H   0  0  0  0  0  0  0  0  0  0  0  0
   -0.9654  -11.3716   -7.8939 H   0  0  0  0  0  0  0  0  0  0  0  0
   -3.4321  -11.2601   -8.3772 H   0  0  0  0  0  0  0  0  0  0  0  0
   -5.6449   -9.4886   -5.0636 H   0  0  0  0  0  0  0  0  0  0  0  0
   -7.1949   -9.6937   -5.9108 H   0  0  0  0  0  0  0  0  0  0  0  0
   -7.1036   -7.8514   -4.3318 H   0  0  0  0  0  0  0  0  0  0  0  0
   -5.8805   -6.9911   -5.2764 H   0  0  0  0  0  0  0  0  0  0  0  0
   -7.4861   -7.2291   -5.9945 H   0  0  0  0  0  0  0  0  0  0  0  0
   -5.6829   -7.1176   -9.1722 H   0  0  0  0  0  0  0  0  0  0  0  0
   -6.3148   -6.5931   -7.5442 H   0  0  0  0  0  0  0  0  0  0  0  0
   -4.3406   -5.4256   -8.2102 H   0  0  0  0  0  0  0  0  0  0  0  0
   -3.9826   -6.3685   -6.7467 H   0  0  0  0  0  0  0  0  0  0  0  0
   -3.3594   -6.9632   -8.3283 H   0  0  0  0  0  0  0  0  0  0  0  0
   -5.4299  -10.4463   -9.4201 H   0  0  0  0  0  0  0  0  0  0  0  0
   -6.8896  -10.7433   -8.3414 H   0  0  0  0  0  0  0  0  0  0  0  0
   -7.8659   -9.6669  -10.1995 H   0  0  0  0  0  0  0  0  0  0  0  0
   -7.5230   -8.2991   -9.0626 H   0  0  0  0  0  0  0  0  0  0  0  0
   -6.3610   -8.6350  -10.3961 H   0  0  0  0  0  0  0  0  0  0  0  0
    0.9095  -10.6203   -8.6502 H   0  0  0  0  0  0  0  0  0  0  0  0
    3.3223  -10.9326   -9.3363 H   0  0  0  0  0  0  0  0  0  0  0  0
  1  2  2  0
  2  3  1  0
  3  4  2  0
  4  5  1  0
  5  6  2  0
  6  7  1  0
  7  8  2  0
  8  9  1  0
  9 10  1  0
 10 11  1  0
  9 12  1  0
 12 13  1  0
  9 14  1  0
 14 15  1  0
  8 16  1  0
  4 17  1  0
 17 18  2  0
 18 19  1  0
 19 20  1  0
 20 21  2  0
 21 22  1  0
 22 23  2  0
 23 24  1  0
 24 25  1  0
 25 26  1  0
 24 27  1  0
 27 28  1  0
 24 29  1  0
 29 30  1  0
 23 31  1  0
 19 32  2  0
 32 33  1  0
 18 34  1  0
 34 35  2  0
 35 36  1  0
 35 37  1  0
 37 38  2  0
 38 39  1  0
 39 40  2  0
 40 41  1  0
 41 42  2  0
 42 43  1  0
 43 44  2  0
 44 45  1  0
 45 46  1  0
 46 47  1  0
 44 48  1  0
 40 49  1  0
 49 50  2  0
 50 51  1  0
 51 52  1  0
 52 53  2  0
 53 54  1  0
 54 55  2  0
 55 56  1  0
 56 57  1  0
 57 58  1  0
 55 59  1  0
 51 60  2  0
 60 61  1  0
 50 62  1  0
 62 63  2  0
 63 64  1  0
 63 65  1  0
 65 66  2  0
 66 67  1  0
 67 68  2  0
 68 69  1  0
 69 70  2  0
 70 71  1  0
 71 72  2  0
 72 73  1  0
 73 74  1  0
 74 75  1  0
 72 76  1  0
 68 77  1  0
 77 78  2  0
 78 79  1  0
 79 80  1  0
 80 81  2  0
 81 82  1  0
 82 83  2  0
 83 84  1  0
 84 85  1  0
 85 86  1  0
 83 87  1  0
 79 88  2  0
 88 89  1  0
 78 90  1  0
 90 91  2  0
 91 92  1  0
 91 93  1  0
 93 94  2  0
 94 95  1  0
 95 96  2  0
 96 97  1  0
 97 98  2  0
 98 99  1  0
 99100  2  0
100101  1  0
101102  1  0
102103  1  0
101104  1  0
104105  1  0
101106  1  0
106107  1  0
100108  1  0
 96109  1  0
109110  2  0
110111  1  0
111112  1  0
112113  2  0
113114  1  0
114115  2  0
115116  1  0
116117  1  0
117118  1  0
116119  1  0
119120  1  0
116121  1  0
121122  1  0
115123  1  0
111124  2  0
124125  1  0
110126  1  0
126127  2  0
127128  1  0
127129  1  0
129130  2  0
130131  1  0
131132  2  0
132133  1  0
133134  2  0
134135  1  0
135136  2  0
136137  1  0
137138  1  0
138139  1  0
136140  1  0
132141  1  0
141142  2  0
142143  1  0
143144  1  0
144145  2  0
145146  1  0
146147  2  0
147148  1  0
148149  1  0
149150  1  0
147151  1  0
143152  2  0
152153  1  0
142154  1  0
154155  2  0
155156  1  0
155157  1  0
157158  2  0
158159  1  0
159160  2  0
160161  1  0
161162  2  0
162163  1  0
163164  2  0
164165  1  0
165166  1  0
166167  1  0
165168  1  0
168169  1  0
165170  1  0
170171  1  0
164172  1  0
160173  1  0
173174  2  0
174175  1  0
175176  1  0
176177  2  0
177178  1  0
178179  2  0
179180  1  0
180181  1  0
181182  1  0
180183  1  0
183184  1  0
180185  1  0
185186  1  0
179187  1  0
175188  2  0
188189  1  0
174190  1  0
190191  2  0
191192  1  0
 33  1  1  0
 61 37  1  0
 89 65  1  0
125 93  1  0
153129  1  0
189157  1  0
 32  3  1  0
 60 39  1  0
 88 67  1  0
124 95  1  0
152131  1  0
188159  1  0
 16  5  1  0
 36 17  1  0
 48 41  1  0
 64 49  1  0
 76 69  1  0
 92 77  1  0
108 97  1  0
128109  1  0
140133  1  0
156141  1  0
172161  1  0
192173  1  0
 31 20  1  0
 59 52  1  0
 87 80  1  0
123112  1  0
151144  1  0
187176  1  0
  1193  1  0
  2194  1  0
  6195  1  0
  7196  1  0
 10197  1  0
 10198  1  0
 11199  1  0
 11200  1  0
 11201  1  0
 12202  1  0
 12203  1  0
 13204  1  0
 13205  1  0
 13206  1  0
 14207  1  0
 14208  1  0
 15209  1  0
 15210  1  0
 15211  1  0
 21212  1  0
 22213  1  0
 25214  1  0
 25215  1  0
 26216  1  0
 26217  1  0
 26218  1  0
 27219  1  0
 27220  1  0
 28221  1  0
 28222  1  0
 28223  1  0
 29224  1  0
 29225  1  0
 30226  1  0
 30227  1  0
 30228  1  0
 34229  1  0
 38230  1  0
 42231  1  0
 43232  1  0
 46233  1  0
 46234  1  0
 47235  1  0
 47236  1  0
 47237  1  0
 53238  1  0
 54239  1  0
 57240  1  0
 57241  1  0
 58242  1  0
 58243  1  0
 58244  1  0
 62245  1  0
 66246  1  0
 70247  1  0
 71248  1  0
 74249  1  0
 74250  1  0
 75251  1  0
 75252  1  0
 75253  1  0
 81254  1  0
 82255  1  0
 85256  1  0
 85257  1  0
 86258  1  0
 86259  1  0
 86260  1  0
 90261  1  0
 94262  1  0
 98263  1  0
 99264  1  0
102265  1  0
102266  1  0
103267  1  0
103268  1  0
103269  1  0
104270  1  0
104271  1  0
105272  1  0
105273  1  0
105274  1  0
106275  1  0
106276  1  0
107277  1  0
107278  1  0
107279  1  0
113280  1  0
114281  1  0
117282  1  0
117283  1  0
118284  1  0
118285  1  0
118286  1  0
119287  1  0
119288  1  0
120289  1  0
120290  1  0
120291  1  0
121292  1  0
121293  1  0
122294  1  0
122295  1  0
122296  1  0
126297  1  0
130298  1  0
134299  1  0
135300  1  0
138301  1  0
138302  1  0
139303  1  0
139304  1  0
139305  1  0
145306  1  0
146307  1  0
149308  1  0
149309  1  0
150310  1  0
150311  1  0
150312  1  0
154313  1  0
158314  1  0
162315  1  0
163316  1  0
166317  1  0
166318  1  0
167319  1  0
167320  1  0
167321  1  0
168322  1  0
168323  1  0
169324  1  0
169325  1  0
169326  1  0
170327  1  0
170328  1  0
171329  1  0
171330  1  0
171331  1  0
177332  1  0
178333  1  0
181334  1  0
181335  1  0
182336  1  0
182337  1  0
182338  1  0
183339  1  0
183340  1  0
184341  1  0
184342  1  0
184343  1  0
185344  1  0
185345  1  0
186346  1  0
186347  1  0
186348  1  0
190349  1  0
191350  1  0
M  END

