
     RDKit          3D

278307  0  0  0  0  0  0  0  0999 V2000
   -7.2418    4.6028    7.9917 C   0  0  0  0  0  0  0  0  0  0  0  0
   -7.5618    4.1869    6.7235 C   0  0  0  0  0  0  0  0  0  0  0  0
   -6.9552    3.0489    6.2734 C   0  0  0  0  0  0  0  0  0  0  0  0
   -7.1141    2.4315    4.9990 C   0  0  0  0  0  0  0  0  0  0  0  0
   -8.0320    3.0250    4.0813 C   0  0  0  0  0  0  0  0  0  0  0  0
   -7.6333    4.1782    3.3994 C   0  0  0  0  0  0  0  0  0  0  0  0
   -8.5432    4.7789    2.5861 C   0  0  0  0  0  0  0  0  0  0  0  0
   -9.8213    4.3588    2.3638 C   0  0  0  0  0  0  0  0  0  0  0  0
  -10.9374    5.2804    1.3465 S   0  0  0  0  0  0  0  0  0  0  0  0
  -12.5304    4.5214    1.0949 C   0  0  0  0  0  0  0  0  0  0  0  0
  -12.4422    3.2776    0.2163 C   0  0  0  0  0  0  0  0  0  0  0  0
  -10.2113    3.1795    3.0655 C   0  0  0  0  0  0  0  0  0  0  0  0
  -11.4613    2.7648    2.8584 F   0  0  0  0  0  0  0  0  0  0  0  0
   -9.2936    2.5654    3.8944 C   0  0  0  0  0  0  0  0  0  0  0  0
   -6.4174    1.2924    4.6945 C   0  0  0  0  0  0  0  0  0  0  0  0
   -5.5561    0.6747    5.5483 C   0  0  0  0  0  0  0  0  0  0  0  0
   -5.3894    1.2902    6.8131 C   0  0  0  0  0  0  0  0  0  0  0  0
   -4.4031    0.8026    7.7568 C   0  0  0  0  0  0  0  0  0  0  0  0
   -4.5166   -0.2741    8.5856 C   0  0  0  0  0  0  0  0  0  0  0  0
   -3.4900   -0.6796    9.4156 C   0  0  0  0  0  0  0  0  0  0  0  0
   -2.2703    0.0062    9.4399 C   0  0  0  0  0  0  0  0  0  0  0  0
   -0.9683   -0.5629   10.4946 S   0  0  0  0  0  0  0  0  0  0  0  0
    0.5668    0.3550   10.3430 C   0  0  0  0  0  0  0  0  0  0  0  0
    1.3158    0.1707    9.0639 C   0  0  0  0  0  0  0  0  0  0  0  0
   -2.1594    1.0864    8.6164 C   0  0  0  0  0  0  0  0  0  0  0  0
   -3.1773    1.4766    7.8023 C   0  0  0  0  0  0  0  0  0  0  0  0
   -0.9733    1.7655    8.6531 F   0  0  0  0  0  0  0  0  0  0  0  0
   -6.0897    2.4344    7.1177 C   0  0  0  0  0  0  0  0  0  0  0  0
   -6.1218    3.4284    8.5304 S   0  0  0  0  0  0  0  0  0  0  0  0
   -4.9193   -0.4141    5.1221 C   0  0  0  0  0  0  0  0  0  0  0  0
   -5.1864   -0.8439    3.8061 C   0  0  0  0  0  0  0  0  0  0  0  0
   -6.2902    0.2867    3.2775 S   0  0  0  0  0  0  0  0  0  0  0  0
   -4.4976   -2.0656    3.2978 C   0  0  0  0  0  0  0  0  0  0  0  0
   -3.6397   -2.1772    2.2491 C   0  0  0  0  0  0  0  0  0  0  0  0
   -2.8397   -3.2847    2.2120 C   0  0  0  0  0  0  0  0  0  0  0  0
   -1.7061   -3.4759    1.4130 C   0  0  0  0  0  0  0  0  0  0  0  0
   -1.3757   -2.6220    0.3079 C   0  0  0  0  0  0  0  0  0  0  0  0
   -1.8738   -1.7550   -0.5383 C   0  0  0  0  0  0  0  0  0  0  0  0
   -1.1824   -0.9531   -1.3502 C   0  0  0  0  0  0  0  0  0  0  0  0
    0.1543   -0.9475   -1.3932 C   0  0  0  0  0  0  0  0  0  0  0  0
    1.3975   -0.0606   -2.2811 S   0  0  0  0  0  0  0  0  0  0  0  0
    2.0217   -0.8489   -3.7528 C   0  0  0  0  0  0  0  0  0  0  0  0
    0.9186   -0.9101   -4.7962 C   0  0  0  0  0  0  0  0  0  0  0  0
    0.5721   -2.3025   -0.0717 Se  0  0  0  0  0  2  0  0  0  0  0  0
   -0.8272   -4.5423    1.7161 C   0  0  0  0  0  0  0  0  0  0  0  0
   -0.9828   -5.4171    2.7291 C   0  0  0  0  0  0  0  0  0  0  0  0
   -2.1062   -5.2559    3.5145 C   0  0  0  0  0  0  0  0  0  0  0  0
   -2.6170   -6.2298    4.4764 C   0  0  0  0  0  0  0  0  0  0  0  0
   -2.4172   -7.4909    4.8201 C   0  0  0  0  0  0  0  0  0  0  0  0
   -3.0936   -8.1399    5.7718 C   0  0  0  0  0  0  0  0  0  0  0  0
   -4.0762   -7.5768    6.5025 C   0  0  0  0  0  0  0  0  0  0  0  0
   -5.2233   -8.0701    7.7472 S   0  0  0  0  0  0  0  0  0  0  0  0
   -6.8016   -8.5811    7.0497 C   0  0  0  0  0  0  0  0  0  0  0  0
   -7.5656   -7.4487    6.4061 C   0  0  0  0  0  0  0  0  0  0  0  0
   -4.0616   -5.7589    5.7040 Se  0  0  0  0  0  2  0  0  0  0  0  0
   -2.9742   -4.1820    3.2131 C   0  0  0  0  0  0  0  0  0  0  0  0
   -4.2126   -3.4716    4.1876 S   0  0  0  0  0  0  0  0  0  0  0  0
    0.1159   -6.2103    3.0355 C   0  0  0  0  0  0  0  0  0  0  0  0
    1.2208   -6.0644    2.3391 C   0  0  0  0  0  0  0  0  0  0  0  0
    0.7653   -4.8139    1.1823 S   0  0  0  0  0  0  0  0  0  0  0  0
    2.7151   -6.2431    2.6224 C   0  0  0  0  0  0  0  0  0  0  0  0
    3.1910   -5.5857    3.7985 C   0  0  0  0  0  0  0  0  0  0  0  0
    4.4847   -5.2239    3.8110 C   0  0  0  0  0  0  0  0  0  0  0  0
    5.0464   -4.2038    4.6570 C   0  0  0  0  0  0  0  0  0  0  0  0
    4.3876   -3.8156    5.8729 C   0  0  0  0  0  0  0  0  0  0  0  0
    4.6947   -2.9552    6.8546 C   0  0  0  0  0  0  0  0  0  0  0  0
    3.9241   -2.7467    7.9261 C   0  0  0  0  0  0  0  0  0  0  0  0
    2.7740   -3.3729    8.1337 C   0  0  0  0  0  0  0  0  0  0  0  0
    1.4875   -3.4835    9.3312 S   0  0  0  0  0  0  0  0  0  0  0  0
    1.6356   -4.8514   10.4897 C   0  0  0  0  0  0  0  0  0  0  0  0
    1.4584   -6.1930    9.8255 C   0  0  0  0  0  0  0  0  0  0  0  0
    2.7422   -4.4958    6.4944 Se  0  0  0  0  0  2  0  0  0  0  0  0
    6.2549   -3.6130    4.2997 C   0  0  0  0  0  0  0  0  0  0  0  0
    6.9867   -3.9181    3.2191 C   0  0  0  0  0  0  0  0  0  0  0  0
    6.4520   -4.9557    2.3937 C   0  0  0  0  0  0  0  0  0  0  0  0
    7.2311   -5.5577    1.3310 C   0  0  0  0  0  0  0  0  0  0  0  0
    7.0106   -6.3978    0.3297 C   0  0  0  0  0  0  0  0  0  0  0  0
    7.9502   -6.9079   -0.4593 C   0  0  0  0  0  0  0  0  0  0  0  0
    9.2484   -6.6332   -0.3345 C   0  0  0  0  0  0  0  0  0  0  0  0
   10.7616   -7.0690   -1.0856 S   0  0  0  0  0  0  0  0  0  0  0  0
   12.1317   -6.2548   -0.2477 C   0  0  0  0  0  0  0  0  0  0  0  0
   12.1536   -4.7461   -0.4369 C   0  0  0  0  0  0  0  0  0  0  0  0
    9.1470   -5.3701    1.2354 Se  0  0  0  0  0  2  0  0  0  0  0  0
    5.2432   -5.5274    2.7245 C   0  0  0  0  0  0  0  0  0  0  0  0
    4.0546   -6.3421    1.6910 S   0  0  0  0  0  0  0  0  0  0  0  0
    7.8885   -2.9635    2.7830 C   0  0  0  0  0  0  0  0  0  0  0  0
    7.9382   -1.7962    3.4757 C   0  0  0  0  0  0  0  0  0  0  0  0
    6.8159   -2.0020    4.7248 S   0  0  0  0  0  0  0  0  0  0  0  0
    8.3625   -0.4558    2.8526 C   0  0  0  0  0  0  0  0  0  0  0  0
    8.5875   -0.2897    1.5249 C   0  0  0  0  0  0  0  0  0  0  0  0
    8.3483    0.9694    1.0482 C   0  0  0  0  0  0  0  0  0  0  0  0
    8.2034    1.2751   -0.3240 C   0  0  0  0  0  0  0  0  0  0  0  0
    8.5295    0.3278   -1.3501 C   0  0  0  0  0  0  0  0  0  0  0  0
    9.7395   -0.0500   -1.8179 C   0  0  0  0  0  0  0  0  0  0  0  0
    9.8642   -1.0090   -2.8218 C   0  0  0  0  0  0  0  0  0  0  0  0
    8.7739   -1.6140   -3.3868 C   0  0  0  0  0  0  0  0  0  0  0  0
    8.8639   -2.8561   -4.6644 S   0  0  0  0  0  0  0  0  0  0  0  0
    8.8334   -4.5448   -3.9999 C   0  0  0  0  0  0  0  0  0  0  0  0
    8.8639   -5.5006   -5.1753 C   0  0  0  0  0  0  0  0  0  0  0  0
    7.5112   -1.2356   -2.9137 C   0  0  0  0  0  0  0  0  0  0  0  0
    6.4182   -1.8311   -3.4941 F   0  0  0  0  0  0  0  0  0  0  0  0
    7.4084   -0.2950   -1.9293 C   0  0  0  0  0  0  0  0  0  0  0  0
    7.6328    2.5027   -0.7138 C   0  0  0  0  0  0  0  0  0  0  0  0
    7.1988    3.4378    0.1524 C   0  0  0  0  0  0  0  0  0  0  0  0
    7.3725    3.1501    1.5185 C   0  0  0  0  0  0  0  0  0  0  0  0
    7.0205    4.0868    2.5646 C   0  0  0  0  0  0  0  0  0  0  0  0
    5.7348    4.3473    2.9714 C   0  0  0  0  0  0  0  0  0  0  0  0
    5.4601    5.2699    3.9973 C   0  0  0  0  0  0  0  0  0  0  0  0
    6.4789    5.9345    4.6148 C   0  0  0  0  0  0  0  0  0  0  0  0
    6.1709    7.1586    5.9121 S   0  0  0  0  0  0  0  0  0  0  0  0
    5.9782    8.7466    5.0445 C   0  0  0  0  0  0  0  0  0  0  0  0
    7.2975    9.1403    4.3770 C   0  0  0  0  0  0  0  0  0  0  0  0
    7.7703    5.6989    4.2324 C   0  0  0  0  0  0  0  0  0  0  0  0
    8.0416    4.7705    3.1980 C   0  0  0  0  0  0  0  0  0  0  0  0
    8.7656    6.3702    4.8663 F   0  0  0  0  0  0  0  0  0  0  0  0
    7.9379    1.9225    1.8903 C   0  0  0  0  0  0  0  0  0  0  0  0
    7.8883    1.0460    3.4227 S   0  0  0  0  0  0  0  0  0  0  0  0
    6.3925    4.4407   -0.3732 C   0  0  0  0  0  0  0  0  0  0  0  0
    6.1119    4.3968   -1.6637 C   0  0  0  0  0  0  0  0  0  0  0  0
    6.9878    2.9656   -2.2189 S   0  0  0  0  0  0  0  0  0  0  0  0
    4.8863    4.8167   -2.4813 C   0  0  0  0  0  0  0  0  0  0  0  0
    4.6758    4.6945   -3.7973 C   0  0  0  0  0  0  0  0  0  0  0  0
    3.3860    4.6856   -4.2393 C   0  0  0  0  0  0  0  0  0  0  0  0
    2.9035    4.3264   -5.5095 C   0  0  0  0  0  0  0  0  0  0  0  0
    3.7231    4.0918   -6.6697 C   0  0  0  0  0  0  0  0  0  0  0  0
    4.9693    3.8299   -7.0207 C   0  0  0  0  0  0  0  0  0  0  0  0
    5.4337    3.8390   -8.2625 C   0  0  0  0  0  0  0  0  0  0  0  0
    4.6874    4.1200   -9.3410 C   0  0  0  0  0  0  0  0  0  0  0  0
    5.0025    4.2561  -11.0585 S   0  0  0  0  0  0  0  0  0  0  0  0
    4.8556    2.7732  -12.0280 C   0  0  0  0  0  0  0  0  0  0  0  0
    3.3982    2.3315  -12.0613 C   0  0  0  0  0  0  0  0  0  0  0  0
    2.9640    4.4387   -8.4698 Se  0  0  0  0  0  2  0  0  0  0  0  0
    1.5333    4.1130   -5.7066 C   0  0  0  0  0  0  0  0  0  0  0  0
    0.5732    4.2256   -4.7505 C   0  0  0  0  0  0  0  0  0  0  0  0
    1.0444    4.6117   -3.4800 C   0  0  0  0  0  0  0  0  0  0  0  0
    0.2152    4.7465   -2.3076 C   0  0  0  0  0  0  0  0  0  0  0  0
   -0.9421    4.4052   -1.8164 C   0  0  0  0  0  0  0  0  0  0  0  0
   -1.5350    4.8031   -0.7056 C   0  0  0  0  0  0  0  0  0  0  0  0
   -0.9415    5.6975    0.1317 C   0  0  0  0  0  0  0  0  0  0  0  0
   -1.3374    6.5057    1.6279 S   0  0  0  0  0  0  0  0  0  0  0  0
   -3.0297    6.0061    2.1346 C   0  0  0  0  0  0  0  0  0  0  0  0
   -2.9773    4.5474    2.4939 C   0  0  0  0  0  0  0  0  0  0  0  0
    0.7542    5.9930   -0.8777 Se  0  0  0  0  0  2  0  0  0  0  0  0
    2.4145    4.8167   -3.3048 C   0  0  0  0  0  0  0  0  0  0  0  0
    3.3216    4.9607   -1.8242 S   0  0  0  0  0  0  0  0  0  0  0  0
   -0.6519    3.7959   -5.0697 C   0  0  0  0  0  0  0  0  0  0  0  0
   -0.8586    3.2716   -6.3160 C   0  0  0  0  0  0  0  0  0  0  0  0
    0.6688    3.4105   -7.0373 S   0  0  0  0  0  0  0  0  0  0  0  0
   -1.9879    2.3946   -6.7247 C   0  0  0  0  0  0  0  0  0  0  0  0
   -3.0102    2.3704   -7.5530 C   0  0  0  0  0  0  0  0  0  0  0  0
   -3.8346    1.2961   -7.5659 C   0  0  0  0  0  0  0  0  0  0  0  0
   -4.9774    1.0900   -8.3578 C   0  0  0  0  0  0  0  0  0  0  0  0
   -5.4373    1.9550   -9.4000 C   0  0  0  0  0  0  0  0  0  0  0  0
   -5.0836    2.9574  -10.1722 C   0  0  0  0  0  0  0  0  0  0  0  0
   -5.8742    3.6427  -10.9944 C   0  0  0  0  0  0  0  0  0  0  0  0
   -7.1765    3.3773  -11.1421 C   0  0  0  0  0  0  0  0  0  0  0  0
   -8.5326    4.0235  -12.0836 S   0  0  0  0  0  0  0  0  0  0  0  0
  -10.0632    3.1077  -11.7722 C   0  0  0  0  0  0  0  0  0  0  0  0
  -10.5833    3.2640  -10.3865 C   0  0  0  0  0  0  0  0  0  0  0  0
   -7.3821    1.8890   -9.9097 Se  0  0  0  0  0  2  0  0  0  0  0  0
   -5.6963   -0.1096   -8.1941 C   0  0  0  0  0  0  0  0  0  0  0  0
   -5.3879   -1.1123   -7.3344 C   0  0  0  0  0  0  0  0  0  0  0  0
   -4.2615   -0.9085   -6.5523 C   0  0  0  0  0  0  0  0  0  0  0  0
   -3.6652   -1.9282   -5.7116 C   0  0  0  0  0  0  0  0  0  0  0  0
   -2.7500   -1.8866   -4.7246 C   0  0  0  0  0  0  0  0  0  0  0  0
   -2.2318   -2.9855   -4.1757 C   0  0  0  0  0  0  0  0  0  0  0  0
   -2.5631   -4.2253   -4.5378 C   0  0  0  0  0  0  0  0  0  0  0  0
   -2.0467   -5.8324   -4.0507 S   0  0  0  0  0  0  0  0  0  0  0  0
   -2.9306   -7.1386   -4.9126 C   0  0  0  0  0  0  0  0  0  0  0  0
   -4.3850   -7.1644   -4.4713 C   0  0  0  0  0  0  0  0  0  0  0  0
   -3.8740   -3.8213   -5.9414 Se  0  0  0  0  0  2  0  0  0  0  0  0
   -3.5427    0.2859   -6.6994 C   0  0  0  0  0  0  0  0  0  0  0  0
   -2.1554    0.8490   -5.8964 S   0  0  0  0  0  0  0  0  0  0  0  0
   -6.2068   -2.1878   -7.3127 C   0  0  0  0  0  0  0  0  0  0  0  0
   -7.2849   -2.1856   -8.1601 C   0  0  0  0  0  0  0  0  0  0  0  0
   -7.1141   -0.6775   -8.9535 S   0  0  0  0  0  0  0  0  0  0  0  0
   -7.6405    5.4996    8.5027 H   0  0  0  0  0  0  0  0  0  0  0  0
   -8.2870    4.8021    6.1320 H   0  0  0  0  0  0  0  0  0  0  0  0
   -6.6316    4.5926    3.5053 H   0  0  0  0  0  0  0  0  0  0  0  0
   -8.2241    5.6987    2.0398 H   0  0  0  0  0  0  0  0  0  0  0  0
  -13.1954    5.2335    0.5664 H   0  0  0  0  0  0  0  0  0  0  0  0
  -12.9975    4.2213    2.0694 H   0  0  0  0  0  0  0  0  0  0  0  0
  -12.7362    3.5008   -0.8327 H   0  0  0  0  0  0  0  0  0  0  0  0
  -11.4581    2.7981    0.2244 H   0  0  0  0  0  0  0  0  0  0  0  0
  -13.1821    2.5141    0.5913 H   0  0  0  0  0  0  0  0  0  0  0  0
   -9.6876    1.6689    4.4197 H   0  0  0  0  0  0  0  0  0  0  0  0
   -5.4622   -0.7925    8.5589 H   0  0  0  0  0  0  0  0  0  0  0  0
   -3.5625   -1.5262   10.0612 H   0  0  0  0  0  0  0  0  0  0  0  0
    1.2521   -0.0442   11.1622 H   0  0  0  0  0  0  0  0  0  0  0  0
    0.4105    1.4441   10.6138 H   0  0  0  0  0  0  0  0  0  0  0  0
    1.5246    1.1481    8.5463 H   0  0  0  0  0  0  0  0  0  0  0  0
    0.7727   -0.4635    8.3660 H   0  0  0  0  0  0  0  0  0  0  0  0
    2.2740   -0.3988    9.2347 H   0  0  0  0  0  0  0  0  0  0  0  0
   -3.0114    2.3471    7.1844 H   0  0  0  0  0  0  0  0  0  0  0  0
   -4.2000   -1.0200    5.7430 H   0  0  0  0  0  0  0  0  0  0  0  0
   -3.6417   -1.3641    1.4911 H   0  0  0  0  0  0  0  0  0  0  0  0
   -3.0281   -1.7085   -0.6128 H   0  0  0  0  0  0  0  0  0  0  0  0
   -1.7067   -0.2148   -2.0427 H   0  0  0  0  0  0  0  0  0  0  0  0
    2.4360   -1.8364   -3.5929 H   0  0  0  0  0  0  0  0  0  0  0  0
    2.8153   -0.1758   -4.2054 H   0  0  0  0  0  0  0  0  0  0  0  0
    1.1350   -1.6895   -5.5860 H   0  0  0  0  0  0  0  0  0  0  0  0
   -0.0422   -1.0797   -4.3196 H   0  0  0  0  0  0  0  0  0  0  0  0
    0.9701    0.0528   -5.3809 H   0  0  0  0  0  0  0  0  0  0  0  0
   -1.6434   -8.0958    4.2330 H   0  0  0  0  0  0  0  0  0  0  0  0
   -2.8678   -9.2351    6.0343 H   0  0  0  0  0  0  0  0  0  0  0  0
   -7.4435   -8.9411    7.8835 H   0  0  0  0  0  0  0  0  0  0  0  0
   -6.6699   -9.4546    6.3615 H   0  0  0  0  0  0  0  0  0  0  0  0
   -6.9745   -6.5657    6.1798 H   0  0  0  0  0  0  0  0  0  0  0  0
   -8.0655   -7.8584    5.4698 H   0  0  0  0  0  0  0  0  0  0  0  0
   -8.4246   -7.1170    7.0287 H   0  0  0  0  0  0  0  0  0  0  0  0
    0.1084   -6.9384    3.8757 H   0  0  0  0  0  0  0  0  0  0  0  0
    2.4654   -5.4282    4.5750 H   0  0  0  0  0  0  0  0  0  0  0  0
    5.6822   -2.3989    6.7607 H   0  0  0  0  0  0  0  0  0  0  0  0
    4.2350   -1.9836    8.7312 H   0  0  0  0  0  0  0  0  0  0  0  0
    2.6196   -4.8602   11.0139 H   0  0  0  0  0  0  0  0  0  0  0  0
    0.8526   -4.7137   11.2882 H   0  0  0  0  0  0  0  0  0  0  0  0
    0.3354   -6.2941    9.6200 H   0  0  0  0  0  0  0  0  0  0  0  0
    1.7230   -7.0524   10.4555 H   0  0  0  0  0  0  0  0  0  0  0  0
    1.9334   -6.2354    8.8303 H   0  0  0  0  0  0  0  0  0  0  0  0
    5.8922   -6.6620    0.1511 H   0  0  0  0  0  0  0  0  0  0  0  0
    7.6561   -7.6238   -1.2903 H   0  0  0  0  0  0  0  0  0  0  0  0
   13.1091   -6.6731   -0.5708 H   0  0  0  0  0  0  0  0  0  0  0  0
   12.0365   -6.3838    0.8765 H   0  0  0  0  0  0  0  0  0  0  0  0
   11.3626   -4.2930    0.2394 H   0  0  0  0  0  0  0  0  0  0  0  0
   11.8184   -4.4624   -1.4604 H   0  0  0  0  0  0  0  0  0  0  0  0
   13.0867   -4.2873   -0.1497 H   0  0  0  0  0  0  0  0  0  0  0  0
    8.5163   -3.1111    1.9067 H   0  0  0  0  0  0  0  0  0  0  0  0
    8.9469   -1.1579    0.9422 H   0  0  0  0  0  0  0  0  0  0  0  0
   10.6019    0.4355   -1.3948 H   0  0  0  0  0  0  0  0  0  0  0  0
   10.8650   -1.3008   -3.1908 H   0  0  0  0  0  0  0  0  0  0  0  0
    7.9047   -4.7631   -3.4380 H   0  0  0  0  0  0  0  0  0  0  0  0
    9.6741   -4.7777   -3.3577 H   0  0  0  0  0  0  0  0  0  0  0  0
    8.5336   -4.9621   -6.1103 H   0  0  0  0  0  0  0  0  0  0  0  0
    8.0693   -6.2978   -5.0565 H   0  0  0  0  0  0  0  0  0  0  0  0
    9.8208   -6.0094   -5.3117 H   0  0  0  0  0  0  0  0  0  0  0  0
    6.3961   -0.0488   -1.6142 H   0  0  0  0  0  0  0  0  0  0  0  0
    4.9322    3.8426    2.4995 H   0  0  0  0  0  0  0  0  0  0  0  0
    4.4478    5.4632    4.3222 H   0  0  0  0  0  0  0  0  0  0  0  0
    5.7458    9.5591    5.7745 H   0  0  0  0  0  0  0  0  0  0  0  0
    5.2353    8.6665    4.2258 H   0  0  0  0  0  0  0  0  0  0  0  0
    7.5899    8.4188    3.6107 H   0  0  0  0  0  0  0  0  0  0  0  0
    8.1298    9.2874    5.0784 H   0  0  0  0  0  0  0  0  0  0  0  0
    7.1655   10.1239    3.8246 H   0  0  0  0  0  0  0  0  0  0  0  0
    9.0415    4.5979    2.9123 H   0  0  0  0  0  0  0  0  0  0  0  0
    5.9653    5.2553    0.2595 H   0  0  0  0  0  0  0  0  0  0  0  0
    5.5430    4.6210   -4.4888 H   0  0  0  0  0  0  0  0  0  0  0  0
    5.6943    3.5091   -6.1957 H   0  0  0  0  0  0  0  0  0  0  0  0
    6.5417    3.6153   -8.4809 H   0  0  0  0  0  0  0  0  0  0  0  0
    5.1686    2.9665  -13.0882 H   0  0  0  0  0  0  0  0  0  0  0  0
    5.4193    1.9022  -11.6196 H   0  0  0  0  0  0  0  0  0  0  0  0
    3.2152    1.6914  -11.2002 H   0  0  0  0  0  0  0  0  0  0  0  0
    2.7361    3.2027  -11.9792 H   0  0  0  0  0  0  0  0  0  0  0  0
    3.1541    1.8141  -12.9950 H   0  0  0  0  0  0  0  0  0  0  0  0
   -1.5105    3.5539   -2.4223 H   0  0  0  0  0  0  0  0  0  0  0  0
   -2.5576    4.4425   -0.3780 H   0  0  0  0  0  0  0  0  0  0  0  0
   -3.6699    6.2144    1.2802 H   0  0  0  0  0  0  0  0  0  0  0  0
   -3.2529    6.6084    3.0252 H   0  0  0  0  0  0  0  0  0  0  0  0
   -2.0205    4.0551    2.1689 H   0  0  0  0  0  0  0  0  0  0  0  0
   -3.8667    4.0399    2.0197 H   0  0  0  0  0  0  0  0  0  0  0  0
   -3.0253    4.4906    3.6165 H   0  0  0  0  0  0  0  0  0  0  0  0
   -1.5478    3.8518   -4.4057 H   0  0  0  0  0  0  0  0  0  0  0  0
   -3.1744    3.2710   -8.2161 H   0  0  0  0  0  0  0  0  0  0  0  0
   -3.9712    3.2533  -10.1662 H   0  0  0  0  0  0  0  0  0  0  0  0
   -5.4903    4.5269  -11.6297 H   0  0  0  0  0  0  0  0  0  0  0  0
  -10.7705    3.3572  -12.5894 H   0  0  0  0  0  0  0  0  0  0  0  0
   -9.8148    2.0334  -11.9227 H   0  0  0  0  0  0  0  0  0  0  0  0
  -11.5880    3.7437  -10.3393 H   0  0  0  0  0  0  0  0  0  0  0  0
   -9.8974    3.9289   -9.7956 H   0  0  0  0  0  0  0  0  0  0  0  0
  -10.6459    2.2860   -9.8616 H   0  0  0  0  0  0  0  0  0  0  0  0
   -2.4370   -0.8610   -4.3527 H   0  0  0  0  0  0  0  0  0  0  0  0
   -1.4488   -2.9131   -3.3329 H   0  0  0  0  0  0  0  0  0  0  0  0
   -2.9548   -6.9681   -6.0175 H   0  0  0  0  0  0  0  0  0  0  0  0
   -2.5112   -8.1218   -4.7606 H   0  0  0  0  0  0  0  0  0  0  0  0
   -5.0352   -6.6123   -5.1454 H   0  0  0  0  0  0  0  0  0  0  0  0
   -4.7406   -8.2292   -4.4527 H   0  0  0  0  0  0  0  0  0  0  0  0
   -4.4962   -6.7251   -3.4409 H   0  0  0  0  0  0  0  0  0  0  0  0
   -6.0799   -3.0808   -6.6582 H   0  0  0  0  0  0  0  0  0  0  0  0
   -8.0570   -2.9721   -8.2883 H   0  0  0  0  0  0  0  0  0  0  0  0
  1  2  2  0
  2  3  1  0
  3  4  2  0
  4  5  1  0
  5  6  2  0
  6  7  1  0
  7  8  2  0
  8  9  1  0
  9 10  1  0
 10 11  1  0
  8 12  1  0
 12 13  1  0
 12 14  2  0
  4 15  1  0
 15 16  2  0
 16 17  1  0
 17 18  1  0
 18 19  2  0
 19 20  1  0
 20 21  2  0
 21 22  1  0
 22 23  1  0
 23 24  1  0
 21 25  1  0
 25 26  2  0
 25 27  1  0
 17 28  2  0
 28 29  1  0
 16 30  1  0
 30 31  2  0
 31 32  1  0
 31 33  1  0
 33 34  2  0
 34 35  1  0
 35 36  2  0
 36 37  1  0
 37 38  2  0
 38 39  1  0
 39 40  2  0
 40 41  1  0
 41 42  1  0
 42 43  1  0
 40 44  1  0
 36 45  1  0
 45 46  2  0
 46 47  1  0
 47 48  1  0
 48 49  2  0
 49 50  1  0
 50 51  2  0
 51 52  1  0
 52 53  1  0
 53 54  1  0
 51 55  1  0
 47 56  2  0
 56 57  1  0
 46 58  1  0
 58 59  2  0
 59 60  1  0
 59 61  1  0
 61 62  2  0
 62 63  1  0
 63 64  2  0
 64 65  1  0
 65 66  2  0
 66 67  1  0
 67 68  2  0
 68 69  1  0
 69 70  1  0
 70 71  1  0
 68 72  1  0
 64 73  1  0
 73 74  2  0
 74 75  1  0
 75 76  1  0
 76 77  2  0
 77 78  1  0
 78 79  2  0
 79 80  1  0
 80 81  1  0
 81 82  1  0
 79 83  1  0
 75 84  2  0
 84 85  1  0
 74 86  1  0
 86 87  2  0
 87 88  1  0
 87 89  1  0
 89 90  2  0
 90 91  1  0
 91 92  2  0
 92 93  1  0
 93 94  2  0
 94 95  1  0
 95 96  2  0
 96 97  1  0
 97 98  1  0
 98 99  1  0
 96100  1  0
100101  1  0
100102  2  0
 92103  1  0
103104  2  0
104105  1  0
105106  1  0
106107  2  0
107108  1  0
108109  2  0
109110  1  0
110111  1  0
111112  1  0
109113  1  0
113114  2  0
113115  1  0
105116  2  0
116117  1  0
104118  1  0
118119  2  0
119120  1  0
119121  1  0
121122  2  0
122123  1  0
123124  2  0
124125  1  0
125126  2  0
126127  1  0
127128  2  0
128129  1  0
129130  1  0
130131  1  0
128132  1  0
124133  1  0
133134  2  0
134135  1  0
135136  1  0
136137  2  0
137138  1  0
138139  2  0
139140  1  0
140141  1  0
141142  1  0
139143  1  0
135144  2  0
144145  1  0
134146  1  0
146147  2  0
147148  1  0
147149  1  0
149150  2  0
150151  1  0
151152  2  0
152153  1  0
153154  2  0
154155  1  0
155156  2  0
156157  1  0
157158  1  0
158159  1  0
156160  1  0
152161  1  0
161162  2  0
162163  1  0
163164  1  0
164165  2  0
165166  1  0
166167  2  0
167168  1  0
168169  1  0
169170  1  0
167171  1  0
163172  2  0
172173  1  0
162174  1  0
174175  2  0
175176  1  0
 29  1  1  0
 57 33  1  0
 85 61  1  0
117 89  1  0
145121  1  0
173149  1  0
 28  3  1  0
 56 35  1  0
 84 63  1  0
116 91  1  0
144123  1  0
172151  1  0
 14  5  1  0
 32 15  1  0
 44 37  1  0
 60 45  1  0
 72 65  1  0
 88 73  1  0
102 93  1  0
120103  1  0
132125  1  0
148133  1  0
160153  1  0
176161  1  0
 26 18  1  0
 55 48  1  0
 83 76  1  0
114106  1  0
143136  1  0
171164  1  0
  1177  1  0
  2178  1  0
  6179  1  0
  7180  1  0
 10181  1  0
 10182  1  0
 11183  1  0
 11184  1  0
 11185  1  0
 14186  1  0
 19187  1  0
 20188  1  0
 23189  1  0
 23190  1  0
 24191  1  0
 24192  1  0
 24193  1  0
 26194  1  0
 30195  1  0
 34196  1  0
 38197  1  0
 39198  1  0
 42199  1  0
 42200  1  0
 43201  1  0
 43202  1  0
 43203  1  0
 49204  1  0
 50205  1  0
 53206  1  0
 53207  1  0
 54208  1  0
 54209  1  0
 54210  1  0
 58211  1  0
 62212  1  0
 66213  1  0
 67214  1  0
 70215  1  0
 70216  1  0
 71217  1  0
 71218  1  0
 71219  1  0
 77220  1  0
 78221  1  0
 81222  1  0
 81223  1  0
 82224  1  0
 82225  1  0
 82226  1  0
 86227  1  0
 90228  1  0
 94229  1  0
 95230  1  0
 98231  1  0
 98232  1  0
 99233  1  0
 99234  1  0
 99235  1  0
102236  1  0
107237  1  0
108238  1  0
111239  1  0
111240  1  0
112241  1  0
112242  1  0
112243  1  0
114244  1  0
118245  1  0
122246  1  0
126247  1  0
127248  1  0
130249  1  0
130250  1  0
131251  1  0
131252  1  0
131253  1  0
137254  1  0
138255  1  0
141256  1  0
141257  1  0
142258  1  0
142259  1  0
142260  1  0
146261  1  0
150262  1  0
154263  1  0
155264  1  0
158265  1  0
158266  1  0
159267  1  0
159268  1  0
159269  1  0
165270  1  0
166271  1  0
169272  1  0
169273  1  0
170274  1  0
170275  1  0
170276  1  0
174277  1  0
175278  1  0
M  END

