
     RDKit          3D

170187  0  0  0  0  0  0  0  0999 V2000
   10.7195   -6.1508    4.2494 C   0  0  0  0  0  0  0  0  0  0  0  0
   11.8107   -6.5823    4.9564 C   0  0  0  0  0  0  0  0  0  0  0  0
   13.0968   -7.0443    4.3873 C   0  0  0  0  0  0  0  0  0  0  0  0
   13.9727   -7.3737    5.2395 O   0  0  0  0  0  0  0  0  0  0  0  0
   13.3126   -7.1069    2.9658 C   0  0  0  0  0  0  0  0  0  0  0  0
   13.2304   -5.8339    2.3850 F   0  0  0  0  0  0  0  0  0  0  0  0
   14.5179   -7.6704    2.5817 F   0  0  0  0  0  0  0  0  0  0  0  0
   12.3371   -7.8508    2.2930 F   0  0  0  0  0  0  0  0  0  0  0  0
   11.3006   -6.4898    6.5712 S   0  0  0  0  0  0  0  0  0  0  0  0
    9.7122   -5.9111    6.3270 C   0  0  0  0  0  0  0  0  0  0  0  0
    9.6107   -5.7970    4.9599 C   0  0  0  0  0  0  0  0  0  0  0  0
    8.3473   -5.3043    4.3310 C   0  0  0  0  0  0  0  0  0  0  0  0
    8.0472   -5.1505    3.0171 C   0  0  0  0  0  0  0  0  0  0  0  0
    6.8091   -4.6772    2.7055 C   0  0  0  0  0  0  0  0  0  0  0  0
    6.2631   -4.4135    1.4546 C   0  0  0  0  0  0  0  0  0  0  0  0
    6.9385   -4.7099    0.2034 C   0  0  0  0  0  0  0  0  0  0  0  0
    7.9449   -5.4764   -0.2054 C   0  0  0  0  0  0  0  0  0  0  0  0
    8.4449   -5.4167   -1.4471 C   0  0  0  0  0  0  0  0  0  0  0  0
    8.0200   -4.6205   -2.3996 C   0  0  0  0  0  0  0  0  0  0  0  0
    8.3631   -4.1896   -4.0615 S   0  0  0  0  0  0  0  0  0  0  0  0
    7.4851   -5.2392   -5.2209 C   0  0  0  0  0  0  0  0  0  0  0  0
    7.9694   -6.6696   -5.1897 C   0  0  0  0  0  0  0  0  0  0  0  0
    6.5522   -3.7096   -1.3396 Se  0  0  0  0  0  2  0  0  0  0  0  0
    4.9601   -3.8874    1.3876 C   0  0  0  0  0  0  0  0  0  0  0  0
    4.1552   -3.5956    2.4384 C   0  0  0  0  0  0  0  0  0  0  0  0
    4.6880   -3.8702    3.6809 C   0  0  0  0  0  0  0  0  0  0  0  0
    3.9336   -3.8236    4.9366 C   0  0  0  0  0  0  0  0  0  0  0  0
    2.6439   -3.8464    5.2921 C   0  0  0  0  0  0  0  0  0  0  0  0
    2.2460   -3.7135    6.5675 C   0  0  0  0  0  0  0  0  0  0  0  0
    3.0536   -3.5541    7.5873 C   0  0  0  0  0  0  0  0  0  0  0  0
    3.0286   -3.3356    9.3295 S   0  0  0  0  0  0  0  0  0  0  0  0
    3.0973   -4.9313   10.2428 C   0  0  0  0  0  0  0  0  0  0  0  0
    4.4006   -5.6139    9.9797 C   0  0  0  0  0  0  0  0  0  0  0  0
    4.7988   -3.5918    6.5482 Se  0  0  0  0  0  2  0  0  0  0  0  0
    5.9903   -4.3973    3.7498 C   0  0  0  0  0  0  0  0  0  0  0  0
    6.9416   -4.8012    5.1280 S   0  0  0  0  0  0  0  0  0  0  0  0
    2.9342   -3.0692    2.1497 C   0  0  0  0  0  0  0  0  0  0  0  0
    2.6279   -2.8907    0.8427 C   0  0  0  0  0  0  0  0  0  0  0  0
    4.0204   -3.4433    0.0323 S   0  0  0  0  0  0  0  0  0  0  0  0
    1.4663   -2.2779    0.1865 C   0  0  0  0  0  0  0  0  0  0  0  0
    0.9683   -2.6613   -1.0523 C   0  0  0  0  0  0  0  0  0  0  0  0
   -0.1448   -2.0620   -1.4787 C   0  0  0  0  0  0  0  0  0  0  0  0
   -0.8030   -2.2637   -2.6999 C   0  0  0  0  0  0  0  0  0  0  0  0
   -0.5559   -3.4578   -3.4837 C   0  0  0  0  0  0  0  0  0  0  0  0
   -0.0834   -4.6809   -3.1724 C   0  0  0  0  0  0  0  0  0  0  0  0
    0.1047   -5.6441   -4.0665 C   0  0  0  0  0  0  0  0  0  0  0  0
   -0.1550   -5.5009   -5.3832 C   0  0  0  0  0  0  0  0  0  0  0  0
   -0.0693   -6.5537   -6.7760 S   0  0  0  0  0  0  0  0  0  0  0  0
    1.5990   -6.5707   -7.4832 C   0  0  0  0  0  0  0  0  0  0  0  0
    1.6726   -7.6734   -8.5339 C   0  0  0  0  0  0  0  0  0  0  0  0
   -0.7953   -3.6350   -5.3862 Se  0  0  0  0  0  2  0  0  0  0  0  0
   -1.9186   -1.5240   -3.0162 C   0  0  0  0  0  0  0  0  0  0  0  0
   -2.5123   -0.5604   -2.2304 C   0  0  0  0  0  0  0  0  0  0  0  0
   -1.8516   -0.3677   -1.0101 C   0  0  0  0  0  0  0  0  0  0  0  0
   -2.0983    0.7377   -0.1079 C   0  0  0  0  0  0  0  0  0  0  0  0
   -2.6431    1.9377   -0.1337 C   0  0  0  0  0  0  0  0  0  0  0  0
   -2.7644    2.7548    0.9015 C   0  0  0  0  0  0  0  0  0  0  0  0
   -2.3279    2.4299    2.1345 C   0  0  0  0  0  0  0  0  0  0  0  0
   -2.2907    3.2873    3.6704 S   0  0  0  0  0  0  0  0  0  0  0  0
   -0.7496    4.2473    3.8511 C   0  0  0  0  0  0  0  0  0  0  0  0
    0.4551    3.3299    3.9930 C   0  0  0  0  0  0  0  0  0  0  0  0
   -1.6085    0.6326    1.8046 Se  0  0  0  0  0  2  0  0  0  0  0  0
   -0.7166   -1.1193   -0.6927 C   0  0  0  0  0  0  0  0  0  0  0  0
    0.3313   -1.0987    0.6609 S   0  0  0  0  0  0  0  0  0  0  0  0
   -3.6222    0.0182   -2.7407 C   0  0  0  0  0  0  0  0  0  0  0  0
   -4.0648   -0.3656   -3.9591 C   0  0  0  0  0  0  0  0  0  0  0  0
   -2.9276   -1.5325   -4.3805 S   0  0  0  0  0  0  0  0  0  0  0  0
   -5.2863    0.0620   -4.7373 C   0  0  0  0  0  0  0  0  0  0  0  0
   -5.8420   -0.7537   -5.6765 C   0  0  0  0  0  0  0  0  0  0  0  0
   -5.6107   -2.0281   -6.3286 C   0  0  0  0  0  0  0  0  0  0  0  0
   -6.6587   -2.3755   -7.1205 O   0  0  0  0  0  0  0  0  0  0  0  0
   -4.6034   -3.0348   -6.4045 C   0  0  0  0  0  0  0  0  0  0  0  0
   -4.4527   -3.8841   -5.3537 F   0  0  0  0  0  0  0  0  0  0  0  0
   -3.4387   -2.4919   -6.9445 F   0  0  0  0  0  0  0  0  0  0  0  0
   -5.0467   -3.9600   -7.4667 F   0  0  0  0  0  0  0  0  0  0  0  0
   -7.1957    0.2534   -6.2545 S   0  0  0  0  0  0  0  0  0  0  0  0
   -6.9689    1.5947   -5.2995 C   0  0  0  0  0  0  0  0  0  0  0  0
   -5.8386    1.2610   -4.5220 C   0  0  0  0  0  0  0  0  0  0  0  0
   -5.4907    2.3405   -3.5490 C   0  0  0  0  0  0  0  0  0  0  0  0
   -6.3314    2.6888   -2.4935 C   0  0  0  0  0  0  0  0  0  0  0  0
   -5.9454    3.7202   -1.7295 C   0  0  0  0  0  0  0  0  0  0  0  0
   -6.6101    4.2328   -0.6249 C   0  0  0  0  0  0  0  0  0  0  0  0
   -7.9390    3.7788   -0.2211 C   0  0  0  0  0  0  0  0  0  0  0  0
   -8.6235    3.9069    0.9265 C   0  0  0  0  0  0  0  0  0  0  0  0
   -9.8974    3.5302    1.0478 C   0  0  0  0  0  0  0  0  0  0  0  0
  -10.6072    3.0000    0.0663 C   0  0  0  0  0  0  0  0  0  0  0  0
  -12.2594    2.3981   -0.1669 S   0  0  0  0  0  0  0  0  0  0  0  0
  -12.5724    1.9172   -1.8720 C   0  0  0  0  0  0  0  0  0  0  0  0
  -11.7858    0.6855   -2.2670 C   0  0  0  0  0  0  0  0  0  0  0  0
   -9.2388    3.0087   -1.3570 Se  0  0  0  0  0  2  0  0  0  0  0  0
   -6.0543    5.2991    0.0730 C   0  0  0  0  0  0  0  0  0  0  0  0
   -4.8591    5.9113   -0.2486 C   0  0  0  0  0  0  0  0  0  0  0  0
   -4.1949    5.4040   -1.3495 C   0  0  0  0  0  0  0  0  0  0  0  0
   -2.8494    5.7894   -1.7606 C   0  0  0  0  0  0  0  0  0  0  0  0
   -1.8119    6.4189   -1.2054 C   0  0  0  0  0  0  0  0  0  0  0  0
   -0.6836    6.6840   -1.8751 C   0  0  0  0  0  0  0  0  0  0  0  0
   -0.4611    6.3609   -3.1351 C   0  0  0  0  0  0  0  0  0  0  0  0
    0.8052    6.4809   -4.3518 S   0  0  0  0  0  0  0  0  0  0  0  0
    1.9008    5.0341   -4.2773 C   0  0  0  0  0  0  0  0  0  0  0  0
    1.1384    3.7572   -4.6284 C   0  0  0  0  0  0  0  0  0  0  0  0
   -2.2323    5.4765   -3.5048 Se  0  0  0  0  0  2  0  0  0  0  0  0
   -4.7793    4.3283   -2.0414 C   0  0  0  0  0  0  0  0  0  0  0  0
   -4.2384    3.4357   -3.4218 S   0  0  0  0  0  0  0  0  0  0  0  0
   -4.5183    6.9663    0.5302 C   0  0  0  0  0  0  0  0  0  0  0  0
   -5.3692    7.3228    1.5480 C   0  0  0  0  0  0  0  0  0  0  0  0
   -6.6108    6.1978    1.4008 S   0  0  0  0  0  0  0  0  0  0  0  0
   -5.2365    8.4667    2.5194 C   0  0  0  0  0  0  0  0  0  0  0  0
   -6.2595    8.8955    3.3099 C   0  0  0  0  0  0  0  0  0  0  0  0
   -7.6853    8.5629    3.4019 C   0  0  0  0  0  0  0  0  0  0  0  0
   -8.2172    7.7425    2.6369 O   0  0  0  0  0  0  0  0  0  0  0  0
   -8.5381    9.2046    4.4284 C   0  0  0  0  0  0  0  0  0  0  0  0
   -8.2364    8.7744    5.7179 F   0  0  0  0  0  0  0  0  0  0  0  0
   -9.8547    8.9567    4.1718 F   0  0  0  0  0  0  0  0  0  0  0  0
   -8.2583   10.5755    4.3551 F   0  0  0  0  0  0  0  0  0  0  0  0
   -5.4811   10.1319    4.2718 S   0  0  0  0  0  0  0  0  0  0  0  0
   -3.9172   10.0312    3.6130 C   0  0  0  0  0  0  0  0  0  0  0  0
   -4.0357    9.0560    2.6784 C   0  0  0  0  0  0  0  0  0  0  0  0
   10.7227   -6.0743    3.1312 H   0  0  0  0  0  0  0  0  0  0  0  0
    8.9261   -5.6773    7.0771 H   0  0  0  0  0  0  0  0  0  0  0  0
    8.8510   -5.3918    2.2913 H   0  0  0  0  0  0  0  0  0  0  0  0
    8.3550   -6.2604    0.5283 H   0  0  0  0  0  0  0  0  0  0  0  0
    9.3161   -6.1230   -1.7219 H   0  0  0  0  0  0  0  0  0  0  0  0
    7.6946   -4.8646   -6.2649 H   0  0  0  0  0  0  0  0  0  0  0  0
    6.3655   -5.1742   -5.1072 H   0  0  0  0  0  0  0  0  0  0  0  0
    8.8133   -6.8489   -4.5294 H   0  0  0  0  0  0  0  0  0  0  0  0
    8.0975   -7.0626   -6.2185 H   0  0  0  0  0  0  0  0  0  0  0  0
    7.1038   -7.2648   -4.7655 H   0  0  0  0  0  0  0  0  0  0  0  0
    1.8674   -4.0386    4.4845 H   0  0  0  0  0  0  0  0  0  0  0  0
    1.1182   -3.7525    6.8154 H   0  0  0  0  0  0  0  0  0  0  0  0
    2.2242   -5.5564   10.0117 H   0  0  0  0  0  0  0  0  0  0  0  0
    3.0834   -4.6713   11.3353 H   0  0  0  0  0  0  0  0  0  0  0  0
    4.2220   -6.6747    9.7557 H   0  0  0  0  0  0  0  0  0  0  0  0
    5.0712   -5.5454   10.8364 H   0  0  0  0  0  0  0  0  0  0  0  0
    4.8871   -5.1782    9.0609 H   0  0  0  0  0  0  0  0  0  0  0  0
    2.1829   -2.7179    2.8894 H   0  0  0  0  0  0  0  0  0  0  0  0
    1.5609   -3.4132   -1.6130 H   0  0  0  0  0  0  0  0  0  0  0  0
    0.1118   -4.8921   -2.0691 H   0  0  0  0  0  0  0  0  0  0  0  0
    0.5093   -6.6793   -3.7681 H   0  0  0  0  0  0  0  0  0  0  0  0
    1.7794   -5.5677   -7.9096 H   0  0  0  0  0  0  0  0  0  0  0  0
    2.3026   -6.7465   -6.6359 H   0  0  0  0  0  0  0  0  0  0  0  0
    2.3242   -7.3279   -9.3321 H   0  0  0  0  0  0  0  0  0  0  0  0
    2.0593   -8.5704   -7.9867 H   0  0  0  0  0  0  0  0  0  0  0  0
    0.6492   -7.8508   -8.8982 H   0  0  0  0  0  0  0  0  0  0  0  0
   -3.0030    2.3059   -1.1554 H   0  0  0  0  0  0  0  0  0  0  0  0
   -3.2528    3.7889    0.8222 H   0  0  0  0  0  0  0  0  0  0  0  0
   -0.8394    4.8525    4.7595 H   0  0  0  0  0  0  0  0  0  0  0  0
   -0.5983    4.9488    2.9980 H   0  0  0  0  0  0  0  0  0  0  0  0
    0.3699    2.4390    3.3711 H   0  0  0  0  0  0  0  0  0  0  0  0
    0.5411    2.9673    5.0549 H   0  0  0  0  0  0  0  0  0  0  0  0
    1.3964    3.8604    3.7711 H   0  0  0  0  0  0  0  0  0  0  0  0
   -4.2135    0.7747   -2.1792 H   0  0  0  0  0  0  0  0  0  0  0  0
   -7.5289    2.5572   -5.2441 H   0  0  0  0  0  0  0  0  0  0  0  0
   -7.2419    2.0649   -2.3577 H   0  0  0  0  0  0  0  0  0  0  0  0
   -8.0548    4.3421    1.8114 H   0  0  0  0  0  0  0  0  0  0  0  0
  -10.4501    3.6655    2.0458 H   0  0  0  0  0  0  0  0  0  0  0  0
  -13.6691    1.8012   -1.9928 H   0  0  0  0  0  0  0  0  0  0  0  0
  -12.2049    2.7491   -2.5603 H   0  0  0  0  0  0  0  0  0  0  0  0
  -10.8670    0.9707   -2.8161 H   0  0  0  0  0  0  0  0  0  0  0  0
  -11.5359    0.0279   -1.4194 H   0  0  0  0  0  0  0  0  0  0  0  0
  -12.3922    0.0821   -2.9838 H   0  0  0  0  0  0  0  0  0  0  0  0
   -1.8856    6.6787   -0.0933 H   0  0  0  0  0  0  0  0  0  0  0  0
    0.1645    7.2353   -1.3288 H   0  0  0  0  0  0  0  0  0  0  0  0
    2.3271    4.9010   -3.2686 H   0  0  0  0  0  0  0  0  0  0  0  0
    2.7073    5.1459   -5.0389 H   0  0  0  0  0  0  0  0  0  0  0  0
    0.0829    3.7991   -4.2498 H   0  0  0  0  0  0  0  0  0  0  0  0
    1.1445    3.5590   -5.7094 H   0  0  0  0  0  0  0  0  0  0  0  0
    1.6366    2.9277   -4.0947 H   0  0  0  0  0  0  0  0  0  0  0  0
   -3.6135    7.6116    0.3981 H   0  0  0  0  0  0  0  0  0  0  0  0
   -3.0042   10.6080    3.8747 H   0  0  0  0  0  0  0  0  0  0  0  0
   -3.1226    8.7869    2.0782 H   0  0  0  0  0  0  0  0  0  0  0  0
  1  2  2  0
  2  3  1  0
  3  4  2  0
  3  5  1  0
  5  6  1  0
  5  7  1  0
  5  8  1  0
  2  9  1  0
  9 10  1  0
 10 11  2  0
 11 12  1  0
 12 13  2  0
 13 14  1  0
 14 15  2  0
 15 16  1  0
 16 17  2  0
 17 18  1  0
 18 19  2  0
 19 20  1  0
 20 21  1  0
 21 22  1  0
 19 23  1  0
 15 24  1  0
 24 25  2  0
 25 26  1  0
 26 27  1  0
 27 28  2  0
 28 29  1  0
 29 30  2  0
 30 31  1  0
 31 32  1  0
 32 33  1  0
 30 34  1  0
 26 35  2  0
 35 36  1  0
 25 37  1  0
 37 38  2  0
 38 39  1  0
 38 40  1  0
 40 41  2  0
 41 42  1  0
 42 43  2  0
 43 44  1  0
 44 45  2  0
 45 46  1  0
 46 47  2  0
 47 48  1  0
 48 49  1  0
 49 50  1  0
 47 51  1  0
 43 52  1  0
 52 53  2  0
 53 54  1  0
 54 55  1  0
 55 56  2  0
 56 57  1  0
 57 58  2  0
 58 59  1  0
 59 60  1  0
 60 61  1  0
 58 62  1  0
 54 63  2  0
 63 64  1  0
 53 65  1  0
 65 66  2  0
 66 67  1  0
 66 68  1  0
 68 69  2  0
 69 70  1  0
 70 71  2  0
 70 72  1  0
 72 73  1  0
 72 74  1  0
 72 75  1  0
 69 76  1  0
 76 77  1  0
 77 78  2  0
 78 79  1  0
 79 80  2  0
 80 81  1  0
 81 82  2  0
 82 83  1  0
 83 84  2  0
 84 85  1  0
 85 86  2  0
 86 87  1  0
 87 88  1  0
 88 89  1  0
 86 90  1  0
 82 91  1  0
 91 92  2  0
 92 93  1  0
 93 94  1  0
 94 95  2  0
 95 96  1  0
 96 97  2  0
 97 98  1  0
 98 99  1  0
 99100  1  0
 97101  1  0
 93102  2  0
102103  1  0
 92104  1  0
104105  2  0
105106  1  0
105107  1  0
107108  2  0
108109  1  0
109110  2  0
109111  1  0
111112  1  0
111113  1  0
111114  1  0
108115  1  0
115116  1  0
116117  2  0
 11  1  1  0
 36 12  1  0
 64 40  1  0
 78 68  1  0
103 79  1  0
117107  1  0
 35 14  1  0
 63 42  1  0
102 81  1  0
 23 16  1  0
 39 24  1  0
 51 44  1  0
 67 52  1  0
 90 83  1  0
106 91  1  0
 34 27  1  0
 62 55  1  0
101 94  1  0
  1118  1  0
 10119  1  0
 13120  1  0
 17121  1  0
 18122  1  0
 21123  1  0
 21124  1  0
 22125  1  0
 22126  1  0
 22127  1  0
 28128  1  0
 29129  1  0
 32130  1  0
 32131  1  0
 33132  1  0
 33133  1  0
 33134  1  0
 37135  1  0
 41136  1  0
 45137  1  0
 46138  1  0
 49139  1  0
 49140  1  0
 50141  1  0
 50142  1  0
 50143  1  0
 56144  1  0
 57145  1  0
 60146  1  0
 60147  1  0
 61148  1  0
 61149  1  0
 61150  1  0
 65151  1  0
 77152  1  0
 80153  1  0
 84154  1  0
 85155  1  0
 88156  1  0
 88157  1  0
 89158  1  0
 89159  1  0
 89160  1  0
 95161  1  0
 96162  1  0
 99163  1  0
 99164  1  0
100165  1  0
100166  1  0
100167  1  0
104168  1  0
116169  1  0
117170  1  0
M  END

