
     RDKit          3D

146160  0  0  0  0  0  0  0  0999 V2000
   -0.1578    2.8545   11.7606 C   0  0  0  0  0  0  0  0  0  0  0  0
   -0.9375    1.8001   10.6930 S   0  0  0  0  0  0  0  0  0  0  0  0
    0.1481    1.9405    9.3319 C   0  0  0  0  0  0  0  0  0  0  0  0
    1.0723    2.8153    9.7838 C   0  0  0  0  0  0  0  0  0  0  0  0
    0.9268    3.2928   11.0346 C   0  0  0  0  0  0  0  0  0  0  0  0
    1.8664    4.2195   11.5492 C   0  0  0  0  0  0  0  0  0  0  0  0
    2.9378    4.6670   10.8263 C   0  0  0  0  0  0  0  0  0  0  0  0
    3.9167    5.6489   11.4016 C   0  0  0  0  0  0  0  0  0  0  0  0
    3.9600    6.8071   10.6552 F   0  0  0  0  0  0  0  0  0  0  0  0
    5.1880    5.0882   11.3549 F   0  0  0  0  0  0  0  0  0  0  0  0
    3.5766    5.8600   12.7056 F   0  0  0  0  0  0  0  0  0  0  0  0
    3.0884    4.1897    9.5566 C   0  0  0  0  0  0  0  0  0  0  0  0
    4.1816    4.6350    8.7887 O   0  0  0  0  0  0  0  0  0  0  0  0
    4.3345    4.1408    7.4591 C   0  0  0  0  0  0  0  0  0  0  0  0
    2.1802    3.2865    9.0455 C   0  0  0  0  0  0  0  0  0  0  0  0
   -0.0541    1.1523    8.0953 C   0  0  0  0  0  0  0  0  0  0  0  0
    0.7166    0.8791    7.0134 C   0  0  0  0  0  0  0  0  0  0  0  0
    0.2276    0.0636    6.0439 C   0  0  0  0  0  0  0  0  0  0  0  0
    0.8276   -0.3121    4.8360 C   0  0  0  0  0  0  0  0  0  0  0  0
    2.2110   -0.0342    4.5011 C   0  0  0  0  0  0  0  0  0  0  0  0
    3.2943    0.4536    5.0759 C   0  0  0  0  0  0  0  0  0  0  0  0
    4.4779    0.5752    4.4634 C   0  0  0  0  0  0  0  0  0  0  0  0
    4.7635    0.2413    3.2298 C   0  0  0  0  0  0  0  0  0  0  0  0
    6.0591    0.2146    2.0764 S   0  0  0  0  0  0  0  0  0  0  0  0
    5.5932   -0.6264    0.5640 C   0  0  0  0  0  0  0  0  0  0  0  0
    4.5439    0.0827   -0.2471 C   0  0  0  0  0  0  0  0  0  0  0  0
    2.8872   -0.4262    2.7639 Se  0  0  0  0  0  2  0  0  0  0  0  0
    0.0777   -1.1287    3.9643 C   0  0  0  0  0  0  0  0  0  0  0  0
   -1.1822   -1.6093    4.1802 C   0  0  0  0  0  0  0  0  0  0  0  0
   -1.7656   -1.2388    5.3721 C   0  0  0  0  0  0  0  0  0  0  0  0
   -3.1418   -1.5180    5.7257 C   0  0  0  0  0  0  0  0  0  0  0  0
   -4.2731   -1.8565    5.1079 C   0  0  0  0  0  0  0  0  0  0  0  0
   -5.3965   -2.1519    5.7449 C   0  0  0  0  0  0  0  0  0  0  0  0
   -5.5484   -2.1492    7.0705 C   0  0  0  0  0  0  0  0  0  0  0  0
   -6.8121   -2.4799    8.2346 S   0  0  0  0  0  0  0  0  0  0  0  0
   -7.7684   -0.9652    8.5325 C   0  0  0  0  0  0  0  0  0  0  0  0
   -8.5259   -0.5687    7.2656 C   0  0  0  0  0  0  0  0  0  0  0  0
   -3.7050   -1.6115    7.5572 Se  0  0  0  0  0  2  0  0  0  0  0  0
   -1.0242   -0.4169    6.2459 C   0  0  0  0  0  0  0  0  0  0  0  0
   -1.4954    0.2467    7.7400 S   0  0  0  0  0  0  0  0  0  0  0  0
   -1.7126   -2.3531    3.1833 C   0  0  0  0  0  0  0  0  0  0  0  0
   -0.9775   -2.5575    2.0599 C   0  0  0  0  0  0  0  0  0  0  0  0
    0.4700   -1.7075    2.4112 S   0  0  0  0  0  0  0  0  0  0  0  0
   -1.2756   -3.2880    0.8033 C   0  0  0  0  0  0  0  0  0  0  0  0
   -0.6294   -2.7819   -0.7186 S   0  0  0  0  0  0  0  0  0  0  0  0
   -1.3793   -3.9869   -1.7448 C   0  0  0  0  0  0  0  0  0  0  0  0
   -2.0647   -4.7131   -0.8625 C   0  0  0  0  0  0  0  0  0  0  0  0
   -2.0174   -4.3562    0.4556 C   0  0  0  0  0  0  0  0  0  0  0  0
   -2.7208   -5.1714    1.3661 C   0  0  0  0  0  0  0  0  0  0  0  0
   -3.4260   -6.2700    1.0232 C   0  0  0  0  0  0  0  0  0  0  0  0
   -4.1792   -7.1200    1.9897 C   0  0  0  0  0  0  0  0  0  0  0  0
   -5.5086   -7.0540    1.5567 F   0  0  0  0  0  0  0  0  0  0  0  0
   -4.1222   -6.5947    3.2559 F   0  0  0  0  0  0  0  0  0  0  0  0
   -3.7823   -8.4286    1.9080 F   0  0  0  0  0  0  0  0  0  0  0  0
   -3.4780   -6.6493   -0.3148 C   0  0  0  0  0  0  0  0  0  0  0  0
   -4.1815   -7.7687   -0.7078 O   0  0  0  0  0  0  0  0  0  0  0  0
   -4.2653   -8.1829   -2.0464 C   0  0  0  0  0  0  0  0  0  0  0  0
   -2.8015   -5.8675   -1.2074 C   0  0  0  0  0  0  0  0  0  0  0  0
   -1.2726   -3.7508   -3.1984 C   0  0  0  0  0  0  0  0  0  0  0  0
    0.1311   -3.0247   -3.9398 S   0  0  0  0  0  0  0  0  0  0  0  0
   -0.4858   -2.7538   -5.4990 C   0  0  0  0  0  0  0  0  0  0  0  0
   -1.7533   -3.2378   -5.4243 C   0  0  0  0  0  0  0  0  0  0  0  0
   -2.1496   -3.7480   -4.2345 C   0  0  0  0  0  0  0  0  0  0  0  0
   -3.4804   -4.2026   -4.1844 C   0  0  0  0  0  0  0  0  0  0  0  0
   -4.3511   -4.1544   -5.2476 C   0  0  0  0  0  0  0  0  0  0  0  0
   -5.7562   -4.6610   -5.1491 C   0  0  0  0  0  0  0  0  0  0  0  0
   -5.9021   -5.6538   -6.0871 F   0  0  0  0  0  0  0  0  0  0  0  0
   -6.6432   -3.6519   -5.4310 F   0  0  0  0  0  0  0  0  0  0  0  0
   -5.9884   -5.1484   -3.8714 F   0  0  0  0  0  0  0  0  0  0  0  0
   -3.9419   -3.6333   -6.4654 C   0  0  0  0  0  0  0  0  0  0  0  0
   -4.8312   -3.5907   -7.5293 O   0  0  0  0  0  0  0  0  0  0  0  0
   -4.5436   -3.0887   -8.8015 C   0  0  0  0  0  0  0  0  0  0  0  0
   -2.6551   -3.1919   -6.5126 C   0  0  0  0  0  0  0  0  0  0  0  0
    0.1981   -1.9055   -6.4866 C   0  0  0  0  0  0  0  0  0  0  0  0
   -0.5582   -1.0137   -7.7210 S   0  0  0  0  0  0  0  0  0  0  0  0
    0.8306   -0.1249   -8.2609 C   0  0  0  0  0  0  0  0  0  0  0  0
    1.8214   -0.5854   -7.4551 C   0  0  0  0  0  0  0  0  0  0  0  0
    1.5082   -1.5038   -6.5387 C   0  0  0  0  0  0  0  0  0  0  0  0
    2.5252   -2.0386   -5.7117 C   0  0  0  0  0  0  0  0  0  0  0  0
    3.8398   -1.6569   -5.8056 C   0  0  0  0  0  0  0  0  0  0  0  0
    4.9082   -2.2161   -4.9370 C   0  0  0  0  0  0  0  0  0  0  0  0
    5.5362   -1.2376   -4.1889 F   0  0  0  0  0  0  0  0  0  0  0  0
    5.8136   -2.8541   -5.7784 F   0  0  0  0  0  0  0  0  0  0  0  0
    4.3560   -3.1334   -4.0804 F   0  0  0  0  0  0  0  0  0  0  0  0
    4.1663   -0.7077   -6.7538 C   0  0  0  0  0  0  0  0  0  0  0  0
    5.5077   -0.3437   -6.8211 O   0  0  0  0  0  0  0  0  0  0  0  0
    6.0500    0.5935   -7.7054 C   0  0  0  0  0  0  0  0  0  0  0  0
    3.1776   -0.1919   -7.5523 C   0  0  0  0  0  0  0  0  0  0  0  0
    0.7725    1.0560   -9.1691 C   0  0  0  0  0  0  0  0  0  0  0  0
    0.0846    1.2360  -10.6937 S   0  0  0  0  0  0  0  0  0  0  0  0
    0.2343    2.9238  -10.8793 C   0  0  0  0  0  0  0  0  0  0  0  0
    0.8348    3.3204   -9.7084 C   0  0  0  0  0  0  0  0  0  0  0  0
    1.1194    2.3526   -8.8128 C   0  0  0  0  0  0  0  0  0  0  0  0
    1.6785    2.7295   -7.5795 C   0  0  0  0  0  0  0  0  0  0  0  0
    1.9518    4.0358   -7.2388 C   0  0  0  0  0  0  0  0  0  0  0  0
    2.5600    4.3752   -5.9123 C   0  0  0  0  0  0  0  0  0  0  0  0
    3.7756    5.0098   -6.0473 F   0  0  0  0  0  0  0  0  0  0  0  0
    1.6991    5.1757   -5.2330 F   0  0  0  0  0  0  0  0  0  0  0  0
    2.8355    3.1884   -5.2104 F   0  0  0  0  0  0  0  0  0  0  0  0
    1.6586    5.0208   -8.1544 C   0  0  0  0  0  0  0  0  0  0  0  0
    1.9247    6.3259   -7.8059 O   0  0  0  0  0  0  0  0  0  0  0  0
    1.7221    7.4940   -8.5218 C   0  0  0  0  0  0  0  0  0  0  0  0
    1.1131    4.6654   -9.3627 C   0  0  0  0  0  0  0  0  0  0  0  0
   -0.4426    3.1383   12.8005 H   0  0  0  0  0  0  0  0  0  0  0  0
    1.7748    4.6240   12.5518 H   0  0  0  0  0  0  0  0  0  0  0  0
    4.4612    3.0609    7.4066 H   0  0  0  0  0  0  0  0  0  0  0  0
    3.4131    4.4564    6.9042 H   0  0  0  0  0  0  0  0  0  0  0  0
    5.2243    4.6376    7.0279 H   0  0  0  0  0  0  0  0  0  0  0  0
    2.3608    2.9772    8.0293 H   0  0  0  0  0  0  0  0  0  0  0  0
    1.7066    1.3631    6.9796 H   0  0  0  0  0  0  0  0  0  0  0  0
    3.2327    0.7531    6.1749 H   0  0  0  0  0  0  0  0  0  0  0  0
    5.3535    1.0336    5.0751 H   0  0  0  0  0  0  0  0  0  0  0  0
    6.4320   -0.8824   -0.1030 H   0  0  0  0  0  0  0  0  0  0  0  0
    5.1237   -1.6381    0.8077 H   0  0  0  0  0  0  0  0  0  0  0  0
    3.6461    0.3655    0.3041 H   0  0  0  0  0  0  0  0  0  0  0  0
    4.9776    0.9081   -0.8616 H   0  0  0  0  0  0  0  0  0  0  0  0
    4.2147   -0.6796   -1.0178 H   0  0  0  0  0  0  0  0  0  0  0  0
   -4.2709   -1.8270    3.9560 H   0  0  0  0  0  0  0  0  0  0  0  0
   -6.3353   -2.4408    5.1359 H   0  0  0  0  0  0  0  0  0  0  0  0
   -8.4713   -1.1181    9.3632 H   0  0  0  0  0  0  0  0  0  0  0  0
   -7.0422   -0.1621    8.7764 H   0  0  0  0  0  0  0  0  0  0  0  0
   -9.5304   -0.2061    7.5469 H   0  0  0  0  0  0  0  0  0  0  0  0
   -8.6335   -1.4465    6.5919 H   0  0  0  0  0  0  0  0  0  0  0  0
   -7.9703    0.2234    6.6911 H   0  0  0  0  0  0  0  0  0  0  0  0
   -2.7144   -2.8368    3.2170 H   0  0  0  0  0  0  0  0  0  0  0  0
   -2.6962   -4.9427    2.4354 H   0  0  0  0  0  0  0  0  0  0  0  0
   -4.8539   -9.1116   -2.1774 H   0  0  0  0  0  0  0  0  0  0  0  0
   -4.7540   -7.3872   -2.6851 H   0  0  0  0  0  0  0  0  0  0  0  0
   -3.2199   -8.3221   -2.4513 H   0  0  0  0  0  0  0  0  0  0  0  0
   -2.8354   -6.2150   -2.2324 H   0  0  0  0  0  0  0  0  0  0  0  0
   -3.9237   -4.5885   -3.2848 H   0  0  0  0  0  0  0  0  0  0  0  0
   -3.4647   -3.2134   -9.0304 H   0  0  0  0  0  0  0  0  0  0  0  0
   -4.7394   -1.9857   -8.7896 H   0  0  0  0  0  0  0  0  0  0  0  0
   -5.1260   -3.5946   -9.6051 H   0  0  0  0  0  0  0  0  0  0  0  0
   -2.3290   -2.7761   -7.4719 H   0  0  0  0  0  0  0  0  0  0  0  0
    2.3141   -2.7846   -4.9664 H   0  0  0  0  0  0  0  0  0  0  0  0
    5.8965    1.6028   -7.2452 H   0  0  0  0  0  0  0  0  0  0  0  0
    7.1266    0.3676   -7.8221 H   0  0  0  0  0  0  0  0  0  0  0  0
    5.4959    0.6273   -8.6720 H   0  0  0  0  0  0  0  0  0  0  0  0
    3.4824    0.5459   -8.2822 H   0  0  0  0  0  0  0  0  0  0  0  0
   -0.0733    3.5625  -11.7320 H   0  0  0  0  0  0  0  0  0  0  0  0
    1.9032    2.0080   -6.7962 H   0  0  0  0  0  0  0  0  0  0  0  0
    1.3648    7.3748   -9.5590 H   0  0  0  0  0  0  0  0  0  0  0  0
    2.6895    8.0738   -8.6119 H   0  0  0  0  0  0  0  0  0  0  0  0
    1.0266    8.2034   -8.0124 H   0  0  0  0  0  0  0  0  0  0  0  0
    0.8949    5.4764  -10.0633 H   0  0  0  0  0  0  0  0  0  0  0  0
  1  2  1  0
  2  3  1  0
  3  4  2  0
  4  5  1  0
  5  6  1  0
  6  7  2  0
  7  8  1  0
  8  9  1  0
  8 10  1  0
  8 11  1  0
  7 12  1  0
 12 13  1  0
 13 14  1  0
 12 15  2  0
  3 16  1  0
 16 17  2  0
 17 18  1  0
 18 19  2  0
 19 20  1  0
 20 21  2  0
 21 22  1  0
 22 23  2  0
 23 24  1  0
 24 25  1  0
 25 26  1  0
 23 27  1  0
 19 28  1  0
 28 29  2  0
 29 30  1  0
 30 31  1  0
 31 32  2  0
 32 33  1  0
 33 34  2  0
 34 35  1  0
 35 36  1  0
 36 37  1  0
 34 38  1  0
 30 39  2  0
 39 40  1  0
 29 41  1  0
 41 42  2  0
 42 43  1  0
 42 44  1  0
 44 45  1  0
 45 46  1  0
 46 47  2  0
 47 48  1  0
 48 49  1  0
 49 50  2  0
 50 51  1  0
 51 52  1  0
 51 53  1  0
 51 54  1  0
 50 55  1  0
 55 56  1  0
 56 57  1  0
 55 58  2  0
 46 59  1  0
 59 60  1  0
 60 61  1  0
 61 62  2  0
 62 63  1  0
 63 64  1  0
 64 65  2  0
 65 66  1  0
 66 67  1  0
 66 68  1  0
 66 69  1  0
 65 70  1  0
 70 71  1  0
 71 72  1  0
 70 73  2  0
 61 74  1  0
 74 75  1  0
 75 76  1  0
 76 77  2  0
 77 78  1  0
 78 79  1  0
 79 80  2  0
 80 81  1  0
 81 82  1  0
 81 83  1  0
 81 84  1  0
 80 85  1  0
 85 86  1  0
 86 87  1  0
 85 88  2  0
 76 89  1  0
 89 90  1  0
 90 91  1  0
 91 92  2  0
 92 93  1  0
 93 94  1  0
 94 95  2  0
 95 96  1  0
 96 97  1  0
 96 98  1  0
 96 99  1  0
 95100  1  0
100101  1  0
101102  1  0
100103  2  0
  5  1  2  0
 40 16  1  0
 48 44  2  0
 63 59  2  0
 78 74  2  0
 93 89  2  0
 15  4  1  0
 39 18  1  0
 58 47  1  0
 73 62  1  0
 88 77  1  0
103 92  1  0
 27 20  1  0
 43 28  1  0
 38 31  1  0
  1104  1  0
  6105  1  0
 14106  1  0
 14107  1  0
 14108  1  0
 15109  1  0
 17110  1  0
 21111  1  0
 22112  1  0
 25113  1  0
 25114  1  0
 26115  1  0
 26116  1  0
 26117  1  0
 32118  1  0
 33119  1  0
 36120  1  0
 36121  1  0
 37122  1  0
 37123  1  0
 37124  1  0
 41125  1  0
 49126  1  0
 57127  1  0
 57128  1  0
 57129  1  0
 58130  1  0
 64131  1  0
 72132  1  0
 72133  1  0
 72134  1  0
 73135  1  0
 79136  1  0
 87137  1  0
 87138  1  0
 87139  1  0
 88140  1  0
 91141  1  0
 94142  1  0
102143  1  0
102144  1  0
102145  1  0
103146  1  0
M  END

