
     RDKit          3D

272301  0  0  0  0  0  0  0  0999 V2000
    2.9433   -7.4569    8.3997 C   0  0  0  0  0  0  0  0  0  0  0  0
    2.3891   -6.4981    9.1958 C   0  0  0  0  0  0  0  0  0  0  0  0
    1.4602   -5.6817    8.6620 C   0  0  0  0  0  0  0  0  0  0  0  0
    0.7426   -4.6671    9.3253 C   0  0  0  0  0  0  0  0  0  0  0  0
    1.0469   -4.2591   10.6773 C   0  0  0  0  0  0  0  0  0  0  0  0
    0.3932   -3.5877   11.6422 C   0  0  0  0  0  0  0  0  0  0  0  0
    0.9497   -3.2871   12.8042 C   0  0  0  0  0  0  0  0  0  0  0  0
    2.1873   -3.5835   13.1908 C   0  0  0  0  0  0  0  0  0  0  0  0
    3.2275   -3.4355   14.5781 S   0  0  0  0  0  0  0  0  0  0  0  0
    3.1261   -4.9662   15.5698 C   0  0  0  0  0  0  0  0  0  0  0  0
    3.7137   -6.1565   14.8690 C   0  0  0  0  0  0  0  0  0  0  0  0
    2.7769   -4.5358   11.5209 Se  0  0  0  0  0  2  0  0  0  0  0  0
   -0.2208   -3.9473    8.6479 C   0  0  0  0  0  0  0  0  0  0  0  0
   -0.5483   -4.1537    7.3217 C   0  0  0  0  0  0  0  0  0  0  0  0
    0.1751   -5.1628    6.6497 C   0  0  0  0  0  0  0  0  0  0  0  0
   -0.0155   -5.4741    5.2363 C   0  0  0  0  0  0  0  0  0  0  0  0
    0.6909   -6.2323    4.3708 C   0  0  0  0  0  0  0  0  0  0  0  0
    0.3188   -6.4239    3.1089 C   0  0  0  0  0  0  0  0  0  0  0  0
   -0.7559   -5.9055    2.5528 C   0  0  0  0  0  0  0  0  0  0  0  0
   -1.5761   -5.8386    1.0018 S   0  0  0  0  0  0  0  0  0  0  0  0
   -1.0609   -4.3475    0.0944 C   0  0  0  0  0  0  0  0  0  0  0  0
   -1.5788   -3.1318    0.8176 C   0  0  0  0  0  0  0  0  0  0  0  0
   -1.4324   -4.9138    4.1582 Se  0  0  0  0  0  2  0  0  0  0  0  0
    1.1406   -5.8811    7.3369 C   0  0  0  0  0  0  0  0  0  0  0  0
    2.1661   -7.2039    6.9226 S   0  0  0  0  0  0  0  0  0  0  0  0
   -1.4739   -3.3645    6.8138 C   0  0  0  0  0  0  0  0  0  0  0  0
   -2.0664   -2.3838    7.6284 C   0  0  0  0  0  0  0  0  0  0  0  0
   -1.2781   -2.6314    9.0728 S   0  0  0  0  0  0  0  0  0  0  0  0
   -3.1562   -1.5063    7.1178 C   0  0  0  0  0  0  0  0  0  0  0  0
   -3.4238   -0.2039    7.1554 C   0  0  0  0  0  0  0  0  0  0  0  0
   -4.3747    0.3060    6.3048 C   0  0  0  0  0  0  0  0  0  0  0  0
   -4.6860    1.6589    5.9820 C   0  0  0  0  0  0  0  0  0  0  0  0
   -4.2054    2.7746    6.7524 C   0  0  0  0  0  0  0  0  0  0  0  0
   -4.9158    3.1700    7.8538 C   0  0  0  0  0  0  0  0  0  0  0  0
   -4.5194    4.2336    8.6440 C   0  0  0  0  0  0  0  0  0  0  0  0
   -3.3490    4.9195    8.2968 C   0  0  0  0  0  0  0  0  0  0  0  0
   -2.7857    6.3338    9.1962 S   0  0  0  0  0  0  0  0  0  0  0  0
   -1.7318    5.9070   10.5895 C   0  0  0  0  0  0  0  0  0  0  0  0
   -2.4622    5.2087   11.7264 C   0  0  0  0  0  0  0  0  0  0  0  0
   -2.6528    4.4958    7.1857 C   0  0  0  0  0  0  0  0  0  0  0  0
   -1.5020    5.1384    6.8242 F   0  0  0  0  0  0  0  0  0  0  0  0
   -3.0696    3.4306    6.4087 C   0  0  0  0  0  0  0  0  0  0  0  0
   -5.5200    1.9453    4.9031 C   0  0  0  0  0  0  0  0  0  0  0  0
   -6.1109    1.0348    4.0970 C   0  0  0  0  0  0  0  0  0  0  0  0
   -5.8180   -0.3294    4.4247 C   0  0  0  0  0  0  0  0  0  0  0  0
   -6.3510   -1.3961    3.6206 C   0  0  0  0  0  0  0  0  0  0  0  0
   -5.8126   -1.6788    2.3670 C   0  0  0  0  0  0  0  0  0  0  0  0
   -6.3113   -2.6687    1.5542 C   0  0  0  0  0  0  0  0  0  0  0  0
   -7.3821   -3.4003    2.0035 C   0  0  0  0  0  0  0  0  0  0  0  0
   -8.1044   -4.6859    0.9757 S   0  0  0  0  0  0  0  0  0  0  0  0
   -9.4552   -4.0529   -0.0166 C   0  0  0  0  0  0  0  0  0  0  0  0
   -8.9598   -3.0959   -1.0498 C   0  0  0  0  0  0  0  0  0  0  0  0
   -7.9362   -3.1565    3.2309 C   0  0  0  0  0  0  0  0  0  0  0  0
   -7.4119   -2.1395    4.0428 C   0  0  0  0  0  0  0  0  0  0  0  0
   -8.9759   -3.9059    3.6111 F   0  0  0  0  0  0  0  0  0  0  0  0
   -4.9840   -0.6019    5.4788 C   0  0  0  0  0  0  0  0  0  0  0  0
   -4.2432   -2.0900    5.8965 S   0  0  0  0  0  0  0  0  0  0  0  0
   -6.6530    1.4335    2.9418 C   0  0  0  0  0  0  0  0  0  0  0  0
   -6.5520    2.7876    2.6330 C   0  0  0  0  0  0  0  0  0  0  0  0
   -5.7666    3.4165    3.9533 S   0  0  0  0  0  0  0  0  0  0  0  0
   -6.5961    3.1996    1.1783 C   0  0  0  0  0  0  0  0  0  0  0  0
   -7.3782    3.4108    0.1568 C   0  0  0  0  0  0  0  0  0  0  0  0
   -6.8628    3.3738   -1.1269 C   0  0  0  0  0  0  0  0  0  0  0  0
   -7.5195    3.3232   -2.3780 C   0  0  0  0  0  0  0  0  0  0  0  0
   -8.8996    3.7080   -2.5866 C   0  0  0  0  0  0  0  0  0  0  0  0
   -9.8101    4.4339   -1.9367 C   0  0  0  0  0  0  0  0  0  0  0  0
  -11.0836    4.5267   -2.3259 C   0  0  0  0  0  0  0  0  0  0  0  0
  -11.5933    3.9191   -3.3941 C   0  0  0  0  0  0  0  0  0  0  0  0
  -13.1503    3.7444   -4.1980 S   0  0  0  0  0  0  0  0  0  0  0  0
  -13.3711    4.9769   -5.4783 C   0  0  0  0  0  0  0  0  0  0  0  0
  -12.4424    4.8159   -6.6672 C   0  0  0  0  0  0  0  0  0  0  0  0
   -9.9369    2.9974   -4.0292 Se  0  0  0  0  0  2  0  0  0  0  0  0
   -6.8241    3.0204   -3.5419 C   0  0  0  0  0  0  0  0  0  0  0  0
   -5.4859    2.7615   -3.6016 C   0  0  0  0  0  0  0  0  0  0  0  0
   -4.8096    2.8239   -2.3653 C   0  0  0  0  0  0  0  0  0  0  0  0
   -3.3695    2.6196   -2.2556 C   0  0  0  0  0  0  0  0  0  0  0  0
   -2.6104    2.2303   -1.2313 C   0  0  0  0  0  0  0  0  0  0  0  0
   -1.2809    2.1838   -1.2861 C   0  0  0  0  0  0  0  0  0  0  0  0
   -0.5791    2.5213   -2.3695 C   0  0  0  0  0  0  0  0  0  0  0  0
    1.1276    2.5413   -2.8327 S   0  0  0  0  0  0  0  0  0  0  0  0
    1.9276    4.0148   -2.1902 C   0  0  0  0  0  0  0  0  0  0  0  0
    1.3864    5.2569   -2.8846 C   0  0  0  0  0  0  0  0  0  0  0  0
   -2.0624    3.0110   -3.5809 Se  0  0  0  0  0  2  0  0  0  0  0  0
   -5.5331    3.1176   -1.2274 C   0  0  0  0  0  0  0  0  0  0  0  0
   -5.0221    2.9516    0.3639 S   0  0  0  0  0  0  0  0  0  0  0  0
   -4.9769    2.3097   -4.7281 C   0  0  0  0  0  0  0  0  0  0  0  0
   -5.8800    2.1142   -5.8254 C   0  0  0  0  0  0  0  0  0  0  0  0
   -7.2797    2.5895   -5.1756 S   0  0  0  0  0  0  0  0  0  0  0  0
   -5.2325    1.3312   -6.9648 C   0  0  0  0  0  0  0  0  0  0  0  0
   -4.2696    1.6391   -7.8336 C   0  0  0  0  0  0  0  0  0  0  0  0
   -3.4517    0.6257   -8.2964 C   0  0  0  0  0  0  0  0  0  0  0  0
   -2.1585    0.8001   -8.8513 C   0  0  0  0  0  0  0  0  0  0  0  0
   -1.7155    1.9751   -9.5615 C   0  0  0  0  0  0  0  0  0  0  0  0
   -2.2854    3.0355  -10.1130 C   0  0  0  0  0  0  0  0  0  0  0  0
   -1.6088    4.0638  -10.6482 C   0  0  0  0  0  0  0  0  0  0  0  0
   -0.2802    4.1091  -10.6770 C   0  0  0  0  0  0  0  0  0  0  0  0
    0.9634    5.2330  -11.2368 S   0  0  0  0  0  0  0  0  0  0  0  0
    0.1863    6.7456  -11.8341 C   0  0  0  0  0  0  0  0  0  0  0  0
   -0.4268    7.4245  -10.6075 C   0  0  0  0  0  0  0  0  0  0  0  0
    0.1460    2.3980   -9.7958 Se  0  0  0  0  0  2  0  0  0  0  0  0
   -1.2694   -0.2976   -8.8436 C   0  0  0  0  0  0  0  0  0  0  0  0
   -1.5233   -1.5248   -8.3777 C   0  0  0  0  0  0  0  0  0  0  0  0
   -2.8188   -1.7227   -7.8628 C   0  0  0  0  0  0  0  0  0  0  0  0
   -3.3749   -3.0040   -7.4788 C   0  0  0  0  0  0  0  0  0  0  0  0
   -3.0415   -4.2838   -7.6769 C   0  0  0  0  0  0  0  0  0  0  0  0
   -3.7014   -5.3107   -7.1209 C   0  0  0  0  0  0  0  0  0  0  0  0
   -4.7545   -5.1640   -6.3219 C   0  0  0  0  0  0  0  0  0  0  0  0
   -5.8755   -6.2161   -5.4490 S   0  0  0  0  0  0  0  0  0  0  0  0
   -7.2696   -6.6858   -6.4627 C   0  0  0  0  0  0  0  0  0  0  0  0
   -8.1090   -5.4495   -6.8135 C   0  0  0  0  0  0  0  0  0  0  0  0
   -4.8839   -3.1803   -6.3147 Se  0  0  0  0  0  2  0  0  0  0  0  0
   -3.6968   -0.6202   -7.8508 C   0  0  0  0  0  0  0  0  0  0  0  0
   -5.0607   -0.4054   -6.7960 S   0  0  0  0  0  0  0  0  0  0  0  0
   -0.4311   -2.3282   -8.1042 C   0  0  0  0  0  0  0  0  0  0  0  0
    0.7902   -1.8062   -8.3149 C   0  0  0  0  0  0  0  0  0  0  0  0
    0.4742   -0.2453   -8.9204 S   0  0  0  0  0  0  0  0  0  0  0  0
    2.0492   -2.1873   -7.5363 C   0  0  0  0  0  0  0  0  0  0  0  0
    3.2194   -1.5451   -7.4254 C   0  0  0  0  0  0  0  0  0  0  0  0
    3.9937   -1.8122   -6.3164 C   0  0  0  0  0  0  0  0  0  0  0  0
    5.1190   -1.1237   -5.8746 C   0  0  0  0  0  0  0  0  0  0  0  0
    5.9265   -0.2552   -6.7038 C   0  0  0  0  0  0  0  0  0  0  0  0
    6.0609   -0.0574   -8.0324 C   0  0  0  0  0  0  0  0  0  0  0  0
    6.8347    0.9061   -8.5392 C   0  0  0  0  0  0  0  0  0  0  0  0
    7.5499    1.7617   -7.8201 C   0  0  0  0  0  0  0  0  0  0  0  0
    8.6413    3.0945   -8.1193 S   0  0  0  0  0  0  0  0  0  0  0  0
   10.3246    2.3741   -8.3058 C   0  0  0  0  0  0  0  0  0  0  0  0
   10.3838    1.4921   -9.5282 C   0  0  0  0  0  0  0  0  0  0  0  0
    7.0551    1.1133   -5.9959 Se  0  0  0  0  0  2  0  0  0  0  0  0
    5.6369   -1.3698   -4.5951 C   0  0  0  0  0  0  0  0  0  0  0  0
    5.1264   -2.2628   -3.7048 C   0  0  0  0  0  0  0  0  0  0  0  0
    4.0065   -2.9830   -4.1579 C   0  0  0  0  0  0  0  0  0  0  0  0
    3.3982   -4.0636   -3.4755 C   0  0  0  0  0  0  0  0  0  0  0  0
    2.3506   -4.8300   -3.4753 C   0  0  0  0  0  0  0  0  0  0  0  0
    2.1163   -5.8966   -2.7099 C   0  0  0  0  0  0  0  0  0  0  0  0
    2.9968   -6.3309   -1.7924 C   0  0  0  0  0  0  0  0  0  0  0  0
    3.0167   -7.7286   -0.6899 S   0  0  0  0  0  0  0  0  0  0  0  0
    4.4771   -7.6800    0.3728 C   0  0  0  0  0  0  0  0  0  0  0  0
    5.7601   -7.7519   -0.4023 C   0  0  0  0  0  0  0  0  0  0  0  0
    4.4165   -5.0447   -2.0020 Se  0  0  0  0  0  2  0  0  0  0  0  0
    3.4993   -2.7137   -5.4415 C   0  0  0  0  0  0  0  0  0  0  0  0
    2.0104   -3.1904   -6.1325 S   0  0  0  0  0  0  0  0  0  0  0  0
    5.6741   -2.2606   -2.4666 C   0  0  0  0  0  0  0  0  0  0  0  0
    6.6796   -1.3942   -2.1947 C   0  0  0  0  0  0  0  0  0  0  0  0
    6.8650   -0.5666   -3.6972 S   0  0  0  0  0  0  0  0  0  0  0  0
    7.3572   -1.0344   -0.9235 C   0  0  0  0  0  0  0  0  0  0  0  0
    6.9447   -1.1385    0.3730 C   0  0  0  0  0  0  0  0  0  0  0  0
    7.7442   -0.5748    1.3188 C   0  0  0  0  0  0  0  0  0  0  0  0
    7.5288   -0.5139    2.6936 C   0  0  0  0  0  0  0  0  0  0  0  0
    6.3861   -1.0356    3.3949 C   0  0  0  0  0  0  0  0  0  0  0  0
    6.0426   -1.2680    4.6696 C   0  0  0  0  0  0  0  0  0  0  0  0
    4.8385   -1.6996    5.0498 C   0  0  0  0  0  0  0  0  0  0  0  0
    3.8099   -1.9599    4.2516 C   0  0  0  0  0  0  0  0  0  0  0  0
    2.1601   -2.5074    4.3787 S   0  0  0  0  0  0  0  0  0  0  0  0
    0.9953   -1.1277    4.6343 C   0  0  0  0  0  0  0  0  0  0  0  0
    0.8976   -0.2110    3.4519 C   0  0  0  0  0  0  0  0  0  0  0  0
    4.6865   -1.5102    2.5081 Se  0  0  0  0  0  2  0  0  0  0  0  0
    8.4716    0.1536    3.4862 C   0  0  0  0  0  0  0  0  0  0  0  0
    9.5954    0.7570    3.0613 C   0  0  0  0  0  0  0  0  0  0  0  0
    9.8277    0.6969    1.6762 C   0  0  0  0  0  0  0  0  0  0  0  0
   11.0362    1.1198    1.0202 C   0  0  0  0  0  0  0  0  0  0  0  0
   12.2787    1.4801    1.2961 C   0  0  0  0  0  0  0  0  0  0  0  0
   13.1843    1.8641    0.3914 C   0  0  0  0  0  0  0  0  0  0  0  0
   12.9512    1.9291   -0.9210 C   0  0  0  0  0  0  0  0  0  0  0  0
   13.8310    2.3219   -2.3794 S   0  0  0  0  0  0  0  0  0  0  0  0
   13.6507    4.0879   -2.7281 C   0  0  0  0  0  0  0  0  0  0  0  0
   14.3725    4.4426   -4.0248 C   0  0  0  0  0  0  0  0  0  0  0  0
   11.0729    1.3411   -0.9410 Se  0  0  0  0  0  2  0  0  0  0  0  0
    8.8797    0.0329    0.8811 C   0  0  0  0  0  0  0  0  0  0  0  0
    8.8086   -0.1903   -0.8172 S   0  0  0  0  0  0  0  0  0  0  0  0
   10.3551    1.3962    3.9713 C   0  0  0  0  0  0  0  0  0  0  0  0
    9.9202    1.3799    5.2876 C   0  0  0  0  0  0  0  0  0  0  0  0
    8.4850    0.4824    5.1853 S   0  0  0  0  0  0  0  0  0  0  0  0
    3.7159   -8.2088    8.6865 H   0  0  0  0  0  0  0  0  0  0  0  0
    2.7067   -6.4760   10.2615 H   0  0  0  0  0  0  0  0  0  0  0  0
   -0.6939   -3.3058   11.3893 H   0  0  0  0  0  0  0  0  0  0  0  0
    0.3075   -2.7151   13.5810 H   0  0  0  0  0  0  0  0  0  0  0  0
    3.6456   -4.8217   16.5301 H   0  0  0  0  0  0  0  0  0  0  0  0
    2.0483   -5.1637   15.7507 H   0  0  0  0  0  0  0  0  0  0  0  0
    2.9742   -6.9834   14.7271 H   0  0  0  0  0  0  0  0  0  0  0  0
    4.2195   -5.9030   13.9187 H   0  0  0  0  0  0  0  0  0  0  0  0
    4.5075   -6.6099   15.5028 H   0  0  0  0  0  0  0  0  0  0  0  0
    1.6586   -6.6962    4.7720 H   0  0  0  0  0  0  0  0  0  0  0  0
    0.9845   -7.0875    2.4409 H   0  0  0  0  0  0  0  0  0  0  0  0
    0.0311   -4.2788   -0.0191 H   0  0  0  0  0  0  0  0  0  0  0  0
   -1.4963   -4.3685   -0.9309 H   0  0  0  0  0  0  0  0  0  0  0  0
   -2.5702   -2.8202    0.3753 H   0  0  0  0  0  0  0  0  0  0  0  0
   -1.6909   -3.3382    1.8807 H   0  0  0  0  0  0  0  0  0  0  0  0
   -0.9339   -2.2485    0.6773 H   0  0  0  0  0  0  0  0  0  0  0  0
   -1.8202   -3.3707    5.7635 H   0  0  0  0  0  0  0  0  0  0  0  0
   -2.8971    0.4403    7.8626 H   0  0  0  0  0  0  0  0  0  0  0  0
   -5.8365    2.6437    8.1788 H   0  0  0  0  0  0  0  0  0  0  0  0
   -5.0726    4.5496    9.5053 H   0  0  0  0  0  0  0  0  0  0  0  0
   -1.3034    6.8504   11.0291 H   0  0  0  0  0  0  0  0  0  0  0  0
   -0.9310    5.2143   10.2708 H   0  0  0  0  0  0  0  0  0  0  0  0
   -3.5301    5.4573   11.7904 H   0  0  0  0  0  0  0  0  0  0  0  0
   -2.3620    4.1222   11.6033 H   0  0  0  0  0  0  0  0  0  0  0  0
   -1.9653    5.4652   12.6898 H   0  0  0  0  0  0  0  0  0  0  0  0
   -2.5166    3.1094    5.5431 H   0  0  0  0  0  0  0  0  0  0  0  0
   -4.9615   -1.0989    2.0091 H   0  0  0  0  0  0  0  0  0  0  0  0
   -5.9299   -2.9178    0.5773 H   0  0  0  0  0  0  0  0  0  0  0  0
  -10.2528   -3.6038    0.6362 H   0  0  0  0  0  0  0  0  0  0  0  0
   -9.9881   -4.9315   -0.5122 H   0  0  0  0  0  0  0  0  0  0  0  0
   -8.7029   -2.1208   -0.5763 H   0  0  0  0  0  0  0  0  0  0  0  0
   -9.7393   -2.9279   -1.8413 H   0  0  0  0  0  0  0  0  0  0  0  0
   -8.0673   -3.5595   -1.5401 H   0  0  0  0  0  0  0  0  0  0  0  0
   -7.9167   -2.0032    4.9799 H   0  0  0  0  0  0  0  0  0  0  0  0
   -7.1858    0.7762    2.2214 H   0  0  0  0  0  0  0  0  0  0  0  0
   -8.4732    3.5882    0.3182 H   0  0  0  0  0  0  0  0  0  0  0  0
   -9.4683    5.0179   -1.0205 H   0  0  0  0  0  0  0  0  0  0  0  0
  -11.8231    5.1803   -1.7290 H   0  0  0  0  0  0  0  0  0  0  0  0
  -14.4343    5.0510   -5.8410 H   0  0  0  0  0  0  0  0  0  0  0  0
  -13.0926    6.0017   -5.0519 H   0  0  0  0  0  0  0  0  0  0  0  0
  -12.9469    5.2260   -7.5812 H   0  0  0  0  0  0  0  0  0  0  0  0
  -12.1887    3.7691   -6.7892 H   0  0  0  0  0  0  0  0  0  0  0  0
  -11.5177    5.4327   -6.5801 H   0  0  0  0  0  0  0  0  0  0  0  0
   -3.1333    1.8958   -0.2727 H   0  0  0  0  0  0  0  0  0  0  0  0
   -0.6718    1.8159   -0.3814 H   0  0  0  0  0  0  0  0  0  0  0  0
    1.6805    4.1254   -1.0928 H   0  0  0  0  0  0  0  0  0  0  0  0
    3.0487    3.9774   -2.2860 H   0  0  0  0  0  0  0  0  0  0  0  0
    1.4975    6.1445   -2.2357 H   0  0  0  0  0  0  0  0  0  0  0  0
    0.3322    5.1360   -3.1243 H   0  0  0  0  0  0  0  0  0  0  0  0
    1.9421    5.4637   -3.8155 H   0  0  0  0  0  0  0  0  0  0  0  0
   -3.9180    2.0655   -4.9242 H   0  0  0  0  0  0  0  0  0  0  0  0
   -4.1253    2.6869   -8.1500 H   0  0  0  0  0  0  0  0  0  0  0  0
   -3.4335    3.0580  -10.1770 H   0  0  0  0  0  0  0  0  0  0  0  0
   -2.1616    4.9532  -11.1075 H   0  0  0  0  0  0  0  0  0  0  0  0
    1.0050    7.4075  -12.2211 H   0  0  0  0  0  0  0  0  0  0  0  0
   -0.5760    6.5283  -12.5942 H   0  0  0  0  0  0  0  0  0  0  0  0
   -1.0001    6.6936  -10.0578 H   0  0  0  0  0  0  0  0  0  0  0  0
   -1.0002    8.2831  -10.9659 H   0  0  0  0  0  0  0  0  0  0  0  0
    0.4585    7.7927  -10.0209 H   0  0  0  0  0  0  0  0  0  0  0  0
   -2.1751   -4.5005   -8.3855 H   0  0  0  0  0  0  0  0  0  0  0  0
   -3.3533   -6.3842   -7.3365 H   0  0  0  0  0  0  0  0  0  0  0  0
   -7.9268   -7.3852   -5.8994 H   0  0  0  0  0  0  0  0  0  0  0  0
   -6.9891   -7.1332   -7.4443 H   0  0  0  0  0  0  0  0  0  0  0  0
   -9.1752   -5.7225   -6.6703 H   0  0  0  0  0  0  0  0  0  0  0  0
   -7.8561   -4.6338   -6.1246 H   0  0  0  0  0  0  0  0  0  0  0  0
   -7.9489   -5.1788   -7.8657 H   0  0  0  0  0  0  0  0  0  0  0  0
   -0.5142   -3.3482   -7.7054 H   0  0  0  0  0  0  0  0  0  0  0  0
    3.5186   -0.8175   -8.2004 H   0  0  0  0  0  0  0  0  0  0  0  0
    5.5198   -0.8078   -8.7119 H   0  0  0  0  0  0  0  0  0  0  0  0
    6.8926    1.0253   -9.6787 H   0  0  0  0  0  0  0  0  0  0  0  0
   10.6203    1.8436   -7.3843 H   0  0  0  0  0  0  0  0  0  0  0  0
   10.9931    3.2565   -8.5264 H   0  0  0  0  0  0  0  0  0  0  0  0
   11.0150    1.9140  -10.3639 H   0  0  0  0  0  0  0  0  0  0  0  0
    9.3552    1.3224   -9.8978 H   0  0  0  0  0  0  0  0  0  0  0  0
   10.7906    0.4625   -9.2891 H   0  0  0  0  0  0  0  0  0  0  0  0
    1.4996   -4.5801   -4.2249 H   0  0  0  0  0  0  0  0  0  0  0  0
    1.1536   -6.5111   -2.7741 H   0  0  0  0  0  0  0  0  0  0  0  0
    4.4205   -6.6913    0.9487 H   0  0  0  0  0  0  0  0  0  0  0  0
    4.3813   -8.5058    1.1203 H   0  0  0  0  0  0  0  0  0  0  0  0
    5.6987   -7.1700   -1.3287 H   0  0  0  0  0  0  0  0  0  0  0  0
    6.5847   -7.4037    0.2635 H   0  0  0  0  0  0  0  0  0  0  0  0
    5.9380   -8.8190   -0.6853 H   0  0  0  0  0  0  0  0  0  0  0  0
    5.3358   -2.9163   -1.6361 H   0  0  0  0  0  0  0  0  0  0  0  0
    5.9995   -1.6980    0.5534 H   0  0  0  0  0  0  0  0  0  0  0  0
    6.8605   -1.1106    5.4587 H   0  0  0  0  0  0  0  0  0  0  0  0
    4.6634   -1.8489    6.1772 H   0  0  0  0  0  0  0  0  0  0  0  0
   -0.0197   -1.4692    4.9300 H   0  0  0  0  0  0  0  0  0  0  0  0
    1.3633   -0.5025    5.4991 H   0  0  0  0  0  0  0  0  0  0  0  0
    0.9040    0.8573    3.7496 H   0  0  0  0  0  0  0  0  0  0  0  0
    1.7559   -0.3495    2.7399 H   0  0  0  0  0  0  0  0  0  0  0  0
   -0.0637   -0.3375    2.8829 H   0  0  0  0  0  0  0  0  0  0  0  0
   12.6098    1.4345    2.3913 H   0  0  0  0  0  0  0  0  0  0  0  0
   14.2371    2.1827    0.7390 H   0  0  0  0  0  0  0  0  0  0  0  0
   14.0148    4.7394   -1.9114 H   0  0  0  0  0  0  0  0  0  0  0  0
   12.5685    4.3155   -2.8395 H   0  0  0  0  0  0  0  0  0  0  0  0
   14.7584    3.4605   -4.4389 H   0  0  0  0  0  0  0  0  0  0  0  0
   15.1853    5.1525   -3.8820 H   0  0  0  0  0  0  0  0  0  0  0  0
   13.6648    4.8513   -4.7722 H   0  0  0  0  0  0  0  0  0  0  0  0
   11.2618    1.9871    3.7612 H   0  0  0  0  0  0  0  0  0  0  0  0
   10.4388    1.8646    6.1402 H   0  0  0  0  0  0  0  0  0  0  0  0
  1  2  2  0
  2  3  1  0
  3  4  2  0
  4  5  1  0
  5  6  2  0
  6  7  1  0
  7  8  2  0
  8  9  1  0
  9 10  1  0
 10 11  1  0
  8 12  1  0
  4 13  1  0
 13 14  2  0
 14 15  1  0
 15 16  1  0
 16 17  2  0
 17 18  1  0
 18 19  2  0
 19 20  1  0
 20 21  1  0
 21 22  1  0
 19 23  1  0
 15 24  2  0
 24 25  1  0
 14 26  1  0
 26 27  2  0
 27 28  1  0
 27 29  1  0
 29 30  2  0
 30 31  1  0
 31 32  2  0
 32 33  1  0
 33 34  2  0
 34 35  1  0
 35 36  2  0
 36 37  1  0
 37 38  1  0
 38 39  1  0
 36 40  1  0
 40 41  1  0
 40 42  2  0
 32 43  1  0
 43 44  2  0
 44 45  1  0
 45 46  1  0
 46 47  2  0
 47 48  1  0
 48 49  2  0
 49 50  1  0
 50 51  1  0
 51 52  1  0
 49 53  1  0
 53 54  2  0
 53 55  1  0
 45 56  2  0
 56 57  1  0
 44 58  1  0
 58 59  2  0
 59 60  1  0
 59 61  1  0
 61 62  2  0
 62 63  1  0
 63 64  2  0
 64 65  1  0
 65 66  2  0
 66 67  1  0
 67 68  2  0
 68 69  1  0
 69 70  1  0
 70 71  1  0
 68 72  1  0
 64 73  1  0
 73 74  2  0
 74 75  1  0
 75 76  1  0
 76 77  2  0
 77 78  1  0
 78 79  2  0
 79 80  1  0
 80 81  1  0
 81 82  1  0
 79 83  1  0
 75 84  2  0
 84 85  1  0
 74 86  1  0
 86 87  2  0
 87 88  1  0
 87 89  1  0
 89 90  2  0
 90 91  1  0
 91 92  2  0
 92 93  1  0
 93 94  2  0
 94 95  1  0
 95 96  2  0
 96 97  1  0
 97 98  1  0
 98 99  1  0
 96100  1  0
 92101  1  0
101102  2  0
102103  1  0
103104  1  0
104105  2  0
105106  1  0
106107  2  0
107108  1  0
108109  1  0
109110  1  0
107111  1  0
103112  2  0
112113  1  0
102114  1  0
114115  2  0
115116  1  0
115117  1  0
117118  2  0
118119  1  0
119120  2  0
120121  1  0
121122  2  0
122123  1  0
123124  2  0
124125  1  0
125126  1  0
126127  1  0
124128  1  0
120129  1  0
129130  2  0
130131  1  0
131132  1  0
132133  2  0
133134  1  0
134135  2  0
135136  1  0
136137  1  0
137138  1  0
135139  1  0
131140  2  0
140141  1  0
130142  1  0
142143  2  0
143144  1  0
143145  1  0
145146  2  0
146147  1  0
147148  2  0
148149  1  0
149150  2  0
150151  1  0
151152  2  0
152153  1  0
153154  1  0
154155  1  0
152156  1  0
148157  1  0
157158  2  0
158159  1  0
159160  1  0
160161  2  0
161162  1  0
162163  2  0
163164  1  0
164165  1  0
165166  1  0
163167  1  0
159168  2  0
168169  1  0
158170  1  0
170171  2  0
171172  1  0
 25  1  1  0
 57 29  1  0
 85 61  1  0
113 89  1  0
141117  1  0
169145  1  0
 24  3  1  0
 56 31  1  0
 84 63  1  0
112 91  1  0
140119  1  0
168147  1  0
 12  5  1  0
 28 13  1  0
 42 33  1  0
 60 43  1  0
 72 65  1  0
 88 73  1  0
100 93  1  0
116101  1  0
128121  1  0
144129  1  0
156149  1  0
172157  1  0
 23 16  1  0
 54 46  1  0
 83 76  1  0
111104  1  0
139132  1  0
167160  1  0
  1173  1  0
  2174  1  0
  6175  1  0
  7176  1  0
 10177  1  0
 10178  1  0
 11179  1  0
 11180  1  0
 11181  1  0
 17182  1  0
 18183  1  0
 21184  1  0
 21185  1  0
 22186  1  0
 22187  1  0
 22188  1  0
 26189  1  0
 30190  1  0
 34191  1  0
 35192  1  0
 38193  1  0
 38194  1  0
 39195  1  0
 39196  1  0
 39197  1  0
 42198  1  0
 47199  1  0
 48200  1  0
 51201  1  0
 51202  1  0
 52203  1  0
 52204  1  0
 52205  1  0
 54206  1  0
 58207  1  0
 62208  1  0
 66209  1  0
 67210  1  0
 70211  1  0
 70212  1  0
 71213  1  0
 71214  1  0
 71215  1  0
 77216  1  0
 78217  1  0
 81218  1  0
 81219  1  0
 82220  1  0
 82221  1  0
 82222  1  0
 86223  1  0
 90224  1  0
 94225  1  0
 95226  1  0
 98227  1  0
 98228  1  0
 99229  1  0
 99230  1  0
 99231  1  0
105232  1  0
106233  1  0
109234  1  0
109235  1  0
110236  1  0
110237  1  0
110238  1  0
114239  1  0
118240  1  0
122241  1  0
123242  1  0
126243  1  0
126244  1  0
127245  1  0
127246  1  0
127247  1  0
133248  1  0
134249  1  0
137250  1  0
137251  1  0
138252  1  0
138253  1  0
138254  1  0
142255  1  0
146256  1  0
150257  1  0
151258  1  0
154259  1  0
154260  1  0
155261  1  0
155262  1  0
155263  1  0
161264  1  0
162265  1  0
165266  1  0
165267  1  0
166268  1  0
166269  1  0
166270  1  0
170271  1  0
171272  1  0
M  END

