
     RDKit          3D

290319  0  0  0  0  0  0  0  0999 V2000
    6.8370   -6.6980   -8.2554 C   0  0  0  0  0  0  0  0  0  0  0  0
    5.7683   -5.8960   -8.0062 C   0  0  0  0  0  0  0  0  0  0  0  0
    5.5316   -4.8721   -8.8613 C   0  0  0  0  0  0  0  0  0  0  0  0
    4.4924   -3.9724   -8.7942 C   0  0  0  0  0  0  0  0  0  0  0  0
    3.6204   -3.7655   -7.6380 C   0  0  0  0  0  0  0  0  0  0  0  0
    2.4453   -3.1156   -7.4754 C   0  0  0  0  0  0  0  0  0  0  0  0
    1.9578   -2.8656   -6.2632 C   0  0  0  0  0  0  0  0  0  0  0  0
    2.5310   -3.2066   -5.1238 C   0  0  0  0  0  0  0  0  0  0  0  0
    2.2980   -2.8803   -3.3994 S   0  0  0  0  0  0  0  0  0  0  0  0
    1.2026   -1.4211   -3.2714 C   0  0  0  0  0  0  0  0  0  0  0  0
    1.0641   -1.0238   -1.8391 C   0  0  0  0  0  0  0  0  0  0  0  0
    4.1493   -4.1116   -5.8452 Se  0  0  0  0  0  2  0  0  0  0  0  0
    4.3923   -2.9862   -9.7962 C   0  0  0  0  0  0  0  0  0  0  0  0
    5.2326   -2.8046  -10.8447 C   0  0  0  0  0  0  0  0  0  0  0  0
    6.2854   -3.7304  -10.9082 C   0  0  0  0  0  0  0  0  0  0  0  0
    7.2110   -3.8431  -12.0029 C   0  0  0  0  0  0  0  0  0  0  0  0
    7.4110   -3.5086  -13.2552 C   0  0  0  0  0  0  0  0  0  0  0  0
    8.5025   -3.7587  -13.9770 C   0  0  0  0  0  0  0  0  0  0  0  0
    9.5672   -4.4095  -13.4989 C   0  0  0  0  0  0  0  0  0  0  0  0
   11.1579   -4.9095  -14.0576 S   0  0  0  0  0  0  0  0  0  0  0  0
   12.4292   -3.6807  -13.5867 C   0  0  0  0  0  0  0  0  0  0  0  0
   12.5896   -3.6473  -12.0784 C   0  0  0  0  0  0  0  0  0  0  0  0
    8.9574   -4.7624  -11.6583 Se  0  0  0  0  0  2  0  0  0  0  0  0
    6.3892   -4.7257   -9.9119 C   0  0  0  0  0  0  0  0  0  0  0  0
    7.4799   -6.0054   -9.6725 S   0  0  0  0  0  0  0  0  0  0  0  0
    4.9589   -1.7321  -11.6646 C   0  0  0  0  0  0  0  0  0  0  0  0
    3.9569   -0.9585  -11.4415 C   0  0  0  0  0  0  0  0  0  0  0  0
    3.2853   -1.7417   -9.9616 S   0  0  0  0  0  0  0  0  0  0  0  0
    3.3022    0.3453  -11.7214 C   0  0  0  0  0  0  0  0  0  0  0  0
    3.6840    1.6065  -11.3717 C   0  0  0  0  0  0  0  0  0  0  0  0
    2.6954    2.5522  -11.1942 C   0  0  0  0  0  0  0  0  0  0  0  0
    2.8368    3.7380  -10.4075 C   0  0  0  0  0  0  0  0  0  0  0  0
    4.0920    4.4103  -10.2301 C   0  0  0  0  0  0  0  0  0  0  0  0
    4.4686    5.2207  -11.3238 C   0  0  0  0  0  0  0  0  0  0  0  0
    5.6000    5.9594  -11.3249 C   0  0  0  0  0  0  0  0  0  0  0  0
    6.4589    5.9669  -10.2472 C   0  0  0  0  0  0  0  0  0  0  0  0
    7.9211    6.9660  -10.2251 S   0  0  0  0  0  0  0  0  0  0  0  0
    9.3901    6.1595  -10.8852 C   0  0  0  0  0  0  0  0  0  0  0  0
   10.5435    7.1492  -10.9232 C   0  0  0  0  0  0  0  0  0  0  0  0
    6.1138    5.1836   -9.1699 C   0  0  0  0  0  0  0  0  0  0  0  0
    6.9349    5.1611   -8.0881 F   0  0  0  0  0  0  0  0  0  0  0  0
    4.9410    4.4199   -9.1792 C   0  0  0  0  0  0  0  0  0  0  0  0
    1.6726    4.3593   -9.9090 C   0  0  0  0  0  0  0  0  0  0  0  0
    0.4136    3.9859  -10.1133 C   0  0  0  0  0  0  0  0  0  0  0  0
    0.2790    2.8204  -10.9280 C   0  0  0  0  0  0  0  0  0  0  0  0
   -1.0096    2.2856  -11.2767 C   0  0  0  0  0  0  0  0  0  0  0  0
   -1.7599    1.7754  -10.2053 C   0  0  0  0  0  0  0  0  0  0  0  0
   -2.9887    1.2072  -10.3743 C   0  0  0  0  0  0  0  0  0  0  0  0
   -3.5261    1.1262  -11.6562 C   0  0  0  0  0  0  0  0  0  0  0  0
   -5.1211    0.3546  -11.8190 S   0  0  0  0  0  0  0  0  0  0  0  0
   -6.4982    1.4903  -11.7539 C   0  0  0  0  0  0  0  0  0  0  0  0
   -6.7002    2.1724  -10.4394 C   0  0  0  0  0  0  0  0  0  0  0  0
   -2.7867    1.6309  -12.6932 C   0  0  0  0  0  0  0  0  0  0  0  0
   -1.5323    2.2116  -12.5369 C   0  0  0  0  0  0  0  0  0  0  0  0
   -3.3358    1.5359  -13.9488 F   0  0  0  0  0  0  0  0  0  0  0  0
    1.4177    2.1912  -11.3922 C   0  0  0  0  0  0  0  0  0  0  0  0
    1.5871    0.4938  -11.8422 S   0  0  0  0  0  0  0  0  0  0  0  0
   -0.5669    4.3984   -9.2204 C   0  0  0  0  0  0  0  0  0  0  0  0
   -0.1240    5.1538   -8.1681 C   0  0  0  0  0  0  0  0  0  0  0  0
    1.5177    5.3374   -8.4222 S   0  0  0  0  0  0  0  0  0  0  0  0
   -0.8923    5.1375   -6.8408 C   0  0  0  0  0  0  0  0  0  0  0  0
   -2.1372    4.8314   -6.5336 C   0  0  0  0  0  0  0  0  0  0  0  0
   -2.4114    4.3794   -5.2599 C   0  0  0  0  0  0  0  0  0  0  0  0
   -3.5999    3.7928   -4.8106 C   0  0  0  0  0  0  0  0  0  0  0  0
   -4.8683    3.8676   -5.4939 C   0  0  0  0  0  0  0  0  0  0  0  0
   -5.4767    5.1401   -5.5032 C   0  0  0  0  0  0  0  0  0  0  0  0
   -6.7158    5.3620   -6.0699 C   0  0  0  0  0  0  0  0  0  0  0  0
   -7.4158    4.3147   -6.6558 C   0  0  0  0  0  0  0  0  0  0  0  0
   -9.0587    4.6127   -7.3329 S   0  0  0  0  0  0  0  0  0  0  0  0
  -10.1994    4.4413   -5.9069 C   0  0  0  0  0  0  0  0  0  0  0  0
  -10.1723    3.0541   -5.3513 C   0  0  0  0  0  0  0  0  0  0  0  0
   -6.8124    3.0762   -6.6455 C   0  0  0  0  0  0  0  0  0  0  0  0
   -7.4514    2.0556   -7.2132 F   0  0  0  0  0  0  0  0  0  0  0  0
   -5.5607    2.8550   -6.0750 C   0  0  0  0  0  0  0  0  0  0  0  0
   -3.6109    3.1475   -3.5580 C   0  0  0  0  0  0  0  0  0  0  0  0
   -2.5570    3.0386   -2.7135 C   0  0  0  0  0  0  0  0  0  0  0  0
   -1.3946    3.6494   -3.1553 C   0  0  0  0  0  0  0  0  0  0  0  0
   -0.1245    3.6605   -2.4622 C   0  0  0  0  0  0  0  0  0  0  0  0
    0.8182    2.7080   -2.8257 C   0  0  0  0  0  0  0  0  0  0  0  0
    2.0878    2.7383   -2.3150 C   0  0  0  0  0  0  0  0  0  0  0  0
    2.4533    3.7350   -1.4113 C   0  0  0  0  0  0  0  0  0  0  0  0
    4.1289    3.7861   -0.8597 S   0  0  0  0  0  0  0  0  0  0  0  0
    4.4812    2.8234    0.5969 C   0  0  0  0  0  0  0  0  0  0  0  0
    4.2894    1.3227    0.3866 C   0  0  0  0  0  0  0  0  0  0  0  0
    1.5137    4.6722   -1.0501 C   0  0  0  0  0  0  0  0  0  0  0  0
    0.2188    4.6373   -1.5739 C   0  0  0  0  0  0  0  0  0  0  0  0
    1.8522    5.6528   -0.1687 F   0  0  0  0  0  0  0  0  0  0  0  0
   -1.3740    4.2939   -4.4115 C   0  0  0  0  0  0  0  0  0  0  0  0
   -0.0390    4.8495   -5.3479 S   0  0  0  0  0  0  0  0  0  0  0  0
   -2.7322    2.2374   -1.6121 C   0  0  0  0  0  0  0  0  0  0  0  0
   -3.9340    1.6358   -1.4752 C   0  0  0  0  0  0  0  0  0  0  0  0
   -4.8186    2.1513   -2.8045 S   0  0  0  0  0  0  0  0  0  0  0  0
   -4.2773    0.5635   -0.5240 C   0  0  0  0  0  0  0  0  0  0  0  0
   -3.3855   -0.4182   -0.1433 C   0  0  0  0  0  0  0  0  0  0  0  0
   -3.8377   -1.3958    0.6790 C   0  0  0  0  0  0  0  0  0  0  0  0
   -3.0907   -2.4301    1.2475 C   0  0  0  0  0  0  0  0  0  0  0  0
   -1.6809   -2.6857    1.0853 C   0  0  0  0  0  0  0  0  0  0  0  0
   -1.1191   -3.3015    0.0348 C   0  0  0  0  0  0  0  0  0  0  0  0
    0.2668   -3.6008    0.0313 C   0  0  0  0  0  0  0  0  0  0  0  0
    1.0494   -3.2619    1.1199 C   0  0  0  0  0  0  0  0  0  0  0  0
    2.7997   -3.6588    1.0863 S   0  0  0  0  0  0  0  0  0  0  0  0
    3.6227   -3.0434    2.5980 C   0  0  0  0  0  0  0  0  0  0  0  0
    3.7116   -1.5511    2.6319 C   0  0  0  0  0  0  0  0  0  0  0  0
    0.4781   -2.6324    2.1959 C   0  0  0  0  0  0  0  0  0  0  0  0
    1.2085   -2.3185    3.2824 F   0  0  0  0  0  0  0  0  0  0  0  0
   -0.8696   -2.3449    2.1751 C   0  0  0  0  0  0  0  0  0  0  0  0
   -3.7323   -3.2840    2.1700 C   0  0  0  0  0  0  0  0  0  0  0  0
   -4.9977   -3.2072    2.5695 C   0  0  0  0  0  0  0  0  0  0  0  0
   -5.7564   -2.1761    1.9841 C   0  0  0  0  0  0  0  0  0  0  0  0
   -7.1677   -2.0188    2.3155 C   0  0  0  0  0  0  0  0  0  0  0  0
   -8.2079   -2.6197    1.6641 C   0  0  0  0  0  0  0  0  0  0  0  0
   -9.5205   -2.4959    2.0671 C   0  0  0  0  0  0  0  0  0  0  0  0
   -9.8543   -1.7312    3.1827 C   0  0  0  0  0  0  0  0  0  0  0  0
  -11.5343   -1.6028    3.7256 S   0  0  0  0  0  0  0  0  0  0  0  0
  -12.4348   -0.2012    3.0937 C   0  0  0  0  0  0  0  0  0  0  0  0
  -12.7037   -0.2122    1.6184 C   0  0  0  0  0  0  0  0  0  0  0  0
   -8.8140   -1.1209    3.8461 C   0  0  0  0  0  0  0  0  0  0  0  0
   -7.5203   -1.2518    3.4308 C   0  0  0  0  0  0  0  0  0  0  0  0
   -9.1423   -0.3733    4.9213 F   0  0  0  0  0  0  0  0  0  0  0  0
   -5.1419   -1.3248    1.0675 C   0  0  0  0  0  0  0  0  0  0  0  0
   -5.6838    0.0960    0.2594 S   0  0  0  0  0  0  0  0  0  0  0  0
   -5.3478   -4.0155    3.6331 C   0  0  0  0  0  0  0  0  0  0  0  0
   -4.4127   -4.7905    4.1786 C   0  0  0  0  0  0  0  0  0  0  0  0
   -3.0060   -4.4556    3.2121 S   0  0  0  0  0  0  0  0  0  0  0  0
   -4.2238   -5.2506    5.6332 C   0  0  0  0  0  0  0  0  0  0  0  0
   -3.1309   -5.7771    6.2109 C   0  0  0  0  0  0  0  0  0  0  0  0
   -2.9406   -5.5511    7.5604 C   0  0  0  0  0  0  0  0  0  0  0  0
   -1.7362   -5.6910    8.2668 C   0  0  0  0  0  0  0  0  0  0  0  0
   -0.6276   -6.5700    7.9522 C   0  0  0  0  0  0  0  0  0  0  0  0
   -0.3660   -7.6152    7.1678 C   0  0  0  0  0  0  0  0  0  0  0  0
    0.8362   -8.2169    7.1090 C   0  0  0  0  0  0  0  0  0  0  0  0
    1.8952   -7.8688    7.7984 C   0  0  0  0  0  0  0  0  0  0  0  0
    3.5523   -8.3163    8.1414 S   0  0  0  0  0  0  0  0  0  0  0  0
    4.0264   -9.9047    7.5101 C   0  0  0  0  0  0  0  0  0  0  0  0
    4.0802  -10.0268    6.0301 C   0  0  0  0  0  0  0  0  0  0  0  0
    1.0913   -6.3305    8.7947 Se  0  0  0  0  0  2  0  0  0  0  0  0
   -1.6214   -5.0275    9.5193 C   0  0  0  0  0  0  0  0  0  0  0  0
   -2.5719   -4.2792   10.1190 C   0  0  0  0  0  0  0  0  0  0  0  0
   -3.7843   -4.1817    9.4250 C   0  0  0  0  0  0  0  0  0  0  0  0
   -4.9834   -3.5489    9.9392 C   0  0  0  0  0  0  0  0  0  0  0  0
   -5.4705   -3.1883   11.1293 C   0  0  0  0  0  0  0  0  0  0  0  0
   -6.5886   -2.4790   11.2897 C   0  0  0  0  0  0  0  0  0  0  0  0
   -7.3634   -2.0392   10.3200 C   0  0  0  0  0  0  0  0  0  0  0  0
   -8.8270   -1.1270   10.0213 S   0  0  0  0  0  0  0  0  0  0  0  0
  -10.3099   -2.1372    9.9315 C   0  0  0  0  0  0  0  0  0  0  0  0
  -10.3417   -3.0947    8.7671 C   0  0  0  0  0  0  0  0  0  0  0  0
   -6.3018   -2.7842    8.7560 Se  0  0  0  0  0  2  0  0  0  0  0  0
   -3.8987   -4.8220    8.1741 C   0  0  0  0  0  0  0  0  0  0  0  0
   -5.0391   -4.4760    6.9201 S   0  0  0  0  0  0  0  0  0  0  0  0
   -2.1439   -3.4512   11.1449 C   0  0  0  0  0  0  0  0  0  0  0  0
   -0.8506   -3.4456   11.4559 C   0  0  0  0  0  0  0  0  0  0  0  0
   -0.1797   -4.6032   10.3678 S   0  0  0  0  0  0  0  0  0  0  0  0
   -0.0107   -2.3693   12.1065 C   0  0  0  0  0  0  0  0  0  0  0  0
    1.3262   -2.3443   12.3060 C   0  0  0  0  0  0  0  0  0  0  0  0
    1.8772   -1.1501   12.6284 C   0  0  0  0  0  0  0  0  0  0  0  0
    3.2558   -0.8626   12.7787 C   0  0  0  0  0  0  0  0  0  0  0  0
    4.2376   -1.9206   12.6842 C   0  0  0  0  0  0  0  0  0  0  0  0
    4.3699   -2.8537   13.6975 C   0  0  0  0  0  0  0  0  0  0  0  0
    5.2698   -3.8873   13.6329 C   0  0  0  0  0  0  0  0  0  0  0  0
    6.0870   -4.0351   12.5357 C   0  0  0  0  0  0  0  0  0  0  0  0
    7.1927   -5.4027   12.4906 S   0  0  0  0  0  0  0  0  0  0  0  0
    8.2838   -5.4143   11.0442 C   0  0  0  0  0  0  0  0  0  0  0  0
    9.2574   -4.2735   11.1846 C   0  0  0  0  0  0  0  0  0  0  0  0
    5.9911   -3.1299   11.5033 C   0  0  0  0  0  0  0  0  0  0  0  0
    6.7716   -3.1966   10.4008 F   0  0  0  0  0  0  0  0  0  0  0  0
    5.0597   -2.0772   11.5951 C   0  0  0  0  0  0  0  0  0  0  0  0
    3.6642    0.4233   13.0067 C   0  0  0  0  0  0  0  0  0  0  0  0
    2.8316    1.5043   13.1000 C   0  0  0  0  0  0  0  0  0  0  0  0
    1.4623    1.2245   12.9532 C   0  0  0  0  0  0  0  0  0  0  0  0
    0.4584    2.2707   12.8929 C   0  0  0  0  0  0  0  0  0  0  0  0
    0.0933    3.1441   13.8534 C   0  0  0  0  0  0  0  0  0  0  0  0
   -0.9132    4.0586   13.6242 C   0  0  0  0  0  0  0  0  0  0  0  0
   -1.6003    4.1472   12.4348 C   0  0  0  0  0  0  0  0  0  0  0  0
   -2.8920    5.3197   12.1161 S   0  0  0  0  0  0  0  0  0  0  0  0
   -2.2078    6.7974   11.2942 C   0  0  0  0  0  0  0  0  0  0  0  0
   -3.3341    7.7936   11.0255 C   0  0  0  0  0  0  0  0  0  0  0  0
   -1.2393    3.2576   11.4340 C   0  0  0  0  0  0  0  0  0  0  0  0
   -0.2293    2.3489   11.6731 C   0  0  0  0  0  0  0  0  0  0  0  0
   -1.8908    3.3101   10.2382 F   0  0  0  0  0  0  0  0  0  0  0  0
    1.0418   -0.0791   12.7306 C   0  0  0  0  0  0  0  0  0  0  0  0
   -0.4852   -0.7404   12.3882 S   0  0  0  0  0  0  0  0  0  0  0  0
    3.4044    2.7201   13.3044 C   0  0  0  0  0  0  0  0  0  0  0  0
    4.7604    2.7511   13.4061 C   0  0  0  0  0  0  0  0  0  0  0  0
    5.2145    1.1215   13.2125 S   0  0  0  0  0  0  0  0  0  0  0  0
    7.1763   -7.5740   -7.6667 H   0  0  0  0  0  0  0  0  0  0  0  0
    5.1335   -6.1316   -7.1008 H   0  0  0  0  0  0  0  0  0  0  0  0
    1.8936   -2.8181   -8.4214 H   0  0  0  0  0  0  0  0  0  0  0  0
    0.9523   -2.3102   -6.1920 H   0  0  0  0  0  0  0  0  0  0  0  0
    1.7576   -0.6185   -3.8518 H   0  0  0  0  0  0  0  0  0  0  0  0
    0.2532   -1.5763   -3.8009 H   0  0  0  0  0  0  0  0  0  0  0  0
    1.3051    0.0611   -1.7029 H   0  0  0  0  0  0  0  0  0  0  0  0
    1.7542   -1.5586   -1.1722 H   0  0  0  0  0  0  0  0  0  0  0  0
    0.0178   -1.1289   -1.4605 H   0  0  0  0  0  0  0  0  0  0  0  0
    6.5195   -2.9793  -13.7909 H   0  0  0  0  0  0  0  0  0  0  0  0
    8.5695   -3.4204  -15.0704 H   0  0  0  0  0  0  0  0  0  0  0  0
   12.1410   -2.7123  -13.9793 H   0  0  0  0  0  0  0  0  0  0  0  0
   13.3858   -4.0722  -14.0121 H   0  0  0  0  0  0  0  0  0  0  0  0
   13.5419   -3.1868  -11.7756 H   0  0  0  0  0  0  0  0  0  0  0  0
   12.5369   -4.6568  -11.6153 H   0  0  0  0  0  0  0  0  0  0  0  0
   11.7916   -2.9834  -11.6633 H   0  0  0  0  0  0  0  0  0  0  0  0
    5.6568   -1.5114  -12.5480 H   0  0  0  0  0  0  0  0  0  0  0  0
    4.7492    1.8421  -11.2363 H   0  0  0  0  0  0  0  0  0  0  0  0
    3.8215    5.2428  -12.2084 H   0  0  0  0  0  0  0  0  0  0  0  0
    5.9088    6.5911  -12.1812 H   0  0  0  0  0  0  0  0  0  0  0  0
    9.7019    5.3951  -10.1248 H   0  0  0  0  0  0  0  0  0  0  0  0
    9.2272    5.6923  -11.8756 H   0  0  0  0  0  0  0  0  0  0  0  0
   11.4727    6.6749  -11.2806 H   0  0  0  0  0  0  0  0  0  0  0  0
   10.2718    7.9119  -11.7090 H   0  0  0  0  0  0  0  0  0  0  0  0
   10.6877    7.6740   -9.9595 H   0  0  0  0  0  0  0  0  0  0  0  0
    4.6865    3.8106   -8.3295 H   0  0  0  0  0  0  0  0  0  0  0  0
   -1.3522    1.8181   -9.1752 H   0  0  0  0  0  0  0  0  0  0  0  0
   -3.5596    0.8139   -9.5215 H   0  0  0  0  0  0  0  0  0  0  0  0
   -6.4569    2.2663  -12.5619 H   0  0  0  0  0  0  0  0  0  0  0  0
   -7.4345    0.8608  -11.9491 H   0  0  0  0  0  0  0  0  0  0  0  0
   -6.8533    3.2819  -10.6015 H   0  0  0  0  0  0  0  0  0  0  0  0
   -7.6595    1.8603   -9.9448 H   0  0  0  0  0  0  0  0  0  0  0  0
   -5.9097    1.9876   -9.6968 H   0  0  0  0  0  0  0  0  0  0  0  0
   -0.9648    2.5958  -13.3608 H   0  0  0  0  0  0  0  0  0  0  0  0
   -1.6144    4.1658   -9.3358 H   0  0  0  0  0  0  0  0  0  0  0  0
   -2.9608    4.9280   -7.2840 H   0  0  0  0  0  0  0  0  0  0  0  0
   -4.9636    5.9708   -5.0555 H   0  0  0  0  0  0  0  0  0  0  0  0
   -7.1883    6.3458   -6.0698 H   0  0  0  0  0  0  0  0  0  0  0  0
   -9.8831    5.1221   -5.0665 H   0  0  0  0  0  0  0  0  0  0  0  0
  -11.2378    4.7158   -6.1562 H   0  0  0  0  0  0  0  0  0  0  0  0
  -10.6866    2.3076   -5.9602 H   0  0  0  0  0  0  0  0  0  0  0  0
  -10.7379    3.0855   -4.3733 H   0  0  0  0  0  0  0  0  0  0  0  0
   -9.1509    2.7578   -5.0633 H   0  0  0  0  0  0  0  0  0  0  0  0
   -5.1127    1.8653   -6.0737 H   0  0  0  0  0  0  0  0  0  0  0  0
    0.5583    1.9132   -3.5355 H   0  0  0  0  0  0  0  0  0  0  0  0
    2.7868    1.9747   -2.6308 H   0  0  0  0  0  0  0  0  0  0  0  0
    5.5476    2.9237    0.9197 H   0  0  0  0  0  0  0  0  0  0  0  0
    3.8727    3.1089    1.4658 H   0  0  0  0  0  0  0  0  0  0  0  0
    4.1379    0.9354    1.4326 H   0  0  0  0  0  0  0  0  0  0  0  0
    3.3895    1.1011   -0.1815 H   0  0  0  0  0  0  0  0  0  0  0  0
    5.2113    0.8535    0.0084 H   0  0  0  0  0  0  0  0  0  0  0  0
   -0.4789    5.4117   -1.2363 H   0  0  0  0  0  0  0  0  0  0  0  0
   -1.9412    2.0552   -0.8377 H   0  0  0  0  0  0  0  0  0  0  0  0
   -2.3371   -0.3635   -0.5328 H   0  0  0  0  0  0  0  0  0  0  0  0
   -1.6955   -3.5824   -0.8305 H   0  0  0  0  0  0  0  0  0  0  0  0
    0.7037   -4.0932   -0.8117 H   0  0  0  0  0  0  0  0  0  0  0  0
    3.1612   -3.4952    3.4992 H   0  0  0  0  0  0  0  0  0  0  0  0
    4.6708   -3.4196    2.5643 H   0  0  0  0  0  0  0  0  0  0  0  0
    3.5065   -1.1828    3.6663 H   0  0  0  0  0  0  0  0  0  0  0  0
    4.7537   -1.2022    2.3470 H   0  0  0  0  0  0  0  0  0  0  0  0
    3.0461   -1.0526    1.9127 H   0  0  0  0  0  0  0  0  0  0  0  0
   -1.3677   -1.8357    3.0083 H   0  0  0  0  0  0  0  0  0  0  0  0
   -7.9967   -3.2258    0.7998 H   0  0  0  0  0  0  0  0  0  0  0  0
  -10.3018   -3.0037    1.5197 H   0  0  0  0  0  0  0  0  0  0  0  0
  -13.4506   -0.2133    3.6030 H   0  0  0  0  0  0  0  0  0  0  0  0
  -12.0280    0.7924    3.3906 H   0  0  0  0  0  0  0  0  0  0  0  0
  -13.5578    0.4738    1.3646 H   0  0  0  0  0  0  0  0  0  0  0  0
  -11.8442    0.1370    1.0202 H   0  0  0  0  0  0  0  0  0  0  0  0
  -13.0795   -1.2156    1.3091 H   0  0  0  0  0  0  0  0  0  0  0  0
   -6.7276   -0.7502    3.9857 H   0  0  0  0  0  0  0  0  0  0  0  0
   -6.3839   -4.0367    4.0434 H   0  0  0  0  0  0  0  0  0  0  0  0
   -2.4014   -6.3631    5.6193 H   0  0  0  0  0  0  0  0  0  0  0  0
   -1.2289   -8.0275    6.5360 H   0  0  0  0  0  0  0  0  0  0  0  0
    0.9526   -9.1248    6.3924 H   0  0  0  0  0  0  0  0  0  0  0  0
    3.3721  -10.7348    7.9319 H   0  0  0  0  0  0  0  0  0  0  0  0
    5.0723  -10.1318    7.8933 H   0  0  0  0  0  0  0  0  0  0  0  0
    3.3243  -10.7235    5.5960 H   0  0  0  0  0  0  0  0  0  0  0  0
    5.0785  -10.4776    5.7479 H   0  0  0  0  0  0  0  0  0  0  0  0
    4.0916   -9.0397    5.5529 H   0  0  0  0  0  0  0  0  0  0  0  0
   -4.8967   -3.5594   12.0501 H   0  0  0  0  0  0  0  0  0  0  0  0
   -6.9369   -2.2177   12.3627 H   0  0  0  0  0  0  0  0  0  0  0  0
  -11.1934   -1.4283    9.8031 H   0  0  0  0  0  0  0  0  0  0  0  0
  -10.4912   -2.6201   10.9235 H   0  0  0  0  0  0  0  0  0  0  0  0
   -9.3639   -3.2009    8.2549 H   0  0  0  0  0  0  0  0  0  0  0  0
  -10.7526   -4.0897    9.0710 H   0  0  0  0  0  0  0  0  0  0  0  0
  -11.0340   -2.7221    7.9575 H   0  0  0  0  0  0  0  0  0  0  0  0
   -2.8566   -2.7941   11.6859 H   0  0  0  0  0  0  0  0  0  0  0  0
    1.8972   -3.2978   12.2029 H   0  0  0  0  0  0  0  0  0  0  0  0
    3.7297   -2.7494   14.5787 H   0  0  0  0  0  0  0  0  0  0  0  0
    5.3389   -4.5894   14.4452 H   0  0  0  0  0  0  0  0  0  0  0  0
    7.7515   -5.2637   10.1038 H   0  0  0  0  0  0  0  0  0  0  0  0
    8.8436   -6.3549   10.9363 H   0  0  0  0  0  0  0  0  0  0  0  0
   10.2493   -4.6950   11.4986 H   0  0  0  0  0  0  0  0  0  0  0  0
    8.9591   -3.5289   11.9458 H   0  0  0  0  0  0  0  0  0  0  0  0
    9.4125   -3.7662   10.2154 H   0  0  0  0  0  0  0  0  0  0  0  0
    5.0091   -1.3608   10.7760 H   0  0  0  0  0  0  0  0  0  0  0  0
    0.6376    3.0735   14.7932 H   0  0  0  0  0  0  0  0  0  0  0  0
   -1.2016    4.7590   14.4088 H   0  0  0  0  0  0  0  0  0  0  0  0
   -1.4843    7.2880   11.9457 H   0  0  0  0  0  0  0  0  0  0  0  0
   -1.7579    6.5086   10.3377 H   0  0  0  0  0  0  0  0  0  0  0  0
   -3.1353    8.2142   10.0010 H   0  0  0  0  0  0  0  0  0  0  0  0
   -4.3315    7.2954   10.9658 H   0  0  0  0  0  0  0  0  0  0  0  0
   -3.3518    8.6268   11.7283 H   0  0  0  0  0  0  0  0  0  0  0  0
    0.0356    1.6599   10.8636 H   0  0  0  0  0  0  0  0  0  0  0  0
    2.8415    3.6797   13.3966 H   0  0  0  0  0  0  0  0  0  0  0  0
    5.3943    3.6551   13.5724 H   0  0  0  0  0  0  0  0  0  0  0  0
  1  2  2  0
  2  3  1  0
  3  4  2  0
  4  5  1  0
  5  6  2  0
  6  7  1  0
  7  8  2  0
  8  9  1  0
  9 10  1  0
 10 11  1  0
  8 12  1  0
  4 13  1  0
 13 14  2  0
 14 15  1  0
 15 16  1  0
 16 17  2  0
 17 18  1  0
 18 19  2  0
 19 20  1  0
 20 21  1  0
 21 22  1  0
 19 23  1  0
 15 24  2  0
 24 25  1  0
 14 26  1  0
 26 27  2  0
 27 28  1  0
 27 29  1  0
 29 30  2  0
 30 31  1  0
 31 32  2  0
 32 33  1  0
 33 34  2  0
 34 35  1  0
 35 36  2  0
 36 37  1  0
 37 38  1  0
 38 39  1  0
 36 40  1  0
 40 41  1  0
 40 42  2  0
 32 43  1  0
 43 44  2  0
 44 45  1  0
 45 46  1  0
 46 47  2  0
 47 48  1  0
 48 49  2  0
 49 50  1  0
 50 51  1  0
 51 52  1  0
 49 53  1  0
 53 54  2  0
 53 55  1  0
 45 56  2  0
 56 57  1  0
 44 58  1  0
 58 59  2  0
 59 60  1  0
 59 61  1  0
 61 62  2  0
 62 63  1  0
 63 64  2  0
 64 65  1  0
 65 66  2  0
 66 67  1  0
 67 68  2  0
 68 69  1  0
 69 70  1  0
 70 71  1  0
 68 72  1  0
 72 73  1  0
 72 74  2  0
 64 75  1  0
 75 76  2  0
 76 77  1  0
 77 78  1  0
 78 79  2  0
 79 80  1  0
 80 81  2  0
 81 82  1  0
 82 83  1  0
 83 84  1  0
 81 85  1  0
 85 86  2  0
 85 87  1  0
 77 88  2  0
 88 89  1  0
 76 90  1  0
 90 91  2  0
 91 92  1  0
 91 93  1  0
 93 94  2  0
 94 95  1  0
 95 96  2  0
 96 97  1  0
 97 98  2  0
 98 99  1  0
 99100  2  0
100101  1  0
101102  1  0
102103  1  0
100104  1  0
104105  1  0
104106  2  0
 96107  1  0
107108  2  0
108109  1  0
109110  1  0
110111  2  0
111112  1  0
112113  2  0
113114  1  0
114115  1  0
115116  1  0
113117  1  0
117118  2  0
117119  1  0
109120  2  0
120121  1  0
108122  1  0
122123  2  0
123124  1  0
123125  1  0
125126  2  0
126127  1  0
127128  2  0
128129  1  0
129130  2  0
130131  1  0
131132  2  0
132133  1  0
133134  1  0
134135  1  0
132136  1  0
128137  1  0
137138  2  0
138139  1  0
139140  1  0
140141  2  0
141142  1  0
142143  2  0
143144  1  0
144145  1  0
145146  1  0
143147  1  0
139148  2  0
148149  1  0
138150  1  0
150151  2  0
151152  1  0
151153  1  0
153154  2  0
154155  1  0
155156  2  0
156157  1  0
157158  2  0
158159  1  0
159160  2  0
160161  1  0
161162  1  0
162163  1  0
160164  1  0
164165  1  0
164166  2  0
156167  1  0
167168  2  0
168169  1  0
169170  1  0
170171  2  0
171172  1  0
172173  2  0
173174  1  0
174175  1  0
175176  1  0
173177  1  0
177178  2  0
177179  1  0
169180  2  0
180181  1  0
168182  1  0
182183  2  0
183184  1  0
 25  1  1  0
 57 29  1  0
 89 61  1  0
121 93  1  0
149125  1  0
181153  1  0
 24  3  1  0
 56 31  1  0
 88 63  1  0
120 95  1  0
148127  1  0
180155  1  0
 12  5  1  0
 28 13  1  0
 42 33  1  0
 60 43  1  0
 74 65  1  0
 92 75  1  0
106 97  1  0
124107  1  0
136129  1  0
152137  1  0
166157  1  0
184167  1  0
 23 16  1  0
 54 46  1  0
 86 78  1  0
118110  1  0
147140  1  0
178170  1  0
  1185  1  0
  2186  1  0
  6187  1  0
  7188  1  0
 10189  1  0
 10190  1  0
 11191  1  0
 11192  1  0
 11193  1  0
 17194  1  0
 18195  1  0
 21196  1  0
 21197  1  0
 22198  1  0
 22199  1  0
 22200  1  0
 26201  1  0
 30202  1  0
 34203  1  0
 35204  1  0
 38205  1  0
 38206  1  0
 39207  1  0
 39208  1  0
 39209  1  0
 42210  1  0
 47211  1  0
 48212  1  0
 51213  1  0
 51214  1  0
 52215  1  0
 52216  1  0
 52217  1  0
 54218  1  0
 58219  1  0
 62220  1  0
 66221  1  0
 67222  1  0
 70223  1  0
 70224  1  0
 71225  1  0
 71226  1  0
 71227  1  0
 74228  1  0
 79229  1  0
 80230  1  0
 83231  1  0
 83232  1  0
 84233  1  0
 84234  1  0
 84235  1  0
 86236  1  0
 90237  1  0
 94238  1  0
 98239  1  0
 99240  1  0
102241  1  0
102242  1  0
103243  1  0
103244  1  0
103245  1  0
106246  1  0
111247  1  0
112248  1  0
115249  1  0
115250  1  0
116251  1  0
116252  1  0
116253  1  0
118254  1  0
122255  1  0
126256  1  0
130257  1  0
131258  1  0
134259  1  0
134260  1  0
135261  1  0
135262  1  0
135263  1  0
141264  1  0
142265  1  0
145266  1  0
145267  1  0
146268  1  0
146269  1  0
146270  1  0
150271  1  0
154272  1  0
158273  1  0
159274  1  0
162275  1  0
162276  1  0
163277  1  0
163278  1  0
163279  1  0
166280  1  0
171281  1  0
172282  1  0
175283  1  0
175284  1  0
176285  1  0
176286  1  0
176287  1  0
178288  1  0
182289  1  0
183290  1  0
M  END

