
     RDKit          3D

272301  0  0  0  0  0  0  0  0999 V2000
   -7.7752   -6.7393   -1.5679 C   0  0  0  0  0  0  0  0  0  0  0  0
   -6.4607   -7.1391   -1.5345 C   0  0  0  0  0  0  0  0  0  0  0  0
   -5.8792   -7.2714   -0.3251 C   0  0  0  0  0  0  0  0  0  0  0  0
   -4.5545   -7.6244   -0.0416 C   0  0  0  0  0  0  0  0  0  0  0  0
   -3.5781   -8.0414   -1.0202 C   0  0  0  0  0  0  0  0  0  0  0  0
   -3.5634   -8.4153   -2.2972 C   0  0  0  0  0  0  0  0  0  0  0  0
   -2.4506   -8.6431   -2.9886 C   0  0  0  0  0  0  0  0  0  0  0  0
   -1.2279   -8.5337   -2.4944 C   0  0  0  0  0  0  0  0  0  0  0  0
    0.4178   -8.7088   -3.0978 S   0  0  0  0  0  0  0  0  0  0  0  0
    0.9952  -10.4003   -3.1089 C   0  0  0  0  0  0  0  0  0  0  0  0
    1.1223  -10.9181   -1.7047 C   0  0  0  0  0  0  0  0  0  0  0  0
   -1.6780   -7.9915   -0.6464 Se  0  0  0  0  0  2  0  0  0  0  0  0
   -4.1477   -7.6513    1.2996 C   0  0  0  0  0  0  0  0  0  0  0  0
   -4.9210   -7.3715    2.3768 C   0  0  0  0  0  0  0  0  0  0  0  0
   -6.2396   -7.0261    2.0869 C   0  0  0  0  0  0  0  0  0  0  0  0
   -7.2826   -6.7553    3.0800 C   0  0  0  0  0  0  0  0  0  0  0  0
   -7.5002   -7.0132    4.3634 C   0  0  0  0  0  0  0  0  0  0  0  0
   -8.5222   -6.4738    5.0417 C   0  0  0  0  0  0  0  0  0  0  0  0
   -9.4063   -5.6380    4.5118 C   0  0  0  0  0  0  0  0  0  0  0  0
  -10.8232   -4.7241    5.0714 S   0  0  0  0  0  0  0  0  0  0  0  0
  -10.3092   -3.0888    5.7107 C   0  0  0  0  0  0  0  0  0  0  0  0
   -9.7312   -2.3208    4.5521 C   0  0  0  0  0  0  0  0  0  0  0  0
   -8.7269   -5.5511    2.6697 Se  0  0  0  0  0  2  0  0  0  0  0  0
   -6.6522   -6.9919    0.7592 C   0  0  0  0  0  0  0  0  0  0  0  0
   -8.1724   -6.5552    0.0645 S   0  0  0  0  0  0  0  0  0  0  0  0
   -4.3155   -7.3556    3.5945 C   0  0  0  0  0  0  0  0  0  0  0  0
   -2.9893   -7.6139    3.6322 C   0  0  0  0  0  0  0  0  0  0  0  0
   -2.5927   -7.8900    1.9939 S   0  0  0  0  0  0  0  0  0  0  0  0
   -1.9791   -7.4802    4.7211 C   0  0  0  0  0  0  0  0  0  0  0  0
   -2.1157   -6.8650    5.9293 C   0  0  0  0  0  0  0  0  0  0  0  0
   -0.9900   -6.6143    6.6471 C   0  0  0  0  0  0  0  0  0  0  0  0
   -0.8675   -5.7693    7.7710 C   0  0  0  0  0  0  0  0  0  0  0  0
   -1.9386   -5.4683    8.6987 C   0  0  0  0  0  0  0  0  0  0  0  0
   -3.1964   -5.8221    8.9295 C   0  0  0  0  0  0  0  0  0  0  0  0
   -3.9406   -5.4170    9.9536 C   0  0  0  0  0  0  0  0  0  0  0  0
   -3.4716   -4.5728   10.8935 C   0  0  0  0  0  0  0  0  0  0  0  0
   -4.1296   -3.8871   12.3640 S   0  0  0  0  0  0  0  0  0  0  0  0
   -2.9083   -2.9177   13.2751 C   0  0  0  0  0  0  0  0  0  0  0  0
   -2.4789   -1.6556   12.6012 C   0  0  0  0  0  0  0  0  0  0  0  0
   -1.6522   -4.2842   10.2276 Se  0  0  0  0  0  2  0  0  0  0  0  0
    0.4189   -5.3847    8.1842 C   0  0  0  0  0  0  0  0  0  0  0  0
    1.5912   -5.7655    7.6281 C   0  0  0  0  0  0  0  0  0  0  0  0
    1.4553   -6.6388    6.5273 C   0  0  0  0  0  0  0  0  0  0  0  0
    2.5992   -7.2556    5.8895 C   0  0  0  0  0  0  0  0  0  0  0  0
    3.8731   -7.4838    6.2151 C   0  0  0  0  0  0  0  0  0  0  0  0
    4.7826   -7.9447    5.3503 C   0  0  0  0  0  0  0  0  0  0  0  0
    4.5166   -8.2268    4.0773 C   0  0  0  0  0  0  0  0  0  0  0  0
    5.4093   -8.7760    2.6665 S   0  0  0  0  0  0  0  0  0  0  0  0
    5.4508  -10.5688    2.5592 C   0  0  0  0  0  0  0  0  0  0  0  0
    6.3068  -11.0089    1.3780 C   0  0  0  0  0  0  0  0  0  0  0  0
    2.5790   -7.7630    4.0383 Se  0  0  0  0  0  2  0  0  0  0  0  0
    0.1807   -7.0132    6.0829 C   0  0  0  0  0  0  0  0  0  0  0  0
   -0.3066   -7.7370    4.5789 S   0  0  0  0  0  0  0  0  0  0  0  0
    2.7040   -5.0637    7.9004 C   0  0  0  0  0  0  0  0  0  0  0  0
    2.5321   -3.9572    8.7507 C   0  0  0  0  0  0  0  0  0  0  0  0
    0.9299   -3.9844    9.1323 S   0  0  0  0  0  0  0  0  0  0  0  0
    3.5600   -2.8281    8.7355 C   0  0  0  0  0  0  0  0  0  0  0  0
    4.7848   -2.9083    8.1911 C   0  0  0  0  0  0  0  0  0  0  0  0
    5.3897   -1.7559    7.8000 C   0  0  0  0  0  0  0  0  0  0  0  0
    6.4864   -1.6664    6.9112 C   0  0  0  0  0  0  0  0  0  0  0  0
    7.4488   -2.7410    6.8205 C   0  0  0  0  0  0  0  0  0  0  0  0
    8.4886   -3.0877    6.0684 C   0  0  0  0  0  0  0  0  0  0  0  0
    9.3069   -4.1042    6.3482 C   0  0  0  0  0  0  0  0  0  0  0  0
    9.1803   -4.8917    7.4123 C   0  0  0  0  0  0  0  0  0  0  0  0
   10.0392   -6.2292    8.1856 S   0  0  0  0  0  0  0  0  0  0  0  0
   11.1318   -5.4751    9.4671 C   0  0  0  0  0  0  0  0  0  0  0  0
   10.2316   -4.8923   10.5335 C   0  0  0  0  0  0  0  0  0  0  0  0
    7.5792   -4.0796    8.2276 Se  0  0  0  0  0  2  0  0  0  0  0  0
    6.7545   -0.4592    6.3000 C   0  0  0  0  0  0  0  0  0  0  0  0
    6.0854    0.7068    6.4600 C   0  0  0  0  0  0  0  0  0  0  0  0
    5.0066    0.6334    7.3842 C   0  0  0  0  0  0  0  0  0  0  0  0
    4.2547    1.7783    7.8343 C   0  0  0  0  0  0  0  0  0  0  0  0
    4.3774    3.1150    7.7871 C   0  0  0  0  0  0  0  0  0  0  0  0
    3.4667    3.9685    8.2292 C   0  0  0  0  0  0  0  0  0  0  0  0
    2.3077    3.7026    8.7836 C   0  0  0  0  0  0  0  0  0  0  0  0
    0.8733    4.3711    9.4553 S   0  0  0  0  0  0  0  0  0  0  0  0
   -0.2945    3.1259   10.0840 C   0  0  0  0  0  0  0  0  0  0  0  0
    0.2586    2.4162   11.3024 C   0  0  0  0  0  0  0  0  0  0  0  0
    2.5114    1.6087    8.6733 Se  0  0  0  0  0  2  0  0  0  0  0  0
    4.7068   -0.6054    8.0033 C   0  0  0  0  0  0  0  0  0  0  0  0
    3.2368   -1.1593    8.7569 S   0  0  0  0  0  0  0  0  0  0  0  0
    6.2957    1.6683    5.5044 C   0  0  0  0  0  0  0  0  0  0  0  0
    7.1451    1.3559    4.4750 C   0  0  0  0  0  0  0  0  0  0  0  0
    7.6628   -0.1982    4.8345 S   0  0  0  0  0  0  0  0  0  0  0  0
    7.2458    2.0921    3.1416 C   0  0  0  0  0  0  0  0  0  0  0  0
    6.9806    1.2760    1.9918 C   0  0  0  0  0  0  0  0  0  0  0  0
    6.7133    1.9406    0.8647 C   0  0  0  0  0  0  0  0  0  0  0  0
    6.2012    1.3263   -0.3063 C   0  0  0  0  0  0  0  0  0  0  0  0
    6.0061   -0.0866   -0.4616 C   0  0  0  0  0  0  0  0  0  0  0  0
    6.9395   -0.9742   -0.8289 C   0  0  0  0  0  0  0  0  0  0  0  0
    6.5624   -2.3239   -0.9139 C   0  0  0  0  0  0  0  0  0  0  0  0
    5.2885   -2.7548   -0.6385 C   0  0  0  0  0  0  0  0  0  0  0  0
    4.8604   -4.4573   -0.7801 S   0  0  0  0  0  0  0  0  0  0  0  0
    6.2591   -5.4351   -1.3268 C   0  0  0  0  0  0  0  0  0  0  0  0
    5.8094   -6.8925   -1.4295 C   0  0  0  0  0  0  0  0  0  0  0  0
    4.3343   -1.8205   -0.2575 C   0  0  0  0  0  0  0  0  0  0  0  0
    3.0938   -2.2884    0.0066 F   0  0  0  0  0  0  0  0  0  0  0  0
    4.7007   -0.5201   -0.1775 C   0  0  0  0  0  0  0  0  0  0  0  0
    5.7529    2.1259   -1.3445 C   0  0  0  0  0  0  0  0  0  0  0  0
    5.7618    3.4952   -1.3613 C   0  0  0  0  0  0  0  0  0  0  0  0
    6.2804    4.0953   -0.1938 C   0  0  0  0  0  0  0  0  0  0  0  0
    6.4221    5.5247   -0.0080 C   0  0  0  0  0  0  0  0  0  0  0  0
    5.3361    6.3601    0.0895 C   0  0  0  0  0  0  0  0  0  0  0  0
    5.4306    7.7335    0.2907 C   0  0  0  0  0  0  0  0  0  0  0  0
    6.6803    8.3004    0.3996 C   0  0  0  0  0  0  0  0  0  0  0  0
    6.8212   10.0593    0.6565 S   0  0  0  0  0  0  0  0  0  0  0  0
    6.6806   10.3577    2.4413 C   0  0  0  0  0  0  0  0  0  0  0  0
    7.8271    9.7427    3.1829 C   0  0  0  0  0  0  0  0  0  0  0  0
    7.7943    7.5007    0.3072 C   0  0  0  0  0  0  0  0  0  0  0  0
    7.6736    6.1272    0.1073 C   0  0  0  0  0  0  0  0  0  0  0  0
    9.0095    8.1160    0.4156 F   0  0  0  0  0  0  0  0  0  0  0  0
    6.7196    3.2772    0.8587 C   0  0  0  0  0  0  0  0  0  0  0  0
    7.1226    3.6194    2.5231 S   0  0  0  0  0  0  0  0  0  0  0  0
    5.1136    4.1034   -2.3817 C   0  0  0  0  0  0  0  0  0  0  0  0
    4.5052    3.3236   -3.2955 C   0  0  0  0  0  0  0  0  0  0  0  0
    4.8360    1.7406   -2.7702 S   0  0  0  0  0  0  0  0  0  0  0  0
    3.5276    3.5771   -4.3760 C   0  0  0  0  0  0  0  0  0  0  0  0
    2.8949    4.7102   -4.7636 C   0  0  0  0  0  0  0  0  0  0  0  0
    1.8457    4.6042   -5.6153 C   0  0  0  0  0  0  0  0  0  0  0  0
    0.9454    5.5994   -6.0156 C   0  0  0  0  0  0  0  0  0  0  0  0
    1.2912    7.0072   -5.9635 C   0  0  0  0  0  0  0  0  0  0  0  0
    0.6250    8.1705   -5.9900 C   0  0  0  0  0  0  0  0  0  0  0  0
    1.2588    9.3318   -6.1531 C   0  0  0  0  0  0  0  0  0  0  0  0
    2.5506    9.5170   -6.3052 C   0  0  0  0  0  0  0  0  0  0  0  0
    3.7078   10.7992   -6.5662 S   0  0  0  0  0  0  0  0  0  0  0  0
    5.3446   10.0610   -6.8470 C   0  0  0  0  0  0  0  0  0  0  0  0
    5.3782    9.1950   -8.0796 C   0  0  0  0  0  0  0  0  0  0  0  0
    3.1477    7.5660   -6.1967 Se  0  0  0  0  0  2  0  0  0  0  0  0
   -0.1871    5.3000   -6.7480 C   0  0  0  0  0  0  0  0  0  0  0  0
   -0.5353    4.0379   -7.1666 C   0  0  0  0  0  0  0  0  0  0  0  0
    0.3631    3.0421   -6.7935 C   0  0  0  0  0  0  0  0  0  0  0  0
    0.3163    1.6558   -7.2466 C   0  0  0  0  0  0  0  0  0  0  0  0
   -0.2917    0.9665   -8.2163 C   0  0  0  0  0  0  0  0  0  0  0  0
   -0.1844   -0.3605   -8.3515 C   0  0  0  0  0  0  0  0  0  0  0  0
    0.5258   -1.1330   -7.5492 C   0  0  0  0  0  0  0  0  0  0  0  0
    0.9335   -2.8463   -7.3831 S   0  0  0  0  0  0  0  0  0  0  0  0
    2.4699   -3.1208   -8.2996 C   0  0  0  0  0  0  0  0  0  0  0  0
    2.1781   -2.9214   -9.7653 C   0  0  0  0  0  0  0  0  0  0  0  0
    1.2198    0.2420   -6.3152 Se  0  0  0  0  0  2  0  0  0  0  0  0
    1.5029    3.3577   -6.0364 C   0  0  0  0  0  0  0  0  0  0  0  0
    2.6483    2.3688   -5.2388 S   0  0  0  0  0  0  0  0  0  0  0  0
   -1.7478    3.9263   -7.7661 C   0  0  0  0  0  0  0  0  0  0  0  0
   -2.5118    5.0211   -7.9082 C   0  0  0  0  0  0  0  0  0  0  0  0
   -1.5333    6.2384   -7.2049 S   0  0  0  0  0  0  0  0  0  0  0  0
   -3.8549    5.2734   -8.4758 C   0  0  0  0  0  0  0  0  0  0  0  0
   -4.7025    6.2778   -8.0119 C   0  0  0  0  0  0  0  0  0  0  0  0
   -5.9460    6.3352   -8.5010 C   0  0  0  0  0  0  0  0  0  0  0  0
   -6.9499    7.2340   -8.1797 C   0  0  0  0  0  0  0  0  0  0  0  0
   -6.9221    8.1512   -7.0506 C   0  0  0  0  0  0  0  0  0  0  0  0
   -6.1915    8.2657   -5.9225 C   0  0  0  0  0  0  0  0  0  0  0  0
   -6.3566    9.2697   -5.0554 C   0  0  0  0  0  0  0  0  0  0  0  0
   -7.2393   10.2444   -5.2023 C   0  0  0  0  0  0  0  0  0  0  0  0
   -7.7162   11.6494   -4.2673 S   0  0  0  0  0  0  0  0  0  0  0  0
   -9.0489   11.2632   -3.0769 C   0  0  0  0  0  0  0  0  0  0  0  0
   -8.5111   10.2906   -2.0627 C   0  0  0  0  0  0  0  0  0  0  0  0
   -8.0505    9.6953   -6.9099 Se  0  0  0  0  0  2  0  0  0  0  0  0
   -8.1938    7.1524   -8.8102 C   0  0  0  0  0  0  0  0  0  0  0  0
   -8.5293    6.2174   -9.7533 C   0  0  0  0  0  0  0  0  0  0  0  0
   -7.5175    5.2987  -10.0645 C   0  0  0  0  0  0  0  0  0  0  0  0
   -7.7252    4.1711  -10.9043 C   0  0  0  0  0  0  0  0  0  0  0  0
   -7.0505    3.2601  -11.5565 C   0  0  0  0  0  0  0  0  0  0  0  0
   -7.5532    2.2073  -12.2080 C   0  0  0  0  0  0  0  0  0  0  0  0
   -8.8768    1.9708  -12.2566 C   0  0  0  0  0  0  0  0  0  0  0  0
   -9.9052    0.7392  -13.0351 S   0  0  0  0  0  0  0  0  0  0  0  0
  -11.6533    1.0423  -12.5890 C   0  0  0  0  0  0  0  0  0  0  0  0
  -11.8898    0.7446  -11.1232 C   0  0  0  0  0  0  0  0  0  0  0  0
   -9.5760    3.4491  -11.2340 Se  0  0  0  0  0  2  0  0  0  0  0  0
   -6.2788    5.3874   -9.4401 C   0  0  0  0  0  0  0  0  0  0  0  0
   -4.8230    4.4623   -9.5739 S   0  0  0  0  0  0  0  0  0  0  0  0
   -9.7592    6.3095  -10.2869 C   0  0  0  0  0  0  0  0  0  0  0  0
  -10.5865    7.3172   -9.8519 C   0  0  0  0  0  0  0  0  0  0  0  0
   -9.6218    8.1070   -8.7084 S   0  0  0  0  0  0  0  0  0  0  0  0
   -8.3721   -6.5864   -2.4886 H   0  0  0  0  0  0  0  0  0  0  0  0
   -5.9982   -7.2904   -2.5367 H   0  0  0  0  0  0  0  0  0  0  0  0
   -4.5730   -8.5914   -2.8027 H   0  0  0  0  0  0  0  0  0  0  0  0
   -2.5197   -8.9708   -4.0997 H   0  0  0  0  0  0  0  0  0  0  0  0
    0.3536  -11.0070   -3.7670 H   0  0  0  0  0  0  0  0  0  0  0  0
    2.0460  -10.3673   -3.5477 H   0  0  0  0  0  0  0  0  0  0  0  0
    2.1906  -11.0526   -1.3995 H   0  0  0  0  0  0  0  0  0  0  0  0
    0.6145  -10.3163   -0.9337 H   0  0  0  0  0  0  0  0  0  0  0  0
    0.6761  -11.9497   -1.6519 H   0  0  0  0  0  0  0  0  0  0  0  0
   -6.8258   -7.7602    4.8940 H   0  0  0  0  0  0  0  0  0  0  0  0
   -8.6786   -6.7309    6.1632 H   0  0  0  0  0  0  0  0  0  0  0  0
  -11.1979   -2.5415    6.1264 H   0  0  0  0  0  0  0  0  0  0  0  0
   -9.5216   -3.2508    6.4579 H   0  0  0  0  0  0  0  0  0  0  0  0
   -8.6053   -2.3554    4.5916 H   0  0  0  0  0  0  0  0  0  0  0  0
  -10.0394   -1.2545    4.6098 H   0  0  0  0  0  0  0  0  0  0  0  0
  -10.0084   -2.7767    3.5667 H   0  0  0  0  0  0  0  0  0  0  0  0
   -4.8187   -7.1435    4.5669 H   0  0  0  0  0  0  0  0  0  0  0  0
   -3.1442   -6.5840    6.2296 H   0  0  0  0  0  0  0  0  0  0  0  0
   -3.6829   -6.5686    8.2177 H   0  0  0  0  0  0  0  0  0  0  0  0
   -5.0290   -5.7540   10.1074 H   0  0  0  0  0  0  0  0  0  0  0  0
   -3.3479   -2.6608   14.2590 H   0  0  0  0  0  0  0  0  0  0  0  0
   -1.9921   -3.5179   13.5042 H   0  0  0  0  0  0  0  0  0  0  0  0
   -3.1718   -1.3571   11.8106 H   0  0  0  0  0  0  0  0  0  0  0  0
   -1.4163   -1.7479   12.2524 H   0  0  0  0  0  0  0  0  0  0  0  0
   -2.4364   -0.7875   13.3387 H   0  0  0  0  0  0  0  0  0  0  0  0
    4.1740   -7.3237    7.3016 H   0  0  0  0  0  0  0  0  0  0  0  0
    5.8831   -8.1114    5.6777 H   0  0  0  0  0  0  0  0  0  0  0  0
    4.4233  -10.9756    2.4415 H   0  0  0  0  0  0  0  0  0  0  0  0
    5.8846  -11.0431    3.4714 H   0  0  0  0  0  0  0  0  0  0  0  0
    5.8724  -10.5883    0.4277 H   0  0  0  0  0  0  0  0  0  0  0  0
    6.3875  -12.0935    1.2803 H   0  0  0  0  0  0  0  0  0  0  0  0
    7.3370  -10.5895    1.4626 H   0  0  0  0  0  0  0  0  0  0  0  0
    3.7064   -5.2597    7.5122 H   0  0  0  0  0  0  0  0  0  0  0  0
    5.2439   -3.9139    8.0555 H   0  0  0  0  0  0  0  0  0  0  0  0
    8.6800   -2.4550    5.1227 H   0  0  0  0  0  0  0  0  0  0  0  0
   10.1824   -4.3408    5.6370 H   0  0  0  0  0  0  0  0  0  0  0  0
   11.8214   -6.2015    9.8843 H   0  0  0  0  0  0  0  0  0  0  0  0
   11.6255   -4.6023    8.9653 H   0  0  0  0  0  0  0  0  0  0  0  0
    9.3100   -4.5438   10.0365 H   0  0  0  0  0  0  0  0  0  0  0  0
   10.6560   -4.0105   11.0392 H   0  0  0  0  0  0  0  0  0  0  0  0
   10.0305   -5.6661   11.3060 H   0  0  0  0  0  0  0  0  0  0  0  0
    5.3680    3.5063    7.3658 H   0  0  0  0  0  0  0  0  0  0  0  0
    3.7042    5.1085    8.1381 H   0  0  0  0  0  0  0  0  0  0  0  0
   -1.2477    3.6017   10.3493 H   0  0  0  0  0  0  0  0  0  0  0  0
   -0.3835    2.3454    9.2936 H   0  0  0  0  0  0  0  0  0  0  0  0
    0.4233    3.1319   12.1369 H   0  0  0  0  0  0  0  0  0  0  0  0
    1.1714    1.8233   11.0843 H   0  0  0  0  0  0  0  0  0  0  0  0
   -0.4927    1.6861   11.6410 H   0  0  0  0  0  0  0  0  0  0  0  0
    5.8106    2.6564    5.5049 H   0  0  0  0  0  0  0  0  0  0  0  0
    7.0196    0.1786    2.1073 H   0  0  0  0  0  0  0  0  0  0  0  0
    7.9285   -0.6417   -1.0474 H   0  0  0  0  0  0  0  0  0  0  0  0
    7.3253   -3.0470   -1.2227 H   0  0  0  0  0  0  0  0  0  0  0  0
    7.1031   -5.3681   -0.6199 H   0  0  0  0  0  0  0  0  0  0  0  0
    6.5351   -5.0993   -2.3415 H   0  0  0  0  0  0  0  0  0  0  0  0
    4.8047   -6.9285   -1.8737 H   0  0  0  0  0  0  0  0  0  0  0  0
    6.5590   -7.4323   -2.0240 H   0  0  0  0  0  0  0  0  0  0  0  0
    5.7629   -7.3816   -0.4292 H   0  0  0  0  0  0  0  0  0  0  0  0
    3.9272    0.2134    0.0985 H   0  0  0  0  0  0  0  0  0  0  0  0
    4.3455    5.8975   -0.0073 H   0  0  0  0  0  0  0  0  0  0  0  0
    4.5224    8.3206    0.3545 H   0  0  0  0  0  0  0  0  0  0  0  0
    6.7260   11.4668    2.5980 H   0  0  0  0  0  0  0  0  0  0  0  0
    5.7346    9.9668    2.8661 H   0  0  0  0  0  0  0  0  0  0  0  0
    7.8994   10.2539    4.1557 H   0  0  0  0  0  0  0  0  0  0  0  0
    7.6466    8.6647    3.3634 H   0  0  0  0  0  0  0  0  0  0  0  0
    8.7640    9.9238    2.6398 H   0  0  0  0  0  0  0  0  0  0  0  0
    8.5730    5.5477    0.0499 H   0  0  0  0  0  0  0  0  0  0  0  0
    5.0636    5.2111   -2.4930 H   0  0  0  0  0  0  0  0  0  0  0  0
    3.2491    5.7022   -4.3776 H   0  0  0  0  0  0  0  0  0  0  0  0
   -0.5082    8.1091   -5.8457 H   0  0  0  0  0  0  0  0  0  0  0  0
    0.6096   10.2933   -6.1730 H   0  0  0  0  0  0  0  0  0  0  0  0
    5.6797    9.4494   -5.9798 H   0  0  0  0  0  0  0  0  0  0  0  0
    6.0945   10.8700   -7.0370 H   0  0  0  0  0  0  0  0  0  0  0  0
    6.0930    9.5657   -8.8695 H   0  0  0  0  0  0  0  0  0  0  0  0
    5.7992    8.1960   -7.7740 H   0  0  0  0  0  0  0  0  0  0  0  0
    4.3872    8.9768   -8.5091 H   0  0  0  0  0  0  0  0  0  0  0  0
   -0.8897    1.5617   -8.9918 H   0  0  0  0  0  0  0  0  0  0  0  0
   -0.7428   -0.8896   -9.2107 H   0  0  0  0  0  0  0  0  0  0  0  0
    2.8750   -4.1513   -8.1646 H   0  0  0  0  0  0  0  0  0  0  0  0
    3.2527   -2.3751   -8.0145 H   0  0  0  0  0  0  0  0  0  0  0  0
    2.2179   -1.8294  -10.0187 H   0  0  0  0  0  0  0  0  0  0  0  0
    2.8884   -3.5072  -10.4115 H   0  0  0  0  0  0  0  0  0  0  0  0
    1.1394   -3.2396   -9.9821 H   0  0  0  0  0  0  0  0  0  0  0  0
   -2.1492    2.9548   -8.1116 H   0  0  0  0  0  0  0  0  0  0  0  0
   -4.2672    6.9906   -7.2808 H   0  0  0  0  0  0  0  0  0  0  0  0
   -5.4482    7.4376   -5.6852 H   0  0  0  0  0  0  0  0  0  0  0  0
   -5.6963    9.3171   -4.1214 H   0  0  0  0  0  0  0  0  0  0  0  0
   -9.8731   10.8634   -3.6738 H   0  0  0  0  0  0  0  0  0  0  0  0
   -9.3423   12.2303   -2.6074 H   0  0  0  0  0  0  0  0  0  0  0  0
   -9.4052    9.8546   -1.5160 H   0  0  0  0  0  0  0  0  0  0  0  0
   -7.9381    9.4617   -2.5478 H   0  0  0  0  0  0  0  0  0  0  0  0
   -7.8240   10.7774   -1.3462 H   0  0  0  0  0  0  0  0  0  0  0  0
   -5.9045    3.3902  -11.5722 H   0  0  0  0  0  0  0  0  0  0  0  0
   -6.8878    1.4414  -12.7476 H   0  0  0  0  0  0  0  0  0  0  0  0
  -11.9241    2.1035  -12.8002 H   0  0  0  0  0  0  0  0  0  0  0  0
  -12.2693    0.3924  -13.2163 H   0  0  0  0  0  0  0  0  0  0  0  0
  -11.9740    1.6869  -10.5534 H   0  0  0  0  0  0  0  0  0  0  0  0
  -12.8875    0.2110  -10.9852 H   0  0  0  0  0  0  0  0  0  0  0  0
  -11.1224    0.0972  -10.6827 H   0  0  0  0  0  0  0  0  0  0  0  0
  -10.1702    5.6458  -11.0813 H   0  0  0  0  0  0  0  0  0  0  0  0
  -11.6244    7.5181  -10.1952 H   0  0  0  0  0  0  0  0  0  0  0  0
  1  2  2  0
  2  3  1  0
  3  4  2  0
  4  5  1  0
  5  6  2  0
  6  7  1  0
  7  8  2  0
  8  9  1  0
  9 10  1  0
 10 11  1  0
  8 12  1  0
  4 13  1  0
 13 14  2  0
 14 15  1  0
 15 16  1  0
 16 17  2  0
 17 18  1  0
 18 19  2  0
 19 20  1  0
 20 21  1  0
 21 22  1  0
 19 23  1  0
 15 24  2  0
 24 25  1  0
 14 26  1  0
 26 27  2  0
 27 28  1  0
 27 29  1  0
 29 30  2  0
 30 31  1  0
 31 32  2  0
 32 33  1  0
 33 34  2  0
 34 35  1  0
 35 36  2  0
 36 37  1  0
 37 38  1  0
 38 39  1  0
 36 40  1  0
 32 41  1  0
 41 42  2  0
 42 43  1  0
 43 44  1  0
 44 45  2  0
 45 46  1  0
 46 47  2  0
 47 48  1  0
 48 49  1  0
 49 50  1  0
 47 51  1  0
 43 52  2  0
 52 53  1  0
 42 54  1  0
 54 55  2  0
 55 56  1  0
 55 57  1  0
 57 58  2  0
 58 59  1  0
 59 60  2  0
 60 61  1  0
 61 62  2  0
 62 63  1  0
 63 64  2  0
 64 65  1  0
 65 66  1  0
 66 67  1  0
 64 68  1  0
 60 69  1  0
 69 70  2  0
 70 71  1  0
 71 72  1  0
 72 73  2  0
 73 74  1  0
 74 75  2  0
 75 76  1  0
 76 77  1  0
 77 78  1  0
 75 79  1  0
 71 80  2  0
 80 81  1  0
 70 82  1  0
 82 83  2  0
 83 84  1  0
 83 85  1  0
 85 86  2  0
 86 87  1  0
 87 88  2  0
 88 89  1  0
 89 90  2  0
 90 91  1  0
 91 92  2  0
 92 93  1  0
 93 94  1  0
 94 95  1  0
 92 96  1  0
 96 97  1  0
 96 98  2  0
 88 99  1  0
 99100  2  0
100101  1  0
101102  1  0
102103  2  0
103104  1  0
104105  2  0
105106  1  0
106107  1  0
107108  1  0
105109  1  0
109110  2  0
109111  1  0
101112  2  0
112113  1  0
100114  1  0
114115  2  0
115116  1  0
115117  1  0
117118  2  0
118119  1  0
119120  2  0
120121  1  0
121122  2  0
122123  1  0
123124  2  0
124125  1  0
125126  1  0
126127  1  0
124128  1  0
120129  1  0
129130  2  0
130131  1  0
131132  1  0
132133  2  0
133134  1  0
134135  2  0
135136  1  0
136137  1  0
137138  1  0
135139  1  0
131140  2  0
140141  1  0
130142  1  0
142143  2  0
143144  1  0
143145  1  0
145146  2  0
146147  1  0
147148  2  0
148149  1  0
149150  2  0
150151  1  0
151152  2  0
152153  1  0
153154  1  0
154155  1  0
152156  1  0
148157  1  0
157158  2  0
158159  1  0
159160  1  0
160161  2  0
161162  1  0
162163  2  0
163164  1  0
164165  1  0
165166  1  0
163167  1  0
159168  2  0
168169  1  0
158170  1  0
170171  2  0
171172  1  0
 25  1  1  0
 53 29  1  0
 81 57  1  0
113 85  1  0
141117  1  0
169145  1  0
 24  3  1  0
 52 31  1  0
 80 59  1  0
112 87  1  0
140119  1  0
168147  1  0
 12  5  1  0
 28 13  1  0
 40 33  1  0
 56 41  1  0
 68 61  1  0
 84 69  1  0
 98 89  1  0
116 99  1  0
128121  1  0
144129  1  0
156149  1  0
172157  1  0
 23 16  1  0
 51 44  1  0
 79 72  1  0
110102  1  0
139132  1  0
167160  1  0
  1173  1  0
  2174  1  0
  6175  1  0
  7176  1  0
 10177  1  0
 10178  1  0
 11179  1  0
 11180  1  0
 11181  1  0
 17182  1  0
 18183  1  0
 21184  1  0
 21185  1  0
 22186  1  0
 22187  1  0
 22188  1  0
 26189  1  0
 30190  1  0
 34191  1  0
 35192  1  0
 38193  1  0
 38194  1  0
 39195  1  0
 39196  1  0
 39197  1  0
 45198  1  0
 46199  1  0
 49200  1  0
 49201  1  0
 50202  1  0
 50203  1  0
 50204  1  0
 54205  1  0
 58206  1  0
 62207  1  0
 63208  1  0
 66209  1  0
 66210  1  0
 67211  1  0
 67212  1  0
 67213  1  0
 73214  1  0
 74215  1  0
 77216  1  0
 77217  1  0
 78218  1  0
 78219  1  0
 78220  1  0
 82221  1  0
 86222  1  0
 90223  1  0
 91224  1  0
 94225  1  0
 94226  1  0
 95227  1  0
 95228  1  0
 95229  1  0
 98230  1  0
103231  1  0
104232  1  0
107233  1  0
107234  1  0
108235  1  0
108236  1  0
108237  1  0
110238  1  0
114239  1  0
118240  1  0
122241  1  0
123242  1  0
126243  1  0
126244  1  0
127245  1  0
127246  1  0
127247  1  0
133248  1  0
134249  1  0
137250  1  0
137251  1  0
138252  1  0
138253  1  0
138254  1  0
142255  1  0
146256  1  0
150257  1  0
151258  1  0
154259  1  0
154260  1  0
155261  1  0
155262  1  0
155263  1  0
161264  1  0
162265  1  0
165266  1  0
165267  1  0
166268  1  0
166269  1  0
166270  1  0
170271  1  0
171272  1  0
M  END

