
     RDKit          3D

302331  0  0  0  0  0  0  0  0999 V2000
    0.5331   -1.7157   11.1730 C   0  0  0  0  0  0  0  0  0  0  0  0
    1.5414   -1.5439   10.2304 C   0  0  0  0  0  0  0  0  0  0  0  0
    1.5053   -2.4965    9.1972 C   0  0  0  0  0  0  0  0  0  0  0  0
    2.3716   -2.5650    8.0851 C   0  0  0  0  0  0  0  0  0  0  0  0
    3.4780   -1.5979    7.8645 C   0  0  0  0  0  0  0  0  0  0  0  0
    3.5419   -0.8633    6.6665 C   0  0  0  0  0  0  0  0  0  0  0  0
    4.6280   -0.0186    6.4094 C   0  0  0  0  0  0  0  0  0  0  0  0
    5.6431    0.1325    7.3579 C   0  0  0  0  0  0  0  0  0  0  0  0
    7.0801    1.1497    6.9776 S   0  0  0  0  0  0  0  0  0  0  0  0
    6.3247    2.7493    7.4495 C   0  0  0  0  0  0  0  0  0  0  0  0
    5.8516    3.5030    6.2129 C   0  0  0  0  0  0  0  0  0  0  0  0
    5.5775   -0.5793    8.5672 C   0  0  0  0  0  0  0  0  0  0  0  0
    6.5630   -0.4543    9.4903 F   0  0  0  0  0  0  0  0  0  0  0  0
    4.5004   -1.4415    8.8141 C   0  0  0  0  0  0  0  0  0  0  0  0
    2.1081   -3.5853    7.1518 C   0  0  0  0  0  0  0  0  0  0  0  0
    1.0316   -4.4726    7.2629 C   0  0  0  0  0  0  0  0  0  0  0  0
    0.1765   -4.4074    8.3815 C   0  0  0  0  0  0  0  0  0  0  0  0
   -0.9659   -5.3322    8.5496 C   0  0  0  0  0  0  0  0  0  0  0  0
   -2.0318   -5.3104    7.6369 C   0  0  0  0  0  0  0  0  0  0  0  0
   -3.1138   -6.1817    7.7989 C   0  0  0  0  0  0  0  0  0  0  0  0
   -3.1365   -7.0863    8.8675 C   0  0  0  0  0  0  0  0  0  0  0  0
   -4.5553   -8.1687    9.0892 S   0  0  0  0  0  0  0  0  0  0  0  0
   -3.8578   -9.5786    8.1551 C   0  0  0  0  0  0  0  0  0  0  0  0
   -4.0794   -9.4054    6.6557 C   0  0  0  0  0  0  0  0  0  0  0  0
   -2.0828   -7.0988    9.7912 C   0  0  0  0  0  0  0  0  0  0  0  0
   -0.9995   -6.2256    9.6317 C   0  0  0  0  0  0  0  0  0  0  0  0
   -2.1038   -7.9472   10.8496 F   0  0  0  0  0  0  0  0  0  0  0  0
    0.4506   -3.4070    9.3334 C   0  0  0  0  0  0  0  0  0  0  0  0
   -0.4199   -3.0326   10.7262 S   0  0  0  0  0  0  0  0  0  0  0  0
    0.9328   -5.3648    6.1749 C   0  0  0  0  0  0  0  0  0  0  0  0
    1.9511   -5.1789    5.2387 C   0  0  0  0  0  0  0  0  0  0  0  0
    2.9576   -3.9307    5.7504 S   0  0  0  0  0  0  0  0  0  0  0  0
    2.0635   -5.7992    3.9131 C   0  0  0  0  0  0  0  0  0  0  0  0
    3.2106   -5.7062    3.1304 C   0  0  0  0  0  0  0  0  0  0  0  0
    2.9877   -6.0088    1.7849 C   0  0  0  0  0  0  0  0  0  0  0  0
    3.9177   -5.8214    0.7481 C   0  0  0  0  0  0  0  0  0  0  0  0
    5.2832   -5.3155    1.0166 C   0  0  0  0  0  0  0  0  0  0  0  0
    5.6730   -4.0521    0.5433 C   0  0  0  0  0  0  0  0  0  0  0  0
    6.9580   -3.5666    0.8057 C   0  0  0  0  0  0  0  0  0  0  0  0
    7.8502   -4.3178    1.5775 C   0  0  0  0  0  0  0  0  0  0  0  0
    9.5245   -3.7178    1.8456 S   0  0  0  0  0  0  0  0  0  0  0  0
    9.1267   -2.6701    3.2874 C   0  0  0  0  0  0  0  0  0  0  0  0
    9.2782   -3.4438    4.5889 C   0  0  0  0  0  0  0  0  0  0  0  0
    7.4566   -5.5689    2.0766 C   0  0  0  0  0  0  0  0  0  0  0  0
    8.3146   -6.3083    2.8250 F   0  0  0  0  0  0  0  0  0  0  0  0
    6.1797   -6.0662    1.7964 C   0  0  0  0  0  0  0  0  0  0  0  0
    3.4449   -5.9915   -0.5608 C   0  0  0  0  0  0  0  0  0  0  0  0
    2.1191   -6.3241   -0.8551 C   0  0  0  0  0  0  0  0  0  0  0  0
    1.1880   -6.5399    0.1895 C   0  0  0  0  0  0  0  0  0  0  0  0
   -0.2342   -6.8556   -0.0651 C   0  0  0  0  0  0  0  0  0  0  0  0
   -1.0293   -6.0023   -0.8488 C   0  0  0  0  0  0  0  0  0  0  0  0
   -2.3702   -6.3089   -1.0839 C   0  0  0  0  0  0  0  0  0  0  0  0
   -2.9398   -7.4606   -0.5269 C   0  0  0  0  0  0  0  0  0  0  0  0
   -4.6756   -7.8273   -0.8195 S   0  0  0  0  0  0  0  0  0  0  0  0
   -4.3958   -8.6848   -2.4111 C   0  0  0  0  0  0  0  0  0  0  0  0
   -3.8346  -10.0876   -2.1981 C   0  0  0  0  0  0  0  0  0  0  0  0
   -2.1629   -8.2946    0.2891 C   0  0  0  0  0  0  0  0  0  0  0  0
   -0.8132   -7.9993    0.5078 C   0  0  0  0  0  0  0  0  0  0  0  0
   -2.7131   -9.3899    0.8709 F   0  0  0  0  0  0  0  0  0  0  0  0
    1.6622   -6.3659    1.5083 C   0  0  0  0  0  0  0  0  0  0  0  0
    0.7687   -6.2795    2.9416 S   0  0  0  0  0  0  0  0  0  0  0  0
    1.8554   -6.3357   -2.2422 C   0  0  0  0  0  0  0  0  0  0  0  0
    2.9656   -5.9849   -3.0161 C   0  0  0  0  0  0  0  0  0  0  0  0
    4.2764   -5.7023   -1.9919 S   0  0  0  0  0  0  0  0  0  0  0  0
    2.9446   -5.5903   -4.4353 C   0  0  0  0  0  0  0  0  0  0  0  0
    3.9705   -4.8787   -5.0558 C   0  0  0  0  0  0  0  0  0  0  0  0
    3.5639   -4.2247   -6.2279 C   0  0  0  0  0  0  0  0  0  0  0  0
    4.2963   -3.2234   -6.8933 C   0  0  0  0  0  0  0  0  0  0  0  0
    5.6648   -2.8661   -6.4664 C   0  0  0  0  0  0  0  0  0  0  0  0
    6.7347   -3.7195   -6.7662 C   0  0  0  0  0  0  0  0  0  0  0  0
    8.0196   -3.4255   -6.2999 C   0  0  0  0  0  0  0  0  0  0  0  0
    8.2391   -2.2913   -5.5088 C   0  0  0  0  0  0  0  0  0  0  0  0
    9.8789   -1.9606   -4.8580 S   0  0  0  0  0  0  0  0  0  0  0  0
    9.5935   -2.8179   -3.2660 C   0  0  0  0  0  0  0  0  0  0  0  0
    9.8522   -4.3161   -3.3919 C   0  0  0  0  0  0  0  0  0  0  0  0
    7.1746   -1.4246   -5.2253 C   0  0  0  0  0  0  0  0  0  0  0  0
    7.3702   -0.3175   -4.4647 F   0  0  0  0  0  0  0  0  0  0  0  0
    5.8909   -1.7138   -5.6986 C   0  0  0  0  0  0  0  0  0  0  0  0
    3.5922   -2.4421   -7.8276 C   0  0  0  0  0  0  0  0  0  0  0  0
    2.2489   -2.6696   -8.1457 C   0  0  0  0  0  0  0  0  0  0  0  0
    1.5484   -3.7444   -7.5524 C   0  0  0  0  0  0  0  0  0  0  0  0
    0.1301   -4.0245   -7.8503 C   0  0  0  0  0  0  0  0  0  0  0  0
   -0.8872   -3.1682   -7.3966 C   0  0  0  0  0  0  0  0  0  0  0  0
   -2.2271   -3.4657   -7.6724 C   0  0  0  0  0  0  0  0  0  0  0  0
   -2.5584   -4.6137   -8.4028 C   0  0  0  0  0  0  0  0  0  0  0  0
   -4.2779   -4.9683   -8.7818 S   0  0  0  0  0  0  0  0  0  0  0  0
   -4.5145   -6.0351   -7.3201 C   0  0  0  0  0  0  0  0  0  0  0  0
   -5.8918   -6.6804   -7.3744 C   0  0  0  0  0  0  0  0  0  0  0  0
   -1.5437   -5.4669   -8.8554 C   0  0  0  0  0  0  0  0  0  0  0  0
   -0.2070   -5.1802   -8.5692 C   0  0  0  0  0  0  0  0  0  0  0  0
   -1.8509   -6.5808   -9.5689 F   0  0  0  0  0  0  0  0  0  0  0  0
    2.2289   -4.4776   -6.5641 C   0  0  0  0  0  0  0  0  0  0  0  0
    1.5504   -5.4702   -5.3840 S   0  0  0  0  0  0  0  0  0  0  0  0
    1.6804   -1.6296   -8.9011 C   0  0  0  0  0  0  0  0  0  0  0  0
    2.5469   -0.5486   -9.0973 C   0  0  0  0  0  0  0  0  0  0  0  0
    4.0517   -0.9529   -8.4440 S   0  0  0  0  0  0  0  0  0  0  0  0
    2.0744    0.8494   -9.1802 C   0  0  0  0  0  0  0  0  0  0  0  0
    2.8550    1.9364   -8.7674 C   0  0  0  0  0  0  0  0  0  0  0  0
    2.1063    2.9958   -8.2226 C   0  0  0  0  0  0  0  0  0  0  0  0
    2.6343    4.0495   -7.4437 C   0  0  0  0  0  0  0  0  0  0  0  0
    4.0943    4.2946   -7.3746 C   0  0  0  0  0  0  0  0  0  0  0  0
    4.7963    4.6195   -8.5450 C   0  0  0  0  0  0  0  0  0  0  0  0
    6.1736    4.8557   -8.5010 C   0  0  0  0  0  0  0  0  0  0  0  0
    6.8619    4.7805   -7.2845 C   0  0  0  0  0  0  0  0  0  0  0  0
    8.6334    5.0932   -7.2424 S   0  0  0  0  0  0  0  0  0  0  0  0
    8.4858    6.9163   -7.1837 C   0  0  0  0  0  0  0  0  0  0  0  0
    8.1530    7.4007   -5.7781 C   0  0  0  0  0  0  0  0  0  0  0  0
    6.1715    4.4231   -6.1168 C   0  0  0  0  0  0  0  0  0  0  0  0
    6.8355    4.3116   -4.9370 F   0  0  0  0  0  0  0  0  0  0  0  0
    4.7946    4.1776   -6.1622 C   0  0  0  0  0  0  0  0  0  0  0  0
    1.7159    4.7821   -6.6670 C   0  0  0  0  0  0  0  0  0  0  0  0
    0.3395    4.5451   -6.7133 C   0  0  0  0  0  0  0  0  0  0  0  0
   -0.1904    3.5412   -7.5472 C   0  0  0  0  0  0  0  0  0  0  0  0
   -1.6045    3.1395   -7.4391 C   0  0  0  0  0  0  0  0  0  0  0  0
   -2.6081    3.9359   -8.0030 C   0  0  0  0  0  0  0  0  0  0  0  0
   -3.9511    3.6016   -7.8253 C   0  0  0  0  0  0  0  0  0  0  0  0
   -4.3013    2.4800   -7.0614 C   0  0  0  0  0  0  0  0  0  0  0  0
   -6.0335    2.0919   -6.7894 S   0  0  0  0  0  0  0  0  0  0  0  0
   -6.2449    3.2559   -5.3929 C   0  0  0  0  0  0  0  0  0  0  0  0
   -5.6838    2.6818   -4.0965 C   0  0  0  0  0  0  0  0  0  0  0  0
   -3.2975    1.6650   -6.5161 C   0  0  0  0  0  0  0  0  0  0  0  0
   -1.9534    2.0005   -6.6961 C   0  0  0  0  0  0  0  0  0  0  0  0
   -3.6244    0.5584   -5.8010 F   0  0  0  0  0  0  0  0  0  0  0  0
    0.7283    2.7704   -8.2761 C   0  0  0  0  0  0  0  0  0  0  0  0
    0.4495    1.2680   -8.9726 S   0  0  0  0  0  0  0  0  0  0  0  0
   -0.3701    5.1890   -5.6905 C   0  0  0  0  0  0  0  0  0  0  0  0
    0.4382    5.8661   -4.7783 C   0  0  0  0  0  0  0  0  0  0  0  0
    2.0357    5.7419   -5.3193 S   0  0  0  0  0  0  0  0  0  0  0  0
    0.1074    5.7732   -3.3553 C   0  0  0  0  0  0  0  0  0  0  0  0
    0.0151    4.5404   -2.7169 C   0  0  0  0  0  0  0  0  0  0  0  0
   -0.7191    4.5811   -1.5294 C   0  0  0  0  0  0  0  0  0  0  0  0
   -1.0695    3.4677   -0.7444 C   0  0  0  0  0  0  0  0  0  0  0  0
   -0.7149    2.0824   -1.1366 C   0  0  0  0  0  0  0  0  0  0  0  0
    0.0352    1.2732   -0.2698 C   0  0  0  0  0  0  0  0  0  0  0  0
    0.3329   -0.0499   -0.6235 C   0  0  0  0  0  0  0  0  0  0  0  0
   -0.1074   -0.5679   -1.8469 C   0  0  0  0  0  0  0  0  0  0  0  0
    0.2706   -2.2684   -2.2900 S   0  0  0  0  0  0  0  0  0  0  0  0
    1.8913   -1.8963   -3.0490 C   0  0  0  0  0  0  0  0  0  0  0  0
    1.7273   -1.4106   -4.4860 C   0  0  0  0  0  0  0  0  0  0  0  0
   -0.8768    0.2328   -2.7049 C   0  0  0  0  0  0  0  0  0  0  0  0
   -1.3453   -0.2697   -3.8751 F   0  0  0  0  0  0  0  0  0  0  0  0
   -1.1754    1.5524   -2.3516 C   0  0  0  0  0  0  0  0  0  0  0  0
   -1.8782    3.7124    0.3706 C   0  0  0  0  0  0  0  0  0  0  0  0
   -2.3254    4.9938    0.7233 C   0  0  0  0  0  0  0  0  0  0  0  0
   -1.9594    6.1169   -0.0565 C   0  0  0  0  0  0  0  0  0  0  0  0
   -2.3642    7.4900    0.3169 C   0  0  0  0  0  0  0  0  0  0  0  0
   -3.0793    8.2962   -0.5823 C   0  0  0  0  0  0  0  0  0  0  0  0
   -3.4089    9.6126   -0.2448 C   0  0  0  0  0  0  0  0  0  0  0  0
   -3.0279   10.1361    0.9961 C   0  0  0  0  0  0  0  0  0  0  0  0
   -3.4350   11.8346    1.4170 S   0  0  0  0  0  0  0  0  0  0  0  0
   -1.9931   12.5744    0.5658 C   0  0  0  0  0  0  0  0  0  0  0  0
   -0.7226   12.4344    1.3966 C   0  0  0  0  0  0  0  0  0  0  0  0
   -2.3504    9.3230    1.9149 C   0  0  0  0  0  0  0  0  0  0  0  0
   -2.0132    8.0095    1.5737 C   0  0  0  0  0  0  0  0  0  0  0  0
   -1.9974    9.8079    3.1328 F   0  0  0  0  0  0  0  0  0  0  0  0
   -1.1693    5.8644   -1.2007 C   0  0  0  0  0  0  0  0  0  0  0  0
   -0.7053    6.9310   -2.4302 S   0  0  0  0  0  0  0  0  0  0  0  0
   -3.2276    4.9790    1.8062 C   0  0  0  0  0  0  0  0  0  0  0  0
   -3.4832    3.6906    2.2793 C   0  0  0  0  0  0  0  0  0  0  0  0
   -2.5955    2.5780    1.3750 S   0  0  0  0  0  0  0  0  0  0  0  0
   -4.4729    3.3091    3.3003 C   0  0  0  0  0  0  0  0  0  0  0  0
   -4.9127    2.0047    3.5144 C   0  0  0  0  0  0  0  0  0  0  0  0
   -5.9182    1.9148    4.4851 C   0  0  0  0  0  0  0  0  0  0  0  0
   -6.5722    0.7347    4.8835 C   0  0  0  0  0  0  0  0  0  0  0  0
   -6.2853   -0.5582    4.2356 C   0  0  0  0  0  0  0  0  0  0  0  0
   -5.2655   -1.3880    4.7243 C   0  0  0  0  0  0  0  0  0  0  0  0
   -4.9221   -2.5576    4.0370 C   0  0  0  0  0  0  0  0  0  0  0  0
   -5.5839   -2.8945    2.8498 C   0  0  0  0  0  0  0  0  0  0  0  0
   -5.0767   -4.3461    1.9195 S   0  0  0  0  0  0  0  0  0  0  0  0
   -3.9426   -3.4345    0.8065 C   0  0  0  0  0  0  0  0  0  0  0  0
   -2.5342   -3.3903    1.3877 C   0  0  0  0  0  0  0  0  0  0  0  0
   -6.6268   -2.0832    2.3800 C   0  0  0  0  0  0  0  0  0  0  0  0
   -7.2803   -2.3981    1.2316 F   0  0  0  0  0  0  0  0  0  0  0  0
   -6.9688   -0.9150    3.0649 C   0  0  0  0  0  0  0  0  0  0  0  0
   -7.5726    0.8632    5.8589 C   0  0  0  0  0  0  0  0  0  0  0  0
   -7.9191    2.0929    6.4268 C   0  0  0  0  0  0  0  0  0  0  0  0
   -7.2583    3.2782    6.0304 C   0  0  0  0  0  0  0  0  0  0  0  0
   -7.6017    4.5913    6.6166 C   0  0  0  0  0  0  0  0  0  0  0  0
   -7.4417    4.8071    7.9942 C   0  0  0  0  0  0  0  0  0  0  0  0
   -7.8316    6.0201    8.5665 C   0  0  0  0  0  0  0  0  0  0  0  0
   -8.3723    7.0339    7.7687 C   0  0  0  0  0  0  0  0  0  0  0  0
   -8.9538    8.5531    8.5363 S   0  0  0  0  0  0  0  0  0  0  0  0
   -7.3271    9.3867    8.5467 C   0  0  0  0  0  0  0  0  0  0  0  0
   -7.0656   10.0911    7.2222 C   0  0  0  0  0  0  0  0  0  0  0  0
   -8.5282    6.8279    6.3907 C   0  0  0  0  0  0  0  0  0  0  0  0
   -8.1364    5.6126    5.8158 C   0  0  0  0  0  0  0  0  0  0  0  0
   -9.0824    7.7893    5.6108 F   0  0  0  0  0  0  0  0  0  0  0  0
   -6.2631    3.1503    5.0404 C   0  0  0  0  0  0  0  0  0  0  0  0
   -5.3284    4.3550    4.3170 S   0  0  0  0  0  0  0  0  0  0  0  0
   -8.9787    1.9896    7.3446 C   0  0  0  0  0  0  0  0  0  0  0  0
   -9.4481    0.6875    7.5000 C   0  0  0  0  0  0  0  0  0  0  0  0
   -8.5613   -0.3403    6.4975 S   0  0  0  0  0  0  0  0  0  0  0  0
    0.3758   -1.0936   12.0414 H   0  0  0  0  0  0  0  0  0  0  0  0
    2.2621   -0.7436   10.2956 H   0  0  0  0  0  0  0  0  0  0  0  0
    2.7625   -0.9571    5.9207 H   0  0  0  0  0  0  0  0  0  0  0  0
    4.6793    0.5142    5.4694 H   0  0  0  0  0  0  0  0  0  0  0  0
    5.4790    2.6133    8.1593 H   0  0  0  0  0  0  0  0  0  0  0  0
    7.0963    3.3603    7.9601 H   0  0  0  0  0  0  0  0  0  0  0  0
    6.6889    3.6215    5.4877 H   0  0  0  0  0  0  0  0  0  0  0  0
    5.0165    2.9670    5.7182 H   0  0  0  0  0  0  0  0  0  0  0  0
    5.5003    4.5144    6.5078 H   0  0  0  0  0  0  0  0  0  0  0  0
    4.4845   -2.0195    9.7334 H   0  0  0  0  0  0  0  0  0  0  0  0
   -2.0305   -4.6092    6.8102 H   0  0  0  0  0  0  0  0  0  0  0  0
   -3.9351   -6.1485    7.0948 H   0  0  0  0  0  0  0  0  0  0  0  0
   -4.3859  -10.5020    8.4842 H   0  0  0  0  0  0  0  0  0  0  0  0
   -2.7758   -9.7092    8.3725 H   0  0  0  0  0  0  0  0  0  0  0  0
   -5.1509   -9.2001    6.4444 H   0  0  0  0  0  0  0  0  0  0  0  0
   -3.4601   -8.5702    6.2653 H   0  0  0  0  0  0  0  0  0  0  0  0
   -3.7856  -10.3371    6.1282 H   0  0  0  0  0  0  0  0  0  0  0  0
   -0.1888   -6.2441   10.3511 H   0  0  0  0  0  0  0  0  0  0  0  0
    0.1509   -6.1016    6.0616 H   0  0  0  0  0  0  0  0  0  0  0  0
    4.1507   -5.3370    3.5124 H   0  0  0  0  0  0  0  0  0  0  0  0
    4.9815   -3.4444   -0.0300 H   0  0  0  0  0  0  0  0  0  0  0  0
    7.2549   -2.6009    0.4163 H   0  0  0  0  0  0  0  0  0  0  0  0
    9.8420   -1.8198    3.2996 H   0  0  0  0  0  0  0  0  0  0  0  0
    8.0990   -2.2483    3.2112 H   0  0  0  0  0  0  0  0  0  0  0  0
    9.1638   -2.7537    5.4516 H   0  0  0  0  0  0  0  0  0  0  0  0
   10.2842   -3.9151    4.6416 H   0  0  0  0  0  0  0  0  0  0  0  0
    8.4993   -4.2348    4.6545 H   0  0  0  0  0  0  0  0  0  0  0  0
    5.8885   -7.0385    2.1775 H   0  0  0  0  0  0  0  0  0  0  0  0
   -0.6121   -5.0964   -1.2685 H   0  0  0  0  0  0  0  0  0  0  0  0
   -2.9673   -5.6523   -1.7058 H   0  0  0  0  0  0  0  0  0  0  0  0
   -3.7087   -8.0944   -3.0561 H   0  0  0  0  0  0  0  0  0  0  0  0
   -5.3719   -8.7672   -2.9339 H   0  0  0  0  0  0  0  0  0  0  0  0
   -2.8006  -10.0380   -1.8039 H   0  0  0  0  0  0  0  0  0  0  0  0
   -4.4728  -10.6565   -1.4890 H   0  0  0  0  0  0  0  0  0  0  0  0
   -3.8078  -10.6263   -3.1687 H   0  0  0  0  0  0  0  0  0  0  0  0
   -0.2230   -8.6617    1.1321 H   0  0  0  0  0  0  0  0  0  0  0  0
    0.8811   -6.5251   -2.6732 H   0  0  0  0  0  0  0  0  0  0  0  0
    4.9369   -4.7172   -4.5984 H   0  0  0  0  0  0  0  0  0  0  0  0
    6.5726   -4.6141   -7.3552 H   0  0  0  0  0  0  0  0  0  0  0  0
    8.8403   -4.0930   -6.5382 H   0  0  0  0  0  0  0  0  0  0  0  0
   10.2990   -2.3966   -2.5184 H   0  0  0  0  0  0  0  0  0  0  0  0
    8.5586   -2.6406   -2.8963 H   0  0  0  0  0  0  0  0  0  0  0  0
    9.7419   -4.7913   -2.3954 H   0  0  0  0  0  0  0  0  0  0  0  0
   10.8836   -4.4979   -3.7644 H   0  0  0  0  0  0  0  0  0  0  0  0
    9.1249   -4.7821   -4.0877 H   0  0  0  0  0  0  0  0  0  0  0  0
    5.0719   -1.0511   -5.4526 H   0  0  0  0  0  0  0  0  0  0  0  0
   -0.6446   -2.2765   -6.8302 H   0  0  0  0  0  0  0  0  0  0  0  0
   -3.0053   -2.8000   -7.3183 H   0  0  0  0  0  0  0  0  0  0  0  0
   -4.4293   -5.4249   -6.3943 H   0  0  0  0  0  0  0  0  0  0  0  0
   -3.7418   -6.8368   -7.3008 H   0  0  0  0  0  0  0  0  0  0  0  0
   -6.6830   -5.9010   -7.3901 H   0  0  0  0  0  0  0  0  0  0  0  0
   -6.0390   -7.3272   -6.4822 H   0  0  0  0  0  0  0  0  0  0  0  0
   -5.9852   -7.3079   -8.2873 H   0  0  0  0  0  0  0  0  0  0  0  0
    0.5693   -5.8524   -8.9157 H   0  0  0  0  0  0  0  0  0  0  0  0
    0.6265   -1.5827   -9.1360 H   0  0  0  0  0  0  0  0  0  0  0  0
    3.9319    1.8743   -8.6751 H   0  0  0  0  0  0  0  0  0  0  0  0
    4.2727    4.6935   -9.4910 H   0  0  0  0  0  0  0  0  0  0  0  0
    6.6979    5.1147   -9.4137 H   0  0  0  0  0  0  0  0  0  0  0  0
    7.7180    7.2711   -7.9044 H   0  0  0  0  0  0  0  0  0  0  0  0
    9.4634    7.3491   -7.4857 H   0  0  0  0  0  0  0  0  0  0  0  0
    8.1631    8.5107   -5.7590 H   0  0  0  0  0  0  0  0  0  0  0  0
    8.9096    7.0223   -5.0555 H   0  0  0  0  0  0  0  0  0  0  0  0
    7.1450    7.0496   -5.4765 H   0  0  0  0  0  0  0  0  0  0  0  0
    4.2809    3.8839   -5.2548 H   0  0  0  0  0  0  0  0  0  0  0  0
   -2.3470    4.8210   -8.5732 H   0  0  0  0  0  0  0  0  0  0  0  0
   -4.7199    4.2272   -8.2584 H   0  0  0  0  0  0  0  0  0  0  0  0
   -5.7637    4.2326   -5.6188 H   0  0  0  0  0  0  0  0  0  0  0  0
   -7.3344    3.4315   -5.2626 H   0  0  0  0  0  0  0  0  0  0  0  0
   -5.9205    3.3701   -3.2593 H   0  0  0  0  0  0  0  0  0  0  0  0
   -4.5812    2.5764   -4.1587 H   0  0  0  0  0  0  0  0  0  0  0  0
   -6.1414    1.6927   -3.8850 H   0  0  0  0  0  0  0  0  0  0  0  0
   -1.1872    1.3800   -6.2450 H   0  0  0  0  0  0  0  0  0  0  0  0
   -1.4142    4.9837   -5.4801 H   0  0  0  0  0  0  0  0  0  0  0  0
    0.4004    3.6323   -3.1583 H   0  0  0  0  0  0  0  0  0  0  0  0
    0.3826    1.6650    0.6799 H   0  0  0  0  0  0  0  0  0  0  0  0
    0.9073   -0.6665    0.0583 H   0  0  0  0  0  0  0  0  0  0  0  0
    2.4874   -2.8326   -3.0580 H   0  0  0  0  0  0  0  0  0  0  0  0
    2.4394   -1.1417   -2.4434 H   0  0  0  0  0  0  0  0  0  0  0  0
    1.1474   -2.1529   -5.0705 H   0  0  0  0  0  0  0  0  0  0  0  0
    2.7233   -1.2930   -4.9602 H   0  0  0  0  0  0  0  0  0  0  0  0
    1.2084   -0.4310   -4.5135 H   0  0  0  0  0  0  0  0  0  0  0  0
   -1.7808    2.1584   -3.0190 H   0  0  0  0  0  0  0  0  0  0  0  0
   -3.3884    7.9060   -1.5476 H   0  0  0  0  0  0  0  0  0  0  0  0
   -3.9484   10.2268   -0.9539 H   0  0  0  0  0  0  0  0  0  0  0  0
   -2.2025   13.6560    0.4134 H   0  0  0  0  0  0  0  0  0  0  0  0
   -1.8509   12.1088   -0.4330 H   0  0  0  0  0  0  0  0  0  0  0  0
    0.1137   12.9507    0.8798 H   0  0  0  0  0  0  0  0  0  0  0  0
   -0.8642   12.8964    2.3978 H   0  0  0  0  0  0  0  0  0  0  0  0
   -0.4542   11.3666    1.5198 H   0  0  0  0  0  0  0  0  0  0  0  0
   -1.4711    7.3988    2.2851 H   0  0  0  0  0  0  0  0  0  0  0  0
   -3.7259    5.8596    2.1868 H   0  0  0  0  0  0  0  0  0  0  0  0
   -4.5292    1.1497    2.9716 H   0  0  0  0  0  0  0  0  0  0  0  0
   -4.7201   -1.1138    5.6209 H   0  0  0  0  0  0  0  0  0  0  0  0
   -4.1219   -3.1843    4.4127 H   0  0  0  0  0  0  0  0  0  0  0  0
   -3.9072   -3.9709   -0.1669 H   0  0  0  0  0  0  0  0  0  0  0  0
   -4.3066   -2.4027    0.6084 H   0  0  0  0  0  0  0  0  0  0  0  0
   -2.1612   -4.4243    1.5587 H   0  0  0  0  0  0  0  0  0  0  0  0
   -2.5279   -2.8330    2.3476 H   0  0  0  0  0  0  0  0  0  0  0  0
   -1.8541   -2.8786    0.6730 H   0  0  0  0  0  0  0  0  0  0  0  0
   -7.7465   -0.2705    2.6686 H   0  0  0  0  0  0  0  0  0  0  0  0
   -7.0313    4.0287    8.6272 H   0  0  0  0  0  0  0  0  0  0  0  0
   -7.7187    6.1692    9.6326 H   0  0  0  0  0  0  0  0  0  0  0  0
   -6.5111    8.6644    8.7655 H   0  0  0  0  0  0  0  0  0  0  0  0
   -7.3374   10.1461    9.3595 H   0  0  0  0  0  0  0  0  0  0  0  0
   -7.9057   10.7805    6.9850 H   0  0  0  0  0  0  0  0  0  0  0  0
   -6.1250   10.6805    7.2957 H   0  0  0  0  0  0  0  0  0  0  0  0
   -6.9612    9.3487    6.4050 H   0  0  0  0  0  0  0  0  0  0  0  0
   -8.2824    5.4536    4.7517 H   0  0  0  0  0  0  0  0  0  0  0  0
   -9.4166    2.8267    7.8668 H   0  0  0  0  0  0  0  0  0  0  0  0
  -10.2630    0.3912    8.1421 H   0  0  0  0  0  0  0  0  0  0  0  0
  1  2  2  0
  2  3  1  0
  3  4  2  0
  4  5  1  0
  5  6  2  0
  6  7  1  0
  7  8  2  0
  8  9  1  0
  9 10  1  0
 10 11  1  0
  8 12  1  0
 12 13  1  0
 12 14  2  0
  4 15  1  0
 15 16  2  0
 16 17  1  0
 17 18  1  0
 18 19  2  0
 19 20  1  0
 20 21  2  0
 21 22  1  0
 22 23  1  0
 23 24  1  0
 21 25  1  0
 25 26  2  0
 25 27  1  0
 17 28  2  0
 28 29  1  0
 16 30  1  0
 30 31  2  0
 31 32  1  0
 31 33  1  0
 33 34  2  0
 34 35  1  0
 35 36  2  0
 36 37  1  0
 37 38  2  0
 38 39  1  0
 39 40  2  0
 40 41  1  0
 41 42  1  0
 42 43  1  0
 40 44  1  0
 44 45  1  0
 44 46  2  0
 36 47  1  0
 47 48  2  0
 48 49  1  0
 49 50  1  0
 50 51  2  0
 51 52  1  0
 52 53  2  0
 53 54  1  0
 54 55  1  0
 55 56  1  0
 53 57  1  0
 57 58  2  0
 57 59  1  0
 49 60  2  0
 60 61  1  0
 48 62  1  0
 62 63  2  0
 63 64  1  0
 63 65  1  0
 65 66  2  0
 66 67  1  0
 67 68  2  0
 68 69  1  0
 69 70  2  0
 70 71  1  0
 71 72  2  0
 72 73  1  0
 73 74  1  0
 74 75  1  0
 72 76  1  0
 76 77  1  0
 76 78  2  0
 68 79  1  0
 79 80  2  0
 80 81  1  0
 81 82  1  0
 82 83  2  0
 83 84  1  0
 84 85  2  0
 85 86  1  0
 86 87  1  0
 87 88  1  0
 85 89  1  0
 89 90  2  0
 89 91  1  0
 81 92  2  0
 92 93  1  0
 80 94  1  0
 94 95  2  0
 95 96  1  0
 95 97  1  0
 97 98  2  0
 98 99  1  0
 99100  2  0
100101  1  0
101102  2  0
102103  1  0
103104  2  0
104105  1  0
105106  1  0
106107  1  0
104108  1  0
108109  1  0
108110  2  0
100111  1  0
111112  2  0
112113  1  0
113114  1  0
114115  2  0
115116  1  0
116117  2  0
117118  1  0
118119  1  0
119120  1  0
117121  1  0
121122  2  0
121123  1  0
113124  2  0
124125  1  0
112126  1  0
126127  2  0
127128  1  0
127129  1  0
129130  2  0
130131  1  0
131132  2  0
132133  1  0
133134  2  0
134135  1  0
135136  2  0
136137  1  0
137138  1  0
138139  1  0
136140  1  0
140141  1  0
140142  2  0
132143  1  0
143144  2  0
144145  1  0
145146  1  0
146147  2  0
147148  1  0
148149  2  0
149150  1  0
150151  1  0
151152  1  0
149153  1  0
153154  2  0
153155  1  0
145156  2  0
156157  1  0
144158  1  0
158159  2  0
159160  1  0
159161  1  0
161162  2  0
162163  1  0
163164  2  0
164165  1  0
165166  2  0
166167  1  0
167168  2  0
168169  1  0
169170  1  0
170171  1  0
168172  1  0
172173  1  0
172174  2  0
164175  1  0
175176  2  0
176177  1  0
177178  1  0
178179  2  0
179180  1  0
180181  2  0
181182  1  0
182183  1  0
183184  1  0
181185  1  0
185186  2  0
185187  1  0
177188  2  0
188189  1  0
176190  1  0
190191  2  0
191192  1  0
 29  1  1  0
 61 33  1  0
 93 65  1  0
125 97  1  0
157129  1  0
189161  1  0
 28  3  1  0
 60 35  1  0
 92 67  1  0
124 99  1  0
156131  1  0
188163  1  0
 14  5  1  0
 32 15  1  0
 46 37  1  0
 64 47  1  0
 78 69  1  0
 96 79  1  0
110101  1  0
128111  1  0
142133  1  0
160143  1  0
174165  1  0
192175  1  0
 26 18  1  0
 58 50  1  0
 90 82  1  0
122114  1  0
154146  1  0
186178  1  0
  1193  1  0
  2194  1  0
  6195  1  0
  7196  1  0
 10197  1  0
 10198  1  0
 11199  1  0
 11200  1  0
 11201  1  0
 14202  1  0
 19203  1  0
 20204  1  0
 23205  1  0
 23206  1  0
 24207  1  0
 24208  1  0
 24209  1  0
 26210  1  0
 30211  1  0
 34212  1  0
 38213  1  0
 39214  1  0
 42215  1  0
 42216  1  0
 43217  1  0
 43218  1  0
 43219  1  0
 46220  1  0
 51221  1  0
 52222  1  0
 55223  1  0
 55224  1  0
 56225  1  0
 56226  1  0
 56227  1  0
 58228  1  0
 62229  1  0
 66230  1  0
 70231  1  0
 71232  1  0
 74233  1  0
 74234  1  0
 75235  1  0
 75236  1  0
 75237  1  0
 78238  1  0
 83239  1  0
 84240  1  0
 87241  1  0
 87242  1  0
 88243  1  0
 88244  1  0
 88245  1  0
 90246  1  0
 94247  1  0
 98248  1  0
102249  1  0
103250  1  0
106251  1  0
106252  1  0
107253  1  0
107254  1  0
107255  1  0
110256  1  0
115257  1  0
116258  1  0
119259  1  0
119260  1  0
120261  1  0
120262  1  0
120263  1  0
122264  1  0
126265  1  0
130266  1  0
134267  1  0
135268  1  0
138269  1  0
138270  1  0
139271  1  0
139272  1  0
139273  1  0
142274  1  0
147275  1  0
148276  1  0
151277  1  0
151278  1  0
152279  1  0
152280  1  0
152281  1  0
154282  1  0
158283  1  0
162284  1  0
166285  1  0
167286  1  0
170287  1  0
170288  1  0
171289  1  0
171290  1  0
171291  1  0
174292  1  0
179293  1  0
180294  1  0
183295  1  0
183296  1  0
184297  1  0
184298  1  0
184299  1  0
186300  1  0
190301  1  0
191302  1  0
M  END

