
     RDKit          3D

116125  0  0  0  0  0  0  0  0999 V2000
    2.6181   -3.2733    4.3288 C   0  0  0  0  0  0  0  0  0  0  0  0
    2.8982   -4.5737    4.6331 C   0  0  0  0  0  0  0  0  0  0  0  0
    3.0152   -5.1022    6.0210 C   0  0  0  0  0  0  0  0  0  0  0  0
    3.0356   -5.2265    3.4740 N   0  0  0  0  0  0  0  0  0  0  0  0
    2.8540   -4.3925    2.4383 C   0  0  0  0  0  0  0  0  0  0  0  0
    2.9263   -4.7441    0.9943 C   0  0  0  0  0  0  0  0  0  0  0  0
    2.5904   -3.1595    2.9567 C   0  0  0  0  0  0  0  0  0  0  0  0
    2.3197   -1.8999    2.2625 C   0  0  0  0  0  0  0  0  0  0  0  0
    3.2183   -1.2686    1.4191 C   0  0  0  0  0  0  0  0  0  0  0  0
    4.5903   -1.7001    1.0421 C   0  0  0  0  0  0  0  0  0  0  0  0
    2.6309   -0.1348    0.9607 N   0  0  0  0  0  0  0  0  0  0  0  0
    1.3889   -0.0228    1.4835 C   0  0  0  0  0  0  0  0  0  0  0  0
    0.4777    1.1086    1.1823 C   0  0  0  0  0  0  0  0  0  0  0  0
    1.1766   -1.1158    2.2990 C   0  0  0  0  0  0  0  0  0  0  0  0
   -0.0271   -1.4013    3.0630 C   0  0  0  0  0  0  0  0  0  0  0  0
   -0.5134   -0.6512    4.1120 C   0  0  0  0  0  0  0  0  0  0  0  0
    0.1114    0.5860    4.6382 C   0  0  0  0  0  0  0  0  0  0  0  0
   -1.6369   -1.2361    4.5633 N   0  0  0  0  0  0  0  0  0  0  0  0
   -1.8692   -2.3452    3.8153 C   0  0  0  0  0  0  0  0  0  0  0  0
   -3.0317   -3.2416    4.0332 C   0  0  0  0  0  0  0  0  0  0  0  0
   -0.8625   -2.4740    2.8554 C   0  0  0  0  0  0  0  0  0  0  0  0
   -0.7505   -3.5226    1.8567 C   0  0  0  0  0  0  0  0  0  0  0  0
   -0.5034   -4.8496    2.1239 C   0  0  0  0  0  0  0  0  0  0  0  0
   -0.3093   -5.4491    3.4744 C   0  0  0  0  0  0  0  0  0  0  0  0
   -0.4755   -5.4717    0.9358 N   0  0  0  0  0  0  0  0  0  0  0  0
   -0.6945   -4.5909   -0.0626 C   0  0  0  0  0  0  0  0  0  0  0  0
   -0.7432   -4.8810   -1.5311 C   0  0  0  0  0  0  0  0  0  0  0  0
   -0.8695   -3.3625    0.4949 C   0  0  0  0  0  0  0  0  0  0  0  0
   -1.1393   -2.1107   -0.2545 C   0  0  0  0  0  0  0  0  0  0  0  0
   -0.3408   -1.5293   -1.2093 C   0  0  0  0  0  0  0  0  0  0  0  0
   -0.7609   -0.3875   -1.7819 C   0  0  0  0  0  0  0  0  0  0  0  0
   -0.1389    0.4021   -2.7641 C   0  0  0  0  0  0  0  0  0  0  0  0
    1.1023   -0.0144   -3.4125 C   0  0  0  0  0  0  0  0  0  0  0  0
    1.9719    0.6369   -4.1755 C   0  0  0  0  0  0  0  0  0  0  0  0
    3.0271    0.0553   -4.7602 C   0  0  0  0  0  0  0  0  0  0  0  0
    3.3068   -1.2398   -4.6300 C   0  0  0  0  0  0  0  0  0  0  0  0
    4.5287   -2.3780   -5.1902 S   0  0  0  0  0  0  0  0  0  0  0  0
    5.9068   -2.4354   -4.0145 C   0  0  0  0  0  0  0  0  0  0  0  0
    5.4125   -3.0230   -2.7134 C   0  0  0  0  0  0  0  0  0  0  0  0
    1.7897   -1.7658   -3.4493 Se  0  0  0  0  0  2  0  0  0  0  0  0
   -0.7253    1.5631   -3.2215 C   0  0  0  0  0  0  0  0  0  0  0  0
   -1.9409    2.0547   -2.7812 C   0  0  0  0  0  0  0  0  0  0  0  0
   -2.5571    1.2745   -1.8184 C   0  0  0  0  0  0  0  0  0  0  0  0
   -3.9073    1.5208   -1.3161 C   0  0  0  0  0  0  0  0  0  0  0  0
   -4.9870    2.1986   -1.6760 C   0  0  0  0  0  0  0  0  0  0  0  0
   -6.0883    2.3115   -0.9218 C   0  0  0  0  0  0  0  0  0  0  0  0
   -6.2066    1.7418    0.2807 C   0  0  0  0  0  0  0  0  0  0  0  0
   -7.4611    1.6742    1.5176 S   0  0  0  0  0  0  0  0  0  0  0  0
   -7.3332    3.0194    2.7192 C   0  0  0  0  0  0  0  0  0  0  0  0
   -6.0419    2.8069    3.4936 C   0  0  0  0  0  0  0  0  0  0  0  0
   -4.4617    0.8783    0.4059 Se  0  0  0  0  0  2  0  0  0  0  0  0
   -1.9660    0.1077   -1.3565 C   0  0  0  0  0  0  0  0  0  0  0  0
   -2.4556   -1.0476   -0.1787 S   0  0  0  0  0  0  0  0  0  0  0  0
   -2.3373    3.2189   -3.3364 C   0  0  0  0  0  0  0  0  0  0  0  0
   -1.5461    3.8174   -4.2694 C   0  0  0  0  0  0  0  0  0  0  0  0
   -0.2370    2.7374   -4.3617 S   0  0  0  0  0  0  0  0  0  0  0  0
   -1.7461    5.0754   -5.0215 C   0  0  0  0  0  0  0  0  0  0  0  0
   -2.7633    5.9694   -4.9972 C   0  0  0  0  0  0  0  0  0  0  0  0
   -3.9946    5.9236   -4.1838 C   0  0  0  0  0  0  0  0  0  0  0  0
   -2.4860    6.9666   -5.8689 N   0  0  0  0  0  0  0  0  0  0  0  0
   -1.3043    6.7255   -6.4531 C   0  0  0  0  0  0  0  0  0  0  0  0
   -0.6554    7.5954   -7.4740 C   0  0  0  0  0  0  0  0  0  0  0  0
   -0.8278    5.5611   -5.9446 C   0  0  0  0  0  0  0  0  0  0  0  0
    2.4506   -2.4822    5.0637 H   0  0  0  0  0  0  0  0  0  0  0  0
    2.1762   -4.7592    6.6490 H   0  0  0  0  0  0  0  0  0  0  0  0
    3.9712   -4.7804    6.4914 H   0  0  0  0  0  0  0  0  0  0  0  0
    2.9971   -6.2071    6.0406 H   0  0  0  0  0  0  0  0  0  0  0  0
    3.2567   -6.2555    3.4134 H   0  0  0  0  0  0  0  0  0  0  0  0
    2.8599   -5.8614    0.9005 H   0  0  0  0  0  0  0  0  0  0  0  0
    3.9404   -4.4920    0.5842 H   0  0  0  0  0  0  0  0  0  0  0  0
    2.1595   -4.2075    0.4374 H   0  0  0  0  0  0  0  0  0  0  0  0
    4.5590   -2.1535    0.0507 H   0  0  0  0  0  0  0  0  0  0  0  0
    4.9934   -2.4526    1.7483 H   0  0  0  0  0  0  0  0  0  0  0  0
    5.2662   -0.8111    1.0097 H   0  0  0  0  0  0  0  0  0  0  0  0
    3.0771    0.5499    0.2998 H   0  0  0  0  0  0  0  0  0  0  0  0
    0.7741    2.0090    1.7688 H   0  0  0  0  0  0  0  0  0  0  0  0
    0.6159    1.3899    0.1126 H   0  0  0  0  0  0  0  0  0  0  0  0
   -0.5699    0.8940    1.4365 H   0  0  0  0  0  0  0  0  0  0  0  0
    0.1430    0.4995    5.7437 H   0  0  0  0  0  0  0  0  0  0  0  0
    1.1675    0.6532    4.3075 H   0  0  0  0  0  0  0  0  0  0  0  0
   -0.4605    1.4877    4.3863 H   0  0  0  0  0  0  0  0  0  0  0  0
   -2.2083   -0.8742    5.3535 H   0  0  0  0  0  0  0  0  0  0  0  0
   -3.1253   -3.8757    3.1146 H   0  0  0  0  0  0  0  0  0  0  0  0
   -2.9700   -3.8418    4.9391 H   0  0  0  0  0  0  0  0  0  0  0  0
   -3.9400   -2.5725    4.0007 H   0  0  0  0  0  0  0  0  0  0  0  0
   -1.2592   -5.8200    3.8971 H   0  0  0  0  0  0  0  0  0  0  0  0
    0.4258   -6.2585    3.4598 H   0  0  0  0  0  0  0  0  0  0  0  0
    0.0394   -4.6443    4.1562 H   0  0  0  0  0  0  0  0  0  0  0  0
   -0.3106   -6.4772    0.7936 H   0  0  0  0  0  0  0  0  0  0  0  0
   -0.5123   -5.9366   -1.7402 H   0  0  0  0  0  0  0  0  0  0  0  0
   -0.0877   -4.2064   -2.1137 H   0  0  0  0  0  0  0  0  0  0  0  0
   -1.7833   -4.7114   -1.8972 H   0  0  0  0  0  0  0  0  0  0  0  0
    0.6311   -2.0182   -1.4538 H   0  0  0  0  0  0  0  0  0  0  0  0
    1.8355    1.7523   -4.3282 H   0  0  0  0  0  0  0  0  0  0  0  0
    3.7583    0.6564   -5.4166 H   0  0  0  0  0  0  0  0  0  0  0  0
    6.7461   -3.0552   -4.3719 H   0  0  0  0  0  0  0  0  0  0  0  0
    6.2954   -1.4337   -3.7950 H   0  0  0  0  0  0  0  0  0  0  0  0
    6.1533   -2.8569   -1.8996 H   0  0  0  0  0  0  0  0  0  0  0  0
    5.2555   -4.1127   -2.7987 H   0  0  0  0  0  0  0  0  0  0  0  0
    4.4456   -2.5538   -2.4066 H   0  0  0  0  0  0  0  0  0  0  0  0
   -5.0012    2.6734   -2.7193 H   0  0  0  0  0  0  0  0  0  0  0  0
   -6.9896    2.9100   -1.2793 H   0  0  0  0  0  0  0  0  0  0  0  0
   -8.2136    2.9909    3.3650 H   0  0  0  0  0  0  0  0  0  0  0  0
   -7.2203    3.9855    2.1828 H   0  0  0  0  0  0  0  0  0  0  0  0
   -6.0571    1.7506    3.8389 H   0  0  0  0  0  0  0  0  0  0  0  0
   -5.1694    3.0571    2.8857 H   0  0  0  0  0  0  0  0  0  0  0  0
   -6.0000    3.4257    4.4099 H   0  0  0  0  0  0  0  0  0  0  0  0
   -3.2794    3.7231   -3.0156 H   0  0  0  0  0  0  0  0  0  0  0  0
   -4.6353    5.0383   -4.3765 H   0  0  0  0  0  0  0  0  0  0  0  0
   -4.6662    6.7943   -4.4541 H   0  0  0  0  0  0  0  0  0  0  0  0
   -3.8106    5.9940   -3.0858 H   0  0  0  0  0  0  0  0  0  0  0  0
   -3.0909    7.8127   -6.0730 H   0  0  0  0  0  0  0  0  0  0  0  0
   -0.2112    8.4883   -6.9759 H   0  0  0  0  0  0  0  0  0  0  0  0
    0.1810    7.0778   -7.9772 H   0  0  0  0  0  0  0  0  0  0  0  0
   -1.4430    7.9275   -8.1678 H   0  0  0  0  0  0  0  0  0  0  0  0
    0.0965    5.0790   -6.1969 H   0  0  0  0  0  0  0  0  0  0  0  0
  1  2  2  0
  2  3  1  0
  2  4  1  0
  4  5  1  0
  5  6  1  0
  5  7  2  0
  7  8  1  0
  8  9  2  0
  9 10  1  0
  9 11  1  0
 11 12  1  0
 12 13  1  0
 12 14  2  0
 14 15  1  0
 15 16  2  0
 16 17  1  0
 16 18  1  0
 18 19  1  0
 19 20  1  0
 19 21  2  0
 21 22  1  0
 22 23  2  0
 23 24  1  0
 23 25  1  0
 25 26  1  0
 26 27  1  0
 26 28  2  0
 28 29  1  0
 29 30  2  0
 30 31  1  0
 31 32  2  0
 32 33  1  0
 33 34  2  0
 34 35  1  0
 35 36  2  0
 36 37  1  0
 37 38  1  0
 38 39  1  0
 36 40  1  0
 32 41  1  0
 41 42  2  0
 42 43  1  0
 43 44  1  0
 44 45  2  0
 45 46  1  0
 46 47  2  0
 47 48  1  0
 48 49  1  0
 49 50  1  0
 47 51  1  0
 43 52  2  0
 52 53  1  0
 42 54  1  0
 54 55  2  0
 55 56  1  0
 55 57  1  0
 57 58  2  0
 58 59  1  0
 58 60  1  0
 60 61  1  0
 61 62  1  0
 61 63  2  0
  7  1  1  0
 14  8  1  0
 21 15  1  0
 28 22  1  0
 53 29  1  0
 63 57  1  0
 52 31  1  0
 40 33  1  0
 56 41  1  0
 51 44  1  0
  1 64  1  0
  3 65  1  0
  3 66  1  0
  3 67  1  0
  4 68  1  0
  6 69  1  0
  6 70  1  0
  6 71  1  0
 10 72  1  0
 10 73  1  0
 10 74  1  0
 11 75  1  0
 13 76  1  0
 13 77  1  0
 13 78  1  0
 17 79  1  0
 17 80  1  0
 17 81  1  0
 18 82  1  0
 20 83  1  0
 20 84  1  0
 20 85  1  0
 24 86  1  0
 24 87  1  0
 24 88  1  0
 25 89  1  0
 27 90  1  0
 27 91  1  0
 27 92  1  0
 30 93  1  0
 34 94  1  0
 35 95  1  0
 38 96  1  0
 38 97  1  0
 39 98  1  0
 39 99  1  0
 39100  1  0
 45101  1  0
 46102  1  0
 49103  1  0
 49104  1  0
 50105  1  0
 50106  1  0
 50107  1  0
 54108  1  0
 59109  1  0
 59110  1  0
 59111  1  0
 60112  1  0
 62113  1  0
 62114  1  0
 62115  1  0
 63116  1  0
M  END

