
     RDKit          3D

196219  0  0  0  0  0  0  0  0999 V2000
    9.1131   -6.0892    6.3244 C   0  0  0  0  0  0  0  0  0  0  0  0
    8.5674   -5.1872    7.2081 C   0  0  0  0  0  0  0  0  0  0  0  0
    7.2616   -4.8857    7.0431 C   0  0  0  0  0  0  0  0  0  0  0  0
    6.4978   -4.0095    7.8492 C   0  0  0  0  0  0  0  0  0  0  0  0
    7.0350   -3.1148    8.8200 C   0  0  0  0  0  0  0  0  0  0  0  0
    6.6693   -2.3516    9.8385 C   0  0  0  0  0  0  0  0  0  0  0  0
    7.4487   -1.4947   10.4659 C   0  0  0  0  0  0  0  0  0  0  0  0
    8.7264   -1.2638   10.1635 C   0  0  0  0  0  0  0  0  0  0  0  0
   10.0694   -0.3012   10.7760 S   0  0  0  0  0  0  0  0  0  0  0  0
   11.2884   -0.1713    9.4124 C   0  0  0  0  0  0  0  0  0  0  0  0
   11.8360   -1.4943    8.9847 C   0  0  0  0  0  0  0  0  0  0  0  0
    8.9378   -2.5150    8.6617 Se  0  0  0  0  0  2  0  0  0  0  0  0
    5.1365   -3.8386    7.5593 C   0  0  0  0  0  0  0  0  0  0  0  0
    4.5075   -4.4555    6.5520 C   0  0  0  0  0  0  0  0  0  0  0  0
    5.2638   -5.3211    5.7388 C   0  0  0  0  0  0  0  0  0  0  0  0
    4.7302   -6.0755    4.6109 C   0  0  0  0  0  0  0  0  0  0  0  0
    3.5621   -6.5279    4.1798 C   0  0  0  0  0  0  0  0  0  0  0  0
    3.3653   -7.0323    2.9600 C   0  0  0  0  0  0  0  0  0  0  0  0
    4.3241   -7.1399    2.0321 C   0  0  0  0  0  0  0  0  0  0  0  0
    4.4363   -7.7018    0.3690 S   0  0  0  0  0  0  0  0  0  0  0  0
    4.1012   -6.3855   -0.8474 C   0  0  0  0  0  0  0  0  0  0  0  0
    5.1705   -5.3162   -0.8089 C   0  0  0  0  0  0  0  0  0  0  0  0
    5.8360   -6.3901    3.0561 Se  0  0  0  0  0  2  0  0  0  0  0  0
    6.5948   -5.4881    6.0309 C   0  0  0  0  0  0  0  0  0  0  0  0
    7.8134   -6.4798    5.3075 S   0  0  0  0  0  0  0  0  0  0  0  0
    3.2236   -4.1499    6.3535 C   0  0  0  0  0  0  0  0  0  0  0  0
    2.6178   -3.2000    7.2150 C   0  0  0  0  0  0  0  0  0  0  0  0
    3.8987   -2.8269    8.2286 S   0  0  0  0  0  0  0  0  0  0  0  0
    1.2087   -2.7926    6.9547 C   0  0  0  0  0  0  0  0  0  0  0  0
    0.2519   -3.6742    5.8544 S   0  0  0  0  0  0  0  0  0  0  0  0
   -1.0923   -2.5711    5.6504 C   0  0  0  0  0  0  0  0  0  0  0  0
   -0.7362   -1.6057    6.4591 C   0  0  0  0  0  0  0  0  0  0  0  0
    0.4625   -1.6983    7.1556 C   0  0  0  0  0  0  0  0  0  0  0  0
    0.5508   -0.5906    7.8803 O   0  0  0  0  0  0  0  0  0  0  0  0
   -0.4935    0.1695    7.6829 C   0  0  0  0  0  0  0  0  0  0  0  0
   -0.7866    1.6407    8.3944 S   0  0  0  0  0  0  0  0  0  0  0  0
   -1.2558   -0.4262    6.8451 O   0  0  0  0  0  0  0  0  0  0  0  0
   -1.9934   -2.8200    4.4724 C   0  0  0  0  0  0  0  0  0  0  0  0
   -1.9025   -3.9991    3.7526 C   0  0  0  0  0  0  0  0  0  0  0  0
   -2.4380   -4.0172    2.5272 C   0  0  0  0  0  0  0  0  0  0  0  0
   -2.1831   -5.0656    1.5665 C   0  0  0  0  0  0  0  0  0  0  0  0
   -1.5225   -6.2626    1.9492 C   0  0  0  0  0  0  0  0  0  0  0  0
   -0.6853   -6.8423    2.7586 C   0  0  0  0  0  0  0  0  0  0  0  0
   -0.5388   -8.1302    3.0186 C   0  0  0  0  0  0  0  0  0  0  0  0
   -1.2903   -9.0739    2.4320 C   0  0  0  0  0  0  0  0  0  0  0  0
   -1.4249  -10.8238    2.6670 S   0  0  0  0  0  0  0  0  0  0  0  0
   -2.7362  -11.1886    3.8938 C   0  0  0  0  0  0  0  0  0  0  0  0
   -2.3960  -10.6122    5.2593 C   0  0  0  0  0  0  0  0  0  0  0  0
   -2.4625   -8.0248    1.2618 Se  0  0  0  0  0  2  0  0  0  0  0  0
   -2.5529   -4.8873    0.2581 C   0  0  0  0  0  0  0  0  0  0  0  0
   -3.1739   -3.7714   -0.2089 C   0  0  0  0  0  0  0  0  0  0  0  0
   -3.4388   -2.7343    0.7634 C   0  0  0  0  0  0  0  0  0  0  0  0
   -3.9956   -1.4748    0.3692 C   0  0  0  0  0  0  0  0  0  0  0  0
   -3.9975   -0.6744   -0.6793 C   0  0  0  0  0  0  0  0  0  0  0  0
   -4.8387    0.3597   -0.8436 C   0  0  0  0  0  0  0  0  0  0  0  0
   -5.7695    0.7343    0.0057 C   0  0  0  0  0  0  0  0  0  0  0  0
   -7.0398    1.9289    0.1738 S   0  0  0  0  0  0  0  0  0  0  0  0
   -8.4988    1.2242   -0.7259 C   0  0  0  0  0  0  0  0  0  0  0  0
   -8.8715   -0.0749   -0.0586 C   0  0  0  0  0  0  0  0  0  0  0  0
   -5.4662   -0.6617    1.4264 Se  0  0  0  0  0  2  0  0  0  0  0  0
   -3.0504   -2.9089    2.0788 C   0  0  0  0  0  0  0  0  0  0  0  0
   -2.8521   -1.8195    3.4336 S   0  0  0  0  0  0  0  0  0  0  0  0
   -3.2885   -3.6482   -1.5342 C   0  0  0  0  0  0  0  0  0  0  0  0
   -2.7272   -4.6906   -2.3339 C   0  0  0  0  0  0  0  0  0  0  0  0
   -2.1365   -5.7361   -1.2141 S   0  0  0  0  0  0  0  0  0  0  0  0
   -2.6276   -4.3955   -3.8180 C   0  0  0  0  0  0  0  0  0  0  0  0
   -1.3944   -3.9435   -4.3293 C   0  0  0  0  0  0  0  0  0  0  0  0
   -1.4892   -3.1526   -5.4354 C   0  0  0  0  0  0  0  0  0  0  0  0
   -0.4768   -2.2558   -5.8584 C   0  0  0  0  0  0  0  0  0  0  0  0
    0.9068   -2.3721   -5.4917 C   0  0  0  0  0  0  0  0  0  0  0  0
    1.7307   -3.2890   -4.9580 C   0  0  0  0  0  0  0  0  0  0  0  0
    2.9849   -3.0162   -4.5927 C   0  0  0  0  0  0  0  0  0  0  0  0
    3.5613   -1.8388   -4.7049 C   0  0  0  0  0  0  0  0  0  0  0  0
    5.1086   -1.0756   -4.2528 S   0  0  0  0  0  0  0  0  0  0  0  0
    4.9129   -0.1540   -2.6966 C   0  0  0  0  0  0  0  0  0  0  0  0
    6.2642    0.3723   -2.2766 C   0  0  0  0  0  0  0  0  0  0  0  0
    2.0774   -0.8222   -5.5075 Se  0  0  0  0  0  2  0  0  0  0  0  0
   -0.8459   -1.1843   -6.7249 C   0  0  0  0  0  0  0  0  0  0  0  0
   -2.0712   -0.9476   -7.1942 C   0  0  0  0  0  0  0  0  0  0  0  0
   -3.0500   -1.8497   -6.8191 C   0  0  0  0  0  0  0  0  0  0  0  0
   -4.3185   -2.0722   -7.4913 C   0  0  0  0  0  0  0  0  0  0  0  0
   -5.4774   -2.6352   -7.1451 C   0  0  0  0  0  0  0  0  0  0  0  0
   -6.3993   -2.9688   -8.0428 C   0  0  0  0  0  0  0  0  0  0  0  0
   -6.2795   -2.7894   -9.3530 C   0  0  0  0  0  0  0  0  0  0  0  0
   -7.2245   -3.1515  -10.8052 S   0  0  0  0  0  0  0  0  0  0  0  0
   -6.9176   -4.8346  -11.4074 C   0  0  0  0  0  0  0  0  0  0  0  0
   -5.5322   -5.0639  -11.9136 C   0  0  0  0  0  0  0  0  0  0  0  0
   -4.4712   -1.9525   -9.4051 Se  0  0  0  0  0  2  0  0  0  0  0  0
   -2.6968   -2.8984   -5.9402 C   0  0  0  0  0  0  0  0  0  0  0  0
   -3.7574   -3.7885   -4.8479 S   0  0  0  0  0  0  0  0  0  0  0  0
   -2.3379    0.3393   -7.6489 C   0  0  0  0  0  0  0  0  0  0  0  0
   -1.3842    1.2438   -7.5775 C   0  0  0  0  0  0  0  0  0  0  0  0
   -0.0326    0.3211   -6.9078 S   0  0  0  0  0  0  0  0  0  0  0  0
   -1.4218    2.7391   -7.1869 C   0  0  0  0  0  0  0  0  0  0  0  0
   -2.5652    3.3775   -6.2097 S   0  0  0  0  0  0  0  0  0  0  0  0
   -2.2079    4.6828   -5.3847 C   0  0  0  0  0  0  0  0  0  0  0  0
   -0.7575    4.6034   -6.1303 C   0  0  0  0  0  0  0  0  0  0  0  0
   -0.4545    3.5375   -7.0649 C   0  0  0  0  0  0  0  0  0  0  0  0
    0.5744    4.2246   -7.0549 O   0  0  0  0  0  0  0  0  0  0  0  0
    1.3480    4.7140   -7.0671 C   0  0  0  0  0  0  0  0  0  0  0  0
    2.7814    5.4750   -7.1907 S   0  0  0  0  0  0  0  0  0  0  0  0
    0.3052    5.4520   -6.0349 O   0  0  0  0  0  0  0  0  0  0  0  0
   -1.8221    5.9193   -4.6305 C   0  0  0  0  0  0  0  0  0  0  0  0
   -2.1654    7.1783   -4.5820 C   0  0  0  0  0  0  0  0  0  0  0  0
   -1.6711    7.9644   -3.5865 C   0  0  0  0  0  0  0  0  0  0  0  0
   -1.9202    9.3131   -3.3065 C   0  0  0  0  0  0  0  0  0  0  0  0
   -2.9660   10.0571   -3.9688 C   0  0  0  0  0  0  0  0  0  0  0  0
   -3.3221   11.3303   -4.0382 C   0  0  0  0  0  0  0  0  0  0  0  0
   -4.4526   11.7710   -4.5866 C   0  0  0  0  0  0  0  0  0  0  0  0
   -5.3813   10.9910   -5.1454 C   0  0  0  0  0  0  0  0  0  0  0  0
   -6.9518   11.1271   -5.8967 S   0  0  0  0  0  0  0  0  0  0  0  0
   -8.2944   10.8273   -4.6776 C   0  0  0  0  0  0  0  0  0  0  0  0
   -8.1869    9.3563   -4.3018 C   0  0  0  0  0  0  0  0  0  0  0  0
   -4.4948    9.2267   -4.8514 Se  0  0  0  0  0  2  0  0  0  0  0  0
   -1.3002    9.9063   -2.1987 C   0  0  0  0  0  0  0  0  0  0  0  0
   -0.4569    9.2784   -1.3303 C   0  0  0  0  0  0  0  0  0  0  0  0
   -0.2244    7.9471   -1.5961 C   0  0  0  0  0  0  0  0  0  0  0  0
    0.4472    7.0781   -0.6194 C   0  0  0  0  0  0  0  0  0  0  0  0
    1.0604    5.9008   -0.7283 C   0  0  0  0  0  0  0  0  0  0  0  0
    1.4168    5.1781    0.3475 C   0  0  0  0  0  0  0  0  0  0  0  0
    1.1964    5.5557    1.5924 C   0  0  0  0  0  0  0  0  0  0  0  0
    1.3550    4.9208    3.2429 S   0  0  0  0  0  0  0  0  0  0  0  0
   -0.2505    4.9972    4.1129 C   0  0  0  0  0  0  0  0  0  0  0  0
   -1.2987    4.1909    3.4320 C   0  0  0  0  0  0  0  0  0  0  0  0
    0.2989    7.3122    1.2439 Se  0  0  0  0  0  2  0  0  0  0  0  0
   -0.8292    7.3685   -2.6896 C   0  0  0  0  0  0  0  0  0  0  0  0
   -0.7408    5.7611   -3.2358 S   0  0  0  0  0  0  0  0  0  0  0  0
    0.0690   10.0252   -0.3263 C   0  0  0  0  0  0  0  0  0  0  0  0
   -0.2861   11.3484   -0.2676 C   0  0  0  0  0  0  0  0  0  0  0  0
   -1.3475   11.4914   -1.6109 S   0  0  0  0  0  0  0  0  0  0  0  0
   10.1610   -6.4424    6.3273 H   0  0  0  0  0  0  0  0  0  0  0  0
    9.2257   -4.7964    8.0105 H   0  0  0  0  0  0  0  0  0  0  0  0
    5.5593   -2.4768   10.1703 H   0  0  0  0  0  0  0  0  0  0  0  0
    7.0377   -0.8739   11.3452 H   0  0  0  0  0  0  0  0  0  0  0  0
   10.8331    0.3886    8.5323 H   0  0  0  0  0  0  0  0  0  0  0  0
   12.1208    0.4431    9.7660 H   0  0  0  0  0  0  0  0  0  0  0  0
   12.9198   -1.4567    8.7801 H   0  0  0  0  0  0  0  0  0  0  0  0
   11.5790   -2.3436    9.6200 H   0  0  0  0  0  0  0  0  0  0  0  0
   11.3786   -1.7572    7.9712 H   0  0  0  0  0  0  0  0  0  0  0  0
    2.6877   -6.5285    4.9197 H   0  0  0  0  0  0  0  0  0  0  0  0
    2.3295   -7.4115    2.6435 H   0  0  0  0  0  0  0  0  0  0  0  0
    3.9958   -6.8501   -1.8249 H   0  0  0  0  0  0  0  0  0  0  0  0
    3.1385   -5.8717   -0.6112 H   0  0  0  0  0  0  0  0  0  0  0  0
    5.2044   -4.8196    0.1735 H   0  0  0  0  0  0  0  0  0  0  0  0
    4.8364   -4.5207   -1.5280 H   0  0  0  0  0  0  0  0  0  0  0  0
    6.1798   -5.6891   -1.1128 H   0  0  0  0  0  0  0  0  0  0  0  0
    2.6015   -4.5617    5.5261 H   0  0  0  0  0  0  0  0  0  0  0  0
   -1.4571   -4.8876    4.2551 H   0  0  0  0  0  0  0  0  0  0  0  0
    0.0656   -6.1027    3.2878 H   0  0  0  0  0  0  0  0  0  0  0  0
    0.2443   -8.5167    3.7543 H   0  0  0  0  0  0  0  0  0  0  0  0
   -2.7937  -12.2878    3.9955 H   0  0  0  0  0  0  0  0  0  0  0  0
   -3.7012  -10.8151    3.5503 H   0  0  0  0  0  0  0  0  0  0  0  0
   -3.1849  -10.9829    5.9326 H   0  0  0  0  0  0  0  0  0  0  0  0
   -1.4287  -10.9701    5.5937 H   0  0  0  0  0  0  0  0  0  0  0  0
   -2.5159   -9.4964    5.2445 H   0  0  0  0  0  0  0  0  0  0  0  0
   -3.1746   -0.8651   -1.4708 H   0  0  0  0  0  0  0  0  0  0  0  0
   -4.7451    0.9867   -1.8127 H   0  0  0  0  0  0  0  0  0  0  0  0
   -8.2524    1.0890   -1.7973 H   0  0  0  0  0  0  0  0  0  0  0  0
   -9.3547    1.9522   -0.6926 H   0  0  0  0  0  0  0  0  0  0  0  0
   -8.4332   -0.9652   -0.5773 H   0  0  0  0  0  0  0  0  0  0  0  0
   -8.4067   -0.1328    0.9733 H   0  0  0  0  0  0  0  0  0  0  0  0
   -9.9489   -0.1500    0.0691 H   0  0  0  0  0  0  0  0  0  0  0  0
   -3.8187   -2.8297   -2.0514 H   0  0  0  0  0  0  0  0  0  0  0  0
   -0.5030   -4.2474   -3.7797 H   0  0  0  0  0  0  0  0  0  0  0  0
    1.3188   -4.3542   -4.8689 H   0  0  0  0  0  0  0  0  0  0  0  0
    3.6203   -3.8652   -4.1387 H   0  0  0  0  0  0  0  0  0  0  0  0
    4.5471   -0.8384   -1.9297 H   0  0  0  0  0  0  0  0  0  0  0  0
    4.2628    0.7411   -2.8304 H   0  0  0  0  0  0  0  0  0  0  0  0
    6.3972    1.4082   -2.5868 H   0  0  0  0  0  0  0  0  0  0  0  0
    7.0581   -0.2482   -2.7479 H   0  0  0  0  0  0  0  0  0  0  0  0
    6.3985    0.2515   -1.1600 H   0  0  0  0  0  0  0  0  0  0  0  0
   -5.6626   -2.7948   -6.0278 H   0  0  0  0  0  0  0  0  0  0  0  0
   -7.3856   -3.4471   -7.7104 H   0  0  0  0  0  0  0  0  0  0  0  0
   -7.6115   -5.0694  -12.2278 H   0  0  0  0  0  0  0  0  0  0  0  0
   -7.1201   -5.5916  -10.5926 H   0  0  0  0  0  0  0  0  0  0  0  0
   -5.1983   -6.0768  -11.6017 H   0  0  0  0  0  0  0  0  0  0  0  0
   -5.5148   -5.0776  -13.0192 H   0  0  0  0  0  0  0  0  0  0  0  0
   -4.7804   -4.2987  -11.5820 H   0  0  0  0  0  0  0  0  0  0  0  0
   -3.3352    0.6107   -8.0673 H   0  0  0  0  0  0  0  0  0  0  0  0
   -2.8487    7.5710   -5.3893 H   0  0  0  0  0  0  0  0  0  0  0  0
   -2.5864   12.1018   -3.5991 H   0  0  0  0  0  0  0  0  0  0  0  0
   -4.6890   12.9040   -4.6023 H   0  0  0  0  0  0  0  0  0  0  0  0
   -9.2571   11.0752   -5.1568 H   0  0  0  0  0  0  0  0  0  0  0  0
   -8.1107   11.3940   -3.7399 H   0  0  0  0  0  0  0  0  0  0  0  0
   -8.1163    8.7247   -5.2414 H   0  0  0  0  0  0  0  0  0  0  0  0
   -9.0764    9.0118   -3.7477 H   0  0  0  0  0  0  0  0  0  0  0  0
   -7.2912    9.2272   -3.6750 H   0  0  0  0  0  0  0  0  0  0  0  0
    1.2897    5.5184   -1.7742 H   0  0  0  0  0  0  0  0  0  0  0  0
    1.9598    4.1738    0.2040 H   0  0  0  0  0  0  0  0  0  0  0  0
   -0.0560    4.5475    5.1090 H   0  0  0  0  0  0  0  0  0  0  0  0
   -0.4932    6.0508    4.2822 H   0  0  0  0  0  0  0  0  0  0  0  0
   -2.0970    4.9257    3.0811 H   0  0  0  0  0  0  0  0  0  0  0  0
   -0.9383    3.6369    2.5343 H   0  0  0  0  0  0  0  0  0  0  0  0
   -1.8729    3.5073    4.0958 H   0  0  0  0  0  0  0  0  0  0  0  0
    0.7779    9.6590    0.4476 H   0  0  0  0  0  0  0  0  0  0  0  0
    0.0371   12.0964    0.4757 H   0  0  0  0  0  0  0  0  0  0  0  0
  1  2  2  0
  2  3  1  0
  3  4  2  0
  4  5  1  0
  5  6  2  0
  6  7  1  0
  7  8  2  0
  8  9  1  0
  9 10  1  0
 10 11  1  0
  8 12  1  0
  4 13  1  0
 13 14  2  0
 14 15  1  0
 15 16  1  0
 16 17  2  0
 17 18  1  0
 18 19  2  0
 19 20  1  0
 20 21  1  0
 21 22  1  0
 19 23  1  0
 15 24  2  0
 24 25  1  0
 14 26  1  0
 26 27  2  0
 27 28  1  0
 27 29  1  0
 29 30  1  0
 30 31  1  0
 31 32  2  0
 32 33  1  0
 33 34  1  0
 34 35  1  0
 35 36  2  0
 35 37  1  0
 31 38  1  0
 38 39  2  0
 39 40  1  0
 40 41  2  0
 41 42  1  0
 42 43  2  0
 43 44  1  0
 44 45  2  0
 45 46  1  0
 46 47  1  0
 47 48  1  0
 45 49  1  0
 41 50  1  0
 50 51  2  0
 51 52  1  0
 52 53  1  0
 53 54  2  0
 54 55  1  0
 55 56  2  0
 56 57  1  0
 57 58  1  0
 58 59  1  0
 56 60  1  0
 52 61  2  0
 61 62  1  0
 51 63  1  0
 63 64  2  0
 64 65  1  0
 64 66  1  0
 66 67  2  0
 67 68  1  0
 68 69  2  0
 69 70  1  0
 70 71  2  0
 71 72  1  0
 72 73  2  0
 73 74  1  0
 74 75  1  0
 75 76  1  0
 73 77  1  0
 69 78  1  0
 78 79  2  0
 79 80  1  0
 80 81  1  0
 81 82  2  0
 82 83  1  0
 83 84  2  0
 84 85  1  0
 85 86  1  0
 86 87  1  0
 84 88  1  0
 80 89  2  0
 89 90  1  0
 79 91  1  0
 91 92  2  0
 92 93  1  0
 92 94  1  0
 94 95  1  0
 95 96  1  0
 96 97  2  0
 97 98  1  0
 98 99  1  0
 99100  1  0
100101  2  0
100102  1  0
 96103  1  0
103104  2  0
104105  1  0
105106  2  0
106107  1  0
107108  2  0
108109  1  0
109110  2  0
110111  1  0
111112  1  0
112113  1  0
110114  1  0
106115  1  0
115116  2  0
116117  1  0
117118  1  0
118119  2  0
119120  1  0
120121  2  0
121122  1  0
122123  1  0
123124  1  0
121125  1  0
117126  2  0
126127  1  0
116128  1  0
128129  2  0
129130  1  0
 25  1  1  0
 33 29  2  0
 62 38  1  0
 90 66  1  0
 98 94  2  0
127103  1  0
 24  3  1  0
 37 32  1  0
 61 40  1  0
 89 68  1  0
102 97  1  0
126105  1  0
 12  5  1  0
 28 13  1  0
 49 42  1  0
 65 50  1  0
 77 70  1  0
 93 78  1  0
114107  1  0
130115  1  0
 23 16  1  0
 60 53  1  0
 88 81  1  0
125118  1  0
  1131  1  0
  2132  1  0
  6133  1  0
  7134  1  0
 10135  1  0
 10136  1  0
 11137  1  0
 11138  1  0
 11139  1  0
 17140  1  0
 18141  1  0
 21142  1  0
 21143  1  0
 22144  1  0
 22145  1  0
 22146  1  0
 26147  1  0
 39148  1  0
 43149  1  0
 44150  1  0
 47151  1  0
 47152  1  0
 48153  1  0
 48154  1  0
 48155  1  0
 54156  1  0
 55157  1  0
 58158  1  0
 58159  1  0
 59160  1  0
 59161  1  0
 59162  1  0
 63163  1  0
 67164  1  0
 71165  1  0
 72166  1  0
 75167  1  0
 75168  1  0
 76169  1  0
 76170  1  0
 76171  1  0
 82172  1  0
 83173  1  0
 86174  1  0
 86175  1  0
 87176  1  0
 87177  1  0
 87178  1  0
 91179  1  0
104180  1  0
108181  1  0
109182  1  0
112183  1  0
112184  1  0
113185  1  0
113186  1  0
113187  1  0
119188  1  0
120189  1  0
123190  1  0
123191  1  0
124192  1  0
124193  1  0
124194  1  0
128195  1  0
129196  1  0
M  END

