
     RDKit          3D

200223  0  0  0  0  0  0  0  0999 V2000
    4.6324   -2.6771  -13.2496 C   0  0  0  0  0  0  0  0  0  0  0  0
    4.4482   -3.7424  -12.4052 C   0  0  0  0  0  0  0  0  0  0  0  0
    4.0269   -3.4786  -11.1499 C   0  0  0  0  0  0  0  0  0  0  0  0
    3.7434   -4.3983  -10.1226 C   0  0  0  0  0  0  0  0  0  0  0  0
    4.0779   -5.8082  -10.1750 C   0  0  0  0  0  0  0  0  0  0  0  0
    4.8246   -6.6307  -10.8863 C   0  0  0  0  0  0  0  0  0  0  0  0
    4.8811   -7.9523  -10.7152 C   0  0  0  0  0  0  0  0  0  0  0  0
    4.1689   -8.5850   -9.7792 C   0  0  0  0  0  0  0  0  0  0  0  0
    4.0155  -10.2741   -9.2941 S   0  0  0  0  0  0  0  0  0  0  0  0
    2.9771  -10.4939   -7.8502 C   0  0  0  0  0  0  0  0  0  0  0  0
    3.6895   -9.8583   -6.6439 C   0  0  0  0  0  0  0  0  0  0  0  0
    3.2282   -7.0859   -8.9662 Se  0  0  0  0  0  2  0  0  0  0  0  0
    3.2724   -3.9263   -8.8955 C   0  0  0  0  0  0  0  0  0  0  0  0
    3.0648   -2.6012   -8.5889 C   0  0  0  0  0  0  0  0  0  0  0  0
    3.3521   -1.6900   -9.6018 C   0  0  0  0  0  0  0  0  0  0  0  0
    3.3188   -0.2381   -9.4718 C   0  0  0  0  0  0  0  0  0  0  0  0
    3.3321    0.6605   -8.4963 C   0  0  0  0  0  0  0  0  0  0  0  0
    3.1725    1.9712   -8.7034 C   0  0  0  0  0  0  0  0  0  0  0  0
    2.9857    2.5131   -9.9103 C   0  0  0  0  0  0  0  0  0  0  0  0
    2.7413    4.1351  -10.5676 S   0  0  0  0  0  0  0  0  0  0  0  0
    4.3184    4.9386  -10.9738 C   0  0  0  0  0  0  0  0  0  0  0  0
    5.0322    4.2399  -12.0889 C   0  0  0  0  0  0  0  0  0  0  0  0
    3.0398    0.8794  -11.0151 Se  0  0  0  0  0  2  0  0  0  0  0  0
    3.8129   -2.1818  -10.8199 C   0  0  0  0  0  0  0  0  0  0  0  0
    4.2131   -1.3491  -12.2837 S   0  0  0  0  0  0  0  0  0  0  0  0
    2.5574   -2.3301   -7.3764 C   0  0  0  0  0  0  0  0  0  0  0  0
    2.2858   -3.3869   -6.5402 C   0  0  0  0  0  0  0  0  0  0  0  0
    2.7438   -4.7192   -7.4671 S   0  0  0  0  0  0  0  0  0  0  0  0
    1.7594   -3.2754   -5.1619 C   0  0  0  0  0  0  0  0  0  0  0  0
    0.9711   -4.0920   -4.4255 C   0  0  0  0  0  0  0  0  0  0  0  0
    0.5357   -3.6624   -3.2211 C   0  0  0  0  0  0  0  0  0  0  0  0
   -0.3365   -4.2789   -2.3106 C   0  0  0  0  0  0  0  0  0  0  0  0
   -0.8253   -5.6492   -2.4163 C   0  0  0  0  0  0  0  0  0  0  0  0
   -0.5643   -6.7535   -3.0903 C   0  0  0  0  0  0  0  0  0  0  0  0
   -1.2859   -7.8852   -3.0021 C   0  0  0  0  0  0  0  0  0  0  0  0
   -2.3407   -8.0127   -2.2216 C   0  0  0  0  0  0  0  0  0  0  0  0
   -3.5332   -9.2488   -1.7895 S   0  0  0  0  0  0  0  0  0  0  0  0
   -3.1738  -10.7763   -2.6377 C   0  0  0  0  0  0  0  0  0  0  0  0
   -1.8797  -11.3553   -2.0872 C   0  0  0  0  0  0  0  0  0  0  0  0
   -2.3899   -6.2137   -1.4146 Se  0  0  0  0  0  2  0  0  0  0  0  0
   -0.6960   -3.5908   -1.1573 C   0  0  0  0  0  0  0  0  0  0  0  0
   -0.2858   -2.3455   -0.7768 C   0  0  0  0  0  0  0  0  0  0  0  0
    0.5951   -1.7273   -1.6855 C   0  0  0  0  0  0  0  0  0  0  0  0
    1.2859   -0.5136   -1.4645 C   0  0  0  0  0  0  0  0  0  0  0  0
    1.9765    0.4229   -2.0414 C   0  0  0  0  0  0  0  0  0  0  0  0
    2.6534    1.4142   -1.4577 C   0  0  0  0  0  0  0  0  0  0  0  0
    2.7207    1.5938   -0.1343 C   0  0  0  0  0  0  0  0  0  0  0  0
    3.5251    2.7867    0.8968 S   0  0  0  0  0  0  0  0  0  0  0  0
    3.2666    2.3772    2.6307 C   0  0  0  0  0  0  0  0  0  0  0  0
    1.8144    2.5366    3.0142 C   0  0  0  0  0  0  0  0  0  0  0  0
    1.6473    0.1241    0.4806 Se  0  0  0  0  0  2  0  0  0  0  0  0
    0.9423   -2.4161   -2.8430 C   0  0  0  0  0  0  0  0  0  0  0  0
    1.9034   -1.8981   -4.1729 S   0  0  0  0  0  0  0  0  0  0  0  0
   -0.7988   -1.8417    0.3562 C   0  0  0  0  0  0  0  0  0  0  0  0
   -1.7009   -2.5942    1.0636 C   0  0  0  0  0  0  0  0  0  0  0  0
   -1.7954   -3.9982    0.1111 S   0  0  0  0  0  0  0  0  0  0  0  0
   -2.3619   -2.2760    2.2798 N   0  0  0  0  0  0  0  0  0  0  0  0
   -3.6505   -2.7423    2.7883 C   0  0  1  0  0  0  0  0  0  0  0  0
   -4.2973   -1.4806    3.3627 C   0  0  2  0  0  0  0  0  0  0  0  0
   -4.6567   -0.5557    2.3107 N   0  0  0  0  0  0  0  0  0  0  0  0
   -5.4053   -1.1642    1.2483 C   0  0  2  0  0  0  0  0  0  0  0  0
   -5.7099   -2.5662    1.6171 C   0  0  1  0  0  0  0  0  0  0  0  0
   -6.4008   -3.2219    0.4037 C   0  0  0  0  0  0  0  0  0  0  0  0
   -5.1606   -2.6845   -0.8573 S   0  0  0  0  0  0  0  0  0  0  0  0
   -4.7554   -1.0701   -0.0818 C   0  0  0  0  0  0  0  0  0  0  0  0
   -4.4728   -3.3186    1.7721 N   0  0  0  0  0  0  0  0  0  0  0  0
   -3.4311   -0.9707    4.3341 N   0  0  0  0  0  0  0  0  0  0  0  0
   -1.8187   -1.2287    3.6148 S   0  0  0  0  0  0  0  0  0  0  0  0
   -3.5753    0.2127    4.8812 N   0  0  0  0  0  0  0  0  0  0  0  0
   -4.6471    0.6833    5.5997 C   0  0  1  0  0  0  0  0  0  0  0  0
   -5.1451    1.9980    5.1536 C   0  0  2  0  0  0  0  0  0  0  0  0
   -6.4211    2.0004    4.4658 N   0  0  0  0  0  0  0  0  0  0  0  0
   -7.4815    1.3891    5.2402 C   0  0  2  0  0  0  0  0  0  0  0  0
   -6.8450    0.5168    6.2861 C   0  0  1  0  0  0  0  0  0  0  0  0
   -7.8940   -0.3097    6.9265 C   0  0  0  0  0  0  0  0  0  0  0  0
   -8.9588   -0.7159    5.4845 S   0  0  0  0  0  0  0  0  0  0  0  0
   -8.2116    0.4551    4.2839 C   0  0  0  0  0  0  0  0  0  0  0  0
   -5.7699   -0.2617    5.6970 N   0  0  0  0  0  0  0  0  0  0  0  0
   -4.1550    2.7355    4.4174 N   0  0  0  0  0  0  0  0  0  0  0  0
   -2.7930    1.5849    4.2214 S   0  0  0  0  0  0  0  0  0  0  0  0
   -3.6819    3.8780    5.1025 N   0  0  0  0  0  0  0  0  0  0  0  0
   -2.9649    4.7423    4.2283 C   0  0  1  0  0  0  0  0  0  0  0  0
   -1.7105    5.2487    4.7861 C   0  0  2  0  0  0  0  0  0  0  0  0
   -0.7638    5.4325    3.6762 N   0  0  0  0  0  0  0  0  0  0  0  0
   -1.4656    6.0857    2.5834 C   0  0  2  0  0  0  0  0  0  0  0  0
   -2.4794    5.2388    1.9327 C   0  0  1  0  0  0  0  0  0  0  0  0
   -1.9149    4.5011    0.7600 C   0  0  0  0  0  0  0  0  0  0  0  0
   -0.3786    5.3799    0.3687 S   0  0  0  0  0  0  0  0  0  0  0  0
   -0.5608    6.7342    1.5957 C   0  0  0  0  0  0  0  0  0  0  0  0
   -2.8208    4.1689    2.9081 N   0  0  0  0  0  0  0  0  0  0  0  0
   -1.1522    4.3587    5.7553 N   0  0  0  0  0  0  0  0  0  0  0  0
   -2.4737    3.3694    6.3197 S   0  0  0  0  0  0  0  0  0  0  0  0
    0.2137    4.3051    6.1840 C   0  0  0  0  0  0  0  0  0  0  0  0
    0.7961    3.4532    7.0828 C   0  0  0  0  0  0  0  0  0  0  0  0
    2.1032    3.5830    7.3480 C   0  0  0  0  0  0  0  0  0  0  0  0
    2.8680    2.8515    8.2457 C   0  0  0  0  0  0  0  0  0  0  0  0
    2.4380    1.6434    8.9395 C   0  0  0  0  0  0  0  0  0  0  0  0
    1.4758    0.7194    8.7678 C   0  0  0  0  0  0  0  0  0  0  0  0
    1.2679   -0.2618    9.6508 C   0  0  0  0  0  0  0  0  0  0  0  0
    1.9278   -0.4667   10.7564 C   0  0  0  0  0  0  0  0  0  0  0  0
    2.0031   -1.5426   12.1403 S   0  0  0  0  0  0  0  0  0  0  0  0
    3.1394   -2.9178   11.7114 C   0  0  0  0  0  0  0  0  0  0  0  0
    2.5576   -3.7566   10.6011 C   0  0  0  0  0  0  0  0  0  0  0  0
    3.2366    1.1149   10.6052 Se  0  0  0  0  0  2  0  0  0  0  0  0
    4.2098    3.1762    8.4119 C   0  0  0  0  0  0  0  0  0  0  0  0
    4.8944    4.1653    7.7666 C   0  0  0  0  0  0  0  0  0  0  0  0
    4.1067    4.9000    6.8503 C   0  0  0  0  0  0  0  0  0  0  0  0
    4.5895    5.9851    6.0449 C   0  0  0  0  0  0  0  0  0  0  0  0
    4.1175    6.8088    5.0983 C   0  0  0  0  0  0  0  0  0  0  0  0
    4.8468    7.7635    4.5144 C   0  0  0  0  0  0  0  0  0  0  0  0
    6.1116    8.0433    4.7649 C   0  0  0  0  0  0  0  0  0  0  0  0
    7.3751    9.1355    4.2509 S   0  0  0  0  0  0  0  0  0  0  0  0
    8.8901    8.8026    5.1668 C   0  0  0  0  0  0  0  0  0  0  0  0
    9.4930    7.4571    4.8454 C   0  0  0  0  0  0  0  0  0  0  0  0
    6.4467    6.6454    6.1867 Se  0  0  0  0  0  2  0  0  0  0  0  0
    2.7726    4.5778    6.6908 C   0  0  0  0  0  0  0  0  0  0  0  0
    1.5368    5.2730    5.7338 S   0  0  0  0  0  0  0  0  0  0  0  0
    6.1933    4.3059    8.0707 C   0  0  0  0  0  0  0  0  0  0  0  0
    6.7319    3.4450    9.0060 C   0  0  0  0  0  0  0  0  0  0  0  0
    5.4053    2.4754    9.4229 S   0  0  0  0  0  0  0  0  0  0  0  0
    4.9719   -2.7167  -14.2977 H   0  0  0  0  0  0  0  0  0  0  0  0
    4.6239   -4.7577  -12.8374 H   0  0  0  0  0  0  0  0  0  0  0  0
    5.5180   -6.1874  -11.6781 H   0  0  0  0  0  0  0  0  0  0  0  0
    5.5486   -8.6207  -11.3730 H   0  0  0  0  0  0  0  0  0  0  0  0
    2.0095   -9.9670   -7.9691 H   0  0  0  0  0  0  0  0  0  0  0  0
    2.8621  -11.5754   -7.6821 H   0  0  0  0  0  0  0  0  0  0  0  0
    3.1397  -10.0772   -5.7172 H   0  0  0  0  0  0  0  0  0  0  0  0
    4.7322  -10.2062   -6.5893 H   0  0  0  0  0  0  0  0  0  0  0  0
    3.7242   -8.7635   -6.7828 H   0  0  0  0  0  0  0  0  0  0  0  0
    3.5338    0.2994   -7.4347 H   0  0  0  0  0  0  0  0  0  0  0  0
    3.1930    2.7090   -7.8259 H   0  0  0  0  0  0  0  0  0  0  0  0
    4.9868    4.8425  -10.0659 H   0  0  0  0  0  0  0  0  0  0  0  0
    4.1641    5.9910  -11.2478 H   0  0  0  0  0  0  0  0  0  0  0  0
    4.3728    3.6694  -12.7507 H   0  0  0  0  0  0  0  0  0  0  0  0
    5.8579    3.5851  -11.7119 H   0  0  0  0  0  0  0  0  0  0  0  0
    5.5423    5.0065  -12.7089 H   0  0  0  0  0  0  0  0  0  0  0  0
    2.2997   -1.3202   -6.9967 H   0  0  0  0  0  0  0  0  0  0  0  0
    0.6941   -5.0679   -4.8681 H   0  0  0  0  0  0  0  0  0  0  0  0
    0.3614   -6.7725   -3.7658 H   0  0  0  0  0  0  0  0  0  0  0  0
   -0.9906   -8.8021   -3.6311 H   0  0  0  0  0  0  0  0  0  0  0  0
   -3.9565  -11.5571   -2.3860 H   0  0  0  0  0  0  0  0  0  0  0  0
   -3.1447  -10.6679   -3.7400 H   0  0  0  0  0  0  0  0  0  0  0  0
   -1.6006  -12.2888   -2.6208 H   0  0  0  0  0  0  0  0  0  0  0  0
   -2.1040  -11.6666   -1.0231 H   0  0  0  0  0  0  0  0  0  0  0  0
   -1.0713  -10.6122   -2.0863 H   0  0  0  0  0  0  0  0  0  0  0  0
    1.9984    0.3894   -3.2064 H   0  0  0  0  0  0  0  0  0  0  0  0
    3.2394    2.1817   -2.0801 H   0  0  0  0  0  0  0  0  0  0  0  0
    3.8667    3.0092    3.3096 H   0  0  0  0  0  0  0  0  0  0  0  0
    3.5644    1.3254    2.8581 H   0  0  0  0  0  0  0  0  0  0  0  0
    1.6658    2.4549    4.1101 H   0  0  0  0  0  0  0  0  0  0  0  0
    1.5118    3.5692    2.7093 H   0  0  0  0  0  0  0  0  0  0  0  0
    1.1458    1.7995    2.5198 H   0  0  0  0  0  0  0  0  0  0  0  0
   -0.5519   -0.8388    0.7578 H   0  0  0  0  0  0  0  0  0  0  0  0
   -3.4381   -3.4023    3.6469 H   0  0  0  0  0  0  0  0  0  0  0  0
   -5.2290   -1.8140    3.8517 H   0  0  0  0  0  0  0  0  0  0  0  0
   -5.2607    0.1823    2.7299 H   0  0  0  0  0  0  0  0  0  0  0  0
   -6.4148   -0.6570    1.1257 H   0  0  0  0  0  0  0  0  0  0  0  0
   -6.4004   -2.6283    2.4487 H   0  0  0  0  0  0  0  0  0  0  0  0
   -7.3733   -2.7773    0.2064 H   0  0  0  0  0  0  0  0  0  0  0  0
   -6.3511   -4.2964    0.5486 H   0  0  0  0  0  0  0  0  0  0  0  0
   -5.2609   -0.3126   -0.7542 H   0  0  0  0  0  0  0  0  0  0  0  0
   -3.6938   -0.8517   -0.1058 H   0  0  0  0  0  0  0  0  0  0  0  0
   -3.9800   -3.1372    0.8397 H   0  0  0  0  0  0  0  0  0  0  0  0
   -4.3255    0.7841    6.6965 H   0  0  0  0  0  0  0  0  0  0  0  0
   -5.3369    2.6338    6.0748 H   0  0  0  0  0  0  0  0  0  0  0  0
   -6.6617    2.9903    4.2369 H   0  0  0  0  0  0  0  0  0  0  0  0
   -8.1417    2.1630    5.6445 H   0  0  0  0  0  0  0  0  0  0  0  0
   -6.3953    1.1738    7.0499 H   0  0  0  0  0  0  0  0  0  0  0  0
   -8.5115    0.2822    7.6616 H   0  0  0  0  0  0  0  0  0  0  0  0
   -7.4679   -1.1966    7.3977 H   0  0  0  0  0  0  0  0  0  0  0  0
   -9.0511    0.9704    3.7917 H   0  0  0  0  0  0  0  0  0  0  0  0
   -7.5577   -0.0406    3.5710 H   0  0  0  0  0  0  0  0  0  0  0  0
   -5.5595   -1.0209    6.3894 H   0  0  0  0  0  0  0  0  0  0  0  0
   -3.6586    5.6350    4.0910 H   0  0  0  0  0  0  0  0  0  0  0  0
   -1.8814    6.2511    5.2714 H   0  0  0  0  0  0  0  0  0  0  0  0
   -0.0676    6.1273    4.0094 H   0  0  0  0  0  0  0  0  0  0  0  0
   -2.0220    6.9375    3.0898 H   0  0  0  0  0  0  0  0  0  0  0  0
   -3.3763    5.8150    1.6726 H   0  0  0  0  0  0  0  0  0  0  0  0
   -2.6101    4.5761   -0.0976 H   0  0  0  0  0  0  0  0  0  0  0  0
   -1.7350    3.4201    0.9374 H   0  0  0  0  0  0  0  0  0  0  0  0
   -1.0792    7.6024    1.1243 H   0  0  0  0  0  0  0  0  0  0  0  0
    0.4371    6.9665    1.9662 H   0  0  0  0  0  0  0  0  0  0  0  0
   -1.9419    3.5589    2.9703 H   0  0  0  0  0  0  0  0  0  0  0  0
    0.1273    2.7165    7.5832 H   0  0  0  0  0  0  0  0  0  0  0  0
    0.8706    0.7818    7.7978 H   0  0  0  0  0  0  0  0  0  0  0  0
    0.4159   -1.0136    9.4132 H   0  0  0  0  0  0  0  0  0  0  0  0
    4.1059   -2.5121   11.3455 H   0  0  0  0  0  0  0  0  0  0  0  0
    3.3497   -3.5525   12.5855 H   0  0  0  0  0  0  0  0  0  0  0  0
    2.0789   -3.1218    9.8292 H   0  0  0  0  0  0  0  0  0  0  0  0
    1.8390   -4.5141   11.0154 H   0  0  0  0  0  0  0  0  0  0  0  0
    3.3949   -4.3172   10.1329 H   0  0  0  0  0  0  0  0  0  0  0  0
    3.0327    6.6689    4.7789 H   0  0  0  0  0  0  0  0  0  0  0  0
    4.3434    8.4188    3.7022 H   0  0  0  0  0  0  0  0  0  0  0  0
    9.6439    9.6027    5.0433 H   0  0  0  0  0  0  0  0  0  0  0  0
    8.6514    8.7688    6.2727 H   0  0  0  0  0  0  0  0  0  0  0  0
    8.9231    6.6140    5.2897 H   0  0  0  0  0  0  0  0  0  0  0  0
   10.5458    7.3759    5.1732 H   0  0  0  0  0  0  0  0  0  0  0  0
    9.4914    7.2598    3.7357 H   0  0  0  0  0  0  0  0  0  0  0  0
    6.9092    5.0505    7.6577 H   0  0  0  0  0  0  0  0  0  0  0  0
    7.7779    3.4292    9.3627 H   0  0  0  0  0  0  0  0  0  0  0  0
  1  2  2  0
  2  3  1  0
  3  4  2  0
  4  5  1  0
  5  6  2  0
  6  7  1  0
  7  8  2  0
  8  9  1  0
  9 10  1  0
 10 11  1  0
  8 12  1  0
  4 13  1  0
 13 14  2  0
 14 15  1  0
 15 16  1  0
 16 17  2  0
 17 18  1  0
 18 19  2  0
 19 20  1  0
 20 21  1  0
 21 22  1  0
 19 23  1  0
 15 24  2  0
 24 25  1  0
 14 26  1  0
 26 27  2  0
 27 28  1  0
 27 29  1  0
 29 30  2  0
 30 31  1  0
 31 32  2  0
 32 33  1  0
 33 34  2  0
 34 35  1  0
 35 36  2  0
 36 37  1  0
 37 38  1  0
 38 39  1  0
 36 40  1  0
 32 41  1  0
 41 42  2  0
 42 43  1  0
 43 44  1  0
 44 45  2  0
 45 46  1  0
 46 47  2  0
 47 48  1  0
 48 49  1  0
 49 50  1  0
 47 51  1  0
 43 52  2  0
 52 53  1  0
 42 54  1  0
 54 55  2  0
 55 56  1  0
 55 57  1  0
 57 58  1  0
 58 59  1  0
 59 60  1  0
 60 61  1  0
 61 62  1  0
 62 63  1  0
 63 64  1  0
 64 65  1  0
 62 66  1  0
 59 67  1  0
 67 68  1  0
 67 69  1  0
 69 70  1  0
 70 71  1  0
 71 72  1  0
 72 73  1  0
 73 74  1  0
 74 75  1  0
 75 76  1  0
 76 77  1  0
 74 78  1  0
 71 79  1  0
 79 80  1  0
 79 81  1  0
 81 82  1  0
 82 83  1  0
 83 84  1  0
 84 85  1  0
 85 86  1  0
 86 87  1  0
 87 88  1  0
 88 89  1  0
 86 90  1  0
 83 91  1  0
 91 92  1  0
 91 93  1  0
 93 94  2  0
 94 95  1  0
 95 96  2  0
 96 97  1  0
 97 98  2  0
 98 99  1  0
 99100  2  0
100101  1  0
101102  1  0
102103  1  0
100104  1  0
 96105  1  0
105106  2  0
106107  1  0
107108  1  0
108109  2  0
109110  1  0
110111  2  0
111112  1  0
112113  1  0
113114  1  0
111115  1  0
107116  2  0
116117  1  0
106118  1  0
118119  2  0
119120  1  0
 25  1  1  0
 53 29  1  0
 68 57  1  0
 80 69  1  0
 92 81  1  0
117 93  1  0
 24  3  1  0
 52 31  1  0
 66 58  1  0
 78 70  1  0
 90 82  1  0
116 95  1  0
 12  5  1  0
 28 13  1  0
 40 33  1  0
 56 41  1  0
 65 61  1  0
 77 73  1  0
 89 85  1  0
104 97  1  0
120105  1  0
 23 16  1  0
 51 44  1  0
115108  1  0
  1121  1  0
  2122  1  0
  6123  1  0
  7124  1  0
 10125  1  0
 10126  1  0
 11127  1  0
 11128  1  0
 11129  1  0
 17130  1  0
 18131  1  0
 21132  1  0
 21133  1  0
 22134  1  0
 22135  1  0
 22136  1  0
 26137  1  0
 30138  1  0
 34139  1  0
 35140  1  0
 38141  1  0
 38142  1  0
 39143  1  0
 39144  1  0
 39145  1  0
 45146  1  0
 46147  1  0
 49148  1  0
 49149  1  0
 50150  1  0
 50151  1  0
 50152  1  0
 54153  1  0
 58154  1  1
 59155  1  1
 60156  1  0
 61157  1  6
 62158  1  1
 63159  1  0
 63160  1  0
 65161  1  0
 65162  1  0
 66163  1  0
 70164  1  1
 71165  1  1
 72166  1  0
 73167  1  1
 74168  1  1
 75169  1  0
 75170  1  0
 77171  1  0
 77172  1  0
 78173  1  0
 82174  1  6
 83175  1  1
 84176  1  0
 85177  1  1
 86178  1  6
 87179  1  0
 87180  1  0
 89181  1  0
 89182  1  0
 90183  1  0
 94184  1  0
 98185  1  0
 99186  1  0
102187  1  0
102188  1  0
103189  1  0
103190  1  0
103191  1  0
109192  1  0
110193  1  0
113194  1  0
113195  1  0
114196  1  0
114197  1  0
114198  1  0
118199  1  0
119200  1  0
M  END

