
     RDKit          3D

154171  0  0  0  0  0  0  0  0999 V2000
   -6.2748    1.6999   -7.1370 C   0  0  0  0  0  0  0  0  0  0  0  0
   -5.0918    1.0183   -6.9811 C   0  0  0  0  0  0  0  0  0  0  0  0
   -4.8571    0.4273   -5.7969 C   0  0  0  0  0  0  0  0  0  0  0  0
   -3.7231   -0.2965   -5.4101 C   0  0  0  0  0  0  0  0  0  0  0  0
   -2.6399   -0.6538   -6.2374 C   0  0  0  0  0  0  0  0  0  0  0  0
   -1.4115   -1.1313   -6.2325 C   0  0  0  0  0  0  0  0  0  0  0  0
   -0.6787   -1.4608   -7.2874 C   0  0  0  0  0  0  0  0  0  0  0  0
   -1.0951   -1.3518   -8.5608 C   0  0  0  0  0  0  0  0  0  0  0  0
   -0.3553   -1.7012  -10.1328 S   0  0  0  0  0  0  0  0  0  0  0  0
   -0.7025   -3.3819  -10.6793 C   0  0  0  0  0  0  0  0  0  0  0  0
   -2.1634   -3.6055  -10.9870 C   0  0  0  0  0  0  0  0  0  0  0  0
   -2.8681   -0.6508   -8.2918 Se  0  0  0  0  0  2  0  0  0  0  0  0
   -3.6747   -0.8059   -4.1070 C   0  0  0  0  0  0  0  0  0  0  0  0
   -4.6232   -0.6804   -3.1506 C   0  0  0  0  0  0  0  0  0  0  0  0
   -5.7597    0.0382   -3.5407 C   0  0  0  0  0  0  0  0  0  0  0  0
   -6.9675    0.2106   -2.7425 C   0  0  0  0  0  0  0  0  0  0  0  0
   -7.5315   -0.3819   -1.6804 C   0  0  0  0  0  0  0  0  0  0  0  0
   -8.6294    0.0975   -1.0897 C   0  0  0  0  0  0  0  0  0  0  0  0
   -9.2955    1.1692   -1.4425 C   0  0  0  0  0  0  0  0  0  0  0  0
  -10.6751    2.1437   -1.0159 S   0  0  0  0  0  0  0  0  0  0  0  0
  -10.3143    3.4940    0.1030 C   0  0  0  0  0  0  0  0  0  0  0  0
   -9.4212    4.4898   -0.6078 C   0  0  0  0  0  0  0  0  0  0  0  0
   -8.1001    1.6828   -3.0301 Se  0  0  0  0  0  2  0  0  0  0  0  0
   -5.8170    0.5551   -4.8396 C   0  0  0  0  0  0  0  0  0  0  0  0
   -7.0290    1.5020   -5.6308 S   0  0  0  0  0  0  0  0  0  0  0  0
   -4.3472   -1.2199   -1.9449 C   0  0  0  0  0  0  0  0  0  0  0  0
   -3.1417   -1.8529   -1.7742 C   0  0  0  0  0  0  0  0  0  0  0  0
   -2.4274   -1.6744   -3.3077 S   0  0  0  0  0  0  0  0  0  0  0  0
   -2.6945   -2.5206   -0.5607 C   0  0  0  0  0  0  0  0  0  0  0  0
   -3.4661   -3.2939    0.2309 C   0  0  0  0  0  0  0  0  0  0  0  0
   -4.7661   -3.5644    0.0437 F   0  0  0  0  0  0  0  0  0  0  0  0
   -2.6503   -3.9156    1.2527 C   0  0  0  0  0  0  0  0  0  0  0  0
   -1.3822   -3.5626    1.1418 C   0  0  0  0  0  0  0  0  0  0  0  0
   -1.3807   -2.6492   -0.0242 C   0  0  0  0  0  0  0  0  0  0  0  0
   -0.3122   -1.8323   -0.3042 C   0  0  0  0  0  0  0  0  0  0  0  0
   -0.2770   -0.6637   -1.1135 C   0  0  0  0  0  0  0  0  0  0  0  0
    0.8029   -0.7588   -1.7767 C   0  0  0  0  0  0  0  0  0  0  0  0
    1.5973   -1.9512   -1.4523 C   0  0  0  0  0  0  0  0  0  0  0  0
    0.9654   -2.6462   -0.5461 C   0  0  0  0  0  0  0  0  0  0  0  0
    2.8063   -2.2895   -1.9964 F   0  0  0  0  0  0  0  0  0  0  0  0
   -1.2673    0.4370   -1.0065 C   0  0  0  0  0  0  0  0  0  0  0  0
   -2.3311    0.5439   -0.2301 C   0  0  0  0  0  0  0  0  0  0  0  0
   -2.8207   -0.2858    0.7105 F   0  0  0  0  0  0  0  0  0  0  0  0
   -3.1446    1.7356   -0.5732 C   0  0  0  0  0  0  0  0  0  0  0  0
   -2.5894    2.3898   -1.5503 C   0  0  0  0  0  0  0  0  0  0  0  0
   -1.3507    1.5934   -1.8544 C   0  0  0  0  0  0  0  0  0  0  0  0
   -0.3247    2.3102   -2.3621 C   0  0  0  0  0  0  0  0  0  0  0  0
    1.0396    2.1431   -2.1302 C   0  0  0  0  0  0  0  0  0  0  0  0
    1.6882    2.6641   -3.1871 C   0  0  0  0  0  0  0  0  0  0  0  0
    0.6970    3.2024   -4.1212 C   0  0  0  0  0  0  0  0  0  0  0  0
   -0.5344    3.0278   -3.6850 C   0  0  0  0  0  0  0  0  0  0  0  0
    0.9438    3.8212   -5.3175 F   0  0  0  0  0  0  0  0  0  0  0  0
    1.7543    1.7865   -0.8934 C   0  0  0  0  0  0  0  0  0  0  0  0
    1.4317    1.5948    0.4024 C   0  0  0  0  0  0  0  0  0  0  0  0
    2.3863    1.2578    1.3016 C   0  0  0  0  0  0  0  0  0  0  0  0
    2.2606    1.0295    2.6797 C   0  0  0  0  0  0  0  0  0  0  0  0
    1.0422    1.2137    3.4226 C   0  0  0  0  0  0  0  0  0  0  0  0
    0.5865    0.9559    4.6381 C   0  0  0  0  0  0  0  0  0  0  0  0
   -0.6039    1.3293    5.0961 C   0  0  0  0  0  0  0  0  0  0  0  0
   -1.5107    2.0157    4.3997 C   0  0  0  0  0  0  0  0  0  0  0  0
   -3.1136    2.6772    4.5979 S   0  0  0  0  0  0  0  0  0  0  0  0
   -3.6355    3.4792    3.0618 C   0  0  0  0  0  0  0  0  0  0  0  0
   -2.8069    4.6941    2.7523 C   0  0  0  0  0  0  0  0  0  0  0  0
   -0.4830    2.2104    2.6619 Se  0  0  0  0  0  2  0  0  0  0  0  0
    3.4148    0.6970    3.4077 C   0  0  0  0  0  0  0  0  0  0  0  0
    4.6651    0.5748    2.9001 C   0  0  0  0  0  0  0  0  0  0  0  0
    4.7942    0.8006    1.5262 C   0  0  0  0  0  0  0  0  0  0  0  0
    6.0477    0.6240    0.7947 C   0  0  0  0  0  0  0  0  0  0  0  0
    6.4470    0.9894   -0.4342 C   0  0  0  0  0  0  0  0  0  0  0  0
    7.6348    0.6396   -0.9331 C   0  0  0  0  0  0  0  0  0  0  0  0
    8.5344   -0.0887   -0.2915 C   0  0  0  0  0  0  0  0  0  0  0  0
   10.1461   -0.7468   -0.5643 S   0  0  0  0  0  0  0  0  0  0  0  0
    9.9457   -2.4141   -1.3019 C   0  0  0  0  0  0  0  0  0  0  0  0
    9.3393   -2.3397   -2.6721 C   0  0  0  0  0  0  0  0  0  0  0  0
    7.5283   -0.3732    1.4083 Se  0  0  0  0  0  2  0  0  0  0  0  0
    3.6616    1.1292    0.8016 C   0  0  0  0  0  0  0  0  0  0  0  0
    3.4527    1.4796   -0.8503 S   0  0  0  0  0  0  0  0  0  0  0  0
    5.6594    0.2975    3.7669 C   0  0  0  0  0  0  0  0  0  0  0  0
    5.3270    0.1586    5.1075 C   0  0  0  0  0  0  0  0  0  0  0  0
    3.6495    0.4195    5.0751 S   0  0  0  0  0  0  0  0  0  0  0  0
    6.3041   -0.0286    6.1806 C   0  0  0  0  0  0  0  0  0  0  0  0
    7.4545    0.6829    6.1759 C   0  0  0  0  0  0  0  0  0  0  0  0
    7.8292    1.5822    5.2415 F   0  0  0  0  0  0  0  0  0  0  0  0
    8.1882    0.4316    7.3944 C   0  0  0  0  0  0  0  0  0  0  0  0
    7.5450   -0.4145    8.1668 C   0  0  0  0  0  0  0  0  0  0  0  0
    6.2959   -0.7407    7.3815 C   0  0  0  0  0  0  0  0  0  0  0  0
    5.5287   -1.7975    7.7417 C   0  0  0  0  0  0  0  0  0  0  0  0
    4.5522   -2.5233    6.9870 C   0  0  0  0  0  0  0  0  0  0  0  0
    3.6577   -2.8971    7.8643 C   0  0  0  0  0  0  0  0  0  0  0  0
    3.9994   -2.4632    9.2343 C   0  0  0  0  0  0  0  0  0  0  0  0
    5.1316   -1.7979    9.2158 C   0  0  0  0  0  0  0  0  0  0  0  0
    3.2758   -2.6975   10.3720 F   0  0  0  0  0  0  0  0  0  0  0  0
    4.5121   -2.8132    5.5618 C   0  0  0  0  0  0  0  0  0  0  0  0
    5.5403   -2.7594    4.7007 C   0  0  0  0  0  0  0  0  0  0  0  0
    6.8586   -2.4342    4.9581 F   0  0  0  0  0  0  0  0  0  0  0  0
    5.1545   -3.1331    3.3623 C   0  0  0  0  0  0  0  0  0  0  0  0
    3.8877   -3.4133    3.3529 C   0  0  0  0  0  0  0  0  0  0  0  0
    3.3969   -3.2140    4.7490 C   0  0  0  0  0  0  0  0  0  0  0  0
    2.0784   -3.0495    4.9452 C   0  0  0  0  0  0  0  0  0  0  0  0
    1.4261   -2.3857    6.0226 C   0  0  0  0  0  0  0  0  0  0  0  0
    0.1390   -2.6086    5.8936 C   0  0  0  0  0  0  0  0  0  0  0  0
   -0.1001   -3.4368    4.7019 C   0  0  0  0  0  0  0  0  0  0  0  0
    1.0453   -3.7185    4.1078 C   0  0  0  0  0  0  0  0  0  0  0  0
   -1.3335   -3.8311    4.3129 F   0  0  0  0  0  0  0  0  0  0  0  0
   -6.6143    2.2365   -8.0445 H   0  0  0  0  0  0  0  0  0  0  0  0
   -4.4025    1.0309   -7.8539 H   0  0  0  0  0  0  0  0  0  0  0  0
   -0.9333   -1.2606   -5.1822 H   0  0  0  0  0  0  0  0  0  0  0  0
    0.3885   -1.8713   -7.1662 H   0  0  0  0  0  0  0  0  0  0  0  0
   -0.4327   -4.1538   -9.9015 H   0  0  0  0  0  0  0  0  0  0  0  0
   -0.1166   -3.6437  -11.5726 H   0  0  0  0  0  0  0  0  0  0  0  0
   -2.2537   -4.3513  -11.8065 H   0  0  0  0  0  0  0  0  0  0  0  0
   -2.6259   -2.6660  -11.3790 H   0  0  0  0  0  0  0  0  0  0  0  0
   -2.7289   -4.0303  -10.1348 H   0  0  0  0  0  0  0  0  0  0  0  0
   -7.0628   -1.3634   -1.3221 H   0  0  0  0  0  0  0  0  0  0  0  0
   -9.0414   -0.4835   -0.1752 H   0  0  0  0  0  0  0  0  0  0  0  0
  -11.2902    3.9934    0.3357 H   0  0  0  0  0  0  0  0  0  0  0  0
   -9.8960    3.1386    1.0594 H   0  0  0  0  0  0  0  0  0  0  0  0
   -9.4673    4.3897   -1.7131 H   0  0  0  0  0  0  0  0  0  0  0  0
   -9.7313    5.5515   -0.3852 H   0  0  0  0  0  0  0  0  0  0  0  0
   -8.3792    4.3036   -0.2242 H   0  0  0  0  0  0  0  0  0  0  0  0
   -5.0500   -1.1320   -1.0800 H   0  0  0  0  0  0  0  0  0  0  0  0
   -2.9781   -4.6011    2.0477 H   0  0  0  0  0  0  0  0  0  0  0  0
   -0.5051   -3.8047    1.6824 H   0  0  0  0  0  0  0  0  0  0  0  0
    1.1980   -0.1527   -2.6250 H   0  0  0  0  0  0  0  0  0  0  0  0
    1.1997   -3.5443   -0.0329 H   0  0  0  0  0  0  0  0  0  0  0  0
   -4.0837    2.0310   -0.0822 H   0  0  0  0  0  0  0  0  0  0  0  0
   -2.8943    3.2817   -2.0687 H   0  0  0  0  0  0  0  0  0  0  0  0
    2.7418    2.6905   -3.3405 H   0  0  0  0  0  0  0  0  0  0  0  0
   -1.5004    3.2737   -4.0515 H   0  0  0  0  0  0  0  0  0  0  0  0
    0.3636    1.7336    0.6734 H   0  0  0  0  0  0  0  0  0  0  0  0
    1.2696    0.3664    5.3359 H   0  0  0  0  0  0  0  0  0  0  0  0
   -0.9326    1.0672    6.1758 H   0  0  0  0  0  0  0  0  0  0  0  0
   -3.4602    2.7618    2.2072 H   0  0  0  0  0  0  0  0  0  0  0  0
   -4.7280    3.6699    3.0365 H   0  0  0  0  0  0  0  0  0  0  0  0
   -1.9295    4.4428    2.0929 H   0  0  0  0  0  0  0  0  0  0  0  0
   -3.4484    5.4105    2.1711 H   0  0  0  0  0  0  0  0  0  0  0  0
   -2.3895    5.1502    3.6591 H   0  0  0  0  0  0  0  0  0  0  0  0
    5.7377    1.6373   -1.0442 H   0  0  0  0  0  0  0  0  0  0  0  0
    7.9175    0.9848   -1.9950 H   0  0  0  0  0  0  0  0  0  0  0  0
   10.9021   -2.9332   -1.3368 H   0  0  0  0  0  0  0  0  0  0  0  0
    9.1986   -2.9255   -0.6387 H   0  0  0  0  0  0  0  0  0  0  0  0
    9.9672   -2.9261   -3.3708 H   0  0  0  0  0  0  0  0  0  0  0  0
    8.3051   -2.7473   -2.6992 H   0  0  0  0  0  0  0  0  0  0  0  0
    9.3413   -1.2986   -3.0920 H   0  0  0  0  0  0  0  0  0  0  0  0
    6.7405    0.1830    3.5161 H   0  0  0  0  0  0  0  0  0  0  0  0
    9.1565    0.8723    7.6709 H   0  0  0  0  0  0  0  0  0  0  0  0
    7.7729   -0.8202    9.1193 H   0  0  0  0  0  0  0  0  0  0  0  0
    2.7600   -3.5303    7.7707 H   0  0  0  0  0  0  0  0  0  0  0  0
    5.6858   -1.3549   10.0050 H   0  0  0  0  0  0  0  0  0  0  0  0
    5.8056   -3.1817    2.4703 H   0  0  0  0  0  0  0  0  0  0  0  0
    3.2671   -3.7343    2.5359 H   0  0  0  0  0  0  0  0  0  0  0  0
    1.8306   -1.7527    6.7686 H   0  0  0  0  0  0  0  0  0  0  0  0
   -0.6356   -2.2473    6.5518 H   0  0  0  0  0  0  0  0  0  0  0  0
    1.2343   -4.2963    3.2228 H   0  0  0  0  0  0  0  0  0  0  0  0
  1  2  2  0
  2  3  1  0
  3  4  2  0
  4  5  1  0
  5  6  2  0
  6  7  1  0
  7  8  2  0
  8  9  1  0
  9 10  1  0
 10 11  1  0
  8 12  1  0
  4 13  1  0
 13 14  2  0
 14 15  1  0
 15 16  1  0
 16 17  2  0
 17 18  1  0
 18 19  2  0
 19 20  1  0
 20 21  1  0
 21 22  1  0
 19 23  1  0
 15 24  2  0
 24 25  1  0
 14 26  1  0
 26 27  2  0
 27 28  1  0
 27 29  1  0
 29 30  2  0
 30 31  1  0
 30 32  1  0
 32 33  2  0
 33 34  1  0
 34 35  2  0
 35 36  1  0
 36 37  2  0
 37 38  1  0
 38 39  2  0
 38 40  1  0
 36 41  1  0
 41 42  2  0
 42 43  1  0
 42 44  1  0
 44 45  2  0
 45 46  1  0
 46 47  2  0
 47 48  1  0
 48 49  2  0
 49 50  1  0
 50 51  2  0
 50 52  1  0
 48 53  1  0
 53 54  2  0
 54 55  1  0
 55 56  2  0
 56 57  1  0
 57 58  2  0
 58 59  1  0
 59 60  2  0
 60 61  1  0
 61 62  1  0
 62 63  1  0
 60 64  1  0
 56 65  1  0
 65 66  2  0
 66 67  1  0
 67 68  1  0
 68 69  2  0
 69 70  1  0
 70 71  2  0
 71 72  1  0
 72 73  1  0
 73 74  1  0
 71 75  1  0
 67 76  2  0
 76 77  1  0
 66 78  1  0
 78 79  2  0
 79 80  1  0
 79 81  1  0
 81 82  2  0
 82 83  1  0
 82 84  1  0
 84 85  2  0
 85 86  1  0
 86 87  2  0
 87 88  1  0
 88 89  2  0
 89 90  1  0
 90 91  2  0
 90 92  1  0
 88 93  1  0
 93 94  2  0
 94 95  1  0
 94 96  1  0
 96 97  2  0
 97 98  1  0
 98 99  2  0
 99100  1  0
100101  2  0
101102  1  0
102103  2  0
102104  1  0
 25  1  1  0
 34 29  1  0
 39 35  1  0
 46 41  1  0
 51 47  1  0
 77 53  1  0
 86 81  1  0
 91 87  1  0
 98 93  1  0
103 99  1  0
 24  3  1  0
 76 55  1  0
 12  5  1  0
 28 13  1  0
 64 57  1  0
 80 65  1  0
 23 16  1  0
 75 68  1  0
  1105  1  0
  2106  1  0
  6107  1  0
  7108  1  0
 10109  1  0
 10110  1  0
 11111  1  0
 11112  1  0
 11113  1  0
 17114  1  0
 18115  1  0
 21116  1  0
 21117  1  0
 22118  1  0
 22119  1  0
 22120  1  0
 26121  1  0
 32122  1  0
 33123  1  0
 37124  1  0
 39125  1  0
 44126  1  0
 45127  1  0
 49128  1  0
 51129  1  0
 54130  1  0
 58131  1  0
 59132  1  0
 62133  1  0
 62134  1  0
 63135  1  0
 63136  1  0
 63137  1  0
 69138  1  0
 70139  1  0
 73140  1  0
 73141  1  0
 74142  1  0
 74143  1  0
 74144  1  0
 78145  1  0
 84146  1  0
 85147  1  0
 89148  1  0
 91149  1  0
 96150  1  0
 97151  1  0
100152  1  0
101153  1  0
103154  1  0
M  END

