
     RDKit          3D

170187  0  0  0  0  0  0  0  0999 V2000
   -8.0242   -1.6842   11.8795 C   0  0  0  0  0  0  0  0  0  0  0  0
   -6.4055   -2.1328   11.5961 S   0  0  0  0  0  0  0  0  0  0  0  0
   -6.4080   -2.1450    9.9071 C   0  0  0  0  0  0  0  0  0  0  0  0
   -7.7199   -1.7858    9.5862 C   0  0  0  0  0  0  0  0  0  0  0  0
   -8.5336   -1.5526   10.6105 C   0  0  0  0  0  0  0  0  0  0  0  0
   -9.9424   -1.1076   10.2602 C   0  0  2  0  0  0  0  0  0  0  0  0
  -10.8486   -1.0649   11.4207 C   0  0  0  0  0  0  0  0  0  0  0  0
  -10.5490   -1.9159    9.1425 C   0  0  0  0  0  0  0  0  0  0  0  0
   -9.6344   -2.0760    7.9788 C   0  0  0  0  0  0  0  0  0  0  0  0
   -8.2465   -1.6027    8.1869 C   0  0  0  0  0  0  0  0  0  0  0  0
   -5.3494   -2.5161    8.9361 C   0  0  0  0  0  0  0  0  0  0  0  0
   -4.0092   -2.2669    9.0108 C   0  0  0  0  0  0  0  0  0  0  0  0
   -3.2472   -2.5631    7.9412 C   0  0  0  0  0  0  0  0  0  0  0  0
   -1.8696   -2.3506    7.7453 C   0  0  0  0  0  0  0  0  0  0  0  0
   -1.0518   -1.6538    8.7198 C   0  0  0  0  0  0  0  0  0  0  0  0
    0.2858   -1.5314    8.9154 C   0  0  0  0  0  0  0  0  0  0  0  0
    0.8126   -0.7219    9.8188 C   0  0  0  0  0  0  0  0  0  0  0  0
    0.0916    0.0641   10.6383 C   0  0  0  0  0  0  0  0  0  0  0  0
    0.4352    1.2149   11.9247 S   0  0  0  0  0  0  0  0  0  0  0  0
   -1.0995    2.0623   12.4308 C   0  0  0  0  0  0  0  0  0  0  0  0
   -1.5904    2.9687   11.3288 C   0  0  0  0  0  0  0  0  0  0  0  0
   -1.7153   -0.4175   10.0365 Se  0  0  0  0  0  2  0  0  0  0  0  0
   -1.2592   -2.6746    6.5521 C   0  0  0  0  0  0  0  0  0  0  0  0
   -1.9022   -3.2161    5.4663 C   0  0  0  0  0  0  0  0  0  0  0  0
   -3.2733   -3.4361    5.6596 C   0  0  0  0  0  0  0  0  0  0  0  0
   -4.0712   -4.1827    4.6922 C   0  0  0  0  0  0  0  0  0  0  0  0
   -5.4135   -4.3135    4.5520 C   0  0  0  0  0  0  0  0  0  0  0  0
   -5.9396   -5.1548    3.6575 C   0  0  0  0  0  0  0  0  0  0  0  0
   -5.2693   -5.9281    2.8386 C   0  0  0  0  0  0  0  0  0  0  0  0
   -5.5516   -7.1179    1.5756 S   0  0  0  0  0  0  0  0  0  0  0  0
   -5.6672   -6.3095   -0.0351 C   0  0  0  0  0  0  0  0  0  0  0  0
   -6.8494   -5.3744   -0.1072 C   0  0  0  0  0  0  0  0  0  0  0  0
   -3.4159   -5.3893    3.4112 Se  0  0  0  0  0  2  0  0  0  0  0  0
   -3.8742   -3.1066    6.8459 C   0  0  0  0  0  0  0  0  0  0  0  0
   -5.5020   -3.1680    7.3788 S   0  0  0  0  0  0  0  0  0  0  0  0
   -1.1884   -3.3730    4.3446 C   0  0  0  0  0  0  0  0  0  0  0  0
    0.1227   -2.9863    4.3403 C   0  0  0  0  0  0  0  0  0  0  0  0
    0.3372   -2.4195    5.9239 S   0  0  0  0  0  0  0  0  0  0  0  0
    0.9856   -2.8655    3.1279 C   0  0  0  0  0  0  0  0  0  0  0  0
    0.4843   -2.6028    1.8722 C   0  0  0  0  0  0  0  0  0  0  0  0
    1.3714   -2.3213    0.8886 C   0  0  0  0  0  0  0  0  0  0  0  0
    1.1126   -1.9187   -0.4276 C   0  0  0  0  0  0  0  0  0  0  0  0
   -0.2409   -1.9447   -0.9689 C   0  0  0  0  0  0  0  0  0  0  0  0
   -0.7600   -1.3810   -2.0865 C   0  0  0  0  0  0  0  0  0  0  0  0
   -2.0285   -1.5829   -2.4534 C   0  0  0  0  0  0  0  0  0  0  0  0
   -2.8958   -2.3380   -1.7799 C   0  0  0  0  0  0  0  0  0  0  0  0
   -4.5662   -2.8567   -1.9397 S   0  0  0  0  0  0  0  0  0  0  0  0
   -5.6778   -1.6676   -1.1274 C   0  0  0  0  0  0  0  0  0  0  0  0
   -5.6314   -0.3084   -1.8208 C   0  0  0  0  0  0  0  0  0  0  0  0
   -1.6931   -2.9056   -0.2962 Se  0  0  0  0  0  2  0  0  0  0  0  0
    2.1694   -1.5676   -1.2483 C   0  0  0  0  0  0  0  0  0  0  0  0
    3.4972   -1.5759   -0.9127 C   0  0  0  0  0  0  0  0  0  0  0  0
    3.7491   -1.9835    0.3906 C   0  0  0  0  0  0  0  0  0  0  0  0
    5.0901   -2.1937    0.9305 C   0  0  0  0  0  0  0  0  0  0  0  0
    6.3212   -2.3641    0.4595 C   0  0  0  0  0  0  0  0  0  0  0  0
    7.4097   -2.4109    1.2380 C   0  0  0  0  0  0  0  0  0  0  0  0
    7.3682   -2.2929    2.5626 C   0  0  0  0  0  0  0  0  0  0  0  0
    8.5316   -2.2933    3.8916 S   0  0  0  0  0  0  0  0  0  0  0  0
    8.6970   -3.9705    4.5511 C   0  0  0  0  0  0  0  0  0  0  0  0
    7.3522   -4.3440    5.1772 C   0  0  0  0  0  0  0  0  0  0  0  0
    5.4205   -2.0699    2.8106 Se  0  0  0  0  0  2  0  0  0  0  0  0
    2.6853   -2.3318    1.2368 C   0  0  0  0  0  0  0  0  0  0  0  0
    2.6277   -2.7314    2.9232 S   0  0  0  0  0  0  0  0  0  0  0  0
    4.3614   -1.1024   -1.8430 C   0  0  0  0  0  0  0  0  0  0  0  0
    3.8943   -0.6644   -3.0085 C   0  0  0  0  0  0  0  0  0  0  0  0
    2.1986   -0.9077   -2.8391 S   0  0  0  0  0  0  0  0  0  0  0  0
    4.4414   -0.1003   -4.2432 C   0  0  0  0  0  0  0  0  0  0  0  0
    3.5034    1.1212   -5.1226 S   0  0  0  0  0  0  0  0  0  0  0  0
    4.5577    1.4215   -6.4150 C   0  0  0  0  0  0  0  0  0  0  0  0
    5.5813    0.5952   -6.1526 C   0  0  0  0  0  0  0  0  0  0  0  0
    5.5106   -0.1912   -5.0291 C   0  0  0  0  0  0  0  0  0  0  0  0
    6.7034   -1.1150   -4.9391 C   0  0  2  0  0  0  0  0  0  0  0  0
    6.6363   -2.1859   -3.9463 C   0  0  0  0  0  0  0  0  0  0  0  0
    7.9450   -0.2637   -4.8339 C   0  0  0  0  0  0  0  0  0  0  0  0
    8.0287    0.6552   -6.0412 C   0  0  0  0  0  0  0  0  0  0  0  0
    6.8554    0.4531   -6.9703 C   0  0  0  0  0  0  0  0  0  0  0  0
    4.2472    2.3318   -7.5094 C   0  0  0  0  0  0  0  0  0  0  0  0
    4.9779    2.5011   -9.0286 S   0  0  0  0  0  0  0  0  0  0  0  0
    3.9659    3.7399   -9.6855 C   0  0  0  0  0  0  0  0  0  0  0  0
    3.0917    3.9726   -8.6694 C   0  0  0  0  0  0  0  0  0  0  0  0
    3.2363    3.2508   -7.5421 C   0  0  0  0  0  0  0  0  0  0  0  0
    2.2923    3.6278   -6.4079 C   0  0  2  0  0  0  0  0  0  0  0  0
    0.8912    3.2381   -6.6231 C   0  0  0  0  0  0  0  0  0  0  0  0
    2.5321    5.1430   -6.2461 C   0  0  0  0  0  0  0  0  0  0  0  0
    1.9567    5.8274   -7.4205 C   0  0  0  0  0  0  0  0  0  0  0  0
    2.0084    5.0442   -8.7006 C   0  0  0  0  0  0  0  0  0  0  0  0
    3.9844    4.3012  -11.0653 C   0  0  0  0  0  0  0  0  0  0  0  0
    5.3201    4.8710  -11.9472 S   0  0  0  0  0  0  0  0  0  0  0  0
    4.5578    5.2932  -13.3906 C   0  0  0  0  0  0  0  0  0  0  0  0
    3.2206    4.9641  -13.1514 C   0  0  0  0  0  0  0  0  0  0  0  0
    2.9139    4.4487  -11.9684 C   0  0  0  0  0  0  0  0  0  0  0  0
    1.5301    3.8935  -11.6880 C   0  0  2  0  0  0  0  0  0  0  0  0
    1.6193    2.5624  -10.9386 C   0  0  0  0  0  0  0  0  0  0  0  0
    0.8529    3.5944  -13.0282 C   0  0  0  0  0  0  0  0  0  0  0  0
    0.8038    4.8591  -13.8211 C   0  0  0  0  0  0  0  0  0  0  0  0
    2.1745    5.2940  -14.1982 C   0  0  0  0  0  0  0  0  0  0  0  0
   -8.5475   -1.5352   12.8471 H   0  0  0  0  0  0  0  0  0  0  0  0
   -9.8313   -0.0604    9.8337 H   0  0  0  0  0  0  0  0  0  0  0  0
  -10.4085   -1.1642   12.4073 H   0  0  0  0  0  0  0  0  0  0  0  0
  -11.4648   -0.1125   11.3877 H   0  0  0  0  0  0  0  0  0  0  0  0
  -11.6530   -1.8606   11.2757 H   0  0  0  0  0  0  0  0  0  0  0  0
  -11.4768   -1.3198    8.8487 H   0  0  0  0  0  0  0  0  0  0  0  0
  -10.9628   -2.8750    9.4962 H   0  0  0  0  0  0  0  0  0  0  0  0
  -10.0777   -1.4372    7.1579 H   0  0  0  0  0  0  0  0  0  0  0  0
   -9.6291   -3.0979    7.5226 H   0  0  0  0  0  0  0  0  0  0  0  0
   -8.0955   -0.5188    7.9472 H   0  0  0  0  0  0  0  0  0  0  0  0
   -7.6154   -2.1258    7.4321 H   0  0  0  0  0  0  0  0  0  0  0  0
   -3.6159   -1.8438    9.9678 H   0  0  0  0  0  0  0  0  0  0  0  0
    0.9451   -2.1885    8.2706 H   0  0  0  0  0  0  0  0  0  0  0  0
    1.9550   -0.6382    9.9494 H   0  0  0  0  0  0  0  0  0  0  0  0
   -0.9169    2.6182   13.3474 H   0  0  0  0  0  0  0  0  0  0  0  0
   -1.8900    1.2940   12.6560 H   0  0  0  0  0  0  0  0  0  0  0  0
   -1.5618    2.4136   10.3524 H   0  0  0  0  0  0  0  0  0  0  0  0
   -0.9470    3.8609   11.2590 H   0  0  0  0  0  0  0  0  0  0  0  0
   -2.6314    3.2366   11.4928 H   0  0  0  0  0  0  0  0  0  0  0  0
   -6.0664   -3.6667    5.2120 H   0  0  0  0  0  0  0  0  0  0  0  0
   -7.0924   -5.2103    3.6064 H   0  0  0  0  0  0  0  0  0  0  0  0
   -4.7416   -5.6801   -0.1275 H   0  0  0  0  0  0  0  0  0  0  0  0
   -5.6775   -7.0346   -0.8726 H   0  0  0  0  0  0  0  0  0  0  0  0
   -6.9826   -4.7609    0.8072 H   0  0  0  0  0  0  0  0  0  0  0  0
   -7.7888   -5.9682   -0.2260 H   0  0  0  0  0  0  0  0  0  0  0  0
   -6.7856   -4.7036   -1.0069 H   0  0  0  0  0  0  0  0  0  0  0  0
   -1.5998   -3.7914    3.3910 H   0  0  0  0  0  0  0  0  0  0  0  0
   -0.6293   -2.6379    1.7625 H   0  0  0  0  0  0  0  0  0  0  0  0
   -0.0760   -0.7060   -2.6871 H   0  0  0  0  0  0  0  0  0  0  0  0
   -2.4350   -1.0696   -3.3982 H   0  0  0  0  0  0  0  0  0  0  0  0
   -5.5365   -1.6168   -0.0533 H   0  0  0  0  0  0  0  0  0  0  0  0
   -6.7135   -2.0557   -1.3163 H   0  0  0  0  0  0  0  0  0  0  0  0
   -5.8872   -0.4946   -2.8748 H   0  0  0  0  0  0  0  0  0  0  0  0
   -4.6413    0.1764   -1.6661 H   0  0  0  0  0  0  0  0  0  0  0  0
   -6.3993    0.3320   -1.3703 H   0  0  0  0  0  0  0  0  0  0  0  0
    6.4541   -2.5318   -0.6594 H   0  0  0  0  0  0  0  0  0  0  0  0
    8.4613   -2.5515    0.7888 H   0  0  0  0  0  0  0  0  0  0  0  0
    9.5058   -4.0362    5.3048 H   0  0  0  0  0  0  0  0  0  0  0  0
    8.8737   -4.6720    3.7123 H   0  0  0  0  0  0  0  0  0  0  0  0
    6.7496   -5.0161    4.5484 H   0  0  0  0  0  0  0  0  0  0  0  0
    6.7421   -3.4287    5.3447 H   0  0  0  0  0  0  0  0  0  0  0  0
    7.5169   -4.8588    6.1468 H   0  0  0  0  0  0  0  0  0  0  0  0
    5.4486   -1.0026   -1.6496 H   0  0  0  0  0  0  0  0  0  0  0  0
    6.7848   -1.6011   -5.9914 H   0  0  0  0  0  0  0  0  0  0  0  0
    5.6155   -2.5865   -3.8523 H   0  0  0  0  0  0  0  0  0  0  0  0
    7.0670   -1.9734   -2.9503 H   0  0  0  0  0  0  0  0  0  0  0  0
    7.2196   -3.1006   -4.3693 H   0  0  0  0  0  0  0  0  0  0  0  0
    8.8596   -0.9131   -4.8585 H   0  0  0  0  0  0  0  0  0  0  0  0
    7.9960    0.3290   -3.9132 H   0  0  0  0  0  0  0  0  0  0  0  0
    8.9808    0.4750   -6.6070 H   0  0  0  0  0  0  0  0  0  0  0  0
    8.0063    1.6890   -5.6830 H   0  0  0  0  0  0  0  0  0  0  0  0
    6.8797    1.2615   -7.7484 H   0  0  0  0  0  0  0  0  0  0  0  0
    6.8491   -0.4774   -7.5297 H   0  0  0  0  0  0  0  0  0  0  0  0
    2.6428    3.2334   -5.4411 H   0  0  0  0  0  0  0  0  0  0  0  0
    0.2449    4.1253   -6.5384 H   0  0  0  0  0  0  0  0  0  0  0  0
    0.6887    2.6532   -7.5470 H   0  0  0  0  0  0  0  0  0  0  0  0
    0.5698    2.5531   -5.7729 H   0  0  0  0  0  0  0  0  0  0  0  0
    2.0284    5.5061   -5.3125 H   0  0  0  0  0  0  0  0  0  0  0  0
    3.6285    5.2934   -6.2342 H   0  0  0  0  0  0  0  0  0  0  0  0
    0.9232    6.1505   -7.1763 H   0  0  0  0  0  0  0  0  0  0  0  0
    2.5240    6.7992   -7.5309 H   0  0  0  0  0  0  0  0  0  0  0  0
    2.1726    5.7492   -9.5147 H   0  0  0  0  0  0  0  0  0  0  0  0
    1.0285    4.5555   -8.8369 H   0  0  0  0  0  0  0  0  0  0  0  0
    4.9812    5.7229  -14.3252 H   0  0  0  0  0  0  0  0  0  0  0  0
    0.8678    4.5694  -11.1671 H   0  0  0  0  0  0  0  0  0  0  0  0
    1.1448    1.7944  -11.6456 H   0  0  0  0  0  0  0  0  0  0  0  0
    2.6399    2.1960  -10.8434 H   0  0  0  0  0  0  0  0  0  0  0  0
    0.9645    2.5797  -10.0934 H   0  0  0  0  0  0  0  0  0  0  0  0
   -0.1324    3.1421  -12.9157 H   0  0  0  0  0  0  0  0  0  0  0  0
    1.5444    2.8815  -13.5336 H   0  0  0  0  0  0  0  0  0  0  0  0
    0.2801    5.6593  -13.2309 H   0  0  0  0  0  0  0  0  0  0  0  0
    0.1994    4.7248  -14.7577 H   0  0  0  0  0  0  0  0  0  0  0  0
    2.4671    4.9174  -15.1970 H   0  0  0  0  0  0  0  0  0  0  0  0
    2.1523    6.4254  -14.2774 H   0  0  0  0  0  0  0  0  0  0  0  0
  1  2  1  0
  2  3  1  0
  3  4  2  0
  4  5  1  0
  5  6  1  0
  6  7  1  0
  6  8  1  0
  8  9  1  0
  9 10  1  0
  3 11  1  0
 11 12  2  0
 12 13  1  0
 13 14  2  0
 14 15  1  0
 15 16  2  0
 16 17  1  0
 17 18  2  0
 18 19  1  0
 19 20  1  0
 20 21  1  0
 18 22  1  0
 14 23  1  0
 23 24  2  0
 24 25  1  0
 25 26  1  0
 26 27  2  0
 27 28  1  0
 28 29  2  0
 29 30  1  0
 30 31  1  0
 31 32  1  0
 29 33  1  0
 25 34  2  0
 34 35  1  0
 24 36  1  0
 36 37  2  0
 37 38  1  0
 37 39  1  0
 39 40  2  0
 40 41  1  0
 41 42  2  0
 42 43  1  0
 43 44  2  0
 44 45  1  0
 45 46  2  0
 46 47  1  0
 47 48  1  0
 48 49  1  0
 46 50  1  0
 42 51  1  0
 51 52  2  0
 52 53  1  0
 53 54  1  0
 54 55  2  0
 55 56  1  0
 56 57  2  0
 57 58  1  0
 58 59  1  0
 59 60  1  0
 57 61  1  0
 53 62  2  0
 62 63  1  0
 52 64  1  0
 64 65  2  0
 65 66  1  0
 65 67  1  0
 67 68  1  0
 68 69  1  0
 69 70  2  0
 70 71  1  0
 71 72  1  0
 72 73  1  0
 72 74  1  0
 74 75  1  0
 75 76  1  0
 69 77  1  0
 77 78  1  0
 78 79  1  0
 79 80  2  0
 80 81  1  0
 81 82  1  0
 82 83  1  0
 82 84  1  0
 84 85  1  0
 85 86  1  0
 79 87  1  0
 87 88  1  0
 88 89  1  0
 89 90  2  0
 90 91  1  0
 91 92  1  0
 92 93  1  0
 92 94  1  0
 94 95  1  0
 95 96  1  0
  5  1  2  0
 35 11  1  0
 63 39  1  0
 71 67  2  0
 81 77  2  0
 91 87  2  0
 10  4  1  0
 34 13  1  0
 62 41  1  0
 76 70  1  0
 86 80  1  0
 96 90  1  0
 22 15  1  0
 38 23  1  0
 50 43  1  0
 66 51  1  0
 33 26  1  0
 61 54  1  0
  1 97  1  0
  6 98  1  6
  7 99  1  0
  7100  1  0
  7101  1  0
  8102  1  0
  8103  1  0
  9104  1  0
  9105  1  0
 10106  1  0
 10107  1  0
 12108  1  0
 16109  1  0
 17110  1  0
 20111  1  0
 20112  1  0
 21113  1  0
 21114  1  0
 21115  1  0
 27116  1  0
 28117  1  0
 31118  1  0
 31119  1  0
 32120  1  0
 32121  1  0
 32122  1  0
 36123  1  0
 40124  1  0
 44125  1  0
 45126  1  0
 48127  1  0
 48128  1  0
 49129  1  0
 49130  1  0
 49131  1  0
 55132  1  0
 56133  1  0
 59134  1  0
 59135  1  0
 60136  1  0
 60137  1  0
 60138  1  0
 64139  1  0
 72140  1  6
 73141  1  0
 73142  1  0
 73143  1  0
 74144  1  0
 74145  1  0
 75146  1  0
 75147  1  0
 76148  1  0
 76149  1  0
 82150  1  1
 83151  1  0
 83152  1  0
 83153  1  0
 84154  1  0
 84155  1  0
 85156  1  0
 85157  1  0
 86158  1  0
 86159  1  0
 89160  1  0
 92161  1  1
 93162  1  0
 93163  1  0
 93164  1  0
 94165  1  0
 94166  1  0
 95167  1  0
 95168  1  0
 96169  1  0
 96170  1  0
M  END

