
     RDKit          3D

111125  0  0  0  0  0  0  0  0999 V2000
    8.2953   -0.5561    0.1910 C   0  0  0  0  0  0  0  0  0  0  0  0
    7.6534   -1.6494   -0.0826 C   0  0  0  0  0  0  0  0  0  0  0  0
    8.4170   -2.8037   -0.6139 C   0  0  0  0  0  0  0  0  0  0  0  0
    9.6492   -2.9371    0.2622 C   0  0  0  0  0  0  0  0  0  0  0  0
   10.3122   -1.8032    0.5434 C   0  0  0  0  0  0  0  0  0  0  0  0
    9.7634   -0.5063   -0.0378 C   0  0  0  0  0  0  0  0  0  0  0  0
   11.4035   -1.9130    1.3099 N   0  0  0  0  0  0  0  0  0  0  0  0
   11.4993   -3.5533    1.6282 S   0  0  0  0  0  0  0  0  0  0  0  0
   10.1555   -4.0694    0.7842 N   0  0  0  0  0  0  0  0  0  0  0  0
    6.1901   -1.7970    0.0897 C   0  0  0  0  0  0  0  0  0  0  0  0
    5.2892   -0.8373    0.4655 C   0  0  0  0  0  0  0  0  0  0  0  0
    3.9981   -1.1934    0.5840 C   0  0  0  0  0  0  0  0  0  0  0  0
    2.9153   -0.3805    0.9475 C   0  0  0  0  0  0  0  0  0  0  0  0
    2.9836    1.0340    1.1587 C   0  0  0  0  0  0  0  0  0  0  0  0
    2.2340    1.9804    1.7159 C   0  0  0  0  0  0  0  0  0  0  0  0
    2.4814    3.2848    1.6717 C   0  0  0  0  0  0  0  0  0  0  0  0
    3.5376    3.8205    1.0488 C   0  0  0  0  0  0  0  0  0  0  0  0
    4.1815    5.4325    0.7714 S   0  0  0  0  0  0  0  0  0  0  0  0
    3.4907    6.1528   -0.7549 C   0  0  0  0  0  0  0  0  0  0  0  0
    3.9594    5.3846   -1.9686 C   0  0  0  0  0  0  0  0  0  0  0  0
    4.4004    2.1710    0.3620 Se  0  0  0  0  0  2  0  0  0  0  0  0
    1.6393   -0.9462    1.0152 C   0  0  0  0  0  0  0  0  0  0  0  0
    1.3284   -2.2501    0.7551 C   0  0  0  0  0  0  0  0  0  0  0  0
    2.4152   -3.0542    0.3900 C   0  0  0  0  0  0  0  0  0  0  0  0
    2.3063   -4.4543    0.0064 C   0  0  0  0  0  0  0  0  0  0  0  0
    3.1906   -5.4381   -0.1850 C   0  0  0  0  0  0  0  0  0  0  0  0
    2.8284   -6.6483   -0.6136 C   0  0  0  0  0  0  0  0  0  0  0  0
    1.5922   -7.0154   -0.8924 C   0  0  0  0  0  0  0  0  0  0  0  0
    0.7133   -8.4362   -1.4456 S   0  0  0  0  0  0  0  0  0  0  0  0
   -1.0510   -8.1009   -1.5728 C   0  0  0  0  0  0  0  0  0  0  0  0
   -1.4079   -7.1167   -2.6563 C   0  0  0  0  0  0  0  0  0  0  0  0
    0.6369   -5.2799   -0.4731 Se  0  0  0  0  0  2  0  0  0  0  0  0
    3.6791   -2.4931    0.3228 C   0  0  0  0  0  0  0  0  0  0  0  0
    5.1991   -3.1611   -0.0822 S   0  0  0  0  0  0  0  0  0  0  0  0
    0.0361   -2.5976    0.8650 C   0  0  0  0  0  0  0  0  0  0  0  0
   -0.8665   -1.6219    1.2242 C   0  0  0  0  0  0  0  0  0  0  0  0
    0.1259   -0.2541    1.3987 S   0  0  0  0  0  0  0  0  0  0  0  0
   -2.3323   -1.7343    1.4682 C   0  0  0  0  0  0  0  0  0  0  0  0
   -3.1123   -0.8334    1.0316 C   0  0  0  0  0  0  0  0  0  0  0  0
   -4.5878   -1.0526    1.3765 C   0  0  0  0  0  0  0  0  0  0  0  0
   -4.7720   -1.6950    2.7007 C   0  0  0  0  0  0  0  0  0  0  0  0
   -3.8914   -2.6203    3.1252 C   0  0  0  0  0  0  0  0  0  0  0  0
   -2.7477   -2.9878    2.2071 C   0  0  0  0  0  0  0  0  0  0  0  0
   -4.1232   -3.1705    4.3271 N   0  0  0  0  0  0  0  0  0  0  0  0
   -5.5225   -2.4268    4.8490 S   0  0  0  0  0  0  0  0  0  0  0  0
   -5.7965   -1.4276    3.5405 N   0  0  0  0  0  0  0  0  0  0  0  0
   -2.9117    0.0616   -0.0989 C   0  0  0  0  0  0  0  0  0  0  0  0
   -3.6979    1.0836   -0.3338 C   0  0  0  0  0  0  0  0  0  0  0  0
   -3.3478    1.8528   -1.5967 C   0  0  0  0  0  0  0  0  0  0  0  0
   -3.2312    0.8619   -2.7015 C   0  0  0  0  0  0  0  0  0  0  0  0
   -2.4714   -0.2183   -2.4594 C   0  0  0  0  0  0  0  0  0  0  0  0
   -1.8003   -0.2419   -1.0819 C   0  0  0  0  0  0  0  0  0  0  0  0
   -2.3521   -1.1178   -3.4309 N   0  0  0  0  0  0  0  0  0  0  0  0
   -3.2795   -0.4823   -4.6753 S   0  0  0  0  0  0  0  0  0  0  0  0
   -3.7997    0.9174   -3.9285 N   0  0  0  0  0  0  0  0  0  0  0  0
   -4.3195    1.8981    0.7261 C   0  0  0  0  0  0  0  0  0  0  0  0
   -5.2241    2.7702    0.4418 C   0  0  0  0  0  0  0  0  0  0  0  0
   -5.8098    3.6349    1.5519 C   0  0  0  0  0  0  0  0  0  0  0  0
   -5.8707    2.8377    2.8322 C   0  0  0  0  0  0  0  0  0  0  0  0
   -4.8520    2.0171    3.1227 C   0  0  0  0  0  0  0  0  0  0  0  0
   -3.7529    1.9342    2.1216 C   0  0  0  0  0  0  0  0  0  0  0  0
   -4.9322    1.3591    4.3013 N   0  0  0  0  0  0  0  0  0  0  0  0
   -6.3782    1.8804    4.9530 S   0  0  0  0  0  0  0  0  0  0  0  0
   -6.8612    2.9198    3.7340 N   0  0  0  0  0  0  0  0  0  0  0  0
   -6.0913    2.7380   -0.7240 C   0  0  0  0  0  0  0  0  0  0  0  0
   -6.8889    3.7691   -1.0255 C   0  0  0  0  0  0  0  0  0  0  0  0
   -7.8006    3.8386   -2.1704 C   0  0  0  0  0  0  0  0  0  0  0  0
   -7.5896    2.7489   -3.1772 C   0  0  0  0  0  0  0  0  0  0  0  0
   -6.9204    1.6332   -2.8346 C   0  0  0  0  0  0  0  0  0  0  0  0
   -6.3887    1.4957   -1.4402 C   0  0  0  0  0  0  0  0  0  0  0  0
   -6.7952    0.6936   -3.7899 N   0  0  0  0  0  0  0  0  0  0  0  0
   -7.5822    1.3500   -5.1113 S   0  0  0  0  0  0  0  0  0  0  0  0
   -8.0569    2.7989   -4.4393 N   0  0  0  0  0  0  0  0  0  0  0  0
    7.7911    0.2996    0.5771 H   0  0  0  0  0  0  0  0  0  0  0  0
    7.8542   -3.7336   -0.6666 H   0  0  0  0  0  0  0  0  0  0  0  0
    8.7480   -2.5782   -1.6545 H   0  0  0  0  0  0  0  0  0  0  0  0
    9.9221   -0.4801   -1.1231 H   0  0  0  0  0  0  0  0  0  0  0  0
   10.2267    0.3691    0.4246 H   0  0  0  0  0  0  0  0  0  0  0  0
    5.6892    0.1840    0.6708 H   0  0  0  0  0  0  0  0  0  0  0  0
    1.3067    1.6226    2.3005 H   0  0  0  0  0  0  0  0  0  0  0  0
    1.7800    4.0400    2.1831 H   0  0  0  0  0  0  0  0  0  0  0  0
    3.8175    7.2064   -0.8223 H   0  0  0  0  0  0  0  0  0  0  0  0
    2.3769    6.0513   -0.6697 H   0  0  0  0  0  0  0  0  0  0  0  0
    3.1054    4.8818   -2.4730 H   0  0  0  0  0  0  0  0  0  0  0  0
    4.4272    6.0475   -2.7288 H   0  0  0  0  0  0  0  0  0  0  0  0
    4.7170    4.6405   -1.6520 H   0  0  0  0  0  0  0  0  0  0  0  0
    4.2767   -5.2282    0.0483 H   0  0  0  0  0  0  0  0  0  0  0  0
    3.6288   -7.4630   -0.7635 H   0  0  0  0  0  0  0  0  0  0  0  0
   -1.4227   -7.6552   -0.6028 H   0  0  0  0  0  0  0  0  0  0  0  0
   -1.5858   -9.0672   -1.6615 H   0  0  0  0  0  0  0  0  0  0  0  0
   -0.5482   -6.8735   -3.3294 H   0  0  0  0  0  0  0  0  0  0  0  0
   -1.7367   -6.1385   -2.2386 H   0  0  0  0  0  0  0  0  0  0  0  0
   -2.2518   -7.4810   -3.2709 H   0  0  0  0  0  0  0  0  0  0  0  0
   -0.3942   -3.6091    0.7130 H   0  0  0  0  0  0  0  0  0  0  0  0
   -5.2231   -0.2153    1.1678 H   0  0  0  0  0  0  0  0  0  0  0  0
   -4.8453   -1.9203    0.6492 H   0  0  0  0  0  0  0  0  0  0  0  0
   -1.8933   -3.3802    2.7682 H   0  0  0  0  0  0  0  0  0  0  0  0
   -3.0695   -3.6919    1.4331 H   0  0  0  0  0  0  0  0  0  0  0  0
   -2.2749    2.1679   -1.3942 H   0  0  0  0  0  0  0  0  0  0  0  0
   -3.8884    2.7324   -1.7973 H   0  0  0  0  0  0  0  0  0  0  0  0
   -1.3587   -1.1996   -0.9514 H   0  0  0  0  0  0  0  0  0  0  0  0
   -1.0757    0.5772   -1.0498 H   0  0  0  0  0  0  0  0  0  0  0  0
   -5.0985    4.4616    1.7841 H   0  0  0  0  0  0  0  0  0  0  0  0
   -6.7783    4.0445    1.3109 H   0  0  0  0  0  0  0  0  0  0  0  0
   -3.0917    1.1114    2.2730 H   0  0  0  0  0  0  0  0  0  0  0  0
   -3.1807    2.9326    2.2006 H   0  0  0  0  0  0  0  0  0  0  0  0
   -6.8521    4.6711   -0.3842 H   0  0  0  0  0  0  0  0  0  0  0  0
   -7.7128    4.8399   -2.6577 H   0  0  0  0  0  0  0  0  0  0  0  0
   -8.8798    3.7408   -1.8471 H   0  0  0  0  0  0  0  0  0  0  0  0
   -5.7289    0.6701   -1.2847 H   0  0  0  0  0  0  0  0  0  0  0  0
   -7.3616    1.0869   -0.8866 H   0  0  0  0  0  0  0  0  0  0  0  0
  1  2  2  0
  2  3  1  0
  3  4  1  0
  4  5  1  0
  5  6  1  0
  5  7  2  0
  7  8  1  0
  8  9  1  0
  2 10  1  0
 10 11  2  0
 11 12  1  0
 12 13  2  0
 13 14  1  0
 14 15  2  0
 15 16  1  0
 16 17  2  0
 17 18  1  0
 18 19  1  0
 19 20  1  0
 17 21  1  0
 13 22  1  0
 22 23  2  0
 23 24  1  0
 24 25  1  0
 25 26  2  0
 26 27  1  0
 27 28  2  0
 28 29  1  0
 29 30  1  0
 30 31  1  0
 28 32  1  0
 24 33  2  0
 33 34  1  0
 23 35  1  0
 35 36  2  0
 36 37  1  0
 36 38  1  0
 38 39  2  0
 39 40  1  0
 40 41  1  0
 41 42  1  0
 42 43  1  0
 42 44  2  0
 44 45  1  0
 45 46  1  0
 39 47  1  0
 47 48  2  0
 48 49  1  0
 49 50  1  0
 50 51  1  0
 51 52  1  0
 51 53  2  0
 53 54  1  0
 54 55  1  0
 48 56  1  0
 56 57  2  0
 57 58  1  0
 58 59  1  0
 59 60  1  0
 60 61  1  0
 60 62  2  0
 62 63  1  0
 63 64  1  0
 57 65  1  0
 65 66  2  0
 66 67  1  0
 67 68  1  0
 68 69  1  0
 69 70  1  0
 69 71  2  0
 71 72  1  0
 72 73  1  0
  6  1  1  0
 34 10  1  0
 43 38  1  0
 52 47  1  0
 61 56  1  0
 70 65  1  0
  9  4  2  0
 33 12  1  0
 46 41  2  0
 55 50  2  0
 64 59  2  0
 73 68  2  0
 21 14  1  0
 37 22  1  0
 32 25  1  0
  1 74  1  0
  3 75  1  0
  3 76  1  0
  6 77  1  0
  6 78  1  0
 11 79  1  0
 15 80  1  0
 16 81  1  0
 19 82  1  0
 19 83  1  0
 20 84  1  0
 20 85  1  0
 20 86  1  0
 26 87  1  0
 27 88  1  0
 30 89  1  0
 30 90  1  0
 31 91  1  0
 31 92  1  0
 31 93  1  0
 35 94  1  0
 40 95  1  0
 40 96  1  0
 43 97  1  0
 43 98  1  0
 49 99  1  0
 49100  1  0
 52101  1  0
 52102  1  0
 58103  1  0
 58104  1  0
 61105  1  0
 61106  1  0
 66107  1  0
 67108  1  0
 67109  1  0
 70110  1  0
 70111  1  0
M  END

