
     RDKit          3D

250277  0  0  0  0  0  0  0  0999 V2000
    7.0594   -0.2697    9.8698 C   0  0  0  0  0  0  0  0  0  0  0  0
    7.1406   -1.3451    9.0163 C   0  0  0  0  0  0  0  0  0  0  0  0
    5.9855   -1.8820    8.5520 C   0  0  0  0  0  0  0  0  0  0  0  0
    5.8245   -2.9318    7.6686 C   0  0  0  0  0  0  0  0  0  0  0  0
    6.9141   -3.7625    7.1025 C   0  0  0  0  0  0  0  0  0  0  0  0
    8.1883   -3.9985    7.3415 C   0  0  0  0  0  0  0  0  0  0  0  0
    8.9585   -4.7437    6.5337 C   0  0  0  0  0  0  0  0  0  0  0  0
    8.5399   -5.3252    5.4227 C   0  0  0  0  0  0  0  0  0  0  0  0
    9.1850   -6.3245    4.1192 S   0  0  0  0  0  0  0  0  0  0  0  0
    9.7521   -5.3577    2.7020 C   0  0  0  0  0  0  0  0  0  0  0  0
    8.6008   -4.6687    1.9814 C   0  0  0  0  0  0  0  0  0  0  0  0
    6.6471   -4.7257    5.4717 Se  0  0  0  0  0  2  0  0  0  0  0  0
    4.5347   -3.3073    7.2767 C   0  0  0  0  0  0  0  0  0  0  0  0
    3.3746   -2.7073    7.6998 C   0  0  0  0  0  0  0  0  0  0  0  0
    3.5449   -1.6501    8.5979 C   0  0  0  0  0  0  0  0  0  0  0  0
    2.4463   -0.8747    9.1366 C   0  0  0  0  0  0  0  0  0  0  0  0
    2.3450    0.0019   10.1376 C   0  0  0  0  0  0  0  0  0  0  0  0
    1.2151    0.6507   10.4361 C   0  0  0  0  0  0  0  0  0  0  0  0
    0.0698    0.4885    9.7639 C   0  0  0  0  0  0  0  0  0  0  0  0
   -1.5645    1.1109    9.8851 S   0  0  0  0  0  0  0  0  0  0  0  0
   -1.8674    2.6518    9.0201 C   0  0  0  0  0  0  0  0  0  0  0  0
   -3.3192    3.0667    9.2160 C   0  0  0  0  0  0  0  0  0  0  0  0
    0.6807   -0.8376    8.4431 Se  0  0  0  0  0  2  0  0  0  0  0  0
    4.8203   -1.2856    8.9831 C   0  0  0  0  0  0  0  0  0  0  0  0
    5.3975   -0.0363    9.9952 S   0  0  0  0  0  0  0  0  0  0  0  0
    2.2261   -3.2050    7.2063 C   0  0  0  0  0  0  0  0  0  0  0  0
    2.3105   -4.2565    6.3320 C   0  0  0  0  0  0  0  0  0  0  0  0
    3.9867   -4.5317    6.2274 S   0  0  0  0  0  0  0  0  0  0  0  0
    1.2139   -4.9754    5.6450 C   0  0  0  0  0  0  0  0  0  0  0  0
    0.0514   -4.2486    5.4243 C   0  0  0  0  0  0  0  0  0  0  0  0
   -0.9911   -4.7819    4.7110 C   0  0  0  0  0  0  0  0  0  0  0  0
   -0.9422   -6.0733    4.1926 C   0  0  0  0  0  0  0  0  0  0  0  0
    0.2396   -6.7776    4.4400 C   0  0  0  0  0  0  0  0  0  0  0  0
    1.3053   -6.2274    5.1572 C   0  0  0  0  0  0  0  0  0  0  0  0
   -2.1898   -6.3289    3.5027 C   0  0  0  0  0  0  0  0  0  0  0  0
   -2.7093   -4.9626    3.2091 C   0  0  0  0  0  0  0  0  0  0  0  0
   -3.5206   -4.5641    2.3489 O   0  0  0  0  0  0  0  0  0  0  0  0
   -2.0833   -4.0787    4.1351 N   0  0  0  0  0  0  0  0  0  0  0  0
   -2.5030   -2.7237    4.4267 C   0  0  0  0  0  0  0  0  0  0  0  0
   -3.4887   -2.7807    5.5582 C   0  0  0  0  0  0  0  0  0  0  0  0
   -3.3077   -7.1202    4.1219 C   0  0  0  0  0  0  0  0  0  0  0  0
   -3.8690   -6.5996    5.3532 C   0  0  0  0  0  0  0  0  0  0  0  0
   -3.4168   -6.7953    6.5183 O   0  0  0  0  0  0  0  0  0  0  0  0
   -5.0365   -5.8061    5.0477 N   0  0  0  0  0  0  0  0  0  0  0  0
   -5.3673   -6.0075    3.6902 C   0  0  0  0  0  0  0  0  0  0  0  0
   -6.3799   -5.4181    2.8819 C   0  0  0  0  0  0  0  0  0  0  0  0
   -6.4375   -5.7378    1.5665 C   0  0  0  0  0  0  0  0  0  0  0  0
   -5.5362   -6.6489    1.0262 C   0  0  0  0  0  0  0  0  0  0  0  0
   -4.5555   -7.2218    1.8106 C   0  0  0  0  0  0  0  0  0  0  0  0
   -4.4826   -6.8794    3.1417 C   0  0  0  0  0  0  0  0  0  0  0  0
   -7.0583   -4.7761    0.5834 C   0  0  0  0  0  0  0  0  0  0  0  0
   -7.3405   -3.4602    0.8151 C   0  0  0  0  0  0  0  0  0  0  0  0
   -7.4609   -2.6629   -0.2902 C   0  0  0  0  0  0  0  0  0  0  0  0
   -7.4476   -1.2521   -0.2912 C   0  0  0  0  0  0  0  0  0  0  0  0
   -7.7710   -0.4412    0.8498 C   0  0  0  0  0  0  0  0  0  0  0  0
   -8.3376   -0.5854    2.0522 C   0  0  0  0  0  0  0  0  0  0  0  0
   -8.4239    0.3892    2.9534 C   0  0  0  0  0  0  0  0  0  0  0  0
   -7.9652    1.6192    2.7755 C   0  0  0  0  0  0  0  0  0  0  0  0
   -7.9159    3.1085    3.7035 S   0  0  0  0  0  0  0  0  0  0  0  0
   -9.3882    4.1395    3.4411 C   0  0  0  0  0  0  0  0  0  0  0  0
  -10.5700    3.3306    3.9923 C   0  0  0  0  0  0  0  0  0  0  0  0
   -7.2312    1.4381    0.9504 Se  0  0  0  0  0  2  0  0  0  0  0  0
   -7.2375   -0.5797   -1.5135 C   0  0  0  0  0  0  0  0  0  0  0  0
   -7.0559   -1.1751   -2.6960 C   0  0  0  0  0  0  0  0  0  0  0  0
   -7.1055   -2.5707   -2.7095 C   0  0  0  0  0  0  0  0  0  0  0  0
   -7.1488   -3.3319   -3.9378 C   0  0  0  0  0  0  0  0  0  0  0  0
   -6.9796   -4.6293   -4.2452 C   0  0  0  0  0  0  0  0  0  0  0  0
   -7.1930   -5.1010   -5.4718 C   0  0  0  0  0  0  0  0  0  0  0  0
   -7.5857   -4.3678   -6.5011 C   0  0  0  0  0  0  0  0  0  0  0  0
   -7.9818   -4.5704   -8.2084 S   0  0  0  0  0  0  0  0  0  0  0  0
   -7.8136   -6.2955   -8.6655 C   0  0  0  0  0  0  0  0  0  0  0  0
   -6.3798   -6.7326   -8.5771 C   0  0  0  0  0  0  0  0  0  0  0  0
   -7.6982   -2.6026   -5.6052 Se  0  0  0  0  0  2  0  0  0  0  0  0
   -7.2979   -3.2502   -1.5055 C   0  0  0  0  0  0  0  0  0  0  0  0
   -6.9944   -4.9133   -1.0844 S   0  0  0  0  0  0  0  0  0  0  0  0
   -6.5691   -0.4096   -3.7186 C   0  0  0  0  0  0  0  0  0  0  0  0
   -6.2982    0.8913   -3.4635 C   0  0  0  0  0  0  0  0  0  0  0  0
   -6.7532    1.0518   -1.8033 S   0  0  0  0  0  0  0  0  0  0  0  0
   -5.2688    1.7503   -4.1516 C   0  0  0  0  0  0  0  0  0  0  0  0
   -4.9573    3.0225   -4.2519 C   0  0  0  0  0  0  0  0  0  0  0  0
   -3.7203    3.3733   -4.7542 C   0  0  0  0  0  0  0  0  0  0  0  0
   -3.0989    4.6271   -4.7798 C   0  0  0  0  0  0  0  0  0  0  0  0
   -3.8121    5.8617   -4.5437 C   0  0  0  0  0  0  0  0  0  0  0  0
   -3.4759    7.1315   -4.3403 C   0  0  0  0  0  0  0  0  0  0  0  0
   -4.3577    8.1314   -4.2315 C   0  0  0  0  0  0  0  0  0  0  0  0
   -5.6757    7.9368   -4.3172 C   0  0  0  0  0  0  0  0  0  0  0  0
   -7.1493    8.9111   -4.2526 S   0  0  0  0  0  0  0  0  0  0  0  0
   -8.6232    7.8451   -4.4344 C   0  0  0  0  0  0  0  0  0  0  0  0
   -8.6176    7.1872   -5.8077 C   0  0  0  0  0  0  0  0  0  0  0  0
   -5.7261    6.0046   -4.6044 Se  0  0  0  0  0  2  0  0  0  0  0  0
   -1.7512    4.7386   -5.1379 C   0  0  0  0  0  0  0  0  0  0  0  0
   -0.9540    3.6758   -5.4822 C   0  0  0  0  0  0  0  0  0  0  0  0
   -1.5763    2.4238   -5.4719 C   0  0  0  0  0  0  0  0  0  0  0  0
   -0.8358    1.1753   -5.6065 C   0  0  0  0  0  0  0  0  0  0  0  0
    0.4498    0.8092   -5.4155 C   0  0  0  0  0  0  0  0  0  0  0  0
    0.8804   -0.4236   -5.7021 C   0  0  0  0  0  0  0  0  0  0  0  0
    0.1456   -1.4050   -6.1851 C   0  0  0  0  0  0  0  0  0  0  0  0
    0.3023   -3.0716   -6.6903 S   0  0  0  0  0  0  0  0  0  0  0  0
   -1.3151   -3.7061   -7.1891 C   0  0  0  0  0  0  0  0  0  0  0  0
   -1.7253   -2.9615   -8.4378 C   0  0  0  0  0  0  0  0  0  0  0  0
   -1.6107   -0.4062   -6.2823 Se  0  0  0  0  0  2  0  0  0  0  0  0
   -2.9107    2.3493   -5.1159 C   0  0  0  0  0  0  0  0  0  0  0  0
   -3.8224    0.9565   -4.7916 S   0  0  0  0  0  0  0  0  0  0  0  0
    0.3403    3.9250   -5.6922 C   0  0  0  0  0  0  0  0  0  0  0  0
    0.7938    5.2445   -5.5370 C   0  0  0  0  0  0  0  0  0  0  0  0
   -0.6243    6.0489   -5.1333 S   0  0  0  0  0  0  0  0  0  0  0  0
    2.2220    5.5382   -5.6635 C   0  0  0  0  0  0  0  0  0  0  0  0
    2.8954    6.5442   -6.1777 C   0  0  0  0  0  0  0  0  0  0  0  0
    4.2946    6.6932   -5.9815 C   0  0  0  0  0  0  0  0  0  0  0  0
    5.0300    5.8022   -5.2361 C   0  0  0  0  0  0  0  0  0  0  0  0
    4.3320    4.7361   -4.6927 C   0  0  0  0  0  0  0  0  0  0  0  0
    3.0046    4.6142   -4.8988 C   0  0  0  0  0  0  0  0  0  0  0  0
    6.4238    6.2955   -5.1039 C   0  0  0  0  0  0  0  0  0  0  0  0
    6.5161    7.2708   -6.1811 C   0  0  0  0  0  0  0  0  0  0  0  0
    7.5709    7.7241   -6.6722 O   0  0  0  0  0  0  0  0  0  0  0  0
    5.1821    7.6448   -6.5961 N   0  0  0  0  0  0  0  0  0  0  0  0
    4.8328    8.7538   -7.4773 C   0  0  0  0  0  0  0  0  0  0  0  0
    4.8236    8.2431   -8.9082 C   0  0  0  0  0  0  0  0  0  0  0  0
    7.5103    5.2774   -5.1489 C   0  0  0  0  0  0  0  0  0  0  0  0
    7.6705    4.5191   -6.3638 C   0  0  0  0  0  0  0  0  0  0  0  0
    8.0408    4.9438   -7.4865 O   0  0  0  0  0  0  0  0  0  0  0  0
    7.3388    3.1648   -6.1212 N   0  0  0  0  0  0  0  0  0  0  0  0
    7.0924    3.0157   -4.7347 C   0  0  0  0  0  0  0  0  0  0  0  0
    6.6711    1.8904   -3.9949 C   0  0  0  0  0  0  0  0  0  0  0  0
    6.4279    1.9979   -2.6463 C   0  0  0  0  0  0  0  0  0  0  0  0
    6.6124    3.2061   -2.0179 C   0  0  0  0  0  0  0  0  0  0  0  0
    7.0272    4.3240   -2.7306 C   0  0  0  0  0  0  0  0  0  0  0  0
    7.2599    4.2160   -4.0981 C   0  0  0  0  0  0  0  0  0  0  0  0
    5.8036    0.9083   -1.8647 C   0  0  0  0  0  0  0  0  0  0  0  0
    5.5979   -0.4027   -2.1672 C   0  0  0  0  0  0  0  0  0  0  0  0
    4.9283   -1.1732   -1.2878 C   0  0  0  0  0  0  0  0  0  0  0  0
    4.6215   -2.5190   -1.3737 C   0  0  0  0  0  0  0  0  0  0  0  0
    4.7562   -3.3472   -2.5910 C   0  0  0  0  0  0  0  0  0  0  0  0
    4.9228   -3.1128   -3.8696 C   0  0  0  0  0  0  0  0  0  0  0  0
    5.0602   -4.0596   -4.8148 C   0  0  0  0  0  0  0  0  0  0  0  0
    5.0361   -5.3581   -4.5188 C   0  0  0  0  0  0  0  0  0  0  0  0
    5.1698   -6.8753   -5.3982 S   0  0  0  0  0  0  0  0  0  0  0  0
    5.0061   -8.3093   -4.2947 C   0  0  0  0  0  0  0  0  0  0  0  0
    3.6492   -8.4311   -3.6865 C   0  0  0  0  0  0  0  0  0  0  0  0
    4.7723   -5.2392   -2.5493 Se  0  0  0  0  0  2  0  0  0  0  0  0
    3.9399   -3.1534   -0.3238 C   0  0  0  0  0  0  0  0  0  0  0  0
    3.5242   -2.5309    0.8281 C   0  0  0  0  0  0  0  0  0  0  0  0
    3.8199   -1.1627    0.9120 C   0  0  0  0  0  0  0  0  0  0  0  0
    3.2074   -0.2395    1.8696 C   0  0  0  0  0  0  0  0  0  0  0  0
    2.1962   -0.2896    2.7404 C   0  0  0  0  0  0  0  0  0  0  0  0
    1.8073    0.7502    3.4844 C   0  0  0  0  0  0  0  0  0  0  0  0
    2.3908    1.9539    3.4290 C   0  0  0  0  0  0  0  0  0  0  0  0
    2.1027    3.5073    4.1792 S   0  0  0  0  0  0  0  0  0  0  0  0
    2.9247    3.8292    5.7223 C   0  0  0  0  0  0  0  0  0  0  0  0
    4.4189    3.9798    5.5927 C   0  0  0  0  0  0  0  0  0  0  0  0
    3.7674    1.5615    2.0754 Se  0  0  0  0  0  2  0  0  0  0  0  0
    4.5071   -0.5527   -0.1345 C   0  0  0  0  0  0  0  0  0  0  0  0
    5.0596    1.0483   -0.3369 S   0  0  0  0  0  0  0  0  0  0  0  0
    2.9102   -3.3122    1.7489 C   0  0  0  0  0  0  0  0  0  0  0  0
    2.7519   -4.6411    1.4506 C   0  0  0  0  0  0  0  0  0  0  0  0
    3.4625   -4.7700   -0.0846 S   0  0  0  0  0  0  0  0  0  0  0  0
    7.9093    0.2750   10.3260 H   0  0  0  0  0  0  0  0  0  0  0  0
    8.1769   -1.6612    8.7546 H   0  0  0  0  0  0  0  0  0  0  0  0
    8.6377   -3.5886    8.3070 H   0  0  0  0  0  0  0  0  0  0  0  0
   10.0708   -4.9018    6.7975 H   0  0  0  0  0  0  0  0  0  0  0  0
   10.3013   -5.9340    1.9557 H   0  0  0  0  0  0  0  0  0  0  0  0
   10.4209   -4.5417    3.0458 H   0  0  0  0  0  0  0  0  0  0  0  0
    8.8938   -4.3412    0.9649 H   0  0  0  0  0  0  0  0  0  0  0  0
    8.2716   -3.7512    2.5105 H   0  0  0  0  0  0  0  0  0  0  0  0
    7.7139   -5.3274    1.9079 H   0  0  0  0  0  0  0  0  0  0  0  0
    3.2721    0.1927   10.7663 H   0  0  0  0  0  0  0  0  0  0  0  0
    1.1710    1.4007   11.3074 H   0  0  0  0  0  0  0  0  0  0  0  0
   -1.2366    3.4959    9.4002 H   0  0  0  0  0  0  0  0  0  0  0  0
   -1.6851    2.5885    7.9390 H   0  0  0  0  0  0  0  0  0  0  0  0
   -3.3814    3.5967   10.1788 H   0  0  0  0  0  0  0  0  0  0  0  0
   -3.5268    3.7917    8.4081 H   0  0  0  0  0  0  0  0  0  0  0  0
   -4.0018    2.2294    9.1057 H   0  0  0  0  0  0  0  0  0  0  0  0
    1.1957   -2.8536    7.4451 H   0  0  0  0  0  0  0  0  0  0  0  0
    0.0176   -3.2434    5.8372 H   0  0  0  0  0  0  0  0  0  0  0  0
    0.3321   -7.7829    4.0696 H   0  0  0  0  0  0  0  0  0  0  0  0
    2.2159   -6.7916    5.3233 H   0  0  0  0  0  0  0  0  0  0  0  0
   -2.0072   -6.8132    2.4857 H   0  0  0  0  0  0  0  0  0  0  0  0
   -1.6188   -2.1465    4.7971 H   0  0  0  0  0  0  0  0  0  0  0  0
   -2.8741   -2.1752    3.5368 H   0  0  0  0  0  0  0  0  0  0  0  0
   -4.4776   -2.5976    5.1193 H   0  0  0  0  0  0  0  0  0  0  0  0
   -3.4598   -3.7708    6.0759 H   0  0  0  0  0  0  0  0  0  0  0  0
   -3.2764   -2.0092    6.3524 H   0  0  0  0  0  0  0  0  0  0  0  0
   -3.0463   -8.1719    4.1583 H   0  0  0  0  0  0  0  0  0  0  0  0
   -5.4958   -5.2130    5.7579 H   0  0  0  0  0  0  0  0  0  0  0  0
   -7.0863   -4.7214    3.3194 H   0  0  0  0  0  0  0  0  0  0  0  0
   -5.5941   -6.9079   -0.0117 H   0  0  0  0  0  0  0  0  0  0  0  0
   -3.8434   -7.9408    1.3915 H   0  0  0  0  0  0  0  0  0  0  0  0
   -7.4314   -3.1476    1.8723 H   0  0  0  0  0  0  0  0  0  0  0  0
   -8.8158   -1.6051    2.2706 H   0  0  0  0  0  0  0  0  0  0  0  0
   -8.9222    0.1837    3.9752 H   0  0  0  0  0  0  0  0  0  0  0  0
   -9.4985    4.3987    2.3899 H   0  0  0  0  0  0  0  0  0  0  0  0
   -9.2821    5.0444    4.0783 H   0  0  0  0  0  0  0  0  0  0  0  0
  -10.7184    3.5198    5.0579 H   0  0  0  0  0  0  0  0  0  0  0  0
  -10.3751    2.2439    3.8842 H   0  0  0  0  0  0  0  0  0  0  0  0
  -11.4370    3.5853    3.3742 H   0  0  0  0  0  0  0  0  0  0  0  0
   -6.6299   -5.3125   -3.4024 H   0  0  0  0  0  0  0  0  0  0  0  0
   -7.0171   -6.2225   -5.6740 H   0  0  0  0  0  0  0  0  0  0  0  0
   -8.2524   -6.4277   -9.6661 H   0  0  0  0  0  0  0  0  0  0  0  0
   -8.4647   -6.9034   -7.9612 H   0  0  0  0  0  0  0  0  0  0  0  0
   -6.0821   -7.1334   -9.5676 H   0  0  0  0  0  0  0  0  0  0  0  0
   -6.3180   -7.5771   -7.8700 H   0  0  0  0  0  0  0  0  0  0  0  0
   -5.6953   -5.9034   -8.3014 H   0  0  0  0  0  0  0  0  0  0  0  0
   -6.3531   -0.7746   -4.7510 H   0  0  0  0  0  0  0  0  0  0  0  0
   -5.7177    3.7749   -3.9043 H   0  0  0  0  0  0  0  0  0  0  0  0
   -2.3687    7.3816   -4.2376 H   0  0  0  0  0  0  0  0  0  0  0  0
   -4.0180    9.2169   -4.0651 H   0  0  0  0  0  0  0  0  0  0  0  0
   -9.5351    8.4430   -4.3589 H   0  0  0  0  0  0  0  0  0  0  0  0
   -8.6269    7.0489   -3.6711 H   0  0  0  0  0  0  0  0  0  0  0  0
   -8.9494    6.1199   -5.7240 H   0  0  0  0  0  0  0  0  0  0  0  0
   -9.2932    7.6823   -6.5155 H   0  0  0  0  0  0  0  0  0  0  0  0
   -7.5884    7.2103   -6.2487 H   0  0  0  0  0  0  0  0  0  0  0  0
    1.1458    1.5693   -4.9248 H   0  0  0  0  0  0  0  0  0  0  0  0
    1.9984   -0.6574   -5.5134 H   0  0  0  0  0  0  0  0  0  0  0  0
   -1.2351   -4.7938   -7.3381 H   0  0  0  0  0  0  0  0  0  0  0  0
   -2.0739   -3.5428   -6.3670 H   0  0  0  0  0  0  0  0  0  0  0  0
   -2.8247   -2.9024   -8.5229 H   0  0  0  0  0  0  0  0  0  0  0  0
   -1.3266   -1.9182   -8.4370 H   0  0  0  0  0  0  0  0  0  0  0  0
   -1.2563   -3.5058   -9.2949 H   0  0  0  0  0  0  0  0  0  0  0  0
    1.1074    3.2033   -6.0563 H   0  0  0  0  0  0  0  0  0  0  0  0
    2.3404    7.2857   -6.7743 H   0  0  0  0  0  0  0  0  0  0  0  0
    4.8295    4.0227   -4.0814 H   0  0  0  0  0  0  0  0  0  0  0  0
    2.4620    3.7686   -4.4669 H   0  0  0  0  0  0  0  0  0  0  0  0
    6.5054    6.8059   -4.0844 H   0  0  0  0  0  0  0  0  0  0  0  0
    5.6358    9.4989   -7.3929 H   0  0  0  0  0  0  0  0  0  0  0  0
    3.8848    9.1721   -7.1551 H   0  0  0  0  0  0  0  0  0  0  0  0
    5.7978    7.7795   -9.0988 H   0  0  0  0  0  0  0  0  0  0  0  0
    3.9615    7.5775   -9.0933 H   0  0  0  0  0  0  0  0  0  0  0  0
    4.7109    9.1200   -9.5644 H   0  0  0  0  0  0  0  0  0  0  0  0
    8.4621    5.7531   -4.8476 H   0  0  0  0  0  0  0  0  0  0  0  0
    7.2682    2.3822   -6.8161 H   0  0  0  0  0  0  0  0  0  0  0  0
    6.5324    0.9302   -4.4587 H   0  0  0  0  0  0  0  0  0  0  0  0
    6.4409    3.2991   -0.9455 H   0  0  0  0  0  0  0  0  0  0  0  0
    7.1855    5.2891   -2.2845 H   0  0  0  0  0  0  0  0  0  0  0  0
    6.0616   -0.7687   -3.1182 H   0  0  0  0  0  0  0  0  0  0  0  0
    4.9185   -2.0225   -4.2316 H   0  0  0  0  0  0  0  0  0  0  0  0
    5.2022   -3.7909   -5.9078 H   0  0  0  0  0  0  0  0  0  0  0  0
    5.7576   -8.2715   -3.4699 H   0  0  0  0  0  0  0  0  0  0  0  0
    5.2313   -9.2516   -4.8346 H   0  0  0  0  0  0  0  0  0  0  0  0
    3.2960   -9.5031   -3.6479 H   0  0  0  0  0  0  0  0  0  0  0  0
    3.6152   -8.0688   -2.6450 H   0  0  0  0  0  0  0  0  0  0  0  0
    2.8600   -7.8683   -4.2299 H   0  0  0  0  0  0  0  0  0  0  0  0
    1.5981   -1.2554    2.8166 H   0  0  0  0  0  0  0  0  0  0  0  0
    0.9433    0.6554    4.2303 H   0  0  0  0  0  0  0  0  0  0  0  0
    2.7386    2.9914    6.4379 H   0  0  0  0  0  0  0  0  0  0  0  0
    2.5103    4.7770    6.1447 H   0  0  0  0  0  0  0  0  0  0  0  0
    4.7153    5.0491    5.4438 H   0  0  0  0  0  0  0  0  0  0  0  0
    4.8935    3.6474    6.5207 H   0  0  0  0  0  0  0  0  0  0  0  0
    4.8134    3.3177    4.7743 H   0  0  0  0  0  0  0  0  0  0  0  0
    2.5550   -2.9968    2.7573 H   0  0  0  0  0  0  0  0  0  0  0  0
    2.2888   -5.4382    2.0522 H   0  0  0  0  0  0  0  0  0  0  0  0
  1  2  2  0
  2  3  1  0
  3  4  2  0
  4  5  1  0
  5  6  2  0
  6  7  1  0
  7  8  2  0
  8  9  1  0
  9 10  1  0
 10 11  1  0
  8 12  1  0
  4 13  1  0
 13 14  2  0
 14 15  1  0
 15 16  1  0
 16 17  2  0
 17 18  1  0
 18 19  2  0
 19 20  1  0
 20 21  1  0
 21 22  1  0
 19 23  1  0
 15 24  2  0
 24 25  1  0
 14 26  1  0
 26 27  2  0
 27 28  1  0
 27 29  1  0
 29 30  2  0
 30 31  1  0
 31 32  2  0
 32 33  1  0
 33 34  2  0
 32 35  1  0
 35 36  1  0
 36 37  2  0
 36 38  1  0
 38 39  1  0
 39 40  1  0
 35 41  1  0
 41 42  1  0
 42 43  2  0
 42 44  1  0
 44 45  1  0
 45 46  2  0
 46 47  1  0
 47 48  2  0
 48 49  1  0
 49 50  2  0
 47 51  1  0
 51 52  2  0
 52 53  1  0
 53 54  2  0
 54 55  1  0
 55 56  2  0
 56 57  1  0
 57 58  2  0
 58 59  1  0
 59 60  1  0
 60 61  1  0
 58 62  1  0
 54 63  1  0
 63 64  2  0
 64 65  1  0
 65 66  1  0
 66 67  2  0
 67 68  1  0
 68 69  2  0
 69 70  1  0
 70 71  1  0
 71 72  1  0
 69 73  1  0
 65 74  2  0
 74 75  1  0
 64 76  1  0
 76 77  2  0
 77 78  1  0
 77 79  1  0
 79 80  2  0
 80 81  1  0
 81 82  2  0
 82 83  1  0
 83 84  2  0
 84 85  1  0
 85 86  2  0
 86 87  1  0
 87 88  1  0
 88 89  1  0
 86 90  1  0
 82 91  1  0
 91 92  2  0
 92 93  1  0
 93 94  1  0
 94 95  2  0
 95 96  1  0
 96 97  2  0
 97 98  1  0
 98 99  1  0
 99100  1  0
 97101  1  0
 93102  2  0
102103  1  0
 92104  1  0
104105  2  0
105106  1  0
105107  1  0
107108  2  0
108109  1  0
109110  2  0
110111  1  0
111112  2  0
110113  1  0
113114  1  0
114115  2  0
114116  1  0
116117  1  0
117118  1  0
113119  1  0
119120  1  0
120121  2  0
120122  1  0
122123  1  0
123124  2  0
124125  1  0
125126  2  0
126127  1  0
127128  2  0
125129  1  0
129130  2  0
130131  1  0
131132  2  0
132133  1  0
133134  2  0
134135  1  0
135136  2  0
136137  1  0
137138  1  0
138139  1  0
136140  1  0
132141  1  0
141142  2  0
142143  1  0
143144  1  0
144145  2  0
145146  1  0
146147  2  0
147148  1  0
148149  1  0
149150  1  0
147151  1  0
143152  2  0
152153  1  0
142154  1  0
154155  2  0
155156  1  0
 25  1  1  0
 34 29  1  0
 50 41  1  0
 75 51  1  0
103 79  1  0
112107  1  0
128119  1  0
153129  1  0
 24  3  1  0
 38 31  1  0
 50 45  1  0
 74 53  1  0
102 81  1  0
116109  1  0
128123  1  0
152131  1  0
 12  5  1  0
 28 13  1  0
 62 55  1  0
 78 63  1  0
 90 83  1  0
106 91  1  0
140133  1  0
156141  1  0
 23 16  1  0
 73 66  1  0
101 94  1  0
151144  1  0
  1157  1  0
  2158  1  0
  6159  1  0
  7160  1  0
 10161  1  0
 10162  1  0
 11163  1  0
 11164  1  0
 11165  1  0
 17166  1  0
 18167  1  0
 21168  1  0
 21169  1  0
 22170  1  0
 22171  1  0
 22172  1  0
 26173  1  0
 30174  1  0
 33175  1  0
 34176  1  0
 35177  1  0
 39178  1  0
 39179  1  0
 40180  1  0
 40181  1  0
 40182  1  0
 41183  1  0
 44184  1  0
 46185  1  0
 48186  1  0
 49187  1  0
 52188  1  0
 56189  1  0
 57190  1  0
 60191  1  0
 60192  1  0
 61193  1  0
 61194  1  0
 61195  1  0
 67196  1  0
 68197  1  0
 71198  1  0
 71199  1  0
 72200  1  0
 72201  1  0
 72202  1  0
 76203  1  0
 80204  1  0
 84205  1  0
 85206  1  0
 88207  1  0
 88208  1  0
 89209  1  0
 89210  1  0
 89211  1  0
 95212  1  0
 96213  1  0
 99214  1  0
 99215  1  0
100216  1  0
100217  1  0
100218  1  0
104219  1  0
108220  1  0
111221  1  0
112222  1  0
113223  1  0
117224  1  0
117225  1  0
118226  1  0
118227  1  0
118228  1  0
119229  1  0
122230  1  0
124231  1  0
126232  1  0
127233  1  0
130234  1  0
134235  1  0
135236  1  0
138237  1  0
138238  1  0
139239  1  0
139240  1  0
139241  1  0
145242  1  0
146243  1  0
149244  1  0
149245  1  0
150246  1  0
150247  1  0
150248  1  0
154249  1  0
155250  1  0
M  END

