
     RDKit          3D

188211  0  0  0  0  0  0  0  0999 V2000
   11.5756   -3.8863    7.2226 C   0  0  0  0  0  0  0  0  0  0  0  0
   12.0670   -3.6146    8.4877 C   0  0  0  0  0  0  0  0  0  0  0  0
   11.4819   -2.7417    9.3650 C   0  0  0  0  0  0  0  0  0  0  0  0
   12.0590   -2.5664   10.5205 N   0  0  0  0  0  0  0  0  0  0  0  0
   13.1652   -3.2205   10.8121 C   0  0  0  0  0  0  0  0  0  0  0  0
   13.4276   -4.1490    9.3845 S   0  0  0  0  0  0  0  0  0  0  0  0
   10.2923   -2.0719    8.9446 C   0  0  0  0  0  0  0  0  0  0  0  0
    9.8196   -2.3529    7.6779 C   0  0  0  0  0  0  0  0  0  0  0  0
   10.4032   -3.2336    6.7883 C   0  0  0  0  0  0  0  0  0  0  0  0
    9.8732   -3.3572    5.6122 N   0  0  0  0  0  0  0  0  0  0  0  0
    8.8168   -2.6682    5.2696 C   0  0  0  0  0  0  0  0  0  0  0  0
    8.5271   -1.7755    6.6870 S   0  0  0  0  0  0  0  0  0  0  0  0
    9.7004   -1.0517    9.7632 C   0  0  0  0  0  0  0  0  0  0  0  0
    8.5501   -0.6059   10.0373 C   0  0  0  0  0  0  0  0  0  0  0  0
    7.1833   -0.9034    9.6747 C   0  0  0  0  0  0  0  0  0  0  0  0
    6.6145   -2.0326    9.1509 C   0  0  0  0  0  0  0  0  0  0  0  0
    5.3302   -2.0092    8.7644 C   0  0  0  0  0  0  0  0  0  0  0  0
    4.6209   -3.0172    8.0866 C   0  0  0  0  0  0  0  0  0  0  0  0
    5.0495   -4.4047    8.0137 C   0  0  0  0  0  0  0  0  0  0  0  0
    5.9348   -5.1833    8.6543 C   0  0  0  0  0  0  0  0  0  0  0  0
    6.1610   -6.4560    8.3356 C   0  0  0  0  0  0  0  0  0  0  0  0
    5.5425   -7.1061    7.3529 C   0  0  0  0  0  0  0  0  0  0  0  0
    5.5854   -8.7074    6.6523 S   0  0  0  0  0  0  0  0  0  0  0  0
    4.3295   -8.8059    5.3439 C   0  0  0  0  0  0  0  0  0  0  0  0
    2.9443   -8.6901    5.9651 C   0  0  0  0  0  0  0  0  0  0  0  0
    4.3660   -5.6343    6.7007 Se  0  0  0  0  0  2  0  0  0  0  0  0
    3.3306   -2.7450    7.6219 C   0  0  0  0  0  0  0  0  0  0  0  0
    2.6623   -1.5740    7.7710 C   0  0  0  0  0  0  0  0  0  0  0  0
    3.3581   -0.5656    8.4625 C   0  0  0  0  0  0  0  0  0  0  0  0
    2.8675    0.7587    8.6929 C   0  0  0  0  0  0  0  0  0  0  0  0
    3.2529    1.7726    9.4806 C   0  0  0  0  0  0  0  0  0  0  0  0
    2.6781    2.9725    9.4833 C   0  0  0  0  0  0  0  0  0  0  0  0
    1.6457    3.3077    8.7023 C   0  0  0  0  0  0  0  0  0  0  0  0
    0.6460    4.7306    8.4467 S   0  0  0  0  0  0  0  0  0  0  0  0
   -0.7368    4.7927    9.6373 C   0  0  0  0  0  0  0  0  0  0  0  0
   -0.1123    4.9866   11.0187 C   0  0  0  0  0  0  0  0  0  0  0  0
    1.4034    1.6027    7.7454 Se  0  0  0  0  0  2  0  0  0  0  0  0
    4.6554   -0.8395    8.9187 C   0  0  0  0  0  0  0  0  0  0  0  0
    5.8651    0.1799    9.6142 S   0  0  0  0  0  0  0  0  0  0  0  0
    1.4676   -1.4550    7.1629 C   0  0  0  0  0  0  0  0  0  0  0  0
    1.0242   -2.5225    6.4295 C   0  0  0  0  0  0  0  0  0  0  0  0
    2.2545   -3.6630    6.6194 S   0  0  0  0  0  0  0  0  0  0  0  0
   -0.1270   -2.5894    5.5112 C   0  0  0  0  0  0  0  0  0  0  0  0
   -1.0085   -1.5785    5.1712 C   0  0  0  0  0  0  0  0  0  0  0  0
   -1.8468   -1.8194    4.1388 C   0  0  0  0  0  0  0  0  0  0  0  0
   -2.7287   -0.9210    3.5149 C   0  0  0  0  0  0  0  0  0  0  0  0
   -2.9340    0.4487    3.9261 C   0  0  0  0  0  0  0  0  0  0  0  0
   -2.4591    1.3375    4.7844 C   0  0  0  0  0  0  0  0  0  0  0  0
   -2.9123    2.5866    4.9159 C   0  0  0  0  0  0  0  0  0  0  0  0
   -3.9059    3.0966    4.1915 C   0  0  0  0  0  0  0  0  0  0  0  0
   -4.6882    4.6459    4.0665 S   0  0  0  0  0  0  0  0  0  0  0  0
   -5.9724    4.7425    2.8380 C   0  0  0  0  0  0  0  0  0  0  0  0
   -7.1798    3.9138    3.2081 C   0  0  0  0  0  0  0  0  0  0  0  0
   -4.3088    1.5180    3.0925 Se  0  0  0  0  0  2  0  0  0  0  0  0
   -3.4002   -1.3396    2.3416 C   0  0  0  0  0  0  0  0  0  0  0  0
   -3.2714   -2.5538    1.7458 C   0  0  0  0  0  0  0  0  0  0  0  0
   -2.4206   -3.4417    2.3787 C   0  0  0  0  0  0  0  0  0  0  0  0
   -2.2817   -4.8714    2.0271 C   0  0  0  0  0  0  0  0  0  0  0  0
   -2.9876   -5.7333    1.2936 C   0  0  0  0  0  0  0  0  0  0  0  0
   -2.5920   -6.9891    1.0752 C   0  0  0  0  0  0  0  0  0  0  0  0
   -1.4796   -7.5114    1.5511 C   0  0  0  0  0  0  0  0  0  0  0  0
   -0.5779   -9.0172    1.5844 S   0  0  0  0  0  0  0  0  0  0  0  0
   -1.1009  -10.0200    3.0274 C   0  0  0  0  0  0  0  0  0  0  0  0
   -2.5372  -10.4714    2.9054 C   0  0  0  0  0  0  0  0  0  0  0  0
   -0.8307   -5.8594    2.5406 Se  0  0  0  0  0  2  0  0  0  0  0  0
   -1.7523   -3.0331    3.5338 C   0  0  0  0  0  0  0  0  0  0  0  0
   -0.4944   -3.8174    4.4295 S   0  0  0  0  0  0  0  0  0  0  0  0
   -3.8464   -2.6983    0.5400 C   0  0  0  0  0  0  0  0  0  0  0  0
   -4.5048   -1.6503    0.0048 C   0  0  0  0  0  0  0  0  0  0  0  0
   -4.3250   -0.4402    1.2263 S   0  0  0  0  0  0  0  0  0  0  0  0
   -4.8910   -1.3510   -1.4138 C   0  0  0  0  0  0  0  0  0  0  0  0
   -3.9368   -1.4862   -2.4325 C   0  0  0  0  0  0  0  0  0  0  0  0
   -4.2209   -0.9291   -3.6127 C   0  0  0  0  0  0  0  0  0  0  0  0
   -3.3601   -0.8080   -4.7114 C   0  0  0  0  0  0  0  0  0  0  0  0
   -2.0660   -1.4545   -4.7907 C   0  0  0  0  0  0  0  0  0  0  0  0
   -1.4118   -2.4735   -4.2345 C   0  0  0  0  0  0  0  0  0  0  0  0
   -0.1093   -2.6973   -4.4066 C   0  0  0  0  0  0  0  0  0  0  0  0
    0.6864   -1.9343   -5.1536 C   0  0  0  0  0  0  0  0  0  0  0  0
    2.3934   -1.9222   -5.5537 S   0  0  0  0  0  0  0  0  0  0  0  0
    3.3550   -0.9327   -4.3708 C   0  0  0  0  0  0  0  0  0  0  0  0
    2.9402    0.5079   -4.5075 C   0  0  0  0  0  0  0  0  0  0  0  0
   -0.6112   -0.6115   -5.7722 Se  0  0  0  0  0  2  0  0  0  0  0  0
   -3.7508   -0.0680   -5.8088 C   0  0  0  0  0  0  0  0  0  0  0  0
   -4.9369    0.5842   -5.9499 C   0  0  0  0  0  0  0  0  0  0  0  0
   -5.8067    0.4543   -4.8444 C   0  0  0  0  0  0  0  0  0  0  0  0
   -7.1609    0.9743   -4.8503 C   0  0  0  0  0  0  0  0  0  0  0  0
   -8.0587    1.2037   -3.8688 C   0  0  0  0  0  0  0  0  0  0  0  0
   -9.3028    1.6048   -4.1250 C   0  0  0  0  0  0  0  0  0  0  0  0
   -9.8110    1.8277   -5.3231 C   0  0  0  0  0  0  0  0  0  0  0  0
  -11.3036    2.3565   -6.0624 S   0  0  0  0  0  0  0  0  0  0  0  0
  -11.1363    2.3230   -7.8647 C   0  0  0  0  0  0  0  0  0  0  0  0
  -11.0051    0.8672   -8.3086 C   0  0  0  0  0  0  0  0  0  0  0  0
   -8.1717    1.3734   -6.4229 Se  0  0  0  0  0  2  0  0  0  0  0  0
   -5.4195   -0.2816   -3.7358 C   0  0  0  0  0  0  0  0  0  0  0  0
   -6.0844   -0.5010   -2.1487 S   0  0  0  0  0  0  0  0  0  0  0  0
   -5.0766    1.3567   -7.0555 C   0  0  0  0  0  0  0  0  0  0  0  0
   -4.0432    1.4291   -7.9323 C   0  0  0  0  0  0  0  0  0  0  0  0
   -2.8707    0.4063   -7.2194 S   0  0  0  0  0  0  0  0  0  0  0  0
   -3.8269    2.3059   -9.0957 C   0  0  0  0  0  0  0  0  0  0  0  0
   -4.8843    2.8961   -9.7229 C   0  0  0  0  0  0  0  0  0  0  0  0
   -4.7750    3.8432  -10.6956 C   0  0  0  0  0  0  0  0  0  0  0  0
   -5.8625    4.3185  -11.2103 N   0  0  0  0  0  0  0  0  0  0  0  0
   -7.0394    3.9001  -10.8018 C   0  0  0  0  0  0  0  0  0  0  0  0
   -6.6107    2.7493   -9.6095 S   0  0  0  0  0  0  0  0  0  0  0  0
   -3.4524    4.2432  -11.0756 C   0  0  0  0  0  0  0  0  0  0  0  0
   -2.3879    3.6252  -10.4220 C   0  0  0  0  0  0  0  0  0  0  0  0
   -2.5137    2.6666   -9.4475 C   0  0  0  0  0  0  0  0  0  0  0  0
   -1.4291    2.2071   -8.8910 N   0  0  0  0  0  0  0  0  0  0  0  0
   -0.2492    2.6602   -9.2554 C   0  0  0  0  0  0  0  0  0  0  0  0
   -0.6680    3.7897  -10.4432 S   0  0  0  0  0  0  0  0  0  0  0  0
   -3.2450    5.3616  -11.9193 C   0  0  0  0  0  0  0  0  0  0  0  0
   -2.3517    5.7475  -12.7257 C   0  0  0  0  0  0  0  0  0  0  0  0
   -1.1196    5.1819  -13.1707 C   0  0  0  0  0  0  0  0  0  0  0  0
   -0.0778    6.0707  -13.4034 C   0  0  0  0  0  0  0  0  0  0  0  0
    1.1321    5.8053  -13.9441 C   0  0  0  0  0  0  0  0  0  0  0  0
    1.9846    6.7827  -14.0691 N   0  0  0  0  0  0  0  0  0  0  0  0
    1.6635    7.9997  -13.6768 C   0  0  0  0  0  0  0  0  0  0  0  0
    0.0746    7.7737  -13.0943 S   0  0  0  0  0  0  0  0  0  0  0  0
    1.3518    4.4554  -14.3127 C   0  0  0  0  0  0  0  0  0  0  0  0
    0.3342    3.5487  -14.1001 C   0  0  0  0  0  0  0  0  0  0  0  0
   -0.8954    3.8373  -13.5478 C   0  0  0  0  0  0  0  0  0  0  0  0
   -1.7462    2.8649  -13.4465 N   0  0  0  0  0  0  0  0  0  0  0  0
   -1.4482    1.6503  -13.8490 C   0  0  0  0  0  0  0  0  0  0  0  0
    0.1384    1.8579  -14.4184 S   0  0  0  0  0  0  0  0  0  0  0  0
    2.5775    4.0395  -14.8918 C   0  0  0  0  0  0  0  0  0  0  0  0
    3.0013    2.8296  -15.0470 C   0  0  0  0  0  0  0  0  0  0  0  0
   12.1172   -4.5822    6.6081 H   0  0  0  0  0  0  0  0  0  0  0  0
   13.7599   -3.1723   11.7326 H   0  0  0  0  0  0  0  0  0  0  0  0
    8.2680   -2.6946    4.3048 H   0  0  0  0  0  0  0  0  0  0  0  0
   10.5435   -0.4590   10.3043 H   0  0  0  0  0  0  0  0  0  0  0  0
    8.5774    0.2959   10.7633 H   0  0  0  0  0  0  0  0  0  0  0  0
    7.2870   -2.9186    9.0414 H   0  0  0  0  0  0  0  0  0  0  0  0
    6.4657   -4.7330    9.5578 H   0  0  0  0  0  0  0  0  0  0  0  0
    6.9410   -7.0661    8.9287 H   0  0  0  0  0  0  0  0  0  0  0  0
    4.3700   -9.7841    4.8469 H   0  0  0  0  0  0  0  0  0  0  0  0
    4.4697   -8.0208    4.5774 H   0  0  0  0  0  0  0  0  0  0  0  0
    2.2294   -9.3754    5.4804 H   0  0  0  0  0  0  0  0  0  0  0  0
    2.5306   -7.6728    5.8906 H   0  0  0  0  0  0  0  0  0  0  0  0
    2.9972   -8.9885    7.0572 H   0  0  0  0  0  0  0  0  0  0  0  0
    4.1193    1.5624   10.1938 H   0  0  0  0  0  0  0  0  0  0  0  0
    3.0695    3.7859   10.1957 H   0  0  0  0  0  0  0  0  0  0  0  0
   -1.3024    5.7151    9.4277 H   0  0  0  0  0  0  0  0  0  0  0  0
   -1.3814    3.9275    9.5977 H   0  0  0  0  0  0  0  0  0  0  0  0
   -0.0817    6.0519   11.3037 H   0  0  0  0  0  0  0  0  0  0  0  0
    0.9492    4.6316   10.9996 H   0  0  0  0  0  0  0  0  0  0  0  0
   -0.6918    4.4317   11.7871 H   0  0  0  0  0  0  0  0  0  0  0  0
    0.7953   -0.5710    7.2191 H   0  0  0  0  0  0  0  0  0  0  0  0
   -0.9528   -0.6832    5.8281 H   0  0  0  0  0  0  0  0  0  0  0  0
   -1.5756    1.0224    5.4477 H   0  0  0  0  0  0  0  0  0  0  0  0
   -2.4349    3.2892    5.6931 H   0  0  0  0  0  0  0  0  0  0  0  0
   -6.2450    5.8107    2.7173 H   0  0  0  0  0  0  0  0  0  0  0  0
   -5.6564    4.3812    1.8208 H   0  0  0  0  0  0  0  0  0  0  0  0
   -7.2431    3.7607    4.3116 H   0  0  0  0  0  0  0  0  0  0  0  0
   -8.1250    4.4428    2.9251 H   0  0  0  0  0  0  0  0  0  0  0  0
   -7.2275    2.9329    2.7100 H   0  0  0  0  0  0  0  0  0  0  0  0
   -3.9897   -5.3911    0.8767 H   0  0  0  0  0  0  0  0  0  0  0  0
   -3.2293   -7.7069    0.4397 H   0  0  0  0  0  0  0  0  0  0  0  0
   -1.0099   -9.4289    3.9768 H   0  0  0  0  0  0  0  0  0  0  0  0
   -0.4369  -10.8926    3.1266 H   0  0  0  0  0  0  0  0  0  0  0  0
   -2.7883  -10.7883    1.8679 H   0  0  0  0  0  0  0  0  0  0  0  0
   -3.2569   -9.6593    3.1527 H   0  0  0  0  0  0  0  0  0  0  0  0
   -2.7592  -11.2748    3.6338 H   0  0  0  0  0  0  0  0  0  0  0  0
   -3.8051   -3.6109   -0.0985 H   0  0  0  0  0  0  0  0  0  0  0  0
   -3.0147   -2.0341   -2.1805 H   0  0  0  0  0  0  0  0  0  0  0  0
   -2.0341   -3.2226   -3.6153 H   0  0  0  0  0  0  0  0  0  0  0  0
    0.3884   -3.6011   -3.8868 H   0  0  0  0  0  0  0  0  0  0  0  0
    3.1240   -1.2668   -3.3378 H   0  0  0  0  0  0  0  0  0  0  0  0
    4.4364   -1.1009   -4.6243 H   0  0  0  0  0  0  0  0  0  0  0  0
    3.6883    1.2058   -4.0471 H   0  0  0  0  0  0  0  0  0  0  0  0
    2.8388    0.8293   -5.5728 H   0  0  0  0  0  0  0  0  0  0  0  0
    1.9797    0.6659   -4.0199 H   0  0  0  0  0  0  0  0  0  0  0  0
   -7.6928    1.0596   -2.8020 H   0  0  0  0  0  0  0  0  0  0  0  0
  -10.0106    1.7621   -3.2222 H   0  0  0  0  0  0  0  0  0  0  0  0
  -11.9890    2.8148   -8.3692 H   0  0  0  0  0  0  0  0  0  0  0  0
  -10.2269    2.8512   -8.2233 H   0  0  0  0  0  0  0  0  0  0  0  0
  -10.0060    0.7000   -8.7863 H   0  0  0  0  0  0  0  0  0  0  0  0
  -11.0507    0.2026   -7.4284 H   0  0  0  0  0  0  0  0  0  0  0  0
  -11.8019    0.6656   -9.0470 H   0  0  0  0  0  0  0  0  0  0  0  0
   -5.9986    1.9459   -7.2751 H   0  0  0  0  0  0  0  0  0  0  0  0
   -8.0336    4.2261  -11.1481 H   0  0  0  0  0  0  0  0  0  0  0  0
    0.7325    2.3419   -8.8529 H   0  0  0  0  0  0  0  0  0  0  0  0
   -4.1306    6.1296  -11.8376 H   0  0  0  0  0  0  0  0  0  0  0  0
   -2.5940    6.7970  -13.2248 H   0  0  0  0  0  0  0  0  0  0  0  0
    2.2985    8.9007  -13.7339 H   0  0  0  0  0  0  0  0  0  0  0  0
   -2.0872    0.7386  -13.8122 H   0  0  0  0  0  0  0  0  0  0  0  0
    3.2589    4.8337  -15.2490 H   0  0  0  0  0  0  0  0  0  0  0  0
    2.4818    1.9359  -14.7589 H   0  0  0  0  0  0  0  0  0  0  0  0
    3.9957    2.6295  -15.5155 H   0  0  0  0  0  0  0  0  0  0  0  0
  1  2  2  0
  2  3  1  0
  3  4  1  0
  4  5  2  0
  5  6  1  0
  3  7  2  0
  7  8  1  0
  8  9  2  0
  9 10  1  0
 10 11  2  0
 11 12  1  0
  7 13  1  0
 13 14  2  3
 14 15  1  0
 15 16  2  0
 16 17  1  0
 17 18  2  0
 18 19  1  0
 19 20  2  0
 20 21  1  0
 21 22  2  0
 22 23  1  0
 23 24  1  0
 24 25  1  0
 22 26  1  0
 18 27  1  0
 27 28  2  0
 28 29  1  0
 29 30  1  0
 30 31  2  0
 31 32  1  0
 32 33  2  0
 33 34  1  0
 34 35  1  0
 35 36  1  0
 33 37  1  0
 29 38  2  0
 38 39  1  0
 28 40  1  0
 40 41  2  0
 41 42  1  0
 41 43  1  0
 43 44  2  0
 44 45  1  0
 45 46  2  0
 46 47  1  0
 47 48  2  0
 48 49  1  0
 49 50  2  0
 50 51  1  0
 51 52  1  0
 52 53  1  0
 50 54  1  0
 46 55  1  0
 55 56  2  0
 56 57  1  0
 57 58  1  0
 58 59  2  0
 59 60  1  0
 60 61  2  0
 61 62  1  0
 62 63  1  0
 63 64  1  0
 61 65  1  0
 57 66  2  0
 66 67  1  0
 56 68  1  0
 68 69  2  0
 69 70  1  0
 69 71  1  0
 71 72  2  0
 72 73  1  0
 73 74  2  0
 74 75  1  0
 75 76  2  0
 76 77  1  0
 77 78  2  0
 78 79  1  0
 79 80  1  0
 80 81  1  0
 78 82  1  0
 74 83  1  0
 83 84  2  0
 84 85  1  0
 85 86  1  0
 86 87  2  0
 87 88  1  0
 88 89  2  0
 89 90  1  0
 90 91  1  0
 91 92  1  0
 89 93  1  0
 85 94  2  0
 94 95  1  0
 84 96  1  0
 96 97  2  0
 97 98  1  0
 97 99  1  0
 99100  1  0
100101  2  0
101102  1  0
102103  2  0
103104  1  0
101105  1  0
105106  2  0
106107  1  0
107108  1  0
108109  2  0
109110  1  0
105111  1  0
111112  2  3
112113  1  0
113114  1  0
114115  2  0
115116  1  0
116117  2  0
117118  1  0
115119  1  0
119120  2  0
120121  1  0
121122  1  0
122123  2  0
123124  1  0
119125  1  0
125126  2  3
  9  1  1  0
 39 15  1  0
 67 43  1  0
 95 71  1  0
107 99  2  0
121113  2  0
  6  2  1  0
 12  8  1  0
 38 17  1  0
 66 45  1  0
 94 73  1  0
104100  1  0
110106  1  0
118114  1  0
124120  1  0
 26 19  1  0
 42 27  1  0
 54 47  1  0
 70 55  1  0
 82 75  1  0
 98 83  1  0
 37 30  1  0
 65 58  1  0
 93 86  1  0
  1127  1  0
  5128  1  0
 11129  1  0
 13130  1  0
 14131  1  0
 16132  1  0
 20133  1  0
 21134  1  0
 24135  1  0
 24136  1  0
 25137  1  0
 25138  1  0
 25139  1  0
 31140  1  0
 32141  1  0
 35142  1  0
 35143  1  0
 36144  1  0
 36145  1  0
 36146  1  0
 40147  1  0
 44148  1  0
 48149  1  0
 49150  1  0
 52151  1  0
 52152  1  0
 53153  1  0
 53154  1  0
 53155  1  0
 59156  1  0
 60157  1  0
 63158  1  0
 63159  1  0
 64160  1  0
 64161  1  0
 64162  1  0
 68163  1  0
 72164  1  0
 76165  1  0
 77166  1  0
 80167  1  0
 80168  1  0
 81169  1  0
 81170  1  0
 81171  1  0
 87172  1  0
 88173  1  0
 91174  1  0
 91175  1  0
 92176  1  0
 92177  1  0
 92178  1  0
 96179  1  0
103180  1  0
109181  1  0
111182  1  0
112183  1  0
117184  1  0
123185  1  0
125186  1  0
126187  1  0
126188  1  0
M  END

