
     RDKit          3D

161175  0  0  0  0  0  0  0  0999 V2000
    6.2121    5.0258   12.1261 C   0  0  0  0  0  0  0  0  0  0  0  0
    4.5694    4.5865   12.0686 S   0  0  0  0  0  0  0  0  0  0  0  0
    4.5159    3.9868   10.4555 C   0  0  0  0  0  0  0  0  0  0  0  0
    5.7979    4.1528   10.0198 C   0  0  0  0  0  0  0  0  0  0  0  0
    6.6722    4.6984   10.8971 C   0  0  0  0  0  0  0  0  0  0  0  0
    8.0804    4.9002   10.3690 C   0  0  2  0  0  0  0  0  0  0  0  0
    8.9241    6.1776   11.4020 S   0  0  0  0  0  0  0  0  0  0  0  0
    8.1123    5.4252    8.9760 C   0  0  0  0  0  0  0  0  0  0  0  0
    6.9872    4.9924    8.0870 C   0  0  0  0  0  0  0  0  0  0  0  0
    6.3444    3.7494    8.6692 C   0  0  1  0  0  0  0  0  0  0  0  0
    7.3770    2.8037    8.8892 O   0  0  0  0  0  0  0  0  0  0  0  0
    3.3575    3.4779    9.7069 C   0  0  0  0  0  0  0  0  0  0  0  0
    2.2009    3.4554   10.3105 C   0  0  0  0  0  0  0  0  0  0  0  0
    0.9891    2.9728    9.6477 C   0  0  0  0  0  0  0  0  0  0  0  0
    0.8386    2.3653    8.0736 S   0  0  0  0  0  0  0  0  0  0  0  0
   -0.8495    2.1437    8.0139 C   0  0  0  0  0  0  0  0  0  0  0  0
   -1.2638    2.5615    9.2812 C   0  0  0  0  0  0  0  0  0  0  0  0
   -0.2937    2.9849   10.1067 C   0  0  0  0  0  0  0  0  0  0  0  0
   -0.6853    3.4433   11.5133 C   0  0  2  0  0  0  0  0  0  0  0  0
   -1.0882    1.9379   12.4397 S   0  0  0  0  0  0  0  0  0  0  0  0
   -1.9131    4.2942   11.3404 C   0  0  0  0  0  0  0  0  0  0  0  0
   -3.0073    3.3303   10.9494 C   0  0  0  0  0  0  0  0  0  0  0  0
   -2.7250    2.5668    9.7222 C   0  0  1  0  0  0  0  0  0  0  0  0
   -3.4870    3.1847    8.7048 O   0  0  0  0  0  0  0  0  0  0  0  0
   -1.7054    1.7077    6.9209 C   0  0  0  0  0  0  0  0  0  0  0  0
   -1.4527    1.3367    5.7384 C   0  0  0  0  0  0  0  0  0  0  0  0
   -0.2054    1.1866    5.0118 C   0  0  0  0  0  0  0  0  0  0  0  0
    1.4119    0.9281    5.4618 S   0  0  0  0  0  0  0  0  0  0  0  0
    2.1888    0.9720    3.9503 C   0  0  0  0  0  0  0  0  0  0  0  0
    1.1210    1.2163    3.0877 C   0  0  0  0  0  0  0  0  0  0  0  0
   -0.0879    1.3167    3.6127 C   0  0  0  0  0  0  0  0  0  0  0  0
   -1.2525    1.5052    2.6492 C   0  0  2  0  0  0  0  0  0  0  0  0
   -1.4714   -0.0192    1.6993 S   0  0  0  0  0  0  0  0  0  0  0  0
   -1.0222    2.6554    1.7139 C   0  0  0  0  0  0  0  0  0  0  0  0
    0.4159    2.9468    1.5272 C   0  0  0  0  0  0  0  0  0  0  0  0
    1.2575    1.6372    1.6267 C   0  0  1  0  0  0  0  0  0  0  0  0
    2.5775    2.0745    1.3605 O   0  0  0  0  0  0  0  0  0  0  0  0
    3.6021    0.8383    3.5465 C   0  0  0  0  0  0  0  0  0  0  0  0
    4.0573    0.1088    2.5584 C   0  0  0  0  0  0  0  0  0  0  0  0
    3.2018   -0.7439    1.6901 C   0  0  0  0  0  0  0  0  0  0  0  0
    3.0990   -0.8005   -0.0024 S   0  0  0  0  0  0  0  0  0  0  0  0
    1.9563   -2.0442   -0.1705 C   0  0  0  0  0  0  0  0  0  0  0  0
    1.6694   -2.4205    1.1150 C   0  0  0  0  0  0  0  0  0  0  0  0
    2.3350   -1.7311    2.0843 C   0  0  0  0  0  0  0  0  0  0  0  0
    2.1803   -2.2271    3.5212 C   0  0  2  0  0  0  0  0  0  0  0  0
    3.1081   -3.8404    3.6130 S   0  0  0  0  0  0  0  0  0  0  0  0
    0.7557   -2.6018    3.7608 C   0  0  0  0  0  0  0  0  0  0  0  0
    0.5431   -3.8554    2.9029 C   0  0  0  0  0  0  0  0  0  0  0  0
    0.6871   -3.5283    1.4794 C   0  0  1  0  0  0  0  0  0  0  0  0
   -0.6050   -3.1952    0.9978 O   0  0  0  0  0  0  0  0  0  0  0  0
    1.2770   -2.4981   -1.4177 C   0  0  0  0  0  0  0  0  0  0  0  0
    1.5505   -1.8834   -2.5217 C   0  0  0  0  0  0  0  0  0  0  0  0
    0.9401   -2.2113   -3.8263 C   0  0  0  0  0  0  0  0  0  0  0  0
   -0.0028   -3.1408   -4.1492 C   0  0  0  0  0  0  0  0  0  0  0  0
   -0.5001   -3.1417   -5.4255 C   0  0  0  0  0  0  0  0  0  0  0  0
   -1.5279   -3.8929   -5.9755 C   0  0  0  0  0  0  0  0  0  0  0  0
   -2.0756   -5.0719   -5.3347 C   0  0  0  0  0  0  0  0  0  0  0  0
   -1.7303   -5.9311   -4.3663 C   0  0  0  0  0  0  0  0  0  0  0  0
   -2.5297   -6.9255   -3.9650 C   0  0  0  0  0  0  0  0  0  0  0  0
   -3.7316   -7.1723   -4.4680 C   0  0  0  0  0  0  0  0  0  0  0  0
   -5.0054   -8.3565   -4.2380 S   0  0  0  0  0  0  0  0  0  0  0  0
   -4.4416   -9.5589   -3.0281 C   0  0  0  0  0  0  0  0  0  0  0  0
   -4.2589   -8.9754   -1.6353 C   0  0  0  0  0  0  0  0  0  0  0  0
   -3.8163   -5.7419   -5.7911 Se  0  0  0  0  0  2  0  0  0  0  0  0
   -1.9599   -3.6265   -7.2828 C   0  0  0  0  0  0  0  0  0  0  0  0
   -1.4676   -2.6919   -8.1089 C   0  0  0  0  0  0  0  0  0  0  0  0
   -0.4189   -1.9331   -7.5770 C   0  0  0  0  0  0  0  0  0  0  0  0
    0.3480   -0.9785   -8.3313 C   0  0  0  0  0  0  0  0  0  0  0  0
    0.6247   -0.5898   -9.5501 C   0  0  0  0  0  0  0  0  0  0  0  0
    1.3627    0.4678   -9.9061 C   0  0  0  0  0  0  0  0  0  0  0  0
    1.9250    1.2801   -9.0057 C   0  0  0  0  0  0  0  0  0  0  0  0
    2.9452    2.7217   -9.0235 S   0  0  0  0  0  0  0  0  0  0  0  0
    3.3110    3.2724   -7.3055 C   0  0  0  0  0  0  0  0  0  0  0  0
    4.2404    4.4368   -7.3008 C   0  0  0  0  0  0  0  0  0  0  0  0
    1.3458    0.4552   -7.3112 Se  0  0  0  0  0  2  0  0  0  0  0  0
    0.0109   -2.1907   -6.2630 C   0  0  0  0  0  0  0  0  0  0  0  0
    1.1416   -1.3486   -5.2867 S   0  0  0  0  0  0  0  0  0  0  0  0
   -2.0796   -2.5219   -9.3028 C   0  0  0  0  0  0  0  0  0  0  0  0
   -3.1612   -3.3208   -9.5743 C   0  0  0  0  0  0  0  0  0  0  0  0
   -3.2769   -4.2738   -8.1731 S   0  0  0  0  0  0  0  0  0  0  0  0
   -4.0167   -3.2556  -10.7707 C   0  0  0  0  0  0  0  0  0  0  0  0
   -3.8010   -2.2492  -12.1214 S   0  0  0  0  0  0  0  0  0  0  0  0
   -5.2309   -2.6675  -13.0036 C   0  0  0  0  0  0  0  0  0  0  0  0
   -5.8107   -3.5910  -12.1782 C   0  0  0  0  0  0  0  0  0  0  0  0
   -5.1854   -3.8921  -11.0326 C   0  0  0  0  0  0  0  0  0  0  0  0
   -5.8744   -4.9103  -10.1477 C   0  0  2  0  0  0  0  0  0  0  0  0
   -5.5253   -6.5388  -10.8496 S   0  0  0  0  0  0  0  0  0  0  0  0
   -7.3365   -4.6369   -9.9819 C   0  0  0  0  0  0  0  0  0  0  0  0
   -7.9858   -4.0987  -11.2101 C   0  0  0  0  0  0  0  0  0  0  0  0
   -7.1301   -4.3134  -12.4406 C   0  0  1  0  0  0  0  0  0  0  0  0
   -7.8119   -3.7435  -13.4893 O   0  0  0  0  0  0  0  0  0  0  0  0
   -5.6448   -2.1132  -14.2897 C   0  0  0  0  0  0  0  0  0  0  0  0
   -4.9612   -1.1225  -14.7979 C   0  0  0  0  0  0  0  0  0  0  0  0
    6.7845    5.4785   12.9646 H   0  0  0  0  0  0  0  0  0  0  0  0
    8.6565    3.9648   10.5240 H   0  0  0  0  0  0  0  0  0  0  0  0
   10.2909    5.8474   11.4632 H   0  0  0  0  0  0  0  0  0  0  0  0
    8.2202    6.5404    8.9237 H   0  0  0  0  0  0  0  0  0  0  0  0
    9.0670    5.0450    8.5151 H   0  0  0  0  0  0  0  0  0  0  0  0
    6.2062    5.7452    7.9302 H   0  0  0  0  0  0  0  0  0  0  0  0
    7.3816    4.6853    7.0862 H   0  0  0  0  0  0  0  0  0  0  0  0
    5.5834    3.3088    8.0388 H   0  0  0  0  0  0  0  0  0  0  0  0
    7.2265    2.0751    8.2515 H   0  0  0  0  0  0  0  0  0  0  0  0
    3.4839    3.1526    8.7071 H   0  0  0  0  0  0  0  0  0  0  0  0
    2.1191    3.8123   11.3468 H   0  0  0  0  0  0  0  0  0  0  0  0
    0.1243    3.9891   11.9812 H   0  0  0  0  0  0  0  0  0  0  0  0
   -2.0608    2.1879   13.4262 H   0  0  0  0  0  0  0  0  0  0  0  0
   -1.7225    5.0545   10.5472 H   0  0  0  0  0  0  0  0  0  0  0  0
   -2.1669    4.7469   12.2980 H   0  0  0  0  0  0  0  0  0  0  0  0
   -3.9359    3.9664   10.8499 H   0  0  0  0  0  0  0  0  0  0  0  0
   -3.2166    2.6914   11.8340 H   0  0  0  0  0  0  0  0  0  0  0  0
   -3.1159    1.5359    9.8122 H   0  0  0  0  0  0  0  0  0  0  0  0
   -4.4152    2.8287    8.6747 H   0  0  0  0  0  0  0  0  0  0  0  0
   -2.8073    1.6851    7.1840 H   0  0  0  0  0  0  0  0  0  0  0  0
   -2.3512    1.0328    5.1127 H   0  0  0  0  0  0  0  0  0  0  0  0
   -2.1982    1.6686    3.1921 H   0  0  0  0  0  0  0  0  0  0  0  0
   -1.2747    0.2398    0.3514 H   0  0  0  0  0  0  0  0  0  0  0  0
   -1.5704    3.5408    2.1300 H   0  0  0  0  0  0  0  0  0  0  0  0
   -1.5447    2.4180    0.7569 H   0  0  0  0  0  0  0  0  0  0  0  0
    0.6245    3.4560    0.5638 H   0  0  0  0  0  0  0  0  0  0  0  0
    0.7599    3.6123    2.3638 H   0  0  0  0  0  0  0  0  0  0  0  0
    0.9338    0.9102    0.9313 H   0  0  0  0  0  0  0  0  0  0  0  0
    2.5659    2.6551    0.5588 H   0  0  0  0  0  0  0  0  0  0  0  0
    4.3315    1.4068    4.1371 H   0  0  0  0  0  0  0  0  0  0  0  0
    5.1151    0.1254    2.3510 H   0  0  0  0  0  0  0  0  0  0  0  0
    2.6125   -1.6159    4.2533 H   0  0  0  0  0  0  0  0  0  0  0  0
    2.6430   -4.4896    4.7662 H   0  0  0  0  0  0  0  0  0  0  0  0
    0.0610   -1.8212    3.4632 H   0  0  0  0  0  0  0  0  0  0  0  0
    0.6722   -2.9032    4.8206 H   0  0  0  0  0  0  0  0  0  0  0  0
    1.2612   -4.6497    3.2195 H   0  0  0  0  0  0  0  0  0  0  0  0
   -0.4888   -4.2495    3.0787 H   0  0  0  0  0  0  0  0  0  0  0  0
    0.9587   -4.4296    0.8622 H   0  0  0  0  0  0  0  0  0  0  0  0
   -0.6023   -2.4402    0.3939 H   0  0  0  0  0  0  0  0  0  0  0  0
    0.6007   -3.3126   -1.3943 H   0  0  0  0  0  0  0  0  0  0  0  0
    2.2836   -1.0589   -2.5186 H   0  0  0  0  0  0  0  0  0  0  0  0
   -0.3645   -3.8404   -3.3483 H   0  0  0  0  0  0  0  0  0  0  0  0
   -0.6716   -5.8084   -3.9131 H   0  0  0  0  0  0  0  0  0  0  0  0
   -2.1493   -7.6165   -3.1298 H   0  0  0  0  0  0  0  0  0  0  0  0
   -3.4975  -10.0281   -3.3341 H   0  0  0  0  0  0  0  0  0  0  0  0
   -5.2705  -10.3168   -2.9269 H   0  0  0  0  0  0  0  0  0  0  0  0
   -4.7320   -9.6338   -0.8531 H   0  0  0  0  0  0  0  0  0  0  0  0
   -3.1763   -8.9288   -1.3841 H   0  0  0  0  0  0  0  0  0  0  0  0
   -4.6708   -7.9713   -1.5192 H   0  0  0  0  0  0  0  0  0  0  0  0
    0.2205   -1.2381  -10.4189 H   0  0  0  0  0  0  0  0  0  0  0  0
    1.5599    0.7348  -11.0058 H   0  0  0  0  0  0  0  0  0  0  0  0
    2.3165    3.5566   -6.8707 H   0  0  0  0  0  0  0  0  0  0  0  0
    3.6337    2.3948   -6.7387 H   0  0  0  0  0  0  0  0  0  0  0  0
    3.8983    5.2596   -6.6326 H   0  0  0  0  0  0  0  0  0  0  0  0
    4.4261    4.8248   -8.3190 H   0  0  0  0  0  0  0  0  0  0  0  0
    5.2010    4.0714   -6.8296 H   0  0  0  0  0  0  0  0  0  0  0  0
   -1.7961   -1.7673  -10.0619 H   0  0  0  0  0  0  0  0  0  0  0  0
   -5.4538   -4.9025   -9.1251 H   0  0  0  0  0  0  0  0  0  0  0  0
   -6.6750   -7.3479  -10.8446 H   0  0  0  0  0  0  0  0  0  0  0  0
   -7.5329   -4.0133   -9.0855 H   0  0  0  0  0  0  0  0  0  0  0  0
   -7.8330   -5.6187   -9.7344 H   0  0  0  0  0  0  0  0  0  0  0  0
   -8.1686   -3.0302  -11.0988 H   0  0  0  0  0  0  0  0  0  0  0  0
   -8.9851   -4.5715  -11.3910 H   0  0  0  0  0  0  0  0  0  0  0  0
   -6.9297   -5.3674  -12.6614 H   0  0  0  0  0  0  0  0  0  0  0  0
   -8.7870   -3.8931  -13.4415 H   0  0  0  0  0  0  0  0  0  0  0  0
   -6.4817   -2.5076  -14.7994 H   0  0  0  0  0  0  0  0  0  0  0  0
   -4.1081   -0.7287  -14.2677 H   0  0  0  0  0  0  0  0  0  0  0  0
   -5.2012   -0.6521  -15.7318 H   0  0  0  0  0  0  0  0  0  0  0  0
  1  2  1  0
  2  3  1  0
  3  4  2  0
  4  5  1  0
  5  6  1  0
  6  7  1  0
  6  8  1  0
  8  9  1  0
  9 10  1  0
 10 11  1  0
  3 12  1  0
 12 13  2  3
 13 14  1  0
 14 15  1  0
 15 16  1  0
 16 17  2  0
 17 18  1  0
 18 19  1  0
 19 20  1  0
 19 21  1  0
 21 22  1  0
 22 23  1  0
 23 24  1  0
 16 25  1  0
 25 26  2  3
 26 27  1  0
 27 28  1  0
 28 29  1  0
 29 30  2  0
 30 31  1  0
 31 32  1  0
 32 33  1  0
 32 34  1  0
 34 35  1  0
 35 36  1  0
 36 37  1  0
 29 38  1  0
 38 39  2  3
 39 40  1  0
 40 41  1  0
 41 42  1  0
 42 43  2  0
 43 44  1  0
 44 45  1  0
 45 46  1  0
 45 47  1  0
 47 48  1  0
 48 49  1  0
 49 50  1  0
 42 51  1  0
 51 52  2  3
 52 53  1  0
 53 54  2  0
 54 55  1  0
 55 56  2  0
 56 57  1  0
 57 58  2  0
 58 59  1  0
 59 60  2  0
 60 61  1  0
 61 62  1  0
 62 63  1  0
 60 64  1  0
 56 65  1  0
 65 66  2  0
 66 67  1  0
 67 68  1  0
 68 69  2  0
 69 70  1  0
 70 71  2  0
 71 72  1  0
 72 73  1  0
 73 74  1  0
 71 75  1  0
 67 76  2  0
 76 77  1  0
 66 78  1  0
 78 79  2  0
 79 80  1  0
 79 81  1  0
 81 82  1  0
 82 83  1  0
 83 84  2  0
 84 85  1  0
 85 86  1  0
 86 87  1  0
 86 88  1  0
 88 89  1  0
 89 90  1  0
 90 91  1  0
 83 92  1  0
 92 93  2  3
  5  1  2  0
 18 14  2  0
 31 27  2  0
 44 40  2  0
 77 53  1  0
 85 81  2  0
 10  4  1  0
 23 17  1  0
 36 30  1  0
 49 43  1  0
 76 55  1  0
 90 84  1  0
 64 57  1  0
 80 65  1  0
 75 68  1  0
  1 94  1  0
  6 95  1  6
  7 96  1  0
  8 97  1  0
  8 98  1  0
  9 99  1  0
  9100  1  0
 10101  1  6
 11102  1  0
 12103  1  0
 13104  1  0
 19105  1  1
 20106  1  0
 21107  1  0
 21108  1  0
 22109  1  0
 22110  1  0
 23111  1  1
 24112  1  0
 25113  1  0
 26114  1  0
 32115  1  1
 33116  1  0
 34117  1  0
 34118  1  0
 35119  1  0
 35120  1  0
 36121  1  6
 37122  1  0
 38123  1  0
 39124  1  0
 45125  1  1
 46126  1  0
 47127  1  0
 47128  1  0
 48129  1  0
 48130  1  0
 49131  1  6
 50132  1  0
 51133  1  0
 52134  1  0
 54135  1  0
 58136  1  0
 59137  1  0
 62138  1  0
 62139  1  0
 63140  1  0
 63141  1  0
 63142  1  0
 69143  1  0
 70144  1  0
 73145  1  0
 73146  1  0
 74147  1  0
 74148  1  0
 74149  1  0
 78150  1  0
 86151  1  1
 87152  1  0
 88153  1  0
 88154  1  0
 89155  1  0
 89156  1  0
 90157  1  6
 91158  1  0
 92159  1  0
 93160  1  0
 93161  1  0
M  END

