
     RDKit          3D

136150  0  0  0  0  0  0  0  0999 V2000
    5.5066   -1.6810   11.6631 C   0  0  0  0  0  0  0  0  0  0  0  0
    4.5390   -2.3429   10.4302 S   0  0  0  0  0  0  0  0  0  0  0  0
    4.0226   -0.8992    9.6619 C   0  0  0  0  0  0  0  0  0  0  0  0
    4.6296    0.0670   10.4011 C   0  0  0  0  0  0  0  0  0  0  0  0
    5.4052   -0.3352   11.4451 C   0  0  0  0  0  0  0  0  0  0  0  0
    6.1329    0.6975   12.2950 C   0  0  0  0  0  0  0  0  0  0  0  0
    5.4630    2.0000   12.4130 C   0  0  0  0  0  0  0  0  0  0  0  0
    4.2101    2.1238   11.5530 C   0  0  0  0  0  0  0  0  0  0  0  0
    4.6333    1.5833   10.2099 C   0  0  1  0  0  0  0  0  0  0  0  0
    6.0091    1.9728   10.0854 O   0  0  0  0  0  0  0  0  0  0  0  0
    3.1323   -0.8892    8.5101 C   0  0  0  0  0  0  0  0  0  0  0  0
    2.3340    0.0851    7.9768 C   0  0  0  0  0  0  0  0  0  0  0  0
    1.6117   -0.2165    6.8831 C   0  0  0  0  0  0  0  0  0  0  0  0
    0.7722    0.6368    6.1433 C   0  0  0  0  0  0  0  0  0  0  0  0
    0.4294    1.9718    6.5496 C   0  0  0  0  0  0  0  0  0  0  0  0
    0.5621    2.8452    7.5048 C   0  0  0  0  0  0  0  0  0  0  0  0
    0.0775    4.0917    7.5442 C   0  0  0  0  0  0  0  0  0  0  0  0
   -0.6453    4.5869    6.5208 C   0  0  0  0  0  0  0  0  0  0  0  0
   -1.4410    6.1557    6.2162 S   0  0  0  0  0  0  0  0  0  0  0  0
   -2.3434    6.0999    4.6347 C   0  0  0  0  0  0  0  0  0  0  0  0
   -3.0432    7.3743    4.3118 C   0  0  0  0  0  0  0  0  0  0  0  0
   -0.6661    3.1023    5.2992 Se  0  0  0  0  0  2  0  0  0  0  0  0
    0.1727    0.1241    4.9986 C   0  0  0  0  0  0  0  0  0  0  0  0
    0.3056   -1.1360    4.5068 C   0  0  0  0  0  0  0  0  0  0  0  0
    1.1316   -1.9830    5.2578 C   0  0  0  0  0  0  0  0  0  0  0  0
    1.2570   -3.4051    4.9480 C   0  0  0  0  0  0  0  0  0  0  0  0
    2.1441   -4.3418    5.3067 C   0  0  0  0  0  0  0  0  0  0  0  0
    1.9885   -5.6262    4.9809 C   0  0  0  0  0  0  0  0  0  0  0  0
    0.9802   -6.1156    4.2929 C   0  0  0  0  0  0  0  0  0  0  0  0
    0.4230   -7.6655    3.6580 S   0  0  0  0  0  0  0  0  0  0  0  0
    0.8733   -7.9365    1.9176 C   0  0  0  0  0  0  0  0  0  0  0  0
    0.0822   -6.9565    1.0361 C   0  0  0  0  0  0  0  0  0  0  0  0
   -0.0255   -4.4162    3.9994 Se  0  0  0  0  0  2  0  0  0  0  0  0
    1.7305   -1.4888    6.3808 C   0  0  0  0  0  0  0  0  0  0  0  0
    2.8427   -2.2053    7.4643 S   0  0  0  0  0  0  0  0  0  0  0  0
   -0.2804   -1.4098    3.3302 C   0  0  0  0  0  0  0  0  0  0  0  0
   -0.9774   -0.4034    2.6927 C   0  0  0  0  0  0  0  0  0  0  0  0
   -0.7854    0.8784    3.7816 S   0  0  0  0  0  0  0  0  0  0  0  0
   -1.5537   -0.4487    1.3295 C   0  0  0  0  0  0  0  0  0  0  0  0
   -1.4153   -1.6750    0.1553 S   0  0  0  0  0  0  0  0  0  0  0  0
   -2.2195   -0.8811   -1.1704 C   0  0  0  0  0  0  0  0  0  0  0  0
   -2.5544    0.2905   -0.6089 C   0  0  0  0  0  0  0  0  0  0  0  0
   -2.2099    0.5167    0.6848 C   0  0  0  0  0  0  0  0  0  0  0  0
   -2.6166    1.8765    1.2157 C   0  0  0  0  0  0  0  0  0  0  0  0
   -2.0781    2.9827    0.2984 C   0  0  0  0  0  0  0  0  0  0  0  0
   -2.4380    2.7028   -1.1340 C   0  0  0  0  0  0  0  0  0  0  0  0
   -3.3276    1.4588   -1.1815 C   0  0  1  0  0  0  0  0  0  0  0  0
   -3.7660    1.2777   -2.4375 O   0  0  0  0  0  0  0  0  0  0  0  0
   -2.2839   -1.3785   -2.5538 C   0  0  0  0  0  0  0  0  0  0  0  0
   -2.6006   -0.4924   -3.9575 S   0  0  0  0  0  0  0  0  0  0  0  0
   -2.4133   -1.6934   -5.1326 C   0  0  0  0  0  0  0  0  0  0  0  0
   -2.1038   -2.7968   -4.3778 C   0  0  0  0  0  0  0  0  0  0  0  0
   -2.0385   -2.6270   -3.0466 C   0  0  0  0  0  0  0  0  0  0  0  0
   -1.7097   -3.8521   -2.2187 C   0  0  0  0  0  0  0  0  0  0  0  0
   -0.4836   -4.4658   -2.9188 C   0  0  0  0  0  0  0  0  0  0  0  0
   -1.0607   -5.1005   -4.1620 C   0  0  0  0  0  0  0  0  0  0  0  0
   -1.8440   -4.1588   -4.9857 C   0  0  1  0  0  0  0  0  0  0  0  0
   -3.0748   -4.7661   -5.3248 O   0  0  0  0  0  0  0  0  0  0  0  0
   -2.4524   -1.5139   -6.5990 C   0  0  0  0  0  0  0  0  0  0  0  0
   -2.0782   -2.6171   -7.8202 S   0  0  0  0  0  0  0  0  0  0  0  0
   -2.1761   -1.5861   -9.1781 C   0  0  0  0  0  0  0  0  0  0  0  0
   -2.5141   -0.3895   -8.6229 C   0  0  0  0  0  0  0  0  0  0  0  0
   -2.6625   -0.3441   -7.2883 C   0  0  0  0  0  0  0  0  0  0  0  0
   -3.1286    0.9622   -6.7160 C   0  0  0  0  0  0  0  0  0  0  0  0
   -4.2983    1.5358   -7.4990 C   0  0  0  0  0  0  0  0  0  0  0  0
   -4.0742    1.5453   -8.9691 C   0  0  0  0  0  0  0  0  0  0  0  0
   -2.7465    0.9161   -9.3534 C   0  0  1  0  0  0  0  0  0  0  0  0
   -1.7794    1.8608   -8.9847 O   0  0  0  0  0  0  0  0  0  0  0  0
   -1.7519   -1.9635  -10.5546 C   0  0  0  0  0  0  0  0  0  0  0  0
   -2.1359   -3.3574  -11.4479 S   0  0  0  0  0  0  0  0  0  0  0  0
   -1.1225   -3.1198  -12.7855 C   0  0  0  0  0  0  0  0  0  0  0  0
   -0.4721   -1.9117  -12.5053 C   0  0  0  0  0  0  0  0  0  0  0  0
   -0.8066   -1.3266  -11.3485 C   0  0  0  0  0  0  0  0  0  0  0  0
   -0.0720   -0.0751  -10.8651 C   0  0  0  0  0  0  0  0  0  0  0  0
    1.3248   -0.0991  -11.4852 C   0  0  0  0  0  0  0  0  0  0  0  0
    1.1726   -0.0925  -12.9885 C   0  0  0  0  0  0  0  0  0  0  0  0
    0.5521   -1.3231  -13.4566 C   0  0  1  0  0  0  0  0  0  0  0  0
    1.5717   -2.2908  -13.6238 O   0  0  0  0  0  0  0  0  0  0  0  0
    6.0848   -2.1998   12.4631 H   0  0  0  0  0  0  0  0  0  0  0  0
    7.1471    0.8579   11.8095 H   0  0  0  0  0  0  0  0  0  0  0  0
    6.3730    0.3169   13.2959 H   0  0  0  0  0  0  0  0  0  0  0  0
    5.2101    2.2917   13.4472 H   0  0  0  0  0  0  0  0  0  0  0  0
    6.1472    2.8316   12.0586 H   0  0  0  0  0  0  0  0  0  0  0  0
    3.4298    1.5382   12.0527 H   0  0  0  0  0  0  0  0  0  0  0  0
    3.9507    3.2011   11.5196 H   0  0  0  0  0  0  0  0  0  0  0  0
    4.1620    1.9400    9.3418 H   0  0  0  0  0  0  0  0  0  0  0  0
    5.9685    2.9555    9.9450 H   0  0  0  0  0  0  0  0  0  0  0  0
    2.3530    1.0404    8.4976 H   0  0  0  0  0  0  0  0  0  0  0  0
    1.1241    2.5171    8.4435 H   0  0  0  0  0  0  0  0  0  0  0  0
    0.2404    4.8075    8.4256 H   0  0  0  0  0  0  0  0  0  0  0  0
   -1.6051    5.9037    3.8247 H   0  0  0  0  0  0  0  0  0  0  0  0
   -3.0374    5.2356    4.6407 H   0  0  0  0  0  0  0  0  0  0  0  0
   -4.1406    7.2234    4.3137 H   0  0  0  0  0  0  0  0  0  0  0  0
   -2.8232    7.7147    3.2528 H   0  0  0  0  0  0  0  0  0  0  0  0
   -2.7942    8.2328    4.9417 H   0  0  0  0  0  0  0  0  0  0  0  0
    3.0570   -4.0057    5.8883 H   0  0  0  0  0  0  0  0  0  0  0  0
    2.7787   -6.4019    5.3118 H   0  0  0  0  0  0  0  0  0  0  0  0
    0.6469   -8.9786    1.6161 H   0  0  0  0  0  0  0  0  0  0  0  0
    1.9511   -7.7856    1.7921 H   0  0  0  0  0  0  0  0  0  0  0  0
   -0.3499   -7.4464    0.1500 H   0  0  0  0  0  0  0  0  0  0  0  0
   -0.7578   -6.5125    1.6530 H   0  0  0  0  0  0  0  0  0  0  0  0
    0.7097   -6.1059    0.7423 H   0  0  0  0  0  0  0  0  0  0  0  0
   -0.2434   -2.3845    2.7910 H   0  0  0  0  0  0  0  0  0  0  0  0
   -2.1676    2.0775    2.1810 H   0  0  0  0  0  0  0  0  0  0  0  0
   -3.6977    1.9663    1.3072 H   0  0  0  0  0  0  0  0  0  0  0  0
   -0.9926    3.1037    0.4246 H   0  0  0  0  0  0  0  0  0  0  0  0
   -2.5662    3.9186    0.6185 H   0  0  0  0  0  0  0  0  0  0  0  0
   -1.5875    2.5222   -1.7944 H   0  0  0  0  0  0  0  0  0  0  0  0
   -3.0526    3.5300   -1.5701 H   0  0  0  0  0  0  0  0  0  0  0  0
   -4.2403    1.6380   -0.5394 H   0  0  0  0  0  0  0  0  0  0  0  0
   -4.6631    1.6383   -2.6418 H   0  0  0  0  0  0  0  0  0  0  0  0
   -2.5049   -4.6026   -2.3010 H   0  0  0  0  0  0  0  0  0  0  0  0
   -1.3833   -3.6297   -1.2192 H   0  0  0  0  0  0  0  0  0  0  0  0
   -0.0136   -5.2459   -2.2972 H   0  0  0  0  0  0  0  0  0  0  0  0
    0.2271   -3.6798   -3.2288 H   0  0  0  0  0  0  0  0  0  0  0  0
   -0.2225   -5.5825   -4.6945 H   0  0  0  0  0  0  0  0  0  0  0  0
   -1.6845   -5.9708   -3.7882 H   0  0  0  0  0  0  0  0  0  0  0  0
   -1.3150   -4.0684   -5.9615 H   0  0  0  0  0  0  0  0  0  0  0  0
   -3.8173   -4.1351   -5.0736 H   0  0  0  0  0  0  0  0  0  0  0  0
   -3.5158    0.8366   -5.6750 H   0  0  0  0  0  0  0  0  0  0  0  0
   -2.3101    1.6776   -6.6379 H   0  0  0  0  0  0  0  0  0  0  0  0
   -5.1941    0.9038   -7.2202 H   0  0  0  0  0  0  0  0  0  0  0  0
   -4.5002    2.5420   -7.0547 H   0  0  0  0  0  0  0  0  0  0  0  0
   -3.9723    2.6307   -9.2736 H   0  0  0  0  0  0  0  0  0  0  0  0
   -4.9373    1.1276   -9.4826 H   0  0  0  0  0  0  0  0  0  0  0  0
   -2.7544    0.7900  -10.4200 H   0  0  0  0  0  0  0  0  0  0  0  0
   -0.9965    1.5027   -8.5291 H   0  0  0  0  0  0  0  0  0  0  0  0
   -0.9679   -3.7414  -13.6889 H   0  0  0  0  0  0  0  0  0  0  0  0
    0.0794   -0.0895   -9.7769 H   0  0  0  0  0  0  0  0  0  0  0  0
   -0.5285    0.8432  -11.1837 H   0  0  0  0  0  0  0  0  0  0  0  0
    1.8996   -0.9507  -11.1565 H   0  0  0  0  0  0  0  0  0  0  0  0
    1.8435    0.8339  -11.1945 H   0  0  0  0  0  0  0  0  0  0  0  0
    2.1986   -0.0082  -13.4223 H   0  0  0  0  0  0  0  0  0  0  0  0
    0.6299    0.8375  -13.2962 H   0  0  0  0  0  0  0  0  0  0  0  0
    0.0827   -1.2348  -14.4727 H   0  0  0  0  0  0  0  0  0  0  0  0
    2.4517   -1.7958  -13.6715 H   0  0  0  0  0  0  0  0  0  0  0  0
  1  2  1  0
  2  3  1  0
  3  4  2  0
  4  5  1  0
  5  6  1  0
  6  7  1  0
  7  8  1  0
  8  9  1  0
  9 10  1  0
  3 11  1  0
 11 12  2  0
 12 13  1  0
 13 14  2  0
 14 15  1  0
 15 16  2  0
 16 17  1  0
 17 18  2  0
 18 19  1  0
 19 20  1  0
 20 21  1  0
 18 22  1  0
 14 23  1  0
 23 24  2  0
 24 25  1  0
 25 26  1  0
 26 27  2  0
 27 28  1  0
 28 29  2  0
 29 30  1  0
 30 31  1  0
 31 32  1  0
 29 33  1  0
 25 34  2  0
 34 35  1  0
 24 36  1  0
 36 37  2  0
 37 38  1  0
 37 39  1  0
 39 40  1  0
 40 41  1  0
 41 42  2  0
 42 43  1  0
 43 44  1  0
 44 45  1  0
 45 46  1  0
 46 47  1  0
 47 48  1  0
 41 49  1  0
 49 50  1  0
 50 51  1  0
 51 52  2  0
 52 53  1  0
 53 54  1  0
 54 55  1  0
 55 56  1  0
 56 57  1  0
 57 58  1  0
 51 59  1  0
 59 60  1  0
 60 61  1  0
 61 62  2  0
 62 63  1  0
 63 64  1  0
 64 65  1  0
 65 66  1  0
 66 67  1  0
 67 68  1  0
 61 69  1  0
 69 70  1  0
 70 71  1  0
 71 72  2  0
 72 73  1  0
 73 74  1  0
 74 75  1  0
 75 76  1  0
 76 77  1  0
 77 78  1  0
  5  1  2  0
 35 11  1  0
 43 39  2  0
 53 49  2  0
 63 59  2  0
 73 69  2  0
  9  4  1  0
 34 13  1  0
 47 42  1  0
 57 52  1  0
 67 62  1  0
 77 72  1  0
 22 15  1  0
 38 23  1  0
 33 26  1  0
  1 79  1  0
  6 80  1  0
  6 81  1  0
  7 82  1  0
  7 83  1  0
  8 84  1  0
  8 85  1  0
  9 86  1  6
 10 87  1  0
 12 88  1  0
 16 89  1  0
 17 90  1  0
 20 91  1  0
 20 92  1  0
 21 93  1  0
 21 94  1  0
 21 95  1  0
 27 96  1  0
 28 97  1  0
 31 98  1  0
 31 99  1  0
 32100  1  0
 32101  1  0
 32102  1  0
 36103  1  0
 44104  1  0
 44105  1  0
 45106  1  0
 45107  1  0
 46108  1  0
 46109  1  0
 47110  1  1
 48111  1  0
 54112  1  0
 54113  1  0
 55114  1  0
 55115  1  0
 56116  1  0
 56117  1  0
 57118  1  6
 58119  1  0
 64120  1  0
 64121  1  0
 65122  1  0
 65123  1  0
 66124  1  0
 66125  1  0
 67126  1  6
 68127  1  0
 71128  1  0
 74129  1  0
 74130  1  0
 75131  1  0
 75132  1  0
 76133  1  0
 76134  1  0
 77135  1  6
 78136  1  0
M  END

