
     RDKit          3D

170187  0  0  0  0  0  0  0  0999 V2000
    7.7476   -1.6057   -6.9626 C   0  0  0  0  0  0  0  0  0  0  0  0
    8.4199   -1.4932   -5.7566 C   0  0  0  0  0  0  0  0  0  0  0  0
    7.7202   -1.7036   -4.6134 C   0  0  0  0  0  0  0  0  0  0  0  0
    8.1918   -1.6321   -3.3032 C   0  0  0  0  0  0  0  0  0  0  0  0
    9.5547   -1.3898   -2.8929 C   0  0  0  0  0  0  0  0  0  0  0  0
   10.7762   -1.4804   -3.4577 C   0  0  0  0  0  0  0  0  0  0  0  0
   11.9085   -1.0745   -2.8498 C   0  0  0  0  0  0  0  0  0  0  0  0
   11.9009   -0.5464   -1.6254 C   0  0  0  0  0  0  0  0  0  0  0  0
   13.1616    0.0495   -0.5796 S   0  0  0  0  0  0  0  0  0  0  0  0
   12.4097    0.7387    0.9073 C   0  0  0  0  0  0  0  0  0  0  0  0
   11.7513   -0.3112    1.7962 C   0  0  0  0  0  0  0  0  0  0  0  0
    9.9833   -0.6141   -1.2028 Se  0  0  0  0  0  2  0  0  0  0  0  0
    7.2900   -1.8549   -2.2392 C   0  0  0  0  0  0  0  0  0  0  0  0
    5.9841   -2.1104   -2.4005 C   0  0  0  0  0  0  0  0  0  0  0  0
    5.4821   -2.2041   -3.6950 C   0  0  0  0  0  0  0  0  0  0  0  0
    4.1282   -2.3244   -4.0891 C   0  0  0  0  0  0  0  0  0  0  0  0
    3.4450   -2.7462   -5.1372 C   0  0  0  0  0  0  0  0  0  0  0  0
    2.1375   -2.6364   -5.3301 C   0  0  0  0  0  0  0  0  0  0  0  0
    1.3164   -2.0497   -4.4167 C   0  0  0  0  0  0  0  0  0  0  0  0
   -0.4139   -1.7563   -4.2744 S   0  0  0  0  0  0  0  0  0  0  0  0
   -1.3245   -2.4270   -5.6117 C   0  0  0  0  0  0  0  0  0  0  0  0
   -1.1192   -1.8163   -6.9796 C   0  0  0  0  0  0  0  0  0  0  0  0
    2.6502   -1.5781   -3.0571 Se  0  0  0  0  0  2  0  0  0  0  0  0
    6.3869   -2.0032   -4.7691 C   0  0  0  0  0  0  0  0  0  0  0  0
    6.1600   -1.9931   -6.4655 S   0  0  0  0  0  0  0  0  0  0  0  0
    5.2549   -2.3429   -1.2814 C   0  0  0  0  0  0  0  0  0  0  0  0
    5.9272   -2.2991   -0.0538 C   0  0  0  0  0  0  0  0  0  0  0  0
    7.4860   -1.9389   -0.5223 S   0  0  0  0  0  0  0  0  0  0  0  0
    5.1925   -2.5800    1.2148 C   0  0  0  0  0  0  0  0  0  0  0  0
    3.4983   -2.5395    1.2202 S   0  0  0  0  0  0  0  0  0  0  0  0
    3.2142   -3.2404    2.8951 C   0  0  0  0  0  0  0  0  0  0  0  0
    4.4008   -3.4009    3.2315 C   0  0  0  0  0  0  0  0  0  0  0  0
    5.5143   -3.0924    2.4589 C   0  0  0  0  0  0  0  0  0  0  0  0
    6.8473   -3.2392    2.7763 O   0  0  0  0  0  0  0  0  0  0  0  0
    7.6221   -4.3828    2.6694 C   0  0  0  0  0  0  0  0  0  0  0  0
    4.7243   -4.0235    4.5886 C   0  0  0  0  0  0  0  0  0  0  0  0
    4.9683   -4.4970    5.6595 N   0  0  0  0  0  0  0  0  0  0  0  0
    1.7776   -3.5389    3.1520 C   0  0  0  0  0  0  0  0  0  0  0  0
    1.1161   -4.5685    2.4467 C   0  0  0  0  0  0  0  0  0  0  0  0
   -0.1909   -4.4288    2.2805 C   0  0  0  0  0  0  0  0  0  0  0  0
   -0.9811   -5.2085    1.2703 C   0  0  0  0  0  0  0  0  0  0  0  0
   -0.2988   -6.2731    0.6354 C   0  0  0  0  0  0  0  0  0  0  0  0
    0.9680   -6.4407    0.1605 C   0  0  0  0  0  0  0  0  0  0  0  0
    1.4719   -7.6712   -0.0748 C   0  0  0  0  0  0  0  0  0  0  0  0
    0.8453   -8.8200    0.1115 C   0  0  0  0  0  0  0  0  0  0  0  0
    1.2992  -10.5387    0.0004 S   0  0  0  0  0  0  0  0  0  0  0  0
    2.1321  -10.9093    1.6013 C   0  0  0  0  0  0  0  0  0  0  0  0
    1.1370  -10.8244    2.7334 C   0  0  0  0  0  0  0  0  0  0  0  0
   -0.8724   -8.1975    0.7499 Se  0  0  0  0  0  2  0  0  0  0  0  0
   -2.2270   -4.7979    0.9672 C   0  0  0  0  0  0  0  0  0  0  0  0
   -2.8440   -3.7243    1.5327 C   0  0  0  0  0  0  0  0  0  0  0  0
   -2.0791   -2.9730    2.5263 C   0  0  0  0  0  0  0  0  0  0  0  0
   -2.7332   -1.9149    3.2676 C   0  0  0  0  0  0  0  0  0  0  0  0
   -2.4207   -0.9150    4.0801 C   0  0  0  0  0  0  0  0  0  0  0  0
   -3.3078   -0.0974    4.6585 C   0  0  0  0  0  0  0  0  0  0  0  0
   -4.6151   -0.1780    4.5098 C   0  0  0  0  0  0  0  0  0  0  0  0
   -6.1549    0.5610    4.9608 S   0  0  0  0  0  0  0  0  0  0  0  0
   -6.7372    1.7936    3.7459 C   0  0  0  0  0  0  0  0  0  0  0  0
   -8.1830    2.0541    4.0857 C   0  0  0  0  0  0  0  0  0  0  0  0
   -4.6593   -1.7671    3.2676 Se  0  0  0  0  0  2  0  0  0  0  0  0
   -0.8336   -3.3756    2.8001 C   0  0  0  0  0  0  0  0  0  0  0  0
    0.5296   -2.5201    3.5533 S   0  0  0  0  0  0  0  0  0  0  0  0
   -3.8746   -3.1781    0.9067 C   0  0  0  0  0  0  0  0  0  0  0  0
   -4.2662   -3.7550   -0.3624 C   0  0  0  0  0  0  0  0  0  0  0  0
   -3.2121   -4.9773   -0.5048 S   0  0  0  0  0  0  0  0  0  0  0  0
   -5.0982   -2.7528   -1.1805 C   0  0  0  0  0  0  0  0  0  0  0  0
   -4.2543   -1.1766   -1.3411 S   0  0  0  0  0  0  0  0  0  0  0  0
   -5.6097   -0.2036   -1.9313 C   0  0  0  0  0  0  0  0  0  0  0  0
   -6.5371   -1.1554   -1.9677 C   0  0  0  0  0  0  0  0  0  0  0  0
   -6.2526   -2.4428   -1.5917 C   0  0  0  0  0  0  0  0  0  0  0  0
   -7.3212   -3.4162   -1.6924 O   0  0  0  0  0  0  0  0  0  0  0  0
   -7.6352   -3.9536   -2.9322 C   0  0  0  0  0  0  0  0  0  0  0  0
   -7.9106   -0.6441   -2.1509 C   0  0  0  0  0  0  0  0  0  0  0  0
   -9.0362   -0.2126   -2.2840 N   0  0  0  0  0  0  0  0  0  0  0  0
   -5.2562    1.1861   -2.1522 C   0  0  0  0  0  0  0  0  0  0  0  0
   -4.3105    1.9075   -0.8371 S   0  0  0  0  0  0  0  0  0  0  0  0
   -3.8091    3.3888   -1.6228 C   0  0  0  0  0  0  0  0  0  0  0  0
   -4.3184    3.2409   -2.6876 C   0  0  0  0  0  0  0  0  0  0  0  0
   -5.1694    2.0999   -3.2157 C   0  0  0  0  0  0  0  0  0  0  0  0
   -5.5830    1.9958   -4.2920 O   0  0  0  0  0  0  0  0  0  0  0  0
   -5.7566    1.7401   -5.6098 C   0  0  0  0  0  0  0  0  0  0  0  0
   -3.9108    4.0084   -3.9920 C   0  0  0  0  0  0  0  0  0  0  0  0
   -3.5887    4.6254   -5.0200 N   0  0  0  0  0  0  0  0  0  0  0  0
   -3.2206    4.4433   -0.7035 C   0  0  0  0  0  0  0  0  0  0  0  0
   -3.4564    5.7965   -0.6946 C   0  0  0  0  0  0  0  0  0  0  0  0
   -3.1172    6.4275    0.4692 C   0  0  0  0  0  0  0  0  0  0  0  0
   -3.4670    7.7566    0.8080 C   0  0  0  0  0  0  0  0  0  0  0  0
   -3.8161    8.7351   -0.2008 C   0  0  0  0  0  0  0  0  0  0  0  0
   -4.3182    9.9901   -0.2258 C   0  0  0  0  0  0  0  0  0  0  0  0
   -4.4163   10.7017   -1.3639 C   0  0  0  0  0  0  0  0  0  0  0  0
   -4.0395   10.2473   -2.5332 C   0  0  0  0  0  0  0  0  0  0  0  0
   -3.9448   10.8147   -4.2426 S   0  0  0  0  0  0  0  0  0  0  0  0
   -3.1005    9.4688   -5.1838 C   0  0  0  0  0  0  0  0  0  0  0  0
   -1.7055    9.2924   -4.7058 C   0  0  0  0  0  0  0  0  0  0  0  0
   -3.3965    8.4577   -2.0634 Se  0  0  0  0  0  2  0  0  0  0  0  0
   -3.2555    8.2120    2.1075 C   0  0  0  0  0  0  0  0  0  0  0  0
   -2.7119    7.4845    3.1035 C   0  0  0  0  0  0  0  0  0  0  0  0
   -2.3490    6.1598    2.7715 C   0  0  0  0  0  0  0  0  0  0  0  0
   -1.7913    5.2280    3.7070 C   0  0  0  0  0  0  0  0  0  0  0  0
   -1.3124    4.0255    3.7644 C   0  0  0  0  0  0  0  0  0  0  0  0
   -0.8829    3.3391    4.8314 C   0  0  0  0  0  0  0  0  0  0  0  0
   -0.9372    3.9445    6.0502 C   0  0  0  0  0  0  0  0  0  0  0  0
   -0.5654    3.4812    7.7185 S   0  0  0  0  0  0  0  0  0  0  0  0
   -0.7345    5.0167    8.7590 C   0  0  0  0  0  0  0  0  0  0  0  0
    0.3641    5.9445    8.3669 C   0  0  0  0  0  0  0  0  0  0  0  0
   -1.6924    5.6597    5.5876 Se  0  0  0  0  0  2  0  0  0  0  0  0
   -2.5912    5.7273    1.4679 C   0  0  0  0  0  0  0  0  0  0  0  0
   -2.5499    4.1278    0.8083 S   0  0  0  0  0  0  0  0  0  0  0  0
   -2.6086    8.0325    4.3287 C   0  0  0  0  0  0  0  0  0  0  0  0
   -3.0988    9.3545    4.4326 C   0  0  0  0  0  0  0  0  0  0  0  0
   -3.6331    9.6990    2.8870 S   0  0  0  0  0  0  0  0  0  0  0  0
    8.1719   -1.4551   -7.9321 H   0  0  0  0  0  0  0  0  0  0  0  0
    9.4718   -1.1760   -5.8031 H   0  0  0  0  0  0  0  0  0  0  0  0
   10.8412   -1.9863   -4.4591 H   0  0  0  0  0  0  0  0  0  0  0  0
   12.9054   -1.1206   -3.3978 H   0  0  0  0  0  0  0  0  0  0  0  0
   11.6674    1.5076    0.6056 H   0  0  0  0  0  0  0  0  0  0  0  0
   13.2192    1.1728    1.5737 H   0  0  0  0  0  0  0  0  0  0  0  0
   11.4310    0.1359    2.7699 H   0  0  0  0  0  0  0  0  0  0  0  0
   10.8914   -0.7177    1.2380 H   0  0  0  0  0  0  0  0  0  0  0  0
   12.4300   -1.1542    2.0182 H   0  0  0  0  0  0  0  0  0  0  0  0
    4.0784   -3.2752   -5.9341 H   0  0  0  0  0  0  0  0  0  0  0  0
    1.6229   -3.0394   -6.2591 H   0  0  0  0  0  0  0  0  0  0  0  0
   -1.2533   -3.5380   -5.6994 H   0  0  0  0  0  0  0  0  0  0  0  0
   -2.4400   -2.2891   -5.3654 H   0  0  0  0  0  0  0  0  0  0  0  0
   -0.1020   -1.4243   -7.1405 H   0  0  0  0  0  0  0  0  0  0  0  0
   -1.9028   -1.1078   -7.2506 H   0  0  0  0  0  0  0  0  0  0  0  0
   -1.2603   -2.6652   -7.7269 H   0  0  0  0  0  0  0  0  0  0  0  0
    4.1835   -2.5674   -1.3013 H   0  0  0  0  0  0  0  0  0  0  0  0
    7.0153   -5.2064    2.2694 H   0  0  0  0  0  0  0  0  0  0  0  0
    8.0149   -4.7151    3.7105 H   0  0  0  0  0  0  0  0  0  0  0  0
    8.5515   -4.3173    2.0978 H   0  0  0  0  0  0  0  0  0  0  0  0
    1.7744   -5.4158    2.1712 H   0  0  0  0  0  0  0  0  0  0  0  0
    1.5581   -5.5223   -0.0478 H   0  0  0  0  0  0  0  0  0  0  0  0
    2.5814   -7.7115   -0.4603 H   0  0  0  0  0  0  0  0  0  0  0  0
    2.8412  -10.0507    1.7934 H   0  0  0  0  0  0  0  0  0  0  0  0
    2.6897  -11.8447    1.6100 H   0  0  0  0  0  0  0  0  0  0  0  0
    1.2988  -11.5912    3.4782 H   0  0  0  0  0  0  0  0  0  0  0  0
    0.1221  -10.8804    2.3065 H   0  0  0  0  0  0  0  0  0  0  0  0
    1.1740   -9.8219    3.2878 H   0  0  0  0  0  0  0  0  0  0  0  0
   -1.3003   -0.7705    4.2977 H   0  0  0  0  0  0  0  0  0  0  0  0
   -2.9390    0.7480    5.3107 H   0  0  0  0  0  0  0  0  0  0  0  0
   -6.6746    1.3346    2.7278 H   0  0  0  0  0  0  0  0  0  0  0  0
   -6.1208    2.6881    3.7103 H   0  0  0  0  0  0  0  0  0  0  0  0
   -8.3168    2.5611    5.0457 H   0  0  0  0  0  0  0  0  0  0  0  0
   -8.7341    1.0713    4.1360 H   0  0  0  0  0  0  0  0  0  0  0  0
   -8.6434    2.6663    3.3121 H   0  0  0  0  0  0  0  0  0  0  0  0
   -4.5102   -2.3583    1.2664 H   0  0  0  0  0  0  0  0  0  0  0  0
   -8.5634   -3.4451   -3.3698 H   0  0  0  0  0  0  0  0  0  0  0  0
   -6.8468   -4.0057   -3.6728 H   0  0  0  0  0  0  0  0  0  0  0  0
   -7.9800   -5.0259   -2.7962 H   0  0  0  0  0  0  0  0  0  0  0  0
   -6.2432    2.5808   -6.1892 H   0  0  0  0  0  0  0  0  0  0  0  0
   -6.6350    0.9647   -5.7714 H   0  0  0  0  0  0  0  0  0  0  0  0
   -4.9420    1.2464   -6.2096 H   0  0  0  0  0  0  0  0  0  0  0  0
   -3.8607    6.2565   -1.5724 H   0  0  0  0  0  0  0  0  0  0  0  0
   -4.6184   10.4252    0.7435 H   0  0  0  0  0  0  0  0  0  0  0  0
   -4.8508   11.7696   -1.3349 H   0  0  0  0  0  0  0  0  0  0  0  0
   -3.0746    9.6820   -6.2525 H   0  0  0  0  0  0  0  0  0  0  0  0
   -3.6972    8.5373   -5.0014 H   0  0  0  0  0  0  0  0  0  0  0  0
   -1.3866   10.1319   -4.0833 H   0  0  0  0  0  0  0  0  0  0  0  0
   -1.0422    9.0926   -5.5428 H   0  0  0  0  0  0  0  0  0  0  0  0
   -1.7284    8.3632   -4.0697 H   0  0  0  0  0  0  0  0  0  0  0  0
   -1.1791    3.4694    2.7456 H   0  0  0  0  0  0  0  0  0  0  0  0
   -0.5241    2.2634    4.7984 H   0  0  0  0  0  0  0  0  0  0  0  0
   -0.8106    4.8514    9.8174 H   0  0  0  0  0  0  0  0  0  0  0  0
   -1.7029    5.5173    8.3220 H   0  0  0  0  0  0  0  0  0  0  0  0
    1.2528    5.3690    7.8821 H   0  0  0  0  0  0  0  0  0  0  0  0
    0.0430    6.7015    7.6245 H   0  0  0  0  0  0  0  0  0  0  0  0
    0.7480    6.4696    9.2798 H   0  0  0  0  0  0  0  0  0  0  0  0
   -2.2021    7.6372    5.2659 H   0  0  0  0  0  0  0  0  0  0  0  0
   -3.0857    9.9195    5.3841 H   0  0  0  0  0  0  0  0  0  0  0  0
  1  2  2  0
  2  3  1  0
  3  4  2  0
  4  5  1  0
  5  6  2  0
  6  7  1  0
  7  8  2  0
  8  9  1  0
  9 10  1  0
 10 11  1  0
  8 12  1  0
  4 13  1  0
 13 14  2  0
 14 15  1  0
 15 16  1  0
 16 17  2  0
 17 18  1  0
 18 19  2  0
 19 20  1  0
 20 21  1  0
 21 22  1  0
 19 23  1  0
 15 24  2  0
 24 25  1  0
 14 26  1  0
 26 27  2  0
 27 28  1  0
 27 29  1  0
 29 30  1  0
 30 31  1  0
 31 32  2  0
 32 33  1  0
 33 34  1  0
 34 35  1  0
 32 36  1  0
 36 37  3  0
 31 38  1  0
 38 39  2  0
 39 40  1  0
 40 41  2  0
 41 42  1  0
 42 43  2  0
 43 44  1  0
 44 45  2  0
 45 46  1  0
 46 47  1  0
 47 48  1  0
 45 49  1  0
 41 50  1  0
 50 51  2  0
 51 52  1  0
 52 53  1  0
 53 54  2  0
 54 55  1  0
 55 56  2  0
 56 57  1  0
 57 58  1  0
 58 59  1  0
 56 60  1  0
 52 61  2  0
 61 62  1  0
 51 63  1  0
 63 64  2  0
 64 65  1  0
 64 66  1  0
 66 67  1  0
 67 68  1  0
 68 69  2  0
 69 70  1  0
 70 71  1  0
 71 72  1  0
 69 73  1  0
 73 74  3  0
 68 75  1  0
 75 76  1  0
 76 77  1  0
 77 78  2  0
 78 79  1  0
 79 80  1  0
 80 81  1  0
 78 82  1  0
 82 83  3  0
 77 84  1  0
 84 85  2  0
 85 86  1  0
 86 87  2  0
 87 88  1  0
 88 89  2  0
 89 90  1  0
 90 91  2  0
 91 92  1  0
 92 93  1  0
 93 94  1  0
 91 95  1  0
 87 96  1  0
 96 97  2  0
 97 98  1  0
 98 99  1  0
 99100  2  0
100101  1  0
101102  2  0
102103  1  0
103104  1  0
104105  1  0
102106  1  0
 98107  2  0
107108  1  0
 97109  1  0
109110  2  0
110111  1  0
 25  1  1  0
 33 29  2  0
 62 38  1  0
 70 66  2  0
 79 75  2  0
108 84  1  0
 24  3  1  0
 61 40  1  0
107 86  1  0
 12  5  1  0
 28 13  1  0
 49 42  1  0
 65 50  1  0
 95 88  1  0
111 96  1  0
 23 16  1  0
 60 53  1  0
106 99  1  0
  1112  1  0
  2113  1  0
  6114  1  0
  7115  1  0
 10116  1  0
 10117  1  0
 11118  1  0
 11119  1  0
 11120  1  0
 17121  1  0
 18122  1  0
 21123  1  0
 21124  1  0
 22125  1  0
 22126  1  0
 22127  1  0
 26128  1  0
 35129  1  0
 35130  1  0
 35131  1  0
 39132  1  0
 43133  1  0
 44134  1  0
 47135  1  0
 47136  1  0
 48137  1  0
 48138  1  0
 48139  1  0
 54140  1  0
 55141  1  0
 58142  1  0
 58143  1  0
 59144  1  0
 59145  1  0
 59146  1  0
 63147  1  0
 72148  1  0
 72149  1  0
 72150  1  0
 81151  1  0
 81152  1  0
 81153  1  0
 85154  1  0
 89155  1  0
 90156  1  0
 93157  1  0
 93158  1  0
 94159  1  0
 94160  1  0
 94161  1  0
100162  1  0
101163  1  0
104164  1  0
104165  1  0
105166  1  0
105167  1  0
105168  1  0
109169  1  0
110170  1  0
M  END

