
     RDKit          3D

136150  0  0  0  0  0  0  0  0999 V2000
    0.4219  -12.3662    7.9065 C   0  0  0  0  0  0  0  0  0  0  0  0
   -0.2982  -11.2749    8.3043 N   0  0  0  0  0  0  0  0  0  0  0  0
   -0.7996  -10.5092    7.4380 N   0  0  0  0  0  0  0  0  0  0  0  0
   -0.8097  -10.4883    6.0991 C   0  0  0  0  0  0  0  0  0  0  0  0
   -0.0342  -11.6281    5.6312 C   0  0  0  0  0  0  0  0  0  0  0  0
    0.5669  -12.0019    4.3801 C   0  0  0  0  0  0  0  0  0  0  0  0
    0.4125  -11.4876    3.2562 O   0  0  0  0  0  0  0  0  0  0  0  0
    1.4734  -13.1268    4.5537 N   0  0  0  0  0  0  0  0  0  0  0  0
    2.2602  -13.7618    3.5122 C   0  0  0  0  0  0  0  0  0  0  0  0
    3.6369  -13.1055    3.4208 C   0  0  0  0  0  0  0  0  0  0  0  0
    1.4624  -13.4606    5.9050 C   0  0  0  0  0  0  0  0  0  0  0  0
    2.1120  -14.3785    6.4424 O   0  0  0  0  0  0  0  0  0  0  0  0
    0.5363  -12.5073    6.5422 C   0  0  0  0  0  0  0  0  0  0  0  0
   -0.9478   -9.3389    5.2905 C   0  0  0  0  0  0  0  0  0  0  0  0
   -0.8212   -8.0901    5.9151 N   0  0  0  0  0  0  0  0  0  0  0  0
   -1.1059   -6.9865    5.3968 N   0  0  0  0  0  0  0  0  0  0  0  0
   -1.5889   -6.7889    4.1583 C   0  0  0  0  0  0  0  0  0  0  0  0
   -1.7800   -7.9886    3.4591 C   0  0  0  0  0  0  0  0  0  0  0  0
   -2.5286   -8.2115    2.2209 C   0  0  0  0  0  0  0  0  0  0  0  0
   -2.9671   -7.3408    1.4227 O   0  0  0  0  0  0  0  0  0  0  0  0
   -2.6839   -9.5999    2.0599 N   0  0  0  0  0  0  0  0  0  0  0  0
   -3.3685  -10.2862    0.9723 C   0  0  0  0  0  0  0  0  0  0  0  0
   -2.4368  -10.6227   -0.1419 C   0  0  0  0  0  0  0  0  0  0  0  0
   -2.0581  -10.2682    3.1444 C   0  0  0  0  0  0  0  0  0  0  0  0
   -2.0470  -11.5029    3.3029 O   0  0  0  0  0  0  0  0  0  0  0  0
   -1.4687   -9.2395    4.0187 C   0  0  0  0  0  0  0  0  0  0  0  0
   -1.6809   -5.4809    3.5714 C   0  0  0  0  0  0  0  0  0  0  0  0
   -2.1715   -5.2760    2.3505 N   0  0  0  0  0  0  0  0  0  0  0  0
   -2.0807   -4.1318    1.7521 N   0  0  0  0  0  0  0  0  0  0  0  0
   -1.5437   -3.0004    2.1293 C   0  0  0  0  0  0  0  0  0  0  0  0
   -1.0013   -3.1233    3.4736 C   0  0  0  0  0  0  0  0  0  0  0  0
   -0.5516   -2.1055    4.4049 C   0  0  0  0  0  0  0  0  0  0  0  0
   -0.3585   -0.8692    4.2642 O   0  0  0  0  0  0  0  0  0  0  0  0
   -0.3388   -2.7430    5.6715 N   0  0  0  0  0  0  0  0  0  0  0  0
    0.0963   -2.0612    6.8620 C   0  0  0  0  0  0  0  0  0  0  0  0
   -1.1512   -1.6195    7.6028 C   0  0  0  0  0  0  0  0  0  0  0  0
   -0.6643   -4.1227    5.5139 C   0  0  0  0  0  0  0  0  0  0  0  0
   -0.5749   -4.9573    6.4564 O   0  0  0  0  0  0  0  0  0  0  0  0
   -1.0875   -4.3277    4.1211 C   0  0  0  0  0  0  0  0  0  0  0  0
   -1.6951   -1.6308    1.7418 C   0  0  0  0  0  0  0  0  0  0  0  0
   -2.4901   -0.9261    1.0144 N   0  0  0  0  0  0  0  0  0  0  0  0
   -2.4005    0.1012    0.2516 N   0  0  0  0  0  0  0  0  0  0  0  0
   -1.1680    0.6786    0.1003 C   0  0  0  0  0  0  0  0  0  0  0  0
   -0.1553    0.0815    0.7732 C   0  0  0  0  0  0  0  0  0  0  0  0
    1.2941    0.2930    0.5898 C   0  0  0  0  0  0  0  0  0  0  0  0
    1.8726    1.1788   -0.0669 O   0  0  0  0  0  0  0  0  0  0  0  0
    1.9871   -0.7361    1.3167 N   0  0  0  0  0  0  0  0  0  0  0  0
    3.4118   -0.8551    1.3661 C   0  0  0  0  0  0  0  0  0  0  0  0
    3.9881   -0.0237    2.4922 C   0  0  0  0  0  0  0  0  0  0  0  0
    0.9704   -1.5610    1.9284 C   0  0  0  0  0  0  0  0  0  0  0  0
    1.3769   -2.5393    2.6032 O   0  0  0  0  0  0  0  0  0  0  0  0
   -0.3121   -1.0134    1.5728 C   0  0  0  0  0  0  0  0  0  0  0  0
   -1.1433    1.8953   -0.6976 C   0  0  0  0  0  0  0  0  0  0  0  0
   -0.2358    2.9009   -0.7753 C   0  0  0  0  0  0  0  0  0  0  0  0
   -0.4721    3.9321   -1.6248 C   0  0  0  0  0  0  0  0  0  0  0  0
    0.3670    4.9906   -1.9269 C   0  0  0  0  0  0  0  0  0  0  0  0
    1.6014    5.2774   -1.2198 C   0  0  0  0  0  0  0  0  0  0  0  0
    2.1818    4.9935   -0.0551 C   0  0  0  0  0  0  0  0  0  0  0  0
    3.4508    5.3064    0.2352 C   0  0  0  0  0  0  0  0  0  0  0  0
    4.2508    5.9336   -0.6208 C   0  0  0  0  0  0  0  0  0  0  0  0
    5.9390    6.4467   -0.5424 S   0  0  0  0  0  0  0  0  0  0  0  0
    6.4953    7.2282   -2.0658 C   0  0  0  0  0  0  0  0  0  0  0  0
    6.5054    6.2771   -3.2461 C   0  0  0  0  0  0  0  0  0  0  0  0
    3.0730    6.1590   -2.1227 Se  0  0  0  0  0  2  0  0  0  0  0  0
   -0.0126    5.9011   -2.9149 C   0  0  0  0  0  0  0  0  0  0  0  0
   -1.1658    5.8645   -3.6385 C   0  0  0  0  0  0  0  0  0  0  0  0
   -2.0163    4.7890   -3.3204 C   0  0  0  0  0  0  0  0  0  0  0  0
   -3.3407    4.6887   -3.8650 C   0  0  0  0  0  0  0  0  0  0  0  0
   -4.2923    3.7710   -4.0431 C   0  0  0  0  0  0  0  0  0  0  0  0
   -5.5191    4.0557   -4.4895 C   0  0  0  0  0  0  0  0  0  0  0  0
   -5.9332    5.2683   -4.8098 C   0  0  0  0  0  0  0  0  0  0  0  0
   -7.3997    6.0330   -5.4567 S   0  0  0  0  0  0  0  0  0  0  0  0
   -7.1486    6.3096   -7.2309 C   0  0  0  0  0  0  0  0  0  0  0  0
   -7.0039    5.0243   -7.9795 C   0  0  0  0  0  0  0  0  0  0  0  0
   -4.3121    6.3293   -4.4319 Se  0  0  0  0  0  2  0  0  0  0  0  0
   -1.6298    3.8802   -2.3445 C   0  0  0  0  0  0  0  0  0  0  0  0
   -2.3460    2.4153   -1.8248 S   0  0  0  0  0  0  0  0  0  0  0  0
   -1.3280    6.7939   -4.5947 C   0  0  0  0  0  0  0  0  0  0  0  0
   -0.3140    7.7110   -4.7680 C   0  0  0  0  0  0  0  0  0  0  0  0
    0.8158    7.2365   -3.5877 S   0  0  0  0  0  0  0  0  0  0  0  0
   -0.2604    8.7656   -5.8032 C   0  0  0  0  0  0  0  0  0  0  0  0
   -1.3237    8.9793   -6.5644 N   0  0  0  0  0  0  0  0  0  0  0  0
   -1.2919    9.9173   -7.5137 N   0  0  0  0  0  0  0  0  0  0  0  0
   -0.2110   10.6662   -7.7330 C   0  0  0  0  0  0  0  0  0  0  0  0
    0.9208   10.4920   -6.9758 C   0  0  0  0  0  0  0  0  0  0  0  0
    2.2448   11.1285   -6.9900 C   0  0  0  0  0  0  0  0  0  0  0  0
    2.5882   12.0444   -7.7659 O   0  0  0  0  0  0  0  0  0  0  0  0
    3.0556   10.5414   -6.0005 N   0  0  0  0  0  0  0  0  0  0  0  0
    4.4310   10.8191   -5.6260 C   0  0  0  0  0  0  0  0  0  0  0  0
    5.3986    9.9644   -6.3729 C   0  0  0  0  0  0  0  0  0  0  0  0
    2.2185    9.5395   -5.3766 C   0  0  0  0  0  0  0  0  0  0  0  0
    2.6341    8.8139   -4.4454 O   0  0  0  0  0  0  0  0  0  0  0  0
    0.8970    9.5012   -5.9698 C   0  0  0  0  0  0  0  0  0  0  0  0
    0.8520  -13.0395    8.6442 H   0  0  0  0  0  0  0  0  0  0  0  0
    1.7860  -13.7043    2.5346 H   0  0  0  0  0  0  0  0  0  0  0  0
    2.4205  -14.8216    3.7451 H   0  0  0  0  0  0  0  0  0  0  0  0
    4.4386  -13.8494    3.2494 H   0  0  0  0  0  0  0  0  0  0  0  0
    3.6967  -12.3422    2.6378 H   0  0  0  0  0  0  0  0  0  0  0  0
    3.8831  -12.6503    4.4169 H   0  0  0  0  0  0  0  0  0  0  0  0
   -4.1671   -9.5982    0.5581 H   0  0  0  0  0  0  0  0  0  0  0  0
   -3.9078  -11.1883    1.3146 H   0  0  0  0  0  0  0  0  0  0  0  0
   -2.9055  -10.3127   -1.1092 H   0  0  0  0  0  0  0  0  0  0  0  0
   -2.3463  -11.7463   -0.1638 H   0  0  0  0  0  0  0  0  0  0  0  0
   -1.4276  -10.2050    0.0031 H   0  0  0  0  0  0  0  0  0  0  0  0
    0.6129   -1.1276    6.5667 H   0  0  0  0  0  0  0  0  0  0  0  0
    0.7386   -2.7313    7.4561 H   0  0  0  0  0  0  0  0  0  0  0  0
   -1.2656   -0.5356    7.6495 H   0  0  0  0  0  0  0  0  0  0  0  0
   -2.0646   -2.0562    7.1745 H   0  0  0  0  0  0  0  0  0  0  0  0
   -1.0729   -2.0072    8.6315 H   0  0  0  0  0  0  0  0  0  0  0  0
    3.8305   -0.4728    0.4138 H   0  0  0  0  0  0  0  0  0  0  0  0
    3.7146   -1.9132    1.5812 H   0  0  0  0  0  0  0  0  0  0  0  0
    5.0761    0.1317    2.2673 H   0  0  0  0  0  0  0  0  0  0  0  0
    3.5477    0.9900    2.4631 H   0  0  0  0  0  0  0  0  0  0  0  0
    3.9401   -0.5337    3.4502 H   0  0  0  0  0  0  0  0  0  0  0  0
    0.6499    2.8786   -0.1024 H   0  0  0  0  0  0  0  0  0  0  0  0
    1.5345    4.5075    0.7541 H   0  0  0  0  0  0  0  0  0  0  0  0
    3.8846    5.0314    1.2554 H   0  0  0  0  0  0  0  0  0  0  0  0
    5.8848    8.1366   -2.2403 H   0  0  0  0  0  0  0  0  0  0  0  0
    7.5344    7.5744   -1.8729 H   0  0  0  0  0  0  0  0  0  0  0  0
    6.1772    6.9027   -4.1279 H   0  0  0  0  0  0  0  0  0  0  0  0
    7.5560    5.9831   -3.4683 H   0  0  0  0  0  0  0  0  0  0  0  0
    5.8643    5.4195   -3.0548 H   0  0  0  0  0  0  0  0  0  0  0  0
   -4.0007    2.6897   -3.7756 H   0  0  0  0  0  0  0  0  0  0  0  0
   -6.2818    3.2030   -4.6105 H   0  0  0  0  0  0  0  0  0  0  0  0
   -6.1736    6.8514   -7.3283 H   0  0  0  0  0  0  0  0  0  0  0  0
   -7.9430    6.9616   -7.6614 H   0  0  0  0  0  0  0  0  0  0  0  0
   -7.9726    4.6432   -8.3698 H   0  0  0  0  0  0  0  0  0  0  0  0
   -6.5519    4.2107   -7.3920 H   0  0  0  0  0  0  0  0  0  0  0  0
   -6.3287    5.1748   -8.8729 H   0  0  0  0  0  0  0  0  0  0  0  0
   -2.2009    6.8610   -5.2764 H   0  0  0  0  0  0  0  0  0  0  0  0
   -0.1455   11.4452   -8.5063 H   0  0  0  0  0  0  0  0  0  0  0  0
    4.5202   10.5612   -4.5268 H   0  0  0  0  0  0  0  0  0  0  0  0
    4.6784   11.9058   -5.6782 H   0  0  0  0  0  0  0  0  0  0  0  0
    4.9195    9.0828   -6.7935 H   0  0  0  0  0  0  0  0  0  0  0  0
    5.9845   10.5455   -7.1220 H   0  0  0  0  0  0  0  0  0  0  0  0
    6.1705    9.6185   -5.6301 H   0  0  0  0  0  0  0  0  0  0  0  0
  1  2  2  0
  2  3  1  0
  3  4  2  0
  4  5  1  0
  5  6  1  0
  6  7  2  0
  6  8  1  0
  8  9  1  0
  9 10  1  0
  8 11  1  0
 11 12  2  0
 11 13  1  0
  4 14  1  0
 14 15  2  0
 15 16  1  0
 16 17  2  0
 17 18  1  0
 18 19  1  0
 19 20  2  0
 19 21  1  0
 21 22  1  0
 22 23  1  0
 21 24  1  0
 24 25  2  0
 24 26  1  0
 17 27  1  0
 27 28  2  0
 28 29  1  0
 29 30  2  0
 30 31  1  0
 31 32  1  0
 32 33  2  0
 32 34  1  0
 34 35  1  0
 35 36  1  0
 34 37  1  0
 37 38  2  0
 37 39  1  0
 30 40  1  0
 40 41  2  0
 41 42  1  0
 42 43  2  0
 43 44  1  0
 44 45  1  0
 45 46  2  0
 45 47  1  0
 47 48  1  0
 48 49  1  0
 47 50  1  0
 50 51  2  0
 50 52  1  0
 43 53  1  0
 53 54  2  0
 54 55  1  0
 55 56  2  0
 56 57  1  0
 57 58  2  0
 58 59  1  0
 59 60  2  0
 60 61  1  0
 61 62  1  0
 62 63  1  0
 60 64  1  0
 56 65  1  0
 65 66  2  0
 66 67  1  0
 67 68  1  0
 68 69  2  0
 69 70  1  0
 70 71  2  0
 71 72  1  0
 72 73  1  0
 73 74  1  0
 71 75  1  0
 67 76  2  0
 76 77  1  0
 66 78  1  0
 78 79  2  0
 79 80  1  0
 79 81  1  0
 81 82  2  0
 82 83  1  0
 83 84  2  0
 84 85  1  0
 85 86  1  0
 86 87  2  0
 86 88  1  0
 88 89  1  0
 89 90  1  0
 88 91  1  0
 91 92  2  0
 91 93  1  0
 13  1  1  0
 26 14  1  0
 39 27  1  0
 52 40  1  0
 77 53  1  0
 93 81  1  0
 13  5  2  0
 26 18  2  0
 39 31  2  0
 52 44  2  0
 76 55  1  0
 93 85  2  0
 64 57  1  0
 80 65  1  0
 75 68  1  0
  1 94  1  0
  9 95  1  0
  9 96  1  0
 10 97  1  0
 10 98  1  0
 10 99  1  0
 22100  1  0
 22101  1  0
 23102  1  0
 23103  1  0
 23104  1  0
 35105  1  0
 35106  1  0
 36107  1  0
 36108  1  0
 36109  1  0
 48110  1  0
 48111  1  0
 49112  1  0
 49113  1  0
 49114  1  0
 54115  1  0
 58116  1  0
 59117  1  0
 62118  1  0
 62119  1  0
 63120  1  0
 63121  1  0
 63122  1  0
 69123  1  0
 70124  1  0
 73125  1  0
 73126  1  0
 74127  1  0
 74128  1  0
 74129  1  0
 78130  1  0
 84131  1  0
 89132  1  0
 89133  1  0
 90134  1  0
 90135  1  0
 90136  1  0
M  END

