
     RDKit          3D

296325  0  0  0  0  0  0  0  0999 V2000
   -1.9288   -8.4381   10.8563 C   0  0  0  0  0  0  0  0  0  0  0  0
   -1.3338   -7.5963    9.9537 C   0  0  0  0  0  0  0  0  0  0  0  0
   -1.9393   -7.4455    8.7651 C   0  0  0  0  0  0  0  0  0  0  0  0
   -1.5057   -6.6374    7.6856 C   0  0  0  0  0  0  0  0  0  0  0  0
   -0.3284   -5.8107    7.8790 C   0  0  0  0  0  0  0  0  0  0  0  0
    0.9520   -6.3224    7.8619 C   0  0  0  0  0  0  0  0  0  0  0  0
    2.0725   -5.6066    8.1298 C   0  0  0  0  0  0  0  0  0  0  0  0
    1.9469   -4.2608    8.4421 C   0  0  0  0  0  0  0  0  0  0  0  0
    3.4115   -3.3141    8.8534 S   0  0  0  0  0  0  0  0  0  0  0  0
    4.8533   -4.4158    8.9937 C   0  0  0  0  0  0  0  0  0  0  0  0
    4.7954   -5.3172   10.1978 C   0  0  0  0  0  0  0  0  0  0  0  0
    0.6996   -3.7002    8.4702 C   0  0  0  0  0  0  0  0  0  0  0  0
    0.5600   -2.3858    8.7997 F   0  0  0  0  0  0  0  0  0  0  0  0
   -0.4547   -4.4469    8.1922 C   0  0  0  0  0  0  0  0  0  0  0  0
   -2.2276   -6.5908    6.5222 C   0  0  0  0  0  0  0  0  0  0  0  0
   -3.3968   -7.2859    6.2959 C   0  0  0  0  0  0  0  0  0  0  0  0
   -3.8295   -8.0837    7.3467 C   0  0  0  0  0  0  0  0  0  0  0  0
   -4.9611   -8.9793    7.3637 C   0  0  0  0  0  0  0  0  0  0  0  0
   -4.7930  -10.3351    7.0586 C   0  0  0  0  0  0  0  0  0  0  0  0
   -5.8668  -11.1500    7.1913 C   0  0  0  0  0  0  0  0  0  0  0  0
   -7.1323  -10.7199    7.6124 C   0  0  0  0  0  0  0  0  0  0  0  0
   -8.4229  -11.9327    7.8079 S   0  0  0  0  0  0  0  0  0  0  0  0
   -9.2497  -12.1649    6.2208 C   0  0  0  0  0  0  0  0  0  0  0  0
  -10.3233  -13.2566    6.3488 C   0  0  0  0  0  0  0  0  0  0  0  0
   -7.2925   -9.3906    7.9059 C   0  0  0  0  0  0  0  0  0  0  0  0
   -6.1883   -8.5462    7.7716 C   0  0  0  0  0  0  0  0  0  0  0  0
   -8.4849   -8.9225    8.3113 F   0  0  0  0  0  0  0  0  0  0  0  0
   -3.0797   -8.1287    8.5394 C   0  0  0  0  0  0  0  0  0  0  0  0
   -3.3092   -8.9846   10.0034 S   0  0  0  0  0  0  0  0  0  0  0  0
   -4.0172   -7.1059    5.1154 C   0  0  0  0  0  0  0  0  0  0  0  0
   -3.4676   -6.2679    4.2280 C   0  0  0  0  0  0  0  0  0  0  0  0
   -2.0389   -5.7188    5.0599 S   0  0  0  0  0  0  0  0  0  0  0  0
   -3.9949   -5.6379    2.9872 C   0  0  0  0  0  0  0  0  0  0  0  0
   -3.2440   -5.0636    2.0008 C   0  0  0  0  0  0  0  0  0  0  0  0
   -3.9005   -4.4041    1.0065 C   0  0  0  0  0  0  0  0  0  0  0  0
   -3.3386   -3.5787    0.0095 C   0  0  0  0  0  0  0  0  0  0  0  0
   -1.9596   -3.5242   -0.3393 C   0  0  0  0  0  0  0  0  0  0  0  0
   -1.1257   -2.8494   -1.1129 C   0  0  0  0  0  0  0  0  0  0  0  0
    0.1896   -3.0918   -1.2327 C   0  0  0  0  0  0  0  0  0  0  0  0
    0.8170   -4.0653   -0.5682 C   0  0  0  0  0  0  0  0  0  0  0  0
    2.4986   -4.6078   -0.4757 S   0  0  0  0  0  0  0  0  0  0  0  0
    2.5754   -6.0774    0.5988 C   0  0  0  0  0  0  0  0  0  0  0  0
    2.2296   -5.7873    2.0287 C   0  0  0  0  0  0  0  0  0  0  0  0
   -0.6466   -4.8496    0.4488 Se  0  0  0  0  0  2  0  0  0  0  0  0
   -4.1841   -2.7901   -0.7712 C   0  0  0  0  0  0  0  0  0  0  0  0
   -5.5243   -2.7344   -0.6726 C   0  0  0  0  0  0  0  0  0  0  0  0
   -6.1105   -3.5876    0.3029 C   0  0  0  0  0  0  0  0  0  0  0  0
   -7.5065   -3.6701    0.5332 C   0  0  0  0  0  0  0  0  0  0  0  0
   -8.6879   -3.1446    0.2330 C   0  0  0  0  0  0  0  0  0  0  0  0
   -9.8727   -3.5897    0.6425 C   0  0  0  0  0  0  0  0  0  0  0  0
  -10.0833   -4.6417    1.4243 C   0  0  0  0  0  0  0  0  0  0  0  0
  -11.4668   -5.4566    2.1120 S   0  0  0  0  0  0  0  0  0  0  0  0
  -12.0202   -6.7692    0.9971 C   0  0  0  0  0  0  0  0  0  0  0  0
  -11.0274   -7.9070    0.9560 C   0  0  0  0  0  0  0  0  0  0  0  0
   -8.1928   -5.2121    1.7053 Se  0  0  0  0  0  2  0  0  0  0  0  0
   -5.2623   -4.3772    1.0910 C   0  0  0  0  0  0  0  0  0  0  0  0
   -5.5825   -5.2851    2.5373 S   0  0  0  0  0  0  0  0  0  0  0  0
   -6.1582   -1.7034   -1.2790 C   0  0  0  0  0  0  0  0  0  0  0  0
   -5.4139   -0.7782   -1.9398 C   0  0  0  0  0  0  0  0  0  0  0  0
   -3.8051   -1.3912   -1.7423 S   0  0  0  0  0  0  0  0  0  0  0  0
   -5.6779    0.7375   -1.9999 C   0  0  0  0  0  0  0  0  0  0  0  0
   -5.0400    1.7563   -2.5159 C   0  0  0  0  0  0  0  0  0  0  0  0
   -5.1860    3.0104   -1.9032 C   0  0  0  0  0  0  0  0  0  0  0  0
   -4.3757    4.1147   -2.0552 C   0  0  0  0  0  0  0  0  0  0  0  0
   -3.4129    4.3997   -3.1038 C   0  0  0  0  0  0  0  0  0  0  0  0
   -2.0626    4.2161   -2.9180 C   0  0  0  0  0  0  0  0  0  0  0  0
   -1.1736    4.6214   -3.8618 C   0  0  0  0  0  0  0  0  0  0  0  0
   -1.5952    5.2265   -5.0403 C   0  0  0  0  0  0  0  0  0  0  0  0
   -0.4199    5.8460   -6.2296 S   0  0  0  0  0  0  0  0  0  0  0  0
    0.2016    4.6022   -7.3538 C   0  0  0  0  0  0  0  0  0  0  0  0
    1.0701    3.5844   -6.6423 C   0  0  0  0  0  0  0  0  0  0  0  0
   -2.9466    5.4106   -5.2483 C   0  0  0  0  0  0  0  0  0  0  0  0
   -3.3597    6.0129   -6.4088 F   0  0  0  0  0  0  0  0  0  0  0  0
   -3.8502    4.9950   -4.2783 C   0  0  0  0  0  0  0  0  0  0  0  0
   -4.4087    5.1551   -1.0563 C   0  0  0  0  0  0  0  0  0  0  0  0
   -5.1828    5.1437    0.0461 C   0  0  0  0  0  0  0  0  0  0  0  0
   -6.0430    4.0630    0.1706 C   0  0  0  0  0  0  0  0  0  0  0  0
   -7.1019    3.8729    1.1142 C   0  0  0  0  0  0  0  0  0  0  0  0
   -8.3986    3.8312    0.5301 C   0  0  0  0  0  0  0  0  0  0  0  0
   -9.5272    3.6191    1.2515 C   0  0  0  0  0  0  0  0  0  0  0  0
   -9.4827    3.4254    2.6303 C   0  0  0  0  0  0  0  0  0  0  0  0
  -10.9781    3.1007    3.5471 S   0  0  0  0  0  0  0  0  0  0  0  0
  -11.8793    4.6403    3.9008 C   0  0  0  0  0  0  0  0  0  0  0  0
  -12.3772    5.2551    2.6039 C   0  0  0  0  0  0  0  0  0  0  0  0
   -8.2310    3.4630    3.2036 C   0  0  0  0  0  0  0  0  0  0  0  0
   -7.0613    3.6845    2.4434 C   0  0  0  0  0  0  0  0  0  0  0  0
   -8.1336    3.2677    4.5272 F   0  0  0  0  0  0  0  0  0  0  0  0
   -5.9969    3.0348   -0.8255 C   0  0  0  0  0  0  0  0  0  0  0  0
   -6.5655    1.4439   -0.6507 S   0  0  0  0  0  0  0  0  0  0  0  0
   -4.7558    5.9898    1.0826 C   0  0  0  0  0  0  0  0  0  0  0  0
   -3.6830    6.7090    0.9587 C   0  0  0  0  0  0  0  0  0  0  0  0
   -3.1841    6.2738   -0.7162 S   0  0  0  0  0  0  0  0  0  0  0  0
   -2.4603    7.0462    1.8734 C   0  0  0  0  0  0  0  0  0  0  0  0
   -1.4055    7.7977    1.6677 C   0  0  0  0  0  0  0  0  0  0  0  0
   -0.1901    7.4175    2.2403 C   0  0  0  0  0  0  0  0  0  0  0  0
    1.0688    7.8403    1.7610 C   0  0  0  0  0  0  0  0  0  0  0  0
    1.3283    9.0573    1.0477 C   0  0  0  0  0  0  0  0  0  0  0  0
    1.4780    9.2439   -0.2893 C   0  0  0  0  0  0  0  0  0  0  0  0
    1.7705   10.4787   -0.8465 C   0  0  0  0  0  0  0  0  0  0  0  0
    1.9286   11.6106   -0.0795 C   0  0  0  0  0  0  0  0  0  0  0  0
    2.3021   13.2113   -0.7385 S   0  0  0  0  0  0  0  0  0  0  0  0
    4.0523   13.5734   -0.8889 C   0  0  0  0  0  0  0  0  0  0  0  0
    4.7981   13.7085    0.3955 C   0  0  0  0  0  0  0  0  0  0  0  0
    1.7730   11.4452    1.2967 C   0  0  0  0  0  0  0  0  0  0  0  0
    1.9038   12.5339    2.1262 F   0  0  0  0  0  0  0  0  0  0  0  0
    1.4907   10.2175    1.8264 C   0  0  0  0  0  0  0  0  0  0  0  0
    2.1803    7.0319    2.0679 C   0  0  0  0  0  0  0  0  0  0  0  0
    2.2283    5.9007    2.7795 C   0  0  0  0  0  0  0  0  0  0  0  0
    0.9564    5.5133    3.2909 C   0  0  0  0  0  0  0  0  0  0  0  0
    0.7332    4.2757    3.9757 C   0  0  0  0  0  0  0  0  0  0  0  0
    0.9213    4.0358    5.2874 C   0  0  0  0  0  0  0  0  0  0  0  0
    0.6461    2.7792    5.8689 C   0  0  0  0  0  0  0  0  0  0  0  0
    0.1727    1.7412    5.0983 C   0  0  0  0  0  0  0  0  0  0  0  0
   -0.2186    0.1071    5.7389 S   0  0  0  0  0  0  0  0  0  0  0  0
    1.3008   -0.8795    5.7218 C   0  0  0  0  0  0  0  0  0  0  0  0
    1.8119   -1.0671    4.2979 C   0  0  0  0  0  0  0  0  0  0  0  0
   -0.0146    2.0016    3.7458 C   0  0  0  0  0  0  0  0  0  0  0  0
    0.2448    3.2058    3.1847 C   0  0  0  0  0  0  0  0  0  0  0  0
   -0.4863    0.9967    2.9583 F   0  0  0  0  0  0  0  0  0  0  0  0
   -0.1843    6.2997    2.9871 C   0  0  0  0  0  0  0  0  0  0  0  0
   -1.8451    5.7873    2.9285 S   0  0  0  0  0  0  0  0  0  0  0  0
    3.3003    5.0417    2.5775 C   0  0  0  0  0  0  0  0  0  0  0  0
    4.2120    5.4287    1.6412 C   0  0  0  0  0  0  0  0  0  0  0  0
    3.6410    6.9420    1.0944 S   0  0  0  0  0  0  0  0  0  0  0  0
    5.1330    4.5553    0.7955 C   0  0  0  0  0  0  0  0  0  0  0  0
    5.6259    3.3418    0.8309 C   0  0  0  0  0  0  0  0  0  0  0  0
    6.0702    2.7493   -0.3521 C   0  0  0  0  0  0  0  0  0  0  0  0
    6.4150    1.4140   -0.5633 C   0  0  0  0  0  0  0  0  0  0  0  0
    6.6780    0.4419    0.4959 C   0  0  0  0  0  0  0  0  0  0  0  0
    7.8810    0.4604    1.1984 C   0  0  0  0  0  0  0  0  0  0  0  0
    8.1857   -0.5036    2.1374 C   0  0  0  0  0  0  0  0  0  0  0  0
    7.2878   -1.5351    2.4176 C   0  0  0  0  0  0  0  0  0  0  0  0
    7.7730   -2.7937    3.6032 S   0  0  0  0  0  0  0  0  0  0  0  0
    7.2672   -2.3700    5.2754 C   0  0  0  0  0  0  0  0  0  0  0  0
    5.7867   -2.4586    5.4815 C   0  0  0  0  0  0  0  0  0  0  0  0
    6.0972   -1.5575    1.7294 C   0  0  0  0  0  0  0  0  0  0  0  0
    5.2078   -2.5282    1.9641 F   0  0  0  0  0  0  0  0  0  0  0  0
    5.8020   -0.5663    0.7733 C   0  0  0  0  0  0  0  0  0  0  0  0
    6.5817    0.9697   -1.8876 C   0  0  0  0  0  0  0  0  0  0  0  0
    6.4399    1.7193   -2.9975 C   0  0  0  0  0  0  0  0  0  0  0  0
    6.1216    3.0553   -2.7822 C   0  0  0  0  0  0  0  0  0  0  0  0
    5.8204    4.0113   -3.8314 C   0  0  0  0  0  0  0  0  0  0  0  0
    6.6833    4.4396   -4.8031 C   0  0  0  0  0  0  0  0  0  0  0  0
    6.2529    5.3838   -5.7462 C   0  0  0  0  0  0  0  0  0  0  0  0
    4.9894    5.9130   -5.7556 C   0  0  0  0  0  0  0  0  0  0  0  0
    4.4805    7.0914   -6.9784 S   0  0  0  0  0  0  0  0  0  0  0  0
    4.9241    8.7764   -6.4336 C   0  0  0  0  0  0  0  0  0  0  0  0
    4.1601    9.1663   -5.1978 C   0  0  0  0  0  0  0  0  0  0  0  0
    4.1255    5.4718   -4.7691 C   0  0  0  0  0  0  0  0  0  0  0  0
    4.5262    4.5545   -3.8401 C   0  0  0  0  0  0  0  0  0  0  0  0
    2.8607    5.9870   -4.7376 F   0  0  0  0  0  0  0  0  0  0  0  0
    5.9571    3.4995   -1.4628 C   0  0  0  0  0  0  0  0  0  0  0  0
    5.2878    4.9803   -0.9154 S   0  0  0  0  0  0  0  0  0  0  0  0
    6.4805    1.0851   -4.2077 C   0  0  0  0  0  0  0  0  0  0  0  0
    6.6597   -0.2652   -4.1917 C   0  0  0  0  0  0  0  0  0  0  0  0
    6.7783   -0.6257   -2.5573 S   0  0  0  0  0  0  0  0  0  0  0  0
    6.4477   -1.1282   -5.3814 C   0  0  0  0  0  0  0  0  0  0  0  0
    5.1362   -1.2670   -5.8909 C   0  0  0  0  0  0  0  0  0  0  0  0
    4.9764   -2.0976   -6.9169 C   0  0  0  0  0  0  0  0  0  0  0  0
    3.7599   -2.3710   -7.5651 C   0  0  0  0  0  0  0  0  0  0  0  0
    2.4569   -1.9144   -7.1572 C   0  0  0  0  0  0  0  0  0  0  0  0
    1.9806   -0.6485   -7.1270 C   0  0  0  0  0  0  0  0  0  0  0  0
    0.6506   -0.3633   -6.7926 C   0  0  0  0  0  0  0  0  0  0  0  0
   -0.2374   -1.3418   -6.4794 C   0  0  0  0  0  0  0  0  0  0  0  0
   -1.9253   -0.9667   -6.1234 S   0  0  0  0  0  0  0  0  0  0  0  0
   -2.8910   -2.4728   -5.8285 C   0  0  0  0  0  0  0  0  0  0  0  0
   -4.3490   -2.0189   -5.6706 C   0  0  0  0  0  0  0  0  0  0  0  0
    0.2174   -2.6501   -6.4947 C   0  0  0  0  0  0  0  0  0  0  0  0
   -0.6162   -3.6798   -6.1820 F   0  0  0  0  0  0  0  0  0  0  0  0
    1.5222   -2.9160   -6.8238 C   0  0  0  0  0  0  0  0  0  0  0  0
    3.7487   -3.2588   -8.6408 C   0  0  0  0  0  0  0  0  0  0  0  0
    4.8389   -3.9073   -9.1278 C   0  0  0  0  0  0  0  0  0  0  0  0
    6.0549   -3.6277   -8.4564 C   0  0  0  0  0  0  0  0  0  0  0  0
    7.2690   -4.2751   -8.9020 C   0  0  0  0  0  0  0  0  0  0  0  0
    7.7822   -3.8128  -10.1154 C   0  0  0  0  0  0  0  0  0  0  0  0
    8.8922   -4.3503  -10.6970 C   0  0  0  0  0  0  0  0  0  0  0  0
    9.5682   -5.4034  -10.0846 C   0  0  0  0  0  0  0  0  0  0  0  0
   11.0467   -6.1390  -10.7776 S   0  0  0  0  0  0  0  0  0  0  0  0
   11.4231   -5.1794  -12.2860 C   0  0  0  0  0  0  0  0  0  0  0  0
   11.8173   -3.7635  -11.8936 C   0  0  0  0  0  0  0  0  0  0  0  0
    9.0345   -5.8470   -8.8710 C   0  0  0  0  0  0  0  0  0  0  0  0
    7.9162   -5.3004   -8.2919 C   0  0  0  0  0  0  0  0  0  0  0  0
    9.6928   -6.8836   -8.2689 F   0  0  0  0  0  0  0  0  0  0  0  0
    6.0792   -2.7529   -7.3976 C   0  0  0  0  0  0  0  0  0  0  0  0
    7.3289   -2.1446   -6.3431 S   0  0  0  0  0  0  0  0  0  0  0  0
    4.6673   -4.7182  -10.1820 C   0  0  0  0  0  0  0  0  0  0  0  0
    3.4062   -4.8395  -10.6971 C   0  0  0  0  0  0  0  0  0  0  0  0
    2.4891   -3.8181   -9.6947 S   0  0  0  0  0  0  0  0  0  0  0  0
   -1.5835   -8.6876   11.8724 H   0  0  0  0  0  0  0  0  0  0  0  0
   -0.3849   -7.0883   10.2741 H   0  0  0  0  0  0  0  0  0  0  0  0
    1.0964   -7.3655    7.6250 H   0  0  0  0  0  0  0  0  0  0  0  0
    3.0665   -6.0033    8.1269 H   0  0  0  0  0  0  0  0  0  0  0  0
    4.9383   -5.0992    8.1051 H   0  0  0  0  0  0  0  0  0  0  0  0
    5.7822   -3.8016    9.0015 H   0  0  0  0  0  0  0  0  0  0  0  0
    3.7543   -5.4218   10.5564 H   0  0  0  0  0  0  0  0  0  0  0  0
    5.1637   -6.3647    9.9850 H   0  0  0  0  0  0  0  0  0  0  0  0
    5.4694   -4.9587   11.0234 H   0  0  0  0  0  0  0  0  0  0  0  0
   -1.4472   -4.0415    8.2032 H   0  0  0  0  0  0  0  0  0  0  0  0
   -3.8223  -10.6245    6.7446 H   0  0  0  0  0  0  0  0  0  0  0  0
   -5.7694  -12.2155    6.9675 H   0  0  0  0  0  0  0  0  0  0  0  0
   -8.5313  -12.3907    5.3993 H   0  0  0  0  0  0  0  0  0  0  0  0
   -9.6964  -11.1783    5.9230 H   0  0  0  0  0  0  0  0  0  0  0  0
   -9.7650  -14.2057    6.3692 H   0  0  0  0  0  0  0  0  0  0  0  0
  -11.0358  -13.1311    5.5362 H   0  0  0  0  0  0  0  0  0  0  0  0
  -10.7985  -13.0633    7.3635 H   0  0  0  0  0  0  0  0  0  0  0  0
   -6.3289   -7.4861    8.0079 H   0  0  0  0  0  0  0  0  0  0  0  0
   -4.9733   -7.6367    4.8398 H   0  0  0  0  0  0  0  0  0  0  0  0
   -2.1380   -5.1450    2.0714 H   0  0  0  0  0  0  0  0  0  0  0  0
   -1.5539   -1.9917   -1.7320 H   0  0  0  0  0  0  0  0  0  0  0  0
    0.8459   -2.4633   -1.9293 H   0  0  0  0  0  0  0  0  0  0  0  0
    1.8925   -6.8778    0.2145 H   0  0  0  0  0  0  0  0  0  0  0  0
    3.6073   -6.5324    0.5620 H   0  0  0  0  0  0  0  0  0  0  0  0
    2.9922   -6.2512    2.7114 H   0  0  0  0  0  0  0  0  0  0  0  0
    1.2802   -6.2901    2.3033 H   0  0  0  0  0  0  0  0  0  0  0  0
    2.0941   -4.7103    2.2782 H   0  0  0  0  0  0  0  0  0  0  0  0
   -8.6721   -2.2098   -0.4321 H   0  0  0  0  0  0  0  0  0  0  0  0
  -10.8443   -3.0316    0.3183 H   0  0  0  0  0  0  0  0  0  0  0  0
  -13.0438   -7.1128    1.2081 H   0  0  0  0  0  0  0  0  0  0  0  0
  -12.0292   -6.3469   -0.0604 H   0  0  0  0  0  0  0  0  0  0  0  0
  -10.3469   -7.8084    0.0788 H   0  0  0  0  0  0  0  0  0  0  0  0
  -11.5347   -8.8598    0.9141 H   0  0  0  0  0  0  0  0  0  0  0  0
  -10.3846   -7.8989    1.8591 H   0  0  0  0  0  0  0  0  0  0  0  0
   -7.2486   -1.5665   -1.3012 H   0  0  0  0  0  0  0  0  0  0  0  0
   -4.4031    1.6454   -3.4124 H   0  0  0  0  0  0  0  0  0  0  0  0
   -1.7463    3.7611   -2.0209 H   0  0  0  0  0  0  0  0  0  0  0  0
   -0.0943    4.5131   -3.7618 H   0  0  0  0  0  0  0  0  0  0  0  0
   -0.6292    4.0870   -7.8359 H   0  0  0  0  0  0  0  0  0  0  0  0
    0.8710    5.1383   -8.0905 H   0  0  0  0  0  0  0  0  0  0  0  0
    1.9801    4.0469   -6.1984 H   0  0  0  0  0  0  0  0  0  0  0  0
    0.5050    3.1372   -5.8044 H   0  0  0  0  0  0  0  0  0  0  0  0
    1.4182    2.8555   -7.3755 H   0  0  0  0  0  0  0  0  0  0  0  0
   -4.8808    5.1819   -4.5109 H   0  0  0  0  0  0  0  0  0  0  0  0
   -8.4456    3.9775   -0.5585 H   0  0  0  0  0  0  0  0  0  0  0  0
  -10.5305    3.5879    0.8188 H   0  0  0  0  0  0  0  0  0  0  0  0
  -11.2862    5.3882    4.4349 H   0  0  0  0  0  0  0  0  0  0  0  0
  -12.7727    4.3790    4.5018 H   0  0  0  0  0  0  0  0  0  0  0  0
  -11.6216    5.9134    2.1425 H   0  0  0  0  0  0  0  0  0  0  0  0
  -12.6188    4.4343    1.8847 H   0  0  0  0  0  0  0  0  0  0  0  0
  -13.3044    5.8045    2.7428 H   0  0  0  0  0  0  0  0  0  0  0  0
   -6.0820    3.7138    2.9143 H   0  0  0  0  0  0  0  0  0  0  0  0
   -5.3414    6.0154    2.0264 H   0  0  0  0  0  0  0  0  0  0  0  0
   -1.4703    8.7268    1.0629 H   0  0  0  0  0  0  0  0  0  0  0  0
    1.3597    8.3466   -0.9192 H   0  0  0  0  0  0  0  0  0  0  0  0
    1.8948   10.5493   -1.9116 H   0  0  0  0  0  0  0  0  0  0  0  0
    4.6177   12.8809   -1.5418 H   0  0  0  0  0  0  0  0  0  0  0  0
    4.0978   14.5821   -1.4134 H   0  0  0  0  0  0  0  0  0  0  0  0
    5.6270   12.9748    0.5108 H   0  0  0  0  0  0  0  0  0  0  0  0
    4.1243   13.7403    1.2957 H   0  0  0  0  0  0  0  0  0  0  0  0
    5.2880   14.7223    0.4248 H   0  0  0  0  0  0  0  0  0  0  0  0
    1.3897   10.1318    2.9181 H   0  0  0  0  0  0  0  0  0  0  0  0
    1.3037    4.8376    5.9464 H   0  0  0  0  0  0  0  0  0  0  0  0
    0.8026    2.6275    6.8955 H   0  0  0  0  0  0  0  0  0  0  0  0
    1.1271   -1.9024    6.1272 H   0  0  0  0  0  0  0  0  0  0  0  0
    2.0592   -0.3867    6.3598 H   0  0  0  0  0  0  0  0  0  0  0  0
    2.7878   -1.5887    4.2661 H   0  0  0  0  0  0  0  0  0  0  0  0
    1.9403   -0.0189    3.9009 H   0  0  0  0  0  0  0  0  0  0  0  0
    1.1052   -1.6312    3.6530 H   0  0  0  0  0  0  0  0  0  0  0  0
    0.1037    3.4397    2.1442 H   0  0  0  0  0  0  0  0  0  0  0  0
    3.4251    4.1280    3.1150 H   0  0  0  0  0  0  0  0  0  0  0  0
    5.6752    2.7899    1.7989 H   0  0  0  0  0  0  0  0  0  0  0  0
    8.5884    1.2441    1.0119 H   0  0  0  0  0  0  0  0  0  0  0  0
    9.1286   -0.4873    2.6723 H   0  0  0  0  0  0  0  0  0  0  0  0
    7.5992   -1.2907    5.4383 H   0  0  0  0  0  0  0  0  0  0  0  0
    7.8245   -3.0400    5.9857 H   0  0  0  0  0  0  0  0  0  0  0  0
    5.5863   -3.1959    6.3368 H   0  0  0  0  0  0  0  0  0  0  0  0
    5.3272   -1.5398    5.8594 H   0  0  0  0  0  0  0  0  0  0  0  0
    5.2025   -2.8406    4.6113 H   0  0  0  0  0  0  0  0  0  0  0  0
    4.8560   -0.6325    0.2617 H   0  0  0  0  0  0  0  0  0  0  0  0
    7.6773    4.0356   -4.8350 H   0  0  0  0  0  0  0  0  0  0  0  0
    6.9679    5.7004   -6.5068 H   0  0  0  0  0  0  0  0  0  0  0  0
    6.0039    8.8098   -6.2311 H   0  0  0  0  0  0  0  0  0  0  0  0
    4.6694    9.4691   -7.2589 H   0  0  0  0  0  0  0  0  0  0  0  0
    3.2504    9.7066   -5.4993 H   0  0  0  0  0  0  0  0  0  0  0  0
    4.8409    9.8649   -4.6515 H   0  0  0  0  0  0  0  0  0  0  0  0
    3.9922    8.2904   -4.5418 H   0  0  0  0  0  0  0  0  0  0  0  0
    3.8523    4.1928   -3.0648 H   0  0  0  0  0  0  0  0  0  0  0  0
    6.3941    1.5975   -5.1966 H   0  0  0  0  0  0  0  0  0  0  0  0
    4.3291   -0.6735   -5.3986 H   0  0  0  0  0  0  0  0  0  0  0  0
    2.6697    0.1644   -7.3670 H   0  0  0  0  0  0  0  0  0  0  0  0
    0.3911    0.7067   -6.8088 H   0  0  0  0  0  0  0  0  0  0  0  0
   -2.8071   -3.1777   -6.6739 H   0  0  0  0  0  0  0  0  0  0  0  0
   -2.6117   -2.9875   -4.9191 H   0  0  0  0  0  0  0  0  0  0  0  0
   -4.5051   -0.9637   -5.8836 H   0  0  0  0  0  0  0  0  0  0  0  0
   -4.9874   -2.5878   -6.4290 H   0  0  0  0  0  0  0  0  0  0  0  0
   -4.7568   -2.2568   -4.6703 H   0  0  0  0  0  0  0  0  0  0  0  0
    1.8818   -3.9436   -6.8347 H   0  0  0  0  0  0  0  0  0  0  0  0
    7.3030   -2.9928  -10.6556 H   0  0  0  0  0  0  0  0  0  0  0  0
    9.2662   -3.9796  -11.6586 H   0  0  0  0  0  0  0  0  0  0  0  0
   12.2322   -5.6566  -12.8821 H   0  0  0  0  0  0  0  0  0  0  0  0
   10.4989   -5.1095  -12.8907 H   0  0  0  0  0  0  0  0  0  0  0  0
   11.4195   -3.5725  -10.8827 H   0  0  0  0  0  0  0  0  0  0  0  0
   12.9267   -3.6343  -11.9340 H   0  0  0  0  0  0  0  0  0  0  0  0
   11.3351   -3.0531  -12.5803 H   0  0  0  0  0  0  0  0  0  0  0  0
    7.5061   -5.6315   -7.3515 H   0  0  0  0  0  0  0  0  0  0  0  0
    5.4829   -5.3043  -10.6806 H   0  0  0  0  0  0  0  0  0  0  0  0
    3.0944   -5.4592  -11.5481 H   0  0  0  0  0  0  0  0  0  0  0  0
  1  2  2  0
  2  3  1  0
  3  4  2  0
  4  5  1  0
  5  6  2  0
  6  7  1  0
  7  8  2  0
  8  9  1  0
  9 10  1  0
 10 11  1  0
  8 12  1  0
 12 13  1  0
 12 14  2  0
  4 15  1  0
 15 16  2  0
 16 17  1  0
 17 18  1  0
 18 19  2  0
 19 20  1  0
 20 21  2  0
 21 22  1  0
 22 23  1  0
 23 24  1  0
 21 25  1  0
 25 26  2  0
 25 27  1  0
 17 28  2  0
 28 29  1  0
 16 30  1  0
 30 31  2  0
 31 32  1  0
 31 33  1  0
 33 34  2  0
 34 35  1  0
 35 36  2  0
 36 37  1  0
 37 38  2  0
 38 39  1  0
 39 40  2  0
 40 41  1  0
 41 42  1  0
 42 43  1  0
 40 44  1  0
 36 45  1  0
 45 46  2  0
 46 47  1  0
 47 48  1  0
 48 49  2  0
 49 50  1  0
 50 51  2  0
 51 52  1  0
 52 53  1  0
 53 54  1  0
 51 55  1  0
 47 56  2  0
 56 57  1  0
 46 58  1  0
 58 59  2  0
 59 60  1  0
 59 61  1  0
 61 62  2  0
 62 63  1  0
 63 64  2  0
 64 65  1  0
 65 66  2  0
 66 67  1  0
 67 68  2  0
 68 69  1  0
 69 70  1  0
 70 71  1  0
 68 72  1  0
 72 73  1  0
 72 74  2  0
 64 75  1  0
 75 76  2  0
 76 77  1  0
 77 78  1  0
 78 79  2  0
 79 80  1  0
 80 81  2  0
 81 82  1  0
 82 83  1  0
 83 84  1  0
 81 85  1  0
 85 86  2  0
 85 87  1  0
 77 88  2  0
 88 89  1  0
 76 90  1  0
 90 91  2  0
 91 92  1  0
 91 93  1  0
 93 94  2  0
 94 95  1  0
 95 96  2  0
 96 97  1  0
 97 98  2  0
 98 99  1  0
 99100  2  0
100101  1  0
101102  1  0
102103  1  0
100104  1  0
104105  1  0
104106  2  0
 96107  1  0
107108  2  0
108109  1  0
109110  1  0
110111  2  0
111112  1  0
112113  2  0
113114  1  0
114115  1  0
115116  1  0
113117  1  0
117118  2  0
117119  1  0
109120  2  0
120121  1  0
108122  1  0
122123  2  0
123124  1  0
123125  1  0
125126  2  0
126127  1  0
127128  2  0
128129  1  0
129130  2  0
130131  1  0
131132  2  0
132133  1  0
133134  1  0
134135  1  0
132136  1  0
136137  1  0
136138  2  0
128139  1  0
139140  2  0
140141  1  0
141142  1  0
142143  2  0
143144  1  0
144145  2  0
145146  1  0
146147  1  0
147148  1  0
145149  1  0
149150  2  0
149151  1  0
141152  2  0
152153  1  0
140154  1  0
154155  2  0
155156  1  0
155157  1  0
157158  2  0
158159  1  0
159160  2  0
160161  1  0
161162  2  0
162163  1  0
163164  2  0
164165  1  0
165166  1  0
166167  1  0
164168  1  0
168169  1  0
168170  2  0
160171  1  0
171172  2  0
172173  1  0
173174  1  0
174175  2  0
175176  1  0
176177  2  0
177178  1  0
178179  1  0
179180  1  0
177181  1  0
181182  2  0
181183  1  0
173184  2  0
184185  1  0
172186  1  0
186187  2  0
187188  1  0
 29  1  1  0
 57 33  1  0
 89 61  1  0
121 93  1  0
153125  1  0
185157  1  0
 28  3  1  0
 56 35  1  0
 88 63  1  0
120 95  1  0
152127  1  0
184159  1  0
 14  5  1  0
 32 15  1  0
 44 37  1  0
 60 45  1  0
 74 65  1  0
 92 75  1  0
106 97  1  0
124107  1  0
138129  1  0
156139  1  0
170161  1  0
188171  1  0
 26 18  1  0
 55 48  1  0
 86 78  1  0
118110  1  0
150142  1  0
182174  1  0
  1189  1  0
  2190  1  0
  6191  1  0
  7192  1  0
 10193  1  0
 10194  1  0
 11195  1  0
 11196  1  0
 11197  1  0
 14198  1  0
 19199  1  0
 20200  1  0
 23201  1  0
 23202  1  0
 24203  1  0
 24204  1  0
 24205  1  0
 26206  1  0
 30207  1  0
 34208  1  0
 38209  1  0
 39210  1  0
 42211  1  0
 42212  1  0
 43213  1  0
 43214  1  0
 43215  1  0
 49216  1  0
 50217  1  0
 53218  1  0
 53219  1  0
 54220  1  0
 54221  1  0
 54222  1  0
 58223  1  0
 62224  1  0
 66225  1  0
 67226  1  0
 70227  1  0
 70228  1  0
 71229  1  0
 71230  1  0
 71231  1  0
 74232  1  0
 79233  1  0
 80234  1  0
 83235  1  0
 83236  1  0
 84237  1  0
 84238  1  0
 84239  1  0
 86240  1  0
 90241  1  0
 94242  1  0
 98243  1  0
 99244  1  0
102245  1  0
102246  1  0
103247  1  0
103248  1  0
103249  1  0
106250  1  0
111251  1  0
112252  1  0
115253  1  0
115254  1  0
116255  1  0
116256  1  0
116257  1  0
118258  1  0
122259  1  0
126260  1  0
130261  1  0
131262  1  0
134263  1  0
134264  1  0
135265  1  0
135266  1  0
135267  1  0
138268  1  0
143269  1  0
144270  1  0
147271  1  0
147272  1  0
148273  1  0
148274  1  0
148275  1  0
150276  1  0
154277  1  0
158278  1  0
162279  1  0
163280  1  0
166281  1  0
166282  1  0
167283  1  0
167284  1  0
167285  1  0
170286  1  0
175287  1  0
176288  1  0
179289  1  0
179290  1  0
180291  1  0
180292  1  0
180293  1  0
182294  1  0
186295  1  0
187296  1  0
M  END

