
     RDKit          3D

284313  0  0  0  0  0  0  0  0999 V2000
   -1.1816   -4.2962   10.5647 C   0  0  0  0  0  0  0  0  0  0  0  0
   -1.3786   -3.6469    9.3759 C   0  0  0  0  0  0  0  0  0  0  0  0
   -1.9526   -4.3251    8.3787 C   0  0  0  0  0  0  0  0  0  0  0  0
   -2.2441   -3.8404    7.0867 C   0  0  0  0  0  0  0  0  0  0  0  0
   -1.8621   -2.5394    6.6192 C   0  0  0  0  0  0  0  0  0  0  0  0
   -2.6023   -1.4184    6.7229 C   0  0  0  0  0  0  0  0  0  0  0  0
   -2.1347   -0.1935    6.2488 C   0  0  0  0  0  0  0  0  0  0  0  0
   -0.9062   -0.0929    5.6585 C   0  0  0  0  0  0  0  0  0  0  0  0
   -0.1075   -1.2270    5.5286 C   0  0  0  0  0  0  0  0  0  0  0  0
    1.1216   -1.0974    4.9305 O   0  0  0  0  0  0  0  0  0  0  0  0
    2.0880   -2.0588    4.6995 C   0  0  0  0  0  0  0  0  0  0  0  0
    1.5862   -3.1798    3.8398 C   0  0  0  0  0  0  0  0  0  0  0  0
   -0.5997   -2.4311    6.0123 C   0  0  0  0  0  0  0  0  0  0  0  0
   -2.8535   -4.6867    6.1481 C   0  0  0  0  0  0  0  0  0  0  0  0
   -3.1914   -5.9847    6.3847 C   0  0  0  0  0  0  0  0  0  0  0  0
   -2.9020   -6.4576    7.6730 C   0  0  0  0  0  0  0  0  0  0  0  0
   -3.1799   -7.8002    8.1349 C   0  0  0  0  0  0  0  0  0  0  0  0
   -2.2212   -8.7660    8.0060 C   0  0  0  0  0  0  0  0  0  0  0  0
   -2.5123  -10.0342    8.4708 C   0  0  0  0  0  0  0  0  0  0  0  0
   -3.7415  -10.2857    9.0396 C   0  0  0  0  0  0  0  0  0  0  0  0
   -4.7045   -9.2676    9.1538 C   0  0  0  0  0  0  0  0  0  0  0  0
   -5.9033   -9.6115    9.7316 O   0  0  0  0  0  0  0  0  0  0  0  0
   -6.9850   -8.7529    9.9318 C   0  0  0  0  0  0  0  0  0  0  0  0
   -6.6646   -7.5922   10.8166 C   0  0  0  0  0  0  0  0  0  0  0  0
   -4.4212   -8.0220    8.6995 C   0  0  0  0  0  0  0  0  0  0  0  0
   -2.3061   -5.6235    8.6017 C   0  0  0  0  0  0  0  0  0  0  0  0
   -1.8102   -5.8495   10.2442 S   0  0  0  0  0  0  0  0  0  0  0  0
   -3.7530   -6.6795    5.3713 C   0  0  0  0  0  0  0  0  0  0  0  0
   -3.9482   -6.0646    4.2049 C   0  0  0  0  0  0  0  0  0  0  0  0
   -3.3332   -4.4494    4.5266 S   0  0  0  0  0  0  0  0  0  0  0  0
   -4.2619   -6.5199    2.8449 C   0  0  0  0  0  0  0  0  0  0  0  0
   -4.9227   -5.8780    1.8521 C   0  0  0  0  0  0  0  0  0  0  0  0
   -4.9379   -6.4815    0.6321 C   0  0  0  0  0  0  0  0  0  0  0  0
   -5.3946   -5.9690   -0.5913 C   0  0  0  0  0  0  0  0  0  0  0  0
   -6.1517   -4.7318   -0.6908 C   0  0  0  0  0  0  0  0  0  0  0  0
   -6.6795   -4.1084   -1.7841 C   0  0  0  0  0  0  0  0  0  0  0  0
   -7.3377   -2.9574   -1.6884 C   0  0  0  0  0  0  0  0  0  0  0  0
   -7.5500   -2.3062   -0.5492 C   0  0  0  0  0  0  0  0  0  0  0  0
   -8.3229   -0.8118   -0.0264 S   0  0  0  0  0  0  0  0  0  0  0  0
   -7.1147    0.5528   -0.0581 C   0  0  0  0  0  0  0  0  0  0  0  0
   -6.1220    0.2463    1.0458 C   0  0  0  0  0  0  0  0  0  0  0  0
   -6.6290   -3.5746    0.6747 Se  0  0  0  0  0  2  0  0  0  0  0  0
   -5.1348   -6.6692   -1.7614 C   0  0  0  0  0  0  0  0  0  0  0  0
   -4.4710   -7.8341   -1.8514 C   0  0  0  0  0  0  0  0  0  0  0  0
   -4.0355   -8.3828   -0.6525 C   0  0  0  0  0  0  0  0  0  0  0  0
   -3.4082   -9.6981   -0.5285 C   0  0  0  0  0  0  0  0  0  0  0  0
   -3.2618  -10.7804   -1.2743 C   0  0  0  0  0  0  0  0  0  0  0  0
   -2.5142  -11.8259   -0.8966 C   0  0  0  0  0  0  0  0  0  0  0  0
   -1.8544  -11.9091    0.2286 C   0  0  0  0  0  0  0  0  0  0  0  0
   -0.7900  -13.0413    1.0759 S   0  0  0  0  0  0  0  0  0  0  0  0
   -1.8237  -14.2012    2.0154 C   0  0  0  0  0  0  0  0  0  0  0  0
   -2.5757  -13.5260    3.1154 C   0  0  0  0  0  0  0  0  0  0  0  0
   -2.3372  -10.1237    1.0342 Se  0  0  0  0  0  2  0  0  0  0  0  0
   -4.2905   -7.6745    0.5328 C   0  0  0  0  0  0  0  0  0  0  0  0
   -3.6878   -7.9330    2.1343 S   0  0  0  0  0  0  0  0  0  0  0  0
   -4.0812   -8.2445   -3.1051 C   0  0  0  0  0  0  0  0  0  0  0  0
   -4.3876   -7.4454   -4.1487 C   0  0  0  0  0  0  0  0  0  0  0  0
   -5.2273   -6.1583   -3.4246 S   0  0  0  0  0  0  0  0  0  0  0  0
   -3.6487   -7.3288   -5.4880 C   0  0  0  0  0  0  0  0  0  0  0  0
   -3.7334   -6.2752   -6.3191 C   0  0  0  0  0  0  0  0  0  0  0  0
   -2.6594   -6.0421   -7.1465 C   0  0  0  0  0  0  0  0  0  0  0  0
   -2.4087   -4.8238   -7.8167 C   0  0  0  0  0  0  0  0  0  0  0  0
   -3.4265   -3.8183   -8.0471 C   0  0  0  0  0  0  0  0  0  0  0  0
   -4.2229   -4.0242   -9.1842 C   0  0  0  0  0  0  0  0  0  0  0  0
   -5.2347   -3.1593   -9.5251 C   0  0  0  0  0  0  0  0  0  0  0  0
   -5.4510   -2.0713   -8.7143 C   0  0  0  0  0  0  0  0  0  0  0  0
   -4.6881   -1.8360   -7.5903 C   0  0  0  0  0  0  0  0  0  0  0  0
   -4.9662   -0.7241   -6.8281 O   0  0  0  0  0  0  0  0  0  0  0  0
   -5.9531    0.2264   -7.0410 C   0  0  0  0  0  0  0  0  0  0  0  0
   -7.3598   -0.2943   -7.0290 C   0  0  0  0  0  0  0  0  0  0  0  0
   -3.6725   -2.7258   -7.2701 C   0  0  0  0  0  0  0  0  0  0  0  0
   -1.1152   -4.5857   -8.3051 C   0  0  0  0  0  0  0  0  0  0  0  0
   -0.0643   -5.4198   -8.2128 C   0  0  0  0  0  0  0  0  0  0  0  0
   -0.3276   -6.6605   -7.5693 C   0  0  0  0  0  0  0  0  0  0  0  0
    0.6662   -7.6874   -7.3723 C   0  0  0  0  0  0  0  0  0  0  0  0
    1.4340   -7.6505   -6.2138 C   0  0  0  0  0  0  0  0  0  0  0  0
    2.3962   -8.6086   -5.9872 C   0  0  0  0  0  0  0  0  0  0  0  0
    2.5957   -9.5986   -6.9055 C   0  0  0  0  0  0  0  0  0  0  0  0
    1.8489   -9.6677   -8.0762 C   0  0  0  0  0  0  0  0  0  0  0  0
    2.0875  -10.7043   -8.9984 O   0  0  0  0  0  0  0  0  0  0  0  0
    3.0936  -11.6685   -8.7308 C   0  0  0  0  0  0  0  0  0  0  0  0
    3.1601  -12.6642   -9.8670 C   0  0  0  0  0  0  0  0  0  0  0  0
    0.8922   -8.6952   -8.2754 C   0  0  0  0  0  0  0  0  0  0  0  0
   -1.6237   -6.8967   -7.0635 C   0  0  0  0  0  0  0  0  0  0  0  0
   -2.1393   -8.0295   -5.8500 S   0  0  0  0  0  0  0  0  0  0  0  0
    1.1875   -4.8841   -8.4409 C   0  0  0  0  0  0  0  0  0  0  0  0
    1.2601   -3.5843   -8.7196 C   0  0  0  0  0  0  0  0  0  0  0  0
   -0.4010   -3.0647   -8.7166 S   0  0  0  0  0  0  0  0  0  0  0  0
    2.3582   -2.5600   -8.4507 C   0  0  0  0  0  0  0  0  0  0  0  0
    3.2192   -2.7157   -7.3670 C   0  0  0  0  0  0  0  0  0  0  0  0
    3.7760   -1.5796   -6.8867 C   0  0  0  0  0  0  0  0  0  0  0  0
    4.4278   -1.4533   -5.6555 C   0  0  0  0  0  0  0  0  0  0  0  0
    4.7869   -2.5366   -4.7734 C   0  0  0  0  0  0  0  0  0  0  0  0
    4.5334   -3.8094   -4.5514 C   0  0  0  0  0  0  0  0  0  0  0  0
    5.1402   -4.5741   -3.6366 C   0  0  0  0  0  0  0  0  0  0  0  0
    6.0850   -4.1232   -2.8310 C   0  0  0  0  0  0  0  0  0  0  0  0
    7.0807   -4.7161   -1.4889 S   0  0  0  0  0  0  0  0  0  0  0  0
    6.6047   -6.3879   -1.0377 C   0  0  0  0  0  0  0  0  0  0  0  0
    5.1759   -6.4204   -0.4922 C   0  0  0  0  0  0  0  0  0  0  0  0
    6.1894   -2.2500   -3.4319 Se  0  0  0  0  0  2  0  0  0  0  0  0
    4.6815   -0.1527   -5.1727 C   0  0  0  0  0  0  0  0  0  0  0  0
    4.3686    1.0136   -5.7861 C   0  0  0  0  0  0  0  0  0  0  0  0
    3.7292    0.8690   -7.0323 C   0  0  0  0  0  0  0  0  0  0  0  0
    3.2965    2.0087   -7.8180 C   0  0  0  0  0  0  0  0  0  0  0  0
    2.7718    2.1137   -9.0500 C   0  0  0  0  0  0  0  0  0  0  0  0
    2.3788    3.2759   -9.5768 C   0  0  0  0  0  0  0  0  0  0  0  0
    2.4636    4.4387   -8.9465 C   0  0  0  0  0  0  0  0  0  0  0  0
    2.0526    6.1263   -9.2185 S   0  0  0  0  0  0  0  0  0  0  0  0
    0.4538    6.5760   -8.4829 C   0  0  0  0  0  0  0  0  0  0  0  0
    0.5650    6.4882   -6.9487 C   0  0  0  0  0  0  0  0  0  0  0  0
    3.2623    3.7996   -7.2544 Se  0  0  0  0  0  2  0  0  0  0  0  0
    3.4656   -0.4114   -7.5067 C   0  0  0  0  0  0  0  0  0  0  0  0
    2.3811   -0.9421   -8.7747 S   0  0  0  0  0  0  0  0  0  0  0  0
    4.5082    2.1470   -5.0392 C   0  0  0  0  0  0  0  0  0  0  0  0
    4.9389    1.9910   -3.7431 C   0  0  0  0  0  0  0  0  0  0  0  0
    5.1602    0.3263   -3.5914 S   0  0  0  0  0  0  0  0  0  0  0  0
    4.9543    3.0081   -2.6497 C   0  0  0  0  0  0  0  0  0  0  0  0
    4.6167    4.3089   -2.7176 C   0  0  0  0  0  0  0  0  0  0  0  0
    4.5364    4.9914   -1.5439 C   0  0  0  0  0  0  0  0  0  0  0  0
    4.1197    6.3200   -1.3674 C   0  0  0  0  0  0  0  0  0  0  0  0
    3.8044    7.1892   -2.4672 C   0  0  0  0  0  0  0  0  0  0  0  0
    4.7944    7.7296   -3.2828 C   0  0  0  0  0  0  0  0  0  0  0  0
    4.4503    8.5715   -4.3159 C   0  0  0  0  0  0  0  0  0  0  0  0
    3.0947    8.8791   -4.5329 C   0  0  0  0  0  0  0  0  0  0  0  0
    2.1224    8.3564   -3.7455 C   0  0  0  0  0  0  0  0  0  0  0  0
    0.7876    8.6852   -3.9919 O   0  0  0  0  0  0  0  0  0  0  0  0
   -0.1790    8.0948   -3.1133 C   0  0  0  0  0  0  0  0  0  0  0  0
   -1.5841    8.5059   -3.4316 C   0  0  0  0  0  0  0  0  0  0  0  0
    2.5012    7.5228   -2.7282 C   0  0  0  0  0  0  0  0  0  0  0  0
    3.9990    6.8357   -0.0846 C   0  0  0  0  0  0  0  0  0  0  0  0
    4.2497    6.1686    1.0629 C   0  0  0  0  0  0  0  0  0  0  0  0
    4.6826    4.8325    0.8915 C   0  0  0  0  0  0  0  0  0  0  0  0
    5.0145    4.0283    2.0210 C   0  0  0  0  0  0  0  0  0  0  0  0
    4.0561    3.2881    2.6730 C   0  0  0  0  0  0  0  0  0  0  0  0
    4.3778    2.5352    3.7918 C   0  0  0  0  0  0  0  0  0  0  0  0
    5.6690    2.4898    4.3060 C   0  0  0  0  0  0  0  0  0  0  0  0
    6.6392    3.2358    3.6498 C   0  0  0  0  0  0  0  0  0  0  0  0
    7.9235    3.2099    4.1424 O   0  0  0  0  0  0  0  0  0  0  0  0
    8.3226    2.4684    5.2775 C   0  0  0  0  0  0  0  0  0  0  0  0
    9.7970    2.6835    5.5713 C   0  0  0  0  0  0  0  0  0  0  0  0
    6.2894    3.9748    2.5384 C   0  0  0  0  0  0  0  0  0  0  0  0
    4.8052    4.3083   -0.3963 C   0  0  0  0  0  0  0  0  0  0  0  0
    5.1702    2.7386   -0.9770 S   0  0  0  0  0  0  0  0  0  0  0  0
    4.0087    6.8195    2.2378 C   0  0  0  0  0  0  0  0  0  0  0  0
    3.5415    8.0719    2.1722 C   0  0  0  0  0  0  0  0  0  0  0  0
    3.4378    8.3623    0.4764 S   0  0  0  0  0  0  0  0  0  0  0  0
    3.0065    9.0479    3.1257 C   0  0  0  0  0  0  0  0  0  0  0  0
    2.3350    8.8706    4.3024 C   0  0  0  0  0  0  0  0  0  0  0  0
    1.8237    9.9633    4.9175 C   0  0  0  0  0  0  0  0  0  0  0  0
    1.0528   10.0568    6.0875 C   0  0  0  0  0  0  0  0  0  0  0  0
    0.6883    8.9263    6.9232 C   0  0  0  0  0  0  0  0  0  0  0  0
    1.0139    7.6747    7.1359 C   0  0  0  0  0  0  0  0  0  0  0  0
    0.3461    6.8233    7.9189 C   0  0  0  0  0  0  0  0  0  0  0  0
   -0.7499    7.1536    8.5899 C   0  0  0  0  0  0  0  0  0  0  0  0
   -1.9319    6.4165    9.6726 S   0  0  0  0  0  0  0  0  0  0  0  0
   -3.3609    5.7391    8.7346 C   0  0  0  0  0  0  0  0  0  0  0  0
   -4.4120    5.2908    9.7152 C   0  0  0  0  0  0  0  0  0  0  0  0
   -0.9156    9.0527    8.0365 Se  0  0  0  0  0  2  0  0  0  0  0  0
    0.5864   11.3095    6.5021 C   0  0  0  0  0  0  0  0  0  0  0  0
    0.8153   12.4944    5.8589 C   0  0  0  0  0  0  0  0  0  0  0  0
    1.5620   12.4047    4.7131 C   0  0  0  0  0  0  0  0  0  0  0  0
    1.7824   13.5248    3.7704 C   0  0  0  0  0  0  0  0  0  0  0  0
    1.2104   14.6848    3.5115 C   0  0  0  0  0  0  0  0  0  0  0  0
    1.7072   15.5564    2.6186 C   0  0  0  0  0  0  0  0  0  0  0  0
    2.8016   15.3549    1.9119 C   0  0  0  0  0  0  0  0  0  0  0  0
    3.7639   16.1947    0.6963 S   0  0  0  0  0  0  0  0  0  0  0  0
    3.2214   15.7999   -0.9720 C   0  0  0  0  0  0  0  0  0  0  0  0
    3.4549   14.3782   -1.3815 C   0  0  0  0  0  0  0  0  0  0  0  0
    3.2849   13.5505    2.6145 Se  0  0  0  0  0  2  0  0  0  0  0  0
    2.0321   11.1608    4.2943 C   0  0  0  0  0  0  0  0  0  0  0  0
    2.9128   10.7362    2.9010 S   0  0  0  0  0  0  0  0  0  0  0  0
    0.2987   13.6057    6.4523 C   0  0  0  0  0  0  0  0  0  0  0  0
   -0.3959   13.4437    7.6169 C   0  0  0  0  0  0  0  0  0  0  0  0
   -0.3204   11.7661    7.8721 S   0  0  0  0  0  0  0  0  0  0  0  0
   -0.7236   -3.8853   11.4782 H   0  0  0  0  0  0  0  0  0  0  0  0
   -1.0508   -2.5796    9.3070 H   0  0  0  0  0  0  0  0  0  0  0  0
   -3.5768   -1.4706    7.1815 H   0  0  0  0  0  0  0  0  0  0  0  0
   -2.7452    0.7020    6.3448 H   0  0  0  0  0  0  0  0  0  0  0  0
   -0.5403    0.8700    5.2834 H   0  0  0  0  0  0  0  0  0  0  0  0
    2.5419   -2.4262    5.6440 H   0  0  0  0  0  0  0  0  0  0  0  0
    2.9214   -1.5330    4.1447 H   0  0  0  0  0  0  0  0  0  0  0  0
    1.7050   -4.1641    4.3661 H   0  0  0  0  0  0  0  0  0  0  0  0
    2.2643   -3.2525    2.9406 H   0  0  0  0  0  0  0  0  0  0  0  0
    0.5440   -2.9910    3.5177 H   0  0  0  0  0  0  0  0  0  0  0  0
    0.0293   -3.3105    5.9109 H   0  0  0  0  0  0  0  0  0  0  0  0
   -1.2466   -8.5818    7.5609 H   0  0  0  0  0  0  0  0  0  0  0  0
   -1.7623  -10.7782    8.3686 H   0  0  0  0  0  0  0  0  0  0  0  0
   -3.9777  -11.2900    9.4052 H   0  0  0  0  0  0  0  0  0  0  0  0
   -7.8183   -9.3432   10.4083 H   0  0  0  0  0  0  0  0  0  0  0  0
   -7.3393   -8.3947    8.9131 H   0  0  0  0  0  0  0  0  0  0  0  0
   -6.8902   -6.6335   10.2864 H   0  0  0  0  0  0  0  0  0  0  0  0
   -5.6031   -7.5652   11.1049 H   0  0  0  0  0  0  0  0  0  0  0  0
   -7.3297   -7.5617   11.7236 H   0  0  0  0  0  0  0  0  0  0  0  0
   -5.1480   -7.2010    8.7724 H   0  0  0  0  0  0  0  0  0  0  0  0
   -4.0615   -7.7574    5.4792 H   0  0  0  0  0  0  0  0  0  0  0  0
   -5.4024   -4.9072    2.1120 H   0  0  0  0  0  0  0  0  0  0  0  0
   -6.5520   -4.6152   -2.7849 H   0  0  0  0  0  0  0  0  0  0  0  0
   -7.7590   -2.4662   -2.6389 H   0  0  0  0  0  0  0  0  0  0  0  0
   -6.6371    0.6307   -1.0498 H   0  0  0  0  0  0  0  0  0  0  0  0
   -7.6475    1.4828    0.1813 H   0  0  0  0  0  0  0  0  0  0  0  0
   -5.4914   -0.6035    0.7863 H   0  0  0  0  0  0  0  0  0  0  0  0
   -6.7618   -0.0490    1.9272 H   0  0  0  0  0  0  0  0  0  0  0  0
   -5.5753    1.1669    1.2705 H   0  0  0  0  0  0  0  0  0  0  0  0
   -3.8364  -10.8536   -2.2564 H   0  0  0  0  0  0  0  0  0  0  0  0
   -2.4260  -12.7380   -1.6087 H   0  0  0  0  0  0  0  0  0  0  0  0
   -2.5146  -14.7517    1.3204 H   0  0  0  0  0  0  0  0  0  0  0  0
   -1.1563  -14.9659    2.4579 H   0  0  0  0  0  0  0  0  0  0  0  0
   -2.0033  -12.6439    3.5289 H   0  0  0  0  0  0  0  0  0  0  0  0
   -3.6092  -13.2387    2.8226 H   0  0  0  0  0  0  0  0  0  0  0  0
   -2.6826  -14.2352    3.9645 H   0  0  0  0  0  0  0  0  0  0  0  0
   -3.5043   -9.1664   -3.3279 H   0  0  0  0  0  0  0  0  0  0  0  0
   -4.6354   -5.6327   -6.3248 H   0  0  0  0  0  0  0  0  0  0  0  0
   -4.0568   -4.8759   -9.8208 H   0  0  0  0  0  0  0  0  0  0  0  0
   -5.8467   -3.3172  -10.3909 H   0  0  0  0  0  0  0  0  0  0  0  0
   -6.2430   -1.3825   -8.9731 H   0  0  0  0  0  0  0  0  0  0  0  0
   -5.7831    0.7379   -8.0126 H   0  0  0  0  0  0  0  0  0  0  0  0
   -5.8963    1.0321   -6.2528 H   0  0  0  0  0  0  0  0  0  0  0  0
   -7.8975   -0.0057   -7.9802 H   0  0  0  0  0  0  0  0  0  0  0  0
   -7.4613   -1.3759   -6.9202 H   0  0  0  0  0  0  0  0  0  0  0  0
   -8.0034    0.1558   -6.2241 H   0  0  0  0  0  0  0  0  0  0  0  0
   -3.0642   -2.5591   -6.3989 H   0  0  0  0  0  0  0  0  0  0  0  0
    1.2683   -6.8694   -5.4903 H   0  0  0  0  0  0  0  0  0  0  0  0
    3.0051   -8.5948   -5.0656 H   0  0  0  0  0  0  0  0  0  0  0  0
    3.3507  -10.3885   -6.7795 H   0  0  0  0  0  0  0  0  0  0  0  0
    2.8358  -12.2377   -7.7976 H   0  0  0  0  0  0  0  0  0  0  0  0
    4.0960  -11.2324   -8.5983 H   0  0  0  0  0  0  0  0  0  0  0  0
    4.0566  -13.3262   -9.7436 H   0  0  0  0  0  0  0  0  0  0  0  0
    2.2448  -13.2936   -9.9488 H   0  0  0  0  0  0  0  0  0  0  0  0
    3.2680  -12.0971  -10.8135 H   0  0  0  0  0  0  0  0  0  0  0  0
    0.2882   -8.7286   -9.1946 H   0  0  0  0  0  0  0  0  0  0  0  0
    2.1026   -5.5127   -8.3958 H   0  0  0  0  0  0  0  0  0  0  0  0
    3.3866   -3.7353   -7.0412 H   0  0  0  0  0  0  0  0  0  0  0  0
    3.6921   -4.3027   -5.1613 H   0  0  0  0  0  0  0  0  0  0  0  0
    4.8491   -5.6848   -3.5228 H   0  0  0  0  0  0  0  0  0  0  0  0
    6.7600   -7.1396   -1.8383 H   0  0  0  0  0  0  0  0  0  0  0  0
    7.2415   -6.7079   -0.1694 H   0  0  0  0  0  0  0  0  0  0  0  0
    5.0471   -7.1538    0.3220 H   0  0  0  0  0  0  0  0  0  0  0  0
    4.8827   -5.4340   -0.1050 H   0  0  0  0  0  0  0  0  0  0  0  0
    4.4458   -6.7084   -1.3121 H   0  0  0  0  0  0  0  0  0  0  0  0
    2.6918    1.1580   -9.6627 H   0  0  0  0  0  0  0  0  0  0  0  0
    1.9364    3.3028  -10.6367 H   0  0  0  0  0  0  0  0  0  0  0  0
    0.2083    7.6293   -8.7073 H   0  0  0  0  0  0  0  0  0  0  0  0
   -0.3656    5.9131   -8.7434 H   0  0  0  0  0  0  0  0  0  0  0  0
    0.5667    5.4303   -6.6445 H   0  0  0  0  0  0  0  0  0  0  0  0
   -0.2953    6.9839   -6.4697 H   0  0  0  0  0  0  0  0  0  0  0  0
    1.5347    6.9317   -6.6259 H   0  0  0  0  0  0  0  0  0  0  0  0
    4.3283    3.1950   -5.3493 H   0  0  0  0  0  0  0  0  0  0  0  0
    4.4217    4.7687   -3.7160 H   0  0  0  0  0  0  0  0  0  0  0  0
    5.8056    7.4684   -3.0846 H   0  0  0  0  0  0  0  0  0  0  0  0
    5.1696    9.0052   -4.9637 H   0  0  0  0  0  0  0  0  0  0  0  0
    2.8744    9.5437   -5.3568 H   0  0  0  0  0  0  0  0  0  0  0  0
   -0.0842    6.9669   -3.1735 H   0  0  0  0  0  0  0  0  0  0  0  0
    0.0252    8.3276   -2.0520 H   0  0  0  0  0  0  0  0  0  0  0  0
   -2.3064    7.6673   -3.5241 H   0  0  0  0  0  0  0  0  0  0  0  0
   -1.6809    9.1322   -4.3467 H   0  0  0  0  0  0  0  0  0  0  0  0
   -2.0244    9.1499   -2.6147 H   0  0  0  0  0  0  0  0  0  0  0  0
    1.7019    7.1074   -2.0923 H   0  0  0  0  0  0  0  0  0  0  0  0
    3.0124    3.2541    2.3601 H   0  0  0  0  0  0  0  0  0  0  0  0
    3.5858    1.9519    4.2871 H   0  0  0  0  0  0  0  0  0  0  0  0
    5.9204    1.8985    5.1854 H   0  0  0  0  0  0  0  0  0  0  0  0
    7.7834    2.8017    6.1902 H   0  0  0  0  0  0  0  0  0  0  0  0
    8.1302    1.3737    5.1729 H   0  0  0  0  0  0  0  0  0  0  0  0
    9.9932    2.8417    6.6634 H   0  0  0  0  0  0  0  0  0  0  0  0
   10.1301    3.6546    5.1017 H   0  0  0  0  0  0  0  0  0  0  0  0
   10.3949    1.8670    5.1870 H   0  0  0  0  0  0  0  0  0  0  0  0
    7.1256    4.5338    2.0836 H   0  0  0  0  0  0  0  0  0  0  0  0
    4.1834    6.3499    3.2422 H   0  0  0  0  0  0  0  0  0  0  0  0
    2.2470    7.8192    4.6517 H   0  0  0  0  0  0  0  0  0  0  0  0
    1.9820    7.2889    6.6417 H   0  0  0  0  0  0  0  0  0  0  0  0
    0.7068    5.7353    8.0363 H   0  0  0  0  0  0  0  0  0  0  0  0
   -3.7995    6.4625    8.0495 H   0  0  0  0  0  0  0  0  0  0  0  0
   -3.0250    4.8419    8.1442 H   0  0  0  0  0  0  0  0  0  0  0  0
   -5.1099    6.1533    9.9674 H   0  0  0  0  0  0  0  0  0  0  0  0
   -5.0912    4.5128    9.3096 H   0  0  0  0  0  0  0  0  0  0  0  0
   -4.0225    4.9655   10.6874 H   0  0  0  0  0  0  0  0  0  0  0  0
    0.2223   14.9326    4.0334 H   0  0  0  0  0  0  0  0  0  0  0  0
    1.1661   16.5547    2.4332 H   0  0  0  0  0  0  0  0  0  0  0  0
    3.7082   16.4582   -1.7372 H   0  0  0  0  0  0  0  0  0  0  0  0
    2.1127   15.9766   -1.1064 H   0  0  0  0  0  0  0  0  0  0  0  0
    3.1057   13.6164   -0.6831 H   0  0  0  0  0  0  0  0  0  0  0  0
    2.8445   14.2260   -2.3182 H   0  0  0  0  0  0  0  0  0  0  0  0
    4.5093   14.1993   -1.7416 H   0  0  0  0  0  0  0  0  0  0  0  0
    0.4203   14.6494    6.0937 H   0  0  0  0  0  0  0  0  0  0  0  0
   -0.8834   14.2295    8.2295 H   0  0  0  0  0  0  0  0  0  0  0  0
  1  2  2  0
  2  3  1  0
  3  4  2  0
  4  5  1  0
  5  6  2  0
  6  7  1  0
  7  8  2  0
  8  9  1  0
  9 10  1  0
 10 11  1  0
 11 12  1  0
  9 13  2  0
  4 14  1  0
 14 15  2  0
 15 16  1  0
 16 17  1  0
 17 18  2  0
 18 19  1  0
 19 20  2  0
 20 21  1  0
 21 22  1  0
 22 23  1  0
 23 24  1  0
 21 25  2  0
 16 26  2  0
 26 27  1  0
 15 28  1  0
 28 29  2  0
 29 30  1  0
 29 31  1  0
 31 32  2  0
 32 33  1  0
 33 34  2  0
 34 35  1  0
 35 36  2  0
 36 37  1  0
 37 38  2  0
 38 39  1  0
 39 40  1  0
 40 41  1  0
 38 42  1  0
 34 43  1  0
 43 44  2  0
 44 45  1  0
 45 46  1  0
 46 47  2  0
 47 48  1  0
 48 49  2  0
 49 50  1  0
 50 51  1  0
 51 52  1  0
 49 53  1  0
 45 54  2  0
 54 55  1  0
 44 56  1  0
 56 57  2  0
 57 58  1  0
 57 59  1  0
 59 60  2  0
 60 61  1  0
 61 62  2  0
 62 63  1  0
 63 64  2  0
 64 65  1  0
 65 66  2  0
 66 67  1  0
 67 68  1  0
 68 69  1  0
 69 70  1  0
 67 71  2  0
 62 72  1  0
 72 73  2  0
 73 74  1  0
 74 75  1  0
 75 76  2  0
 76 77  1  0
 77 78  2  0
 78 79  1  0
 79 80  1  0
 80 81  1  0
 81 82  1  0
 79 83  2  0
 74 84  2  0
 84 85  1  0
 73 86  1  0
 86 87  2  0
 87 88  1  0
 87 89  1  0
 89 90  2  0
 90 91  1  0
 91 92  2  0
 92 93  1  0
 93 94  2  0
 94 95  1  0
 95 96  2  0
 96 97  1  0
 97 98  1  0
 98 99  1  0
 96100  1  0
 92101  1  0
101102  2  0
102103  1  0
103104  1  0
104105  2  0
105106  1  0
106107  2  0
107108  1  0
108109  1  0
109110  1  0
107111  1  0
103112  2  0
112113  1  0
102114  1  0
114115  2  0
115116  1  0
115117  1  0
117118  2  0
118119  1  0
119120  2  0
120121  1  0
121122  2  0
122123  1  0
123124  2  0
124125  1  0
125126  1  0
126127  1  0
127128  1  0
125129  2  0
120130  1  0
130131  2  0
131132  1  0
132133  1  0
133134  2  0
134135  1  0
135136  2  0
136137  1  0
137138  1  0
138139  1  0
139140  1  0
137141  2  0
132142  2  0
142143  1  0
131144  1  0
144145  2  0
145146  1  0
145147  1  0
147148  2  0
148149  1  0
149150  2  0
150151  1  0
151152  2  0
152153  1  0
153154  2  0
154155  1  0
155156  1  0
156157  1  0
154158  1  0
150159  1  0
159160  2  0
160161  1  0
161162  1  0
162163  2  0
163164  1  0
164165  2  0
165166  1  0
166167  1  0
167168  1  0
165169  1  0
161170  2  0
170171  1  0
160172  1  0
172173  2  0
173174  1  0
 27  1  1  0
 55 31  1  0
 85 59  1  0
113 89  1  0
143117  1  0
171147  1  0
 26  3  1  0
 54 33  1  0
 84 61  1  0
112 91  1  0
142119  1  0
170149  1  0
 13  5  1  0
 30 14  1  0
 42 35  1  0
 58 43  1  0
 71 63  1  0
 88 72  1  0
100 93  1  0
116101  1  0
129121  1  0
146130  1  0
158151  1  0
174159  1  0
 25 17  1  0
 53 46  1  0
 83 75  1  0
111104  1  0
141133  1  0
169162  1  0
  1175  1  0
  2176  1  0
  6177  1  0
  7178  1  0
  8179  1  0
 11180  1  0
 11181  1  0
 12182  1  0
 12183  1  0
 12184  1  0
 13185  1  0
 18186  1  0
 19187  1  0
 20188  1  0
 23189  1  0
 23190  1  0
 24191  1  0
 24192  1  0
 24193  1  0
 25194  1  0
 28195  1  0
 32196  1  0
 36197  1  0
 37198  1  0
 40199  1  0
 40200  1  0
 41201  1  0
 41202  1  0
 41203  1  0
 47204  1  0
 48205  1  0
 51206  1  0
 51207  1  0
 52208  1  0
 52209  1  0
 52210  1  0
 56211  1  0
 60212  1  0
 64213  1  0
 65214  1  0
 66215  1  0
 69216  1  0
 69217  1  0
 70218  1  0
 70219  1  0
 70220  1  0
 71221  1  0
 76222  1  0
 77223  1  0
 78224  1  0
 81225  1  0
 81226  1  0
 82227  1  0
 82228  1  0
 82229  1  0
 83230  1  0
 86231  1  0
 90232  1  0
 94233  1  0
 95234  1  0
 98235  1  0
 98236  1  0
 99237  1  0
 99238  1  0
 99239  1  0
105240  1  0
106241  1  0
109242  1  0
109243  1  0
110244  1  0
110245  1  0
110246  1  0
114247  1  0
118248  1  0
122249  1  0
123250  1  0
124251  1  0
127252  1  0
127253  1  0
128254  1  0
128255  1  0
128256  1  0
129257  1  0
134258  1  0
135259  1  0
136260  1  0
139261  1  0
139262  1  0
140263  1  0
140264  1  0
140265  1  0
141266  1  0
144267  1  0
148268  1  0
152269  1  0
153270  1  0
156271  1  0
156272  1  0
157273  1  0
157274  1  0
157275  1  0
163276  1  0
164277  1  0
167278  1  0
167279  1  0
168280  1  0
168281  1  0
168282  1  0
172283  1  0
173284  1  0
M  END

