
     RDKit          3D

142155  0  0  0  0  0  0  0  0999 V2000
    1.1404    0.0982   10.4216 C   0  0  0  0  0  0  0  0  0  0  0  0
    1.6920   -0.3389    9.2540 C   0  0  0  0  0  0  0  0  0  0  0  0
    0.8894   -0.3891    8.1555 C   0  0  0  0  0  0  0  0  0  0  0  0
    1.2081   -0.9250    6.9353 C   0  0  0  0  0  0  0  0  0  0  0  0
    2.5554   -0.9668    6.3766 C   0  0  0  0  0  0  0  0  0  0  0  0
    3.2363   -1.7202    5.5603 C   0  0  0  0  0  0  0  0  0  0  0  0
    4.3978   -1.3805    4.9899 C   0  0  0  0  0  0  0  0  0  0  0  0
    5.0221   -0.2034    5.1913 C   0  0  0  0  0  0  0  0  0  0  0  0
    6.5184    0.5159    4.6963 S   0  0  0  0  0  0  0  0  0  0  0  0
    6.6752    0.8554    2.9672 C   0  0  0  0  0  0  0  0  0  0  0  0
    5.8021    1.9190    2.3842 C   0  0  0  0  0  0  0  0  0  0  0  0
    3.7208    0.6133    6.4600 Se  0  0  0  0  0  2  0  0  0  0  0  0
    0.2250   -1.0923    5.9637 C   0  0  0  0  0  0  0  0  0  0  0  0
   -1.0956   -0.7085    6.1160 C   0  0  0  0  0  0  0  0  0  0  0  0
   -1.3530   -0.1031    7.3576 C   0  0  0  0  0  0  0  0  0  0  0  0
   -2.5627    0.7506    7.4568 C   0  0  0  0  0  0  0  0  0  0  0  0
   -2.6589    1.8818    8.2414 C   0  0  0  0  0  0  0  0  0  0  0  0
   -3.7229    2.6760    8.1198 C   0  0  0  0  0  0  0  0  0  0  0  0
   -4.7298    2.4692    7.3084 C   0  0  0  0  0  0  0  0  0  0  0  0
   -6.1976    3.3313    6.7964 S   0  0  0  0  0  0  0  0  0  0  0  0
   -5.5102    4.6453    5.6537 C   0  0  0  0  0  0  0  0  0  0  0  0
   -4.7337    3.9675    4.5612 C   0  0  0  0  0  0  0  0  0  0  0  0
   -4.1043    0.7538    6.4813 Se  0  0  0  0  0  2  0  0  0  0  0  0
   -0.4068    0.0167    8.3201 C   0  0  0  0  0  0  0  0  0  0  0  0
   -0.4654    0.4366    9.9930 S   0  0  0  0  0  0  0  0  0  0  0  0
   -1.9176   -0.8665    5.0798 C   0  0  0  0  0  0  0  0  0  0  0  0
   -1.3731   -1.4016    3.9521 C   0  0  0  0  0  0  0  0  0  0  0  0
    0.2549   -1.6786    4.3682 S   0  0  0  0  0  0  0  0  0  0  0  0
   -1.9372   -1.5946    2.6191 C   0  0  0  0  0  0  0  0  0  0  0  0
   -1.2135   -0.8169    1.6283 C   0  0  0  0  0  0  0  0  0  0  0  0
   -1.7174   -0.7619    0.4553 C   0  0  0  0  0  0  0  0  0  0  0  0
   -1.1387    0.0051   -0.5892 C   0  0  0  0  0  0  0  0  0  0  0  0
   -0.1638    1.0338   -0.2997 C   0  0  0  0  0  0  0  0  0  0  0  0
    0.8116    1.7321   -0.9027 C   0  0  0  0  0  0  0  0  0  0  0  0
    1.3408    2.8171   -0.3041 C   0  0  0  0  0  0  0  0  0  0  0  0
    1.0027    3.3349    0.8853 C   0  0  0  0  0  0  0  0  0  0  0  0
    1.4477    4.7481    1.8134 S   0  0  0  0  0  0  0  0  0  0  0  0
    2.7962    4.5629    2.9635 C   0  0  0  0  0  0  0  0  0  0  0  0
    2.9944    5.9632    3.6058 C   0  0  0  0  0  0  0  0  0  0  0  0
   -0.3871    2.0558    1.3548 Se  0  0  0  0  0  2  0  0  0  0  0  0
   -1.7749   -0.0310   -1.8012 C   0  0  0  0  0  0  0  0  0  0  0  0
   -2.8836   -0.6969   -2.1264 C   0  0  0  0  0  0  0  0  0  0  0  0
   -3.4804   -1.4225   -1.0934 C   0  0  0  0  0  0  0  0  0  0  0  0
   -4.8023   -2.0435   -1.2215 C   0  0  0  0  0  0  0  0  0  0  0  0
   -5.8827   -1.8252   -1.9819 C   0  0  0  0  0  0  0  0  0  0  0  0
   -6.9469   -2.6380   -1.9754 C   0  0  0  0  0  0  0  0  0  0  0  0
   -7.0612   -3.7220   -1.2409 C   0  0  0  0  0  0  0  0  0  0  0  0
   -8.1060   -5.1027   -0.9084 S   0  0  0  0  0  0  0  0  0  0  0  0
   -7.4761   -6.6263   -1.5311 C   0  0  0  0  0  0  0  0  0  0  0  0
   -7.6097   -6.8359   -3.0003 C   0  0  0  0  0  0  0  0  0  0  0  0
   -5.2830   -3.6124   -0.2802 Se  0  0  0  0  0  2  0  0  0  0  0  0
   -2.8807   -1.4353    0.1698 C   0  0  0  0  0  0  0  0  0  0  0  0
   -3.1858   -2.1493    1.6802 S   0  0  0  0  0  0  0  0  0  0  0  0
   -3.2622   -0.6862   -3.4255 C   0  0  0  0  0  0  0  0  0  0  0  0
   -2.5575   -0.0273   -4.2965 C   0  0  0  0  0  0  0  0  0  0  0  0
   -1.2114    0.6231   -3.3012 S   0  0  0  0  0  0  0  0  0  0  0  0
   -2.3844    0.1646   -5.7025 C   0  0  0  0  0  0  0  0  0  0  0  0
   -1.2271    1.3525   -6.2388 S   0  0  0  0  0  0  0  0  0  0  0  0
   -1.3040    0.9109   -7.9627 C   0  0  0  0  0  0  0  0  0  0  0  0
   -2.1339   -0.0224   -7.9407 C   0  0  0  0  0  0  0  0  0  0  0  0
   -2.7505   -0.4844   -6.8406 C   0  0  0  0  0  0  0  0  0  0  0  0
   -0.3895    1.7354   -8.8222 C   0  0  0  0  0  0  0  0  0  0  0  0
    0.2329    2.2849   -9.4201 C   0  0  0  0  0  0  0  0  0  0  0  0
    1.0240    2.9813  -10.2073 C   0  0  0  0  0  0  0  0  0  0  0  0
    2.3937    2.7928   -9.9808 C   0  0  0  0  0  0  0  0  0  0  0  0
    2.8984    1.8946   -8.8949 C   0  0  0  0  0  0  0  0  0  0  0  0
    4.3046    0.9822   -8.9200 S   0  0  0  0  0  0  0  0  0  0  0  0
    4.4512    0.4674   -7.1668 C   0  0  0  0  0  0  0  0  0  0  0  0
    3.3517    1.0875   -6.7494 C   0  0  0  0  0  0  0  0  0  0  0  0
    2.5631    1.8087   -7.5605 C   0  0  0  0  0  0  0  0  0  0  0  0
    5.5310   -0.2463   -6.7947 C   0  0  0  0  0  0  0  0  0  0  0  0
    6.6190   -0.9421   -6.4114 C   0  0  0  0  0  0  0  0  0  0  0  0
    7.7312   -1.6368   -6.0398 C   0  0  0  0  0  0  0  0  0  0  0  0
    8.0012   -2.3319   -4.9845 C   0  0  0  0  0  0  0  0  0  0  0  0
    7.1341   -2.5909   -3.8498 C   0  0  0  0  0  0  0  0  0  0  0  0
    5.6535   -3.4835   -3.8572 S   0  0  0  0  0  0  0  0  0  0  0  0
    5.1464   -3.2451   -2.2660 C   0  0  0  0  0  0  0  0  0  0  0  0
    6.1918   -2.4471   -1.7254 C   0  0  0  0  0  0  0  0  0  0  0  0
    7.1863   -2.1205   -2.5382 C   0  0  0  0  0  0  0  0  0  0  0  0
    3.8847   -3.3504   -1.7088 C   0  0  0  0  0  0  0  0  0  0  0  0
    2.5852   -3.4507   -1.1094 C   0  0  0  0  0  0  0  0  0  0  0  0
    1.5130   -3.5424   -0.6216 C   0  0  0  0  0  0  0  0  0  0  0  0
    1.3732   -5.2220   -0.4332 C   0  0  0  0  0  0  0  0  0  0  0  0
   -0.0573   -5.3122   -0.2254 C   0  0  0  0  0  0  0  0  0  0  0  0
   -0.4892   -5.2609   -2.1181 S   0  0  0  0  0  0  0  0  0  0  0  0
   -2.1714   -5.4132   -2.0645 C   0  0  0  0  0  0  0  0  0  0  0  0
   -2.3543   -5.4679   -0.7641 C   0  0  0  0  0  0  0  0  0  0  0  0
   -1.2989   -5.4067    0.1210 C   0  0  0  0  0  0  0  0  0  0  0  0
   -2.8734   -5.3504   -3.3545 C   0  0  0  0  0  0  0  0  0  0  0  0
   -3.3994   -5.3202   -4.3162 C   0  0  0  0  0  0  0  0  0  0  0  0
   -4.1638   -5.2567   -5.7025 C   0  0  0  0  0  0  0  0  0  0  0  0
   -5.1073   -4.4671   -5.9786 C   0  0  0  0  0  0  0  0  0  0  0  0
    1.6519    0.1574   11.4011 H   0  0  0  0  0  0  0  0  0  0  0  0
    2.7811   -0.5974    9.2421 H   0  0  0  0  0  0  0  0  0  0  0  0
    2.7826   -2.7489    5.2962 H   0  0  0  0  0  0  0  0  0  0  0  0
    4.9579   -2.1185    4.2981 H   0  0  0  0  0  0  0  0  0  0  0  0
    7.7532    1.1653    2.7041 H   0  0  0  0  0  0  0  0  0  0  0  0
    6.5643   -0.0760    2.3151 H   0  0  0  0  0  0  0  0  0  0  0  0
    6.4130    2.7544    1.9132 H   0  0  0  0  0  0  0  0  0  0  0  0
    5.2152    1.5247    1.5078 H   0  0  0  0  0  0  0  0  0  0  0  0
    5.1644    2.3545    3.1657 H   0  0  0  0  0  0  0  0  0  0  0  0
   -1.8081    2.1365    8.9187 H   0  0  0  0  0  0  0  0  0  0  0  0
   -3.7497    3.6763    8.7126 H   0  0  0  0  0  0  0  0  0  0  0  0
   -4.7321    5.2017    6.2678 H   0  0  0  0  0  0  0  0  0  0  0  0
   -6.2984    5.2285    5.2266 H   0  0  0  0  0  0  0  0  0  0  0  0
   -5.2041    3.1039    4.1057 H   0  0  0  0  0  0  0  0  0  0  0  0
   -3.6977    3.6465    4.9430 H   0  0  0  0  0  0  0  0  0  0  0  0
   -4.5498    4.7460    3.7897 H   0  0  0  0  0  0  0  0  0  0  0  0
   -2.9927   -0.5853    5.0139 H   0  0  0  0  0  0  0  0  0  0  0  0
   -0.2481   -0.3780    1.9924 H   0  0  0  0  0  0  0  0  0  0  0  0
    1.1810    1.3564   -1.9046 H   0  0  0  0  0  0  0  0  0  0  0  0
    2.1995    3.3860   -0.8453 H   0  0  0  0  0  0  0  0  0  0  0  0
    3.7107    4.3472    2.3757 H   0  0  0  0  0  0  0  0  0  0  0  0
    2.6525    3.7933    3.7141 H   0  0  0  0  0  0  0  0  0  0  0  0
    4.0643    5.9470    3.9739 H   0  0  0  0  0  0  0  0  0  0  0  0
    2.2874    5.9538    4.4809 H   0  0  0  0  0  0  0  0  0  0  0  0
    2.7403    6.7365    2.9157 H   0  0  0  0  0  0  0  0  0  0  0  0
   -5.9075   -0.8846   -2.6267 H   0  0  0  0  0  0  0  0  0  0  0  0
   -7.8663   -2.3698   -2.6233 H   0  0  0  0  0  0  0  0  0  0  0  0
   -6.3642   -6.6869   -1.2746 H   0  0  0  0  0  0  0  0  0  0  0  0
   -7.9210   -7.4711   -0.9335 H   0  0  0  0  0  0  0  0  0  0  0  0
   -7.4646   -7.9751   -3.1616 H   0  0  0  0  0  0  0  0  0  0  0  0
   -8.6401   -6.5909   -3.3438 H   0  0  0  0  0  0  0  0  0  0  0  0
   -6.8193   -6.4003   -3.6120 H   0  0  0  0  0  0  0  0  0  0  0  0
   -4.1675   -1.2520   -3.8337 H   0  0  0  0  0  0  0  0  0  0  0  0
   -2.4752   -0.5425   -8.9387 H   0  0  0  0  0  0  0  0  0  0  0  0
   -3.4632   -1.3365   -6.7746 H   0  0  0  0  0  0  0  0  0  0  0  0
    0.7986    3.8293  -10.8417 H   0  0  0  0  0  0  0  0  0  0  0  0
    3.0339    3.2812  -10.6381 H   0  0  0  0  0  0  0  0  0  0  0  0
    3.1281    0.9885   -5.6418 H   0  0  0  0  0  0  0  0  0  0  0  0
    1.6708    2.3482   -7.1299 H   0  0  0  0  0  0  0  0  0  0  0  0
    8.6367   -1.6377   -6.7561 H   0  0  0  0  0  0  0  0  0  0  0  0
    9.0358   -2.7081   -4.7761 H   0  0  0  0  0  0  0  0  0  0  0  0
    6.1347   -2.1164   -0.6689 H   0  0  0  0  0  0  0  0  0  0  0  0
    8.0319   -1.4469   -2.2715 H   0  0  0  0  0  0  0  0  0  0  0  0
    0.5834   -3.3127   -0.2008 H   0  0  0  0  0  0  0  0  0  0  0  0
    2.2327   -5.5541   -0.5094 H   0  0  0  0  0  0  0  0  0  0  0  0
   -3.3973   -5.6414   -0.3776 H   0  0  0  0  0  0  0  0  0  0  0  0
   -1.5615   -5.4214    1.2518 H   0  0  0  0  0  0  0  0  0  0  0  0
   -3.7639   -6.0186   -6.3246 H   0  0  0  0  0  0  0  0  0  0  0  0
   -5.7598   -3.7034   -5.7138 H   0  0  0  0  0  0  0  0  0  0  0  0
   -5.3354   -4.6032   -7.1754 H   0  0  0  0  0  0  0  0  0  0  0  0
  1  2  2  0
  2  3  1  0
  3  4  2  0
  4  5  1  0
  5  6  2  0
  6  7  1  0
  7  8  2  0
  8  9  1  0
  9 10  1  0
 10 11  1  0
  8 12  1  0
  4 13  1  0
 13 14  2  0
 14 15  1  0
 15 16  1  0
 16 17  2  0
 17 18  1  0
 18 19  2  0
 19 20  1  0
 20 21  1  0
 21 22  1  0
 19 23  1  0
 15 24  2  0
 24 25  1  0
 14 26  1  0
 26 27  2  0
 27 28  1  0
 27 29  1  0
 29 30  2  0
 30 31  1  0
 31 32  2  0
 32 33  1  0
 33 34  2  0
 34 35  1  0
 35 36  2  0
 36 37  1  0
 37 38  1  0
 38 39  1  0
 36 40  1  0
 32 41  1  0
 41 42  2  0
 42 43  1  0
 43 44  1  0
 44 45  2  0
 45 46  1  0
 46 47  2  0
 47 48  1  0
 48 49  1  0
 49 50  1  0
 47 51  1  0
 43 52  2  0
 52 53  1  0
 42 54  1  0
 54 55  2  0
 55 56  1  0
 55 57  1  0
 57 58  1  0
 58 59  1  0
 59 60  2  0
 60 61  1  0
 59 62  1  0
 62 63  3  0
 63 64  1  0
 64 65  2  3
 65 66  1  0
 66 67  1  0
 67 68  1  0
 68 69  2  0
 69 70  1  0
 68 71  1  0
 71 72  3  0
 72 73  1  0
 73 74  2  3
 74 75  1  0
 75 76  1  0
 76 77  1  0
 77 78  2  0
 78 79  1  0
 77 80  1  0
 80 81  3  0
 81 82  1  0
 82 83  2  3
 83 84  1  0
 84 85  1  0
 85 86  1  0
 86 87  2  0
 87 88  1  0
 86 89  1  0
 89 90  3  0
 90 91  1  0
 91 92  2  3
 25  1  1  0
 53 29  1  0
 61 57  2  0
 70 66  2  0
 79 75  2  0
 88 84  2  0
 24  3  1  0
 52 31  1  0
 12  5  1  0
 28 13  1  0
 40 33  1  0
 56 41  1  0
 23 16  1  0
 51 44  1  0
  1 93  1  0
  2 94  1  0
  6 95  1  0
  7 96  1  0
 10 97  1  0
 10 98  1  0
 11 99  1  0
 11100  1  0
 11101  1  0
 17102  1  0
 18103  1  0
 21104  1  0
 21105  1  0
 22106  1  0
 22107  1  0
 22108  1  0
 26109  1  0
 30110  1  0
 34111  1  0
 35112  1  0
 38113  1  0
 38114  1  0
 39115  1  0
 39116  1  0
 39117  1  0
 45118  1  0
 46119  1  0
 49120  1  0
 49121  1  0
 50122  1  0
 50123  1  0
 50124  1  0
 54125  1  0
 60126  1  0
 61127  1  0
 64128  1  0
 65129  1  0
 69130  1  0
 70131  1  0
 73132  1  0
 74133  1  0
 78134  1  0
 79135  1  0
 82136  1  0
 83137  1  0
 87138  1  0
 88139  1  0
 91140  1  0
 92141  1  0
 92142  1  0
M  END

