
     RDKit          3D

181200  0  0  0  0  0  0  0  0999 V2000
   -9.4475    1.3242   -5.0421 C   0  0  0  0  0  0  0  0  0  0  0  0
   -8.2570    1.1558   -6.2450 S   0  0  0  0  0  0  0  0  0  0  0  0
   -8.7260    1.1748   -3.8729 C   0  0  0  0  0  0  0  0  0  0  0  0
   -9.3621    1.1976   -2.5211 C   0  0  0  0  0  0  0  0  0  0  0  0
  -10.5771    1.3924   -2.3460 O   0  0  0  0  0  0  0  0  0  0  0  0
   -8.5739    0.9891   -1.3085 C   0  0  0  0  0  0  0  0  0  0  0  0
   -8.8956    0.9499    0.0409 C   0  0  0  0  0  0  0  0  0  0  0  0
   -7.7787    0.7113    0.7679 N   0  0  0  0  0  0  0  0  0  0  0  0
   -7.7103    0.5821    2.1906 C   0  0  0  0  0  0  0  0  0  0  0  0
   -7.4263    1.8482    2.9424 C   0  0  0  0  0  0  0  0  0  0  0  0
   -6.7666    0.6024   -0.1334 C   0  0  0  0  0  0  0  0  0  0  0  0
   -7.2500    0.7731   -1.4177 C   0  0  0  0  0  0  0  0  0  0  0  0
   -6.6263    0.7505   -2.7371 C   0  0  0  0  0  0  0  0  0  0  0  0
   -5.3914    0.5399   -2.7359 O   0  0  0  0  0  0  0  0  0  0  0  0
   -7.4161    0.9621   -3.9851 C   0  0  0  0  0  0  0  0  0  0  0  0
   -6.8955    0.9068   -5.2633 C   0  0  0  0  0  0  0  0  0  0  0  0
   -5.5319    0.5672   -5.6418 C   0  0  0  0  0  0  0  0  0  0  0  0
   -5.1079    0.1058   -6.7919 C   0  0  0  0  0  0  0  0  0  0  0  0
   -3.6296   -0.1343   -6.8122 C   0  0  0  0  0  0  0  0  0  0  0  0
   -2.6973    0.4821   -6.0317 C   0  0  0  0  0  0  0  0  0  0  0  0
   -1.4640   -0.0663   -5.9971 C   0  0  0  0  0  0  0  0  0  0  0  0
   -0.3889    0.3498   -5.1819 C   0  0  0  0  0  0  0  0  0  0  0  0
   -0.4254    1.5195   -4.3807 C   0  0  0  0  0  0  0  0  0  0  0  0
   -1.0711    2.4515   -3.7654 C   0  0  0  0  0  0  0  0  0  0  0  0
   -0.6267    3.5955   -3.2514 C   0  0  0  0  0  0  0  0  0  0  0  0
    0.6595    3.9673   -3.3079 C   0  0  0  0  0  0  0  0  0  0  0  0
    1.6089    5.3666   -2.7573 S   0  0  0  0  0  0  0  0  0  0  0  0
    3.3187    5.2447   -3.3778 C   0  0  0  0  0  0  0  0  0  0  0  0
    3.2754    5.4158   -4.8857 C   0  0  0  0  0  0  0  0  0  0  0  0
    1.4726    2.4732   -4.2398 Se  0  0  0  0  0  2  0  0  0  0  0  0
    0.7683   -0.4331   -5.1904 C   0  0  0  0  0  0  0  0  0  0  0  0
    0.9852   -1.5624   -5.9146 C   0  0  0  0  0  0  0  0  0  0  0  0
   -0.0620   -1.9445   -6.7358 C   0  0  0  0  0  0  0  0  0  0  0  0
   -0.0101   -2.9902   -7.7660 C   0  0  0  0  0  0  0  0  0  0  0  0
    0.9650   -3.6867   -8.3602 C   0  0  0  0  0  0  0  0  0  0  0  0
    0.7217   -4.6392   -9.2599 C   0  0  0  0  0  0  0  0  0  0  0  0
   -0.4856   -5.0022   -9.6672 C   0  0  0  0  0  0  0  0  0  0  0  0
   -1.2100   -6.1527  -10.7747 S   0  0  0  0  0  0  0  0  0  0  0  0
   -1.2797   -5.5525  -12.4819 C   0  0  0  0  0  0  0  0  0  0  0  0
   -2.1686   -4.3784  -12.6843 C   0  0  0  0  0  0  0  0  0  0  0  0
   -1.5558   -3.7432   -8.5543 Se  0  0  0  0  0  2  0  0  0  0  0  0
   -1.2450   -1.1837   -6.7390 C   0  0  0  0  0  0  0  0  0  0  0  0
   -2.7733   -1.4416   -7.4841 S   0  0  0  0  0  0  0  0  0  0  0  0
    2.1072   -2.2533   -5.6128 C   0  0  0  0  0  0  0  0  0  0  0  0
    2.9278   -1.8068   -4.6361 C   0  0  0  0  0  0  0  0  0  0  0  0
    2.1071   -0.3523   -4.1315 S   0  0  0  0  0  0  0  0  0  0  0  0
    4.0355   -2.4014   -3.8614 C   0  0  0  0  0  0  0  0  0  0  0  0
    5.3866   -1.6341   -3.2200 S   0  0  0  0  0  0  0  0  0  0  0  0
    4.1231   -3.6671   -3.3289 C   0  0  0  0  0  0  0  0  0  0  0  0
    3.0631   -4.7034   -3.4674 C   0  0  0  0  0  0  0  0  0  0  0  0
    2.0445   -4.5442   -4.1990 O   0  0  0  0  0  0  0  0  0  0  0  0
    3.1063   -5.9767   -2.7720 C   0  0  0  0  0  0  0  0  0  0  0  0
    2.2078   -7.0322   -2.6928 C   0  0  0  0  0  0  0  0  0  0  0  0
    2.7131   -7.9300   -1.8336 N   0  0  0  0  0  0  0  0  0  0  0  0
    2.0883   -9.1670   -1.3485 C   0  0  0  0  0  0  0  0  0  0  0  0
    1.2879   -8.8162   -0.0739 C   0  0  0  0  0  0  0  0  0  0  0  0
    3.9011   -7.4786   -1.3693 C   0  0  0  0  0  0  0  0  0  0  0  0
    4.1531   -6.2438   -1.9584 C   0  0  0  0  0  0  0  0  0  0  0  0
    5.2021   -5.2387   -1.8157 C   0  0  0  0  0  0  0  0  0  0  0  0
    6.1501   -5.5640   -1.0445 O   0  0  0  0  0  0  0  0  0  0  0  0
    5.1537   -3.9357   -2.5243 C   0  0  0  0  0  0  0  0  0  0  0  0
    6.0657   -2.8827   -2.2855 C   0  0  0  0  0  0  0  0  0  0  0  0
    7.1355   -2.9591   -1.2850 C   0  0  0  0  0  0  0  0  0  0  0  0
    7.4781   -2.1427   -0.3657 C   0  0  0  0  0  0  0  0  0  0  0  0
    6.8469   -0.8721   -0.0613 C   0  0  0  0  0  0  0  0  0  0  0  0
    5.6800   -0.0095   -0.9336 S   0  0  0  0  0  0  0  0  0  0  0  0
    6.9672   -0.1212    1.1097 C   0  0  0  0  0  0  0  0  0  0  0  0
    7.9056   -0.4297    2.2098 C   0  0  0  0  0  0  0  0  0  0  0  0
    8.6618   -1.4579    2.1678 O   0  0  0  0  0  0  0  0  0  0  0  0
    8.0808    0.3600    3.4181 C   0  0  0  0  0  0  0  0  0  0  0  0
    8.8648    0.2891    4.5412 C   0  0  0  0  0  0  0  0  0  0  0  0
    8.5918    1.3352    5.3395 N   0  0  0  0  0  0  0  0  0  0  0  0
    9.1697    1.6721    6.6293 C   0  0  0  0  0  0  0  0  0  0  0  0
    8.3136    0.9636    7.6680 C   0  0  0  0  0  0  0  0  0  0  0  0
    7.6173    2.0859    4.7139 C   0  0  0  0  0  0  0  0  0  0  0  0
    7.2805    1.5005    3.5134 C   0  0  0  0  0  0  0  0  0  0  0  0
    6.3695    1.7973    2.4425 C   0  0  0  0  0  0  0  0  0  0  0  0
    5.6679    2.8622    2.5894 O   0  0  0  0  0  0  0  0  0  0  0  0
    6.1988    0.9715    1.2114 C   0  0  0  0  0  0  0  0  0  0  0  0
    5.3545    1.2769    0.1801 C   0  0  0  0  0  0  0  0  0  0  0  0
    4.4832    2.4157   -0.0905 C   0  0  0  0  0  0  0  0  0  0  0  0
    3.4369    2.8456    0.4718 C   0  0  0  0  0  0  0  0  0  0  0  0
    2.6678    2.3770    1.6102 C   0  0  0  0  0  0  0  0  0  0  0  0
    2.9826    1.1365    2.7439 S   0  0  0  0  0  0  0  0  0  0  0  0
    1.3763    2.7757    1.9749 C   0  0  0  0  0  0  0  0  0  0  0  0
    0.6143    3.8802    1.3184 C   0  0  0  0  0  0  0  0  0  0  0  0
    1.0639    4.5372    0.3525 O   0  0  0  0  0  0  0  0  0  0  0  0
   -0.7161    4.2846    1.7560 C   0  0  0  0  0  0  0  0  0  0  0  0
   -1.6144    5.2519    1.3477 C   0  0  0  0  0  0  0  0  0  0  0  0
   -2.6932    5.1578    2.1460 N   0  0  0  0  0  0  0  0  0  0  0  0
   -3.8493    6.0218    1.9945 C   0  0  0  0  0  0  0  0  0  0  0  0
   -3.5969    7.2484    2.8468 C   0  0  0  0  0  0  0  0  0  0  0  0
   -2.5487    4.1963    3.0441 C   0  0  0  0  0  0  0  0  0  0  0  0
   -1.2889    3.6464    2.7885 C   0  0  0  0  0  0  0  0  0  0  0  0
   -0.5566    2.5714    3.4292 C   0  0  0  0  0  0  0  0  0  0  0  0
   -1.0828    1.9713    4.3940 O   0  0  0  0  0  0  0  0  0  0  0  0
    0.8109    2.1324    3.0001 C   0  0  0  0  0  0  0  0  0  0  0  0
    1.5221    1.1398    3.6202 C   0  0  0  0  0  0  0  0  0  0  0  0
    1.2329    0.3042    4.7881 C   0  0  0  0  0  0  0  0  0  0  0  0
    0.1923   -0.4386    4.9946 C   0  0  0  0  0  0  0  0  0  0  0  0
   -0.2031   -1.2678    6.0931 C   0  0  0  0  0  0  0  0  0  0  0  0
   -1.2146   -2.6805    5.7929 S   0  0  0  0  0  0  0  0  0  0  0  0
   -0.0687   -1.3248    7.4414 C   0  0  0  0  0  0  0  0  0  0  0  0
    0.6396   -0.3116    8.2809 C   0  0  0  0  0  0  0  0  0  0  0  0
    1.2096    0.6500    7.7357 O   0  0  0  0  0  0  0  0  0  0  0  0
    0.7163   -0.3576    9.7159 C   0  0  0  0  0  0  0  0  0  0  0  0
    1.2940    0.4752   10.6778 C   0  0  0  0  0  0  0  0  0  0  0  0
    1.0258   -0.0652   11.8685 N   0  0  0  0  0  0  0  0  0  0  0  0
    1.3951    0.4577   13.1714 C   0  0  0  0  0  0  0  0  0  0  0  0
    2.7131    0.0013   13.6800 C   0  0  0  0  0  0  0  0  0  0  0  0
    0.3141   -1.1931   11.7316 C   0  0  0  0  0  0  0  0  0  0  0  0
    0.1100   -1.3934   10.3985 C   0  0  0  0  0  0  0  0  0  0  0  0
   -0.5847   -2.3905    9.6021 C   0  0  0  0  0  0  0  0  0  0  0  0
   -1.1319   -3.3203   10.2606 O   0  0  0  0  0  0  0  0  0  0  0  0
   -0.6614   -2.3272    8.1138 C   0  0  0  0  0  0  0  0  0  0  0  0
   -1.3847   -3.2408    7.3624 C   0  0  0  0  0  0  0  0  0  0  0  0
   -2.1580   -4.4157    7.8481 C   0  0  0  0  0  0  0  0  0  0  0  0
   -3.4534   -4.4638    7.6582 C   0  0  0  0  0  0  0  0  0  0  0  0
  -10.5420    1.4961   -5.1632 H   0  0  0  0  0  0  0  0  0  0  0  0
   -9.8939    1.1027    0.4382 H   0  0  0  0  0  0  0  0  0  0  0  0
   -8.7140    0.2176    2.5656 H   0  0  0  0  0  0  0  0  0  0  0  0
   -6.9984   -0.2160    2.5021 H   0  0  0  0  0  0  0  0  0  0  0  0
   -7.3927    1.5572    4.0287 H   0  0  0  0  0  0  0  0  0  0  0  0
   -8.2138    2.5839    2.8300 H   0  0  0  0  0  0  0  0  0  0  0  0
   -6.4127    2.2503    2.6905 H   0  0  0  0  0  0  0  0  0  0  0  0
   -5.7333    0.4087    0.1283 H   0  0  0  0  0  0  0  0  0  0  0  0
   -4.7820    0.7373   -4.8338 H   0  0  0  0  0  0  0  0  0  0  0  0
   -5.7318   -0.0742   -7.6083 H   0  0  0  0  0  0  0  0  0  0  0  0
   -2.9907    1.4211   -5.4897 H   0  0  0  0  0  0  0  0  0  0  0  0
   -2.2219    2.2351   -3.6206 H   0  0  0  0  0  0  0  0  0  0  0  0
   -1.3274    4.3386   -2.7285 H   0  0  0  0  0  0  0  0  0  0  0  0
    3.6559    4.2025   -3.1909 H   0  0  0  0  0  0  0  0  0  0  0  0
    3.9264    5.9814   -2.8481 H   0  0  0  0  0  0  0  0  0  0  0  0
    4.2492    5.0966   -5.2866 H   0  0  0  0  0  0  0  0  0  0  0  0
    2.4877    4.7230   -5.2624 H   0  0  0  0  0  0  0  0  0  0  0  0
    3.0062    6.4433   -5.1595 H   0  0  0  0  0  0  0  0  0  0  0  0
    2.0379   -3.4080   -8.1176 H   0  0  0  0  0  0  0  0  0  0  0  0
    1.6029   -5.2228   -9.7382 H   0  0  0  0  0  0  0  0  0  0  0  0
   -0.2438   -5.2821  -12.8457 H   0  0  0  0  0  0  0  0  0  0  0  0
   -1.5951   -6.3877  -13.1280 H   0  0  0  0  0  0  0  0  0  0  0  0
   -2.8623   -4.5507  -13.5542 H   0  0  0  0  0  0  0  0  0  0  0  0
   -1.5530   -3.4977  -12.9866 H   0  0  0  0  0  0  0  0  0  0  0  0
   -2.7507   -4.1872  -11.7681 H   0  0  0  0  0  0  0  0  0  0  0  0
    2.4257   -3.1761   -6.1502 H   0  0  0  0  0  0  0  0  0  0  0  0
    1.2658   -7.1283   -3.2261 H   0  0  0  0  0  0  0  0  0  0  0  0
    2.8473   -9.8939   -1.0685 H   0  0  0  0  0  0  0  0  0  0  0  0
    1.3804   -9.5792   -2.0710 H   0  0  0  0  0  0  0  0  0  0  0  0
    1.3324   -7.6945    0.0995 H   0  0  0  0  0  0  0  0  0  0  0  0
    0.2567   -9.1438   -0.1516 H   0  0  0  0  0  0  0  0  0  0  0  0
    1.7578   -9.2729    0.8214 H   0  0  0  0  0  0  0  0  0  0  0  0
    4.5862   -7.9294   -0.6794 H   0  0  0  0  0  0  0  0  0  0  0  0
    7.7167   -3.9184   -1.4005 H   0  0  0  0  0  0  0  0  0  0  0  0
    8.3563   -2.4053    0.2503 H   0  0  0  0  0  0  0  0  0  0  0  0
    9.6118   -0.4940    4.7527 H   0  0  0  0  0  0  0  0  0  0  0  0
   10.2047    1.3600    6.6617 H   0  0  0  0  0  0  0  0  0  0  0  0
    9.0185    2.7602    6.8035 H   0  0  0  0  0  0  0  0  0  0  0  0
    8.6716    1.1337    8.6871 H   0  0  0  0  0  0  0  0  0  0  0  0
    8.2198   -0.1239    7.4336 H   0  0  0  0  0  0  0  0  0  0  0  0
    7.2815    1.3843    7.6334 H   0  0  0  0  0  0  0  0  0  0  0  0
    7.1848    2.9936    5.0816 H   0  0  0  0  0  0  0  0  0  0  0  0
    4.8260    3.0337   -1.0017 H   0  0  0  0  0  0  0  0  0  0  0  0
    3.0175    3.7880    0.0217 H   0  0  0  0  0  0  0  0  0  0  0  0
   -1.4572    5.9425    0.5321 H   0  0  0  0  0  0  0  0  0  0  0  0
   -3.9481    6.2586    0.9160 H   0  0  0  0  0  0  0  0  0  0  0  0
   -4.7676    5.5033    2.3560 H   0  0  0  0  0  0  0  0  0  0  0  0
   -4.5843    7.6141    3.2167 H   0  0  0  0  0  0  0  0  0  0  0  0
   -2.9354    7.0238    3.7153 H   0  0  0  0  0  0  0  0  0  0  0  0
   -3.1238    8.0092    2.2009 H   0  0  0  0  0  0  0  0  0  0  0  0
   -3.2143    3.8616    3.8304 H   0  0  0  0  0  0  0  0  0  0  0  0
    2.0220    0.2817    5.5141 H   0  0  0  0  0  0  0  0  0  0  0  0
   -0.4731   -0.4360    4.0943 H   0  0  0  0  0  0  0  0  0  0  0  0
    1.8396    1.3670   10.4186 H   0  0  0  0  0  0  0  0  0  0  0  0
    1.3439    1.5892   13.0811 H   0  0  0  0  0  0  0  0  0  0  0  0
    0.6136    0.2290   13.9393 H   0  0  0  0  0  0  0  0  0  0  0  0
    2.6903   -0.2473   14.7663 H   0  0  0  0  0  0  0  0  0  0  0  0
    3.4481    0.8393   13.5647 H   0  0  0  0  0  0  0  0  0  0  0  0
    3.1570   -0.8443   13.1187 H   0  0  0  0  0  0  0  0  0  0  0  0
   -0.0587   -1.8510   12.5041 H   0  0  0  0  0  0  0  0  0  0  0  0
   -1.6026   -5.1772    8.3262 H   0  0  0  0  0  0  0  0  0  0  0  0
   -4.0450   -3.7276    7.1737 H   0  0  0  0  0  0  0  0  0  0  0  0
   -4.0128   -5.3453    8.0210 H   0  0  0  0  0  0  0  0  0  0  0  0
  1  2  1  0
  1  3  2  0
  3  4  1  0
  4  5  2  0
  4  6  1  0
  6  7  2  0
  7  8  1  0
  8  9  1  0
  9 10  1  0
  8 11  1  0
 11 12  2  0
 12 13  1  0
 13 14  2  0
 13 15  1  0
 15 16  2  0
 16 17  1  0
 17 18  2  3
 18 19  1  0
 19 20  2  0
 20 21  1  0
 21 22  2  0
 22 23  1  0
 23 24  2  0
 24 25  1  0
 25 26  2  0
 26 27  1  0
 27 28  1  0
 28 29  1  0
 26 30  1  0
 22 31  1  0
 31 32  2  0
 32 33  1  0
 33 34  1  0
 34 35  2  0
 35 36  1  0
 36 37  2  0
 37 38  1  0
 38 39  1  0
 39 40  1  0
 37 41  1  0
 33 42  2  0
 42 43  1  0
 32 44  1  0
 44 45  2  0
 45 46  1  0
 45 47  1  0
 47 48  1  0
 47 49  2  0
 49 50  1  0
 50 51  2  0
 50 52  1  0
 52 53  2  0
 53 54  1  0
 54 55  1  0
 55 56  1  0
 54 57  1  0
 57 58  2  0
 58 59  1  0
 59 60  2  0
 59 61  1  0
 61 62  2  0
 62 63  1  0
 63 64  2  3
 64 65  1  0
 65 66  1  0
 65 67  2  0
 67 68  1  0
 68 69  2  0
 68 70  1  0
 70 71  2  0
 71 72  1  0
 72 73  1  0
 73 74  1  0
 72 75  1  0
 75 76  2  0
 76 77  1  0
 77 78  2  0
 77 79  1  0
 79 80  2  0
 80 81  1  0
 81 82  2  3
 82 83  1  0
 83 84  1  0
 83 85  2  0
 85 86  1  0
 86 87  2  0
 86 88  1  0
 88 89  2  0
 89 90  1  0
 90 91  1  0
 91 92  1  0
 90 93  1  0
 93 94  2  0
 94 95  1  0
 95 96  2  0
 95 97  1  0
 97 98  2  0
 98 99  1  0
 99100  2  3
100101  1  0
101102  1  0
101103  2  0
103104  1  0
104105  2  0
104106  1  0
106107  2  0
107108  1  0
108109  1  0
109110  1  0
108111  1  0
111112  2  0
112113  1  0
113114  2  0
113115  1  0
115116  2  0
116117  1  0
117118  2  3
 16  2  1  0
 43 19  1  0
 62 48  1  0
 80 66  1  0
 98 84  1  0
116102  1  0
 15  3  1  0
 42 21  1  0
 61 49  1  0
 79 67  1  0
 97 85  1  0
115103  1  0
 12  6  1  0
 30 23  1  0
 46 31  1  0
 58 52  1  0
 76 70  1  0
 94 88  1  0
112106  1  0
 41 34  1  0
  1119  1  0
  7120  1  0
  9121  1  0
  9122  1  0
 10123  1  0
 10124  1  0
 10125  1  0
 11126  1  0
 17127  1  0
 18128  1  0
 20129  1  0
 24130  1  0
 25131  1  0
 28132  1  0
 28133  1  0
 29134  1  0
 29135  1  0
 29136  1  0
 35137  1  0
 36138  1  0
 39139  1  0
 39140  1  0
 40141  1  0
 40142  1  0
 40143  1  0
 44144  1  0
 53145  1  0
 55146  1  0
 55147  1  0
 56148  1  0
 56149  1  0
 56150  1  0
 57151  1  0
 63152  1  0
 64153  1  0
 71154  1  0
 73155  1  0
 73156  1  0
 74157  1  0
 74158  1  0
 74159  1  0
 75160  1  0
 81161  1  0
 82162  1  0
 89163  1  0
 91164  1  0
 91165  1  0
 92166  1  0
 92167  1  0
 92168  1  0
 93169  1  0
 99170  1  0
100171  1  0
107172  1  0
109173  1  0
109174  1  0
110175  1  0
110176  1  0
110177  1  0
111178  1  0
117179  1  0
118180  1  0
118181  1  0
M  END

