
     RDKit          3D

194217  0  0  0  0  0  0  0  0999 V2000
    8.2409   -5.3225   10.6257 C   0  0  0  0  0  0  0  0  0  0  0  0
    7.0943   -5.6173   11.3953 C   0  0  0  0  0  0  0  0  0  0  0  0
    7.1515   -6.3965   12.5251 C   0  0  0  0  0  0  0  0  0  0  0  0
    8.1939   -6.9223   13.0843 O   0  0  0  0  0  0  0  0  0  0  0  0
    5.5309   -6.5003   13.0149 S   0  0  0  0  0  0  0  0  0  0  0  0
    4.8229   -5.5535   11.7733 C   0  0  0  0  0  0  0  0  0  0  0  0
    3.5656   -5.3024   11.6503 O   0  0  0  0  0  0  0  0  0  0  0  0
    5.8880   -5.1689   11.0003 C   0  0  0  0  0  0  0  0  0  0  0  0
    5.8059   -4.4073    9.8197 C   0  0  0  0  0  0  0  0  0  0  0  0
    6.9663   -4.1296    9.0619 C   0  0  0  0  0  0  0  0  0  0  0  0
    8.1806   -4.5892    9.4710 C   0  0  0  0  0  0  0  0  0  0  0  0
    9.1403   -4.1761    8.5457 C   0  0  0  0  0  0  0  0  0  0  0  0
   10.3754   -4.4179    8.5928 O   0  0  0  0  0  0  0  0  0  0  0  0
    8.5174   -3.4942    7.6179 O   0  0  0  0  0  0  0  0  0  0  0  0
    7.2188   -3.4435    7.8911 C   0  0  0  0  0  0  0  0  0  0  0  0
    6.3984   -2.8525    7.1689 O   0  0  0  0  0  0  0  0  0  0  0  0
    4.6494   -3.6730    9.3543 C   0  0  0  0  0  0  0  0  0  0  0  0
    3.6850   -3.1030   10.0225 C   0  0  0  0  0  0  0  0  0  0  0  0
    2.6113   -2.4153    9.2456 C   0  0  0  0  0  0  0  0  0  0  0  0
    2.4366   -2.3708    7.9005 C   0  0  0  0  0  0  0  0  0  0  0  0
    1.4197   -1.6035    7.4225 C   0  0  0  0  0  0  0  0  0  0  0  0
    1.0900   -1.3813    6.0927 C   0  0  0  0  0  0  0  0  0  0  0  0
    1.6321   -2.1543    4.9897 C   0  0  0  0  0  0  0  0  0  0  0  0
    1.6365   -2.0646    3.6562 C   0  0  0  0  0  0  0  0  0  0  0  0
    2.0853   -3.0443    2.8666 C   0  0  0  0  0  0  0  0  0  0  0  0
    2.5698   -4.1980    3.3164 C   0  0  0  0  0  0  0  0  0  0  0  0
    3.1722   -5.7077    2.5966 S   0  0  0  0  0  0  0  0  0  0  0  0
    2.9338   -5.6066    0.8299 C   0  0  0  0  0  0  0  0  0  0  0  0
    3.7938   -4.5215    0.2202 C   0  0  0  0  0  0  0  0  0  0  0  0
    2.3948   -3.9184    5.2171 Se  0  0  0  0  0  2  0  0  0  0  0  0
    0.0519   -0.5186    5.7761 C   0  0  0  0  0  0  0  0  0  0  0  0
   -0.7219    0.1585    6.6778 C   0  0  0  0  0  0  0  0  0  0  0  0
   -0.3960   -0.0760    8.0107 C   0  0  0  0  0  0  0  0  0  0  0  0
   -1.2068    0.3881    9.1436 C   0  0  0  0  0  0  0  0  0  0  0  0
   -0.9296    0.4857   10.4577 C   0  0  0  0  0  0  0  0  0  0  0  0
   -1.8647    0.8099   11.3497 C   0  0  0  0  0  0  0  0  0  0  0  0
   -3.1287    1.0657   11.0697 C   0  0  0  0  0  0  0  0  0  0  0  0
   -4.6211    1.4595   11.9067 S   0  0  0  0  0  0  0  0  0  0  0  0
   -4.8817    3.2056   12.1856 C   0  0  0  0  0  0  0  0  0  0  0  0
   -3.8652    3.8048   13.1324 C   0  0  0  0  0  0  0  0  0  0  0  0
   -3.0403    0.8043    9.0729 Se  0  0  0  0  0  2  0  0  0  0  0  0
    0.6530   -0.9345    8.3448 C   0  0  0  0  0  0  0  0  0  0  0  0
    1.3783   -1.4091    9.8169 S   0  0  0  0  0  0  0  0  0  0  0  0
   -1.6597    0.9992    6.1528 C   0  0  0  0  0  0  0  0  0  0  0  0
   -1.7775    1.1211    4.8378 C   0  0  0  0  0  0  0  0  0  0  0  0
   -0.5323    0.0146    4.2791 S   0  0  0  0  0  0  0  0  0  0  0  0
   -2.6073    1.8617    3.8493 C   0  0  0  0  0  0  0  0  0  0  0  0
   -3.0003    1.1598    2.6879 C   0  0  0  0  0  0  0  0  0  0  0  0
   -2.9712   -0.2052    2.5980 C   0  0  0  0  0  0  0  0  0  0  0  0
   -2.6150   -1.1084    3.4087 O   0  0  0  0  0  0  0  0  0  0  0  0
   -3.5679   -0.5461    1.0382 S   0  0  0  0  0  0  0  0  0  0  0  0
   -3.8491    1.0570    0.5281 C   0  0  0  0  0  0  0  0  0  0  0  0
   -4.3149    1.3753   -0.6278 O   0  0  0  0  0  0  0  0  0  0  0  0
   -3.4660    1.8228    1.5983 C   0  0  0  0  0  0  0  0  0  0  0  0
   -3.5620    3.2547    1.6549 C   0  0  0  0  0  0  0  0  0  0  0  0
   -3.1889    3.9077    2.7970 C   0  0  0  0  0  0  0  0  0  0  0  0
   -2.6966    3.2379    3.9336 C   0  0  0  0  0  0  0  0  0  0  0  0
   -2.4345    4.1647    4.9249 C   0  0  0  0  0  0  0  0  0  0  0  0
   -1.9805    3.9235    6.0637 O   0  0  0  0  0  0  0  0  0  0  0  0
   -2.7428    5.3235    4.4383 O   0  0  0  0  0  0  0  0  0  0  0  0
   -3.1877    5.2382    3.2133 C   0  0  0  0  0  0  0  0  0  0  0  0
   -3.5509    6.2508    2.5655 O   0  0  0  0  0  0  0  0  0  0  0  0
   -4.0262    3.9719    0.4938 C   0  0  0  0  0  0  0  0  0  0  0  0
   -3.9339    5.1729    0.0409 C   0  0  0  0  0  0  0  0  0  0  0  0
   -4.6287    5.4715   -1.2668 C   0  0  0  0  0  0  0  0  0  0  0  0
   -4.0248    6.3764   -2.1685 C   0  0  0  0  0  0  0  0  0  0  0  0
   -2.8372    7.0263   -1.9575 C   0  0  0  0  0  0  0  0  0  0  0  0
   -2.0344    6.9871   -0.9504 O   0  0  0  0  0  0  0  0  0  0  0  0
   -2.6169    7.9533   -3.3716 S   0  0  0  0  0  0  0  0  0  0  0  0
   -4.0152    7.5109   -4.2056 C   0  0  0  0  0  0  0  0  0  0  0  0
   -4.4256    7.8855   -5.3596 O   0  0  0  0  0  0  0  0  0  0  0  0
   -4.6451    6.6274   -3.3463 C   0  0  0  0  0  0  0  0  0  0  0  0
   -5.8313    5.9882   -3.6300 C   0  0  0  0  0  0  0  0  0  0  0  0
   -6.4232    5.0855   -2.7196 C   0  0  0  0  0  0  0  0  0  0  0  0
   -5.8125    4.8315   -1.5079 C   0  0  0  0  0  0  0  0  0  0  0  0
   -6.6884    4.0097   -0.8192 C   0  0  0  0  0  0  0  0  0  0  0  0
   -6.5939    3.5252    0.3213 O   0  0  0  0  0  0  0  0  0  0  0  0
   -7.7432    3.8049   -1.6164 O   0  0  0  0  0  0  0  0  0  0  0  0
   -7.6191    4.4211   -2.7395 C   0  0  0  0  0  0  0  0  0  0  0  0
   -8.4590    4.4077   -3.6790 O   0  0  0  0  0  0  0  0  0  0  0  0
   -6.6728    6.1903   -4.8076 C   0  0  0  0  0  0  0  0  0  0  0  0
   -6.7359    5.2333   -5.7685 C   0  0  0  0  0  0  0  0  0  0  0  0
   -5.8970    4.0429   -5.5660 C   0  0  0  0  0  0  0  0  0  0  0  0
   -5.9271    2.7519   -5.9421 C   0  0  0  0  0  0  0  0  0  0  0  0
   -4.8165    1.9828   -5.7723 C   0  0  0  0  0  0  0  0  0  0  0  0
   -4.6387    0.6258   -6.0973 C   0  0  0  0  0  0  0  0  0  0  0  0
   -5.6324   -0.1931   -6.7359 C   0  0  0  0  0  0  0  0  0  0  0  0
   -5.7762   -1.4972   -6.9676 C   0  0  0  0  0  0  0  0  0  0  0  0
   -6.7695   -2.0315   -7.6791 C   0  0  0  0  0  0  0  0  0  0  0  0
   -7.7544   -1.3338   -8.2522 C   0  0  0  0  0  0  0  0  0  0  0  0
   -9.1752   -1.6720   -9.2071 S   0  0  0  0  0  0  0  0  0  0  0  0
   -8.7998   -1.7023  -10.9806 C   0  0  0  0  0  0  0  0  0  0  0  0
   -8.4343   -0.3094  -11.3892 C   0  0  0  0  0  0  0  0  0  0  0  0
   -7.1925    0.4844   -7.6911 Se  0  0  0  0  0  2  0  0  0  0  0  0
   -3.3831    0.0523   -5.8321 C   0  0  0  0  0  0  0  0  0  0  0  0
   -2.3088    0.6919   -5.2915 C   0  0  0  0  0  0  0  0  0  0  0  0
   -2.4917    2.0258   -4.9666 C   0  0  0  0  0  0  0  0  0  0  0  0
   -1.4414    2.8844   -4.4621 C   0  0  0  0  0  0  0  0  0  0  0  0
   -1.3491    4.1079   -3.9532 C   0  0  0  0  0  0  0  0  0  0  0  0
   -0.2056    4.7060   -3.6272 C   0  0  0  0  0  0  0  0  0  0  0  0
    0.9967    4.1281   -3.7796 C   0  0  0  0  0  0  0  0  0  0  0  0
    2.6621    4.6155   -3.4541 S   0  0  0  0  0  0  0  0  0  0  0  0
    3.3659    5.3880   -4.9270 C   0  0  0  0  0  0  0  0  0  0  0  0
    3.5921    4.4523   -6.0639 C   0  0  0  0  0  0  0  0  0  0  0  0
    0.4563    2.4077   -4.5258 Se  0  0  0  0  0  2  0  0  0  0  0  0
   -3.7418    2.6016   -5.2220 C   0  0  0  0  0  0  0  0  0  0  0  0
   -4.2765    4.1911   -4.9533 S   0  0  0  0  0  0  0  0  0  0  0  0
   -1.1973   -0.0592   -5.1243 C   0  0  0  0  0  0  0  0  0  0  0  0
   -1.2425   -1.3777   -5.5018 C   0  0  0  0  0  0  0  0  0  0  0  0
   -2.8206   -1.5339   -6.0780 S   0  0  0  0  0  0  0  0  0  0  0  0
   -0.1113   -2.3463   -5.4833 C   0  0  0  0  0  0  0  0  0  0  0  0
    1.2005   -2.0820   -5.8078 C   0  0  0  0  0  0  0  0  0  0  0  0
    2.0610   -3.1310   -5.8089 C   0  0  0  0  0  0  0  0  0  0  0  0
    3.4230   -3.1141   -6.1225 C   0  0  0  0  0  0  0  0  0  0  0  0
    4.2212   -1.9489   -6.4606 C   0  0  0  0  0  0  0  0  0  0  0  0
    4.1505   -0.6232   -6.3875 C   0  0  0  0  0  0  0  0  0  0  0  0
    5.0641    0.1976   -6.9144 C   0  0  0  0  0  0  0  0  0  0  0  0
    6.1432   -0.2150   -7.5678 C   0  0  0  0  0  0  0  0  0  0  0  0
    7.5356    0.4949   -8.3957 S   0  0  0  0  0  0  0  0  0  0  0  0
    7.4144    2.2806   -8.3277 C   0  0  0  0  0  0  0  0  0  0  0  0
    8.5947    2.9512   -9.0046 C   0  0  0  0  0  0  0  0  0  0  0  0
    5.8790   -2.1473   -7.4502 Se  0  0  0  0  0  2  0  0  0  0  0  0
    4.1294   -4.3330   -6.0792 C   0  0  0  0  0  0  0  0  0  0  0  0
    3.5995   -5.5448   -5.7509 C   0  0  0  0  0  0  0  0  0  0  0  0
    2.2406   -5.5453   -5.4369 C   0  0  0  0  0  0  0  0  0  0  0  0
    1.5703   -6.7050   -4.9244 C   0  0  0  0  0  0  0  0  0  0  0  0
    0.3331   -7.1029   -4.7128 C   0  0  0  0  0  0  0  0  0  0  0  0
   -0.0271   -8.2129   -4.0682 C   0  0  0  0  0  0  0  0  0  0  0  0
    0.8786   -9.0691   -3.5522 C   0  0  0  0  0  0  0  0  0  0  0  0
    0.7986  -10.5890   -2.6678 S   0  0  0  0  0  0  0  0  0  0  0  0
    0.7772  -10.4155   -0.8859 C   0  0  0  0  0  0  0  0  0  0  0  0
   -0.5037   -9.7775   -0.3996 C   0  0  0  0  0  0  0  0  0  0  0  0
    2.5439   -8.1969   -4.0366 Se  0  0  0  0  0  2  0  0  0  0  0  0
    1.5276   -4.3476   -5.4818 C   0  0  0  0  0  0  0  0  0  0  0  0
   -0.1135   -4.0036   -5.1956 S   0  0  0  0  0  0  0  0  0  0  0  0
    4.4551   -6.6040   -5.7897 C   0  0  0  0  0  0  0  0  0  0  0  0
    5.7515   -6.3674   -6.1458 C   0  0  0  0  0  0  0  0  0  0  0  0
    5.7709   -4.6941   -6.4222 S   0  0  0  0  0  0  0  0  0  0  0  0
    9.2331   -5.6655   10.9011 H   0  0  0  0  0  0  0  0  0  0  0  0
    4.5670   -3.6162    8.2369 H   0  0  0  0  0  0  0  0  0  0  0  0
    3.5635   -3.0085   11.0773 H   0  0  0  0  0  0  0  0  0  0  0  0
    3.1392   -2.9454    7.2566 H   0  0  0  0  0  0  0  0  0  0  0  0
    1.2614   -1.0913    3.1953 H   0  0  0  0  0  0  0  0  0  0  0  0
    2.0558   -2.9225    1.7258 H   0  0  0  0  0  0  0  0  0  0  0  0
    3.2806   -6.5683    0.3643 H   0  0  0  0  0  0  0  0  0  0  0  0
    1.8628   -5.5002    0.5370 H   0  0  0  0  0  0  0  0  0  0  0  0
    4.6536   -4.9080   -0.3476 H   0  0  0  0  0  0  0  0  0  0  0  0
    3.2059   -3.8677   -0.4702 H   0  0  0  0  0  0  0  0  0  0  0  0
    4.2192   -3.8584    1.0082 H   0  0  0  0  0  0  0  0  0  0  0  0
    0.1487    0.2903   10.7699 H   0  0  0  0  0  0  0  0  0  0  0  0
   -1.5563    0.8809   12.4567 H   0  0  0  0  0  0  0  0  0  0  0  0
   -4.8179    3.7976   11.2535 H   0  0  0  0  0  0  0  0  0  0  0  0
   -5.8930    3.3908   12.6031 H   0  0  0  0  0  0  0  0  0  0  0  0
   -4.3840    4.4653   13.8811 H   0  0  0  0  0  0  0  0  0  0  0  0
   -3.3755    3.0165   13.7587 H   0  0  0  0  0  0  0  0  0  0  0  0
   -3.1270    4.4457   12.6188 H   0  0  0  0  0  0  0  0  0  0  0  0
   -2.3559    1.5674    6.8200 H   0  0  0  0  0  0  0  0  0  0  0  0
   -4.5111    3.3124   -0.2834 H   0  0  0  0  0  0  0  0  0  0  0  0
   -3.4225    6.0251    0.4035 H   0  0  0  0  0  0  0  0  0  0  0  0
   -7.2406    7.0903   -4.9069 H   0  0  0  0  0  0  0  0  0  0  0  0
   -7.3364    5.2988   -6.6309 H   0  0  0  0  0  0  0  0  0  0  0  0
   -6.8945    2.3776   -6.3623 H   0  0  0  0  0  0  0  0  0  0  0  0
   -4.9984   -2.2050   -6.5147 H   0  0  0  0  0  0  0  0  0  0  0  0
   -6.8268   -3.1742   -7.8412 H   0  0  0  0  0  0  0  0  0  0  0  0
   -7.9835   -2.4300  -11.1924 H   0  0  0  0  0  0  0  0  0  0  0  0
   -9.6596   -2.0575  -11.5784 H   0  0  0  0  0  0  0  0  0  0  0  0
   -7.3800   -0.1662  -11.6276 H   0  0  0  0  0  0  0  0  0  0  0  0
   -9.0081   -0.0538  -12.3218 H   0  0  0  0  0  0  0  0  0  0  0  0
   -8.7742    0.4431  -10.6485 H   0  0  0  0  0  0  0  0  0  0  0  0
   -2.3170    4.6827   -3.7693 H   0  0  0  0  0  0  0  0  0  0  0  0
   -0.1805    5.7651   -3.1882 H   0  0  0  0  0  0  0  0  0  0  0  0
    2.6238    6.1586   -5.2922 H   0  0  0  0  0  0  0  0  0  0  0  0
    4.2985    5.9286   -4.6765 H   0  0  0  0  0  0  0  0  0  0  0  0
    4.6029    4.6614   -6.5107 H   0  0  0  0  0  0  0  0  0  0  0  0
    3.5691    3.3819   -5.7466 H   0  0  0  0  0  0  0  0  0  0  0  0
    2.8592    4.5731   -6.8994 H   0  0  0  0  0  0  0  0  0  0  0  0
   -0.2367    0.2751   -4.6847 H   0  0  0  0  0  0  0  0  0  0  0  0
    1.4359   -1.0337   -6.0680 H   0  0  0  0  0  0  0  0  0  0  0  0
    3.2730   -0.1720   -5.8051 H   0  0  0  0  0  0  0  0  0  0  0  0
    4.9304    1.3353   -6.8199 H   0  0  0  0  0  0  0  0  0  0  0  0
    7.4329    2.6020   -7.2592 H   0  0  0  0  0  0  0  0  0  0  0  0
    6.4543    2.6696   -8.7446 H   0  0  0  0  0  0  0  0  0  0  0  0
    8.8131    3.9091   -8.4839 H   0  0  0  0  0  0  0  0  0  0  0  0
    8.4466    3.1471  -10.0683 H   0  0  0  0  0  0  0  0  0  0  0  0
    9.5233    2.3439   -8.8888 H   0  0  0  0  0  0  0  0  0  0  0  0
   -0.5133   -6.4391   -5.1201 H   0  0  0  0  0  0  0  0  0  0  0  0
   -1.1212   -8.5049   -3.9003 H   0  0  0  0  0  0  0  0  0  0  0  0
    0.8603  -11.4479   -0.4579 H   0  0  0  0  0  0  0  0  0  0  0  0
    1.6681   -9.8664   -0.4966 H   0  0  0  0  0  0  0  0  0  0  0  0
   -0.3717   -8.7300   -0.0702 H   0  0  0  0  0  0  0  0  0  0  0  0
   -0.8968  -10.3095    0.4982 H   0  0  0  0  0  0  0  0  0  0  0  0
   -1.2947   -9.8353   -1.1705 H   0  0  0  0  0  0  0  0  0  0  0  0
    4.1737   -7.6624   -5.5788 H   0  0  0  0  0  0  0  0  0  0  0  0
    6.5683   -7.1178   -6.2248 H   0  0  0  0  0  0  0  0  0  0  0  0
  1  2  2  0
  2  3  1  0
  3  4  2  0
  3  5  1  0
  5  6  1  0
  6  7  2  0
  6  8  1  0
  8  9  2  0
  9 10  1  0
 10 11  2  0
 11 12  1  0
 12 13  2  0
 12 14  1  0
 14 15  1  0
 15 16  2  0
  9 17  1  0
 17 18  2  3
 18 19  1  0
 19 20  2  0
 20 21  1  0
 21 22  2  0
 22 23  1  0
 23 24  2  0
 24 25  1  0
 25 26  2  0
 26 27  1  0
 27 28  1  0
 28 29  1  0
 26 30  1  0
 22 31  1  0
 31 32  2  0
 32 33  1  0
 33 34  1  0
 34 35  2  0
 35 36  1  0
 36 37  2  0
 37 38  1  0
 38 39  1  0
 39 40  1  0
 37 41  1  0
 33 42  2  0
 42 43  1  0
 32 44  1  0
 44 45  2  0
 45 46  1  0
 45 47  1  0
 47 48  2  0
 48 49  1  0
 49 50  2  0
 49 51  1  0
 51 52  1  0
 52 53  2  0
 52 54  1  0
 54 55  2  0
 55 56  1  0
 56 57  2  0
 57 58  1  0
 58 59  2  0
 58 60  1  0
 60 61  1  0
 61 62  2  0
 55 63  1  0
 63 64  2  3
 64 65  1  0
 65 66  2  0
 66 67  1  0
 67 68  2  0
 67 69  1  0
 69 70  1  0
 70 71  2  0
 70 72  1  0
 72 73  2  0
 73 74  1  0
 74 75  2  0
 75 76  1  0
 76 77  2  0
 76 78  1  0
 78 79  1  0
 79 80  2  0
 73 81  1  0
 81 82  2  3
 82 83  1  0
 83 84  2  0
 84 85  1  0
 85 86  2  0
 86 87  1  0
 87 88  2  0
 88 89  1  0
 89 90  2  0
 90 91  1  0
 91 92  1  0
 92 93  1  0
 90 94  1  0
 86 95  1  0
 95 96  2  0
 96 97  1  0
 97 98  1  0
 98 99  2  0
 99100  1  0
100101  2  0
101102  1  0
102103  1  0
103104  1  0
101105  1  0
 97106  2  0
106107  1  0
 96108  1  0
108109  2  0
109110  1  0
109111  1  0
111112  2  0
112113  1  0
113114  2  0
114115  1  0
115116  2  0
116117  1  0
117118  2  0
118119  1  0
119120  1  0
120121  1  0
118122  1  0
114123  1  0
123124  2  0
124125  1  0
125126  1  0
126127  2  0
127128  1  0
128129  2  0
129130  1  0
130131  1  0
131132  1  0
129133  1  0
125134  2  0
134135  1  0
124136  1  0
136137  2  0
137138  1  0
 11  1  1  0
 43 19  1  0
 57 47  1  0
 75 65  1  0
107 83  1  0
135111  1  0
  8  2  1  0
 15 10  1  0
 42 21  1  0
 54 48  1  0
 61 56  1  0
 72 66  1  0
 79 74  1  0
106 85  1  0
134113  1  0
 30 23  1  0
 46 31  1  0
 94 87  1  0
110 95  1  0
122115  1  0
138123  1  0
 41 34  1  0
105 98  1  0
133126  1  0
  1139  1  0
 17140  1  0
 18141  1  0
 20142  1  0
 24143  1  0
 25144  1  0
 28145  1  0
 28146  1  0
 29147  1  0
 29148  1  0
 29149  1  0
 35150  1  0
 36151  1  0
 39152  1  0
 39153  1  0
 40154  1  0
 40155  1  0
 40156  1  0
 44157  1  0
 63158  1  0
 64159  1  0
 81160  1  0
 82161  1  0
 84162  1  0
 88163  1  0
 89164  1  0
 92165  1  0
 92166  1  0
 93167  1  0
 93168  1  0
 93169  1  0
 99170  1  0
100171  1  0
103172  1  0
103173  1  0
104174  1  0
104175  1  0
104176  1  0
108177  1  0
112178  1  0
116179  1  0
117180  1  0
120181  1  0
120182  1  0
121183  1  0
121184  1  0
121185  1  0
127186  1  0
128187  1  0
131188  1  0
131189  1  0
132190  1  0
132191  1  0
132192  1  0
136193  1  0
137194  1  0
M  END

