
     RDKit          3D

173190  0  0  0  0  0  0  0  0999 V2000
   10.4292    4.4824    7.1569 C   0  0  0  0  0  0  0  0  0  0  0  0
   10.5823    3.2897    6.5145 C   0  0  0  0  0  0  0  0  0  0  0  0
    9.5389    2.4518    6.4473 C   0  0  0  0  0  0  0  0  0  0  0  0
    9.4866    1.1826    5.8442 C   0  0  0  0  0  0  0  0  0  0  0  0
   10.5460    0.6280    5.0299 C   0  0  0  0  0  0  0  0  0  0  0  0
   10.8461   -0.5788    4.5728 C   0  0  0  0  0  0  0  0  0  0  0  0
   11.8491   -0.8206    3.7317 C   0  0  0  0  0  0  0  0  0  0  0  0
   12.6641    0.1136    3.2534 C   0  0  0  0  0  0  0  0  0  0  0  0
   14.0757    0.1866    2.1964 S   0  0  0  0  0  0  0  0  0  0  0  0
   13.6583    0.1966    0.4710 C   0  0  0  0  0  0  0  0  0  0  0  0
   12.8958    1.3724   -0.0359 C   0  0  0  0  0  0  0  0  0  0  0  0
   11.9012    1.7025    4.1543 Se  0  0  0  0  0  2  0  0  0  0  0  0
    8.2957    0.4658    5.9033 C   0  0  0  0  0  0  0  0  0  0  0  0
    7.1414    0.8762    6.4975 C   0  0  0  0  0  0  0  0  0  0  0  0
    7.1964    2.1437    7.0920 C   0  0  0  0  0  0  0  0  0  0  0  0
    6.0235    2.8105    7.6408 C   0  0  0  0  0  0  0  0  0  0  0  0
    5.8159    3.8577    8.4246 C   0  0  0  0  0  0  0  0  0  0  0  0
    4.5984    4.3368    8.7131 C   0  0  0  0  0  0  0  0  0  0  0  0
    3.4734    3.8062    8.2362 C   0  0  0  0  0  0  0  0  0  0  0  0
    1.7309    4.0714    8.3496 S   0  0  0  0  0  0  0  0  0  0  0  0
    0.9388    3.0659    9.6518 C   0  0  0  0  0  0  0  0  0  0  0  0
   -0.5562    3.2861    9.5766 C   0  0  0  0  0  0  0  0  0  0  0  0
    4.2237    2.3347    7.1638 Se  0  0  0  0  0  2  0  0  0  0  0  0
    8.3706    2.8669    7.0456 C   0  0  0  0  0  0  0  0  0  0  0  0
    8.8166    4.4218    7.6662 S   0  0  0  0  0  0  0  0  0  0  0  0
    6.0828    0.0620    6.4222 C   0  0  0  0  0  0  0  0  0  0  0  0
    6.2272   -1.1279    5.7487 C   0  0  0  0  0  0  0  0  0  0  0  0
    7.8438   -1.0693    5.2516 S   0  0  0  0  0  0  0  0  0  0  0  0
    5.1371   -2.0766    5.4230 C   0  0  0  0  0  0  0  0  0  0  0  0
    3.4945   -1.8709    5.8087 S   0  0  0  0  0  0  0  0  0  0  0  0
    2.8299   -3.1532    4.8971 C   0  0  0  0  0  0  0  0  0  0  0  0
    3.9267   -3.7152    4.3318 C   0  0  0  0  0  0  0  0  0  0  0  0
    5.1311   -3.1584    4.6029 C   0  0  0  0  0  0  0  0  0  0  0  0
    6.4263   -3.7033    4.0271 C   0  0  0  0  0  0  0  0  0  0  0  0
    3.7425   -4.9278    3.4352 C   0  0  0  0  0  0  0  0  0  0  0  0
    1.3926   -3.3284    4.5323 C   0  0  0  0  0  0  0  0  0  0  0  0
    0.2682   -2.7931    5.0423 C   0  0  0  0  0  0  0  0  0  0  0  0
   -0.8946   -2.9136    4.3411 C   0  0  0  0  0  0  0  0  0  0  0  0
   -2.1220   -2.2655    4.5469 C   0  0  0  0  0  0  0  0  0  0  0  0
   -2.4223   -1.6962    5.8526 C   0  0  0  0  0  0  0  0  0  0  0  0
   -3.3345   -0.8064    6.2772 C   0  0  0  0  0  0  0  0  0  0  0  0
   -3.5257   -0.5474    7.5758 C   0  0  0  0  0  0  0  0  0  0  0  0
   -2.8328   -1.1457    8.5448 C   0  0  0  0  0  0  0  0  0  0  0  0
   -2.7677   -1.1013   10.3119 S   0  0  0  0  0  0  0  0  0  0  0  0
   -1.5617   -2.3116   10.9424 C   0  0  0  0  0  0  0  0  0  0  0  0
   -1.9937   -3.7139   10.6773 C   0  0  0  0  0  0  0  0  0  0  0  0
   -1.6684   -2.3007    7.4764 Se  0  0  0  0  0  2  0  0  0  0  0  0
   -3.1226   -2.3107    3.5962 C   0  0  0  0  0  0  0  0  0  0  0  0
   -3.0336   -2.9678    2.4210 C   0  0  0  0  0  0  0  0  0  0  0  0
   -1.8063   -3.6673    2.1743 C   0  0  0  0  0  0  0  0  0  0  0  0
   -1.5621   -4.3130    0.9874 C   0  0  0  0  0  0  0  0  0  0  0  0
   -1.6075   -4.6991   -0.2354 C   0  0  0  0  0  0  0  0  0  0  0  0
   -1.1186   -5.6714   -0.9532 C   0  0  0  0  0  0  0  0  0  0  0  0
   -0.3209   -6.6332   -0.4339 C   0  0  0  0  0  0  0  0  0  0  0  0
    0.5061   -8.0448   -1.1033 S   0  0  0  0  0  0  0  0  0  0  0  0
    0.1816   -8.0239   -2.9048 C   0  0  0  0  0  0  0  0  0  0  0  0
    0.8481   -6.7861   -3.4953 C   0  0  0  0  0  0  0  0  0  0  0  0
   -0.2058   -6.1129    1.4392 Se  0  0  0  0  0  2  0  0  0  0  0  0
   -0.8199   -3.5837    3.1611 C   0  0  0  0  0  0  0  0  0  0  0  0
    0.8600   -4.0326    3.0790 S   0  0  0  0  0  0  0  0  0  0  0  0
   -4.0005   -2.8073    1.5098 C   0  0  0  0  0  0  0  0  0  0  0  0
   -5.0371   -1.9638    1.8264 C   0  0  0  0  0  0  0  0  0  0  0  0
   -4.6238   -1.4500    3.4058 S   0  0  0  0  0  0  0  0  0  0  0  0
   -5.9930   -1.3470    0.8689 C   0  0  0  0  0  0  0  0  0  0  0  0
   -5.6846   -1.3490   -0.8095 S   0  0  0  0  0  0  0  0  0  0  0  0
   -6.9424   -0.2349   -1.3255 C   0  0  0  0  0  0  0  0  0  0  0  0
   -7.5214    0.0447   -0.1628 C   0  0  0  0  0  0  0  0  0  0  0  0
   -7.0419   -0.5220    0.9872 C   0  0  0  0  0  0  0  0  0  0  0  0
   -7.6292   -0.2727    2.3725 C   0  0  0  0  0  0  0  0  0  0  0  0
   -8.7612    0.9241   -0.1091 C   0  0  0  0  0  0  0  0  0  0  0  0
   -6.9003    0.3451   -2.6965 C   0  0  0  0  0  0  0  0  0  0  0  0
   -6.4878   -0.4812   -4.1008 S   0  0  0  0  0  0  0  0  0  0  0  0
   -6.2270    0.8715   -5.1637 C   0  0  0  0  0  0  0  0  0  0  0  0
   -6.4970    1.9101   -4.3430 C   0  0  0  0  0  0  0  0  0  0  0  0
   -6.8441    1.6647   -3.0736 C   0  0  0  0  0  0  0  0  0  0  0  0
   -7.1321    2.7552   -2.0574 C   0  0  0  0  0  0  0  0  0  0  0  0
   -6.4278    3.3214   -4.9010 C   0  0  0  0  0  0  0  0  0  0  0  0
   -5.6010    0.8934   -6.5058 C   0  0  0  0  0  0  0  0  0  0  0  0
   -5.9828    0.3215   -7.6779 C   0  0  0  0  0  0  0  0  0  0  0  0
   -5.2605    0.5747   -8.7891 C   0  0  0  0  0  0  0  0  0  0  0  0
   -5.4932    0.1470  -10.0957 C   0  0  0  0  0  0  0  0  0  0  0  0
   -6.5068   -0.8283  -10.4965 C   0  0  0  0  0  0  0  0  0  0  0  0
   -7.3194   -1.7104   -9.9235 C   0  0  0  0  0  0  0  0  0  0  0  0
   -8.2244   -2.4269  -10.6035 C   0  0  0  0  0  0  0  0  0  0  0  0
   -8.4203   -2.3591  -11.9057 C   0  0  0  0  0  0  0  0  0  0  0  0
   -9.4509   -3.0890  -13.1303 S   0  0  0  0  0  0  0  0  0  0  0  0
   -8.9860   -2.4483  -14.7716 C   0  0  0  0  0  0  0  0  0  0  0  0
   -7.5958   -2.9298  -15.1765 C   0  0  0  0  0  0  0  0  0  0  0  0
   -7.0474   -0.9808  -12.3492 Se  0  0  0  0  0  2  0  0  0  0  0  0
   -4.6312    0.5858  -11.1222 C   0  0  0  0  0  0  0  0  0  0  0  0
   -3.5560    1.4125  -10.9534 C   0  0  0  0  0  0  0  0  0  0  0  0
   -3.3246    1.8268   -9.6494 C   0  0  0  0  0  0  0  0  0  0  0  0
   -2.0879    2.4669   -9.1936 C   0  0  0  0  0  0  0  0  0  0  0  0
   -0.8666    2.6067   -9.6945 C   0  0  0  0  0  0  0  0  0  0  0  0
    0.1233    3.2603   -9.0771 C   0  0  0  0  0  0  0  0  0  0  0  0
   -0.0149    3.8398   -7.8921 C   0  0  0  0  0  0  0  0  0  0  0  0
    0.9821    4.7635   -6.7702 S   0  0  0  0  0  0  0  0  0  0  0  0
    1.8416    3.5774   -5.6837 C   0  0  0  0  0  0  0  0  0  0  0  0
    0.9209    2.8268   -4.7745 C   0  0  0  0  0  0  0  0  0  0  0  0
   -1.9363    3.3892   -7.5420 Se  0  0  0  0  0  2  0  0  0  0  0  0
   -4.1767    1.4037   -8.6355 C   0  0  0  0  0  0  0  0  0  0  0  0
   -4.2171    1.7890   -6.9758 S   0  0  0  0  0  0  0  0  0  0  0  0
   -2.8788    1.7500  -12.0777 C   0  0  0  0  0  0  0  0  0  0  0  0
   -3.3145    1.2429  -13.2735 C   0  0  0  0  0  0  0  0  0  0  0  0
   -4.6555    0.3122  -12.7952 S   0  0  0  0  0  0  0  0  0  0  0  0
   11.1994    5.2668    7.2924 H   0  0  0  0  0  0  0  0  0  0  0  0
   11.5972    3.0833    6.0958 H   0  0  0  0  0  0  0  0  0  0  0  0
   10.2146   -1.4575    4.9374 H   0  0  0  0  0  0  0  0  0  0  0  0
   12.0650   -1.8988    3.3684 H   0  0  0  0  0  0  0  0  0  0  0  0
   14.6452    0.2082   -0.1080 H   0  0  0  0  0  0  0  0  0  0  0  0
   13.1313   -0.7730    0.2372 H   0  0  0  0  0  0  0  0  0  0  0  0
   13.3658    1.8227   -0.9545 H   0  0  0  0  0  0  0  0  0  0  0  0
   11.9018    1.0227   -0.3799 H   0  0  0  0  0  0  0  0  0  0  0  0
   12.7392    2.1856    0.6671 H   0  0  0  0  0  0  0  0  0  0  0  0
    6.7226    4.3735    8.8854 H   0  0  0  0  0  0  0  0  0  0  0  0
    4.4751    5.2502    9.4016 H   0  0  0  0  0  0  0  0  0  0  0  0
    1.1789    1.9798    9.5358 H   0  0  0  0  0  0  0  0  0  0  0  0
    1.2848    3.3812   10.6416 H   0  0  0  0  0  0  0  0  0  0  0  0
   -0.9218    2.9807    8.5554 H   0  0  0  0  0  0  0  0  0  0  0  0
   -0.8681    4.3174    9.7427 H   0  0  0  0  0  0  0  0  0  0  0  0
   -1.1061    2.6277   10.2839 H   0  0  0  0  0  0  0  0  0  0  0  0
    5.0966    0.2543    6.8910 H   0  0  0  0  0  0  0  0  0  0  0  0
    7.1248   -2.9223    3.7477 H   0  0  0  0  0  0  0  0  0  0  0  0
    6.8793   -4.3025    4.8618 H   0  0  0  0  0  0  0  0  0  0  0  0
    6.2206   -4.4395    3.2232 H   0  0  0  0  0  0  0  0  0  0  0  0
    4.6074   -5.6304    3.6233 H   0  0  0  0  0  0  0  0  0  0  0  0
    2.8494   -5.4795    3.7158 H   0  0  0  0  0  0  0  0  0  0  0  0
    3.8161   -4.6202    2.3758 H   0  0  0  0  0  0  0  0  0  0  0  0
    0.3286   -2.2567    6.0176 H   0  0  0  0  0  0  0  0  0  0  0  0
   -3.9391   -0.2657    5.4870 H   0  0  0  0  0  0  0  0  0  0  0  0
   -4.3060    0.2111    7.9126 H   0  0  0  0  0  0  0  0  0  0  0  0
   -1.2720   -2.1498   11.9717 H   0  0  0  0  0  0  0  0  0  0  0  0
   -0.6367   -2.1385   10.3084 H   0  0  0  0  0  0  0  0  0  0  0  0
   -1.2287   -4.2580   10.0841 H   0  0  0  0  0  0  0  0  0  0  0  0
   -2.9281   -3.7464   10.0721 H   0  0  0  0  0  0  0  0  0  0  0  0
   -2.1165   -4.2765   11.6409 H   0  0  0  0  0  0  0  0  0  0  0  0
   -2.2946   -3.9100   -0.8574 H   0  0  0  0  0  0  0  0  0  0  0  0
   -1.3159   -5.7920   -2.0754 H   0  0  0  0  0  0  0  0  0  0  0  0
   -0.9291   -7.9543   -3.0726 H   0  0  0  0  0  0  0  0  0  0  0  0
    0.5513   -8.9312   -3.4081 H   0  0  0  0  0  0  0  0  0  0  0  0
    0.2492   -6.3446   -4.3025 H   0  0  0  0  0  0  0  0  0  0  0  0
    1.0050   -6.0354   -2.6741 H   0  0  0  0  0  0  0  0  0  0  0  0
    1.8349   -7.0944   -3.8424 H   0  0  0  0  0  0  0  0  0  0  0  0
   -4.0667   -3.2924    0.5293 H   0  0  0  0  0  0  0  0  0  0  0  0
   -8.2087   -1.1112    2.7277 H   0  0  0  0  0  0  0  0  0  0  0  0
   -6.7771    0.0052    3.0485 H   0  0  0  0  0  0  0  0  0  0  0  0
   -8.2723    0.6356    2.3493 H   0  0  0  0  0  0  0  0  0  0  0  0
   -8.5618    1.9101    0.2883 H   0  0  0  0  0  0  0  0  0  0  0  0
   -9.2337    0.9899   -1.0827 H   0  0  0  0  0  0  0  0  0  0  0  0
   -9.5199    0.4369    0.5746 H   0  0  0  0  0  0  0  0  0  0  0  0
   -6.6260    3.7031   -2.3946 H   0  0  0  0  0  0  0  0  0  0  0  0
   -8.2045    3.0134   -2.0294 H   0  0  0  0  0  0  0  0  0  0  0  0
   -6.6916    2.5203   -1.0927 H   0  0  0  0  0  0  0  0  0  0  0  0
   -5.5267    3.7776   -4.4781 H   0  0  0  0  0  0  0  0  0  0  0  0
   -7.2946    3.9106   -4.5163 H   0  0  0  0  0  0  0  0  0  0  0  0
   -6.3602    3.3297   -5.9877 H   0  0  0  0  0  0  0  0  0  0  0  0
   -6.9137   -0.3040   -7.6231 H   0  0  0  0  0  0  0  0  0  0  0  0
   -7.1985   -1.8994   -8.8009 H   0  0  0  0  0  0  0  0  0  0  0  0
   -8.8900   -3.1750  -10.0253 H   0  0  0  0  0  0  0  0  0  0  0  0
   -8.9205   -1.3377  -14.7154 H   0  0  0  0  0  0  0  0  0  0  0  0
   -9.7195   -2.7631  -15.5351 H   0  0  0  0  0  0  0  0  0  0  0  0
   -6.8393   -2.2694  -14.6346 H   0  0  0  0  0  0  0  0  0  0  0  0
   -7.4963   -2.8035  -16.2691 H   0  0  0  0  0  0  0  0  0  0  0  0
   -7.4415   -3.9688  -14.8697 H   0  0  0  0  0  0  0  0  0  0  0  0
   -0.6397    2.0916  -10.6932 H   0  0  0  0  0  0  0  0  0  0  0  0
    1.1619    3.3468   -9.5602 H   0  0  0  0  0  0  0  0  0  0  0  0
    2.6435    4.1020   -5.0877 H   0  0  0  0  0  0  0  0  0  0  0  0
    2.4118    2.8064   -6.2826 H   0  0  0  0  0  0  0  0  0  0  0  0
    1.2928    2.8556   -3.6981 H   0  0  0  0  0  0  0  0  0  0  0  0
    0.8421    1.7522   -5.0182 H   0  0  0  0  0  0  0  0  0  0  0  0
   -0.1260    3.2277   -4.7475 H   0  0  0  0  0  0  0  0  0  0  0  0
   -2.0183    2.4653  -12.1241 H   0  0  0  0  0  0  0  0  0  0  0  0
   -2.8855    1.4094  -14.2762 H   0  0  0  0  0  0  0  0  0  0  0  0
  1  2  2  0
  2  3  1  0
  3  4  2  0
  4  5  1  0
  5  6  2  0
  6  7  1  0
  7  8  2  0
  8  9  1  0
  9 10  1  0
 10 11  1  0
  8 12  1  0
  4 13  1  0
 13 14  2  0
 14 15  1  0
 15 16  1  0
 16 17  2  0
 17 18  1  0
 18 19  2  0
 19 20  1  0
 20 21  1  0
 21 22  1  0
 19 23  1  0
 15 24  2  0
 24 25  1  0
 14 26  1  0
 26 27  2  0
 27 28  1  0
 27 29  1  0
 29 30  1  0
 30 31  1  0
 31 32  2  0
 32 33  1  0
 33 34  1  0
 32 35  1  0
 31 36  1  0
 36 37  2  0
 37 38  1  0
 38 39  2  0
 39 40  1  0
 40 41  2  0
 41 42  1  0
 42 43  2  0
 43 44  1  0
 44 45  1  0
 45 46  1  0
 43 47  1  0
 39 48  1  0
 48 49  2  0
 49 50  1  0
 50 51  1  0
 51 52  2  0
 52 53  1  0
 53 54  2  0
 54 55  1  0
 55 56  1  0
 56 57  1  0
 54 58  1  0
 50 59  2  0
 59 60  1  0
 49 61  1  0
 61 62  2  0
 62 63  1  0
 62 64  1  0
 64 65  1  0
 65 66  1  0
 66 67  2  0
 67 68  1  0
 68 69  1  0
 67 70  1  0
 66 71  1  0
 71 72  1  0
 72 73  1  0
 73 74  2  0
 74 75  1  0
 75 76  1  0
 74 77  1  0
 73 78  1  0
 78 79  2  0
 79 80  1  0
 80 81  2  0
 81 82  1  0
 82 83  2  0
 83 84  1  0
 84 85  2  0
 85 86  1  0
 86 87  1  0
 87 88  1  0
 85 89  1  0
 81 90  1  0
 90 91  2  0
 91 92  1  0
 92 93  1  0
 93 94  2  0
 94 95  1  0
 95 96  2  0
 96 97  1  0
 97 98  1  0
 98 99  1  0
 96100  1  0
 92101  2  0
101102  1  0
 91103  1  0
103104  2  0
104105  1  0
 25  1  1  0
 33 29  2  0
 60 36  1  0
 68 64  2  0
 75 71  2  0
102 78  1  0
 24  3  1  0
 59 38  1  0
101 80  1  0
 12  5  1  0
 28 13  1  0
 47 40  1  0
 63 48  1  0
 89 82  1  0
105 90  1  0
 23 16  1  0
 58 51  1  0
100 93  1  0
  1106  1  0
  2107  1  0
  6108  1  0
  7109  1  0
 10110  1  0
 10111  1  0
 11112  1  0
 11113  1  0
 11114  1  0
 17115  1  0
 18116  1  0
 21117  1  0
 21118  1  0
 22119  1  0
 22120  1  0
 22121  1  0
 26122  1  0
 34123  1  0
 34124  1  0
 34125  1  0
 35126  1  0
 35127  1  0
 35128  1  0
 37129  1  0
 41130  1  0
 42131  1  0
 45132  1  0
 45133  1  0
 46134  1  0
 46135  1  0
 46136  1  0
 52137  1  0
 53138  1  0
 56139  1  0
 56140  1  0
 57141  1  0
 57142  1  0
 57143  1  0
 61144  1  0
 69145  1  0
 69146  1  0
 69147  1  0
 70148  1  0
 70149  1  0
 70150  1  0
 76151  1  0
 76152  1  0
 76153  1  0
 77154  1  0
 77155  1  0
 77156  1  0
 79157  1  0
 83158  1  0
 84159  1  0
 87160  1  0
 87161  1  0
 88162  1  0
 88163  1  0
 88164  1  0
 94165  1  0
 95166  1  0
 98167  1  0
 98168  1  0
 99169  1  0
 99170  1  0
 99171  1  0
103172  1  0
104173  1  0
M  END

