
     RDKit          3D

121135  0  0  0  0  0  0  0  0999 V2000
    5.5891    2.0012   -2.6764 C   0  0  0  0  0  0  0  0  0  0  0  0
    5.8295    3.4256   -1.7865 S   0  0  0  0  0  0  0  0  0  0  0  0
    5.4691    2.8258   -0.1819 C   0  0  0  0  0  0  0  0  0  0  0  0
    5.1815    1.5261   -0.4389 C   0  0  0  0  0  0  0  0  0  0  0  0
    5.2373    1.0836   -1.7192 C   0  0  0  0  0  0  0  0  0  0  0  0
    4.9414   -0.2761   -2.0220 O   0  0  0  0  0  0  0  0  0  0  0  0
    5.5399   -1.6334   -1.1763 S   0  0  0  0  0  0  0  0  0  0  0  0
    5.8759   -1.1772    0.5437 C   0  0  0  0  0  0  0  0  0  0  0  0
    4.8394    0.2728    0.8775 S   0  0  0  0  0  0  0  0  0  0  0  0
    5.6482    3.6117    1.0357 C   0  0  0  0  0  0  0  0  0  0  0  0
    4.9688    3.6959    2.0957 C   0  0  0  0  0  0  0  0  0  0  0  0
    3.7163    3.0664    2.5440 C   0  0  0  0  0  0  0  0  0  0  0  0
    2.7239    2.4462    1.8340 C   0  0  0  0  0  0  0  0  0  0  0  0
    1.6844    1.8897    2.4579 C   0  0  0  0  0  0  0  0  0  0  0  0
    0.5989    1.2092    1.9202 C   0  0  0  0  0  0  0  0  0  0  0  0
    0.3915    1.0721    0.4541 C   0  0  0  0  0  0  0  0  0  0  0  0
   -0.5381    0.4823   -0.2938 C   0  0  0  0  0  0  0  0  0  0  0  0
   -0.5293    0.5410   -1.6266 C   0  0  0  0  0  0  0  0  0  0  0  0
    0.4086    1.1915   -2.3226 C   0  0  0  0  0  0  0  0  0  0  0  0
    0.7159    1.5128   -4.0374 S   0  0  0  0  0  0  0  0  0  0  0  0
    0.0830    3.1197   -4.5590 C   0  0  0  0  0  0  0  0  0  0  0  0
   -1.4181    3.2259   -4.4848 C   0  0  0  0  0  0  0  0  0  0  0  0
    1.4829    1.8453   -0.8595 Se  0  0  0  0  0  2  0  0  0  0  0  0
   -0.3366    0.7084    2.7927 C   0  0  0  0  0  0  0  0  0  0  0  0
   -0.3394    0.8029    4.1687 C   0  0  0  0  0  0  0  0  0  0  0  0
    0.7480    1.4892    4.7010 C   0  0  0  0  0  0  0  0  0  0  0  0
    0.9353    1.7322    6.1397 C   0  0  0  0  0  0  0  0  0  0  0  0
    1.9103    2.2505    6.8768 C   0  0  0  0  0  0  0  0  0  0  0  0
    1.8315    2.3968    8.1959 C   0  0  0  0  0  0  0  0  0  0  0  0
    0.7506    2.0295    8.9079 C   0  0  0  0  0  0  0  0  0  0  0  0
    0.3007    2.0565   10.6160 S   0  0  0  0  0  0  0  0  0  0  0  0
   -0.5615    3.5364   11.1336 C   0  0  0  0  0  0  0  0  0  0  0  0
    0.2436    4.7944   11.0733 C   0  0  0  0  0  0  0  0  0  0  0  0
   -0.3649    1.3547    7.4590 Se  0  0  0  0  0  2  0  0  0  0  0  0
    1.7103    2.0011    3.8478 C   0  0  0  0  0  0  0  0  0  0  0  0
    3.1602    2.8598    4.1468 S   0  0  0  0  0  0  0  0  0  0  0  0
   -1.3507    0.1804    4.7868 C   0  0  0  0  0  0  0  0  0  0  0  0
   -2.2841   -0.4898    4.0382 C   0  0  0  0  0  0  0  0  0  0  0  0
   -1.7371   -0.2376    2.4605 S   0  0  0  0  0  0  0  0  0  0  0  0
   -3.4647   -1.2638    4.4365 C   0  0  0  0  0  0  0  0  0  0  0  0
   -4.3262   -2.3022    3.3866 S   0  0  0  0  0  0  0  0  0  0  0  0
   -5.5102   -2.9010    4.4508 C   0  0  0  0  0  0  0  0  0  0  0  0
   -5.2014   -2.2511    5.6275 C   0  0  0  0  0  0  0  0  0  0  0  0
   -4.1435   -1.4087    5.6136 C   0  0  0  0  0  0  0  0  0  0  0  0
   -3.8032   -0.7310    6.8194 O   0  0  0  0  0  0  0  0  0  0  0  0
   -3.5978   -1.6327    8.3180 S   0  0  0  0  0  0  0  0  0  0  0  0
   -5.1218   -2.5363    8.6113 C   0  0  0  0  0  0  0  0  0  0  0  0
   -6.1688   -2.4146    7.1728 S   0  0  0  0  0  0  0  0  0  0  0  0
   -6.5054   -3.9416    4.2063 C   0  0  0  0  0  0  0  0  0  0  0  0
   -6.6818   -4.5399    3.0997 C   0  0  0  0  0  0  0  0  0  0  0  0
   -6.0609   -4.4362    1.7828 C   0  0  0  0  0  0  0  0  0  0  0  0
   -5.4573   -3.0948    0.9378 S   0  0  0  0  0  0  0  0  0  0  0  0
   -4.7677   -3.8545   -0.4071 C   0  0  0  0  0  0  0  0  0  0  0  0
   -5.0227   -5.1899   -0.1721 C   0  0  0  0  0  0  0  0  0  0  0  0
   -5.6859   -5.5078    0.9443 C   0  0  0  0  0  0  0  0  0  0  0  0
   -6.0143   -6.8400    1.2997 O   0  0  0  0  0  0  0  0  0  0  0  0
   -6.0847   -8.1694    0.2253 S   0  0  0  0  0  0  0  0  0  0  0  0
   -4.5450   -8.1029   -0.7428 C   0  0  0  0  0  0  0  0  0  0  0  0
   -4.4184   -6.4472   -1.3751 S   0  0  0  0  0  0  0  0  0  0  0  0
   -4.1632   -3.1643   -1.5483 C   0  0  0  0  0  0  0  0  0  0  0  0
   -3.3871   -3.6482   -2.4625 C   0  0  0  0  0  0  0  0  0  0  0  0
   -2.8748   -2.7741   -3.5631 C   0  0  0  0  0  0  0  0  0  0  0  0
   -1.5477   -3.0766   -4.5950 S   0  0  0  0  0  0  0  0  0  0  0  0
   -1.6365   -1.6975   -5.5836 C   0  0  0  0  0  0  0  0  0  0  0  0
   -2.7194   -1.0184   -5.0810 C   0  0  0  0  0  0  0  0  0  0  0  0
   -3.3560   -1.5768   -4.0405 C   0  0  0  0  0  0  0  0  0  0  0  0
   -4.4819   -0.8576   -3.5390 O   0  0  0  0  0  0  0  0  0  0  0  0
   -5.8106   -0.3941   -4.6115 S   0  0  0  0  0  0  0  0  0  0  0  0
   -5.0986    0.5060   -5.9933 C   0  0  0  0  0  0  0  0  0  0  0  0
   -3.3034    0.5885   -5.7375 S   0  0  0  0  0  0  0  0  0  0  0  0
   -0.7126   -1.2998   -6.6613 C   0  0  0  0  0  0  0  0  0  0  0  0
    0.3983   -1.9628   -6.8742 C   0  0  0  0  0  0  0  0  0  0  0  0
    1.2737   -1.4949   -7.9786 C   0  0  0  0  0  0  0  0  0  0  0  0
    0.9463   -0.2899   -9.1378 S   0  0  0  0  0  0  0  0  0  0  0  0
    2.4493   -0.2805   -9.9654 C   0  0  0  0  0  0  0  0  0  0  0  0
    3.1635   -1.2353   -9.2921 C   0  0  0  0  0  0  0  0  0  0  0  0
    2.5711   -1.8642   -8.2746 C   0  0  0  0  0  0  0  0  0  0  0  0
    3.3032   -2.8515   -7.5772 O   0  0  0  0  0  0  0  0  0  0  0  0
    4.2079   -4.1208   -8.3514 S   0  0  0  0  0  0  0  0  0  0  0  0
    5.0570   -3.4247   -9.7993 C   0  0  0  0  0  0  0  0  0  0  0  0
    4.9027   -1.6397   -9.6840 S   0  0  0  0  0  0  0  0  0  0  0  0
    2.7668    0.5658  -11.1107 C   0  0  0  0  0  0  0  0  0  0  0  0
    3.9346    0.7010  -11.6772 C   0  0  0  0  0  0  0  0  0  0  0  0
    5.6947    1.8853   -3.7776 H   0  0  0  0  0  0  0  0  0  0  0  0
    6.9575   -0.9266    0.6173 H   0  0  0  0  0  0  0  0  0  0  0  0
    5.6508   -2.0161    1.2099 H   0  0  0  0  0  0  0  0  0  0  0  0
    6.6139    4.2693    0.9820 H   0  0  0  0  0  0  0  0  0  0  0  0
    5.4148    4.4148    2.8684 H   0  0  0  0  0  0  0  0  0  0  0  0
    2.8586    2.4669    0.7334 H   0  0  0  0  0  0  0  0  0  0  0  0
   -1.3515   -0.0901    0.2231 H   0  0  0  0  0  0  0  0  0  0  0  0
   -1.3323    0.0326   -2.2472 H   0  0  0  0  0  0  0  0  0  0  0  0
    0.4697    3.3727   -5.5735 H   0  0  0  0  0  0  0  0  0  0  0  0
    0.5071    3.8979   -3.8510 H   0  0  0  0  0  0  0  0  0  0  0  0
   -1.8309    3.1963   -5.5124 H   0  0  0  0  0  0  0  0  0  0  0  0
   -1.8041    2.4059   -3.8482 H   0  0  0  0  0  0  0  0  0  0  0  0
   -1.7572    4.1895   -4.0385 H   0  0  0  0  0  0  0  0  0  0  0  0
    2.8527    2.5693    6.3412 H   0  0  0  0  0  0  0  0  0  0  0  0
    2.6878    2.8467    8.7964 H   0  0  0  0  0  0  0  0  0  0  0  0
   -1.4777    3.6797   10.4956 H   0  0  0  0  0  0  0  0  0  0  0  0
   -0.9665    3.4564   12.1753 H   0  0  0  0  0  0  0  0  0  0  0  0
   -0.0383    5.3448   10.1523 H   0  0  0  0  0  0  0  0  0  0  0  0
    1.3410    4.6083   11.0054 H   0  0  0  0  0  0  0  0  0  0  0  0
    0.0099    5.4968   11.9164 H   0  0  0  0  0  0  0  0  0  0  0  0
   -1.5108    0.1439    5.8847 H   0  0  0  0  0  0  0  0  0  0  0  0
   -5.0072   -3.5842    8.8801 H   0  0  0  0  0  0  0  0  0  0  0  0
   -5.6076   -2.0551    9.5074 H   0  0  0  0  0  0  0  0  0  0  0  0
   -7.1164   -4.1801    5.0937 H   0  0  0  0  0  0  0  0  0  0  0  0
   -7.5089   -5.3250    3.1427 H   0  0  0  0  0  0  0  0  0  0  0  0
   -4.5250   -8.8336   -1.5688 H   0  0  0  0  0  0  0  0  0  0  0  0
   -3.7352   -8.3739   -0.0172 H   0  0  0  0  0  0  0  0  0  0  0  0
   -4.3907   -2.0808   -1.6503 H   0  0  0  0  0  0  0  0  0  0  0  0
   -3.0690   -4.6682   -2.4972 H   0  0  0  0  0  0  0  0  0  0  0  0
   -5.3364    0.0443   -6.9755 H   0  0  0  0  0  0  0  0  0  0  0  0
   -5.4976    1.5418   -5.9870 H   0  0  0  0  0  0  0  0  0  0  0  0
   -0.9650   -0.4586   -7.2685 H   0  0  0  0  0  0  0  0  0  0  0  0
    0.7267   -2.8022   -6.3235 H   0  0  0  0  0  0  0  0  0  0  0  0
    6.1265   -3.7387   -9.8201 H   0  0  0  0  0  0  0  0  0  0  0  0
    4.5393   -3.8498  -10.6936 H   0  0  0  0  0  0  0  0  0  0  0  0
    1.9508    1.1630  -11.5659 H   0  0  0  0  0  0  0  0  0  0  0  0
    4.7932    0.1679  -11.3167 H   0  0  0  0  0  0  0  0  0  0  0  0
    4.1205    1.3420  -12.5313 H   0  0  0  0  0  0  0  0  0  0  0  0
  1  2  1  0
  2  3  1  0
  3  4  2  0
  4  5  1  0
  5  6  1  0
  6  7  1  0
  7  8  1  0
  8  9  1  0
  3 10  1  0
 10 11  2  3
 11 12  1  0
 12 13  2  0
 13 14  1  0
 14 15  2  0
 15 16  1  0
 16 17  2  0
 17 18  1  0
 18 19  2  0
 19 20  1  0
 20 21  1  0
 21 22  1  0
 19 23  1  0
 15 24  1  0
 24 25  2  0
 25 26  1  0
 26 27  1  0
 27 28  2  0
 28 29  1  0
 29 30  2  0
 30 31  1  0
 31 32  1  0
 32 33  1  0
 30 34  1  0
 26 35  2  0
 35 36  1  0
 25 37  1  0
 37 38  2  0
 38 39  1  0
 38 40  1  0
 40 41  1  0
 41 42  1  0
 42 43  2  0
 43 44  1  0
 44 45  1  0
 45 46  1  0
 46 47  1  0
 47 48  1  0
 42 49  1  0
 49 50  2  3
 50 51  1  0
 51 52  1  0
 52 53  1  0
 53 54  2  0
 54 55  1  0
 55 56  1  0
 56 57  1  0
 57 58  1  0
 58 59  1  0
 53 60  1  0
 60 61  2  3
 61 62  1  0
 62 63  1  0
 63 64  1  0
 64 65  2  0
 65 66  1  0
 66 67  1  0
 67 68  1  0
 68 69  1  0
 69 70  1  0
 64 71  1  0
 71 72  2  3
 72 73  1  0
 73 74  1  0
 74 75  1  0
 75 76  2  0
 76 77  1  0
 77 78  1  0
 78 79  1  0
 79 80  1  0
 80 81  1  0
 75 82  1  0
 82 83  2  3
  5  1  2  0
 36 12  1  0
 44 40  2  0
 55 51  2  0
 66 62  2  0
 77 73  2  0
  9  4  1  0
 35 14  1  0
 48 43  1  0
 59 54  1  0
 70 65  1  0
 81 76  1  0
 23 16  1  0
 39 24  1  0
 34 27  1  0
  1 84  1  0
  8 85  1  0
  8 86  1  0
 10 87  1  0
 11 88  1  0
 13 89  1  0
 17 90  1  0
 18 91  1  0
 21 92  1  0
 21 93  1  0
 22 94  1  0
 22 95  1  0
 22 96  1  0
 28 97  1  0
 29 98  1  0
 32 99  1  0
 32100  1  0
 33101  1  0
 33102  1  0
 33103  1  0
 37104  1  0
 47105  1  0
 47106  1  0
 49107  1  0
 50108  1  0
 58109  1  0
 58110  1  0
 60111  1  0
 61112  1  0
 69113  1  0
 69114  1  0
 71115  1  0
 72116  1  0
 80117  1  0
 80118  1  0
 82119  1  0
 83120  1  0
 83121  1  0
M  END

