
     RDKit          3D

170187  0  0  0  0  0  0  0  0999 V2000
    1.0845    4.2694    9.5406 C   0  0  0  0  0  0  0  0  0  0  0  0
   -0.3019    3.3641    9.1990 S   0  0  0  0  0  0  0  0  0  0  0  0
   -1.5202    4.3602    9.8310 C   0  0  0  0  0  0  0  0  0  0  0  0
   -0.7606    5.4376   10.3218 C   0  0  0  0  0  0  0  0  0  0  0  0
    0.5525    5.3768   10.1649 C   0  0  0  0  0  0  0  0  0  0  0  0
    1.3563    6.4551   10.6182 C   0  0  0  0  0  0  0  0  0  0  0  0
    2.8278    6.4606   10.4428 C   0  0  0  0  0  0  0  0  0  0  0  0
    0.8167    7.5682   11.2219 C   0  0  0  0  0  0  0  0  0  0  0  0
   -0.5424    7.6327   11.3891 C   0  0  0  0  0  0  0  0  0  0  0  0
   -1.3055    6.5858   10.9448 C   0  0  0  0  0  0  0  0  0  0  0  0
   -2.9627    4.2715    9.7969 C   0  0  0  0  0  0  0  0  0  0  0  0
   -3.7129    3.5425    9.0925 C   0  0  0  0  0  0  0  0  0  0  0  0
   -3.3269    2.5640    8.0976 C   0  0  0  0  0  0  0  0  0  0  0  0
   -4.1450    2.0020    7.1104 C   0  0  0  0  0  0  0  0  0  0  0  0
   -3.5742    1.1179    6.2714 C   0  0  0  0  0  0  0  0  0  0  0  0
   -4.1527    0.5041    5.1466 C   0  0  0  0  0  0  0  0  0  0  0  0
   -5.5579    0.7137    4.7912 C   0  0  0  0  0  0  0  0  0  0  0  0
   -6.3530   -0.0253    3.9522 C   0  0  0  0  0  0  0  0  0  0  0  0
   -7.6045    0.3376    3.7061 C   0  0  0  0  0  0  0  0  0  0  0  0
   -8.2055    1.3982    4.2161 C   0  0  0  0  0  0  0  0  0  0  0  0
   -9.7920    2.1653    4.1656 S   0  0  0  0  0  0  0  0  0  0  0  0
  -10.8634    1.1062    3.1474 C   0  0  0  0  0  0  0  0  0  0  0  0
  -10.4078    1.0828    1.7242 C   0  0  0  0  0  0  0  0  0  0  0  0
   -6.6889    2.0864    5.3115 Se  0  0  0  0  0  2  0  0  0  0  0  0
   -3.3688   -0.2979    4.3487 C   0  0  0  0  0  0  0  0  0  0  0  0
   -2.0338   -0.5825    4.5411 C   0  0  0  0  0  0  0  0  0  0  0  0
   -1.4613    0.0145    5.6472 C   0  0  0  0  0  0  0  0  0  0  0  0
   -0.0431   -0.0947    6.0096 C   0  0  0  0  0  0  0  0  0  0  0  0
    1.0963   -0.4497    5.4241 C   0  0  0  0  0  0  0  0  0  0  0  0
    2.2552   -0.5634    6.0943 C   0  0  0  0  0  0  0  0  0  0  0  0
    2.4081   -0.3414    7.3741 C   0  0  0  0  0  0  0  0  0  0  0  0
    3.6198   -0.3768    8.6410 S   0  0  0  0  0  0  0  0  0  0  0  0
    4.4637    1.2280    8.7513 C   0  0  0  0  0  0  0  0  0  0  0  0
    5.2979    1.4851    7.4999 C   0  0  0  0  0  0  0  0  0  0  0  0
    0.4790    0.1487    7.7758 Se  0  0  0  0  0  2  0  0  0  0  0  0
   -2.2631    0.8339    6.4475 C   0  0  0  0  0  0  0  0  0  0  0  0
   -1.8454    1.8049    7.7752 S   0  0  0  0  0  0  0  0  0  0  0  0
   -1.4429   -1.3274    3.5874 C   0  0  0  0  0  0  0  0  0  0  0  0
   -2.1839   -1.7287    2.5105 C   0  0  0  0  0  0  0  0  0  0  0  0
   -3.6976   -1.0853    2.8402 S   0  0  0  0  0  0  0  0  0  0  0  0
   -1.5951   -2.4351    1.3362 C   0  0  0  0  0  0  0  0  0  0  0  0
   -2.0181   -2.3916    0.0373 C   0  0  0  0  0  0  0  0  0  0  0  0
   -1.2093   -2.9072   -0.9061 C   0  0  0  0  0  0  0  0  0  0  0  0
   -1.3470   -2.8518   -2.3015 C   0  0  0  0  0  0  0  0  0  0  0  0
   -2.5712   -2.4614   -2.9991 C   0  0  0  0  0  0  0  0  0  0  0  0
   -3.8473   -2.3010   -2.6478 C   0  0  0  0  0  0  0  0  0  0  0  0
   -4.7725   -1.8315   -3.4889 C   0  0  0  0  0  0  0  0  0  0  0  0
   -4.5277   -1.4824   -4.7406 C   0  0  0  0  0  0  0  0  0  0  0  0
   -5.4418   -0.8378   -6.1095 S   0  0  0  0  0  0  0  0  0  0  0  0
   -6.1921   -2.1986   -7.0832 C   0  0  0  0  0  0  0  0  0  0  0  0
   -7.2205   -2.9231   -6.2130 C   0  0  0  0  0  0  0  0  0  0  0  0
   -2.5791   -1.8816   -4.8194 Se  0  0  0  0  0  2  0  0  0  0  0  0
   -0.3118   -3.3033   -3.0978 C   0  0  0  0  0  0  0  0  0  0  0  0
    0.8792   -3.8319   -2.6730 C   0  0  0  0  0  0  0  0  0  0  0  0
    1.0168   -3.9022   -1.2785 C   0  0  0  0  0  0  0  0  0  0  0  0
    2.2124   -4.3223   -0.5632 C   0  0  0  0  0  0  0  0  0  0  0  0
    3.4967   -4.5066   -0.7856 C   0  0  0  0  0  0  0  0  0  0  0  0
    4.3569   -5.0126    0.1048 C   0  0  0  0  0  0  0  0  0  0  0  0
    3.9976   -5.3846    1.3289 C   0  0  0  0  0  0  0  0  0  0  0  0
    4.7758   -6.0659    2.7648 S   0  0  0  0  0  0  0  0  0  0  0  0
    3.5809   -6.2821    4.1144 C   0  0  0  0  0  0  0  0  0  0  0  0
    3.0674   -4.9511    4.6233 C   0  0  0  0  0  0  0  0  0  0  0  0
    2.0840   -4.9614    1.2706 Se  0  0  0  0  0  2  0  0  0  0  0  0
   -0.0265   -3.4377   -0.4877 C   0  0  0  0  0  0  0  0  0  0  0  0
   -0.0916   -3.1971    1.2238 S   0  0  0  0  0  0  0  0  0  0  0  0
    1.7896   -4.1209   -3.6114 C   0  0  0  0  0  0  0  0  0  0  0  0
    1.5007   -3.8716   -4.9181 C   0  0  0  0  0  0  0  0  0  0  0  0
   -0.0980   -3.2314   -4.8073 S   0  0  0  0  0  0  0  0  0  0  0  0
    2.3017   -3.9860   -6.1541 C   0  0  0  0  0  0  0  0  0  0  0  0
    2.2557   -2.6163   -7.2547 S   0  0  0  0  0  0  0  0  0  0  0  0
    3.3612   -3.1617   -8.3934 C   0  0  0  0  0  0  0  0  0  0  0  0
    3.7426   -4.3877   -7.9214 C   0  0  0  0  0  0  0  0  0  0  0  0
    3.1692   -4.7904   -6.7515 C   0  0  0  0  0  0  0  0  0  0  0  0
    3.5321   -6.0785   -6.2934 C   0  0  0  0  0  0  0  0  0  0  0  0
    2.9005   -6.6854   -5.0919 C   0  0  0  0  0  0  0  0  0  0  0  0
    4.4225   -6.8600   -6.9968 C   0  0  0  0  0  0  0  0  0  0  0  0
    5.0103   -6.4627   -8.1638 C   0  0  0  0  0  0  0  0  0  0  0  0
    4.6426   -5.1985   -8.6105 C   0  0  0  0  0  0  0  0  0  0  0  0
    3.7517   -2.3703   -9.5693 C   0  0  0  0  0  0  0  0  0  0  0  0
    3.1462   -1.2006   -9.8154 C   0  0  0  0  0  0  0  0  0  0  0  0
    2.0837   -0.6549   -8.9506 C   0  0  0  0  0  0  0  0  0  0  0  0
    2.2206    0.2184   -7.4962 S   0  0  0  0  0  0  0  0  0  0  0  0
    0.5736    0.3641   -7.0734 C   0  0  0  0  0  0  0  0  0  0  0  0
   -0.0589   -0.2898   -8.1196 C   0  0  0  0  0  0  0  0  0  0  0  0
    0.7155   -0.8076   -9.0730 C   0  0  0  0  0  0  0  0  0  0  0  0
    0.0886   -1.4919  -10.1436 C   0  0  0  0  0  0  0  0  0  0  0  0
    0.8856   -2.0951  -11.2318 C   0  0  0  0  0  0  0  0  0  0  0  0
   -1.2815   -1.6363  -10.2236 C   0  0  0  0  0  0  0  0  0  0  0  0
   -2.0710   -1.1077   -9.2484 C   0  0  0  0  0  0  0  0  0  0  0  0
   -1.4599   -0.4489   -8.2209 C   0  0  0  0  0  0  0  0  0  0  0  0
   -0.0539    0.9453   -5.8912 C   0  0  0  0  0  0  0  0  0  0  0  0
    0.4220    1.5999   -4.9223 C   0  0  0  0  0  0  0  0  0  0  0  0
    1.7881    2.0367   -4.6273 C   0  0  0  0  0  0  0  0  0  0  0  0
    3.0211    2.3237   -5.8010 S   0  0  0  0  0  0  0  0  0  0  0  0
    4.2787    2.7685   -4.7692 C   0  0  0  0  0  0  0  0  0  0  0  0
    3.7131    2.6785   -3.5214 C   0  0  0  0  0  0  0  0  0  0  0  0
    2.4243    2.2989   -3.4404 C   0  0  0  0  0  0  0  0  0  0  0  0
    1.8774    2.1927   -2.1366 C   0  0  0  0  0  0  0  0  0  0  0  0
    0.4939    1.7083   -1.8941 C   0  0  0  0  0  0  0  0  0  0  0  0
    2.5979    2.4661   -0.9927 C   0  0  0  0  0  0  0  0  0  0  0  0
    3.9030    2.8569   -1.0909 C   0  0  0  0  0  0  0  0  0  0  0  0
    4.4372    2.9565   -2.3368 C   0  0  0  0  0  0  0  0  0  0  0  0
    5.6534    3.2020   -5.1480 C   0  0  0  0  0  0  0  0  0  0  0  0
    5.8551    3.4392   -6.4138 C   0  0  0  0  0  0  0  0  0  0  0  0
    2.1476    4.0246    9.3275 H   0  0  0  0  0  0  0  0  0  0  0  0
    3.0547    5.8106    9.5533 H   0  0  0  0  0  0  0  0  0  0  0  0
    3.2013    7.4638   10.1512 H   0  0  0  0  0  0  0  0  0  0  0  0
    3.3684    5.9969   11.2894 H   0  0  0  0  0  0  0  0  0  0  0  0
    1.4687    8.3932   11.5526 H   0  0  0  0  0  0  0  0  0  0  0  0
   -0.9914    8.5134   11.8728 H   0  0  0  0  0  0  0  0  0  0  0  0
   -2.3726    6.6839   11.0991 H   0  0  0  0  0  0  0  0  0  0  0  0
   -3.4734    4.9546   10.5160 H   0  0  0  0  0  0  0  0  0  0  0  0
   -4.8121    3.6624    9.2547 H   0  0  0  0  0  0  0  0  0  0  0  0
   -5.1985    2.3183    7.1184 H   0  0  0  0  0  0  0  0  0  0  0  0
   -5.9018   -0.9534    3.5125 H   0  0  0  0  0  0  0  0  0  0  0  0
   -8.2578   -0.3037    2.9983 H   0  0  0  0  0  0  0  0  0  0  0  0
  -10.8390    0.0858    3.6291 H   0  0  0  0  0  0  0  0  0  0  0  0
  -11.9131    1.4986    3.2555 H   0  0  0  0  0  0  0  0  0  0  0  0
  -11.0309    1.7206    1.1028 H   0  0  0  0  0  0  0  0  0  0  0  0
   -9.3584    1.5135    1.7229 H   0  0  0  0  0  0  0  0  0  0  0  0
  -10.3705    0.0165    1.3966 H   0  0  0  0  0  0  0  0  0  0  0  0
    1.1136   -0.6113    4.3024 H   0  0  0  0  0  0  0  0  0  0  0  0
    3.2072   -0.8869    5.5263 H   0  0  0  0  0  0  0  0  0  0  0  0
    3.7262    2.0718    8.8142 H   0  0  0  0  0  0  0  0  0  0  0  0
    5.1179    1.3148    9.6405 H   0  0  0  0  0  0  0  0  0  0  0  0
    4.8113    2.2269    6.8504 H   0  0  0  0  0  0  0  0  0  0  0  0
    6.3040    1.8609    7.7658 H   0  0  0  0  0  0  0  0  0  0  0  0
    5.3453    0.4850    6.9783 H   0  0  0  0  0  0  0  0  0  0  0  0
   -0.3981   -1.6871    3.6240 H   0  0  0  0  0  0  0  0  0  0  0  0
   -2.9939   -1.8932   -0.1408 H   0  0  0  0  0  0  0  0  0  0  0  0
   -4.1563   -2.6301   -1.6072 H   0  0  0  0  0  0  0  0  0  0  0  0
   -5.8658   -1.6990   -3.1453 H   0  0  0  0  0  0  0  0  0  0  0  0
   -5.4056   -2.9146   -7.3425 H   0  0  0  0  0  0  0  0  0  0  0  0
   -6.6603   -1.7209   -7.9414 H   0  0  0  0  0  0  0  0  0  0  0  0
   -7.9159   -2.1749   -5.7837 H   0  0  0  0  0  0  0  0  0  0  0  0
   -7.8596   -3.6038   -6.8081 H   0  0  0  0  0  0  0  0  0  0  0  0
   -6.7218   -3.5459   -5.4491 H   0  0  0  0  0  0  0  0  0  0  0  0
    3.9279   -4.1728   -1.7945 H   0  0  0  0  0  0  0  0  0  0  0  0
    5.4705   -5.1384   -0.1609 H   0  0  0  0  0  0  0  0  0  0  0  0
    2.7153   -6.8541    3.7426 H   0  0  0  0  0  0  0  0  0  0  0  0
    4.0019   -6.8152    4.9556 H   0  0  0  0  0  0  0  0  0  0  0  0
    2.5527   -4.3751    3.7939 H   0  0  0  0  0  0  0  0  0  0  0  0
    2.3223   -5.0719    5.4222 H   0  0  0  0  0  0  0  0  0  0  0  0
    3.8713   -4.2969    4.9782 H   0  0  0  0  0  0  0  0  0  0  0  0
    2.7876   -4.5481   -3.3893 H   0  0  0  0  0  0  0  0  0  0  0  0
    3.4719   -6.5925   -4.1727 H   0  0  0  0  0  0  0  0  0  0  0  0
    1.8141   -6.4738   -5.0339 H   0  0  0  0  0  0  0  0  0  0  0  0
    2.8954   -7.8234   -5.2661 H   0  0  0  0  0  0  0  0  0  0  0  0
    4.6756   -7.8566   -6.6016 H   0  0  0  0  0  0  0  0  0  0  0  0
    5.7061   -7.0874   -8.6838 H   0  0  0  0  0  0  0  0  0  0  0  0
    5.1114   -4.8834   -9.5427 H   0  0  0  0  0  0  0  0  0  0  0  0
    4.5251   -2.6869  -10.2557 H   0  0  0  0  0  0  0  0  0  0  0  0
    3.4635   -0.6362  -10.6634 H   0  0  0  0  0  0  0  0  0  0  0  0
    1.5859   -1.4037  -11.7121 H   0  0  0  0  0  0  0  0  0  0  0  0
    1.3321   -3.0764  -10.9298 H   0  0  0  0  0  0  0  0  0  0  0  0
    0.1793   -2.3768  -12.0511 H   0  0  0  0  0  0  0  0  0  0  0  0
   -1.7471   -2.1685  -11.0591 H   0  0  0  0  0  0  0  0  0  0  0  0
   -3.1378   -1.2202   -9.3107 H   0  0  0  0  0  0  0  0  0  0  0  0
   -2.1324   -0.0453   -7.4567 H   0  0  0  0  0  0  0  0  0  0  0  0
   -1.1567    0.7647   -5.8337 H   0  0  0  0  0  0  0  0  0  0  0  0
   -0.2967    1.9923   -4.1541 H   0  0  0  0  0  0  0  0  0  0  0  0
    0.4346    1.3529   -0.7979 H   0  0  0  0  0  0  0  0  0  0  0  0
    0.2952    0.7531   -2.4292 H   0  0  0  0  0  0  0  0  0  0  0  0
   -0.2770    2.4742   -1.9387 H   0  0  0  0  0  0  0  0  0  0  0  0
    2.1597    2.3790    0.0152 H   0  0  0  0  0  0  0  0  0  0  0  0
    4.5031    3.0810   -0.1937 H   0  0  0  0  0  0  0  0  0  0  0  0
    5.4742    3.2802   -2.3701 H   0  0  0  0  0  0  0  0  0  0  0  0
    6.3589    3.2853   -4.3595 H   0  0  0  0  0  0  0  0  0  0  0  0
    5.0570    3.3197   -7.1228 H   0  0  0  0  0  0  0  0  0  0  0  0
    6.8241    3.7614   -6.7521 H   0  0  0  0  0  0  0  0  0  0  0  0
  1  2  1  0
  2  3  1  0
  3  4  2  0
  4  5  1  0
  5  6  1  0
  6  7  1  0
  6  8  2  0
  8  9  1  0
  9 10  2  0
  3 11  1  0
 11 12  2  3
 12 13  1  0
 13 14  2  0
 14 15  1  0
 15 16  2  0
 16 17  1  0
 17 18  2  0
 18 19  1  0
 19 20  2  0
 20 21  1  0
 21 22  1  0
 22 23  1  0
 20 24  1  0
 16 25  1  0
 25 26  2  0
 26 27  1  0
 27 28  1  0
 28 29  2  0
 29 30  1  0
 30 31  2  0
 31 32  1  0
 32 33  1  0
 33 34  1  0
 31 35  1  0
 27 36  2  0
 36 37  1  0
 26 38  1  0
 38 39  2  0
 39 40  1  0
 39 41  1  0
 41 42  2  0
 42 43  1  0
 43 44  2  0
 44 45  1  0
 45 46  2  0
 46 47  1  0
 47 48  2  0
 48 49  1  0
 49 50  1  0
 50 51  1  0
 48 52  1  0
 44 53  1  0
 53 54  2  0
 54 55  1  0
 55 56  1  0
 56 57  2  0
 57 58  1  0
 58 59  2  0
 59 60  1  0
 60 61  1  0
 61 62  1  0
 59 63  1  0
 55 64  2  0
 64 65  1  0
 54 66  1  0
 66 67  2  0
 67 68  1  0
 67 69  1  0
 69 70  1  0
 70 71  1  0
 71 72  2  0
 72 73  1  0
 73 74  1  0
 74 75  1  0
 74 76  2  0
 76 77  1  0
 77 78  2  0
 71 79  1  0
 79 80  2  3
 80 81  1  0
 81 82  1  0
 82 83  1  0
 83 84  2  0
 84 85  1  0
 85 86  1  0
 86 87  1  0
 86 88  2  0
 88 89  1  0
 89 90  2  0
 83 91  1  0
 91 92  2  3
 92 93  1  0
 93 94  1  0
 94 95  1  0
 95 96  2  0
 96 97  1  0
 97 98  1  0
 98 99  1  0
 98100  2  0
100101  1  0
101102  2  0
 95103  1  0
103104  2  3
  5  1  2  0
 37 13  1  0
 65 41  1  0
 73 69  2  0
 85 81  2  0
 97 93  2  0
 10  4  1  0
 36 15  1  0
 64 43  1  0
 78 72  1  0
 90 84  1  0
102 96  1  0
 24 17  1  0
 40 25  1  0
 52 45  1  0
 68 53  1  0
 35 28  1  0
 63 56  1  0
  1105  1  0
  7106  1  0
  7107  1  0
  7108  1  0
  8109  1  0
  9110  1  0
 10111  1  0
 11112  1  0
 12113  1  0
 14114  1  0
 18115  1  0
 19116  1  0
 22117  1  0
 22118  1  0
 23119  1  0
 23120  1  0
 23121  1  0
 29122  1  0
 30123  1  0
 33124  1  0
 33125  1  0
 34126  1  0
 34127  1  0
 34128  1  0
 38129  1  0
 42130  1  0
 46131  1  0
 47132  1  0
 50133  1  0
 50134  1  0
 51135  1  0
 51136  1  0
 51137  1  0
 57138  1  0
 58139  1  0
 61140  1  0
 61141  1  0
 62142  1  0
 62143  1  0
 62144  1  0
 66145  1  0
 75146  1  0
 75147  1  0
 75148  1  0
 76149  1  0
 77150  1  0
 78151  1  0
 79152  1  0
 80153  1  0
 87154  1  0
 87155  1  0
 87156  1  0
 88157  1  0
 89158  1  0
 90159  1  0
 91160  1  0
 92161  1  0
 99162  1  0
 99163  1  0
 99164  1  0
100165  1  0
101166  1  0
102167  1  0
103168  1  0
104169  1  0
104170  1  0
M  END

