
     RDKit          3D

174195  0  0  0  0  0  0  0  0999 V2000
   -3.1867    0.4654    4.3968 C   0  0  0  0  0  0  0  0  0  0  0  0
   -3.1065    0.4665    3.0358 C   0  0  0  0  0  0  0  0  0  0  0  0
   -2.6196    1.5699    2.4177 C   0  0  0  0  0  0  0  0  0  0  0  0
   -2.4856    1.8024    1.0714 C   0  0  0  0  0  0  0  0  0  0  0  0
   -2.6514    0.8337   -0.0070 C   0  0  0  0  0  0  0  0  0  0  0  0
   -2.6939   -0.4925   -0.1137 C   0  0  0  0  0  0  0  0  0  0  0  0
   -2.9342   -1.1312   -1.2598 C   0  0  0  0  0  0  0  0  0  0  0  0
   -3.1546   -0.5205   -2.4125 C   0  0  0  0  0  0  0  0  0  0  0  0
   -3.4832   -0.9787   -4.0909 S   0  0  0  0  0  0  0  0  0  0  0  0
   -3.7028    0.4936   -5.1388 C   0  0  0  0  0  0  0  0  0  0  0  0
   -4.9784    1.2227   -4.7189 C   0  0  0  0  0  0  0  0  0  0  0  0
   -3.0009    1.3549   -1.8086 Se  0  0  0  0  0  2  0  0  0  0  0  0
   -2.0040    3.0470    0.6547 C   0  0  0  0  0  0  0  0  0  0  0  0
   -1.6321    4.0915    1.4423 C   0  0  0  0  0  0  0  0  0  0  0  0
   -1.7535    3.8580    2.8127 C   0  0  0  0  0  0  0  0  0  0  0  0
   -1.2818    4.7453    3.8539 C   0  0  0  0  0  0  0  0  0  0  0  0
   -0.4923    5.8024    4.0177 C   0  0  0  0  0  0  0  0  0  0  0  0
   -0.3259    6.4568    5.1617 C   0  0  0  0  0  0  0  0  0  0  0  0
   -0.8664    6.2303    6.3313 C   0  0  0  0  0  0  0  0  0  0  0  0
   -1.0604    6.6830    7.9658 S   0  0  0  0  0  0  0  0  0  0  0  0
   -1.9973    5.4449    8.8980 C   0  0  0  0  0  0  0  0  0  0  0  0
   -3.4075    5.2716    8.4314 C   0  0  0  0  0  0  0  0  0  0  0  0
   -1.9931    4.5372    5.6302 Se  0  0  0  0  0  2  0  0  0  0  0  0
   -2.2478    2.6011    3.2249 C   0  0  0  0  0  0  0  0  0  0  0  0
   -2.5870    1.9975    4.7994 S   0  0  0  0  0  0  0  0  0  0  0  0
   -1.2504    5.2458    0.8025 C   0  0  0  0  0  0  0  0  0  0  0  0
   -1.2593    5.2952   -0.5036 C   0  0  0  0  0  0  0  0  0  0  0  0
   -1.8159    3.6753   -0.9100 S   0  0  0  0  0  0  0  0  0  0  0  0
   -1.1084    6.1933   -1.6814 C   0  0  0  0  0  0  0  0  0  0  0  0
   -2.3499    6.5004   -2.3042 C   0  0  0  0  0  0  0  0  0  0  0  0
   -1.9727    7.0780   -3.8124 S   0  0  0  0  0  0  0  0  0  0  0  0
   -0.2734    6.9486   -3.6931 C   0  0  0  0  0  0  0  0  0  0  0  0
    0.0011    6.4528   -2.4400 C   0  0  0  0  0  0  0  0  0  0  0  0
    1.3608    6.2449   -2.1308 C   0  0  0  0  0  0  0  0  0  0  0  0
    1.7022    5.7774   -0.7858 C   0  0  0  0  0  0  0  0  0  0  0  0
    1.5226    6.9604    0.1511 C   0  0  0  0  0  0  0  0  0  0  0  0
    2.3840    6.5077   -3.0675 C   0  0  0  0  0  0  0  0  0  0  0  0
    1.9400    6.9758   -4.2903 C   0  0  0  0  0  0  0  0  0  0  0  0
    0.6719    7.2084   -4.6295 N   0  0  0  0  0  0  0  0  0  0  0  0
    3.3486    7.0955   -5.2782 S   0  0  0  0  0  0  0  0  0  0  0  0
    4.4425    6.5860   -4.1509 C   0  0  0  0  0  0  0  0  0  0  0  0
    3.6775    6.3084   -2.9421 C   0  0  0  0  0  0  0  0  0  0  0  0
    4.6077    6.2689   -1.7116 C   0  0  0  0  0  0  0  0  0  0  0  0
    4.9735    7.6009   -1.3044 C   0  0  0  0  0  0  0  0  0  0  0  0
    6.4166    7.4343   -0.4808 S   0  0  0  0  0  0  0  0  0  0  0  0
    6.5709    5.7250   -0.6247 C   0  0  0  0  0  0  0  0  0  0  0  0
    5.4441    5.3120   -1.3304 C   0  0  0  0  0  0  0  0  0  0  0  0
    5.2927    3.9152   -1.4846 C   0  0  0  0  0  0  0  0  0  0  0  0
    4.2167    3.3605   -2.3010 C   0  0  0  0  0  0  0  0  0  0  0  0
    4.7366    3.4041   -3.7631 C   0  0  0  0  0  0  0  0  0  0  0  0
    6.2480    3.0066   -0.9663 C   0  0  0  0  0  0  0  0  0  0  0  0
    7.3529    3.5706   -0.3172 C   0  0  0  0  0  0  0  0  0  0  0  0
    7.5074    4.8919   -0.1451 N   0  0  0  0  0  0  0  0  0  0  0  0
    8.3640    2.2528    0.0791 S   0  0  0  0  0  0  0  0  0  0  0  0
    7.4162    1.0186   -0.5183 C   0  0  0  0  0  0  0  0  0  0  0  0
    6.2542    1.6683   -1.0511 C   0  0  0  0  0  0  0  0  0  0  0  0
    5.0666    0.7140   -0.9285 C   0  0  0  0  0  0  0  0  0  0  0  0
    4.7918   -0.5155   -1.3176 C   0  0  0  0  0  0  0  0  0  0  0  0
    3.7422   -1.1682   -0.6831 C   0  0  0  0  0  0  0  0  0  0  0  0
    3.3987   -2.5207   -0.7791 C   0  0  0  0  0  0  0  0  0  0  0  0
    3.8520   -3.3902   -1.8539 C   0  0  0  0  0  0  0  0  0  0  0  0
    3.7529   -4.7019   -2.0738 C   0  0  0  0  0  0  0  0  0  0  0  0
    4.1732   -5.2878   -3.2009 C   0  0  0  0  0  0  0  0  0  0  0  0
    4.7297   -4.6234   -4.2091 C   0  0  0  0  0  0  0  0  0  0  0  0
    5.3554   -4.9580   -5.8213 S   0  0  0  0  0  0  0  0  0  0  0  0
    5.1181   -6.6584   -6.3244 C   0  0  0  0  0  0  0  0  0  0  0  0
    5.9203   -7.6488   -5.5331 C   0  0  0  0  0  0  0  0  0  0  0  0
    4.6670   -2.7872   -3.4453 Se  0  0  0  0  0  2  0  0  0  0  0  0
    2.4587   -3.0522    0.1088 C   0  0  0  0  0  0  0  0  0  0  0  0
    1.8219   -2.3501    1.0816 C   0  0  0  0  0  0  0  0  0  0  0  0
    2.1400   -1.0070    1.1704 C   0  0  0  0  0  0  0  0  0  0  0  0
    1.7011   -0.1023    2.2296 C   0  0  0  0  0  0  0  0  0  0  0  0
    1.6776    1.2311    2.3151 C   0  0  0  0  0  0  0  0  0  0  0  0
    1.3643    1.8746    3.4334 C   0  0  0  0  0  0  0  0  0  0  0  0
    1.0404    1.2688    4.5832 C   0  0  0  0  0  0  0  0  0  0  0  0
    0.5591    1.7673    6.1751 S   0  0  0  0  0  0  0  0  0  0  0  0
    1.7962    2.1521    7.3703 C   0  0  0  0  0  0  0  0  0  0  0  0
    2.5733    0.9429    7.8214 C   0  0  0  0  0  0  0  0  0  0  0  0
    1.2034   -0.6176    3.9801 Se  0  0  0  0  0  2  0  0  0  0  0  0
    3.0888   -0.4821    0.2776 C   0  0  0  0  0  0  0  0  0  0  0  0
    3.8909    1.0345    0.2987 S   0  0  0  0  0  0  0  0  0  0  0  0
    1.0252   -3.0336    1.9310 C   0  0  0  0  0  0  0  0  0  0  0  0
    0.9179   -4.3975    1.7579 C   0  0  0  0  0  0  0  0  0  0  0  0
    1.9043   -4.6585    0.4304 S   0  0  0  0  0  0  0  0  0  0  0  0
    0.2271   -5.3013    2.7309 C   0  0  0  0  0  0  0  0  0  0  0  0
    1.0042   -5.4267    3.9300 C   0  0  0  0  0  0  0  0  0  0  0  0
    0.1113   -6.4016    4.9342 S   0  0  0  0  0  0  0  0  0  0  0  0
   -1.2200   -6.6750    3.9170 C   0  0  0  0  0  0  0  0  0  0  0  0
   -0.9394   -5.9754    2.7652 C   0  0  0  0  0  0  0  0  0  0  0  0
   -1.9405   -6.0579    1.7569 C   0  0  0  0  0  0  0  0  0  0  0  0
   -1.6583   -5.2810    0.5095 C   0  0  0  0  0  0  0  0  0  0  0  0
   -1.9062   -3.8266    0.8444 C   0  0  0  0  0  0  0  0  0  0  0  0
   -3.1148   -6.7745    1.8795 C   0  0  0  0  0  0  0  0  0  0  0  0
   -3.2733   -7.4341    3.0877 C   0  0  0  0  0  0  0  0  0  0  0  0
   -2.3493   -7.3788    4.0697 N   0  0  0  0  0  0  0  0  0  0  0  0
   -4.7638   -8.2581    2.9590 S   0  0  0  0  0  0  0  0  0  0  0  0
   -5.1660   -7.7771    1.4154 C   0  0  0  0  0  0  0  0  0  0  0  0
   -4.1265   -6.9615    0.9921 C   0  0  0  0  0  0  0  0  0  0  0  0
   -4.3642   -6.3097   -0.3503 C   0  0  0  0  0  0  0  0  0  0  0  0
   -4.9254   -5.0356   -0.3339 C   0  0  0  0  0  0  0  0  0  0  0  0
   -5.2219   -4.6688   -1.9426 S   0  0  0  0  0  0  0  0  0  0  0  0
   -4.6447   -6.1072   -2.6403 C   0  0  0  0  0  0  0  0  0  0  0  0
   -4.2150   -6.8806   -1.5858 C   0  0  0  0  0  0  0  0  0  0  0  0
   -3.6354   -8.1161   -1.9121 C   0  0  0  0  0  0  0  0  0  0  0  0
   -3.1688   -9.0908   -0.8945 C   0  0  0  0  0  0  0  0  0  0  0  0
   -4.2151  -10.0750   -0.4551 C   0  0  0  0  0  0  0  0  0  0  0  0
   -3.5346   -8.4796   -3.2890 C   0  0  0  0  0  0  0  0  0  0  0  0
   -3.9894   -7.6538   -4.2773 C   0  0  0  0  0  0  0  0  0  0  0  0
   -4.5443   -6.4692   -3.9501 N   0  0  0  0  0  0  0  0  0  0  0  0
   -3.6590   -8.4897   -5.7228 S   0  0  0  0  0  0  0  0  0  0  0  0
   -2.9520   -9.8714   -5.0673 C   0  0  0  0  0  0  0  0  0  0  0  0
   -2.9840   -9.6594   -3.7129 C   0  0  0  0  0  0  0  0  0  0  0  0
   -3.5536   -0.3549    5.0432 H   0  0  0  0  0  0  0  0  0  0  0  0
   -3.4810   -0.4350    2.5008 H   0  0  0  0  0  0  0  0  0  0  0  0
   -2.4604   -1.0968    0.8270 H   0  0  0  0  0  0  0  0  0  0  0  0
   -2.9583   -2.2801   -1.2949 H   0  0  0  0  0  0  0  0  0  0  0  0
   -2.8184    1.1389   -5.1154 H   0  0  0  0  0  0  0  0  0  0  0  0
   -3.8788    0.1475   -6.1716 H   0  0  0  0  0  0  0  0  0  0  0  0
   -5.5542    0.6133   -3.9832 H   0  0  0  0  0  0  0  0  0  0  0  0
   -5.6468    1.4346   -5.5722 H   0  0  0  0  0  0  0  0  0  0  0  0
   -4.7208    2.1927   -4.2578 H   0  0  0  0  0  0  0  0  0  0  0  0
    0.1249    6.1271    3.1030 H   0  0  0  0  0  0  0  0  0  0  0  0
    0.3920    7.3795    5.1647 H   0  0  0  0  0  0  0  0  0  0  0  0
   -1.5014    4.4328    8.8367 H   0  0  0  0  0  0  0  0  0  0  0  0
   -1.9811    5.6812    9.9987 H   0  0  0  0  0  0  0  0  0  0  0  0
   -4.1056    5.4636    9.2841 H   0  0  0  0  0  0  0  0  0  0  0  0
   -3.6788    5.8786    7.5702 H   0  0  0  0  0  0  0  0  0  0  0  0
   -3.6203    4.1895    8.1640 H   0  0  0  0  0  0  0  0  0  0  0  0
   -0.9659    6.1746    1.3684 H   0  0  0  0  0  0  0  0  0  0  0  0
   -3.3033    6.3394   -1.7655 H   0  0  0  0  0  0  0  0  0  0  0  0
    1.0633    4.9365   -0.5043 H   0  0  0  0  0  0  0  0  0  0  0  0
    2.7259    5.4331   -0.6199 H   0  0  0  0  0  0  0  0  0  0  0  0
    0.5519    7.4821   -0.0141 H   0  0  0  0  0  0  0  0  0  0  0  0
    2.3023    7.7397   -0.0971 H   0  0  0  0  0  0  0  0  0  0  0  0
    1.6422    6.6492    1.1962 H   0  0  0  0  0  0  0  0  0  0  0  0
    5.5343    6.4276   -4.1429 H   0  0  0  0  0  0  0  0  0  0  0  0
    4.3451    8.4701   -1.5375 H   0  0  0  0  0  0  0  0  0  0  0  0
    3.2799    3.9203   -2.3294 H   0  0  0  0  0  0  0  0  0  0  0  0
    3.9456    2.3155   -2.1681 H   0  0  0  0  0  0  0  0  0  0  0  0
    5.6526    3.9878   -3.8427 H   0  0  0  0  0  0  0  0  0  0  0  0
    3.9368    3.7563   -4.4329 H   0  0  0  0  0  0  0  0  0  0  0  0
    4.9902    2.3782   -4.1156 H   0  0  0  0  0  0  0  0  0  0  0  0
    7.5411   -0.0757   -0.5705 H   0  0  0  0  0  0  0  0  0  0  0  0
    5.4235   -0.9707   -2.1175 H   0  0  0  0  0  0  0  0  0  0  0  0
    3.2947   -5.3489   -1.2597 H   0  0  0  0  0  0  0  0  0  0  0  0
    4.0641   -6.4205   -3.3427 H   0  0  0  0  0  0  0  0  0  0  0  0
    4.0426   -6.9632   -6.2246 H   0  0  0  0  0  0  0  0  0  0  0  0
    5.3589   -6.7852   -7.4109 H   0  0  0  0  0  0  0  0  0  0  0  0
    6.3356   -7.2393   -4.6036 H   0  0  0  0  0  0  0  0  0  0  0  0
    5.2874   -8.5408   -5.2672 H   0  0  0  0  0  0  0  0  0  0  0  0
    6.7779   -8.0408   -6.1490 H   0  0  0  0  0  0  0  0  0  0  0  0
    1.9151    1.8150    1.3586 H   0  0  0  0  0  0  0  0  0  0  0  0
    1.3540    3.0174    3.4551 H   0  0  0  0  0  0  0  0  0  0  0  0
    1.2872    2.5393    8.3091 H   0  0  0  0  0  0  0  0  0  0  0  0
    2.4743    2.9956    7.0815 H   0  0  0  0  0  0  0  0  0  0  0  0
    2.8809    0.3615    6.9477 H   0  0  0  0  0  0  0  0  0  0  0  0
    1.9420    0.2795    8.4652 H   0  0  0  0  0  0  0  0  0  0  0  0
    3.4745    1.2103    8.4050 H   0  0  0  0  0  0  0  0  0  0  0  0
    0.4191   -2.5895    2.7604 H   0  0  0  0  0  0  0  0  0  0  0  0
    1.9868   -4.9324    4.0467 H   0  0  0  0  0  0  0  0  0  0  0  0
   -2.2353   -5.5128   -0.3535 H   0  0  0  0  0  0  0  0  0  0  0  0
   -0.6125   -5.5014    0.2061 H   0  0  0  0  0  0  0  0  0  0  0  0
   -1.2704   -3.1477    0.2409 H   0  0  0  0  0  0  0  0  0  0  0  0
   -2.9417   -3.4811    0.6715 H   0  0  0  0  0  0  0  0  0  0  0  0
   -1.7831   -3.6399    1.9616 H   0  0  0  0  0  0  0  0  0  0  0  0
   -6.0506   -8.0087    0.7784 H   0  0  0  0  0  0  0  0  0  0  0  0
   -5.0999   -4.4610    0.5975 H   0  0  0  0  0  0  0  0  0  0  0  0
   -2.3204   -9.7017   -1.3493 H   0  0  0  0  0  0  0  0  0  0  0  0
   -2.6471   -8.6079   -0.0404 H   0  0  0  0  0  0  0  0  0  0  0  0
   -5.2487   -9.7508   -0.6532 H   0  0  0  0  0  0  0  0  0  0  0  0
   -4.0450  -11.0895   -0.9369 H   0  0  0  0  0  0  0  0  0  0  0  0
   -4.0592  -10.2832    0.6263 H   0  0  0  0  0  0  0  0  0  0  0  0
   -2.5386  -10.7731   -5.5604 H   0  0  0  0  0  0  0  0  0  0  0  0
   -2.5610  -10.4785   -3.0660 H   0  0  0  0  0  0  0  0  0  0  0  0
  1  2  2  0
  2  3  1  0
  3  4  2  0
  4  5  1  0
  5  6  2  0
  6  7  1  0
  7  8  2  0
  8  9  1  0
  9 10  1  0
 10 11  1  0
  8 12  1  0
  4 13  1  0
 13 14  2  0
 14 15  1  0
 15 16  1  0
 16 17  2  0
 17 18  1  0
 18 19  2  0
 19 20  1  0
 20 21  1  0
 21 22  1  0
 19 23  1  0
 15 24  2  0
 24 25  1  0
 14 26  1  0
 26 27  2  0
 27 28  1  0
 27 29  1  0
 29 30  2  0
 30 31  1  0
 31 32  1  0
 32 33  2  0
 33 34  1  0
 34 35  1  0
 35 36  1  0
 34 37  2  0
 37 38  1  0
 38 39  2  0
 38 40  1  0
 40 41  1  0
 41 42  2  0
 42 43  1  0
 43 44  2  0
 44 45  1  0
 45 46  1  0
 46 47  2  0
 47 48  1  0
 48 49  1  0
 49 50  1  0
 48 51  2  0
 51 52  1  0
 52 53  2  0
 52 54  1  0
 54 55  1  0
 55 56  2  0
 56 57  1  0
 57 58  2  0
 58 59  1  0
 59 60  2  0
 60 61  1  0
 61 62  2  0
 62 63  1  0
 63 64  2  0
 64 65  1  0
 65 66  1  0
 66 67  1  0
 64 68  1  0
 60 69  1  0
 69 70  2  0
 70 71  1  0
 71 72  1  0
 72 73  2  0
 73 74  1  0
 74 75  2  0
 75 76  1  0
 76 77  1  0
 77 78  1  0
 75 79  1  0
 71 80  2  0
 80 81  1  0
 70 82  1  0
 82 83  2  0
 83 84  1  0
 83 85  1  0
 85 86  2  0
 86 87  1  0
 87 88  1  0
 88 89  2  0
 89 90  1  0
 90 91  1  0
 91 92  1  0
 90 93  2  0
 93 94  1  0
 94 95  2  0
 94 96  1  0
 96 97  1  0
 97 98  2  0
 98 99  1  0
 99100  2  0
100101  1  0
101102  1  0
102103  2  0
103104  1  0
104105  1  0
105106  1  0
104107  2  0
107108  1  0
108109  2  0
108110  1  0
110111  1  0
111112  2  0
 25  1  1  0
 33 29  1  0
 42 37  1  0
 47 43  1  0
 56 51  1  0
 81 57  1  0
 89 85  1  0
 98 93  1  0
103 99  1  0
112107  1  0
 24  3  1  0
 39 32  1  0
 53 46  1  0
 80 59  1  0
 95 88  1  0
109102  1  0
 12  5  1  0
 28 13  1  0
 68 61  1  0
 84 69  1  0
 23 16  1  0
 79 72  1  0
  1113  1  0
  2114  1  0
  6115  1  0
  7116  1  0
 10117  1  0
 10118  1  0
 11119  1  0
 11120  1  0
 11121  1  0
 17122  1  0
 18123  1  0
 21124  1  0
 21125  1  0
 22126  1  0
 22127  1  0
 22128  1  0
 26129  1  0
 30130  1  0
 35131  1  0
 35132  1  0
 36133  1  0
 36134  1  0
 36135  1  0
 41136  1  0
 44137  1  0
 49138  1  0
 49139  1  0
 50140  1  0
 50141  1  0
 50142  1  0
 55143  1  0
 58144  1  0
 62145  1  0
 63146  1  0
 66147  1  0
 66148  1  0
 67149  1  0
 67150  1  0
 67151  1  0
 73152  1  0
 74153  1  0
 77154  1  0
 77155  1  0
 78156  1  0
 78157  1  0
 78158  1  0
 82159  1  0
 86160  1  0
 91161  1  0
 91162  1  0
 92163  1  0
 92164  1  0
 92165  1  0
 97166  1  0
100167  1  0
105168  1  0
105169  1  0
106170  1  0
106171  1  0
106172  1  0
111173  1  0
112174  1  0
M  END

