
     RDKit          3D

284313  0  0  0  0  0  0  0  0999 V2000
    2.8355  -11.8288    4.2076 C   0  0  0  0  0  0  0  0  0  0  0  0
    3.7057  -11.2922    3.2952 C   0  0  0  0  0  0  0  0  0  0  0  0
    3.2049  -10.6023    2.2623 C   0  0  0  0  0  0  0  0  0  0  0  0
    3.8870   -9.9399    1.2519 C   0  0  0  0  0  0  0  0  0  0  0  0
    5.3272  -10.0340    1.0169 C   0  0  0  0  0  0  0  0  0  0  0  0
    6.3162  -10.8501    1.3987 C   0  0  0  0  0  0  0  0  0  0  0  0
    7.5965  -10.6340    1.0860 C   0  0  0  0  0  0  0  0  0  0  0  0
    8.0297   -9.6096    0.3756 C   0  0  0  0  0  0  0  0  0  0  0  0
    9.5693   -8.9909   -0.2247 S   0  0  0  0  0  0  0  0  0  0  0  0
    9.2847   -7.4929   -1.1883 C   0  0  0  0  0  0  0  0  0  0  0  0
    8.5030   -7.8862   -2.4183 C   0  0  0  0  0  0  0  0  0  0  0  0
    6.2875   -8.7052    0.0363 Se  0  0  0  0  0  2  0  0  0  0  0  0
    3.1753   -9.2181    0.2846 C   0  0  0  0  0  0  0  0  0  0  0  0
    1.8140   -9.1100    0.2375 C   0  0  0  0  0  0  0  0  0  0  0  0
    1.1269   -9.7721    1.2491 C   0  0  0  0  0  0  0  0  0  0  0  0
   -0.3094   -9.6212    1.4806 C   0  0  0  0  0  0  0  0  0  0  0  0
   -1.2021  -10.2726    2.2165 C   0  0  0  0  0  0  0  0  0  0  0  0
   -2.4595   -9.8586    2.3831 C   0  0  0  0  0  0  0  0  0  0  0  0
   -2.9518   -8.7515    1.8272 C   0  0  0  0  0  0  0  0  0  0  0  0
   -4.4793   -7.8669    1.7999 S   0  0  0  0  0  0  0  0  0  0  0  0
   -4.4474   -6.6210    3.1188 C   0  0  0  0  0  0  0  0  0  0  0  0
   -4.4062   -7.3567    4.4460 C   0  0  0  0  0  0  0  0  0  0  0  0
   -1.3306   -8.1368    0.8576 Se  0  0  0  0  0  2  0  0  0  0  0  0
    1.8281  -10.4906    2.2170 C   0  0  0  0  0  0  0  0  0  0  0  0
    1.3288  -11.3559    3.6066 S   0  0  0  0  0  0  0  0  0  0  0  0
    1.2934   -8.3580   -0.7450 C   0  0  0  0  0  0  0  0  0  0  0  0
    2.1755   -7.7532   -1.6112 C   0  0  0  0  0  0  0  0  0  0  0  0
    3.6555   -8.2441   -1.0615 S   0  0  0  0  0  0  0  0  0  0  0  0
    1.7268   -6.8522   -2.7088 C   0  0  0  0  0  0  0  0  0  0  0  0
    2.3248   -5.6723   -3.0874 C   0  0  0  0  0  0  0  0  0  0  0  0
    1.5992   -4.8538   -3.9048 C   0  0  0  0  0  0  0  0  0  0  0  0
    1.9303   -3.5098   -4.2712 C   0  0  0  0  0  0  0  0  0  0  0  0
    3.2115   -2.9947   -3.9123 C   0  0  0  0  0  0  0  0  0  0  0  0
    4.3064   -3.1540   -4.7557 C   0  0  0  0  0  0  0  0  0  0  0  0
    5.5266   -2.7364   -4.2914 C   0  0  0  0  0  0  0  0  0  0  0  0
    5.6803   -2.1682   -3.0138 C   0  0  0  0  0  0  0  0  0  0  0  0
    7.3284   -1.7279   -2.5553 S   0  0  0  0  0  0  0  0  0  0  0  0
    7.4104   -1.2407   -0.8197 C   0  0  0  0  0  0  0  0  0  0  0  0
    7.1203   -2.3726    0.1412 C   0  0  0  0  0  0  0  0  0  0  0  0
    4.5740   -2.0274   -2.2212 C   0  0  0  0  0  0  0  0  0  0  0  0
    4.7119   -1.4497   -0.9792 F   0  0  0  0  0  0  0  0  0  0  0  0
    3.3373   -2.4363   -2.6604 C   0  0  0  0  0  0  0  0  0  0  0  0
    0.9807   -2.7739   -4.9518 C   0  0  0  0  0  0  0  0  0  0  0  0
   -0.2480   -3.1897   -5.3314 C   0  0  0  0  0  0  0  0  0  0  0  0
   -0.5705   -4.5170   -4.9758 C   0  0  0  0  0  0  0  0  0  0  0  0
   -1.8274   -5.1506   -5.2860 C   0  0  0  0  0  0  0  0  0  0  0  0
   -2.0232   -5.7856   -6.5089 C   0  0  0  0  0  0  0  0  0  0  0  0
   -3.2162   -6.4198   -6.8252 C   0  0  0  0  0  0  0  0  0  0  0  0
   -4.2650   -6.4455   -5.9359 C   0  0  0  0  0  0  0  0  0  0  0  0
   -5.7947   -7.2858   -6.3123 S   0  0  0  0  0  0  0  0  0  0  0  0
   -5.7397   -8.0536   -7.9463 C   0  0  0  0  0  0  0  0  0  0  0  0
   -5.6790   -7.0514   -9.0598 C   0  0  0  0  0  0  0  0  0  0  0  0
   -4.0745   -5.8151   -4.7247 C   0  0  0  0  0  0  0  0  0  0  0  0
   -2.8936   -5.1827   -4.3946 C   0  0  0  0  0  0  0  0  0  0  0  0
   -5.1095   -5.8284   -3.8313 F   0  0  0  0  0  0  0  0  0  0  0  0
    0.3678   -5.2810   -4.2744 C   0  0  0  0  0  0  0  0  0  0  0  0
    0.2240   -6.7957   -3.4951 S   0  0  0  0  0  0  0  0  0  0  0  0
   -1.1330   -2.2888   -5.8087 C   0  0  0  0  0  0  0  0  0  0  0  0
   -0.7010   -0.9907   -5.8540 C   0  0  0  0  0  0  0  0  0  0  0  0
    0.8712   -1.0570   -5.2858 S   0  0  0  0  0  0  0  0  0  0  0  0
   -1.6127    0.1966   -5.9880 C   0  0  0  0  0  0  0  0  0  0  0  0
   -2.9700    0.1523   -6.0469 C   0  0  0  0  0  0  0  0  0  0  0  0
   -3.6435    1.2942   -5.7441 C   0  0  0  0  0  0  0  0  0  0  0  0
   -5.0303    1.3822   -5.4137 C   0  0  0  0  0  0  0  0  0  0  0  0
   -5.9987    0.3786   -5.8004 C   0  0  0  0  0  0  0  0  0  0  0  0
   -5.9941   -0.9380   -5.3933 C   0  0  0  0  0  0  0  0  0  0  0  0
   -6.9855   -1.8030   -5.8473 C   0  0  0  0  0  0  0  0  0  0  0  0
   -7.9924   -1.4178   -6.6954 C   0  0  0  0  0  0  0  0  0  0  0  0
   -9.2350   -2.5530   -7.3278 S   0  0  0  0  0  0  0  0  0  0  0  0
   -8.6964   -3.1556   -8.9817 C   0  0  0  0  0  0  0  0  0  0  0  0
   -7.4379   -3.9686   -8.8239 C   0  0  0  0  0  0  0  0  0  0  0  0
   -8.0015   -0.0971   -7.1031 C   0  0  0  0  0  0  0  0  0  0  0  0
   -8.9917    0.2980   -7.9536 F   0  0  0  0  0  0  0  0  0  0  0  0
   -7.0308    0.7731   -6.6664 C   0  0  0  0  0  0  0  0  0  0  0  0
   -5.4794    2.5296   -4.7799 C   0  0  0  0  0  0  0  0  0  0  0  0
   -4.7595    3.6114   -4.4382 C   0  0  0  0  0  0  0  0  0  0  0  0
   -3.3809    3.5401   -4.7974 C   0  0  0  0  0  0  0  0  0  0  0  0
   -2.4511    4.5950   -4.5476 C   0  0  0  0  0  0  0  0  0  0  0  0
   -2.3078    5.6114   -5.4607 C   0  0  0  0  0  0  0  0  0  0  0  0
   -1.4016    6.6113   -5.1749 C   0  0  0  0  0  0  0  0  0  0  0  0
   -0.6283    6.6381   -4.0103 C   0  0  0  0  0  0  0  0  0  0  0  0
    0.5296    7.9649   -3.7459 S   0  0  0  0  0  0  0  0  0  0  0  0
    1.3550    7.7561   -2.1434 C   0  0  0  0  0  0  0  0  0  0  0  0
    2.3547    8.8551   -1.8777 C   0  0  0  0  0  0  0  0  0  0  0  0
   -0.7949    5.6089   -3.1109 C   0  0  0  0  0  0  0  0  0  0  0  0
   -1.6992    4.6013   -3.3873 C   0  0  0  0  0  0  0  0  0  0  0  0
   -0.0765    5.5964   -1.9643 F   0  0  0  0  0  0  0  0  0  0  0  0
   -2.9169    2.3766   -5.4223 C   0  0  0  0  0  0  0  0  0  0  0  0
   -1.2744    1.8085   -5.5552 S   0  0  0  0  0  0  0  0  0  0  0  0
   -5.3001    4.4714   -3.5079 C   0  0  0  0  0  0  0  0  0  0  0  0
   -6.5289    4.1113   -3.0098 C   0  0  0  0  0  0  0  0  0  0  0  0
   -6.9307    2.6927   -3.8187 S   0  0  0  0  0  0  0  0  0  0  0  0
   -7.0171    4.5196   -1.6069 C   0  0  0  0  0  0  0  0  0  0  0  0
   -7.3527    3.4676   -0.7351 C   0  0  0  0  0  0  0  0  0  0  0  0
   -7.1449    3.6981    0.5764 C   0  0  0  0  0  0  0  0  0  0  0  0
   -6.9958    2.6463    1.5316 C   0  0  0  0  0  0  0  0  0  0  0  0
   -7.4095    1.3035    1.2800 C   0  0  0  0  0  0  0  0  0  0  0  0
   -6.4598    0.4748    0.6642 C   0  0  0  0  0  0  0  0  0  0  0  0
   -6.6919   -0.8445    0.3618 C   0  0  0  0  0  0  0  0  0  0  0  0
   -7.9318   -1.3903    0.6800 C   0  0  0  0  0  0  0  0  0  0  0  0
   -8.1981   -3.1029    0.3303 S   0  0  0  0  0  0  0  0  0  0  0  0
   -8.8277   -3.4274   -1.3207 C   0  0  0  0  0  0  0  0  0  0  0  0
   -7.8595   -3.0663   -2.4082 C   0  0  0  0  0  0  0  0  0  0  0  0
   -8.8692   -0.5764    1.2825 C   0  0  0  0  0  0  0  0  0  0  0  0
  -10.0719   -1.0754    1.5980 F   0  0  0  0  0  0  0  0  0  0  0  0
   -8.6067    0.7473    1.5757 C   0  0  0  0  0  0  0  0  0  0  0  0
   -6.3696    2.9402    2.7382 C   0  0  0  0  0  0  0  0  0  0  0  0
   -5.8896    4.1187    3.1453 C   0  0  0  0  0  0  0  0  0  0  0  0
   -6.0659    5.1838    2.1971 C   0  0  0  0  0  0  0  0  0  0  0  0
   -5.7284    6.5343    2.4866 C   0  0  0  0  0  0  0  0  0  0  0  0
   -6.5711    7.1890    3.4062 C   0  0  0  0  0  0  0  0  0  0  0  0
   -6.3850    8.4937    3.7895 C   0  0  0  0  0  0  0  0  0  0  0  0
   -5.3273    9.2513    3.2731 C   0  0  0  0  0  0  0  0  0  0  0  0
   -5.1346   10.9481    3.8304 S   0  0  0  0  0  0  0  0  0  0  0  0
   -6.1422   12.0712    2.8263 C   0  0  0  0  0  0  0  0  0  0  0  0
   -7.6265   11.8237    3.0296 C   0  0  0  0  0  0  0  0  0  0  0  0
   -4.5052    8.6252    2.3779 C   0  0  0  0  0  0  0  0  0  0  0  0
   -4.7039    7.3038    1.9992 C   0  0  0  0  0  0  0  0  0  0  0  0
   -3.4726    9.3513    1.8507 F   0  0  0  0  0  0  0  0  0  0  0  0
   -6.6698    4.8917    0.9711 C   0  0  0  0  0  0  0  0  0  0  0  0
   -6.5062    5.7266   -0.5772 S   0  0  0  0  0  0  0  0  0  0  0  0
   -4.9878    4.1452    4.1821 C   0  0  0  0  0  0  0  0  0  0  0  0
   -4.6437    2.9322    4.6922 C   0  0  0  0  0  0  0  0  0  0  0  0
   -5.5593    1.8175    3.8142 S   0  0  0  0  0  0  0  0  0  0  0  0
   -3.3603    2.5965    5.4278 C   0  0  0  0  0  0  0  0  0  0  0  0
   -2.3855    3.3339    5.9434 C   0  0  0  0  0  0  0  0  0  0  0  0
   -1.1378    2.7613    6.1066 C   0  0  0  0  0  0  0  0  0  0  0  0
    0.0496    3.4322    6.3391 C   0  0  0  0  0  0  0  0  0  0  0  0
    0.1621    4.7746    6.9265 C   0  0  0  0  0  0  0  0  0  0  0  0
   -0.6641    5.5934    7.5857 C   0  0  0  0  0  0  0  0  0  0  0  0
   -0.3111    6.8247    7.9584 C   0  0  0  0  0  0  0  0  0  0  0  0
    0.8769    7.3619    7.7237 C   0  0  0  0  0  0  0  0  0  0  0  0
    1.7155    8.8869    8.0236 S   0  0  0  0  0  0  0  0  0  0  0  0
    2.5184    8.7754    9.6505 C   0  0  0  0  0  0  0  0  0  0  0  0
    3.6120    7.7220    9.6000 C   0  0  0  0  0  0  0  0  0  0  0  0
    1.7230    5.8332    6.7661 Se  0  0  0  0  0  2  0  0  0  0  0  0
    1.2641    2.7499    6.1358 C   0  0  0  0  0  0  0  0  0  0  0  0
    1.3861    1.4524    5.7259 C   0  0  0  0  0  0  0  0  0  0  0  0
    0.1852    0.7773    5.5270 C   0  0  0  0  0  0  0  0  0  0  0  0
    0.1027   -0.5801    5.0342 C   0  0  0  0  0  0  0  0  0  0  0  0
   -0.9117   -1.4753    4.9989 C   0  0  0  0  0  0  0  0  0  0  0  0
   -0.7875   -2.6595    4.4007 C   0  0  0  0  0  0  0  0  0  0  0  0
    0.3301   -3.0768    3.7863 C   0  0  0  0  0  0  0  0  0  0  0  0
    0.8085   -4.5363    2.9554 S   0  0  0  0  0  0  0  0  0  0  0  0
    0.4791   -4.6335    1.2159 C   0  0  0  0  0  0  0  0  0  0  0  0
    1.2938   -3.7176    0.3411 C   0  0  0  0  0  0  0  0  0  0  0  0
    1.4487   -1.5083    4.0931 Se  0  0  0  0  0  2  0  0  0  0  0  0
   -1.0200    1.4602    5.7249 C   0  0  0  0  0  0  0  0  0  0  0  0
   -2.5980    1.0570    5.1796 S   0  0  0  0  0  0  0  0  0  0  0  0
    2.6385    1.0322    5.3920 C   0  0  0  0  0  0  0  0  0  0  0  0
    3.6404    1.9380    5.4878 C   0  0  0  0  0  0  0  0  0  0  0  0
    2.8956    3.3350    6.0513 S   0  0  0  0  0  0  0  0  0  0  0  0
    4.9605    1.8753    4.7806 C   0  0  0  0  0  0  0  0  0  0  0  0
    4.8998    1.8366    3.3464 C   0  0  0  0  0  0  0  0  0  0  0  0
    6.0530    1.9817    2.6975 C   0  0  0  0  0  0  0  0  0  0  0  0
    6.2232    2.0222    1.3010 C   0  0  0  0  0  0  0  0  0  0  0  0
    5.1286    2.0621    0.3525 C   0  0  0  0  0  0  0  0  0  0  0  0
    3.8190    2.1528    0.2960 C   0  0  0  0  0  0  0  0  0  0  0  0
    3.0757    2.1771   -0.8037 C   0  0  0  0  0  0  0  0  0  0  0  0
    3.6072    2.1116   -2.0376 C   0  0  0  0  0  0  0  0  0  0  0  0
    2.9106    2.1333   -3.6568 S   0  0  0  0  0  0  0  0  0  0  0  0
    4.1527    2.0576   -4.9459 C   0  0  0  0  0  0  0  0  0  0  0  0
    5.0292    3.2809   -5.0395 C   0  0  0  0  0  0  0  0  0  0  0  0
    5.4820    1.9920   -1.6057 Se  0  0  0  0  0  2  0  0  0  0  0  0
    7.5166    2.2043    0.8008 C   0  0  0  0  0  0  0  0  0  0  0  0
    8.6473    2.3551    1.5553 C   0  0  0  0  0  0  0  0  0  0  0  0
    8.4598    2.3187    2.9339 C   0  0  0  0  0  0  0  0  0  0  0  0
    9.5269    2.2946    3.9200 C   0  0  0  0  0  0  0  0  0  0  0  0
   10.8465    2.0487    3.9162 C   0  0  0  0  0  0  0  0  0  0  0  0
   11.6145    2.2062    4.9874 C   0  0  0  0  0  0  0  0  0  0  0  0
   11.1771    2.6158    6.1707 C   0  0  0  0  0  0  0  0  0  0  0  0
   11.8207    2.9857    7.7694 S   0  0  0  0  0  0  0  0  0  0  0  0
   13.6098    2.8021    7.7064 C   0  0  0  0  0  0  0  0  0  0  0  0
   14.0758    1.4067    7.4683 C   0  0  0  0  0  0  0  0  0  0  0  0
    9.2467    2.8399    5.7065 Se  0  0  0  0  0  2  0  0  0  0  0  0
    7.1833    2.1423    3.4418 C   0  0  0  0  0  0  0  0  0  0  0  0
    6.5590    2.0912    5.0627 S   0  0  0  0  0  0  0  0  0  0  0  0
    9.7993    2.5436    0.8759 C   0  0  0  0  0  0  0  0  0  0  0  0
    9.7405    2.5627   -0.4919 C   0  0  0  0  0  0  0  0  0  0  0  0
    8.0879    2.3222   -0.8015 S   0  0  0  0  0  0  0  0  0  0  0  0
    3.0871  -12.4202    5.1099 H   0  0  0  0  0  0  0  0  0  0  0  0
    4.7904  -11.4490    3.5197 H   0  0  0  0  0  0  0  0  0  0  0  0
    6.0326  -11.7963    1.9705 H   0  0  0  0  0  0  0  0  0  0  0  0
    8.3953  -11.3779    1.4585 H   0  0  0  0  0  0  0  0  0  0  0  0
   10.2192   -6.9782   -1.4803 H   0  0  0  0  0  0  0  0  0  0  0  0
    8.6426   -6.8001   -0.5897 H   0  0  0  0  0  0  0  0  0  0  0  0
    8.8086   -8.9182   -2.6755 H   0  0  0  0  0  0  0  0  0  0  0  0
    7.4045   -7.8729   -2.2287 H   0  0  0  0  0  0  0  0  0  0  0  0
    8.7187   -7.2044   -3.2702 H   0  0  0  0  0  0  0  0  0  0  0  0
   -0.8734  -11.2519    2.7149 H   0  0  0  0  0  0  0  0  0  0  0  0
   -3.1977  -10.4612    3.0287 H   0  0  0  0  0  0  0  0  0  0  0  0
   -5.4305   -6.0769    3.0924 H   0  0  0  0  0  0  0  0  0  0  0  0
   -3.5700   -5.9663    3.0577 H   0  0  0  0  0  0  0  0  0  0  0  0
   -4.5179   -8.4637    4.3288 H   0  0  0  0  0  0  0  0  0  0  0  0
   -5.1985   -7.0199    5.1418 H   0  0  0  0  0  0  0  0  0  0  0  0
   -3.4342   -7.2141    4.9789 H   0  0  0  0  0  0  0  0  0  0  0  0
    0.2111   -8.2058   -0.9347 H   0  0  0  0  0  0  0  0  0  0  0  0
    3.3527   -5.4456   -2.7048 H   0  0  0  0  0  0  0  0  0  0  0  0
    4.1997   -3.5990   -5.7604 H   0  0  0  0  0  0  0  0  0  0  0  0
    6.3872   -2.8676   -4.9534 H   0  0  0  0  0  0  0  0  0  0  0  0
    8.4424   -0.8496   -0.5706 H   0  0  0  0  0  0  0  0  0  0  0  0
    6.7173   -0.4242   -0.5647 H   0  0  0  0  0  0  0  0  0  0  0  0
    8.0510   -2.7578    0.6200 H   0  0  0  0  0  0  0  0  0  0  0  0
    6.6673   -3.2496   -0.3755 H   0  0  0  0  0  0  0  0  0  0  0  0
    6.4156   -2.0308    0.9177 H   0  0  0  0  0  0  0  0  0  0  0  0
    2.4753   -2.2989   -1.9873 H   0  0  0  0  0  0  0  0  0  0  0  0
   -1.2190   -5.7883   -7.2576 H   0  0  0  0  0  0  0  0  0  0  0  0
   -3.3359   -6.9114   -7.7977 H   0  0  0  0  0  0  0  0  0  0  0  0
   -6.5740   -8.7507   -8.1126 H   0  0  0  0  0  0  0  0  0  0  0  0
   -4.8003   -8.6753   -8.0269 H   0  0  0  0  0  0  0  0  0  0  0  0
   -5.3864   -6.0345   -8.6807 H   0  0  0  0  0  0  0  0  0  0  0  0
   -4.9114   -7.3508   -9.7796 H   0  0  0  0  0  0  0  0  0  0  0  0
   -6.6382   -6.9896   -9.6237 H   0  0  0  0  0  0  0  0  0  0  0  0
   -2.7303   -4.6872   -3.4433 H   0  0  0  0  0  0  0  0  0  0  0  0
   -2.1502   -2.5245   -6.1642 H   0  0  0  0  0  0  0  0  0  0  0  0
   -3.4815   -0.7874   -6.3387 H   0  0  0  0  0  0  0  0  0  0  0  0
   -5.2084   -1.2212   -4.7263 H   0  0  0  0  0  0  0  0  0  0  0  0
   -6.9612   -2.8185   -5.5261 H   0  0  0  0  0  0  0  0  0  0  0  0
   -8.4733   -2.2036   -9.5620 H   0  0  0  0  0  0  0  0  0  0  0  0
   -9.5197   -3.6547   -9.4845 H   0  0  0  0  0  0  0  0  0  0  0  0
   -7.5147   -4.5564   -7.8832 H   0  0  0  0  0  0  0  0  0  0  0  0
   -6.5938   -3.2338   -8.6693 H   0  0  0  0  0  0  0  0  0  0  0  0
   -7.2932   -4.5573   -9.7231 H   0  0  0  0  0  0  0  0  0  0  0  0
   -7.0342    1.8164   -6.9696 H   0  0  0  0  0  0  0  0  0  0  0  0
   -2.8905    5.6406   -6.4001 H   0  0  0  0  0  0  0  0  0  0  0  0
   -1.2622    7.4297   -5.8711 H   0  0  0  0  0  0  0  0  0  0  0  0
    1.8746    6.7834   -2.0438 H   0  0  0  0  0  0  0  0  0  0  0  0
    0.5937    7.8724   -1.3109 H   0  0  0  0  0  0  0  0  0  0  0  0
    2.2758    9.6291   -2.6681 H   0  0  0  0  0  0  0  0  0  0  0  0
    3.3807    8.4093   -2.0245 H   0  0  0  0  0  0  0  0  0  0  0  0
    2.3134    9.2347   -0.8491 H   0  0  0  0  0  0  0  0  0  0  0  0
   -1.7837    3.8187   -2.6515 H   0  0  0  0  0  0  0  0  0  0  0  0
   -4.8277    5.3727   -3.1703 H   0  0  0  0  0  0  0  0  0  0  0  0
   -7.7812    2.5421   -1.1468 H   0  0  0  0  0  0  0  0  0  0  0  0
   -5.4718    0.8840    0.4023 H   0  0  0  0  0  0  0  0  0  0  0  0
   -5.9431   -1.4865   -0.1204 H   0  0  0  0  0  0  0  0  0  0  0  0
   -9.0736   -4.5183   -1.4422 H   0  0  0  0  0  0  0  0  0  0  0  0
   -9.7323   -2.7916   -1.4815 H   0  0  0  0  0  0  0  0  0  0  0  0
   -8.3436   -2.5242   -3.2602 H   0  0  0  0  0  0  0  0  0  0  0  0
   -6.9661   -2.5236   -2.0531 H   0  0  0  0  0  0  0  0  0  0  0  0
   -7.4851   -4.0097   -2.8896 H   0  0  0  0  0  0  0  0  0  0  0  0
   -9.3752    1.3568    2.0635 H   0  0  0  0  0  0  0  0  0  0  0  0
   -7.3990    6.6670    3.8371 H   0  0  0  0  0  0  0  0  0  0  0  0
   -7.0487    8.9953    4.5111 H   0  0  0  0  0  0  0  0  0  0  0  0
   -5.9641   13.1224    3.1738 H   0  0  0  0  0  0  0  0  0  0  0  0
   -5.9161   12.0413    1.7617 H   0  0  0  0  0  0  0  0  0  0  0  0
   -7.9757   12.2089    4.0046 H   0  0  0  0  0  0  0  0  0  0  0  0
   -7.9058   10.7753    2.8974 H   0  0  0  0  0  0  0  0  0  0  0  0
   -8.1538   12.3808    2.2290 H   0  0  0  0  0  0  0  0  0  0  0  0
   -4.0415    6.8133    1.2963 H   0  0  0  0  0  0  0  0  0  0  0  0
   -4.5584    5.0639    4.5963 H   0  0  0  0  0  0  0  0  0  0  0  0
   -2.5945    4.3945    6.2048 H   0  0  0  0  0  0  0  0  0  0  0  0
   -1.6911    5.1854    7.8814 H   0  0  0  0  0  0  0  0  0  0  0  0
   -1.0583    7.4954    8.5268 H   0  0  0  0  0  0  0  0  0  0  0  0
    2.8893    9.7679   10.0040 H   0  0  0  0  0  0  0  0  0  0  0  0
    1.7195    8.4155   10.3566 H   0  0  0  0  0  0  0  0  0  0  0  0
    3.3020    6.7498   10.0400 H   0  0  0  0  0  0  0  0  0  0  0  0
    3.9344    7.5354    8.5277 H   0  0  0  0  0  0  0  0  0  0  0  0
    4.5283    8.0358   10.1258 H   0  0  0  0  0  0  0  0  0  0  0  0
   -1.8725   -1.1866    5.5258 H   0  0  0  0  0  0  0  0  0  0  0  0
   -1.6638   -3.3965    4.3821 H   0  0  0  0  0  0  0  0  0  0  0  0
    0.7099   -5.6668    0.8652 H   0  0  0  0  0  0  0  0  0  0  0  0
   -0.6275   -4.5326    0.9855 H   0  0  0  0  0  0  0  0  0  0  0  0
    2.3536   -3.6911    0.6137 H   0  0  0  0  0  0  0  0  0  0  0  0
    1.2769   -4.0597   -0.7347 H   0  0  0  0  0  0  0  0  0  0  0  0
    0.7860   -2.7372    0.3395 H   0  0  0  0  0  0  0  0  0  0  0  0
    2.9088    0.0001    5.0682 H   0  0  0  0  0  0  0  0  0  0  0  0
    3.8880    1.6556    2.9559 H   0  0  0  0  0  0  0  0  0  0  0  0
    3.2514    2.2677    1.2867 H   0  0  0  0  0  0  0  0  0  0  0  0
    1.9291    2.2558   -0.7704 H   0  0  0  0  0  0  0  0  0  0  0  0
    4.8221    1.1718   -4.8216 H   0  0  0  0  0  0  0  0  0  0  0  0
    3.6648    1.9234   -5.9253 H   0  0  0  0  0  0  0  0  0  0  0  0
    4.4861    4.2041   -4.7691 H   0  0  0  0  0  0  0  0  0  0  0  0
    5.4183    3.3917   -6.0705 H   0  0  0  0  0  0  0  0  0  0  0  0
    5.9322    3.1239   -4.3948 H   0  0  0  0  0  0  0  0  0  0  0  0
   11.2963    1.6219    2.9554 H   0  0  0  0  0  0  0  0  0  0  0  0
   12.7477    1.9898    4.9312 H   0  0  0  0  0  0  0  0  0  0  0  0
   14.0845    3.2598    8.6368 H   0  0  0  0  0  0  0  0  0  0  0  0
   14.0019    3.4569    6.8736 H   0  0  0  0  0  0  0  0  0  0  0  0
   14.5178    1.3054    6.4289 H   0  0  0  0  0  0  0  0  0  0  0  0
   14.9230    1.1823    8.1501 H   0  0  0  0  0  0  0  0  0  0  0  0
   13.2781    0.6393    7.5599 H   0  0  0  0  0  0  0  0  0  0  0  0
   10.7963    2.7276    1.3280 H   0  0  0  0  0  0  0  0  0  0  0  0
   10.5798    2.7057   -1.1977 H   0  0  0  0  0  0  0  0  0  0  0  0
  1  2  2  0
  2  3  1  0
  3  4  2  0
  4  5  1  0
  5  6  2  0
  6  7  1  0
  7  8  2  0
  8  9  1  0
  9 10  1  0
 10 11  1  0
  8 12  1  0
  4 13  1  0
 13 14  2  0
 14 15  1  0
 15 16  1  0
 16 17  2  0
 17 18  1  0
 18 19  2  0
 19 20  1  0
 20 21  1  0
 21 22  1  0
 19 23  1  0
 15 24  2  0
 24 25  1  0
 14 26  1  0
 26 27  2  0
 27 28  1  0
 27 29  1  0
 29 30  2  0
 30 31  1  0
 31 32  2  0
 32 33  1  0
 33 34  2  0
 34 35  1  0
 35 36  2  0
 36 37  1  0
 37 38  1  0
 38 39  1  0
 36 40  1  0
 40 41  1  0
 40 42  2  0
 32 43  1  0
 43 44  2  0
 44 45  1  0
 45 46  1  0
 46 47  2  0
 47 48  1  0
 48 49  2  0
 49 50  1  0
 50 51  1  0
 51 52  1  0
 49 53  1  0
 53 54  2  0
 53 55  1  0
 45 56  2  0
 56 57  1  0
 44 58  1  0
 58 59  2  0
 59 60  1  0
 59 61  1  0
 61 62  2  0
 62 63  1  0
 63 64  2  0
 64 65  1  0
 65 66  2  0
 66 67  1  0
 67 68  2  0
 68 69  1  0
 69 70  1  0
 70 71  1  0
 68 72  1  0
 72 73  1  0
 72 74  2  0
 64 75  1  0
 75 76  2  0
 76 77  1  0
 77 78  1  0
 78 79  2  0
 79 80  1  0
 80 81  2  0
 81 82  1  0
 82 83  1  0
 83 84  1  0
 81 85  1  0
 85 86  2  0
 85 87  1  0
 77 88  2  0
 88 89  1  0
 76 90  1  0
 90 91  2  0
 91 92  1  0
 91 93  1  0
 93 94  2  0
 94 95  1  0
 95 96  2  0
 96 97  1  0
 97 98  2  0
 98 99  1  0
 99100  2  0
100101  1  0
101102  1  0
102103  1  0
100104  1  0
104105  1  0
104106  2  0
 96107  1  0
107108  2  0
108109  1  0
109110  1  0
110111  2  0
111112  1  0
112113  2  0
113114  1  0
114115  1  0
115116  1  0
113117  1  0
117118  2  0
117119  1  0
109120  2  0
120121  1  0
108122  1  0
122123  2  0
123124  1  0
123125  1  0
125126  2  0
126127  1  0
127128  2  0
128129  1  0
129130  2  0
130131  1  0
131132  2  0
132133  1  0
133134  1  0
134135  1  0
132136  1  0
128137  1  0
137138  2  0
138139  1  0
139140  1  0
140141  2  0
141142  1  0
142143  2  0
143144  1  0
144145  1  0
145146  1  0
143147  1  0
139148  2  0
148149  1  0
138150  1  0
150151  2  0
151152  1  0
151153  1  0
153154  2  0
154155  1  0
155156  2  0
156157  1  0
157158  2  0
158159  1  0
159160  2  0
160161  1  0
161162  1  0
162163  1  0
160164  1  0
156165  1  0
165166  2  0
166167  1  0
167168  1  0
168169  2  0
169170  1  0
170171  2  0
171172  1  0
172173  1  0
173174  1  0
171175  1  0
167176  2  0
176177  1  0
166178  1  0
178179  2  0
179180  1  0
 25  1  1  0
 57 29  1  0
 89 61  1  0
121 93  1  0
149125  1  0
177153  1  0
 24  3  1  0
 56 31  1  0
 88 63  1  0
120 95  1  0
148127  1  0
176155  1  0
 12  5  1  0
 28 13  1  0
 42 33  1  0
 60 43  1  0
 74 65  1  0
 92 75  1  0
106 97  1  0
124107  1  0
136129  1  0
152137  1  0
164157  1  0
180165  1  0
 23 16  1  0
 54 46  1  0
 86 78  1  0
118110  1  0
147140  1  0
175168  1  0
  1181  1  0
  2182  1  0
  6183  1  0
  7184  1  0
 10185  1  0
 10186  1  0
 11187  1  0
 11188  1  0
 11189  1  0
 17190  1  0
 18191  1  0
 21192  1  0
 21193  1  0
 22194  1  0
 22195  1  0
 22196  1  0
 26197  1  0
 30198  1  0
 34199  1  0
 35200  1  0
 38201  1  0
 38202  1  0
 39203  1  0
 39204  1  0
 39205  1  0
 42206  1  0
 47207  1  0
 48208  1  0
 51209  1  0
 51210  1  0
 52211  1  0
 52212  1  0
 52213  1  0
 54214  1  0
 58215  1  0
 62216  1  0
 66217  1  0
 67218  1  0
 70219  1  0
 70220  1  0
 71221  1  0
 71222  1  0
 71223  1  0
 74224  1  0
 79225  1  0
 80226  1  0
 83227  1  0
 83228  1  0
 84229  1  0
 84230  1  0
 84231  1  0
 86232  1  0
 90233  1  0
 94234  1  0
 98235  1  0
 99236  1  0
102237  1  0
102238  1  0
103239  1  0
103240  1  0
103241  1  0
106242  1  0
111243  1  0
112244  1  0
115245  1  0
115246  1  0
116247  1  0
116248  1  0
116249  1  0
118250  1  0
122251  1  0
126252  1  0
130253  1  0
131254  1  0
134255  1  0
134256  1  0
135257  1  0
135258  1  0
135259  1  0
141260  1  0
142261  1  0
145262  1  0
145263  1  0
146264  1  0
146265  1  0
146266  1  0
150267  1  0
154268  1  0
158269  1  0
159270  1  0
162271  1  0
162272  1  0
163273  1  0
163274  1  0
163275  1  0
169276  1  0
170277  1  0
173278  1  0
173279  1  0
174280  1  0
174281  1  0
174282  1  0
178283  1  0
179284  1  0
M  END

