
     RDKit          3D

121140  0  0  0  0  0  0  0  0999 V2000
   10.6833   -6.2593    4.7007 C   0  0  0  0  0  0  0  0  0  0  0  0
   10.1934   -5.4580    3.7024 C   0  0  0  0  0  0  0  0  0  0  0  0
    9.0272   -4.8084    3.9465 C   0  0  0  0  0  0  0  0  0  0  0  0
    8.4498   -5.0042    5.1505 C   0  0  0  0  0  0  0  0  0  0  0  0
    9.5138   -6.0864    5.9429 S   0  0  0  0  0  0  0  0  0  0  0  0
    7.2241   -4.2055    5.2636 C   0  0  0  0  0  0  0  0  0  0  0  0
    7.0102   -3.4869    4.1224 C   0  0  0  0  0  0  0  0  0  0  0  0
    8.1197   -3.8657    3.1875 C   0  0  0  0  0  0  0  0  0  0  0  0
    5.9182   -2.7057    4.0907 C   0  0  0  0  0  0  0  0  0  0  0  0
    5.1109   -2.7064    5.2159 C   0  0  0  0  0  0  0  0  0  0  0  0
    5.9128   -3.7858    6.2547 S   0  0  0  0  0  0  0  0  0  0  0  0
    3.8518   -1.9133    5.3600 C   0  0  0  0  0  0  0  0  0  0  0  0
    2.7456   -2.3184    6.0566 C   0  0  0  0  0  0  0  0  0  0  0  0
    1.6017   -1.6046    5.9097 C   0  0  0  0  0  0  0  0  0  0  0  0
    0.3058   -1.8912    6.4190 C   0  0  0  0  0  0  0  0  0  0  0  0
    0.0367   -3.0872    7.1916 C   0  0  0  0  0  0  0  0  0  0  0  0
    0.5042   -4.2733    7.4690 C   0  0  0  0  0  0  0  0  0  0  0  0
   -0.0158   -5.1361    8.3479 C   0  0  0  0  0  0  0  0  0  0  0  0
   -1.0814   -4.9501    9.0864 C   0  0  0  0  0  0  0  0  0  0  0  0
   -2.1090   -5.6405   10.2815 S   0  0  0  0  0  0  0  0  0  0  0  0
   -3.4933   -6.6006    9.5780 C   0  0  0  0  0  0  0  0  0  0  0  0
   -4.4121   -5.7231    8.7619 C   0  0  0  0  0  0  0  0  0  0  0  0
   -1.4988   -3.0240    8.3621 Se  0  0  0  0  0  2  0  0  0  0  0  0
   -0.7348   -1.0628    6.0303 C   0  0  0  0  0  0  0  0  0  0  0  0
   -0.6797    0.0139    5.2084 C   0  0  0  0  0  0  0  0  0  0  0  0
    0.6119    0.2989    4.7127 C   0  0  0  0  0  0  0  0  0  0  0  0
    0.8656    1.4876    3.9436 C   0  0  0  0  0  0  0  0  0  0  0  0
    1.8144    1.9865    3.1467 C   0  0  0  0  0  0  0  0  0  0  0  0
    1.8075    3.1813    2.6085 C   0  0  0  0  0  0  0  0  0  0  0  0
    0.8083    4.0801    2.8121 C   0  0  0  0  0  0  0  0  0  0  0  0
    0.3858    5.7014    2.2968 S   0  0  0  0  0  0  0  0  0  0  0  0
   -0.7564    5.8035    0.9246 C   0  0  0  0  0  0  0  0  0  0  0  0
   -2.1356    5.2489    1.3386 C   0  0  0  0  0  0  0  0  0  0  0  0
   -0.3353    3.0011    3.9960 Se  0  0  0  0  0  2  0  0  0  0  0  0
    1.6655   -0.5093    5.0715 C   0  0  0  0  0  0  0  0  0  0  0  0
    3.3200   -0.5513    4.5328 S   0  0  0  0  0  0  0  0  0  0  0  0
   -1.8263    0.5596    4.8101 C   0  0  0  0  0  0  0  0  0  0  0  0
   -3.0077   -0.0182    5.2568 C   0  0  0  0  0  0  0  0  0  0  0  0
   -2.4596   -1.2759    6.2219 S   0  0  0  0  0  0  0  0  0  0  0  0
   -4.3432    0.3489    4.6808 C   0  0  0  0  0  0  0  0  0  0  0  0
   -5.4816   -0.3592    4.5277 C   0  0  0  0  0  0  0  0  0  0  0  0
   -6.4076    0.0881    3.6203 C   0  0  0  0  0  0  0  0  0  0  0  0
   -6.1017    1.2123    2.9514 C   0  0  0  0  0  0  0  0  0  0  0  0
   -4.5880    1.6619    3.5605 S   0  0  0  0  0  0  0  0  0  0  0  0
   -7.0101    1.3885    1.7960 C   0  0  0  0  0  0  0  0  0  0  0  0
   -7.8850    0.3782    1.7383 C   0  0  0  0  0  0  0  0  0  0  0  0
   -7.7638   -0.2983    3.0691 C   0  0  0  0  0  0  0  0  0  0  0  0
   -8.5907    0.2593    0.5579 C   0  0  0  0  0  0  0  0  0  0  0  0
   -8.3608    1.1229   -0.4221 C   0  0  0  0  0  0  0  0  0  0  0  0
   -7.1417    2.1771    0.3021 S   0  0  0  0  0  0  0  0  0  0  0  0
   -8.5838    1.1306   -1.9066 C   0  0  0  0  0  0  0  0  0  0  0  0
   -8.7229    0.0514   -2.7309 C   0  0  0  0  0  0  0  0  0  0  0  0
   -8.4669    0.2277   -4.0500 C   0  0  0  0  0  0  0  0  0  0  0  0
   -8.0940    1.4740   -4.4442 C   0  0  0  0  0  0  0  0  0  0  0  0
   -8.1299    2.3728   -2.9890 S   0  0  0  0  0  0  0  0  0  0  0  0
   -7.4857    1.4062   -5.8092 C   0  0  0  0  0  0  0  0  0  0  0  0
   -7.4864    0.1148   -6.2390 C   0  0  0  0  0  0  0  0  0  0  0  0
   -8.4348   -0.5888   -5.3191 C   0  0  0  0  0  0  0  0  0  0  0  0
   -6.6927   -0.1718   -7.3004 C   0  0  0  0  0  0  0  0  0  0  0  0
   -5.9720    0.8103   -7.8552 C   0  0  0  0  0  0  0  0  0  0  0  0
   -6.4243    2.1944   -6.8862 S   0  0  0  0  0  0  0  0  0  0  0  0
   -4.7307    0.7625   -8.6920 C   0  0  0  0  0  0  0  0  0  0  0  0
   -3.7839   -0.2618   -8.5033 C   0  0  0  0  0  0  0  0  0  0  0  0
   -2.5660   -0.0455   -9.0323 C   0  0  0  0  0  0  0  0  0  0  0  0
   -2.3695    1.1293   -9.6974 C   0  0  0  0  0  0  0  0  0  0  0  0
   -3.9140    1.9006   -9.5716 S   0  0  0  0  0  0  0  0  0  0  0  0
   -0.9525    1.2995  -10.0266 C   0  0  0  0  0  0  0  0  0  0  0  0
   -0.2189    0.2092   -9.5513 C   0  0  0  0  0  0  0  0  0  0  0  0
   -1.2573   -0.7670   -9.1015 C   0  0  0  0  0  0  0  0  0  0  0  0
    1.1067    0.2888   -9.6374 C   0  0  0  0  0  0  0  0  0  0  0  0
    1.6642    1.3968  -10.1740 C   0  0  0  0  0  0  0  0  0  0  0  0
    0.3052    2.3454  -10.5771 S   0  0  0  0  0  0  0  0  0  0  0  0
    3.0805    1.8232  -10.1537 C   0  0  0  0  0  0  0  0  0  0  0  0
    3.9561    1.5001   -9.1401 C   0  0  0  0  0  0  0  0  0  0  0  0
    5.1672    2.1188   -9.1523 C   0  0  0  0  0  0  0  0  0  0  0  0
    5.3944    2.9953  -10.1723 C   0  0  0  0  0  0  0  0  0  0  0  0
    3.9619    2.9429  -11.0680 S   0  0  0  0  0  0  0  0  0  0  0  0
    6.7260    3.6301   -9.9782 C   0  0  0  0  0  0  0  0  0  0  0  0
    7.3217    3.1616   -8.8432 C   0  0  0  0  0  0  0  0  0  0  0  0
    6.3802    2.1437   -8.2375 C   0  0  0  0  0  0  0  0  0  0  0  0
    8.5361    3.6705   -8.5340 C   0  0  0  0  0  0  0  0  0  0  0  0
    9.0621    4.6021   -9.3834 C   0  0  0  0  0  0  0  0  0  0  0  0
    7.8458    4.7450  -10.5900 S   0  0  0  0  0  0  0  0  0  0  0  0
   11.6055   -6.8642    4.7053 H   0  0  0  0  0  0  0  0  0  0  0  0
   10.7767   -5.3933    2.7425 H   0  0  0  0  0  0  0  0  0  0  0  0
    8.6730   -2.9897    2.8380 H   0  0  0  0  0  0  0  0  0  0  0  0
    7.6592   -4.4257    2.3248 H   0  0  0  0  0  0  0  0  0  0  0  0
    5.5731   -2.0626    3.2390 H   0  0  0  0  0  0  0  0  0  0  0  0
    2.8822   -3.1947    6.7459 H   0  0  0  0  0  0  0  0  0  0  0  0
    1.4322   -4.6272    6.8572 H   0  0  0  0  0  0  0  0  0  0  0  0
    0.5089   -6.1672    8.4899 H   0  0  0  0  0  0  0  0  0  0  0  0
   -3.1648   -7.4163    8.9284 H   0  0  0  0  0  0  0  0  0  0  0  0
   -4.0305   -7.0370   10.4391 H   0  0  0  0  0  0  0  0  0  0  0  0
   -3.7782   -5.3055    7.9354 H   0  0  0  0  0  0  0  0  0  0  0  0
   -4.9203   -4.9530    9.3310 H   0  0  0  0  0  0  0  0  0  0  0  0
   -5.1643   -6.3986    8.2671 H   0  0  0  0  0  0  0  0  0  0  0  0
    2.7054    1.2615    2.9269 H   0  0  0  0  0  0  0  0  0  0  0  0
    2.6553    3.5545    1.9307 H   0  0  0  0  0  0  0  0  0  0  0  0
   -0.3953    5.3273   -0.0064 H   0  0  0  0  0  0  0  0  0  0  0  0
   -0.9247    6.8861    0.7116 H   0  0  0  0  0  0  0  0  0  0  0  0
   -1.9878    4.3734    1.9725 H   0  0  0  0  0  0  0  0  0  0  0  0
   -2.7683    5.0225    0.4674 H   0  0  0  0  0  0  0  0  0  0  0  0
   -2.6117    6.0652    1.9356 H   0  0  0  0  0  0  0  0  0  0  0  0
   -1.9328    1.4274    4.1384 H   0  0  0  0  0  0  0  0  0  0  0  0
   -5.6212   -1.2780    5.1417 H   0  0  0  0  0  0  0  0  0  0  0  0
   -7.8563   -1.3977    2.9639 H   0  0  0  0  0  0  0  0  0  0  0  0
   -8.5010    0.1147    3.7700 H   0  0  0  0  0  0  0  0  0  0  0  0
   -9.3449   -0.5552    0.3986 H   0  0  0  0  0  0  0  0  0  0  0  0
   -9.0460   -0.9098   -2.2605 H   0  0  0  0  0  0  0  0  0  0  0  0
   -8.0252   -1.6112   -5.1175 H   0  0  0  0  0  0  0  0  0  0  0  0
   -9.4569   -0.6088   -5.7573 H   0  0  0  0  0  0  0  0  0  0  0  0
   -6.5996   -1.2021   -7.7397 H   0  0  0  0  0  0  0  0  0  0  0  0
   -4.1049   -1.1583   -7.9379 H   0  0  0  0  0  0  0  0  0  0  0  0
   -1.0287   -1.1950   -8.1010 H   0  0  0  0  0  0  0  0  0  0  0  0
   -1.3240   -1.6526   -9.7792 H   0  0  0  0  0  0  0  0  0  0  0  0
    1.7988   -0.5307   -9.2728 H   0  0  0  0  0  0  0  0  0  0  0  0
    3.6280    0.7578   -8.3651 H   0  0  0  0  0  0  0  0  0  0  0  0
    6.0339    2.5418   -7.2276 H   0  0  0  0  0  0  0  0  0  0  0  0
    6.8276    1.1808   -8.0766 H   0  0  0  0  0  0  0  0  0  0  0  0
    9.1483    3.3932   -7.6220 H   0  0  0  0  0  0  0  0  0  0  0  0
   10.0335    5.1269   -9.3059 H   0  0  0  0  0  0  0  0  0  0  0  0
  1  2  2  0
  2  3  1  0
  3  4  2  0
  4  5  1  0
  4  6  1  0
  6  7  2  0
  7  8  1  0
  7  9  1  0
  9 10  2  0
 10 11  1  0
 10 12  1  0
 12 13  2  0
 13 14  1  0
 14 15  2  0
 15 16  1  0
 16 17  2  0
 17 18  1  0
 18 19  2  0
 19 20  1  0
 20 21  1  0
 21 22  1  0
 19 23  1  0
 15 24  1  0
 24 25  2  0
 25 26  1  0
 26 27  1  0
 27 28  2  0
 28 29  1  0
 29 30  2  0
 30 31  1  0
 31 32  1  0
 32 33  1  0
 30 34  1  0
 26 35  2  0
 35 36  1  0
 25 37  1  0
 37 38  2  0
 38 39  1  0
 38 40  1  0
 40 41  2  0
 41 42  1  0
 42 43  2  0
 43 44  1  0
 43 45  1  0
 45 46  2  0
 46 47  1  0
 46 48  1  0
 48 49  2  0
 49 50  1  0
 49 51  1  0
 51 52  2  0
 52 53  1  0
 53 54  2  0
 54 55  1  0
 54 56  1  0
 56 57  2  0
 57 58  1  0
 57 59  1  0
 59 60  2  0
 60 61  1  0
 60 62  1  0
 62 63  2  0
 63 64  1  0
 64 65  2  0
 65 66  1  0
 65 67  1  0
 67 68  2  0
 68 69  1  0
 68 70  1  0
 70 71  2  0
 71 72  1  0
 71 73  1  0
 73 74  2  0
 74 75  1  0
 75 76  2  0
 76 77  1  0
 76 78  1  0
 78 79  2  0
 79 80  1  0
 79 81  1  0
 81 82  2  0
 82 83  1  0
  5  1  1  0
 11  6  1  0
 36 12  1  0
 44 40  1  0
 50 45  1  0
 55 51  1  0
 61 56  1  0
 66 62  1  0
 72 67  1  0
 77 73  1  0
 83 78  1  0
  8  3  1  0
 35 14  1  0
 47 42  1  0
 58 53  1  0
 69 64  1  0
 80 75  1  0
 23 16  1  0
 39 24  1  0
 34 27  1  0
  1 84  1  0
  2 85  1  0
  8 86  1  0
  8 87  1  0
  9 88  1  0
 13 89  1  0
 17 90  1  0
 18 91  1  0
 21 92  1  0
 21 93  1  0
 22 94  1  0
 22 95  1  0
 22 96  1  0
 28 97  1  0
 29 98  1  0
 32 99  1  0
 32100  1  0
 33101  1  0
 33102  1  0
 33103  1  0
 37104  1  0
 41105  1  0
 47106  1  0
 47107  1  0
 48108  1  0
 52109  1  0
 58110  1  0
 58111  1  0
 59112  1  0
 63113  1  0
 69114  1  0
 69115  1  0
 70116  1  0
 74117  1  0
 80118  1  0
 80119  1  0
 81120  1  0
 82121  1  0
M  END

