
     RDKit          3D

290319  0  0  0  0  0  0  0  0999 V2000
   -5.4522   -9.0714    9.4183 C   0  0  0  0  0  0  0  0  0  0  0  0
   -5.1862   -8.0167    8.5740 C   0  0  0  0  0  0  0  0  0  0  0  0
   -5.0849   -8.2712    7.2690 C   0  0  0  0  0  0  0  0  0  0  0  0
   -4.8093   -7.3361    6.2516 C   0  0  0  0  0  0  0  0  0  0  0  0
   -4.6793   -5.9327    6.4783 C   0  0  0  0  0  0  0  0  0  0  0  0
   -3.5591   -5.3997    7.0963 C   0  0  0  0  0  0  0  0  0  0  0  0
   -3.4584   -4.0247    7.3228 C   0  0  0  0  0  0  0  0  0  0  0  0
   -4.5095   -3.1833    6.9159 C   0  0  0  0  0  0  0  0  0  0  0  0
   -4.3747   -1.4144    7.2630 S   0  0  0  0  0  0  0  0  0  0  0  0
   -5.0904   -1.0745    8.9102 C   0  0  0  0  0  0  0  0  0  0  0  0
   -5.0174    0.4075    9.2474 C   0  0  0  0  0  0  0  0  0  0  0  0
   -5.6005   -3.7182    6.3083 C   0  0  0  0  0  0  0  0  0  0  0  0
   -6.6171   -2.9225    5.8916 F   0  0  0  0  0  0  0  0  0  0  0  0
   -5.6556   -5.0870    6.1060 C   0  0  0  0  0  0  0  0  0  0  0  0
   -4.7176   -7.7726    4.9298 C   0  0  0  0  0  0  0  0  0  0  0  0
   -4.8821   -9.0722    4.5158 C   0  0  0  0  0  0  0  0  0  0  0  0
   -5.1557   -9.9822    5.5179 C   0  0  0  0  0  0  0  0  0  0  0  0
   -5.3810  -11.4057    5.3479 C   0  0  0  0  0  0  0  0  0  0  0  0
   -4.4082  -12.2480    5.7837 C   0  0  0  0  0  0  0  0  0  0  0  0
   -4.5188  -13.6328    5.7237 C   0  0  0  0  0  0  0  0  0  0  0  0
   -5.6634  -14.1255    5.1990 C   0  0  0  0  0  0  0  0  0  0  0  0
   -5.9774  -15.8721    5.0859 S   0  0  0  0  0  0  0  0  0  0  0  0
   -5.2812  -16.4714    3.5136 C   0  0  0  0  0  0  0  0  0  0  0  0
   -3.7567  -16.3551    3.6409 C   0  0  0  0  0  0  0  0  0  0  0  0
   -6.6809  -13.2614    4.7444 C   0  0  0  0  0  0  0  0  0  0  0  0
   -6.5369  -11.8876    4.8220 C   0  0  0  0  0  0  0  0  0  0  0  0
   -7.8088  -13.7703    4.2115 F   0  0  0  0  0  0  0  0  0  0  0  0
   -5.2502   -9.5627    6.8592 C   0  0  0  0  0  0  0  0  0  0  0  0
   -5.5484  -10.3881    8.3274 S   0  0  0  0  0  0  0  0  0  0  0  0
   -4.7561   -9.3205    3.1998 C   0  0  0  0  0  0  0  0  0  0  0  0
   -4.4818   -8.3052    2.3812 C   0  0  0  0  0  0  0  0  0  0  0  0
   -4.3916   -6.9586    3.4618 S   0  0  0  0  0  0  0  0  0  0  0  0
   -4.2662   -8.2224    0.9190 C   0  0  0  0  0  0  0  0  0  0  0  0
   -3.9194   -7.0980    0.2453 C   0  0  0  0  0  0  0  0  0  0  0  0
   -3.7288   -7.2032   -1.0860 C   0  0  0  0  0  0  0  0  0  0  0  0
   -3.3782   -6.1962   -1.9393 C   0  0  0  0  0  0  0  0  0  0  0  0
   -3.1566   -4.8048   -1.6062 C   0  0  0  0  0  0  0  0  0  0  0  0
   -1.9268   -4.1740   -1.7105 C   0  0  0  0  0  0  0  0  0  0  0  0
   -1.7520   -2.8551   -1.4341 C   0  0  0  0  0  0  0  0  0  0  0  0
   -2.8516   -2.1019   -1.0305 C   0  0  0  0  0  0  0  0  0  0  0  0
   -2.6237   -0.3602   -0.6664 S   0  0  0  0  0  0  0  0  0  0  0  0
   -4.1222    0.4428   -0.1004 C   0  0  0  0  0  0  0  0  0  0  0  0
   -4.6251    0.0224    1.2446 C   0  0  0  0  0  0  0  0  0  0  0  0
   -4.0644   -2.6821   -0.9172 C   0  0  0  0  0  0  0  0  0  0  0  0
   -5.1693   -1.9589   -0.5239 F   0  0  0  0  0  0  0  0  0  0  0  0
   -4.2344   -4.0371   -1.1987 C   0  0  0  0  0  0  0  0  0  0  0  0
   -3.2156   -6.4678   -3.3122 C   0  0  0  0  0  0  0  0  0  0  0  0
   -3.3864   -7.6758   -3.9016 C   0  0  0  0  0  0  0  0  0  0  0  0
   -3.7467   -8.6991   -3.0373 C   0  0  0  0  0  0  0  0  0  0  0  0
   -3.9950  -10.0776   -3.3472 C   0  0  0  0  0  0  0  0  0  0  0  0
   -5.2728  -10.5486   -2.9244 C   0  0  0  0  0  0  0  0  0  0  0  0
   -5.6303  -11.8433   -3.0090 C   0  0  0  0  0  0  0  0  0  0  0  0
   -4.6914  -12.7348   -3.5361 C   0  0  0  0  0  0  0  0  0  0  0  0
   -5.0862  -14.4701   -3.4710 S   0  0  0  0  0  0  0  0  0  0  0  0
   -6.2869  -14.8949   -4.7300 C   0  0  0  0  0  0  0  0  0  0  0  0
   -5.6351  -14.7235   -6.0896 C   0  0  0  0  0  0  0  0  0  0  0  0
   -3.4710  -12.3125   -3.9555 C   0  0  0  0  0  0  0  0  0  0  0  0
   -3.1061  -10.9548   -3.8610 C   0  0  0  0  0  0  0  0  0  0  0  0
   -2.5344  -13.1170   -4.4645 F   0  0  0  0  0  0  0  0  0  0  0  0
   -3.9040   -8.4224   -1.6542 C   0  0  0  0  0  0  0  0  0  0  0  0
   -4.3250   -9.3945   -0.3056 S   0  0  0  0  0  0  0  0  0  0  0  0
   -3.1344   -7.7274   -5.2620 C   0  0  0  0  0  0  0  0  0  0  0  0
   -2.7584   -6.6822   -5.9040 C   0  0  0  0  0  0  0  0  0  0  0  0
   -2.7316   -5.4713   -4.5719 S   0  0  0  0  0  0  0  0  0  0  0  0
   -2.3913   -6.0557   -7.1971 C   0  0  0  0  0  0  0  0  0  0  0  0
   -3.0918   -5.2348   -7.9878 C   0  0  0  0  0  0  0  0  0  0  0  0
   -2.4356   -4.3317   -8.8015 C   0  0  0  0  0  0  0  0  0  0  0  0
   -2.9688   -3.1176   -9.3059 C   0  0  0  0  0  0  0  0  0  0  0  0
   -4.3103   -2.7898   -9.5442 C   0  0  0  0  0  0  0  0  0  0  0  0
   -5.0964   -1.8275   -9.9675 C   0  0  0  0  0  0  0  0  0  0  0  0
   -6.4200   -1.8331  -10.0688 C   0  0  0  0  0  0  0  0  0  0  0  0
   -7.1767   -2.8822   -9.7303 C   0  0  0  0  0  0  0  0  0  0  0  0
   -8.9274   -3.1815   -9.7251 S   0  0  0  0  0  0  0  0  0  0  0  0
   -9.2312   -4.8830   -9.2573 C   0  0  0  0  0  0  0  0  0  0  0  0
   -8.7498   -5.8678  -10.2760 C   0  0  0  0  0  0  0  0  0  0  0  0
   -5.8236   -4.1682   -9.1492 Se  0  0  0  0  0  2  0  0  0  0  0  0
   -2.0608   -2.0974   -9.6552 C   0  0  0  0  0  0  0  0  0  0  0  0
   -0.7374   -2.1095   -9.6038 C   0  0  0  0  0  0  0  0  0  0  0  0
   -0.1866   -3.3441   -9.1301 C   0  0  0  0  0  0  0  0  0  0  0  0
    1.1935   -3.5713   -8.7726 C   0  0  0  0  0  0  0  0  0  0  0  0
    2.2511   -2.7819   -8.4531 C   0  0  0  0  0  0  0  0  0  0  0  0
    3.4502   -3.3120   -8.1475 C   0  0  0  0  0  0  0  0  0  0  0  0
    3.7336   -4.5834   -8.1195 C   0  0  0  0  0  0  0  0  0  0  0  0
    5.1093   -5.5755   -7.6400 S   0  0  0  0  0  0  0  0  0  0  0  0
    6.4381   -5.7495   -8.7768 C   0  0  0  0  0  0  0  0  0  0  0  0
    7.6020   -6.3864   -7.9773 C   0  0  0  0  0  0  0  0  0  0  0  0
    1.9434   -5.3121   -8.6402 Se  0  0  0  0  0  2  0  0  0  0  0  0
   -1.0846   -4.3488   -8.7586 C   0  0  0  0  0  0  0  0  0  0  0  0
   -0.7546   -5.6289   -7.5865 S   0  0  0  0  0  0  0  0  0  0  0  0
   -0.0745   -0.8929   -9.5758 C   0  0  0  0  0  0  0  0  0  0  0  0
   -0.8563    0.2360   -9.5678 C   0  0  0  0  0  0  0  0  0  0  0  0
   -2.4053   -0.3509   -9.6592 S   0  0  0  0  0  0  0  0  0  0  0  0
   -0.3771    1.5247   -8.8787 C   0  0  0  0  0  0  0  0  0  0  0  0
    0.7549    2.1168   -8.6249 C   0  0  0  0  0  0  0  0  0  0  0  0
    0.8491    2.9410   -7.5031 C   0  0  0  0  0  0  0  0  0  0  0  0
    2.0203    3.4697   -6.9279 C   0  0  0  0  0  0  0  0  0  0  0  0
    3.2926    3.5213   -7.6099 C   0  0  0  0  0  0  0  0  0  0  0  0
    3.6681    4.7988   -8.0275 C   0  0  0  0  0  0  0  0  0  0  0  0
    4.8373    5.0758   -8.7017 C   0  0  0  0  0  0  0  0  0  0  0  0
    5.6597    4.0074   -8.9669 C   0  0  0  0  0  0  0  0  0  0  0  0
    7.1972    4.3518   -9.8138 S   0  0  0  0  0  0  0  0  0  0  0  0
    8.5195    4.6908   -8.6015 C   0  0  0  0  0  0  0  0  0  0  0  0
    8.2901    5.9710   -7.8328 C   0  0  0  0  0  0  0  0  0  0  0  0
    5.3165    2.7120   -8.5638 C   0  0  0  0  0  0  0  0  0  0  0  0
    6.1223    1.6967   -8.8483 F   0  0  0  0  0  0  0  0  0  0  0  0
    4.1343    2.4677   -7.8858 C   0  0  0  0  0  0  0  0  0  0  0  0
    1.9846    4.0621   -5.6670 C   0  0  0  0  0  0  0  0  0  0  0  0
    0.8747    4.1882   -4.9054 C   0  0  0  0  0  0  0  0  0  0  0  0
   -0.2910    3.6858   -5.4740 C   0  0  0  0  0  0  0  0  0  0  0  0
   -1.5892    3.5848   -4.8524 C   0  0  0  0  0  0  0  0  0  0  0  0
   -1.9018    2.3664   -4.2151 C   0  0  0  0  0  0  0  0  0  0  0  0
   -3.1223    2.1120   -3.6533 C   0  0  0  0  0  0  0  0  0  0  0  0
   -4.0852    3.0917   -3.7118 C   0  0  0  0  0  0  0  0  0  0  0  0
   -5.6721    2.7021   -3.0092 S   0  0  0  0  0  0  0  0  0  0  0  0
   -6.7186    1.9163   -4.2889 C   0  0  0  0  0  0  0  0  0  0  0  0
   -7.0579    3.0390   -5.2594 C   0  0  0  0  0  0  0  0  0  0  0  0
   -3.8248    4.2807   -4.3100 C   0  0  0  0  0  0  0  0  0  0  0  0
   -2.5637    4.5441   -4.8922 C   0  0  0  0  0  0  0  0  0  0  0  0
   -4.7167    5.3234   -4.4019 F   0  0  0  0  0  0  0  0  0  0  0  0
   -0.2438    3.0825   -6.7578 C   0  0  0  0  0  0  0  0  0  0  0  0
   -1.4082    2.1339   -7.5574 S   0  0  0  0  0  0  0  0  0  0  0  0
    1.0364    4.6727   -3.6372 C   0  0  0  0  0  0  0  0  0  0  0  0
    2.2878    4.9891   -3.2391 C   0  0  0  0  0  0  0  0  0  0  0  0
    3.2284    4.6326   -4.5978 S   0  0  0  0  0  0  0  0  0  0  0  0
    2.7853    5.3384   -1.9025 C   0  0  0  0  0  0  0  0  0  0  0  0
    2.2185    5.0267   -0.7026 C   0  0  0  0  0  0  0  0  0  0  0  0
    2.8609    5.3768    0.4306 C   0  0  0  0  0  0  0  0  0  0  0  0
    2.4807    5.2201    1.7638 C   0  0  0  0  0  0  0  0  0  0  0  0
    1.4809    4.2244    2.1345 C   0  0  0  0  0  0  0  0  0  0  0  0
    0.7464    3.8906    3.1743 C   0  0  0  0  0  0  0  0  0  0  0  0
    0.0973    2.7408    3.2878 C   0  0  0  0  0  0  0  0  0  0  0  0
    0.0998    1.7744    2.3715 C   0  0  0  0  0  0  0  0  0  0  0  0
   -0.4600    0.1314    2.1273 S   0  0  0  0  0  0  0  0  0  0  0  0
    0.8168   -1.1176    2.4852 C   0  0  0  0  0  0  0  0  0  0  0  0
    2.0215   -0.9614    1.5571 C   0  0  0  0  0  0  0  0  0  0  0  0
    1.2705    2.6391    0.9930 Se  0  0  0  0  0  2  0  0  0  0  0  0
    3.2137    5.7015    2.8011 C   0  0  0  0  0  0  0  0  0  0  0  0
    4.4109    6.3702    2.6696 C   0  0  0  0  0  0  0  0  0  0  0  0
    4.8322    6.5203    1.3177 C   0  0  0  0  0  0  0  0  0  0  0  0
    6.1708    6.9322    1.0318 C   0  0  0  0  0  0  0  0  0  0  0  0
    6.9674    7.5014    0.1811 C   0  0  0  0  0  0  0  0  0  0  0  0
    8.3026    7.4882    0.1791 C   0  0  0  0  0  0  0  0  0  0  0  0
    9.0180    6.8497    1.1137 C   0  0  0  0  0  0  0  0  0  0  0  0
   10.7529    6.6499    1.4548 S   0  0  0  0  0  0  0  0  0  0  0  0
   11.5161    5.7560    0.0563 C   0  0  0  0  0  0  0  0  0  0  0  0
   11.6672    6.6964   -1.1212 C   0  0  0  0  0  0  0  0  0  0  0  0
    7.6176    6.0949    2.2559 Se  0  0  0  0  0  2  0  0  0  0  0  0
    4.0545    6.0351    0.2729 C   0  0  0  0  0  0  0  0  0  0  0  0
    4.2163    6.1085   -1.4402 S   0  0  0  0  0  0  0  0  0  0  0  0
    4.9704    6.8658    3.7839 C   0  0  0  0  0  0  0  0  0  0  0  0
    4.3191    6.6832    4.9669 C   0  0  0  0  0  0  0  0  0  0  0  0
    2.9448    5.8082    4.4877 S   0  0  0  0  0  0  0  0  0  0  0  0
    4.6602    7.2822    6.2747 C   0  0  0  0  0  0  0  0  0  0  0  0
    5.6386    8.2027    6.5338 C   0  0  0  0  0  0  0  0  0  0  0  0
    5.7005    8.7232    7.7679 C   0  0  0  0  0  0  0  0  0  0  0  0
    6.5542    9.7596    8.2134 C   0  0  0  0  0  0  0  0  0  0  0  0
    7.6099   10.2635    7.3533 C   0  0  0  0  0  0  0  0  0  0  0  0
    8.9395   10.2258    7.5350 C   0  0  0  0  0  0  0  0  0  0  0  0
    9.8480   10.6791    6.5794 C   0  0  0  0  0  0  0  0  0  0  0  0
    9.3701   11.1814    5.4013 C   0  0  0  0  0  0  0  0  0  0  0  0
   10.5365   11.7501    4.1671 S   0  0  0  0  0  0  0  0  0  0  0  0
    9.6367   12.2121    2.6576 C   0  0  0  0  0  0  0  0  0  0  0  0
   10.6282   12.6893    1.6260 C   0  0  0  0  0  0  0  0  0  0  0  0
    8.0276   11.2352    5.1852 C   0  0  0  0  0  0  0  0  0  0  0  0
    7.5550   11.7238    4.0078 F   0  0  0  0  0  0  0  0  0  0  0  0
    7.1414   10.7911    6.1332 C   0  0  0  0  0  0  0  0  0  0  0  0
    6.4264   10.2762    9.4701 C   0  0  0  0  0  0  0  0  0  0  0  0
    5.5082    9.8614   10.3892 C   0  0  0  0  0  0  0  0  0  0  0  0
    4.6441    8.8128    9.9473 C   0  0  0  0  0  0  0  0  0  0  0  0
    3.6220    8.3912   10.8889 C   0  0  0  0  0  0  0  0  0  0  0  0
    3.9019    7.8170   12.1031 C   0  0  0  0  0  0  0  0  0  0  0  0
    2.9094    7.5407   13.0192 C   0  0  0  0  0  0  0  0  0  0  0  0
    1.5755    7.8466   12.7293 C   0  0  0  0  0  0  0  0  0  0  0  0
    0.3442    7.5382   13.9380 S   0  0  0  0  0  0  0  0  0  0  0  0
   -1.3087    8.0409   13.4660 C   0  0  0  0  0  0  0  0  0  0  0  0
   -1.9471    7.2357   12.3849 C   0  0  0  0  0  0  0  0  0  0  0  0
    1.2895    8.4250   11.4941 C   0  0  0  0  0  0  0  0  0  0  0  0
    2.2843    8.6842   10.6142 C   0  0  0  0  0  0  0  0  0  0  0  0
    0.0184    8.7283   11.1372 F   0  0  0  0  0  0  0  0  0  0  0  0
    4.7754    8.3023    8.6979 C   0  0  0  0  0  0  0  0  0  0  0  0
    3.8578    7.1670    7.7659 S   0  0  0  0  0  0  0  0  0  0  0  0
    5.5035   10.5050   11.5752 C   0  0  0  0  0  0  0  0  0  0  0  0
    6.4041   11.5016   11.7640 C   0  0  0  0  0  0  0  0  0  0  0  0
    7.2411   11.5340   10.2867 S   0  0  0  0  0  0  0  0  0  0  0  0
   -5.5658   -9.0327   10.5079 H   0  0  0  0  0  0  0  0  0  0  0  0
   -5.0684   -7.0060    9.0426 H   0  0  0  0  0  0  0  0  0  0  0  0
   -2.7244   -5.9856    7.4346 H   0  0  0  0  0  0  0  0  0  0  0  0
   -2.6257   -3.5560    7.7882 H   0  0  0  0  0  0  0  0  0  0  0  0
   -6.1537   -1.3901    8.9678 H   0  0  0  0  0  0  0  0  0  0  0  0
   -4.5116   -1.6264    9.6524 H   0  0  0  0  0  0  0  0  0  0  0  0
   -5.2638    1.0331    8.3769 H   0  0  0  0  0  0  0  0  0  0  0  0
   -3.9875    0.7022    9.5905 H   0  0  0  0  0  0  0  0  0  0  0  0
   -5.7284    0.6625   10.0375 H   0  0  0  0  0  0  0  0  0  0  0  0
   -6.5753   -5.4305    5.6036 H   0  0  0  0  0  0  0  0  0  0  0  0
   -3.4572  -11.8723    6.2104 H   0  0  0  0  0  0  0  0  0  0  0  0
   -3.7275  -14.2632    6.0752 H   0  0  0  0  0  0  0  0  0  0  0  0
   -5.5536  -15.7691    2.6784 H   0  0  0  0  0  0  0  0  0  0  0  0
   -5.6220  -17.4748    3.2823 H   0  0  0  0  0  0  0  0  0  0  0  0
   -3.2976  -16.7972    2.7436 H   0  0  0  0  0  0  0  0  0  0  0  0
   -3.4113  -16.8815    4.5683 H   0  0  0  0  0  0  0  0  0  0  0  0
   -3.4719  -15.2732    3.6736 H   0  0  0  0  0  0  0  0  0  0  0  0
   -7.2983  -11.1991    4.4986 H   0  0  0  0  0  0  0  0  0  0  0  0
   -4.8772  -10.3503    2.7710 H   0  0  0  0  0  0  0  0  0  0  0  0
   -3.8063   -6.1265    0.7981 H   0  0  0  0  0  0  0  0  0  0  0  0
   -1.0858   -4.7547   -2.0206 H   0  0  0  0  0  0  0  0  0  0  0  0
   -0.7922   -2.3133   -1.5086 H   0  0  0  0  0  0  0  0  0  0  0  0
   -4.9244    0.3121   -0.8795 H   0  0  0  0  0  0  0  0  0  0  0  0
   -3.9843    1.5733   -0.0560 H   0  0  0  0  0  0  0  0  0  0  0  0
   -5.7341   -0.1501    1.2874 H   0  0  0  0  0  0  0  0  0  0  0  0
   -4.0848   -0.8645    1.5910 H   0  0  0  0  0  0  0  0  0  0  0  0
   -4.4631    0.8955    1.9544 H   0  0  0  0  0  0  0  0  0  0  0  0
   -5.2315   -4.4278   -1.0908 H   0  0  0  0  0  0  0  0  0  0  0  0
   -5.9750   -9.8410   -2.5270 H   0  0  0  0  0  0  0  0  0  0  0  0
   -6.5917  -12.2401   -2.6853 H   0  0  0  0  0  0  0  0  0  0  0  0
   -6.5578  -15.9768   -4.5736 H   0  0  0  0  0  0  0  0  0  0  0  0
   -7.2242  -14.3157   -4.6778 H   0  0  0  0  0  0  0  0  0  0  0  0
   -6.2006  -15.3180   -6.8260 H   0  0  0  0  0  0  0  0  0  0  0  0
   -4.5943  -15.1620   -6.0508 H   0  0  0  0  0  0  0  0  0  0  0  0
   -5.5268  -13.6496   -6.3270 H   0  0  0  0  0  0  0  0  0  0  0  0
   -2.1152  -10.6163   -4.2110 H   0  0  0  0  0  0  0  0  0  0  0  0
   -3.2654   -8.6990   -5.8388 H   0  0  0  0  0  0  0  0  0  0  0  0
   -4.1934   -5.2988   -7.9654 H   0  0  0  0  0  0  0  0  0  0  0  0
   -4.5508   -0.8543  -10.3063 H   0  0  0  0  0  0  0  0  0  0  0  0
   -6.9888   -0.9274  -10.4614 H   0  0  0  0  0  0  0  0  0  0  0  0
  -10.3070   -5.0087   -9.1074 H   0  0  0  0  0  0  0  0  0  0  0  0
   -8.7554   -5.1705   -8.2850 H   0  0  0  0  0  0  0  0  0  0  0  0
   -9.5739   -6.4415  -10.7318 H   0  0  0  0  0  0  0  0  0  0  0  0
   -8.2291   -5.3756  -11.1280 H   0  0  0  0  0  0  0  0  0  0  0  0
   -8.0964   -6.6577   -9.7961 H   0  0  0  0  0  0  0  0  0  0  0  0
    2.0950   -1.6679   -8.3921 H   0  0  0  0  0  0  0  0  0  0  0  0
    4.3019   -2.5790   -7.8941 H   0  0  0  0  0  0  0  0  0  0  0  0
    6.2435   -6.3574   -9.6837 H   0  0  0  0  0  0  0  0  0  0  0  0
    6.8956   -4.8028   -9.1654 H   0  0  0  0  0  0  0  0  0  0  0  0
    7.8002   -5.7476   -7.0780 H   0  0  0  0  0  0  0  0  0  0  0  0
    7.3298   -7.3753   -7.5915 H   0  0  0  0  0  0  0  0  0  0  0  0
    8.4457   -6.4643   -8.6608 H   0  0  0  0  0  0  0  0  0  0  0  0
    0.9880   -0.8102   -9.6233 H   0  0  0  0  0  0  0  0  0  0  0  0
    1.6432    1.9748   -9.2815 H   0  0  0  0  0  0  0  0  0  0  0  0
    3.0146    5.6672   -7.8407 H   0  0  0  0  0  0  0  0  0  0  0  0
    5.0738    6.0981   -9.0128 H   0  0  0  0  0  0  0  0  0  0  0  0
    8.5500    3.8114   -7.9002 H   0  0  0  0  0  0  0  0  0  0  0  0
    9.4559    4.7669   -9.1491 H   0  0  0  0  0  0  0  0  0  0  0  0
    7.5586    5.8206   -7.0101 H   0  0  0  0  0  0  0  0  0  0  0  0
    9.2474    6.2770   -7.3798 H   0  0  0  0  0  0  0  0  0  0  0  0
    8.0274    6.7867   -8.5293 H   0  0  0  0  0  0  0  0  0  0  0  0
    3.8122    1.4991   -7.5539 H   0  0  0  0  0  0  0  0  0  0  0  0
   -1.0942    1.6241   -4.1872 H   0  0  0  0  0  0  0  0  0  0  0  0
   -3.3215    1.1791   -3.1869 H   0  0  0  0  0  0  0  0  0  0  0  0
   -7.6179    1.5516   -3.8257 H   0  0  0  0  0  0  0  0  0  0  0  0
   -6.1160    1.1331   -4.8033 H   0  0  0  0  0  0  0  0  0  0  0  0
   -7.7842    2.7133   -6.0225 H   0  0  0  0  0  0  0  0  0  0  0  0
   -6.1004    3.3724   -5.6830 H   0  0  0  0  0  0  0  0  0  0  0  0
   -7.5204    3.8958   -4.7121 H   0  0  0  0  0  0  0  0  0  0  0  0
   -2.3591    5.4763   -5.3753 H   0  0  0  0  0  0  0  0  0  0  0  0
    0.1793    4.8027   -2.9492 H   0  0  0  0  0  0  0  0  0  0  0  0
    1.2353    4.5041   -0.6876 H   0  0  0  0  0  0  0  0  0  0  0  0
    0.6740    4.6677    4.0221 H   0  0  0  0  0  0  0  0  0  0  0  0
   -0.5327    2.5208    4.2273 H   0  0  0  0  0  0  0  0  0  0  0  0
    1.2005   -0.9958    3.4986 H   0  0  0  0  0  0  0  0  0  0  0  0
    0.3663   -2.1330    2.3668 H   0  0  0  0  0  0  0  0  0  0  0  0
    2.2633    0.1307    1.5076 H   0  0  0  0  0  0  0  0  0  0  0  0
    1.8346   -1.3386    0.5377 H   0  0  0  0  0  0  0  0  0  0  0  0
    2.8785   -1.4801    2.0521 H   0  0  0  0  0  0  0  0  0  0  0  0
    6.4488    8.0792   -0.6961 H   0  0  0  0  0  0  0  0  0  0  0  0
    8.9185    8.0284   -0.6146 H   0  0  0  0  0  0  0  0  0  0  0  0
   12.4139    5.2634    0.3943 H   0  0  0  0  0  0  0  0  0  0  0  0
   10.7509    4.9721   -0.2341 H   0  0  0  0  0  0  0  0  0  0  0  0
   12.7681    6.6232   -1.4189 H   0  0  0  0  0  0  0  0  0  0  0  0
   11.5507    7.7527   -0.8165 H   0  0  0  0  0  0  0  0  0  0  0  0
   11.0489    6.3870   -1.9676 H   0  0  0  0  0  0  0  0  0  0  0  0
    5.9281    7.4232    3.7938 H   0  0  0  0  0  0  0  0  0  0  0  0
    6.3305    8.4774    5.7061 H   0  0  0  0  0  0  0  0  0  0  0  0
    9.2971    9.8168    8.4932 H   0  0  0  0  0  0  0  0  0  0  0  0
   10.9017   10.6163    6.7836 H   0  0  0  0  0  0  0  0  0  0  0  0
    9.1120   11.3342    2.2065 H   0  0  0  0  0  0  0  0  0  0  0  0
    8.9161   13.0415    2.8090 H   0  0  0  0  0  0  0  0  0  0  0  0
   10.0065   12.9132    0.6903 H   0  0  0  0  0  0  0  0  0  0  0  0
   11.2105   13.5557    1.9201 H   0  0  0  0  0  0  0  0  0  0  0  0
   11.2664   11.8433    1.3308 H   0  0  0  0  0  0  0  0  0  0  0  0
    6.0883   10.8567    5.9029 H   0  0  0  0  0  0  0  0  0  0  0  0
    4.9390    7.5800   12.2949 H   0  0  0  0  0  0  0  0  0  0  0  0
    3.1857    7.0914   13.9703 H   0  0  0  0  0  0  0  0  0  0  0  0
   -1.9347    7.9710   14.3852 H   0  0  0  0  0  0  0  0  0  0  0  0
   -1.3560    9.1172   13.1926 H   0  0  0  0  0  0  0  0  0  0  0  0
   -1.2694    6.5277   11.8831 H   0  0  0  0  0  0  0  0  0  0  0  0
   -2.4108    7.8764   11.6020 H   0  0  0  0  0  0  0  0  0  0  0  0
   -2.8391    6.6592   12.7998 H   0  0  0  0  0  0  0  0  0  0  0  0
    2.0196    9.1301    9.6587 H   0  0  0  0  0  0  0  0  0  0  0  0
    4.7984   10.2725   12.4391 H   0  0  0  0  0  0  0  0  0  0  0  0
    6.5206   12.1240   12.6724 H   0  0  0  0  0  0  0  0  0  0  0  0
  1  2  2  0
  2  3  1  0
  3  4  2  0
  4  5  1  0
  5  6  2  0
  6  7  1  0
  7  8  2  0
  8  9  1  0
  9 10  1  0
 10 11  1  0
  8 12  1  0
 12 13  1  0
 12 14  2  0
  4 15  1  0
 15 16  2  0
 16 17  1  0
 17 18  1  0
 18 19  2  0
 19 20  1  0
 20 21  2  0
 21 22  1  0
 22 23  1  0
 23 24  1  0
 21 25  1  0
 25 26  2  0
 25 27  1  0
 17 28  2  0
 28 29  1  0
 16 30  1  0
 30 31  2  0
 31 32  1  0
 31 33  1  0
 33 34  2  0
 34 35  1  0
 35 36  2  0
 36 37  1  0
 37 38  2  0
 38 39  1  0
 39 40  2  0
 40 41  1  0
 41 42  1  0
 42 43  1  0
 40 44  1  0
 44 45  1  0
 44 46  2  0
 36 47  1  0
 47 48  2  0
 48 49  1  0
 49 50  1  0
 50 51  2  0
 51 52  1  0
 52 53  2  0
 53 54  1  0
 54 55  1  0
 55 56  1  0
 53 57  1  0
 57 58  2  0
 57 59  1  0
 49 60  2  0
 60 61  1  0
 48 62  1  0
 62 63  2  0
 63 64  1  0
 63 65  1  0
 65 66  2  0
 66 67  1  0
 67 68  2  0
 68 69  1  0
 69 70  2  0
 70 71  1  0
 71 72  2  0
 72 73  1  0
 73 74  1  0
 74 75  1  0
 72 76  1  0
 68 77  1  0
 77 78  2  0
 78 79  1  0
 79 80  1  0
 80 81  2  0
 81 82  1  0
 82 83  2  0
 83 84  1  0
 84 85  1  0
 85 86  1  0
 83 87  1  0
 79 88  2  0
 88 89  1  0
 78 90  1  0
 90 91  2  0
 91 92  1  0
 91 93  1  0
 93 94  2  0
 94 95  1  0
 95 96  2  0
 96 97  1  0
 97 98  2  0
 98 99  1  0
 99100  2  0
100101  1  0
101102  1  0
102103  1  0
100104  1  0
104105  1  0
104106  2  0
 96107  1  0
107108  2  0
108109  1  0
109110  1  0
110111  2  0
111112  1  0
112113  2  0
113114  1  0
114115  1  0
115116  1  0
113117  1  0
117118  2  0
117119  1  0
109120  2  0
120121  1  0
108122  1  0
122123  2  0
123124  1  0
123125  1  0
125126  2  0
126127  1  0
127128  2  0
128129  1  0
129130  2  0
130131  1  0
131132  2  0
132133  1  0
133134  1  0
134135  1  0
132136  1  0
128137  1  0
137138  2  0
138139  1  0
139140  1  0
140141  2  0
141142  1  0
142143  2  0
143144  1  0
144145  1  0
145146  1  0
143147  1  0
139148  2  0
148149  1  0
138150  1  0
150151  2  0
151152  1  0
151153  1  0
153154  2  0
154155  1  0
155156  2  0
156157  1  0
157158  2  0
158159  1  0
159160  2  0
160161  1  0
161162  1  0
162163  1  0
160164  1  0
164165  1  0
164166  2  0
156167  1  0
167168  2  0
168169  1  0
169170  1  0
170171  2  0
171172  1  0
172173  2  0
173174  1  0
174175  1  0
175176  1  0
173177  1  0
177178  2  0
177179  1  0
169180  2  0
180181  1  0
168182  1  0
182183  2  0
183184  1  0
 29  1  1  0
 61 33  1  0
 89 65  1  0
121 93  1  0
149125  1  0
181153  1  0
 28  3  1  0
 60 35  1  0
 88 67  1  0
120 95  1  0
148127  1  0
180155  1  0
 14  5  1  0
 32 15  1  0
 46 37  1  0
 64 47  1  0
 76 69  1  0
 92 77  1  0
106 97  1  0
124107  1  0
136129  1  0
152137  1  0
166157  1  0
184167  1  0
 26 18  1  0
 58 50  1  0
 87 80  1  0
118110  1  0
147140  1  0
178170  1  0
  1185  1  0
  2186  1  0
  6187  1  0
  7188  1  0
 10189  1  0
 10190  1  0
 11191  1  0
 11192  1  0
 11193  1  0
 14194  1  0
 19195  1  0
 20196  1  0
 23197  1  0
 23198  1  0
 24199  1  0
 24200  1  0
 24201  1  0
 26202  1  0
 30203  1  0
 34204  1  0
 38205  1  0
 39206  1  0
 42207  1  0
 42208  1  0
 43209  1  0
 43210  1  0
 43211  1  0
 46212  1  0
 51213  1  0
 52214  1  0
 55215  1  0
 55216  1  0
 56217  1  0
 56218  1  0
 56219  1  0
 58220  1  0
 62221  1  0
 66222  1  0
 70223  1  0
 71224  1  0
 74225  1  0
 74226  1  0
 75227  1  0
 75228  1  0
 75229  1  0
 81230  1  0
 82231  1  0
 85232  1  0
 85233  1  0
 86234  1  0
 86235  1  0
 86236  1  0
 90237  1  0
 94238  1  0
 98239  1  0
 99240  1  0
102241  1  0
102242  1  0
103243  1  0
103244  1  0
103245  1  0
106246  1  0
111247  1  0
112248  1  0
115249  1  0
115250  1  0
116251  1  0
116252  1  0
116253  1  0
118254  1  0
122255  1  0
126256  1  0
130257  1  0
131258  1  0
134259  1  0
134260  1  0
135261  1  0
135262  1  0
135263  1  0
141264  1  0
142265  1  0
145266  1  0
145267  1  0
146268  1  0
146269  1  0
146270  1  0
150271  1  0
154272  1  0
158273  1  0
159274  1  0
162275  1  0
162276  1  0
163277  1  0
163278  1  0
163279  1  0
166280  1  0
171281  1  0
172282  1  0
175283  1  0
175284  1  0
176285  1  0
176286  1  0
176287  1  0
178288  1  0
182289  1  0
183290  1  0
M  END

