
     RDKit          3D

196205  0  0  0  0  0  0  0  0999 V2000
    3.7003    6.6058    6.7888 N   0  0  0  0  0  0  0  0  0  0  0  0
    4.5151    6.9976    7.8692 C   0  0  0  0  0  0  0  0  0  0  0  0
    4.4846    6.1336    9.0793 C   0  0  0  0  0  0  0  0  0  0  0  0
    3.8434    5.4187    6.0418 C   0  0  0  0  0  0  0  0  0  0  0  0
    4.3244    4.2446    6.5428 C   0  0  0  0  0  0  0  0  0  0  0  0
    4.4881    3.1258    5.7597 C   0  0  0  0  0  0  0  0  0  0  0  0
    4.1699    3.1532    4.4357 C   0  0  0  0  0  0  0  0  0  0  0  0
    3.6784    4.3042    3.8662 C   0  0  0  0  0  0  0  0  0  0  0  0
    3.5221    5.4192    4.6743 C   0  0  0  0  0  0  0  0  0  0  0  0
    3.3404    4.4254    2.4452 C   0  0  0  0  0  0  0  0  0  0  0  0
    2.1108    4.2881    2.0344 C   0  0  0  0  0  0  0  0  0  0  0  0
    4.3698    1.9924    3.6195 N   0  0  0  0  0  0  0  0  0  0  0  0
    5.4236    2.0235    2.6091 C   0  0  0  0  0  0  0  0  0  0  0  0
    6.7333    2.5154    3.1901 C   0  0  0  0  0  0  0  0  0  0  0  0
    3.5746    0.8848    3.7759 N   0  0  0  0  0  0  0  0  0  0  0  0
    2.1205    1.0079    3.7692 C   0  0  0  0  0  0  0  0  0  0  0  0
    1.5772    1.7050    4.9774 C   0  0  0  0  0  0  0  0  0  0  0  0
    4.1031   -0.4531    3.9435 C   0  0  0  0  0  0  0  0  0  0  0  0
    4.2812   -0.9865    5.1966 C   0  0  0  0  0  0  0  0  0  0  0  0
    4.7325   -2.2919    5.3051 C   0  0  0  0  0  0  0  0  0  0  0  0
    5.0084   -3.0647    4.1560 C   0  0  0  0  0  0  0  0  0  0  0  0
    4.8412   -2.5445    2.9166 C   0  0  0  0  0  0  0  0  0  0  0  0
    4.3798   -1.2190    2.8355 C   0  0  0  0  0  0  0  0  0  0  0  0
    5.1435   -3.2776    1.6991 C   0  0  0  0  0  0  0  0  0  0  0  0
    5.2209   -2.6827    0.5282 C   0  0  0  0  0  0  0  0  0  0  0  0
    5.3749   -4.4536    4.3785 N   0  0  0  0  0  0  0  0  0  0  0  0
    6.5723   -5.0138    3.8515 C   0  0  0  0  0  0  0  0  0  0  0  0
    6.4369   -6.4433    3.3937 C   0  0  0  0  0  0  0  0  0  0  0  0
    4.4624   -5.1231    5.2210 N   0  0  0  0  0  0  0  0  0  0  0  0
    4.7533   -5.7236    6.4811 C   0  0  0  0  0  0  0  0  0  0  0  0
    5.6545   -6.9214    6.4296 C   0  0  0  0  0  0  0  0  0  0  0  0
    3.0738   -5.0660    4.7741 C   0  0  0  0  0  0  0  0  0  0  0  0
    2.7804   -5.0678    3.4468 C   0  0  0  0  0  0  0  0  0  0  0  0
    1.4868   -4.8685    3.0234 C   0  0  0  0  0  0  0  0  0  0  0  0
    0.4173   -4.6604    3.8712 C   0  0  0  0  0  0  0  0  0  0  0  0
    0.7384   -4.6739    5.2208 C   0  0  0  0  0  0  0  0  0  0  0  0
    2.0526   -4.8723    5.6665 C   0  0  0  0  0  0  0  0  0  0  0  0
   -0.3146   -4.5424    6.2219 C   0  0  0  0  0  0  0  0  0  0  0  0
   -1.2110   -5.5193    6.3350 C   0  0  0  0  0  0  0  0  0  0  0  0
   -0.8749   -4.3533    3.3966 N   0  0  0  0  0  0  0  0  0  0  0  0
   -1.5511   -3.1546    3.9236 C   0  0  0  0  0  0  0  0  0  0  0  0
   -0.5852   -2.0021    4.0193 C   0  0  0  0  0  0  0  0  0  0  0  0
   -1.6111   -5.1030    2.4432 N   0  0  0  0  0  0  0  0  0  0  0  0
   -2.5152   -6.0546    2.9866 C   0  0  0  0  0  0  0  0  0  0  0  0
   -3.5424   -6.6545    2.1133 C   0  0  0  0  0  0  0  0  0  0  0  0
   -1.3355   -4.8707    1.0718 C   0  0  0  0  0  0  0  0  0  0  0  0
   -0.7572   -3.6499    0.6802 C   0  0  0  0  0  0  0  0  0  0  0  0
   -0.4107   -3.3750   -0.5957 C   0  0  0  0  0  0  0  0  0  0  0  0
   -0.6292   -4.3440   -1.6087 C   0  0  0  0  0  0  0  0  0  0  0  0
   -1.1873   -5.5256   -1.2612 C   0  0  0  0  0  0  0  0  0  0  0  0
   -1.5436   -5.7938    0.0899 C   0  0  0  0  0  0  0  0  0  0  0  0
   -1.5073   -6.5643   -2.1965 C   0  0  0  0  0  0  0  0  0  0  0  0
   -1.5095   -6.5607   -3.4733 C   0  0  0  0  0  0  0  0  0  0  0  0
   -0.1573   -3.9768   -2.9074 N   0  0  0  0  0  0  0  0  0  0  0  0
    1.0327   -4.4817   -3.5228 C   0  0  0  0  0  0  0  0  0  0  0  0
    1.2005   -3.7789   -4.8717 C   0  0  0  0  0  0  0  0  0  0  0  0
   -0.9236   -2.9719   -3.6090 C   0  0  0  0  0  0  0  0  0  0  0  0
   -0.7849   -1.6041   -3.5226 C   0  0  0  0  0  0  0  0  0  0  0  0
   -1.6097   -0.8346   -4.2460 C   0  0  0  0  0  0  0  0  0  0  0  0
   -1.6875    0.5672   -4.3073 C   0  0  0  0  0  0  0  0  0  0  0  0
   -0.7866    1.4479   -3.6237 C   0  0  0  0  0  0  0  0  0  0  0  0
   -0.7494    2.7348   -3.3232 C   0  0  0  0  0  0  0  0  0  0  0  0
    0.2723    3.3570   -2.7430 C   0  0  0  0  0  0  0  0  0  0  0  0
    1.4112    2.7401   -2.3826 C   0  0  0  0  0  0  0  0  0  0  0  0
    2.9137    3.2254   -1.6063 S   0  0  0  0  0  0  0  0  0  0  0  0
    4.1611    3.7914   -2.7875 C   0  0  0  0  0  0  0  0  0  0  0  0
    3.7391    5.0814   -3.4899 C   0  0  0  0  0  0  0  0  0  0  0  0
    0.9889    0.9127   -2.9687 Se  0  0  0  0  0  2  0  0  0  0  0  0
   -2.6445    1.1574   -5.1087 C   0  0  0  0  0  0  0  0  0  0  0  0
   -3.5712    0.5069   -5.8866 C   0  0  0  0  0  0  0  0  0  0  0  0
   -3.5006   -0.8890   -5.8355 C   0  0  0  0  0  0  0  0  0  0  0  0
   -4.2963   -1.8214   -6.6400 C   0  0  0  0  0  0  0  0  0  0  0  0
   -5.0851   -1.7841   -7.7014 C   0  0  0  0  0  0  0  0  0  0  0  0
   -5.7653   -2.8430   -8.1669 C   0  0  0  0  0  0  0  0  0  0  0  0
   -5.7257   -4.0454   -7.6205 C   0  0  0  0  0  0  0  0  0  0  0  0
   -6.3860   -5.6578   -7.8533 S   0  0  0  0  0  0  0  0  0  0  0  0
   -5.3527   -6.7119   -8.8982 C   0  0  0  0  0  0  0  0  0  0  0  0
   -5.2919   -6.2557  -10.3195 C   0  0  0  0  0  0  0  0  0  0  0  0
   -4.4635   -3.6188   -6.1265 Se  0  0  0  0  0  2  0  0  0  0  0  0
   -2.5367   -1.4764   -5.0268 C   0  0  0  0  0  0  0  0  0  0  0  0
   -2.2041   -3.1230   -4.7042 S   0  0  0  0  0  0  0  0  0  0  0  0
   -4.4193    1.2899   -6.5742 C   0  0  0  0  0  0  0  0  0  0  0  0
   -4.3008    2.6504   -6.4569 C   0  0  0  0  0  0  0  0  0  0  0  0
   -2.9937    2.8033   -5.3756 S   0  0  0  0  0  0  0  0  0  0  0  0
   -5.0772    3.7130   -7.0723 N   0  0  0  0  0  0  0  0  0  0  0  0
   -4.7173    4.2512   -8.3383 C   0  0  0  0  0  0  0  0  0  0  0  0
   -3.3540    4.9109   -8.3201 C   0  0  0  0  0  0  0  0  0  0  0  0
   -6.1680    4.2246   -6.3279 C   0  0  0  0  0  0  0  0  0  0  0  0
   -6.5718    3.5563   -5.1651 C   0  0  0  0  0  0  0  0  0  0  0  0
   -7.6106    4.0274   -4.3820 C   0  0  0  0  0  0  0  0  0  0  0  0
   -8.3063    5.1862   -4.7030 C   0  0  0  0  0  0  0  0  0  0  0  0
   -7.9257    5.8523   -5.8390 C   0  0  0  0  0  0  0  0  0  0  0  0
   -6.8684    5.3623   -6.6270 C   0  0  0  0  0  0  0  0  0  0  0  0
   -8.6466    7.0359   -6.2973 C   0  0  0  0  0  0  0  0  0  0  0  0
   -9.9565    7.1097   -6.3610 C   0  0  0  0  0  0  0  0  0  0  0  0
   -9.3179    5.6862   -3.8169 N   0  0  0  0  0  0  0  0  0  0  0  0
   -9.8046    4.9863   -2.6611 C   0  0  0  0  0  0  0  0  0  0  0  0
   -8.7885    4.7179   -1.6012 C   0  0  0  0  0  0  0  0  0  0  0  0
    2.8876    7.2360    6.4711 H   0  0  0  0  0  0  0  0  0  0  0  0
    5.6143    7.1006    7.5588 H   0  0  0  0  0  0  0  0  0  0  0  0
    4.2111    8.0645    8.1615 H   0  0  0  0  0  0  0  0  0  0  0  0
    3.5705    5.5471    9.1295 H   0  0  0  0  0  0  0  0  0  0  0  0
    4.4616    6.7799   10.0348 H   0  0  0  0  0  0  0  0  0  0  0  0
    5.4374    5.5479    9.1546 H   0  0  0  0  0  0  0  0  0  0  0  0
    4.6003    4.1258    7.5758 H   0  0  0  0  0  0  0  0  0  0  0  0
    4.8790    2.1992    6.2190 H   0  0  0  0  0  0  0  0  0  0  0  0
    3.1392    6.3412    4.2715 H   0  0  0  0  0  0  0  0  0  0  0  0
    4.1212    4.6453    1.7484 H   0  0  0  0  0  0  0  0  0  0  0  0
    1.3248    4.0829    2.7650 H   0  0  0  0  0  0  0  0  0  0  0  0
    1.8167    4.3604    1.0208 H   0  0  0  0  0  0  0  0  0  0  0  0
    5.0695    2.5373    1.7312 H   0  0  0  0  0  0  0  0  0  0  0  0
    5.6368    0.9576    2.3178 H   0  0  0  0  0  0  0  0  0  0  0  0
    7.0812    1.8587    3.9924 H   0  0  0  0  0  0  0  0  0  0  0  0
    6.6136    3.5248    3.5804 H   0  0  0  0  0  0  0  0  0  0  0  0
    7.4721    2.4836    2.3519 H   0  0  0  0  0  0  0  0  0  0  0  0
    1.6505    0.0016    3.6305 H   0  0  0  0  0  0  0  0  0  0  0  0
    1.8128    1.5815    2.8706 H   0  0  0  0  0  0  0  0  0  0  0  0
    2.1803    1.4727    5.8756 H   0  0  0  0  0  0  0  0  0  0  0  0
    1.4551    2.7795    4.8132 H   0  0  0  0  0  0  0  0  0  0  0  0
    0.5689    1.2269    5.2095 H   0  0  0  0  0  0  0  0  0  0  0  0
    4.0793   -0.4065    6.0876 H   0  0  0  0  0  0  0  0  0  0  0  0
    4.8831   -2.7396    6.2542 H   0  0  0  0  0  0  0  0  0  0  0  0
    4.2215   -0.8087    1.8621 H   0  0  0  0  0  0  0  0  0  0  0  0
    5.3147   -4.3438    1.7047 H   0  0  0  0  0  0  0  0  0  0  0  0
    5.0753   -1.6552    0.3845 H   0  0  0  0  0  0  0  0  0  0  0  0
    5.4514   -3.2710   -0.3595 H   0  0  0  0  0  0  0  0  0  0  0  0
    7.0550   -4.3531    3.0855 H   0  0  0  0  0  0  0  0  0  0  0  0
    7.3141   -5.0397    4.7302 H   0  0  0  0  0  0  0  0  0  0  0  0
    6.7296   -6.4362    2.3044 H   0  0  0  0  0  0  0  0  0  0  0  0
    5.3687   -6.8043    3.4792 H   0  0  0  0  0  0  0  0  0  0  0  0
    7.1001   -7.1320    3.9372 H   0  0  0  0  0  0  0  0  0  0  0  0
    3.7931   -6.0766    6.9681 H   0  0  0  0  0  0  0  0  0  0  0  0
    5.1965   -4.9800    7.2017 H   0  0  0  0  0  0  0  0  0  0  0  0
    6.7115   -6.7008    6.2427 H   0  0  0  0  0  0  0  0  0  0  0  0
    5.2748   -7.6632    5.6930 H   0  0  0  0  0  0  0  0  0  0  0  0
    5.5816   -7.4901    7.4238 H   0  0  0  0  0  0  0  0  0  0  0  0
    3.5173   -5.2579    2.7123 H   0  0  0  0  0  0  0  0  0  0  0  0
    1.2962   -4.8879    1.9567 H   0  0  0  0  0  0  0  0  0  0  0  0
    2.2204   -4.8624    6.7397 H   0  0  0  0  0  0  0  0  0  0  0  0
   -0.3787   -3.6943    6.8459 H   0  0  0  0  0  0  0  0  0  0  0  0
   -2.0208   -5.4413    7.0874 H   0  0  0  0  0  0  0  0  0  0  0  0
   -1.2156   -6.4101    5.7430 H   0  0  0  0  0  0  0  0  0  0  0  0
   -2.1204   -3.3564    4.8421 H   0  0  0  0  0  0  0  0  0  0  0  0
   -2.3450   -2.8193    3.1858 H   0  0  0  0  0  0  0  0  0  0  0  0
   -0.5903   -1.5525    5.0442 H   0  0  0  0  0  0  0  0  0  0  0  0
   -0.8240   -1.1711    3.3330 H   0  0  0  0  0  0  0  0  0  0  0  0
    0.4447   -2.3428    3.7249 H   0  0  0  0  0  0  0  0  0  0  0  0
   -2.9940   -5.6634    3.9447 H   0  0  0  0  0  0  0  0  0  0  0  0
   -1.8960   -6.9209    3.3989 H   0  0  0  0  0  0  0  0  0  0  0  0
   -4.4867   -6.7326    2.7607 H   0  0  0  0  0  0  0  0  0  0  0  0
   -3.3163   -7.6998    1.8884 H   0  0  0  0  0  0  0  0  0  0  0  0
   -3.8915   -6.0371    1.2657 H   0  0  0  0  0  0  0  0  0  0  0  0
   -0.6054   -2.9359    1.4686 H   0  0  0  0  0  0  0  0  0  0  0  0
    0.0407   -2.4280   -0.8743 H   0  0  0  0  0  0  0  0  0  0  0  0
   -1.9583   -6.7668    0.2818 H   0  0  0  0  0  0  0  0  0  0  0  0
   -1.7962   -7.5596   -1.7581 H   0  0  0  0  0  0  0  0  0  0  0  0
   -1.7892   -7.4922   -4.0419 H   0  0  0  0  0  0  0  0  0  0  0  0
   -1.2762   -5.7393   -4.0980 H   0  0  0  0  0  0  0  0  0  0  0  0
    1.9142   -4.2011   -2.8770 H   0  0  0  0  0  0  0  0  0  0  0  0
    1.0578   -5.5468   -3.7575 H   0  0  0  0  0  0  0  0  0  0  0  0
    1.6029   -2.7569   -4.6825 H   0  0  0  0  0  0  0  0  0  0  0  0
    1.8364   -4.3691   -5.5651 H   0  0  0  0  0  0  0  0  0  0  0  0
    0.2195   -3.6397   -5.3641 H   0  0  0  0  0  0  0  0  0  0  0  0
    0.0006   -1.2128   -2.8500 H   0  0  0  0  0  0  0  0  0  0  0  0
   -1.6775    3.3636   -3.5565 H   0  0  0  0  0  0  0  0  0  0  0  0
    0.2480    4.4871   -2.5088 H   0  0  0  0  0  0  0  0  0  0  0  0
    4.3029    3.0462   -3.6153 H   0  0  0  0  0  0  0  0  0  0  0  0
    5.1497    3.9147   -2.2885 H   0  0  0  0  0  0  0  0  0  0  0  0
    3.0860    4.8917   -4.3512 H   0  0  0  0  0  0  0  0  0  0  0  0
    4.6334    5.6184   -3.8871 H   0  0  0  0  0  0  0  0  0  0  0  0
    3.2529    5.7441   -2.7676 H   0  0  0  0  0  0  0  0  0  0  0  0
   -5.1678   -0.8082   -8.2856 H   0  0  0  0  0  0  0  0  0  0  0  0
   -6.4395   -2.7444   -9.0925 H   0  0  0  0  0  0  0  0  0  0  0  0
   -5.6874   -7.7655   -8.8817 H   0  0  0  0  0  0  0  0  0  0  0  0
   -4.3021   -6.7354   -8.4939 H   0  0  0  0  0  0  0  0  0  0  0  0
   -4.3139   -6.6309  -10.7449 H   0  0  0  0  0  0  0  0  0  0  0  0
   -5.2516   -5.1487  -10.4366 H   0  0  0  0  0  0  0  0  0  0  0  0
   -6.0811   -6.7273  -10.9372 H   0  0  0  0  0  0  0  0  0  0  0  0
   -5.2473    0.9327   -7.2175 H   0  0  0  0  0  0  0  0  0  0  0  0
   -4.6882    3.3767   -9.0621 H   0  0  0  0  0  0  0  0  0  0  0  0
   -5.4962    4.9169   -8.7204 H   0  0  0  0  0  0  0  0  0  0  0  0
   -2.6165    4.0865   -8.0966 H   0  0  0  0  0  0  0  0  0  0  0  0
   -3.0576    5.3214   -9.3007 H   0  0  0  0  0  0  0  0  0  0  0  0
   -3.2384    5.6241   -7.4904 H   0  0  0  0  0  0  0  0  0  0  0  0
   -6.0348    2.6504   -4.9036 H   0  0  0  0  0  0  0  0  0  0  0  0
   -7.8976    3.4786   -3.5074 H   0  0  0  0  0  0  0  0  0  0  0  0
   -6.6092    5.9275   -7.4884 H   0  0  0  0  0  0  0  0  0  0  0  0
   -8.0279    7.8946   -6.6004 H   0  0  0  0  0  0  0  0  0  0  0  0
  -10.5849    6.2953   -6.0809 H   0  0  0  0  0  0  0  0  0  0  0  0
  -10.4129    8.0085   -6.6974 H   0  0  0  0  0  0  0  0  0  0  0  0
   -9.7045    6.6254   -4.0092 H   0  0  0  0  0  0  0  0  0  0  0  0
  -10.6319    5.6050   -2.1974 H   0  0  0  0  0  0  0  0  0  0  0  0
  -10.3296    4.0304   -2.9189 H   0  0  0  0  0  0  0  0  0  0  0  0
   -7.8132    5.1689   -1.8398 H   0  0  0  0  0  0  0  0  0  0  0  0
   -9.1142    5.2488   -0.6535 H   0  0  0  0  0  0  0  0  0  0  0  0
   -8.7015    3.6517   -1.2979 H   0  0  0  0  0  0  0  0  0  0  0  0
  1  2  1  0
  2  3  1  0
  1  4  1  0
  4  5  2  0
  5  6  1  0
  6  7  2  0
  7  8  1  0
  8  9  2  0
  8 10  1  0
 10 11  2  3
  7 12  1  0
 12 13  1  0
 13 14  1  0
 12 15  1  0
 15 16  1  0
 16 17  1  0
 15 18  1  0
 18 19  2  0
 19 20  1  0
 20 21  2  0
 21 22  1  0
 22 23  2  0
 22 24  1  0
 24 25  2  3
 21 26  1  0
 26 27  1  0
 27 28  1  0
 26 29  1  0
 29 30  1  0
 30 31  1  0
 29 32  1  0
 32 33  2  0
 33 34  1  0
 34 35  2  0
 35 36  1  0
 36 37  2  0
 36 38  1  0
 38 39  2  3
 35 40  1  0
 40 41  1  0
 41 42  1  0
 40 43  1  0
 43 44  1  0
 44 45  1  0
 43 46  1  0
 46 47  2  0
 47 48  1  0
 48 49  2  0
 49 50  1  0
 50 51  2  0
 50 52  1  0
 52 53  2  3
 49 54  1  0
 54 55  1  0
 55 56  1  0
 54 57  1  0
 57 58  2  0
 58 59  1  0
 59 60  2  0
 60 61  1  0
 61 62  2  0
 62 63  1  0
 63 64  2  0
 64 65  1  0
 65 66  1  0
 66 67  1  0
 64 68  1  0
 60 69  1  0
 69 70  2  0
 70 71  1  0
 71 72  1  0
 72 73  2  0
 73 74  1  0
 74 75  2  0
 75 76  1  0
 76 77  1  0
 77 78  1  0
 75 79  1  0
 71 80  2  0
 80 81  1  0
 70 82  1  0
 82 83  2  0
 83 84  1  0
 83 85  1  0
 85 86  1  0
 86 87  1  0
 85 88  1  0
 88 89  2  0
 89 90  1  0
 90 91  2  0
 91 92  1  0
 92 93  2  0
 92 94  1  0
 94 95  2  3
 91 96  1  0
 96 97  1  0
 97 98  1  0
  9  4  1  0
 23 18  1  0
 37 32  1  0
 51 46  1  0
 81 57  1  0
 93 88  1  0
 80 59  1  0
 68 61  1  0
 84 69  1  0
 79 72  1  0
  1 99  1  0
  2100  1  0
  2101  1  0
  3102  1  0
  3103  1  0
  3104  1  0
  5105  1  0
  6106  1  0
  9107  1  0
 10108  1  0
 11109  1  0
 11110  1  0
 13111  1  0
 13112  1  0
 14113  1  0
 14114  1  0
 14115  1  0
 16116  1  0
 16117  1  0
 17118  1  0
 17119  1  0
 17120  1  0
 19121  1  0
 20122  1  0
 23123  1  0
 24124  1  0
 25125  1  0
 25126  1  0
 27127  1  0
 27128  1  0
 28129  1  0
 28130  1  0
 28131  1  0
 30132  1  0
 30133  1  0
 31134  1  0
 31135  1  0
 31136  1  0
 33137  1  0
 34138  1  0
 37139  1  0
 38140  1  0
 39141  1  0
 39142  1  0
 41143  1  0
 41144  1  0
 42145  1  0
 42146  1  0
 42147  1  0
 44148  1  0
 44149  1  0
 45150  1  0
 45151  1  0
 45152  1  0
 47153  1  0
 48154  1  0
 51155  1  0
 52156  1  0
 53157  1  0
 53158  1  0
 55159  1  0
 55160  1  0
 56161  1  0
 56162  1  0
 56163  1  0
 58164  1  0
 62165  1  0
 63166  1  0
 66167  1  0
 66168  1  0
 67169  1  0
 67170  1  0
 67171  1  0
 73172  1  0
 74173  1  0
 77174  1  0
 77175  1  0
 78176  1  0
 78177  1  0
 78178  1  0
 82179  1  0
 86180  1  0
 86181  1  0
 87182  1  0
 87183  1  0
 87184  1  0
 89185  1  0
 90186  1  0
 93187  1  0
 94188  1  0
 95189  1  0
 95190  1  0
 96191  1  0
 97192  1  0
 97193  1  0
 98194  1  0
 98195  1  0
 98196  1  0
M  END

