
     RDKit          3D

284313  0  0  0  0  0  0  0  0999 V2000
   -0.1793  -10.0781    2.0254 C   0  0  0  0  0  0  0  0  0  0  0  0
    0.1368   -9.0997    1.1345 C   0  0  0  0  0  0  0  0  0  0  0  0
   -0.7333   -8.8662    0.0995 C   0  0  0  0  0  0  0  0  0  0  0  0
   -0.6321   -7.9303   -0.9016 C   0  0  0  0  0  0  0  0  0  0  0  0
    0.3383   -6.8856   -1.0428 C   0  0  0  0  0  0  0  0  0  0  0  0
    1.6574   -7.0147   -1.1653 C   0  0  0  0  0  0  0  0  0  0  0  0
    2.5048   -5.9266   -1.4561 C   0  0  0  0  0  0  0  0  0  0  0  0
    1.9467   -4.6670   -1.6189 C   0  0  0  0  0  0  0  0  0  0  0  0
    2.8655   -3.2185   -2.0547 S   0  0  0  0  0  0  0  0  0  0  0  0
    3.2470   -2.2243   -0.5936 C   0  0  0  0  0  0  0  0  0  0  0  0
    3.9179   -0.9433   -1.0285 C   0  0  0  0  0  0  0  0  0  0  0  0
    0.5463   -4.5115   -1.4840 C   0  0  0  0  0  0  0  0  0  0  0  0
    0.0289   -3.2911   -1.6528 F   0  0  0  0  0  0  0  0  0  0  0  0
   -0.2270   -5.5862   -1.2060 C   0  0  0  0  0  0  0  0  0  0  0  0
   -1.6803   -7.8576   -1.8705 C   0  0  0  0  0  0  0  0  0  0  0  0
   -2.7906   -8.6193   -1.9106 C   0  0  0  0  0  0  0  0  0  0  0  0
   -2.8850   -9.5615   -0.9011 C   0  0  0  0  0  0  0  0  0  0  0  0
   -3.9543  -10.5244   -0.6838 C   0  0  0  0  0  0  0  0  0  0  0  0
   -5.2245  -10.2007   -0.3014 C   0  0  0  0  0  0  0  0  0  0  0  0
   -6.1372  -11.1942    0.0711 C   0  0  0  0  0  0  0  0  0  0  0  0
   -5.7881  -12.5427    0.0644 C   0  0  0  0  0  0  0  0  0  0  0  0
   -6.9550  -13.7862    0.6463 S   0  0  0  0  0  0  0  0  0  0  0  0
   -7.8634  -14.4287   -0.7739 C   0  0  0  0  0  0  0  0  0  0  0  0
   -6.8962  -15.2076   -1.6435 C   0  0  0  0  0  0  0  0  0  0  0  0
   -4.5187  -12.8738   -0.3242 C   0  0  0  0  0  0  0  0  0  0  0  0
   -3.6246  -11.8943   -0.6886 C   0  0  0  0  0  0  0  0  0  0  0  0
   -4.1654  -14.1819   -0.3339 F   0  0  0  0  0  0  0  0  0  0  0  0
   -1.8490   -9.6529    0.0734 C   0  0  0  0  0  0  0  0  0  0  0  0
   -1.6721  -10.6647    1.4265 S   0  0  0  0  0  0  0  0  0  0  0  0
   -3.7143   -8.2942   -2.8915 C   0  0  0  0  0  0  0  0  0  0  0  0
   -3.4558   -7.2861   -3.7004 C   0  0  0  0  0  0  0  0  0  0  0  0
   -1.8745   -6.7411   -3.1312 S   0  0  0  0  0  0  0  0  0  0  0  0
   -4.1399   -6.3535   -4.6580 C   0  0  0  0  0  0  0  0  0  0  0  0
   -5.3685   -5.7893   -4.5700 C   0  0  0  0  0  0  0  0  0  0  0  0
   -5.6122   -4.6445   -5.2883 C   0  0  0  0  0  0  0  0  0  0  0  0
   -6.6753   -3.7561   -5.1114 C   0  0  0  0  0  0  0  0  0  0  0  0
   -7.8077   -4.0356   -4.2711 C   0  0  0  0  0  0  0  0  0  0  0  0
   -7.8328   -3.2668   -3.0800 C   0  0  0  0  0  0  0  0  0  0  0  0
   -8.8422   -3.4296   -2.1713 C   0  0  0  0  0  0  0  0  0  0  0  0
   -9.8492   -4.3184   -2.3553 C   0  0  0  0  0  0  0  0  0  0  0  0
  -11.1372   -4.4459   -1.1065 S   0  0  0  0  0  0  0  0  0  0  0  0
  -10.7949   -3.2407    0.2216 C   0  0  0  0  0  0  0  0  0  0  0  0
  -11.9064   -3.3490    1.2386 C   0  0  0  0  0  0  0  0  0  0  0  0
   -9.8397   -5.0731   -3.5090 C   0  0  0  0  0  0  0  0  0  0  0  0
  -10.8345   -5.9585   -3.7038 F   0  0  0  0  0  0  0  0  0  0  0  0
   -8.8153   -4.9223   -4.4548 C   0  0  0  0  0  0  0  0  0  0  0  0
   -6.6194   -2.4711   -5.6908 C   0  0  0  0  0  0  0  0  0  0  0  0
   -5.6122   -1.9840   -6.4307 C   0  0  0  0  0  0  0  0  0  0  0  0
   -4.5425   -2.8913   -6.6447 C   0  0  0  0  0  0  0  0  0  0  0  0
   -3.4669   -2.6573   -7.5530 C   0  0  0  0  0  0  0  0  0  0  0  0
   -2.4807   -1.7129   -7.4188 C   0  0  0  0  0  0  0  0  0  0  0  0
   -1.4639   -1.6040   -8.3644 C   0  0  0  0  0  0  0  0  0  0  0  0
   -1.4372   -2.4641   -9.4684 C   0  0  0  0  0  0  0  0  0  0  0  0
   -0.1348   -2.3678  -10.6765 S   0  0  0  0  0  0  0  0  0  0  0  0
    1.0542   -1.0721  -10.3590 C   0  0  0  0  0  0  0  0  0  0  0  0
    0.4286    0.2640  -10.5863 C   0  0  0  0  0  0  0  0  0  0  0  0
   -2.4302   -3.3951   -9.5838 C   0  0  0  0  0  0  0  0  0  0  0  0
   -3.4308   -3.5100   -8.6633 C   0  0  0  0  0  0  0  0  0  0  0  0
   -2.4136   -4.2498  -10.6701 F   0  0  0  0  0  0  0  0  0  0  0  0
   -4.6064   -4.1606   -6.0533 C   0  0  0  0  0  0  0  0  0  0  0  0
   -3.3345   -5.2994   -5.7672 S   0  0  0  0  0  0  0  0  0  0  0  0
   -5.5851   -0.6088   -6.6226 C   0  0  0  0  0  0  0  0  0  0  0  0
   -6.5300    0.1397   -6.0548 C   0  0  0  0  0  0  0  0  0  0  0  0
   -7.5313   -1.0603   -5.2634 S   0  0  0  0  0  0  0  0  0  0  0  0
   -6.4608    1.5568   -5.4583 C   0  0  0  0  0  0  0  0  0  0  0  0
   -7.3526    2.0848   -4.5952 C   0  0  0  0  0  0  0  0  0  0  0  0
   -6.8849    3.0334   -3.7392 C   0  0  0  0  0  0  0  0  0  0  0  0
   -7.5808    3.4411   -2.5716 C   0  0  0  0  0  0  0  0  0  0  0  0
   -8.9270    3.1011   -2.3292 C   0  0  0  0  0  0  0  0  0  0  0  0
   -9.9986    2.4242   -2.5238 C   0  0  0  0  0  0  0  0  0  0  0  0
  -11.2505    2.6004   -2.1071 C   0  0  0  0  0  0  0  0  0  0  0  0
  -11.6171    3.6407   -1.3356 C   0  0  0  0  0  0  0  0  0  0  0  0
  -13.1804    4.1224   -0.6735 S   0  0  0  0  0  0  0  0  0  0  0  0
  -12.9882    5.6479    0.2700 C   0  0  0  0  0  0  0  0  0  0  0  0
  -12.6161    6.8127   -0.6093 C   0  0  0  0  0  0  0  0  0  0  0  0
   -9.9435    4.6084   -1.0904 Se  0  0  0  0  0  2  0  0  0  0  0  0
   -6.8552    4.1619   -1.6086 C   0  0  0  0  0  0  0  0  0  0  0  0
   -5.5575    4.5398   -1.6567 C   0  0  0  0  0  0  0  0  0  0  0  0
   -4.8877    4.1283   -2.8454 C   0  0  0  0  0  0  0  0  0  0  0  0
   -3.4724    4.3000   -2.9950 C   0  0  0  0  0  0  0  0  0  0  0  0
   -2.5879    3.9831   -3.9687 C   0  0  0  0  0  0  0  0  0  0  0  0
   -1.2716    4.1415   -3.8429 C   0  0  0  0  0  0  0  0  0  0  0  0
   -0.6343    4.6198   -2.7802 C   0  0  0  0  0  0  0  0  0  0  0  0
    0.9403    4.9225   -2.1177 S   0  0  0  0  0  0  0  0  0  0  0  0
    2.2500    4.1282   -3.0241 C   0  0  0  0  0  0  0  0  0  0  0  0
    2.3205    4.7123   -4.4242 C   0  0  0  0  0  0  0  0  0  0  0  0
   -2.2695    4.9506   -1.6497 Se  0  0  0  0  0  2  0  0  0  0  0  0
   -5.6020    3.3952   -3.8063 C   0  0  0  0  0  0  0  0  0  0  0  0
   -5.0213    2.3903   -5.1242 S   0  0  0  0  0  0  0  0  0  0  0  0
   -4.9670    4.9402   -0.5092 C   0  0  0  0  0  0  0  0  0  0  0  0
   -5.7893    4.8925    0.6395 C   0  0  0  0  0  0  0  0  0  0  0  0
   -7.2442    4.3766    0.1101 S   0  0  0  0  0  0  0  0  0  0  0  0
   -5.1082    4.8636    1.9933 C   0  0  0  0  0  0  0  0  0  0  0  0
   -4.8895    3.5315    2.4836 C   0  0  0  0  0  0  0  0  0  0  0  0
   -3.9782    3.3780    3.4211 C   0  0  0  0  0  0  0  0  0  0  0  0
   -3.4371    2.1131    3.7973 C   0  0  0  0  0  0  0  0  0  0  0  0
   -3.9179    0.8522    3.3479 C   0  0  0  0  0  0  0  0  0  0  0  0
   -3.2526    0.2438    2.2777 C   0  0  0  0  0  0  0  0  0  0  0  0
   -3.6312   -1.0176    1.8617 C   0  0  0  0  0  0  0  0  0  0  0  0
   -4.6589   -1.6876    2.4857 C   0  0  0  0  0  0  0  0  0  0  0  0
   -5.0000   -3.3549    1.9642 S   0  0  0  0  0  0  0  0  0  0  0  0
   -6.0277   -3.4232    0.4990 C   0  0  0  0  0  0  0  0  0  0  0  0
   -5.2467   -2.8933   -0.6741 C   0  0  0  0  0  0  0  0  0  0  0  0
   -5.3238   -1.0896    3.5402 C   0  0  0  0  0  0  0  0  0  0  0  0
   -6.3281   -1.7626    4.1315 F   0  0  0  0  0  0  0  0  0  0  0  0
   -4.9332    0.1717    3.9472 C   0  0  0  0  0  0  0  0  0  0  0  0
   -2.2963    2.0985    4.5778 C   0  0  0  0  0  0  0  0  0  0  0  0
   -1.6215    3.1576    5.0548 C   0  0  0  0  0  0  0  0  0  0  0  0
   -2.1971    4.4333    4.6720 C   0  0  0  0  0  0  0  0  0  0  0  0
   -1.5612    5.6041    5.1936 C   0  0  0  0  0  0  0  0  0  0  0  0
   -1.9180    6.0170    6.4708 C   0  0  0  0  0  0  0  0  0  0  0  0
   -1.2307    7.0229    7.1598 C   0  0  0  0  0  0  0  0  0  0  0  0
   -0.1565    7.6622    6.5974 C   0  0  0  0  0  0  0  0  0  0  0  0
    0.8632    8.8561    7.4608 S   0  0  0  0  0  0  0  0  0  0  0  0
    0.2832   10.5335    7.3926 C   0  0  0  0  0  0  0  0  0  0  0  0
   -0.9746   10.7743    8.1732 C   0  0  0  0  0  0  0  0  0  0  0  0
    0.2014    7.2521    5.2983 C   0  0  0  0  0  0  0  0  0  0  0  0
   -0.4813    6.2732    4.6541 C   0  0  0  0  0  0  0  0  0  0  0  0
    1.2631    7.8794    4.7495 F   0  0  0  0  0  0  0  0  0  0  0  0
   -3.3115    4.4687    3.8842 C   0  0  0  0  0  0  0  0  0  0  0  0
   -4.0437    5.7264    2.9185 S   0  0  0  0  0  0  0  0  0  0  0  0
   -0.3848    2.9531    5.5708 C   0  0  0  0  0  0  0  0  0  0  0  0
    0.0830    1.6580    5.5402 C   0  0  0  0  0  0  0  0  0  0  0  0
   -1.1756    0.7827    4.8597 S   0  0  0  0  0  0  0  0  0  0  0  0
    1.5295    1.2471    5.6436 C   0  0  0  0  0  0  0  0  0  0  0  0
    2.5901    2.0724    5.7785 C   0  0  0  0  0  0  0  0  0  0  0  0
    3.8175    1.5944    5.4700 C   0  0  0  0  0  0  0  0  0  0  0  0
    4.9898    2.3589    5.2607 C   0  0  0  0  0  0  0  0  0  0  0  0
    5.1271    3.6537    5.9206 C   0  0  0  0  0  0  0  0  0  0  0  0
    5.9856    4.6806    5.8803 C   0  0  0  0  0  0  0  0  0  0  0  0
    5.8909    5.7212    6.7215 C   0  0  0  0  0  0  0  0  0  0  0  0
    4.9756    5.8584    7.6546 C   0  0  0  0  0  0  0  0  0  0  0  0
    4.4960    6.9685    8.9291 S   0  0  0  0  0  0  0  0  0  0  0  0
    5.6159    8.3418    9.0507 C   0  0  0  0  0  0  0  0  0  0  0  0
    5.5661    9.2501    7.8766 C   0  0  0  0  0  0  0  0  0  0  0  0
    3.9736    4.1814    7.3519 Se  0  0  0  0  0  2  0  0  0  0  0  0
    6.0718    1.7919    4.6400 C   0  0  0  0  0  0  0  0  0  0  0  0
    6.1629    0.4961    4.1885 C   0  0  0  0  0  0  0  0  0  0  0  0
    5.0040   -0.2817    4.4296 C   0  0  0  0  0  0  0  0  0  0  0  0
    4.9299   -1.7032    4.1671 C   0  0  0  0  0  0  0  0  0  0  0  0
    3.9871   -2.6217    4.3652 C   0  0  0  0  0  0  0  0  0  0  0  0
    4.1724   -3.9221    4.0496 C   0  0  0  0  0  0  0  0  0  0  0  0
    5.2617   -4.4158    3.5338 C   0  0  0  0  0  0  0  0  0  0  0  0
    5.9209   -5.9772    3.0025 S   0  0  0  0  0  0  0  0  0  0  0  0
    7.5248   -5.7366    2.1756 C   0  0  0  0  0  0  0  0  0  0  0  0
    7.2536   -4.9837    0.8887 C   0  0  0  0  0  0  0  0  0  0  0  0
    6.3422   -2.7320    3.4225 Se  0  0  0  0  0  2  0  0  0  0  0  0
    3.8893    0.3076    5.0531 C   0  0  0  0  0  0  0  0  0  0  0  0
    2.2270   -0.2072    5.1187 S   0  0  0  0  0  0  0  0  0  0  0  0
    7.2238    0.2163    3.3936 C   0  0  0  0  0  0  0  0  0  0  0  0
    8.1054    1.1912    3.0933 C   0  0  0  0  0  0  0  0  0  0  0  0
    7.4592    2.5430    3.9555 S   0  0  0  0  0  0  0  0  0  0  0  0
    9.1654    1.3075    2.0538 C   0  0  0  0  0  0  0  0  0  0  0  0
    9.4092    0.6181    0.9175 C   0  0  0  0  0  0  0  0  0  0  0  0
   10.2916    1.1355    0.0328 C   0  0  0  0  0  0  0  0  0  0  0  0
   10.6241    0.6767   -1.2548 C   0  0  0  0  0  0  0  0  0  0  0  0
   10.1433   -0.5349   -1.8422 C   0  0  0  0  0  0  0  0  0  0  0  0
   10.0323   -0.9735   -3.1157 C   0  0  0  0  0  0  0  0  0  0  0  0
    9.6054   -2.1890   -3.4300 C   0  0  0  0  0  0  0  0  0  0  0  0
    9.2336   -3.1304   -2.5552 C   0  0  0  0  0  0  0  0  0  0  0  0
    8.5570   -4.7226   -2.7324 S   0  0  0  0  0  0  0  0  0  0  0  0
    9.6581   -6.0779   -3.0274 C   0  0  0  0  0  0  0  0  0  0  0  0
   10.4164   -6.4490   -1.7909 C   0  0  0  0  0  0  0  0  0  0  0  0
    9.5315   -2.1349   -0.8906 Se  0  0  0  0  0  2  0  0  0  0  0  0
   11.4841    1.4196   -2.0512 C   0  0  0  0  0  0  0  0  0  0  0  0
   12.0685    2.6018   -1.7033 C   0  0  0  0  0  0  0  0  0  0  0  0
   11.7470    3.0699   -0.4398 C   0  0  0  0  0  0  0  0  0  0  0  0
   12.0333    4.4086    0.0624 C   0  0  0  0  0  0  0  0  0  0  0  0
   12.3633    5.5984   -0.4482 C   0  0  0  0  0  0  0  0  0  0  0  0
   12.6097    6.6791    0.2937 C   0  0  0  0  0  0  0  0  0  0  0  0
   12.5507    6.6901    1.6204 C   0  0  0  0  0  0  0  0  0  0  0  0
   12.7612    7.8641    2.9126 S   0  0  0  0  0  0  0  0  0  0  0  0
   14.4957    7.8937    3.4167 C   0  0  0  0  0  0  0  0  0  0  0  0
   14.9013    6.6185    4.1320 C   0  0  0  0  0  0  0  0  0  0  0  0
   12.0501    4.7994    1.9491 Se  0  0  0  0  0  2  0  0  0  0  0  0
   10.8804    2.3211    0.3678 C   0  0  0  0  0  0  0  0  0  0  0  0
   10.1792    2.6675    1.9034 S   0  0  0  0  0  0  0  0  0  0  0  0
   12.9003    3.1675   -2.6060 C   0  0  0  0  0  0  0  0  0  0  0  0
   13.1027    2.5363   -3.7937 C   0  0  0  0  0  0  0  0  0  0  0  0
   12.1336    1.1571   -3.6372 S   0  0  0  0  0  0  0  0  0  0  0  0
    0.3997  -10.3946    2.9024 H   0  0  0  0  0  0  0  0  0  0  0  0
    1.0933   -8.5286    1.2997 H   0  0  0  0  0  0  0  0  0  0  0  0
    2.2058   -7.9686   -1.0453 H   0  0  0  0  0  0  0  0  0  0  0  0
    3.5651   -6.0351   -1.5560 H   0  0  0  0  0  0  0  0  0  0  0  0
    2.3102   -1.9587   -0.0402 H   0  0  0  0  0  0  0  0  0  0  0  0
    3.9008   -2.8237    0.0971 H   0  0  0  0  0  0  0  0  0  0  0  0
    3.2807   -0.0854   -0.7166 H   0  0  0  0  0  0  0  0  0  0  0  0
    4.9214   -0.8867   -0.6174 H   0  0  0  0  0  0  0  0  0  0  0  0
    3.9734   -0.9468   -2.1572 H   0  0  0  0  0  0  0  0  0  0  0  0
   -1.2913   -5.4274   -1.1015 H   0  0  0  0  0  0  0  0  0  0  0  0
   -5.5354   -9.1718   -0.2825 H   0  0  0  0  0  0  0  0  0  0  0  0
   -7.1467  -10.9708    0.3819 H   0  0  0  0  0  0  0  0  0  0  0  0
   -8.2893  -13.5696   -1.3158 H   0  0  0  0  0  0  0  0  0  0  0  0
   -8.6774  -15.1277   -0.4451 H   0  0  0  0  0  0  0  0  0  0  0  0
   -6.2910  -14.4890   -2.2017 H   0  0  0  0  0  0  0  0  0  0  0  0
   -6.2401  -15.7736   -0.9320 H   0  0  0  0  0  0  0  0  0  0  0  0
   -7.4541  -15.9158   -2.3174 H   0  0  0  0  0  0  0  0  0  0  0  0
   -2.6024  -12.1159   -1.0084 H   0  0  0  0  0  0  0  0  0  0  0  0
   -4.6628   -8.8714   -3.0004 H   0  0  0  0  0  0  0  0  0  0  0  0
   -6.1490   -6.2460   -3.9293 H   0  0  0  0  0  0  0  0  0  0  0  0
   -7.0669   -2.5355   -2.8709 H   0  0  0  0  0  0  0  0  0  0  0  0
   -8.8448   -2.8161   -1.2487 H   0  0  0  0  0  0  0  0  0  0  0  0
  -10.8279   -2.2139   -0.1849 H   0  0  0  0  0  0  0  0  0  0  0  0
   -9.7980   -3.3953    0.6938 H   0  0  0  0  0  0  0  0  0  0  0  0
  -11.7496   -4.2657    1.8308 H   0  0  0  0  0  0  0  0  0  0  0  0
  -11.9788   -2.4285    1.8777 H   0  0  0  0  0  0  0  0  0  0  0  0
  -12.8582   -3.5018    0.6607 H   0  0  0  0  0  0  0  0  0  0  0  0
   -8.7856   -5.5016   -5.3725 H   0  0  0  0  0  0  0  0  0  0  0  0
   -2.4640   -1.0290   -6.5749 H   0  0  0  0  0  0  0  0  0  0  0  0
   -0.7028   -0.8640   -8.2437 H   0  0  0  0  0  0  0  0  0  0  0  0
    1.4456   -1.1986   -9.3001 H   0  0  0  0  0  0  0  0  0  0  0  0
    1.9124   -1.1935  -11.0491 H   0  0  0  0  0  0  0  0  0  0  0  0
    0.7674    0.6921  -11.5739 H   0  0  0  0  0  0  0  0  0  0  0  0
   -0.6956    0.1550  -10.6541 H   0  0  0  0  0  0  0  0  0  0  0  0
    0.7448    0.9899   -9.8356 H   0  0  0  0  0  0  0  0  0  0  0  0
   -4.1690   -4.2897   -8.8440 H   0  0  0  0  0  0  0  0  0  0  0  0
   -4.8081   -0.1402   -7.2225 H   0  0  0  0  0  0  0  0  0  0  0  0
   -8.3781    1.7368   -4.6637 H   0  0  0  0  0  0  0  0  0  0  0  0
   -9.8322    1.4463   -3.1672 H   0  0  0  0  0  0  0  0  0  0  0  0
  -12.0941    1.8828   -2.3946 H   0  0  0  0  0  0  0  0  0  0  0  0
  -13.8949    5.8490    0.8989 H   0  0  0  0  0  0  0  0  0  0  0  0
  -12.1285    5.5091    0.9781 H   0  0  0  0  0  0  0  0  0  0  0  0
  -13.0228    7.7780   -0.2662 H   0  0  0  0  0  0  0  0  0  0  0  0
  -12.9627    6.6741   -1.6694 H   0  0  0  0  0  0  0  0  0  0  0  0
  -11.5015    6.9123   -0.7066 H   0  0  0  0  0  0  0  0  0  0  0  0
   -3.0304    3.5900   -4.9360 H   0  0  0  0  0  0  0  0  0  0  0  0
   -0.5872    3.8344   -4.7256 H   0  0  0  0  0  0  0  0  0  0  0  0
    2.1385    3.0054   -3.1054 H   0  0  0  0  0  0  0  0  0  0  0  0
    3.2509    4.2613   -2.5183 H   0  0  0  0  0  0  0  0  0  0  0  0
    3.4110    4.7495   -4.7090 H   0  0  0  0  0  0  0  0  0  0  0  0
    1.9191    5.7736   -4.3528 H   0  0  0  0  0  0  0  0  0  0  0  0
    1.7932    4.1059   -5.1634 H   0  0  0  0  0  0  0  0  0  0  0  0
   -3.9737    5.3182   -0.3496 H   0  0  0  0  0  0  0  0  0  0  0  0
   -5.5304    2.7308    2.0431 H   0  0  0  0  0  0  0  0  0  0  0  0
   -2.4472    0.7616    1.7883 H   0  0  0  0  0  0  0  0  0  0  0  0
   -3.0955   -1.4453    1.0403 H   0  0  0  0  0  0  0  0  0  0  0  0
   -6.9900   -2.8660    0.6330 H   0  0  0  0  0  0  0  0  0  0  0  0
   -6.2463   -4.4965    0.2780 H   0  0  0  0  0  0  0  0  0  0  0  0
   -5.3892   -3.5693   -1.5356 H   0  0  0  0  0  0  0  0  0  0  0  0
   -4.1549   -2.9000   -0.4683 H   0  0  0  0  0  0  0  0  0  0  0  0
   -5.6029   -1.8674   -0.9636 H   0  0  0  0  0  0  0  0  0  0  0  0
   -5.4907    0.5898    4.7810 H   0  0  0  0  0  0  0  0  0  0  0  0
   -2.7567    5.5689    6.9793 H   0  0  0  0  0  0  0  0  0  0  0  0
   -1.5315    7.3203    8.1604 H   0  0  0  0  0  0  0  0  0  0  0  0
    0.0715   10.8801    6.3421 H   0  0  0  0  0  0  0  0  0  0  0  0
    1.0880   11.2169    7.7558 H   0  0  0  0  0  0  0  0  0  0  0  0
   -1.1271   11.8420    8.4135 H   0  0  0  0  0  0  0  0  0  0  0  0
   -1.8908   10.4462    7.5925 H   0  0  0  0  0  0  0  0  0  0  0  0
   -1.0004   10.2091    9.1327 H   0  0  0  0  0  0  0  0  0  0  0  0
   -0.2150    5.9423    3.6337 H   0  0  0  0  0  0  0  0  0  0  0  0
    0.2602    3.7348    5.9996 H   0  0  0  0  0  0  0  0  0  0  0  0
    2.3888    3.1108    6.0966 H   0  0  0  0  0  0  0  0  0  0  0  0
    6.7970    4.6406    5.0917 H   0  0  0  0  0  0  0  0  0  0  0  0
    6.6691    6.5749    6.6336 H   0  0  0  0  0  0  0  0  0  0  0  0
    5.4292    8.8766   10.0318 H   0  0  0  0  0  0  0  0  0  0  0  0
    6.6817    7.9801    9.2000 H   0  0  0  0  0  0  0  0  0  0  0  0
    6.5805    9.3691    7.3835 H   0  0  0  0  0  0  0  0  0  0  0  0
    5.1512   10.2335    8.1703 H   0  0  0  0  0  0  0  0  0  0  0  0
    4.8579    8.7990    7.1276 H   0  0  0  0  0  0  0  0  0  0  0  0
    2.9987   -2.3166    4.8221 H   0  0  0  0  0  0  0  0  0  0  0  0
    3.3082   -4.6613    4.2514 H   0  0  0  0  0  0  0  0  0  0  0  0
    7.9384   -6.7193    1.9610 H   0  0  0  0  0  0  0  0  0  0  0  0
    8.1518   -5.1226    2.8271 H   0  0  0  0  0  0  0  0  0  0  0  0
    7.5119   -5.6215   -0.0160 H   0  0  0  0  0  0  0  0  0  0  0  0
    7.8179   -4.0420    0.9181 H   0  0  0  0  0  0  0  0  0  0  0  0
    6.1655   -4.7848    0.7381 H   0  0  0  0  0  0  0  0  0  0  0  0
    7.4204   -0.7881    2.9654 H   0  0  0  0  0  0  0  0  0  0  0  0
    8.8714   -0.3420    0.7533 H   0  0  0  0  0  0  0  0  0  0  0  0
   10.3047   -0.2193   -3.9374 H   0  0  0  0  0  0  0  0  0  0  0  0
    9.5237   -2.4900   -4.5431 H   0  0  0  0  0  0  0  0  0  0  0  0
    9.0425   -6.9598   -3.3615 H   0  0  0  0  0  0  0  0  0  0  0  0
   10.3587   -5.8739   -3.8957 H   0  0  0  0  0  0  0  0  0  0  0  0
   11.4523   -6.8135   -1.9949 H   0  0  0  0  0  0  0  0  0  0  0  0
    9.8191   -7.3028   -1.3227 H   0  0  0  0  0  0  0  0  0  0  0  0
   10.3595   -5.6303   -1.0719 H   0  0  0  0  0  0  0  0  0  0  0  0
   12.3834    5.6994   -1.5927 H   0  0  0  0  0  0  0  0  0  0  0  0
   12.8938    7.6707   -0.2163 H   0  0  0  0  0  0  0  0  0  0  0  0
   15.1055    7.9703    2.4656 H   0  0  0  0  0  0  0  0  0  0  0  0
   14.7208    8.7792    4.0541 H   0  0  0  0  0  0  0  0  0  0  0  0
   15.1478    6.8626    5.1975 H   0  0  0  0  0  0  0  0  0  0  0  0
   14.1383    5.8476    4.0353 H   0  0  0  0  0  0  0  0  0  0  0  0
   15.8568    6.2675    3.6523 H   0  0  0  0  0  0  0  0  0  0  0  0
   13.4625    4.1132   -2.4342 H   0  0  0  0  0  0  0  0  0  0  0  0
   13.7585    2.8742   -4.6258 H   0  0  0  0  0  0  0  0  0  0  0  0
  1  2  2  0
  2  3  1  0
  3  4  2  0
  4  5  1  0
  5  6  2  0
  6  7  1  0
  7  8  2  0
  8  9  1  0
  9 10  1  0
 10 11  1  0
  8 12  1  0
 12 13  1  0
 12 14  2  0
  4 15  1  0
 15 16  2  0
 16 17  1  0
 17 18  1  0
 18 19  2  0
 19 20  1  0
 20 21  2  0
 21 22  1  0
 22 23  1  0
 23 24  1  0
 21 25  1  0
 25 26  2  0
 25 27  1  0
 17 28  2  0
 28 29  1  0
 16 30  1  0
 30 31  2  0
 31 32  1  0
 31 33  1  0
 33 34  2  0
 34 35  1  0
 35 36  2  0
 36 37  1  0
 37 38  2  0
 38 39  1  0
 39 40  2  0
 40 41  1  0
 41 42  1  0
 42 43  1  0
 40 44  1  0
 44 45  1  0
 44 46  2  0
 36 47  1  0
 47 48  2  0
 48 49  1  0
 49 50  1  0
 50 51  2  0
 51 52  1  0
 52 53  2  0
 53 54  1  0
 54 55  1  0
 55 56  1  0
 53 57  1  0
 57 58  2  0
 57 59  1  0
 49 60  2  0
 60 61  1  0
 48 62  1  0
 62 63  2  0
 63 64  1  0
 63 65  1  0
 65 66  2  0
 66 67  1  0
 67 68  2  0
 68 69  1  0
 69 70  2  0
 70 71  1  0
 71 72  2  0
 72 73  1  0
 73 74  1  0
 74 75  1  0
 72 76  1  0
 68 77  1  0
 77 78  2  0
 78 79  1  0
 79 80  1  0
 80 81  2  0
 81 82  1  0
 82 83  2  0
 83 84  1  0
 84 85  1  0
 85 86  1  0
 83 87  1  0
 79 88  2  0
 88 89  1  0
 78 90  1  0
 90 91  2  0
 91 92  1  0
 91 93  1  0
 93 94  2  0
 94 95  1  0
 95 96  2  0
 96 97  1  0
 97 98  2  0
 98 99  1  0
 99100  2  0
100101  1  0
101102  1  0
102103  1  0
100104  1  0
104105  1  0
104106  2  0
 96107  1  0
107108  2  0
108109  1  0
109110  1  0
110111  2  0
111112  1  0
112113  2  0
113114  1  0
114115  1  0
115116  1  0
113117  1  0
117118  2  0
117119  1  0
109120  2  0
120121  1  0
108122  1  0
122123  2  0
123124  1  0
123125  1  0
125126  2  0
126127  1  0
127128  2  0
128129  1  0
129130  2  0
130131  1  0
131132  2  0
132133  1  0
133134  1  0
134135  1  0
132136  1  0
128137  1  0
137138  2  0
138139  1  0
139140  1  0
140141  2  0
141142  1  0
142143  2  0
143144  1  0
144145  1  0
145146  1  0
143147  1  0
139148  2  0
148149  1  0
138150  1  0
150151  2  0
151152  1  0
151153  1  0
153154  2  0
154155  1  0
155156  2  0
156157  1  0
157158  2  0
158159  1  0
159160  2  0
160161  1  0
161162  1  0
162163  1  0
160164  1  0
156165  1  0
165166  2  0
166167  1  0
167168  1  0
168169  2  0
169170  1  0
170171  2  0
171172  1  0
172173  1  0
173174  1  0
171175  1  0
167176  2  0
176177  1  0
166178  1  0
178179  2  0
179180  1  0
 29  1  1  0
 61 33  1  0
 89 65  1  0
121 93  1  0
149125  1  0
177153  1  0
 28  3  1  0
 60 35  1  0
 88 67  1  0
120 95  1  0
148127  1  0
176155  1  0
 14  5  1  0
 32 15  1  0
 46 37  1  0
 64 47  1  0
 76 69  1  0
 92 77  1  0
106 97  1  0
124107  1  0
136129  1  0
152137  1  0
164157  1  0
180165  1  0
 26 18  1  0
 58 50  1  0
 87 80  1  0
118110  1  0
147140  1  0
175168  1  0
  1181  1  0
  2182  1  0
  6183  1  0
  7184  1  0
 10185  1  0
 10186  1  0
 11187  1  0
 11188  1  0
 11189  1  0
 14190  1  0
 19191  1  0
 20192  1  0
 23193  1  0
 23194  1  0
 24195  1  0
 24196  1  0
 24197  1  0
 26198  1  0
 30199  1  0
 34200  1  0
 38201  1  0
 39202  1  0
 42203  1  0
 42204  1  0
 43205  1  0
 43206  1  0
 43207  1  0
 46208  1  0
 51209  1  0
 52210  1  0
 55211  1  0
 55212  1  0
 56213  1  0
 56214  1  0
 56215  1  0
 58216  1  0
 62217  1  0
 66218  1  0
 70219  1  0
 71220  1  0
 74221  1  0
 74222  1  0
 75223  1  0
 75224  1  0
 75225  1  0
 81226  1  0
 82227  1  0
 85228  1  0
 85229  1  0
 86230  1  0
 86231  1  0
 86232  1  0
 90233  1  0
 94234  1  0
 98235  1  0
 99236  1  0
102237  1  0
102238  1  0
103239  1  0
103240  1  0
103241  1  0
106242  1  0
111243  1  0
112244  1  0
115245  1  0
115246  1  0
116247  1  0
116248  1  0
116249  1  0
118250  1  0
122251  1  0
126252  1  0
130253  1  0
131254  1  0
134255  1  0
134256  1  0
135257  1  0
135258  1  0
135259  1  0
141260  1  0
142261  1  0
145262  1  0
145263  1  0
146264  1  0
146265  1  0
146266  1  0
150267  1  0
154268  1  0
158269  1  0
159270  1  0
162271  1  0
162272  1  0
163273  1  0
163274  1  0
163275  1  0
169276  1  0
170277  1  0
173278  1  0
173279  1  0
174280  1  0
174281  1  0
174282  1  0
178283  1  0
179284  1  0
M  END

