
     RDKit          3D

284313  0  0  0  0  0  0  0  0999 V2000
   -4.8314   -2.7833    7.9168 C   0  0  0  0  0  0  0  0  0  0  0  0
   -5.1345   -1.8087    7.0069 C   0  0  0  0  0  0  0  0  0  0  0  0
   -5.8374   -2.1679    5.9229 C   0  0  0  0  0  0  0  0  0  0  0  0
   -6.2281   -1.3209    4.8537 C   0  0  0  0  0  0  0  0  0  0  0  0
   -5.7994    0.0456    4.8118 C   0  0  0  0  0  0  0  0  0  0  0  0
   -4.6564    0.2947    4.0219 C   0  0  0  0  0  0  0  0  0  0  0  0
   -4.0686    1.5222    3.9489 C   0  0  0  0  0  0  0  0  0  0  0  0
   -4.5808    2.6081    4.6653 C   0  0  0  0  0  0  0  0  0  0  0  0
   -3.7753    4.1659    4.5952 S   0  0  0  0  0  0  0  0  0  0  0  0
   -4.5165    5.4376    5.5958 C   0  0  0  0  0  0  0  0  0  0  0  0
   -3.6563    6.7126    5.6073 C   0  0  0  0  0  0  0  0  0  0  0  0
   -5.6827    2.3928    5.4306 C   0  0  0  0  0  0  0  0  0  0  0  0
   -6.2778    3.3553    6.1748 F   0  0  0  0  0  0  0  0  0  0  0  0
   -6.2785    1.1214    5.4946 C   0  0  0  0  0  0  0  0  0  0  0  0
   -6.9305   -1.8642    3.7906 C   0  0  0  0  0  0  0  0  0  0  0  0
   -7.2927   -3.1706    3.6609 C   0  0  0  0  0  0  0  0  0  0  0  0
   -6.9102   -4.0089    4.7199 C   0  0  0  0  0  0  0  0  0  0  0  0
   -7.1664   -5.4178    4.8248 C   0  0  0  0  0  0  0  0  0  0  0  0
   -8.3694   -5.9161    5.2106 C   0  0  0  0  0  0  0  0  0  0  0  0
   -8.5719   -7.2647    5.3841 C   0  0  0  0  0  0  0  0  0  0  0  0
   -7.5545   -8.1771    5.1693 C   0  0  0  0  0  0  0  0  0  0  0  0
   -7.8029   -9.8997    5.4385 S   0  0  0  0  0  0  0  0  0  0  0  0
   -8.4231  -10.7099    3.9705 C   0  0  0  0  0  0  0  0  0  0  0  0
   -7.3476  -10.7215    2.9147 C   0  0  0  0  0  0  0  0  0  0  0  0
   -6.3386   -7.6881    4.7767 C   0  0  0  0  0  0  0  0  0  0  0  0
   -6.1402   -6.3340    4.6053 C   0  0  0  0  0  0  0  0  0  0  0  0
   -5.3153   -8.5457    4.5705 F   0  0  0  0  0  0  0  0  0  0  0  0
   -6.2012   -3.4642    5.7994 C   0  0  0  0  0  0  0  0  0  0  0  0
   -5.5424   -4.1733    7.2297 S   0  0  0  0  0  0  0  0  0  0  0  0
   -7.9095   -3.5476    2.5225 C   0  0  0  0  0  0  0  0  0  0  0  0
   -8.1231   -2.6007    1.5902 C   0  0  0  0  0  0  0  0  0  0  0  0
   -7.4817   -1.1822    2.2943 S   0  0  0  0  0  0  0  0  0  0  0  0
   -8.4512   -2.7540    0.1465 C   0  0  0  0  0  0  0  0  0  0  0  0
   -8.7856   -1.8243   -0.7824 C   0  0  0  0  0  0  0  0  0  0  0  0
   -8.8121   -2.1996   -2.0831 C   0  0  0  0  0  0  0  0  0  0  0  0
   -8.9300   -1.3616   -3.2245 C   0  0  0  0  0  0  0  0  0  0  0  0
   -9.3580    0.0194   -3.1432 C   0  0  0  0  0  0  0  0  0  0  0  0
   -9.4016    1.0643   -4.0062 C   0  0  0  0  0  0  0  0  0  0  0  0
   -9.9171    2.2455   -3.6861 C   0  0  0  0  0  0  0  0  0  0  0  0
  -10.4496    2.5843   -2.5222 C   0  0  0  0  0  0  0  0  0  0  0  0
  -11.2038    3.9365   -1.7262 S   0  0  0  0  0  0  0  0  0  0  0  0
  -11.5244    3.5145    0.0164 C   0  0  0  0  0  0  0  0  0  0  0  0
  -12.5160    2.4078    0.1742 C   0  0  0  0  0  0  0  0  0  0  0  0
  -10.1818    0.7995   -1.5790 Se  0  0  0  0  0  2  0  0  0  0  0  0
   -8.7094   -1.8943   -4.4761 C   0  0  0  0  0  0  0  0  0  0  0  0
   -8.3835   -3.1875   -4.7613 C   0  0  0  0  0  0  0  0  0  0  0  0
   -8.2834   -4.0216   -3.6341 C   0  0  0  0  0  0  0  0  0  0  0  0
   -7.7545   -5.3645   -3.6433 C   0  0  0  0  0  0  0  0  0  0  0  0
   -7.0075   -6.1671   -4.3832 C   0  0  0  0  0  0  0  0  0  0  0  0
   -6.7467   -7.4491   -4.0881 C   0  0  0  0  0  0  0  0  0  0  0  0
   -7.2124   -8.0743   -3.0085 C   0  0  0  0  0  0  0  0  0  0  0  0
   -7.0304   -9.6827   -2.3224 S   0  0  0  0  0  0  0  0  0  0  0  0
   -8.2920  -10.8205   -2.9025 C   0  0  0  0  0  0  0  0  0  0  0  0
   -8.1967  -11.1020   -4.3925 C   0  0  0  0  0  0  0  0  0  0  0  0
   -8.2390   -6.6219   -2.1899 Se  0  0  0  0  0  2  0  0  0  0  0  0
   -8.5030   -3.4942   -2.3493 C   0  0  0  0  0  0  0  0  0  0  0  0
   -8.1941   -4.1641   -0.7894 S   0  0  0  0  0  0  0  0  0  0  0  0
   -8.0052   -3.4722   -6.0305 C   0  0  0  0  0  0  0  0  0  0  0  0
   -7.9607   -2.4480   -6.9213 C   0  0  0  0  0  0  0  0  0  0  0  0
   -8.4716   -1.1187   -6.0245 S   0  0  0  0  0  0  0  0  0  0  0  0
   -7.0337   -2.4418   -8.1669 C   0  0  0  0  0  0  0  0  0  0  0  0
   -6.3636   -1.3014   -8.4976 C   0  0  0  0  0  0  0  0  0  0  0  0
   -5.1395   -1.4436   -9.1184 C   0  0  0  0  0  0  0  0  0  0  0  0
   -4.1291   -0.4570   -9.0953 C   0  0  0  0  0  0  0  0  0  0  0  0
   -4.3829    0.9567   -9.0393 C   0  0  0  0  0  0  0  0  0  0  0  0
   -5.4110    1.7950   -9.1874 C   0  0  0  0  0  0  0  0  0  0  0  0
   -5.3203    3.1174   -9.0090 C   0  0  0  0  0  0  0  0  0  0  0  0
   -4.2473    3.7738   -8.6746 C   0  0  0  0  0  0  0  0  0  0  0  0
   -3.6451    5.3930   -8.3450 S   0  0  0  0  0  0  0  0  0  0  0  0
   -3.8195    5.8735   -6.6013 C   0  0  0  0  0  0  0  0  0  0  0  0
   -2.9458    7.0791   -6.3544 C   0  0  0  0  0  0  0  0  0  0  0  0
   -2.9763    2.2095   -8.5539 Se  0  0  0  0  0  2  0  0  0  0  0  0
   -2.8005   -0.8831   -9.2803 C   0  0  0  0  0  0  0  0  0  0  0  0
   -2.3387   -2.1155   -9.5041 C   0  0  0  0  0  0  0  0  0  0  0  0
   -3.3821   -3.0941   -9.5746 C   0  0  0  0  0  0  0  0  0  0  0  0
   -3.1618   -4.4213  -10.0875 C   0  0  0  0  0  0  0  0  0  0  0  0
   -3.8906   -5.5111  -10.2461 C   0  0  0  0  0  0  0  0  0  0  0  0
   -3.4766   -6.6049  -10.8829 C   0  0  0  0  0  0  0  0  0  0  0  0
   -2.2757   -6.7227  -11.4323 C   0  0  0  0  0  0  0  0  0  0  0  0
   -1.3914   -7.8951  -12.4030 S   0  0  0  0  0  0  0  0  0  0  0  0
    0.3278   -7.4091  -12.6812 C   0  0  0  0  0  0  0  0  0  0  0  0
    1.1157   -7.5641  -11.3743 C   0  0  0  0  0  0  0  0  0  0  0  0
   -1.5360   -4.9276  -10.9703 Se  0  0  0  0  0  2  0  0  0  0  0  0
   -4.7166   -2.6981   -9.3625 C   0  0  0  0  0  0  0  0  0  0  0  0
   -6.0357   -3.6787   -8.7341 S   0  0  0  0  0  0  0  0  0  0  0  0
   -0.9988   -2.3668   -9.2131 C   0  0  0  0  0  0  0  0  0  0  0  0
   -0.2711   -1.3503   -8.7065 C   0  0  0  0  0  0  0  0  0  0  0  0
   -1.3956   -0.0505   -8.6757 S   0  0  0  0  0  0  0  0  0  0  0  0
    0.9807   -1.2816   -7.8773 C   0  0  0  0  0  0  0  0  0  0  0  0
    2.1249   -1.8200   -7.5803 C   0  0  0  0  0  0  0  0  0  0  0  0
    2.8064   -1.4406   -6.4351 C   0  0  0  0  0  0  0  0  0  0  0  0
    3.9753   -1.9798   -5.8628 C   0  0  0  0  0  0  0  0  0  0  0  0
    4.7722   -2.9554   -6.5359 C   0  0  0  0  0  0  0  0  0  0  0  0
    5.9564   -2.6637   -7.2290 C   0  0  0  0  0  0  0  0  0  0  0  0
    6.6321   -3.6393   -7.9177 C   0  0  0  0  0  0  0  0  0  0  0  0
    6.1885   -4.9631   -7.9713 C   0  0  0  0  0  0  0  0  0  0  0  0
    7.0680   -6.2030   -8.9002 S   0  0  0  0  0  0  0  0  0  0  0  0
    8.3510   -7.0106   -7.8644 C   0  0  0  0  0  0  0  0  0  0  0  0
    9.4421   -6.0049   -7.5415 C   0  0  0  0  0  0  0  0  0  0  0  0
    5.0331   -5.2576   -7.2975 C   0  0  0  0  0  0  0  0  0  0  0  0
    4.5744   -6.5406   -7.3273 F   0  0  0  0  0  0  0  0  0  0  0  0
    4.3427   -4.2788   -6.5966 C   0  0  0  0  0  0  0  0  0  0  0  0
    4.4066   -1.5247   -4.5961 C   0  0  0  0  0  0  0  0  0  0  0  0
    3.7422   -0.5751   -3.8796 C   0  0  0  0  0  0  0  0  0  0  0  0
    2.5970   -0.0169   -4.4247 C   0  0  0  0  0  0  0  0  0  0  0  0
    1.6950    0.9049   -3.7721 C   0  0  0  0  0  0  0  0  0  0  0  0
    0.4474    0.3892   -3.3980 C   0  0  0  0  0  0  0  0  0  0  0  0
   -0.5158    1.1884   -2.8349 C   0  0  0  0  0  0  0  0  0  0  0  0
   -0.2515    2.5394   -2.6277 C   0  0  0  0  0  0  0  0  0  0  0  0
   -1.5626    3.5707   -1.9798 S   0  0  0  0  0  0  0  0  0  0  0  0
   -1.7337    3.4387   -0.1900 C   0  0  0  0  0  0  0  0  0  0  0  0
   -2.7930    4.4094    0.2659 C   0  0  0  0  0  0  0  0  0  0  0  0
    0.9583    3.0432   -2.9843 C   0  0  0  0  0  0  0  0  0  0  0  0
    1.9337    2.2143   -3.5588 C   0  0  0  0  0  0  0  0  0  0  0  0
    1.2353    4.3411   -2.7891 F   0  0  0  0  0  0  0  0  0  0  0  0
    2.2202   -0.5024   -5.6817 C   0  0  0  0  0  0  0  0  0  0  0  0
    0.8011   -0.1274   -6.4950 S   0  0  0  0  0  0  0  0  0  0  0  0
    4.2105   -0.2449   -2.6623 C   0  0  0  0  0  0  0  0  0  0  0  0
    5.3573   -0.9060   -2.2093 C   0  0  0  0  0  0  0  0  0  0  0  0
    5.6900   -1.9127   -3.4959 S   0  0  0  0  0  0  0  0  0  0  0  0
    5.8447   -0.6279   -0.8265 C   0  0  0  0  0  0  0  0  0  0  0  0
    7.0015   -0.2984   -0.2625 C   0  0  0  0  0  0  0  0  0  0  0  0
    7.0003    0.1432    1.0201 C   0  0  0  0  0  0  0  0  0  0  0  0
    8.0741    0.6643    1.7892 C   0  0  0  0  0  0  0  0  0  0  0  0
    9.4095    0.7064    1.2548 C   0  0  0  0  0  0  0  0  0  0  0  0
   10.1737   -0.4415    1.2707 C   0  0  0  0  0  0  0  0  0  0  0  0
   11.4300   -0.5175    0.7541 C   0  0  0  0  0  0  0  0  0  0  0  0
   11.9885    0.6208    0.1716 C   0  0  0  0  0  0  0  0  0  0  0  0
   13.6266    0.5502   -0.5411 S   0  0  0  0  0  0  0  0  0  0  0  0
   14.1949    2.1162   -1.1926 C   0  0  0  0  0  0  0  0  0  0  0  0
   14.4414    3.0883   -0.0701 C   0  0  0  0  0  0  0  0  0  0  0  0
   11.2412    1.7704    0.1459 C   0  0  0  0  0  0  0  0  0  0  0  0
   11.7084    2.9112   -0.4161 F   0  0  0  0  0  0  0  0  0  0  0  0
    9.9549    1.8267    0.6847 C   0  0  0  0  0  0  0  0  0  0  0  0
    7.8550    1.1817    3.0450 C   0  0  0  0  0  0  0  0  0  0  0  0
    6.6426    1.2520    3.6671 C   0  0  0  0  0  0  0  0  0  0  0  0
    5.5624    0.7232    2.9126 C   0  0  0  0  0  0  0  0  0  0  0  0
    4.2450    0.6319    3.4981 C   0  0  0  0  0  0  0  0  0  0  0  0
    3.1275    1.3186    3.2521 C   0  0  0  0  0  0  0  0  0  0  0  0
    1.9456    1.1181    3.9913 C   0  0  0  0  0  0  0  0  0  0  0  0
    1.8893    0.1954    5.0088 C   0  0  0  0  0  0  0  0  0  0  0  0
    0.4705   -0.1599    6.0103 S   0  0  0  0  0  0  0  0  0  0  0  0
   -0.4807   -1.5637    5.4161 C   0  0  0  0  0  0  0  0  0  0  0  0
   -1.1185   -1.2423    4.0627 C   0  0  0  0  0  0  0  0  0  0  0  0
    3.0630   -0.5460    5.2826 C   0  0  0  0  0  0  0  0  0  0  0  0
    4.1747   -0.3184    4.5462 C   0  0  0  0  0  0  0  0  0  0  0  0
    3.0157   -1.4605    6.2881 F   0  0  0  0  0  0  0  0  0  0  0  0
    5.8003    0.2176    1.6645 C   0  0  0  0  0  0  0  0  0  0  0  0
    4.7162   -0.3276    0.4684 S   0  0  0  0  0  0  0  0  0  0  0  0
    6.5671    1.8242    4.8629 C   0  0  0  0  0  0  0  0  0  0  0  0
    7.7381    2.3193    5.4114 C   0  0  0  0  0  0  0  0  0  0  0  0
    8.8703    1.9477    4.2178 S   0  0  0  0  0  0  0  0  0  0  0  0
    7.7716    3.1067    6.6790 C   0  0  0  0  0  0  0  0  0  0  0  0
    6.7487    4.0070    7.0336 C   0  0  0  0  0  0  0  0  0  0  0  0
    6.9283    4.7267    8.1365 C   0  0  0  0  0  0  0  0  0  0  0  0
    6.0692    5.6935    8.6837 C   0  0  0  0  0  0  0  0  0  0  0  0
    4.8218    6.1087    8.0526 C   0  0  0  0  0  0  0  0  0  0  0  0
    3.8477    6.9536    8.4547 C   0  0  0  0  0  0  0  0  0  0  0  0
    2.7909    7.2303    7.6881 C   0  0  0  0  0  0  0  0  0  0  0  0
    2.5682    6.7352    6.4934 C   0  0  0  0  0  0  0  0  0  0  0  0
    1.3801    6.8331    5.2033 S   0  0  0  0  0  0  0  0  0  0  0  0
    1.7345    5.7332    3.8265 C   0  0  0  0  0  0  0  0  0  0  0  0
    2.9829    6.1765    3.1266 C   0  0  0  0  0  0  0  0  0  0  0  0
    4.2194    5.5913    6.3605 Se  0  0  0  0  0  2  0  0  0  0  0  0
    6.4355    6.3479    9.8479 C   0  0  0  0  0  0  0  0  0  0  0  0
    7.5840    6.1408   10.5448 C   0  0  0  0  0  0  0  0  0  0  0  0
    8.4578    5.1758   10.0130 C   0  0  0  0  0  0  0  0  0  0  0  0
    9.6287    4.6861   10.7194 C   0  0  0  0  0  0  0  0  0  0  0  0
   10.1382    4.6451   11.9418 C   0  0  0  0  0  0  0  0  0  0  0  0
   11.3453    4.1744   12.2369 C   0  0  0  0  0  0  0  0  0  0  0  0
   12.2008    3.6785   11.3341 C   0  0  0  0  0  0  0  0  0  0  0  0
   13.8206    2.9845   11.3575 S   0  0  0  0  0  0  0  0  0  0  0  0
   15.0239    4.3417   11.2110 C   0  0  0  0  0  0  0  0  0  0  0  0
   14.9523    5.0407    9.8749 C   0  0  0  0  0  0  0  0  0  0  0  0
   11.1280    3.8958    9.6921 Se  0  0  0  0  0  2  0  0  0  0  0  0
    8.0912    4.5264    8.8405 C   0  0  0  0  0  0  0  0  0  0  0  0
    8.8879    3.3266    7.8991 S   0  0  0  0  0  0  0  0  0  0  0  0
    7.7952    6.8971   11.6408 C   0  0  0  0  0  0  0  0  0  0  0  0
    6.8347    7.8216   11.9788 C   0  0  0  0  0  0  0  0  0  0  0  0
    5.6898    7.5958   10.7584 S   0  0  0  0  0  0  0  0  0  0  0  0
   -4.2638   -2.6638    8.8550 H   0  0  0  0  0  0  0  0  0  0  0  0
   -4.7720   -0.7727    7.2239 H   0  0  0  0  0  0  0  0  0  0  0  0
   -4.2289   -0.5172    3.4585 H   0  0  0  0  0  0  0  0  0  0  0  0
   -3.1932    1.6840    3.3344 H   0  0  0  0  0  0  0  0  0  0  0  0
   -4.6870    5.0619    6.6227 H   0  0  0  0  0  0  0  0  0  0  0  0
   -5.5083    5.7657    5.2216 H   0  0  0  0  0  0  0  0  0  0  0  0
   -2.9779    6.6143    6.5014 H   0  0  0  0  0  0  0  0  0  0  0  0
   -3.0657    6.8224    4.6893 H   0  0  0  0  0  0  0  0  0  0  0  0
   -4.2569    7.6207    5.7740 H   0  0  0  0  0  0  0  0  0  0  0  0
   -7.1565    0.9532    6.1019 H   0  0  0  0  0  0  0  0  0  0  0  0
   -9.1761   -5.2010    5.3859 H   0  0  0  0  0  0  0  0  0  0  0  0
   -9.5321   -7.5990    5.6886 H   0  0  0  0  0  0  0  0  0  0  0  0
   -9.3231  -10.1946    3.5252 H   0  0  0  0  0  0  0  0  0  0  0  0
   -8.8081  -11.7448    4.1898 H   0  0  0  0  0  0  0  0  0  0  0  0
   -7.3756  -11.6757    2.3192 H   0  0  0  0  0  0  0  0  0  0  0  0
   -7.4947   -9.8555    2.2450 H   0  0  0  0  0  0  0  0  0  0  0  0
   -6.3597  -10.6403    3.4026 H   0  0  0  0  0  0  0  0  0  0  0  0
   -5.1985   -5.9194    4.2992 H   0  0  0  0  0  0  0  0  0  0  0  0
   -8.2401   -4.5993    2.3256 H   0  0  0  0  0  0  0  0  0  0  0  0
   -8.9997   -0.7873   -0.4346 H   0  0  0  0  0  0  0  0  0  0  0  0
   -8.9518    0.8800   -5.0344 H   0  0  0  0  0  0  0  0  0  0  0  0
   -9.8980    3.0817   -4.4841 H   0  0  0  0  0  0  0  0  0  0  0  0
  -10.5575    3.2113    0.4936 H   0  0  0  0  0  0  0  0  0  0  0  0
  -11.8583    4.3958    0.5885 H   0  0  0  0  0  0  0  0  0  0  0  0
  -13.3034    2.4330   -0.6071 H   0  0  0  0  0  0  0  0  0  0  0  0
  -12.0504    1.4079    0.2648 H   0  0  0  0  0  0  0  0  0  0  0  0
  -13.0607    2.5364    1.1507 H   0  0  0  0  0  0  0  0  0  0  0  0
   -6.5120   -5.7318   -5.3181 H   0  0  0  0  0  0  0  0  0  0  0  0
   -6.0832   -8.0801   -4.7867 H   0  0  0  0  0  0  0  0  0  0  0  0
   -9.3130  -10.4859   -2.6710 H   0  0  0  0  0  0  0  0  0  0  0  0
   -8.1346  -11.8189   -2.3928 H   0  0  0  0  0  0  0  0  0  0  0  0
   -9.1824  -11.4857   -4.7621 H   0  0  0  0  0  0  0  0  0  0  0  0
   -7.4889  -11.9463   -4.6092 H   0  0  0  0  0  0  0  0  0  0  0  0
   -7.9100  -10.1676   -4.8885 H   0  0  0  0  0  0  0  0  0  0  0  0
   -7.7706   -4.4884   -6.3899 H   0  0  0  0  0  0  0  0  0  0  0  0
   -6.8003   -0.3338   -8.2565 H   0  0  0  0  0  0  0  0  0  0  0  0
   -6.4074    1.3425   -9.5212 H   0  0  0  0  0  0  0  0  0  0  0  0
   -6.2871    3.7605   -9.1649 H   0  0  0  0  0  0  0  0  0  0  0  0
   -3.5692    5.0794   -5.8987 H   0  0  0  0  0  0  0  0  0  0  0  0
   -4.8802    6.2142   -6.3965 H   0  0  0  0  0  0  0  0  0  0  0  0
   -3.5140    8.0061   -6.5499 H   0  0  0  0  0  0  0  0  0  0  0  0
   -2.5689    7.0965   -5.3052 H   0  0  0  0  0  0  0  0  0  0  0  0
   -2.0792    7.0440   -7.0784 H   0  0  0  0  0  0  0  0  0  0  0  0
   -4.9490   -5.5080   -9.8043 H   0  0  0  0  0  0  0  0  0  0  0  0
   -4.1708   -7.5189  -10.9866 H   0  0  0  0  0  0  0  0  0  0  0  0
    0.7684   -8.0064  -13.4646 H   0  0  0  0  0  0  0  0  0  0  0  0
    0.3577   -6.3156  -12.9771 H   0  0  0  0  0  0  0  0  0  0  0  0
    1.2955   -6.6261  -10.8544 H   0  0  0  0  0  0  0  0  0  0  0  0
    0.5715   -8.3025  -10.7667 H   0  0  0  0  0  0  0  0  0  0  0  0
    2.1197   -7.9861  -11.6243 H   0  0  0  0  0  0  0  0  0  0  0  0
   -0.5484   -3.3396   -9.3713 H   0  0  0  0  0  0  0  0  0  0  0  0
    2.5510   -2.5982   -8.2651 H   0  0  0  0  0  0  0  0  0  0  0  0
    6.2869   -1.6455   -7.1810 H   0  0  0  0  0  0  0  0  0  0  0  0
    7.5524   -3.4055   -8.4460 H   0  0  0  0  0  0  0  0  0  0  0  0
    8.7207   -7.8863   -8.3948 H   0  0  0  0  0  0  0  0  0  0  0  0
    7.9080   -7.3548   -6.8864 H   0  0  0  0  0  0  0  0  0  0  0  0
    9.8154   -5.5599   -8.5073 H   0  0  0  0  0  0  0  0  0  0  0  0
   10.2409   -6.5183   -7.0045 H   0  0  0  0  0  0  0  0  0  0  0  0
    9.0401   -5.1778   -6.9313 H   0  0  0  0  0  0  0  0  0  0  0  0
    3.4204   -4.5450   -6.0681 H   0  0  0  0  0  0  0  0  0  0  0  0
    0.2239   -0.6562   -3.5503 H   0  0  0  0  0  0  0  0  0  0  0  0
   -1.4936    0.8247   -2.5345 H   0  0  0  0  0  0  0  0  0  0  0  0
   -0.7768    3.5046    0.3540 H   0  0  0  0  0  0  0  0  0  0  0  0
   -2.1327    2.4108    0.0763 H   0  0  0  0  0  0  0  0  0  0  0  0
   -3.1902    5.0035   -0.5952 H   0  0  0  0  0  0  0  0  0  0  0  0
   -3.6423    3.9016    0.7240 H   0  0  0  0  0  0  0  0  0  0  0  0
   -2.3632    5.1243    0.9752 H   0  0  0  0  0  0  0  0  0  0  0  0
    2.8701    2.6383   -3.8268 H   0  0  0  0  0  0  0  0  0  0  0  0
    3.7590    0.5316   -1.9870 H   0  0  0  0  0  0  0  0  0  0  0  0
    7.9490   -0.3900   -0.8529 H   0  0  0  0  0  0  0  0  0  0  0  0
    9.7721   -1.3642    1.7232 H   0  0  0  0  0  0  0  0  0  0  0  0
   12.0456   -1.4103    0.7597 H   0  0  0  0  0  0  0  0  0  0  0  0
   13.4697    2.5750   -1.9293 H   0  0  0  0  0  0  0  0  0  0  0  0
   15.1316    1.9452   -1.8041 H   0  0  0  0  0  0  0  0  0  0  0  0
   15.5549    3.1213    0.0929 H   0  0  0  0  0  0  0  0  0  0  0  0
   14.0756    4.1053   -0.3335 H   0  0  0  0  0  0  0  0  0  0  0  0
   14.0157    2.7932    0.8927 H   0  0  0  0  0  0  0  0  0  0  0  0
    9.3531    2.7298    0.6796 H   0  0  0  0  0  0  0  0  0  0  0  0
    3.1512    2.0667    2.4467 H   0  0  0  0  0  0  0  0  0  0  0  0
    1.0631    1.6817    3.7772 H   0  0  0  0  0  0  0  0  0  0  0  0
   -1.3428   -1.7773    6.1076 H   0  0  0  0  0  0  0  0  0  0  0  0
    0.0980   -2.5161    5.3725 H   0  0  0  0  0  0  0  0  0  0  0  0
   -1.0594   -0.1605    3.9406 H   0  0  0  0  0  0  0  0  0  0  0  0
   -0.5902   -1.7417    3.2456 H   0  0  0  0  0  0  0  0  0  0  0  0
   -2.1705   -1.6111    4.0215 H   0  0  0  0  0  0  0  0  0  0  0  0
    5.0651   -0.9115    4.7837 H   0  0  0  0  0  0  0  0  0  0  0  0
    5.6283    1.9358    5.4634 H   0  0  0  0  0  0  0  0  0  0  0  0
    5.8900    4.0272    6.3602 H   0  0  0  0  0  0  0  0  0  0  0  0
    3.9460    7.4173    9.4832 H   0  0  0  0  0  0  0  0  0  0  0  0
    2.0058    7.9703    8.0940 H   0  0  0  0  0  0  0  0  0  0  0  0
    1.8591    4.6742    4.1689 H   0  0  0  0  0  0  0  0  0  0  0  0
    0.8746    5.7963    3.1299 H   0  0  0  0  0  0  0  0  0  0  0  0
    3.2291    7.2194    3.3931 H   0  0  0  0  0  0  0  0  0  0  0  0
    3.8270    5.4646    3.3324 H   0  0  0  0  0  0  0  0  0  0  0  0
    2.8009    6.0960    2.0148 H   0  0  0  0  0  0  0  0  0  0  0  0
    9.4745    4.9979   12.8043 H   0  0  0  0  0  0  0  0  0  0  0  0
   11.7269    4.1646   13.3308 H   0  0  0  0  0  0  0  0  0  0  0  0
   16.0490    3.8951   11.2873 H   0  0  0  0  0  0  0  0  0  0  0  0
   14.9039    5.0766   12.0075 H   0  0  0  0  0  0  0  0  0  0  0  0
   13.9226    5.1575    9.5186 H   0  0  0  0  0  0  0  0  0  0  0  0
   15.3510    6.0824   10.0402 H   0  0  0  0  0  0  0  0  0  0  0  0
   15.6278    4.5833    9.1234 H   0  0  0  0  0  0  0  0  0  0  0  0
    8.6972    6.8747   12.2980 H   0  0  0  0  0  0  0  0  0  0  0  0
    6.8555    8.5185   12.8412 H   0  0  0  0  0  0  0  0  0  0  0  0
  1  2  2  0
  2  3  1  0
  3  4  2  0
  4  5  1  0
  5  6  2  0
  6  7  1  0
  7  8  2  0
  8  9  1  0
  9 10  1  0
 10 11  1  0
  8 12  1  0
 12 13  1  0
 12 14  2  0
  4 15  1  0
 15 16  2  0
 16 17  1  0
 17 18  1  0
 18 19  2  0
 19 20  1  0
 20 21  2  0
 21 22  1  0
 22 23  1  0
 23 24  1  0
 21 25  1  0
 25 26  2  0
 25 27  1  0
 17 28  2  0
 28 29  1  0
 16 30  1  0
 30 31  2  0
 31 32  1  0
 31 33  1  0
 33 34  2  0
 34 35  1  0
 35 36  2  0
 36 37  1  0
 37 38  2  0
 38 39  1  0
 39 40  2  0
 40 41  1  0
 41 42  1  0
 42 43  1  0
 40 44  1  0
 36 45  1  0
 45 46  2  0
 46 47  1  0
 47 48  1  0
 48 49  2  0
 49 50  1  0
 50 51  2  0
 51 52  1  0
 52 53  1  0
 53 54  1  0
 51 55  1  0
 47 56  2  0
 56 57  1  0
 46 58  1  0
 58 59  2  0
 59 60  1  0
 59 61  1  0
 61 62  2  0
 62 63  1  0
 63 64  2  0
 64 65  1  0
 65 66  2  0
 66 67  1  0
 67 68  2  0
 68 69  1  0
 69 70  1  0
 70 71  1  0
 68 72  1  0
 64 73  1  0
 73 74  2  0
 74 75  1  0
 75 76  1  0
 76 77  2  0
 77 78  1  0
 78 79  2  0
 79 80  1  0
 80 81  1  0
 81 82  1  0
 79 83  1  0
 75 84  2  0
 84 85  1  0
 74 86  1  0
 86 87  2  0
 87 88  1  0
 87 89  1  0
 89 90  2  0
 90 91  1  0
 91 92  2  0
 92 93  1  0
 93 94  2  0
 94 95  1  0
 95 96  2  0
 96 97  1  0
 97 98  1  0
 98 99  1  0
 96100  1  0
100101  1  0
100102  2  0
 92103  1  0
103104  2  0
104105  1  0
105106  1  0
106107  2  0
107108  1  0
108109  2  0
109110  1  0
110111  1  0
111112  1  0
109113  1  0
113114  2  0
113115  1  0
105116  2  0
116117  1  0
104118  1  0
118119  2  0
119120  1  0
119121  1  0
121122  2  0
122123  1  0
123124  2  0
124125  1  0
125126  2  0
126127  1  0
127128  2  0
128129  1  0
129130  1  0
130131  1  0
128132  1  0
132133  1  0
132134  2  0
124135  1  0
135136  2  0
136137  1  0
137138  1  0
138139  2  0
139140  1  0
140141  2  0
141142  1  0
142143  1  0
143144  1  0
141145  1  0
145146  2  0
145147  1  0
137148  2  0
148149  1  0
136150  1  0
150151  2  0
151152  1  0
151153  1  0
153154  2  0
154155  1  0
155156  2  0
156157  1  0
157158  2  0
158159  1  0
159160  2  0
160161  1  0
161162  1  0
162163  1  0
160164  1  0
156165  1  0
165166  2  0
166167  1  0
167168  1  0
168169  2  0
169170  1  0
170171  2  0
171172  1  0
172173  1  0
173174  1  0
171175  1  0
167176  2  0
176177  1  0
166178  1  0
178179  2  0
179180  1  0
 29  1  1  0
 57 33  1  0
 85 61  1  0
117 89  1  0
149121  1  0
177153  1  0
 28  3  1  0
 56 35  1  0
 84 63  1  0
116 91  1  0
148123  1  0
176155  1  0
 14  5  1  0
 32 15  1  0
 44 37  1  0
 60 45  1  0
 72 65  1  0
 88 73  1  0
102 93  1  0
120103  1  0
134125  1  0
152135  1  0
164157  1  0
180165  1  0
 26 18  1  0
 55 48  1  0
 83 76  1  0
114106  1  0
146138  1  0
175168  1  0
  1181  1  0
  2182  1  0
  6183  1  0
  7184  1  0
 10185  1  0
 10186  1  0
 11187  1  0
 11188  1  0
 11189  1  0
 14190  1  0
 19191  1  0
 20192  1  0
 23193  1  0
 23194  1  0
 24195  1  0
 24196  1  0
 24197  1  0
 26198  1  0
 30199  1  0
 34200  1  0
 38201  1  0
 39202  1  0
 42203  1  0
 42204  1  0
 43205  1  0
 43206  1  0
 43207  1  0
 49208  1  0
 50209  1  0
 53210  1  0
 53211  1  0
 54212  1  0
 54213  1  0
 54214  1  0
 58215  1  0
 62216  1  0
 66217  1  0
 67218  1  0
 70219  1  0
 70220  1  0
 71221  1  0
 71222  1  0
 71223  1  0
 77224  1  0
 78225  1  0
 81226  1  0
 81227  1  0
 82228  1  0
 82229  1  0
 82230  1  0
 86231  1  0
 90232  1  0
 94233  1  0
 95234  1  0
 98235  1  0
 98236  1  0
 99237  1  0
 99238  1  0
 99239  1  0
102240  1  0
107241  1  0
108242  1  0
111243  1  0
111244  1  0
112245  1  0
112246  1  0
112247  1  0
114248  1  0
118249  1  0
122250  1  0
126251  1  0
127252  1  0
130253  1  0
130254  1  0
131255  1  0
131256  1  0
131257  1  0
134258  1  0
139259  1  0
140260  1  0
143261  1  0
143262  1  0
144263  1  0
144264  1  0
144265  1  0
146266  1  0
150267  1  0
154268  1  0
158269  1  0
159270  1  0
162271  1  0
162272  1  0
163273  1  0
163274  1  0
163275  1  0
169276  1  0
170277  1  0
173278  1  0
173279  1  0
174280  1  0
174281  1  0
174282  1  0
178283  1  0
179284  1  0
M  END

