
     RDKit          3D

179199  0  0  0  0  0  0  0  0999 V2000
   10.4828   -6.9829    9.5017 C   0  0  0  0  0  0  0  0  0  0  0  0
    8.7757   -7.1324    9.7130 S   0  0  0  0  0  0  0  0  0  0  0  0
    8.2653   -5.6928    9.0456 C   0  0  0  0  0  0  0  0  0  0  0  0
    9.4854   -5.0359    8.6298 C   0  0  0  0  0  0  0  0  0  0  0  0
   10.5636   -5.7439    8.8902 C   0  0  0  0  0  0  0  0  0  0  0  0
   11.8542   -4.6885    8.3990 S   0  0  0  0  0  0  0  0  0  0  0  0
   10.9792   -3.3608    7.8654 C   0  0  0  0  0  0  0  0  0  0  0  0
   11.3031   -2.1145    7.3345 C   0  0  0  0  0  0  0  0  0  0  0  0
   11.5991   -0.9456    6.8605 N   0  0  0  0  0  0  0  0  0  0  0  0
    9.5988   -3.7932    8.0881 C   0  0  0  0  0  0  0  0  0  0  0  0
    6.8861   -5.1266    9.0021 C   0  0  0  0  0  0  0  0  0  0  0  0
    6.6434   -4.5333    7.8784 C   0  0  0  0  0  0  0  0  0  0  0  0
    5.3194   -3.8804    7.6509 C   0  0  0  0  0  0  0  0  0  0  0  0
    4.9018   -2.8222    6.9252 C   0  0  0  0  0  0  0  0  0  0  0  0
    3.5806   -2.7433    6.5738 C   0  0  0  0  0  0  0  0  0  0  0  0
    2.9612   -1.8407    5.7407 C   0  0  0  0  0  0  0  0  0  0  0  0
    3.5942   -0.7479    4.9830 C   0  0  0  0  0  0  0  0  0  0  0  0
    4.8145   -0.3045    4.7034 C   0  0  0  0  0  0  0  0  0  0  0  0
    5.0546    0.7707    3.9210 C   0  0  0  0  0  0  0  0  0  0  0  0
    4.1338    1.5065    3.3390 C   0  0  0  0  0  0  0  0  0  0  0  0
    3.9211    2.8523    2.2342 S   0  0  0  0  0  0  0  0  0  0  0  0
    3.8147    2.3035    0.4862 C   0  0  0  0  0  0  0  0  0  0  0  0
    2.5733    1.4779    0.2443 C   0  0  0  0  0  0  0  0  0  0  0  0
    2.5505    0.4884    4.0371 Se  0  0  0  0  0  2  0  0  0  0  0  0
    1.6104   -2.0546    5.4135 C   0  0  0  0  0  0  0  0  0  0  0  0
    0.8226   -3.0951    5.8299 C   0  0  0  0  0  0  0  0  0  0  0  0
    1.4361   -3.9891    6.6695 C   0  0  0  0  0  0  0  0  0  0  0  0
    0.9193   -5.3162    6.9939 C   0  0  0  0  0  0  0  0  0  0  0  0
    0.0539   -6.1718    6.5171 C   0  0  0  0  0  0  0  0  0  0  0  0
   -0.1752   -7.3942    7.0461 C   0  0  0  0  0  0  0  0  0  0  0  0
    0.5095   -7.8305    8.1282 C   0  0  0  0  0  0  0  0  0  0  0  0
    0.6489   -9.3483    9.0305 S   0  0  0  0  0  0  0  0  0  0  0  0
    0.5246  -10.6731    7.8341 C   0  0  0  0  0  0  0  0  0  0  0  0
   -0.8083  -10.8855    7.2251 C   0  0  0  0  0  0  0  0  0  0  0  0
    1.6203   -6.3214    8.4685 Se  0  0  0  0  0  2  0  0  0  0  0  0
    2.8001   -3.7759    7.0210 C   0  0  0  0  0  0  0  0  0  0  0  0
    3.8411   -4.7738    7.8716 S   0  0  0  0  0  0  0  0  0  0  0  0
   -0.4422   -3.1715    5.2390 C   0  0  0  0  0  0  0  0  0  0  0  0
   -0.7669   -2.2726    4.3461 C   0  0  0  0  0  0  0  0  0  0  0  0
    0.6508   -1.2548    4.3005 S   0  0  0  0  0  0  0  0  0  0  0  0
   -1.6510   -2.1323    3.1214 C   0  0  0  0  0  0  0  0  0  0  0  0
   -1.6791   -3.0768    2.1182 C   0  0  0  0  0  0  0  0  0  0  0  0
   -1.9344   -2.6083    0.8407 C   0  0  0  0  0  0  0  0  0  0  0  0
   -1.5124   -3.2760   -0.3531 C   0  0  0  0  0  0  0  0  0  0  0  0
   -1.4697   -4.7144   -0.4476 C   0  0  0  0  0  0  0  0  0  0  0  0
   -0.9942   -5.6591   -1.2725 C   0  0  0  0  0  0  0  0  0  0  0  0
   -1.2711   -6.9460   -1.1317 C   0  0  0  0  0  0  0  0  0  0  0  0
   -2.0327   -7.4912   -0.2068 C   0  0  0  0  0  0  0  0  0  0  0  0
   -2.6036   -9.0903    0.2703 S   0  0  0  0  0  0  0  0  0  0  0  0
   -4.1226   -9.5049   -0.6421 C   0  0  0  0  0  0  0  0  0  0  0  0
   -5.2938   -8.6144   -0.2814 C   0  0  0  0  0  0  0  0  0  0  0  0
   -2.5146   -5.8312    0.7729 Se  0  0  0  0  0  2  0  0  0  0  0  0
   -1.3218   -2.5404   -1.5030 C   0  0  0  0  0  0  0  0  0  0  0  0
   -1.5181   -1.1921   -1.6561 C   0  0  0  0  0  0  0  0  0  0  0  0
   -1.9758   -0.5333   -0.4987 C   0  0  0  0  0  0  0  0  0  0  0  0
   -2.3297    0.8478   -0.3757 C   0  0  0  0  0  0  0  0  0  0  0  0
   -2.2352    2.0018   -1.0186 C   0  0  0  0  0  0  0  0  0  0  0  0
   -2.8208    3.1343   -0.6494 C   0  0  0  0  0  0  0  0  0  0  0  0
   -3.5932    3.2521    0.4401 C   0  0  0  0  0  0  0  0  0  0  0  0
   -4.5168    4.5414    1.2004 S   0  0  0  0  0  0  0  0  0  0  0  0
   -5.3767    4.0113    2.6817 C   0  0  0  0  0  0  0  0  0  0  0  0
   -4.3886    3.7026    3.7670 C   0  0  0  0  0  0  0  0  0  0  0  0
   -3.4818    1.4167    1.0872 Se  0  0  0  0  0  2  0  0  0  0  0  0
   -2.1415   -1.3101    0.6913 C   0  0  0  0  0  0  0  0  0  0  0  0
   -2.0042   -0.6824    2.3269 S   0  0  0  0  0  0  0  0  0  0  0  0
   -0.9403   -0.6300   -2.7558 C   0  0  0  0  0  0  0  0  0  0  0  0
   -0.2198   -1.4453   -3.5841 C   0  0  0  0  0  0  0  0  0  0  0  0
   -0.3553   -2.9702   -2.8929 S   0  0  0  0  0  0  0  0  0  0  0  0
    0.8385   -0.9464   -4.5514 C   0  0  0  0  0  0  0  0  0  0  0  0
    1.3656    0.6504   -4.7515 S   0  0  0  0  0  0  0  0  0  0  0  0
    2.8312    0.3595   -5.5658 C   0  0  0  0  0  0  0  0  0  0  0  0
    2.8762   -1.0413   -5.6864 C   0  0  0  0  0  0  0  0  0  0  0  0
    1.8216   -1.6824   -5.1525 C   0  0  0  0  0  0  0  0  0  0  0  0
    2.1845   -3.3567   -5.4219 S   0  0  0  0  0  0  0  0  0  0  0  0
    3.6817   -3.2085   -6.2022 C   0  0  0  0  0  0  0  0  0  0  0  0
    4.5723   -4.2314   -6.7158 C   0  0  0  0  0  0  0  0  0  0  0  0
    5.2785   -5.0582   -7.1400 N   0  0  0  0  0  0  0  0  0  0  0  0
    3.8663   -1.8491   -6.2377 C   0  0  0  0  0  0  0  0  0  0  0  0
    3.8126    1.4154   -5.8837 C   0  0  0  0  0  0  0  0  0  0  0  0
    3.5903    2.6898   -5.7973 C   0  0  0  0  0  0  0  0  0  0  0  0
    2.2884    3.2718   -5.3943 C   0  0  0  0  0  0  0  0  0  0  0  0
    1.1333    3.0506   -6.1747 C   0  0  0  0  0  0  0  0  0  0  0  0
   -0.0174    3.5247   -5.7097 C   0  0  0  0  0  0  0  0  0  0  0  0
   -1.2826    3.3673   -6.2990 C   0  0  0  0  0  0  0  0  0  0  0  0
   -1.4663    2.8151   -7.6398 C   0  0  0  0  0  0  0  0  0  0  0  0
   -2.5245    2.8182   -8.4751 C   0  0  0  0  0  0  0  0  0  0  0  0
   -2.4586    2.2598   -9.6858 C   0  0  0  0  0  0  0  0  0  0  0  0
   -1.4009    1.6638  -10.1930 C   0  0  0  0  0  0  0  0  0  0  0  0
   -0.8797    0.9202  -11.7037 S   0  0  0  0  0  0  0  0  0  0  0  0
   -1.5074   -0.7568  -11.9035 C   0  0  0  0  0  0  0  0  0  0  0  0
   -0.9659   -1.7149  -10.8677 C   0  0  0  0  0  0  0  0  0  0  0  0
   -0.1534    1.9025   -8.6573 Se  0  0  0  0  0  2  0  0  0  0  0  0
   -2.3969    3.8585   -5.6466 C   0  0  0  0  0  0  0  0  0  0  0  0
   -2.3771    4.5169   -4.4418 C   0  0  0  0  0  0  0  0  0  0  0  0
   -1.1003    4.6852   -3.8801 C   0  0  0  0  0  0  0  0  0  0  0  0
   -0.8683    5.5395   -2.7320 C   0  0  0  0  0  0  0  0  0  0  0  0
    0.0947    5.7780   -1.8545 C   0  0  0  0  0  0  0  0  0  0  0  0
    0.0609    6.7831   -0.9753 C   0  0  0  0  0  0  0  0  0  0  0  0
   -0.9370    7.6650   -0.8785 C   0  0  0  0  0  0  0  0  0  0  0  0
   -1.3507    9.0925    0.0878 S   0  0  0  0  0  0  0  0  0  0  0  0
   -0.8851   10.6117   -0.7445 C   0  0  0  0  0  0  0  0  0  0  0  0
    0.6215   10.8107   -0.8710 C   0  0  0  0  0  0  0  0  0  0  0  0
   -2.1057    6.9850   -2.2928 Se  0  0  0  0  0  2  0  0  0  0  0  0
   -0.0082    4.1799   -4.5269 C   0  0  0  0  0  0  0  0  0  0  0  0
    1.6754    4.1224   -4.0855 S   0  0  0  0  0  0  0  0  0  0  0  0
   -3.5678    4.8086   -3.8918 C   0  0  0  0  0  0  0  0  0  0  0  0
   -4.6903    4.4344   -4.5706 C   0  0  0  0  0  0  0  0  0  0  0  0
   -4.0594    3.6880   -5.9566 S   0  0  0  0  0  0  0  0  0  0  0  0
   -6.0880    4.4970   -4.0667 C   0  0  0  0  0  0  0  0  0  0  0  0
   -6.6437    4.7824   -2.5014 S   0  0  0  0  0  0  0  0  0  0  0  0
   -8.3034    4.6202   -2.7577 C   0  0  0  0  0  0  0  0  0  0  0  0
   -8.4011    4.3297   -4.1432 C   0  0  0  0  0  0  0  0  0  0  0  0
   -7.2404    4.2750   -4.7950 C   0  0  0  0  0  0  0  0  0  0  0  0
   -7.6782    3.9343   -6.4422 S   0  0  0  0  0  0  0  0  0  0  0  0
   -9.3571    3.8700   -6.2677 C   0  0  0  0  0  0  0  0  0  0  0  0
  -10.4499    3.6923   -7.1878 C   0  0  0  0  0  0  0  0  0  0  0  0
  -11.3625    3.5259   -7.9504 N   0  0  0  0  0  0  0  0  0  0  0  0
   -9.5159    4.1179   -4.9068 C   0  0  0  0  0  0  0  0  0  0  0  0
   -9.2989    4.7232   -1.7021 C   0  0  0  0  0  0  0  0  0  0  0  0
  -10.5121    5.1723   -1.9037 C   0  0  0  0  0  0  0  0  0  0  0  0
   11.2415   -7.7096    9.7663 H   0  0  0  0  0  0  0  0  0  0  0  0
    8.8895   -3.0486    7.8013 H   0  0  0  0  0  0  0  0  0  0  0  0
    6.2536   -5.1741    9.8035 H   0  0  0  0  0  0  0  0  0  0  0  0
    7.3141   -4.4344    7.0214 H   0  0  0  0  0  0  0  0  0  0  0  0
    5.6751   -2.0628    6.6885 H   0  0  0  0  0  0  0  0  0  0  0  0
    5.7031   -0.8627    5.1246 H   0  0  0  0  0  0  0  0  0  0  0  0
    6.1318    1.0890    3.7135 H   0  0  0  0  0  0  0  0  0  0  0  0
    3.7073    3.2100   -0.1254 H   0  0  0  0  0  0  0  0  0  0  0  0
    4.7378    1.8244    0.1389 H   0  0  0  0  0  0  0  0  0  0  0  0
    1.7426    2.0890   -0.1335 H   0  0  0  0  0  0  0  0  0  0  0  0
    2.8264    0.7748   -0.6206 H   0  0  0  0  0  0  0  0  0  0  0  0
    2.2727    0.8764    1.1176 H   0  0  0  0  0  0  0  0  0  0  0  0
   -0.5291   -5.8918    5.5543 H   0  0  0  0  0  0  0  0  0  0  0  0
   -0.9452   -8.0932    6.5923 H   0  0  0  0  0  0  0  0  0  0  0  0
    0.9093  -11.6057    8.2943 H   0  0  0  0  0  0  0  0  0  0  0  0
    1.2525  -10.4941    6.9748 H   0  0  0  0  0  0  0  0  0  0  0  0
   -1.2047  -11.8895    7.5835 H   0  0  0  0  0  0  0  0  0  0  0  0
   -0.7579  -11.0055    6.1055 H   0  0  0  0  0  0  0  0  0  0  0  0
   -1.5104  -10.1257    7.5784 H   0  0  0  0  0  0  0  0  0  0  0  0
   -1.1745   -3.9533    5.5435 H   0  0  0  0  0  0  0  0  0  0  0  0
   -1.5343   -4.1138    2.3674 H   0  0  0  0  0  0  0  0  0  0  0  0
   -0.3225   -5.2809   -2.1111 H   0  0  0  0  0  0  0  0  0  0  0  0
   -0.8185   -7.7044   -1.8774 H   0  0  0  0  0  0  0  0  0  0  0  0
   -3.9353   -9.3762   -1.7607 H   0  0  0  0  0  0  0  0  0  0  0  0
   -4.3957  -10.5442   -0.5122 H   0  0  0  0  0  0  0  0  0  0  0  0
   -6.1409   -8.8267   -0.9812 H   0  0  0  0  0  0  0  0  0  0  0  0
   -4.9710   -7.5578   -0.4294 H   0  0  0  0  0  0  0  0  0  0  0  0
   -5.7331   -8.8269    0.7117 H   0  0  0  0  0  0  0  0  0  0  0  0
   -1.5919    2.0302   -1.9530 H   0  0  0  0  0  0  0  0  0  0  0  0
   -2.7078    4.1098   -1.2402 H   0  0  0  0  0  0  0  0  0  0  0  0
   -5.9663    3.0910    2.3676 H   0  0  0  0  0  0  0  0  0  0  0  0
   -6.0593    4.8737    2.9633 H   0  0  0  0  0  0  0  0  0  0  0  0
   -4.3785    2.6029    3.8817 H   0  0  0  0  0  0  0  0  0  0  0  0
   -4.7280    4.1506    4.7449 H   0  0  0  0  0  0  0  0  0  0  0  0
   -3.3722    4.0139    3.5800 H   0  0  0  0  0  0  0  0  0  0  0  0
   -1.0369    0.4129   -3.0095 H   0  0  0  0  0  0  0  0  0  0  0  0
    4.8256   -1.5038   -6.7040 H   0  0  0  0  0  0  0  0  0  0  0  0
    4.7828    1.0861   -6.2134 H   0  0  0  0  0  0  0  0  0  0  0  0
    4.3692    3.3862   -6.0058 H   0  0  0  0  0  0  0  0  0  0  0  0
    1.3254    2.5114   -7.1258 H   0  0  0  0  0  0  0  0  0  0  0  0
   -3.4689    3.3210   -8.1257 H   0  0  0  0  0  0  0  0  0  0  0  0
   -3.3823    2.3000  -10.3754 H   0  0  0  0  0  0  0  0  0  0  0  0
   -1.0946   -1.1236  -12.8923 H   0  0  0  0  0  0  0  0  0  0  0  0
   -2.6118   -0.6921  -11.8943 H   0  0  0  0  0  0  0  0  0  0  0  0
    0.0936   -1.9168  -11.0756 H   0  0  0  0  0  0  0  0  0  0  0  0
   -1.5568   -2.6661  -10.9623 H   0  0  0  0  0  0  0  0  0  0  0  0
   -1.0157   -1.2882   -9.8430 H   0  0  0  0  0  0  0  0  0  0  0  0
    0.9877    5.0460   -1.8492 H   0  0  0  0  0  0  0  0  0  0  0  0
    0.9416    6.9457   -0.2220 H   0  0  0  0  0  0  0  0  0  0  0  0
   -1.3076   10.6216   -1.7865 H   0  0  0  0  0  0  0  0  0  0  0  0
   -1.3958   11.4449   -0.2321 H   0  0  0  0  0  0  0  0  0  0  0  0
    0.7920   11.8858   -1.1801 H   0  0  0  0  0  0  0  0  0  0  0  0
    1.0591   10.6715    0.1381 H   0  0  0  0  0  0  0  0  0  0  0  0
    1.0617   10.1252   -1.5754 H   0  0  0  0  0  0  0  0  0  0  0  0
   -3.7250    5.3315   -2.9260 H   0  0  0  0  0  0  0  0  0  0  0  0
  -10.5575    4.0868   -4.5305 H   0  0  0  0  0  0  0  0  0  0  0  0
   -9.0695    4.4056   -0.6884 H   0  0  0  0  0  0  0  0  0  0  0  0
  -10.8559    5.4964   -2.8459 H   0  0  0  0  0  0  0  0  0  0  0  0
  -11.2222    5.2245   -1.0829 H   0  0  0  0  0  0  0  0  0  0  0  0
  1  2  1  0
  2  3  1  0
  3  4  2  0
  4  5  1  0
  5  6  1  0
  6  7  1  0
  7  8  1  0
  8  9  3  0
  7 10  2  0
  3 11  1  0
 11 12  2  3
 12 13  1  0
 13 14  2  0
 14 15  1  0
 15 16  2  0
 16 17  1  0
 17 18  2  0
 18 19  1  0
 19 20  2  0
 20 21  1  0
 21 22  1  0
 22 23  1  0
 20 24  1  0
 16 25  1  0
 25 26  2  0
 26 27  1  0
 27 28  1  0
 28 29  2  0
 29 30  1  0
 30 31  2  0
 31 32  1  0
 32 33  1  0
 33 34  1  0
 31 35  1  0
 27 36  2  0
 36 37  1  0
 26 38  1  0
 38 39  2  0
 39 40  1  0
 39 41  1  0
 41 42  2  0
 42 43  1  0
 43 44  2  0
 44 45  1  0
 45 46  2  0
 46 47  1  0
 47 48  2  0
 48 49  1  0
 49 50  1  0
 50 51  1  0
 48 52  1  0
 44 53  1  0
 53 54  2  0
 54 55  1  0
 55 56  1  0
 56 57  2  0
 57 58  1  0
 58 59  2  0
 59 60  1  0
 60 61  1  0
 61 62  1  0
 59 63  1  0
 55 64  2  0
 64 65  1  0
 54 66  1  0
 66 67  2  0
 67 68  1  0
 67 69  1  0
 69 70  1  0
 70 71  1  0
 71 72  2  0
 72 73  1  0
 73 74  1  0
 74 75  1  0
 75 76  1  0
 76 77  3  0
 75 78  2  0
 71 79  1  0
 79 80  2  3
 80 81  1  0
 81 82  2  0
 82 83  1  0
 83 84  2  0
 84 85  1  0
 85 86  2  0
 86 87  1  0
 87 88  2  0
 88 89  1  0
 89 90  1  0
 90 91  1  0
 88 92  1  0
 84 93  1  0
 93 94  2  0
 94 95  1  0
 95 96  1  0
 96 97  2  0
 97 98  1  0
 98 99  2  0
 99100  1  0
100101  1  0
101102  1  0
 99103  1  0
 95104  2  0
104105  1  0
 94106  1  0
106107  2  0
107108  1  0
107109  1  0
109110  1  0
110111  1  0
111112  2  0
112113  1  0
113114  1  0
114115  1  0
115116  1  0
116117  3  0
115118  2  0
111119  1  0
119120  2  3
  5  1  2  0
 37 13  1  0
 65 41  1  0
 73 69  2  0
105 81  1  0
113109  2  0
 10  4  1  0
 36 15  1  0
 64 43  1  0
 78 72  1  0
104 83  1  0
118112  1  0
 24 17  1  0
 40 25  1  0
 52 45  1  0
 68 53  1  0
 92 85  1  0
108 93  1  0
 35 28  1  0
 63 56  1  0
103 96  1  0
  1121  1  0
 10122  1  0
 11123  1  0
 12124  1  0
 14125  1  0
 18126  1  0
 19127  1  0
 22128  1  0
 22129  1  0
 23130  1  0
 23131  1  0
 23132  1  0
 29133  1  0
 30134  1  0
 33135  1  0
 33136  1  0
 34137  1  0
 34138  1  0
 34139  1  0
 38140  1  0
 42141  1  0
 46142  1  0
 47143  1  0
 50144  1  0
 50145  1  0
 51146  1  0
 51147  1  0
 51148  1  0
 57149  1  0
 58150  1  0
 61151  1  0
 61152  1  0
 62153  1  0
 62154  1  0
 62155  1  0
 66156  1  0
 78157  1  0
 79158  1  0
 80159  1  0
 82160  1  0
 86161  1  0
 87162  1  0
 90163  1  0
 90164  1  0
 91165  1  0
 91166  1  0
 91167  1  0
 97168  1  0
 98169  1  0
101170  1  0
101171  1  0
102172  1  0
102173  1  0
102174  1  0
106175  1  0
118176  1  0
119177  1  0
120178  1  0
120179  1  0
M  END

