
     RDKit          3D

121135  0  0  0  0  0  0  0  0999 V2000
    5.6524   -6.5987    9.3194 C   0  0  0  0  0  0  0  0  0  0  0  0
    4.0931   -6.2382    8.7216 S   0  0  0  0  0  0  0  0  0  0  0  0
    4.5185   -5.1429    7.5041 C   0  0  0  0  0  0  0  0  0  0  0  0
    5.8863   -5.0689    7.5818 C   0  0  0  0  0  0  0  0  0  0  0  0
    6.4659   -5.8358    8.5307 C   0  0  0  0  0  0  0  0  0  0  0  0
    7.9836   -5.8130    8.5850 C   0  0  0  0  0  0  0  0  0  0  0  0
    8.4519   -4.3918    8.6315 C   0  0  0  0  0  0  0  0  0  0  0  0
    9.3233   -3.9491    9.3965 O   0  0  0  0  0  0  0  0  0  0  0  0
    7.7685   -3.5101    7.6511 C   0  0  0  0  0  0  0  0  0  0  0  0
    7.9867   -2.2789    7.6169 O   0  0  0  0  0  0  0  0  0  0  0  0
    6.8280   -4.2243    6.7391 C   0  0  0  0  0  0  0  0  0  0  0  0
    3.7077   -4.4107    6.5003 C   0  0  0  0  0  0  0  0  0  0  0  0
    2.3769   -4.5206    6.2448 C   0  0  0  0  0  0  0  0  0  0  0  0
    1.8376   -3.7811    5.2376 C   0  0  0  0  0  0  0  0  0  0  0  0
    0.5378   -3.6962    4.7937 C   0  0  0  0  0  0  0  0  0  0  0  0
   -0.5695   -4.5433    5.2616 C   0  0  0  0  0  0  0  0  0  0  0  0
   -0.6895   -5.6985    5.9054 C   0  0  0  0  0  0  0  0  0  0  0  0
   -1.8612   -6.1998    6.3115 C   0  0  0  0  0  0  0  0  0  0  0  0
   -3.0351   -5.5800    6.1024 C   0  0  0  0  0  0  0  0  0  0  0  0
   -4.7100   -5.9075    6.4923 S   0  0  0  0  0  0  0  0  0  0  0  0
   -5.6480   -6.7958    5.2629 C   0  0  0  0  0  0  0  0  0  0  0  0
   -5.1978   -8.1993    4.9972 C   0  0  0  0  0  0  0  0  0  0  0  0
   -2.3788   -3.9848    5.1526 Se  0  0  0  0  0  2  0  0  0  0  0  0
    0.2069   -2.8396    3.7468 C   0  0  0  0  0  0  0  0  0  0  0  0
    1.0904   -2.0307    3.0784 C   0  0  0  0  0  0  0  0  0  0  0  0
    2.3950   -2.1143    3.5230 C   0  0  0  0  0  0  0  0  0  0  0  0
    3.4682   -1.2736    3.0500 C   0  0  0  0  0  0  0  0  0  0  0  0
    4.8069   -1.2917    3.0669 C   0  0  0  0  0  0  0  0  0  0  0  0
    5.5628   -0.2670    2.6718 C   0  0  0  0  0  0  0  0  0  0  0  0
    5.1128    0.8842    2.2183 C   0  0  0  0  0  0  0  0  0  0  0  0
    5.7786    2.4053    1.6070 S   0  0  0  0  0  0  0  0  0  0  0  0
    4.3922    3.5966    1.4492 C   0  0  0  0  0  0  0  0  0  0  0  0
    3.9484    3.8505    2.9005 C   0  0  0  0  0  0  0  0  0  0  0  0
    3.1660    0.5518    2.3308 Se  0  0  0  0  0  2  0  0  0  0  0  0
    2.7388   -2.9739    4.5738 C   0  0  0  0  0  0  0  0  0  0  0  0
    4.2119   -3.2844    5.3543 S   0  0  0  0  0  0  0  0  0  0  0  0
    0.6008   -1.3121    2.0575 C   0  0  0  0  0  0  0  0  0  0  0  0
   -0.7299   -1.4209    1.7416 C   0  0  0  0  0  0  0  0  0  0  0  0
   -1.2652   -2.5264    2.8857 S   0  0  0  0  0  0  0  0  0  0  0  0
   -1.3989   -0.6831    0.6442 C   0  0  0  0  0  0  0  0  0  0  0  0
   -2.7360   -1.0838   -0.3353 S   0  0  0  0  0  0  0  0  0  0  0  0
   -2.7481    0.2646   -1.3774 C   0  0  0  0  0  0  0  0  0  0  0  0
   -1.6870    1.0054   -0.8981 C   0  0  0  0  0  0  0  0  0  0  0  0
   -1.0049    0.5300    0.1239 C   0  0  0  0  0  0  0  0  0  0  0  0
    0.1122    1.3798    0.7248 C   0  0  0  0  0  0  0  0  0  0  0  0
   -0.2555    2.8255    0.7351 C   0  0  0  0  0  0  0  0  0  0  0  0
    0.0930    3.5751    1.7137 O   0  0  0  0  0  0  0  0  0  0  0  0
   -1.0000    3.3376   -0.3707 C   0  0  0  0  0  0  0  0  0  0  0  0
   -1.3960    4.5398   -0.4087 O   0  0  0  0  0  0  0  0  0  0  0  0
   -1.2751    2.3586   -1.4737 C   0  0  0  0  0  0  0  0  0  0  0  0
   -3.5177    0.5787   -2.6133 C   0  0  0  0  0  0  0  0  0  0  0  0
   -2.9709    1.6084   -3.8575 S   0  0  0  0  0  0  0  0  0  0  0  0
   -4.3563    1.5652   -4.9620 C   0  0  0  0  0  0  0  0  0  0  0  0
   -5.1448    0.7529   -4.2737 C   0  0  0  0  0  0  0  0  0  0  0  0
   -4.7284    0.2390   -3.0736 C   0  0  0  0  0  0  0  0  0  0  0  0
   -5.6800   -0.7445   -2.3881 C   0  0  0  0  0  0  0  0  0  0  0  0
   -6.0802   -1.7276   -3.4311 C   0  0  0  0  0  0  0  0  0  0  0  0
   -6.0238   -2.9703   -3.2948 O   0  0  0  0  0  0  0  0  0  0  0  0
   -6.5697   -1.1011   -4.6926 C   0  0  0  0  0  0  0  0  0  0  0  0
   -6.9098   -1.8042   -5.6644 O   0  0  0  0  0  0  0  0  0  0  0  0
   -6.5917    0.3785   -4.6274 C   0  0  0  0  0  0  0  0  0  0  0  0
   -4.2306    2.2759   -6.2244 C   0  0  0  0  0  0  0  0  0  0  0  0
   -2.9245    3.4303   -6.4825 S   0  0  0  0  0  0  0  0  0  0  0  0
   -3.2005    3.8558   -8.0628 C   0  0  0  0  0  0  0  0  0  0  0  0
   -4.3122    3.1114   -8.4090 C   0  0  0  0  0  0  0  0  0  0  0  0
   -4.8324    2.3046   -7.4552 C   0  0  0  0  0  0  0  0  0  0  0  0
   -6.0521    1.4456   -7.8067 C   0  0  0  0  0  0  0  0  0  0  0  0
   -6.2974    1.2889   -9.2378 C   0  0  0  0  0  0  0  0  0  0  0  0
   -6.7551    0.2286   -9.7007 O   0  0  0  0  0  0  0  0  0  0  0  0
   -6.0062    2.3971  -10.1228 C   0  0  0  0  0  0  0  0  0  0  0  0
   -6.6960    2.6502  -11.1565 O   0  0  0  0  0  0  0  0  0  0  0  0
   -4.8902    3.2474   -9.8183 C   0  0  0  0  0  0  0  0  0  0  0  0
   -2.3980    4.7567   -8.9399 C   0  0  0  0  0  0  0  0  0  0  0  0
   -2.5267    5.0197  -10.6047 S   0  0  0  0  0  0  0  0  0  0  0  0
   -1.2467    6.1289  -10.8213 C   0  0  0  0  0  0  0  0  0  0  0  0
   -0.7502    6.2551   -9.5297 C   0  0  0  0  0  0  0  0  0  0  0  0
   -1.3450    5.5488   -8.5631 C   0  0  0  0  0  0  0  0  0  0  0  0
   -0.8002    5.7493   -7.1591 C   0  0  0  0  0  0  0  0  0  0  0  0
    0.6825    5.6698   -7.1708 C   0  0  0  0  0  0  0  0  0  0  0  0
    1.3355    4.9724   -6.3544 O   0  0  0  0  0  0  0  0  0  0  0  0
    1.3361    6.4752   -8.2200 C   0  0  0  0  0  0  0  0  0  0  0  0
    2.5779    6.5317   -8.2306 O   0  0  0  0  0  0  0  0  0  0  0  0
    0.4268    7.1572   -9.1801 C   0  0  0  0  0  0  0  0  0  0  0  0
    5.9642   -7.2748   10.1337 H   0  0  0  0  0  0  0  0  0  0  0  0
    8.3745   -6.3232    9.4407 H   0  0  0  0  0  0  0  0  0  0  0  0
    8.3562   -6.3236    7.6572 H   0  0  0  0  0  0  0  0  0  0  0  0
    6.3426   -3.5350    6.0749 H   0  0  0  0  0  0  0  0  0  0  0  0
    7.4377   -4.9579    6.1418 H   0  0  0  0  0  0  0  0  0  0  0  0
    1.7888   -5.2051    6.9052 H   0  0  0  0  0  0  0  0  0  0  0  0
    0.2671   -6.3141    6.0709 H   0  0  0  0  0  0  0  0  0  0  0  0
   -1.9182   -7.1936    6.8581 H   0  0  0  0  0  0  0  0  0  0  0  0
   -5.6813   -6.2519    4.2949 H   0  0  0  0  0  0  0  0  0  0  0  0
   -6.7264   -6.8191    5.5972 H   0  0  0  0  0  0  0  0  0  0  0  0
   -5.9152   -8.9225    5.4752 H   0  0  0  0  0  0  0  0  0  0  0  0
   -4.2003   -8.4515    5.3903 H   0  0  0  0  0  0  0  0  0  0  0  0
   -5.2257   -8.4420    3.8924 H   0  0  0  0  0  0  0  0  0  0  0  0
    5.3053   -2.2471    3.4438 H   0  0  0  0  0  0  0  0  0  0  0  0
    6.7218   -0.3674    2.7210 H   0  0  0  0  0  0  0  0  0  0  0  0
    4.7697    4.5276    1.0304 H   0  0  0  0  0  0  0  0  0  0  0  0
    3.5600    3.1880    0.8450 H   0  0  0  0  0  0  0  0  0  0  0  0
    3.3724    2.9792    3.2804 H   0  0  0  0  0  0  0  0  0  0  0  0
    3.3266    4.7439    3.0227 H   0  0  0  0  0  0  0  0  0  0  0  0
    4.8397    3.9643    3.5634 H   0  0  0  0  0  0  0  0  0  0  0  0
    1.2534   -0.6868    1.4096 H   0  0  0  0  0  0  0  0  0  0  0  0
    0.2092    1.1611    1.8194 H   0  0  0  0  0  0  0  0  0  0  0  0
    1.0471    1.2790    0.1748 H   0  0  0  0  0  0  0  0  0  0  0  0
   -0.3726    2.1603   -2.0566 H   0  0  0  0  0  0  0  0  0  0  0  0
   -2.0897    2.8301   -2.0282 H   0  0  0  0  0  0  0  0  0  0  0  0
   -5.1650   -1.2740   -1.5706 H   0  0  0  0  0  0  0  0  0  0  0  0
   -6.5257   -0.1964   -1.9432 H   0  0  0  0  0  0  0  0  0  0  0  0
   -7.0108    0.8698   -5.4329 H   0  0  0  0  0  0  0  0  0  0  0  0
   -7.1829    0.5892   -3.6522 H   0  0  0  0  0  0  0  0  0  0  0  0
   -5.9100    0.4251   -7.3986 H   0  0  0  0  0  0  0  0  0  0  0  0
   -6.9613    1.9692   -7.4050 H   0  0  0  0  0  0  0  0  0  0  0  0
   -5.1624    4.3236  -10.0219 H   0  0  0  0  0  0  0  0  0  0  0  0
   -4.0820    3.0290  -10.5541 H   0  0  0  0  0  0  0  0  0  0  0  0
   -0.8897    6.6292  -11.7377 H   0  0  0  0  0  0  0  0  0  0  0  0
   -1.0722    6.7971   -6.8327 H   0  0  0  0  0  0  0  0  0  0  0  0
   -1.1696    5.0444   -6.4457 H   0  0  0  0  0  0  0  0  0  0  0  0
    0.0760    8.1345   -8.8403 H   0  0  0  0  0  0  0  0  0  0  0  0
    1.0553    7.3325  -10.0883 H   0  0  0  0  0  0  0  0  0  0  0  0
  1  2  1  0
  2  3  1  0
  3  4  2  0
  4  5  1  0
  5  6  1  0
  6  7  1  0
  7  8  2  0
  7  9  1  0
  9 10  2  0
  9 11  1  0
  3 12  1  0
 12 13  2  0
 13 14  1  0
 14 15  2  0
 15 16  1  0
 16 17  2  0
 17 18  1  0
 18 19  2  0
 19 20  1  0
 20 21  1  0
 21 22  1  0
 19 23  1  0
 15 24  1  0
 24 25  2  0
 25 26  1  0
 26 27  1  0
 27 28  2  0
 28 29  1  0
 29 30  2  0
 30 31  1  0
 31 32  1  0
 32 33  1  0
 30 34  1  0
 26 35  2  0
 35 36  1  0
 25 37  1  0
 37 38  2  0
 38 39  1  0
 38 40  1  0
 40 41  1  0
 41 42  1  0
 42 43  2  0
 43 44  1  0
 44 45  1  0
 45 46  1  0
 46 47  2  0
 46 48  1  0
 48 49  2  0
 48 50  1  0
 42 51  1  0
 51 52  1  0
 52 53  1  0
 53 54  2  0
 54 55  1  0
 55 56  1  0
 56 57  1  0
 57 58  2  0
 57 59  1  0
 59 60  2  0
 59 61  1  0
 53 62  1  0
 62 63  1  0
 63 64  1  0
 64 65  2  0
 65 66  1  0
 66 67  1  0
 67 68  1  0
 68 69  2  0
 68 70  1  0
 70 71  2  0
 70 72  1  0
 64 73  1  0
 73 74  1  0
 74 75  1  0
 75 76  2  0
 76 77  1  0
 77 78  1  0
 78 79  1  0
 79 80  2  0
 79 81  1  0
 81 82  2  0
 81 83  1  0
  5  1  2  0
 36 12  1  0
 44 40  2  0
 55 51  2  0
 66 62  2  0
 77 73  2  0
 11  4  1  0
 35 14  1  0
 50 43  1  0
 61 54  1  0
 72 65  1  0
 83 76  1  0
 23 16  1  0
 39 24  1  0
 34 27  1  0
  1 84  1  0
  6 85  1  0
  6 86  1  0
 11 87  1  0
 11 88  1  0
 13 89  1  0
 17 90  1  0
 18 91  1  0
 21 92  1  0
 21 93  1  0
 22 94  1  0
 22 95  1  0
 22 96  1  0
 28 97  1  0
 29 98  1  0
 32 99  1  0
 32100  1  0
 33101  1  0
 33102  1  0
 33103  1  0
 37104  1  0
 45105  1  0
 45106  1  0
 50107  1  0
 50108  1  0
 56109  1  0
 56110  1  0
 61111  1  0
 61112  1  0
 67113  1  0
 67114  1  0
 72115  1  0
 72116  1  0
 75117  1  0
 78118  1  0
 78119  1  0
 83120  1  0
 83121  1  0
M  END

