
     RDKit          3D

150163  0  0  0  0  0  0  0  0999 V2000
    0.6225    4.1033   10.5276 C   0  0  0  0  0  0  0  0  0  0  0  0
    1.1765    3.2289    9.6265 C   0  0  0  0  0  0  0  0  0  0  0  0
    0.3804    2.7469    8.6438 C   0  0  0  0  0  0  0  0  0  0  0  0
    0.7055    1.8700    7.6376 C   0  0  0  0  0  0  0  0  0  0  0  0
    2.0511    1.3282    7.4525 C   0  0  0  0  0  0  0  0  0  0  0  0
    2.4989    0.2861    6.7400 C   0  0  0  0  0  0  0  0  0  0  0  0
    3.8062   -0.0073    6.6399 C   0  0  0  0  0  0  0  0  0  0  0  0
    4.7587    0.7055    7.2316 C   0  0  0  0  0  0  0  0  0  0  0  0
    6.5247    0.6079    7.3253 S   0  0  0  0  0  0  0  0  0  0  0  0
    7.3372    1.4651    5.9504 C   0  0  0  0  0  0  0  0  0  0  0  0
    8.8264    1.3738    6.0196 C   0  0  0  0  0  0  0  0  0  0  0  0
    3.6526    2.0579    8.1156 Se  0  0  0  0  0  2  0  0  0  0  0  0
   -0.2774    1.4953    6.7280 C   0  0  0  0  0  0  0  0  0  0  0  0
   -1.5857    1.9231    6.7345 C   0  0  0  0  0  0  0  0  0  0  0  0
   -1.8908    2.8062    7.7488 C   0  0  0  0  0  0  0  0  0  0  0  0
   -3.2008    3.4660    7.8252 C   0  0  0  0  0  0  0  0  0  0  0  0
   -3.7731    4.1406    8.8295 C   0  0  0  0  0  0  0  0  0  0  0  0
   -4.9295    4.7960    8.7213 C   0  0  0  0  0  0  0  0  0  0  0  0
   -5.6281    4.8370    7.5823 C   0  0  0  0  0  0  0  0  0  0  0  0
   -7.1368    5.5493    7.0264 S   0  0  0  0  0  0  0  0  0  0  0  0
   -7.3700    5.1359    5.2521 C   0  0  0  0  0  0  0  0  0  0  0  0
   -8.6646    5.6663    4.7447 C   0  0  0  0  0  0  0  0  0  0  0  0
   -4.4295    3.7423    6.4459 Se  0  0  0  0  0  2  0  0  0  0  0  0
   -0.9240    3.1861    8.6543 C   0  0  0  0  0  0  0  0  0  0  0  0
   -0.9792    4.2360   10.0085 S   0  0  0  0  0  0  0  0  0  0  0  0
   -2.3809    1.4394    5.7512 C   0  0  0  0  0  0  0  0  0  0  0  0
   -1.8572    0.5989    4.8509 C   0  0  0  0  0  0  0  0  0  0  0  0
   -0.1979    0.4692    5.3796 S   0  0  0  0  0  0  0  0  0  0  0  0
   -2.4187   -0.2049    3.7286 C   0  0  0  0  0  0  0  0  0  0  0  0
   -1.6366   -0.6196    2.6719 C   0  0  0  0  0  0  0  0  0  0  0  0
   -2.2040   -1.3287    1.6976 C   0  0  0  0  0  0  0  0  0  0  0  0
   -1.5925   -1.9040    0.5819 C   0  0  0  0  0  0  0  0  0  0  0  0
   -0.2298   -1.5101    0.1821 C   0  0  0  0  0  0  0  0  0  0  0  0
    0.6678   -1.9233   -0.7125 C   0  0  0  0  0  0  0  0  0  0  0  0
    1.8241   -1.2903   -0.9333 C   0  0  0  0  0  0  0  0  0  0  0  0
    2.2105   -0.1948   -0.2959 C   0  0  0  0  0  0  0  0  0  0  0  0
    3.5611    0.9442   -0.2892 S   0  0  0  0  0  0  0  0  0  0  0  0
    3.2645    2.4540   -1.2004 C   0  0  0  0  0  0  0  0  0  0  0  0
    2.2342    3.2631   -0.4414 C   0  0  0  0  0  0  0  0  0  0  0  0
    0.6314    0.0324    0.8776 Se  0  0  0  0  0  2  0  0  0  0  0  0
   -2.3089   -2.6909   -0.2790 C   0  0  0  0  0  0  0  0  0  0  0  0
   -3.6477   -2.9908   -0.1744 C   0  0  0  0  0  0  0  0  0  0  0  0
   -4.2651   -2.3835    0.9517 C   0  0  0  0  0  0  0  0  0  0  0  0
   -5.6967   -2.5614    1.2378 C   0  0  0  0  0  0  0  0  0  0  0  0
   -6.4792   -2.1414    2.2369 C   0  0  0  0  0  0  0  0  0  0  0  0
   -7.7885   -2.4398    2.2944 C   0  0  0  0  0  0  0  0  0  0  0  0
   -8.4263   -3.1588    1.4071 C   0  0  0  0  0  0  0  0  0  0  0  0
  -10.0344   -3.8002    1.0584 S   0  0  0  0  0  0  0  0  0  0  0  0
  -10.0172   -4.7691   -0.4924 C   0  0  0  0  0  0  0  0  0  0  0  0
   -9.6975   -3.8627   -1.6621 C   0  0  0  0  0  0  0  0  0  0  0  0
   -6.9060   -3.5241    0.1948 Se  0  0  0  0  0  2  0  0  0  0  0  0
   -3.5477   -1.6033    1.8164 C   0  0  0  0  0  0  0  0  0  0  0  0
   -3.9189   -0.8193    3.3088 S   0  0  0  0  0  0  0  0  0  0  0  0
   -4.1370   -3.8661   -1.0730 C   0  0  0  0  0  0  0  0  0  0  0  0
   -3.3230   -4.3997   -2.0028 C   0  0  0  0  0  0  0  0  0  0  0  0
   -1.8290   -3.6536   -1.6314 S   0  0  0  0  0  0  0  0  0  0  0  0
   -3.4865   -5.4332   -3.0488 C   0  0  0  0  0  0  0  0  0  0  0  0
   -2.1780   -6.0309   -3.9838 S   0  0  0  0  0  0  0  0  0  0  0  0
   -2.9390   -7.2463   -4.9003 C   0  0  0  0  0  0  0  0  0  0  0  0
   -4.2363   -7.1381   -4.4324 C   0  0  0  0  0  0  0  0  0  0  0  0
   -4.4843   -6.2127   -3.4966 C   0  0  0  0  0  0  0  0  0  0  0  0
   -2.3774   -8.2345   -5.8135 C   0  0  0  0  0  0  0  0  0  0  0  0
   -1.0393   -8.4111   -5.9470 C   0  0  0  0  0  0  0  0  0  0  0  0
   -0.0854   -7.6618   -5.2203 C   0  0  0  0  0  0  0  0  0  0  0  0
    1.1522   -7.5332   -5.0679 C   0  0  0  0  0  0  0  0  0  0  0  0
    2.3980   -8.0775   -5.5414 C   0  0  0  0  0  0  0  0  0  0  0  0
    3.9382   -7.3385   -5.1683 S   0  0  0  0  0  0  0  0  0  0  0  0
    5.0000   -8.4720   -5.9585 C   0  0  0  0  0  0  0  0  0  0  0  0
    4.1242   -9.3522   -6.4596 C   0  0  0  0  0  0  0  0  0  0  0  0
    2.8105   -9.1486   -6.2486 C   0  0  0  0  0  0  0  0  0  0  0  0
    6.4744   -8.2707   -5.9896 C   0  0  0  0  0  0  0  0  0  0  0  0
    6.9245   -6.9505   -5.9418 C   0  0  0  0  0  0  0  0  0  0  0  0
    6.0475   -5.8947   -5.9112 C   0  0  0  0  0  0  0  0  0  0  0  0
    5.5626   -4.7550   -5.8335 C   0  0  0  0  0  0  0  0  0  0  0  0
    6.0572   -3.4126   -5.6334 C   0  0  0  0  0  0  0  0  0  0  0  0
    5.0076   -2.0028   -5.6899 S   0  0  0  0  0  0  0  0  0  0  0  0
    6.1271   -0.7866   -5.3226 C   0  0  0  0  0  0  0  0  0  0  0  0
    7.2720   -1.4732   -5.1659 C   0  0  0  0  0  0  0  0  0  0  0  0
    7.2435   -2.8142   -5.3255 C   0  0  0  0  0  0  0  0  0  0  0  0
    5.8232    0.6778   -5.1976 C   0  0  0  0  0  0  0  0  0  0  0  0
    4.5676    0.9573   -5.4260 C   0  0  0  0  0  0  0  0  0  0  0  0
    3.8990    2.2446   -5.4003 C   0  0  0  0  0  0  0  0  0  0  0  0
    2.6028    2.2661   -5.6658 C   0  0  0  0  0  0  0  0  0  0  0  0
    1.7161    3.4032   -5.7030 C   0  0  0  0  0  0  0  0  0  0  0  0
    1.9308    5.0744   -5.4042 S   0  0  0  0  0  0  0  0  0  0  0  0
    0.3514    5.6503   -5.7458 C   0  0  0  0  0  0  0  0  0  0  0  0
   -0.2996    4.4810   -6.0888 C   0  0  0  0  0  0  0  0  0  0  0  0
    0.3842    3.3525   -6.0681 C   0  0  0  0  0  0  0  0  0  0  0  0
   -0.2354    6.9885   -5.7212 C   0  0  0  0  0  0  0  0  0  0  0  0
    0.3831    8.0842   -5.3912 C   0  0  0  0  0  0  0  0  0  0  0  0
    1.7484    8.2731   -4.9822 C   0  0  0  0  0  0  0  0  0  0  0  0
    2.2282    9.4552   -4.6773 C   0  0  0  0  0  0  0  0  0  0  0  0
    1.1190    4.5872   11.3885 H   0  0  0  0  0  0  0  0  0  0  0  0
    2.2468    2.9799    9.7956 H   0  0  0  0  0  0  0  0  0  0  0  0
    1.7452   -0.3778    6.2242 H   0  0  0  0  0  0  0  0  0  0  0  0
    4.1609   -0.9058    6.0192 H   0  0  0  0  0  0  0  0  0  0  0  0
    6.9236    1.1182    4.9629 H   0  0  0  0  0  0  0  0  0  0  0  0
    7.0623    2.5352    6.0487 H   0  0  0  0  0  0  0  0  0  0  0  0
    9.1658    0.3530    6.2964 H   0  0  0  0  0  0  0  0  0  0  0  0
    9.2627    2.1370    6.6929 H   0  0  0  0  0  0  0  0  0  0  0  0
    9.2297    1.6102    5.0118 H   0  0  0  0  0  0  0  0  0  0  0  0
   -3.2484    4.1162    9.8492 H   0  0  0  0  0  0  0  0  0  0  0  0
   -5.3840    5.3654    9.6031 H   0  0  0  0  0  0  0  0  0  0  0  0
   -6.4741    5.5041    4.7216 H   0  0  0  0  0  0  0  0  0  0  0  0
   -7.3475    4.0160    5.2009 H   0  0  0  0  0  0  0  0  0  0  0  0
   -9.1278    4.8492    4.1114 H   0  0  0  0  0  0  0  0  0  0  0  0
   -8.4333    6.4937    4.0299 H   0  0  0  0  0  0  0  0  0  0  0  0
   -9.3963    5.9193    5.5192 H   0  0  0  0  0  0  0  0  0  0  0  0
   -3.4666    1.6804    5.6440 H   0  0  0  0  0  0  0  0  0  0  0  0
   -0.5582   -0.3486    2.7063 H   0  0  0  0  0  0  0  0  0  0  0  0
    0.4342   -2.8796   -1.2865 H   0  0  0  0  0  0  0  0  0  0  0  0
    2.5566   -1.7002   -1.7158 H   0  0  0  0  0  0  0  0  0  0  0  0
    2.8944    2.1770   -2.2097 H   0  0  0  0  0  0  0  0  0  0  0  0
    4.2120    2.9880   -1.3369 H   0  0  0  0  0  0  0  0  0  0  0  0
    2.7916    4.0434    0.1460 H   0  0  0  0  0  0  0  0  0  0  0  0
    1.5676    3.7464   -1.1909 H   0  0  0  0  0  0  0  0  0  0  0  0
    1.6529    2.6746    0.2894 H   0  0  0  0  0  0  0  0  0  0  0  0
   -6.0121   -1.5171    3.0636 H   0  0  0  0  0  0  0  0  0  0  0  0
   -8.4115   -2.0470    3.1843 H   0  0  0  0  0  0  0  0  0  0  0  0
  -11.0284   -5.1792   -0.6321 H   0  0  0  0  0  0  0  0  0  0  0  0
   -9.3109   -5.6259   -0.4094 H   0  0  0  0  0  0  0  0  0  0  0  0
  -10.4794   -3.9212   -2.4515 H   0  0  0  0  0  0  0  0  0  0  0  0
   -8.7476   -4.2127   -2.1476 H   0  0  0  0  0  0  0  0  0  0  0  0
   -9.5781   -2.8300   -1.3350 H   0  0  0  0  0  0  0  0  0  0  0  0
   -5.1998   -4.1894   -1.0841 H   0  0  0  0  0  0  0  0  0  0  0  0
   -4.9914   -7.8288   -4.8545 H   0  0  0  0  0  0  0  0  0  0  0  0
   -5.5218   -6.0814   -3.0840 H   0  0  0  0  0  0  0  0  0  0  0  0
   -3.0222   -8.8362   -6.4027 H   0  0  0  0  0  0  0  0  0  0  0  0
   -0.6815   -9.1528   -6.6466 H   0  0  0  0  0  0  0  0  0  0  0  0
   -0.6058   -6.9050   -4.4724 H   0  0  0  0  0  0  0  0  0  0  0  0
    1.4259   -6.6988   -4.2545 H   0  0  0  0  0  0  0  0  0  0  0  0
    4.5060  -10.2299   -7.0501 H   0  0  0  0  0  0  0  0  0  0  0  0
    2.0432   -9.8690   -6.6451 H   0  0  0  0  0  0  0  0  0  0  0  0
    7.1109   -9.0834   -6.0353 H   0  0  0  0  0  0  0  0  0  0  0  0
    7.9953   -6.9007   -5.9445 H   0  0  0  0  0  0  0  0  0  0  0  0
    5.0229   -6.4681   -6.5432 H   0  0  0  0  0  0  0  0  0  0  0  0
    4.3935   -4.7185   -5.9297 H   0  0  0  0  0  0  0  0  0  0  0  0
    8.2271   -0.9373   -4.9143 H   0  0  0  0  0  0  0  0  0  0  0  0
    8.1594   -3.4508   -5.2151 H   0  0  0  0  0  0  0  0  0  0  0  0
    6.5839    1.3397   -4.9440 H   0  0  0  0  0  0  0  0  0  0  0  0
    3.8701    0.1032   -5.6870 H   0  0  0  0  0  0  0  0  0  0  0  0
    4.4421    3.1227   -5.1807 H   0  0  0  0  0  0  0  0  0  0  0  0
    2.1319    1.2833   -5.9014 H   0  0  0  0  0  0  0  0  0  0  0  0
   -1.3807    4.5376   -6.3905 H   0  0  0  0  0  0  0  0  0  0  0  0
   -0.0931    2.3709   -6.3421 H   0  0  0  0  0  0  0  0  0  0  0  0
   -1.2857    7.0696   -6.0081 H   0  0  0  0  0  0  0  0  0  0  0  0
   -0.2223    9.0164   -5.4081 H   0  0  0  0  0  0  0  0  0  0  0  0
    2.4222    7.4507   -4.9304 H   0  0  0  0  0  0  0  0  0  0  0  0
    1.6476   10.3884   -4.7023 H   0  0  0  0  0  0  0  0  0  0  0  0
    3.2688    9.5661   -4.3757 H   0  0  0  0  0  0  0  0  0  0  0  0
  1  2  2  0
  2  3  1  0
  3  4  2  0
  4  5  1  0
  5  6  2  0
  6  7  1  0
  7  8  2  0
  8  9  1  0
  9 10  1  0
 10 11  1  0
  8 12  1  0
  4 13  1  0
 13 14  2  0
 14 15  1  0
 15 16  1  0
 16 17  2  0
 17 18  1  0
 18 19  2  0
 19 20  1  0
 20 21  1  0
 21 22  1  0
 19 23  1  0
 15 24  2  0
 24 25  1  0
 14 26  1  0
 26 27  2  0
 27 28  1  0
 27 29  1  0
 29 30  2  0
 30 31  1  0
 31 32  2  0
 32 33  1  0
 33 34  2  0
 34 35  1  0
 35 36  2  0
 36 37  1  0
 37 38  1  0
 38 39  1  0
 36 40  1  0
 32 41  1  0
 41 42  2  0
 42 43  1  0
 43 44  1  0
 44 45  2  0
 45 46  1  0
 46 47  2  0
 47 48  1  0
 48 49  1  0
 49 50  1  0
 47 51  1  0
 43 52  2  0
 52 53  1  0
 42 54  1  0
 54 55  2  0
 55 56  1  0
 55 57  1  0
 57 58  1  0
 58 59  1  0
 59 60  2  0
 60 61  1  0
 59 62  1  0
 62 63  2  3
 63 64  1  0
 64 65  2  3
 65 66  1  0
 66 67  1  0
 67 68  1  0
 68 69  2  0
 69 70  1  0
 68 71  1  0
 71 72  2  3
 72 73  1  0
 73 74  2  3
 74 75  1  0
 75 76  1  0
 76 77  1  0
 77 78  2  0
 78 79  1  0
 77 80  1  0
 80 81  2  3
 81 82  1  0
 82 83  2  3
 83 84  1  0
 84 85  1  0
 85 86  1  0
 86 87  2  0
 87 88  1  0
 86 89  1  0
 89 90  2  3
 90 91  1  0
 91 92  2  3
 25  1  1  0
 53 29  1  0
 61 57  2  0
 70 66  2  0
 79 75  2  0
 88 84  2  0
 24  3  1  0
 52 31  1  0
 12  5  1  0
 28 13  1  0
 40 33  1  0
 56 41  1  0
 23 16  1  0
 51 44  1  0
  1 93  1  0
  2 94  1  0
  6 95  1  0
  7 96  1  0
 10 97  1  0
 10 98  1  0
 11 99  1  0
 11100  1  0
 11101  1  0
 17102  1  0
 18103  1  0
 21104  1  0
 21105  1  0
 22106  1  0
 22107  1  0
 22108  1  0
 26109  1  0
 30110  1  0
 34111  1  0
 35112  1  0
 38113  1  0
 38114  1  0
 39115  1  0
 39116  1  0
 39117  1  0
 45118  1  0
 46119  1  0
 49120  1  0
 49121  1  0
 50122  1  0
 50123  1  0
 50124  1  0
 54125  1  0
 60126  1  0
 61127  1  0
 62128  1  0
 63129  1  0
 64130  1  0
 65131  1  0
 69132  1  0
 70133  1  0
 71134  1  0
 72135  1  0
 73136  1  0
 74137  1  0
 78138  1  0
 79139  1  0
 80140  1  0
 81141  1  0
 82142  1  0
 83143  1  0
 87144  1  0
 88145  1  0
 89146  1  0
 90147  1  0
 91148  1  0
 92149  1  0
 92150  1  0
M  END

