
     RDKit          3D

290319  0  0  0  0  0  0  0  0999 V2000
   -5.0127   -4.1342    8.8836 C   0  0  0  0  0  0  0  0  0  0  0  0
   -4.3321   -2.9525    8.9888 C   0  0  0  0  0  0  0  0  0  0  0  0
   -3.8965   -2.3905    7.8382 C   0  0  0  0  0  0  0  0  0  0  0  0
   -3.1827   -1.1747    7.6945 C   0  0  0  0  0  0  0  0  0  0  0  0
   -2.7664   -0.4704    8.8874 C   0  0  0  0  0  0  0  0  0  0  0  0
   -1.6251   -0.9686    9.5535 C   0  0  0  0  0  0  0  0  0  0  0  0
   -1.1613   -0.4092   10.7082 C   0  0  0  0  0  0  0  0  0  0  0  0
   -1.7682    0.6782   11.3083 C   0  0  0  0  0  0  0  0  0  0  0  0
   -1.1350    1.3468   12.8402 S   0  0  0  0  0  0  0  0  0  0  0  0
    0.1479    2.5761   12.4863 C   0  0  0  0  0  0  0  0  0  0  0  0
    0.7878    3.0817   13.7575 C   0  0  0  0  0  0  0  0  0  0  0  0
   -2.8880    1.1717   10.6551 C   0  0  0  0  0  0  0  0  0  0  0  0
   -3.5094    2.2482   11.2149 F   0  0  0  0  0  0  0  0  0  0  0  0
   -3.3576    0.5991    9.4826 C   0  0  0  0  0  0  0  0  0  0  0  0
   -2.8155   -0.7352    6.4447 C   0  0  0  0  0  0  0  0  0  0  0  0
   -3.0842   -1.4097    5.2751 C   0  0  0  0  0  0  0  0  0  0  0  0
   -3.7912   -2.6102    5.3939 C   0  0  0  0  0  0  0  0  0  0  0  0
   -4.2195   -3.5002    4.3385 C   0  0  0  0  0  0  0  0  0  0  0  0
   -3.4397   -4.6112    4.0521 C   0  0  0  0  0  0  0  0  0  0  0  0
   -3.8114   -5.5729    3.1171 C   0  0  0  0  0  0  0  0  0  0  0  0
   -4.9837   -5.4629    2.4276 C   0  0  0  0  0  0  0  0  0  0  0  0
   -5.5398   -6.7032    1.2713 S   0  0  0  0  0  0  0  0  0  0  0  0
   -4.4289   -8.1402    1.2753 C   0  0  0  0  0  0  0  0  0  0  0  0
   -4.5059   -8.8637    2.6064 C   0  0  0  0  0  0  0  0  0  0  0  0
   -5.7668   -4.3618    2.7014 C   0  0  0  0  0  0  0  0  0  0  0  0
   -5.4055   -3.4003    3.6286 C   0  0  0  0  0  0  0  0  0  0  0  0
   -6.9553   -4.2189    2.0490 F   0  0  0  0  0  0  0  0  0  0  0  0
   -4.1662   -3.0440    6.6776 C   0  0  0  0  0  0  0  0  0  0  0  0
   -5.0205   -4.4254    7.2123 S   0  0  0  0  0  0  0  0  0  0  0  0
   -2.6783   -0.8240    4.1298 C   0  0  0  0  0  0  0  0  0  0  0  0
   -2.0368    0.4061    4.2383 C   0  0  0  0  0  0  0  0  0  0  0  0
   -2.0233    0.6765    5.8916 S   0  0  0  0  0  0  0  0  0  0  0  0
   -1.5049    1.1419    3.0497 C   0  0  0  0  0  0  0  0  0  0  0  0
   -1.8500    2.3961    2.6187 C   0  0  0  0  0  0  0  0  0  0  0  0
   -1.4824    2.7489    1.3729 C   0  0  0  0  0  0  0  0  0  0  0  0
   -1.9258    3.8930    0.6392 C   0  0  0  0  0  0  0  0  0  0  0  0
   -2.6434    4.9607    1.3056 C   0  0  0  0  0  0  0  0  0  0  0  0
   -1.9438    5.8758    2.1046 C   0  0  0  0  0  0  0  0  0  0  0  0
   -2.5906    6.8816    2.7710 C   0  0  0  0  0  0  0  0  0  0  0  0
   -3.9685    7.0343    2.6807 C   0  0  0  0  0  0  0  0  0  0  0  0
   -4.7767    8.3496    3.6008 S   0  0  0  0  0  0  0  0  0  0  0  0
   -5.2900    7.7356    5.2414 C   0  0  0  0  0  0  0  0  0  0  0  0
   -4.0849    7.3766    6.1016 C   0  0  0  0  0  0  0  0  0  0  0  0
   -4.6586    6.1378    1.8989 C   0  0  0  0  0  0  0  0  0  0  0  0
   -6.0019    6.2901    1.8051 F   0  0  0  0  0  0  0  0  0  0  0  0
   -4.0006    5.1227    1.2249 C   0  0  0  0  0  0  0  0  0  0  0  0
   -1.6572    4.0163   -0.7121 C   0  0  0  0  0  0  0  0  0  0  0  0
   -0.9573    3.1172   -1.4314 C   0  0  0  0  0  0  0  0  0  0  0  0
   -0.4987    1.9696   -0.6982 C   0  0  0  0  0  0  0  0  0  0  0  0
    0.2783    0.9477   -1.3595 C   0  0  0  0  0  0  0  0  0  0  0  0
   -0.4390    0.0929   -2.1890 C   0  0  0  0  0  0  0  0  0  0  0  0
    0.1767   -0.9006   -2.9109 C   0  0  0  0  0  0  0  0  0  0  0  0
    1.5364   -1.0820   -2.8337 C   0  0  0  0  0  0  0  0  0  0  0  0
    2.3608   -2.3546   -3.8186 S   0  0  0  0  0  0  0  0  0  0  0  0
    1.1056   -3.1923   -4.8275 C   0  0  0  0  0  0  0  0  0  0  0  0
    1.6922   -4.2908   -5.6705 C   0  0  0  0  0  0  0  0  0  0  0  0
    2.2740   -0.2451   -2.0126 C   0  0  0  0  0  0  0  0  0  0  0  0
    1.6187    0.7548   -1.2914 C   0  0  0  0  0  0  0  0  0  0  0  0
    3.6085   -0.4282   -1.9389 F   0  0  0  0  0  0  0  0  0  0  0  0
   -0.7878    1.8427    0.6369 C   0  0  0  0  0  0  0  0  0  0  0  0
   -0.6637    0.4946    1.7240 S   0  0  0  0  0  0  0  0  0  0  0  0
   -0.9737    3.1808   -2.7635 C   0  0  0  0  0  0  0  0  0  0  0  0
   -1.7696    4.2102   -3.3138 C   0  0  0  0  0  0  0  0  0  0  0  0
   -2.3660    4.9920   -2.0169 S   0  0  0  0  0  0  0  0  0  0  0  0
   -2.2024    3.9779   -4.7726 C   0  0  0  0  0  0  0  0  0  0  0  0
   -1.5082    3.3934   -5.7477 C   0  0  0  0  0  0  0  0  0  0  0  0
   -2.2267    2.6365   -6.6822 C   0  0  0  0  0  0  0  0  0  0  0  0
   -1.6278    1.5864   -7.4433 C   0  0  0  0  0  0  0  0  0  0  0  0
   -0.2316    1.5426   -7.7316 C   0  0  0  0  0  0  0  0  0  0  0  0
    0.6653    1.1934   -6.7454 C   0  0  0  0  0  0  0  0  0  0  0  0
    2.0126    1.1438   -6.9634 C   0  0  0  0  0  0  0  0  0  0  0  0
    2.4813    1.4648   -8.2445 C   0  0  0  0  0  0  0  0  0  0  0  0
    4.2402    1.4300   -8.5156 S   0  0  0  0  0  0  0  0  0  0  0  0
    4.7212   -0.2413   -9.0095 C   0  0  0  0  0  0  0  0  0  0  0  0
    6.2261   -0.2819   -9.2475 C   0  0  0  0  0  0  0  0  0  0  0  0
    1.5787    1.8131   -9.2313 C   0  0  0  0  0  0  0  0  0  0  0  0
    2.0261    2.1316  -10.4747 F   0  0  0  0  0  0  0  0  0  0  0  0
    0.2108    1.8593   -8.9958 C   0  0  0  0  0  0  0  0  0  0  0  0
   -2.4840    0.5689   -7.9244 C   0  0  0  0  0  0  0  0  0  0  0  0
   -3.8065    0.4840   -7.7613 C   0  0  0  0  0  0  0  0  0  0  0  0
   -4.4042    1.5542   -7.0459 C   0  0  0  0  0  0  0  0  0  0  0  0
   -5.7997    1.7968   -6.8721 C   0  0  0  0  0  0  0  0  0  0  0  0
   -6.3181    2.9051   -7.5771 C   0  0  0  0  0  0  0  0  0  0  0  0
   -7.6228    3.2887   -7.4982 C   0  0  0  0  0  0  0  0  0  0  0  0
   -8.5412    2.5910   -6.6964 C   0  0  0  0  0  0  0  0  0  0  0  0
  -10.2247    3.1536   -6.5684 S   0  0  0  0  0  0  0  0  0  0  0  0
  -11.2832    2.5534   -7.8893 C   0  0  0  0  0  0  0  0  0  0  0  0
  -11.5335    1.0717   -7.8596 C   0  0  0  0  0  0  0  0  0  0  0  0
   -8.0396    1.5121   -6.0105 C   0  0  0  0  0  0  0  0  0  0  0  0
   -6.6953    1.1214   -6.0954 C   0  0  0  0  0  0  0  0  0  0  0  0
   -8.8948    0.8082   -5.2317 F   0  0  0  0  0  0  0  0  0  0  0  0
   -3.5415    2.5758   -6.5359 C   0  0  0  0  0  0  0  0  0  0  0  0
   -3.8651    3.5628   -5.1261 S   0  0  0  0  0  0  0  0  0  0  0  0
   -4.3830   -0.8015   -7.8818 C   0  0  0  0  0  0  0  0  0  0  0  0
   -3.5547   -1.8074   -8.1246 C   0  0  0  0  0  0  0  0  0  0  0  0
   -1.9845   -1.0609   -8.2583 S   0  0  0  0  0  0  0  0  0  0  0  0
   -3.5797   -3.2705   -7.5452 C   0  0  0  0  0  0  0  0  0  0  0  0
   -4.0726   -3.4414   -6.2494 C   0  0  0  0  0  0  0  0  0  0  0  0
   -3.4942   -4.4305   -5.5064 C   0  0  0  0  0  0  0  0  0  0  0  0
   -3.5048   -4.4449   -4.0737 C   0  0  0  0  0  0  0  0  0  0  0  0
   -4.5081   -3.7149   -3.3515 C   0  0  0  0  0  0  0  0  0  0  0  0
   -5.7435   -3.2937   -3.6200 C   0  0  0  0  0  0  0  0  0  0  0  0
   -6.4058   -2.4084   -2.8765 C   0  0  0  0  0  0  0  0  0  0  0  0
   -5.9001   -1.8469   -1.7744 C   0  0  0  0  0  0  0  0  0  0  0  0
   -6.3934   -0.6284   -0.6073 S   0  0  0  0  0  0  0  0  0  0  0  0
   -7.2238   -1.2315    0.8477 C   0  0  0  0  0  0  0  0  0  0  0  0
   -7.7265   -0.0674    1.7210 C   0  0  0  0  0  0  0  0  0  0  0  0
   -4.1258   -2.7330   -1.7436 Se  0  0  0  0  0  2  0  0  0  0  0  0
   -2.5417   -5.1652   -3.3885 C   0  0  0  0  0  0  0  0  0  0  0  0
   -1.5499   -5.9007   -3.9573 C   0  0  0  0  0  0  0  0  0  0  0  0
   -1.5606   -5.9152   -5.3819 C   0  0  0  0  0  0  0  0  0  0  0  0
   -0.7464   -6.7301   -6.1884 C   0  0  0  0  0  0  0  0  0  0  0  0
   -0.3713   -6.9197   -7.4288 C   0  0  0  0  0  0  0  0  0  0  0  0
    0.3830   -7.9150   -7.8872 C   0  0  0  0  0  0  0  0  0  0  0  0
    0.8768   -8.8904   -7.1040 C   0  0  0  0  0  0  0  0  0  0  0  0
    1.8982  -10.3110   -7.3846 S   0  0  0  0  0  0  0  0  0  0  0  0
    0.8755  -11.7411   -7.7953 C   0  0  0  0  0  0  0  0  0  0  0  0
    0.1611  -11.6042   -9.1201 C   0  0  0  0  0  0  0  0  0  0  0  0
    0.1748   -8.3655   -5.3737 Se  0  0  0  0  0  2  0  0  0  0  0  0
   -2.5373   -5.1614   -6.0649 C   0  0  0  0  0  0  0  0  0  0  0  0
   -2.4346   -4.4569   -7.6941 S   0  0  0  0  0  0  0  0  0  0  0  0
   -0.5114   -6.2489   -3.1186 C   0  0  0  0  0  0  0  0  0  0  0  0
   -0.5411   -5.8442   -1.8495 C   0  0  0  0  0  0  0  0  0  0  0  0
   -2.0401   -4.9875   -1.7422 S   0  0  0  0  0  0  0  0  0  0  0  0
    0.6150   -5.4663   -0.9116 C   0  0  0  0  0  0  0  0  0  0  0  0
    0.6377   -4.9038    0.2822 C   0  0  0  0  0  0  0  0  0  0  0  0
    1.7651   -4.2076    0.6731 C   0  0  0  0  0  0  0  0  0  0  0  0
    1.8968   -3.3542    1.7352 C   0  0  0  0  0  0  0  0  0  0  0  0
    1.1159   -3.4138    2.9876 C   0  0  0  0  0  0  0  0  0  0  0  0
    0.9276   -2.4842    3.9284 C   0  0  0  0  0  0  0  0  0  0  0  0
    0.3717   -2.7863    5.1108 C   0  0  0  0  0  0  0  0  0  0  0  0
   -0.0299   -3.9991    5.4380 C   0  0  0  0  0  0  0  0  0  0  0  0
   -0.7398   -4.7584    6.8620 S   0  0  0  0  0  0  0  0  0  0  0  0
    0.5376   -5.4063    7.9838 C   0  0  0  0  0  0  0  0  0  0  0  0
    1.2827   -6.5519    7.3647 C   0  0  0  0  0  0  0  0  0  0  0  0
    0.4412   -4.9407    3.7762 Se  0  0  0  0  0  2  0  0  0  0  0  0
    3.0103   -2.4995    1.8064 C   0  0  0  0  0  0  0  0  0  0  0  0
    4.0219   -2.4411    0.9019 C   0  0  0  0  0  0  0  0  0  0  0  0
    3.9057   -3.3346   -0.1711 C   0  0  0  0  0  0  0  0  0  0  0  0
    4.9104   -3.5388   -1.1519 C   0  0  0  0  0  0  0  0  0  0  0  0
    5.1335   -4.1189   -2.3161 C   0  0  0  0  0  0  0  0  0  0  0  0
    6.3013   -4.1883   -2.9517 C   0  0  0  0  0  0  0  0  0  0  0  0
    7.4343   -3.6613   -2.4731 C   0  0  0  0  0  0  0  0  0  0  0  0
    9.1153   -3.5554   -2.9913 S   0  0  0  0  0  0  0  0  0  0  0  0
   10.1213   -2.6259   -1.7856 C   0  0  0  0  0  0  0  0  0  0  0  0
   10.1892   -3.3927   -0.4987 C   0  0  0  0  0  0  0  0  0  0  0  0
    6.8083   -2.8978   -0.7964 Se  0  0  0  0  0  2  0  0  0  0  0  0
    2.7744   -4.1789   -0.2402 C   0  0  0  0  0  0  0  0  0  0  0  0
    2.1912   -5.0876   -1.5565 S   0  0  0  0  0  0  0  0  0  0  0  0
    4.9189   -1.4200    1.0540 C   0  0  0  0  0  0  0  0  0  0  0  0
    4.7159   -0.5646    2.0837 C   0  0  0  0  0  0  0  0  0  0  0  0
    3.3275   -1.1596    2.8344 S   0  0  0  0  0  0  0  0  0  0  0  0
    5.3143    0.7300    2.4396 C   0  0  0  0  0  0  0  0  0  0  0  0
    6.1770    1.5078    1.7249 C   0  0  0  0  0  0  0  0  0  0  0  0
    6.4639    2.7289    2.1991 C   0  0  0  0  0  0  0  0  0  0  0  0
    7.2836    3.7098    1.5954 C   0  0  0  0  0  0  0  0  0  0  0  0
    7.9453    3.4751    0.3207 C   0  0  0  0  0  0  0  0  0  0  0  0
    9.0853    2.7119    0.2919 C   0  0  0  0  0  0  0  0  0  0  0  0
    9.7207    2.4566   -0.9210 C   0  0  0  0  0  0  0  0  0  0  0  0
    9.2085    2.9689   -2.0883 C   0  0  0  0  0  0  0  0  0  0  0  0
   10.0266    2.5893   -3.6239 S   0  0  0  0  0  0  0  0  0  0  0  0
    9.3433    1.0731   -4.3724 C   0  0  0  0  0  0  0  0  0  0  0  0
   10.0127    0.8207   -5.6948 C   0  0  0  0  0  0  0  0  0  0  0  0
    8.0624    3.7390   -2.0749 C   0  0  0  0  0  0  0  0  0  0  0  0
    7.5565    4.2504   -3.2272 F   0  0  0  0  0  0  0  0  0  0  0  0
    7.4523    3.9763   -0.8681 C   0  0  0  0  0  0  0  0  0  0  0  0
    7.4385    4.9404    2.1922 C   0  0  0  0  0  0  0  0  0  0  0  0
    6.8481    5.3241    3.3574 C   0  0  0  0  0  0  0  0  0  0  0  0
    6.0191    4.3553    3.9760 C   0  0  0  0  0  0  0  0  0  0  0  0
    5.2610    4.6648    5.1622 C   0  0  0  0  0  0  0  0  0  0  0  0
    3.9173    4.9596    5.0337 C   0  0  0  0  0  0  0  0  0  0  0  0
    3.1347    5.3251    6.1063 C   0  0  0  0  0  0  0  0  0  0  0  0
    3.7187    5.4018    7.3647 C   0  0  0  0  0  0  0  0  0  0  0  0
    2.7604    5.8848    8.7993 S   0  0  0  0  0  0  0  0  0  0  0  0
    2.7678    7.7068    8.9441 C   0  0  0  0  0  0  0  0  0  0  0  0
    2.0199    8.3143    7.7505 C   0  0  0  0  0  0  0  0  0  0  0  0
    5.0596    5.1091    7.5023 C   0  0  0  0  0  0  0  0  0  0  0  0
    5.8412    4.7368    6.3926 C   0  0  0  0  0  0  0  0  0  0  0  0
    5.6474    5.1832    8.7057 F   0  0  0  0  0  0  0  0  0  0  0  0
    5.8719    3.1145    3.3743 C   0  0  0  0  0  0  0  0  0  0  0  0
    4.9329    1.7440    3.7762 S   0  0  0  0  0  0  0  0  0  0  0  0
    7.0856    6.5678    3.8117 C   0  0  0  0  0  0  0  0  0  0  0  0
    7.9105    7.3539    3.0559 C   0  0  0  0  0  0  0  0  0  0  0  0
    8.3227    6.3530    1.7530 S   0  0  0  0  0  0  0  0  0  0  0  0
   -5.4373   -4.7138    9.7289 H   0  0  0  0  0  0  0  0  0  0  0  0
   -4.1688   -2.5153   10.0071 H   0  0  0  0  0  0  0  0  0  0  0  0
   -1.1582   -1.8211    9.0893 H   0  0  0  0  0  0  0  0  0  0  0  0
   -0.2641   -0.7955   11.2380 H   0  0  0  0  0  0  0  0  0  0  0  0
   -0.3653    3.4150   11.9587 H   0  0  0  0  0  0  0  0  0  0  0  0
    0.9536    2.1657   11.8469 H   0  0  0  0  0  0  0  0  0  0  0  0
    0.8361    4.1882   13.7249 H   0  0  0  0  0  0  0  0  0  0  0  0
    1.8486    2.7127   13.8241 H   0  0  0  0  0  0  0  0  0  0  0  0
    0.2827    2.7917   14.6777 H   0  0  0  0  0  0  0  0  0  0  0  0
   -4.2366    1.0046    8.9873 H   0  0  0  0  0  0  0  0  0  0  0  0
   -2.5264   -4.7084    4.5797 H   0  0  0  0  0  0  0  0  0  0  0  0
   -3.1516   -6.4210    2.9483 H   0  0  0  0  0  0  0  0  0  0  0  0
   -4.8360   -8.8449    0.5056 H   0  0  0  0  0  0  0  0  0  0  0  0
   -3.3995   -7.8883    1.0072 H   0  0  0  0  0  0  0  0  0  0  0  0
   -5.3071   -9.6457    2.6216 H   0  0  0  0  0  0  0  0  0  0  0  0
   -3.5394   -9.3329    2.8771 H   0  0  0  0  0  0  0  0  0  0  0  0
   -4.7550   -8.1276    3.4152 H   0  0  0  0  0  0  0  0  0  0  0  0
   -6.0242   -2.5381    3.8309 H   0  0  0  0  0  0  0  0  0  0  0  0
   -2.8042   -1.2529    3.0968 H   0  0  0  0  0  0  0  0  0  0  0  0
   -2.4074    3.0635    3.3157 H   0  0  0  0  0  0  0  0  0  0  0  0
   -0.8773    5.7660    2.1859 H   0  0  0  0  0  0  0  0  0  0  0  0
   -2.0801    7.6090    3.4090 H   0  0  0  0  0  0  0  0  0  0  0  0
   -5.9176    6.8334    5.1719 H   0  0  0  0  0  0  0  0  0  0  0  0
   -5.8529    8.5130    5.7885 H   0  0  0  0  0  0  0  0  0  0  0  0
   -3.4502    6.6361    5.5401 H   0  0  0  0  0  0  0  0  0  0  0  0
   -3.5322    8.2635    6.4326 H   0  0  0  0  0  0  0  0  0  0  0  0
   -4.4282    6.8440    7.0221 H   0  0  0  0  0  0  0  0  0  0  0  0
   -4.5912    4.4389    0.6268 H   0  0  0  0  0  0  0  0  0  0  0  0
   -1.5210    0.1710   -2.3013 H   0  0  0  0  0  0  0  0  0  0  0  0
   -0.3964   -1.5733   -3.5556 H   0  0  0  0  0  0  0  0  0  0  0  0
    0.6264   -2.4696   -5.5373 H   0  0  0  0  0  0  0  0  0  0  0  0
    0.2986   -3.6195   -4.2085 H   0  0  0  0  0  0  0  0  0  0  0  0
    1.2285   -4.3088   -6.6600 H   0  0  0  0  0  0  0  0  0  0  0  0
    2.8001   -4.1788   -5.7832 H   0  0  0  0  0  0  0  0  0  0  0  0
    1.5603   -5.2742   -5.1265 H   0  0  0  0  0  0  0  0  0  0  0  0
    2.2019    1.4234   -0.6435 H   0  0  0  0  0  0  0  0  0  0  0  0
   -0.4125    2.5178   -3.4458 H   0  0  0  0  0  0  0  0  0  0  0  0
   -0.4324    3.5118   -5.8116 H   0  0  0  0  0  0  0  0  0  0  0  0
    0.2842    0.9451   -5.7455 H   0  0  0  0  0  0  0  0  0  0  0  0
    2.7008    0.8640   -6.1748 H   0  0  0  0  0  0  0  0  0  0  0  0
    4.4898   -0.9998   -8.2325 H   0  0  0  0  0  0  0  0  0  0  0  0
    4.2306   -0.4494   -9.9805 H   0  0  0  0  0  0  0  0  0  0  0  0
    6.6437   -1.2719   -9.0654 H   0  0  0  0  0  0  0  0  0  0  0  0
    6.4042   -0.0025  -10.3064 H   0  0  0  0  0  0  0  0  0  0  0  0
    6.6894    0.4975   -8.5832 H   0  0  0  0  0  0  0  0  0  0  0  0
   -0.4696    2.1368   -9.8272 H   0  0  0  0  0  0  0  0  0  0  0  0
   -5.6401    3.4880   -8.2222 H   0  0  0  0  0  0  0  0  0  0  0  0
   -8.0360    4.1346   -8.0237 H   0  0  0  0  0  0  0  0  0  0  0  0
  -10.8311    2.7699   -8.9087 H   0  0  0  0  0  0  0  0  0  0  0  0
  -12.2751    3.0348   -7.8961 H   0  0  0  0  0  0  0  0  0  0  0  0
  -11.1885    0.5470   -8.8015 H   0  0  0  0  0  0  0  0  0  0  0  0
  -12.6169    0.8190   -7.7683 H   0  0  0  0  0  0  0  0  0  0  0  0
  -11.0164    0.5513   -7.0315 H   0  0  0  0  0  0  0  0  0  0  0  0
   -6.3144    0.2703   -5.5475 H   0  0  0  0  0  0  0  0  0  0  0  0
   -5.4557   -0.9370   -7.7750 H   0  0  0  0  0  0  0  0  0  0  0  0
   -4.8668   -2.7865   -5.9133 H   0  0  0  0  0  0  0  0  0  0  0  0
   -6.2719   -3.7734   -4.5266 H   0  0  0  0  0  0  0  0  0  0  0  0
   -7.4697   -2.0835   -3.1618 H   0  0  0  0  0  0  0  0  0  0  0  0
   -8.0746   -1.8870    0.6586 H   0  0  0  0  0  0  0  0  0  0  0  0
   -6.4258   -1.7593    1.4617 H   0  0  0  0  0  0  0  0  0  0  0  0
   -7.1042   -0.0105    2.6303 H   0  0  0  0  0  0  0  0  0  0  0  0
   -8.7791   -0.2336    2.0229 H   0  0  0  0  0  0  0  0  0  0  0  0
   -7.6044    0.8958    1.1794 H   0  0  0  0  0  0  0  0  0  0  0  0
   -0.7343   -6.1363   -8.2016 H   0  0  0  0  0  0  0  0  0  0  0  0
    0.6617   -8.0087   -8.9945 H   0  0  0  0  0  0  0  0  0  0  0  0
    0.0921  -11.9350   -7.0067 H   0  0  0  0  0  0  0  0  0  0  0  0
    1.5430  -12.6245   -7.8851 H   0  0  0  0  0  0  0  0  0  0  0  0
    0.0157  -10.5489   -9.4249 H   0  0  0  0  0  0  0  0  0  0  0  0
   -0.8449  -12.0617   -9.0263 H   0  0  0  0  0  0  0  0  0  0  0  0
    0.6630  -12.1791   -9.9261 H   0  0  0  0  0  0  0  0  0  0  0  0
    0.3455   -6.8376   -3.4969 H   0  0  0  0  0  0  0  0  0  0  0  0
   -0.2377   -4.9950    0.9731 H   0  0  0  0  0  0  0  0  0  0  0  0
    1.2157   -1.4120    3.6962 H   0  0  0  0  0  0  0  0  0  0  0  0
    0.2300   -1.9659    5.9034 H   0  0  0  0  0  0  0  0  0  0  0  0
    0.0262   -5.7286    8.9042 H   0  0  0  0  0  0  0  0  0  0  0  0
    1.2399   -4.5928    8.2842 H   0  0  0  0  0  0  0  0  0  0  0  0
    2.2027   -6.1456    6.9246 H   0  0  0  0  0  0  0  0  0  0  0  0
    1.5102   -7.3329    8.1340 H   0  0  0  0  0  0  0  0  0  0  0  0
    0.5959   -7.0336    6.6544 H   0  0  0  0  0  0  0  0  0  0  0  0
    4.2268   -4.6118   -2.8272 H   0  0  0  0  0  0  0  0  0  0  0  0
    6.3978   -4.7090   -3.9705 H   0  0  0  0  0  0  0  0  0  0  0  0
    9.6331   -1.6330   -1.6678 H   0  0  0  0  0  0  0  0  0  0  0  0
   11.1148   -2.4778   -2.2548 H   0  0  0  0  0  0  0  0  0  0  0  0
    9.9267   -4.4649   -0.6749 H   0  0  0  0  0  0  0  0  0  0  0  0
    9.4213   -2.9880    0.1983 H   0  0  0  0  0  0  0  0  0  0  0  0
   11.2048   -3.3789   -0.0714 H   0  0  0  0  0  0  0  0  0  0  0  0
    5.7880   -1.1995    0.3926 H   0  0  0  0  0  0  0  0  0  0  0  0
    6.5916    1.0830    0.7797 H   0  0  0  0  0  0  0  0  0  0  0  0
    9.5034    2.3161    1.2148 H   0  0  0  0  0  0  0  0  0  0  0  0
   10.6295    1.8508   -0.9214 H   0  0  0  0  0  0  0  0  0  0  0  0
    8.2411    1.1420   -4.4395 H   0  0  0  0  0  0  0  0  0  0  0  0
    9.5805    0.2132   -3.7089 H   0  0  0  0  0  0  0  0  0  0  0  0
   10.0797    1.7447   -6.3228 H   0  0  0  0  0  0  0  0  0  0  0  0
   11.0513    0.4843   -5.5182 H   0  0  0  0  0  0  0  0  0  0  0  0
    9.5039    0.0075   -6.2649 H   0  0  0  0  0  0  0  0  0  0  0  0
    6.5517    4.5915   -0.7959 H   0  0  0  0  0  0  0  0  0  0  0  0
    3.4300    4.9175    4.0797 H   0  0  0  0  0  0  0  0  0  0  0  0
    2.0891    5.5653    6.0231 H   0  0  0  0  0  0  0  0  0  0  0  0
    2.2994    8.0462    9.8728 H   0  0  0  0  0  0  0  0  0  0  0  0
    3.8069    8.0335    8.8838 H   0  0  0  0  0  0  0  0  0  0  0  0
    0.9229    8.1668    7.8564 H   0  0  0  0  0  0  0  0  0  0  0  0
    2.3338    7.8341    6.7915 H   0  0  0  0  0  0  0  0  0  0  0  0
    2.2484    9.4006    7.6639 H   0  0  0  0  0  0  0  0  0  0  0  0
    6.8725    4.5221    6.5757 H   0  0  0  0  0  0  0  0  0  0  0  0
    6.6685    7.0103    4.7536 H   0  0  0  0  0  0  0  0  0  0  0  0
    8.2039    8.4004    3.2778 H   0  0  0  0  0  0  0  0  0  0  0  0
  1  2  2  0
  2  3  1  0
  3  4  2  0
  4  5  1  0
  5  6  2  0
  6  7  1  0
  7  8  2  0
  8  9  1  0
  9 10  1  0
 10 11  1  0
  8 12  1  0
 12 13  1  0
 12 14  2  0
  4 15  1  0
 15 16  2  0
 16 17  1  0
 17 18  1  0
 18 19  2  0
 19 20  1  0
 20 21  2  0
 21 22  1  0
 22 23  1  0
 23 24  1  0
 21 25  1  0
 25 26  2  0
 25 27  1  0
 17 28  2  0
 28 29  1  0
 16 30  1  0
 30 31  2  0
 31 32  1  0
 31 33  1  0
 33 34  2  0
 34 35  1  0
 35 36  2  0
 36 37  1  0
 37 38  2  0
 38 39  1  0
 39 40  2  0
 40 41  1  0
 41 42  1  0
 42 43  1  0
 40 44  1  0
 44 45  1  0
 44 46  2  0
 36 47  1  0
 47 48  2  0
 48 49  1  0
 49 50  1  0
 50 51  2  0
 51 52  1  0
 52 53  2  0
 53 54  1  0
 54 55  1  0
 55 56  1  0
 53 57  1  0
 57 58  2  0
 57 59  1  0
 49 60  2  0
 60 61  1  0
 48 62  1  0
 62 63  2  0
 63 64  1  0
 63 65  1  0
 65 66  2  0
 66 67  1  0
 67 68  2  0
 68 69  1  0
 69 70  2  0
 70 71  1  0
 71 72  2  0
 72 73  1  0
 73 74  1  0
 74 75  1  0
 72 76  1  0
 76 77  1  0
 76 78  2  0
 68 79  1  0
 79 80  2  0
 80 81  1  0
 81 82  1  0
 82 83  2  0
 83 84  1  0
 84 85  2  0
 85 86  1  0
 86 87  1  0
 87 88  1  0
 85 89  1  0
 89 90  2  0
 89 91  1  0
 81 92  2  0
 92 93  1  0
 80 94  1  0
 94 95  2  0
 95 96  1  0
 95 97  1  0
 97 98  2  0
 98 99  1  0
 99100  2  0
100101  1  0
101102  2  0
102103  1  0
103104  2  0
104105  1  0
105106  1  0
106107  1  0
104108  1  0
100109  1  0
109110  2  0
110111  1  0
111112  1  0
112113  2  0
113114  1  0
114115  2  0
115116  1  0
116117  1  0
117118  1  0
115119  1  0
111120  2  0
120121  1  0
110122  1  0
122123  2  0
123124  1  0
123125  1  0
125126  2  0
126127  1  0
127128  2  0
128129  1  0
129130  2  0
130131  1  0
131132  2  0
132133  1  0
133134  1  0
134135  1  0
132136  1  0
128137  1  0
137138  2  0
138139  1  0
139140  1  0
140141  2  0
141142  1  0
142143  2  0
143144  1  0
144145  1  0
145146  1  0
143147  1  0
139148  2  0
148149  1  0
138150  1  0
150151  2  0
151152  1  0
151153  1  0
153154  2  0
154155  1  0
155156  2  0
156157  1  0
157158  2  0
158159  1  0
159160  2  0
160161  1  0
161162  1  0
162163  1  0
160164  1  0
164165  1  0
164166  2  0
156167  1  0
167168  2  0
168169  1  0
169170  1  0
170171  2  0
171172  1  0
172173  2  0
173174  1  0
174175  1  0
175176  1  0
173177  1  0
177178  2  0
177179  1  0
169180  2  0
180181  1  0
168182  1  0
182183  2  0
183184  1  0
 29  1  1  0
 61 33  1  0
 93 65  1  0
121 97  1  0
149125  1  0
181153  1  0
 28  3  1  0
 60 35  1  0
 92 67  1  0
120 99  1  0
148127  1  0
180155  1  0
 14  5  1  0
 32 15  1  0
 46 37  1  0
 64 47  1  0
 78 69  1  0
 96 79  1  0
108101  1  0
124109  1  0
136129  1  0
152137  1  0
166157  1  0
184167  1  0
 26 18  1  0
 58 50  1  0
 90 82  1  0
119112  1  0
147140  1  0
178170  1  0
  1185  1  0
  2186  1  0
  6187  1  0
  7188  1  0
 10189  1  0
 10190  1  0
 11191  1  0
 11192  1  0
 11193  1  0
 14194  1  0
 19195  1  0
 20196  1  0
 23197  1  0
 23198  1  0
 24199  1  0
 24200  1  0
 24201  1  0
 26202  1  0
 30203  1  0
 34204  1  0
 38205  1  0
 39206  1  0
 42207  1  0
 42208  1  0
 43209  1  0
 43210  1  0
 43211  1  0
 46212  1  0
 51213  1  0
 52214  1  0
 55215  1  0
 55216  1  0
 56217  1  0
 56218  1  0
 56219  1  0
 58220  1  0
 62221  1  0
 66222  1  0
 70223  1  0
 71224  1  0
 74225  1  0
 74226  1  0
 75227  1  0
 75228  1  0
 75229  1  0
 78230  1  0
 83231  1  0
 84232  1  0
 87233  1  0
 87234  1  0
 88235  1  0
 88236  1  0
 88237  1  0
 90238  1  0
 94239  1  0
 98240  1  0
102241  1  0
103242  1  0
106243  1  0
106244  1  0
107245  1  0
107246  1  0
107247  1  0
113248  1  0
114249  1  0
117250  1  0
117251  1  0
118252  1  0
118253  1  0
118254  1  0
122255  1  0
126256  1  0
130257  1  0
131258  1  0
134259  1  0
134260  1  0
135261  1  0
135262  1  0
135263  1  0
141264  1  0
142265  1  0
145266  1  0
145267  1  0
146268  1  0
146269  1  0
146270  1  0
150271  1  0
154272  1  0
158273  1  0
159274  1  0
162275  1  0
162276  1  0
163277  1  0
163278  1  0
163279  1  0
166280  1  0
171281  1  0
172282  1  0
175283  1  0
175284  1  0
176285  1  0
176286  1  0
176287  1  0
178288  1  0
182289  1  0
183290  1  0
M  END

