
     RDKit          3D

284313  0  0  0  0  0  0  0  0999 V2000
   -6.2471   -0.2710    6.6801 C   0  0  0  0  0  0  0  0  0  0  0  0
   -6.7347    0.7233    5.8974 C   0  0  0  0  0  0  0  0  0  0  0  0
   -7.5642    0.3777    4.8823 C   0  0  0  0  0  0  0  0  0  0  0  0
   -8.1207    1.2211    3.9549 C   0  0  0  0  0  0  0  0  0  0  0  0
   -7.8536    2.6341    3.7577 C   0  0  0  0  0  0  0  0  0  0  0  0
   -6.8229    2.8735    2.8224 C   0  0  0  0  0  0  0  0  0  0  0  0
   -6.4614    4.0996    2.3841 C   0  0  0  0  0  0  0  0  0  0  0  0
   -7.1370    5.2362    2.8695 C   0  0  0  0  0  0  0  0  0  0  0  0
   -6.7617    6.7781    2.1363 S   0  0  0  0  0  0  0  0  0  0  0  0
   -5.3385    7.6808    2.6311 C   0  0  0  0  0  0  0  0  0  0  0  0
   -5.2633    8.9390    1.7333 C   0  0  0  0  0  0  0  0  0  0  0  0
   -8.1264    5.0186    3.7773 C   0  0  0  0  0  0  0  0  0  0  0  0
   -8.7889    6.1200    4.2531 F   0  0  0  0  0  0  0  0  0  0  0  0
   -8.4809    3.7249    4.2159 C   0  0  0  0  0  0  0  0  0  0  0  0
   -8.9341    0.6886    2.9185 C   0  0  0  0  0  0  0  0  0  0  0  0
   -9.2025   -0.6473    2.7542 C   0  0  0  0  0  0  0  0  0  0  0  0
   -8.6387   -1.4928    3.7026 C   0  0  0  0  0  0  0  0  0  0  0  0
   -8.7945   -2.9313    3.8088 C   0  0  0  0  0  0  0  0  0  0  0  0
  -10.0094   -3.5604    3.9934 C   0  0  0  0  0  0  0  0  0  0  0  0
  -10.0462   -4.9144    4.2558 C   0  0  0  0  0  0  0  0  0  0  0  0
   -8.9590   -5.7218    4.3536 C   0  0  0  0  0  0  0  0  0  0  0  0
   -9.0828   -7.4249    4.7771 S   0  0  0  0  0  0  0  0  0  0  0  0
   -7.5885   -8.3531    4.9812 C   0  0  0  0  0  0  0  0  0  0  0  0
   -6.8205   -8.6569    3.7278 C   0  0  0  0  0  0  0  0  0  0  0  0
   -7.6929   -5.1280    4.1583 C   0  0  0  0  0  0  0  0  0  0  0  0
   -7.6844   -3.7762    3.8990 C   0  0  0  0  0  0  0  0  0  0  0  0
   -6.6043   -5.8796    4.2395 F   0  0  0  0  0  0  0  0  0  0  0  0
   -7.8451   -0.9375    4.7253 C   0  0  0  0  0  0  0  0  0  0  0  0
   -6.9500   -1.6791    5.9997 S   0  0  0  0  0  0  0  0  0  0  0  0
   -9.9279   -0.9607    1.6155 C   0  0  0  0  0  0  0  0  0  0  0  0
  -10.2809    0.0091    0.8094 C   0  0  0  0  0  0  0  0  0  0  0  0
   -9.6504    1.4310    1.5903 S   0  0  0  0  0  0  0  0  0  0  0  0
  -10.6342    0.0923   -0.6463 C   0  0  0  0  0  0  0  0  0  0  0  0
  -10.8521    1.2135   -1.3736 C   0  0  0  0  0  0  0  0  0  0  0  0
  -10.7091    1.1285   -2.7270 C   0  0  0  0  0  0  0  0  0  0  0  0
  -10.5332    2.2545   -3.6012 C   0  0  0  0  0  0  0  0  0  0  0  0
  -10.9249    3.5867   -3.2931 C   0  0  0  0  0  0  0  0  0  0  0  0
  -10.2232    4.5977   -2.6636 C   0  0  0  0  0  0  0  0  0  0  0  0
  -10.6904    5.8650   -2.4624 C   0  0  0  0  0  0  0  0  0  0  0  0
  -11.9677    6.2738   -2.8940 C   0  0  0  0  0  0  0  0  0  0  0  0
  -12.4977    7.9476   -2.7669 S   0  0  0  0  0  0  0  0  0  0  0  0
  -13.2310    8.3978   -1.2256 C   0  0  0  0  0  0  0  0  0  0  0  0
  -14.5724    7.7788   -0.9111 C   0  0  0  0  0  0  0  0  0  0  0  0
  -12.7031    5.2726   -3.5314 C   0  0  0  0  0  0  0  0  0  0  0  0
  -13.9629    5.6499   -3.9356 F   0  0  0  0  0  0  0  0  0  0  0  0
  -12.2058    4.0180   -3.7158 C   0  0  0  0  0  0  0  0  0  0  0  0
  -10.0117    2.0111   -4.8764 C   0  0  0  0  0  0  0  0  0  0  0  0
   -9.6678    0.8370   -5.4037 C   0  0  0  0  0  0  0  0  0  0  0  0
   -9.8788   -0.2846   -4.5046 C   0  0  0  0  0  0  0  0  0  0  0  0
   -9.3468   -1.5913   -4.8646 C   0  0  0  0  0  0  0  0  0  0  0  0
   -7.9319   -1.6016   -4.8110 C   0  0  0  0  0  0  0  0  0  0  0  0
   -7.2833   -2.7932   -5.1527 C   0  0  0  0  0  0  0  0  0  0  0  0
   -8.0125   -3.9331   -5.5390 C   0  0  0  0  0  0  0  0  0  0  0  0
   -7.0770   -5.3749   -6.0537 S   0  0  0  0  0  0  0  0  0  0  0  0
   -6.5258   -6.4055   -4.7010 C   0  0  0  0  0  0  0  0  0  0  0  0
   -5.5506   -7.4426   -5.2316 C   0  0  0  0  0  0  0  0  0  0  0  0
   -9.3613   -3.8663   -5.5778 C   0  0  0  0  0  0  0  0  0  0  0  0
  -10.0399   -2.6494   -5.2273 C   0  0  0  0  0  0  0  0  0  0  0  0
  -10.0739   -4.9453   -5.9382 F   0  0  0  0  0  0  0  0  0  0  0  0
  -10.3747   -0.0721   -3.2377 C   0  0  0  0  0  0  0  0  0  0  0  0
  -10.2781   -1.0935   -1.8087 S   0  0  0  0  0  0  0  0  0  0  0  0
   -8.7901    0.7921   -6.4531 C   0  0  0  0  0  0  0  0  0  0  0  0
   -8.3003    2.0384   -6.8623 C   0  0  0  0  0  0  0  0  0  0  0  0
   -9.0699    3.1332   -5.8876 S   0  0  0  0  0  0  0  0  0  0  0  0
   -6.8350    2.0673   -7.4190 C   0  0  0  0  0  0  0  0  0  0  0  0
   -6.1336    0.9858   -7.7971 C   0  0  0  0  0  0  0  0  0  0  0  0
   -4.7883    1.0160   -7.5486 C   0  0  0  0  0  0  0  0  0  0  0  0
   -3.9797   -0.1556   -7.5022 C   0  0  0  0  0  0  0  0  0  0  0  0
   -4.4014   -1.3793   -8.0642 C   0  0  0  0  0  0  0  0  0  0  0  0
   -5.2564   -2.1934   -8.5546 C   0  0  0  0  0  0  0  0  0  0  0  0
   -5.1162   -3.3600   -9.1885 C   0  0  0  0  0  0  0  0  0  0  0  0
   -3.9229   -3.9131   -9.4306 C   0  0  0  0  0  0  0  0  0  0  0  0
   -3.3948   -5.3913  -10.2649 S   0  0  0  0  0  0  0  0  0  0  0  0
   -1.5748   -5.5465  -10.1969 C   0  0  0  0  0  0  0  0  0  0  0  0
   -1.0660   -5.8776   -8.8342 C   0  0  0  0  0  0  0  0  0  0  0  0
   -2.6786   -2.6198   -8.6508 Se  0  0  0  0  0  2  0  0  0  0  0  0
   -2.7540   -0.0630   -6.8387 C   0  0  0  0  0  0  0  0  0  0  0  0
   -2.2244    1.0275   -6.2259 C   0  0  0  0  0  0  0  0  0  0  0  0
   -3.0087    2.1698   -6.3127 C   0  0  0  0  0  0  0  0  0  0  0  0
   -2.7499    3.4434   -5.6453 C   0  0  0  0  0  0  0  0  0  0  0  0
   -3.2272    4.6748   -5.9302 C   0  0  0  0  0  0  0  0  0  0  0  0
   -3.0411    5.7269   -5.1641 C   0  0  0  0  0  0  0  0  0  0  0  0
   -2.3305    5.6464   -3.9839 C   0  0  0  0  0  0  0  0  0  0  0  0
   -1.9845    6.7976   -2.7306 S   0  0  0  0  0  0  0  0  0  0  0  0
   -0.6272    7.9178   -2.9615 C   0  0  0  0  0  0  0  0  0  0  0  0
    0.7282    7.2205   -2.9674 C   0  0  0  0  0  0  0  0  0  0  0  0
   -1.8696    3.7472   -4.0407 Se  0  0  0  0  0  2  0  0  0  0  0  0
   -4.2598    2.0967   -6.9759 C   0  0  0  0  0  0  0  0  0  0  0  0
   -5.6620    3.1408   -6.7797 S   0  0  0  0  0  0  0  0  0  0  0  0
   -1.1613    0.7985   -5.4252 C   0  0  0  0  0  0  0  0  0  0  0  0
   -0.7051   -0.4546   -5.2770 C   0  0  0  0  0  0  0  0  0  0  0  0
   -1.7319   -1.3622   -6.2817 S   0  0  0  0  0  0  0  0  0  0  0  0
    0.1266   -1.0254   -4.1842 C   0  0  0  0  0  0  0  0  0  0  0  0
    0.6468   -2.2718   -4.0053 C   0  0  0  0  0  0  0  0  0  0  0  0
    1.2216   -2.5456   -2.8265 C   0  0  0  0  0  0  0  0  0  0  0  0
    1.8230   -3.7621   -2.4060 C   0  0  0  0  0  0  0  0  0  0  0  0
    1.8901   -4.9827   -3.1958 C   0  0  0  0  0  0  0  0  0  0  0  0
    1.6680   -5.3921   -4.4343 C   0  0  0  0  0  0  0  0  0  0  0  0
    1.7014   -6.6717   -4.8379 C   0  0  0  0  0  0  0  0  0  0  0  0
    1.9733   -7.6867   -4.0304 C   0  0  0  0  0  0  0  0  0  0  0  0
    2.1289   -9.4433   -4.1639 S   0  0  0  0  0  0  0  0  0  0  0  0
    0.5836  -10.3179   -3.8423 C   0  0  0  0  0  0  0  0  0  0  0  0
    0.7509  -11.8013   -4.0165 C   0  0  0  0  0  0  0  0  0  0  0  0
    2.2447   -6.6871   -2.3354 Se  0  0  0  0  0  2  0  0  0  0  0  0
    2.3685   -3.8280   -1.1333 C   0  0  0  0  0  0  0  0  0  0  0  0
    2.3781   -2.8292   -0.2060 C   0  0  0  0  0  0  0  0  0  0  0  0
    1.7750   -1.6369   -0.6404 C   0  0  0  0  0  0  0  0  0  0  0  0
    1.5655   -0.5304    0.2524 C   0  0  0  0  0  0  0  0  0  0  0  0
    1.3065    0.7533    0.1341 C   0  0  0  0  0  0  0  0  0  0  0  0
    1.0229    1.6019    1.0935 C   0  0  0  0  0  0  0  0  0  0  0  0
    0.9679    1.1946    2.4020 C   0  0  0  0  0  0  0  0  0  0  0  0
    0.6293    2.0159    3.9202 S   0  0  0  0  0  0  0  0  0  0  0  0
    0.5744    0.8890    5.3173 C   0  0  0  0  0  0  0  0  0  0  0  0
   -0.6119   -0.0622    5.2418 C   0  0  0  0  0  0  0  0  0  0  0  0
    1.3899   -0.6946    2.1935 Se  0  0  0  0  0  2  0  0  0  0  0  0
    1.2407   -1.5392   -1.9006 C   0  0  0  0  0  0  0  0  0  0  0  0
    0.4574   -0.2362   -2.7118 S   0  0  0  0  0  0  0  0  0  0  0  0
    3.1039   -3.0165    0.9089 C   0  0  0  0  0  0  0  0  0  0  0  0
    3.8011   -4.2252    1.0150 C   0  0  0  0  0  0  0  0  0  0  0  0
    3.3986   -5.0124   -0.3748 S   0  0  0  0  0  0  0  0  0  0  0  0
    4.8807   -4.3480    2.0789 C   0  0  0  0  0  0  0  0  0  0  0  0
    6.1904   -4.6123    1.7021 C   0  0  0  0  0  0  0  0  0  0  0  0
    7.1553   -4.1442    2.5127 C   0  0  0  0  0  0  0  0  0  0  0  0
    8.5495   -3.9698    2.1464 C   0  0  0  0  0  0  0  0  0  0  0  0
    8.9541   -4.6136    0.8993 C   0  0  0  0  0  0  0  0  0  0  0  0
    9.4719   -5.8796    0.9254 C   0  0  0  0  0  0  0  0  0  0  0  0
    9.7092   -6.5808   -0.3058 C   0  0  0  0  0  0  0  0  0  0  0  0
    9.4100   -5.9654   -1.4872 C   0  0  0  0  0  0  0  0  0  0  0  0
    9.6195   -6.8024   -3.0652 S   0  0  0  0  0  0  0  0  0  0  0  0
   11.2729   -6.6400   -3.7360 C   0  0  0  0  0  0  0  0  0  0  0  0
   11.6422   -5.1947   -4.0422 C   0  0  0  0  0  0  0  0  0  0  0  0
    8.8956   -4.6964   -1.4785 C   0  0  0  0  0  0  0  0  0  0  0  0
    8.5769   -4.0547   -2.6173 F   0  0  0  0  0  0  0  0  0  0  0  0
    8.6633   -4.0028   -0.2957 C   0  0  0  0  0  0  0  0  0  0  0  0
    9.3748   -3.1850    2.8801 C   0  0  0  0  0  0  0  0  0  0  0  0
    8.9858   -2.5175    4.0072 C   0  0  0  0  0  0  0  0  0  0  0  0
    7.6076   -2.6960    4.4077 C   0  0  0  0  0  0  0  0  0  0  0  0
    7.1478   -2.0732    5.6167 C   0  0  0  0  0  0  0  0  0  0  0  0
    7.5191   -2.7281    6.7892 C   0  0  0  0  0  0  0  0  0  0  0  0
    7.1975   -2.2145    8.0418 C   0  0  0  0  0  0  0  0  0  0  0  0
    6.4875   -1.0235    8.1650 C   0  0  0  0  0  0  0  0  0  0  0  0
    6.0984   -0.3764    9.7995 S   0  0  0  0  0  0  0  0  0  0  0  0
    4.5565   -1.1017   10.4300 C   0  0  0  0  0  0  0  0  0  0  0  0
    4.6850   -2.5907   10.7085 C   0  0  0  0  0  0  0  0  0  0  0  0
    6.1252   -0.3890    6.9981 C   0  0  0  0  0  0  0  0  0  0  0  0
    6.4501   -0.9085    5.7440 C   0  0  0  0  0  0  0  0  0  0  0  0
    5.4493    0.7796    7.1017 F   0  0  0  0  0  0  0  0  0  0  0  0
    6.8018   -3.4785    3.6339 C   0  0  0  0  0  0  0  0  0  0  0  0
    5.0478   -3.5177    3.5245 S   0  0  0  0  0  0  0  0  0  0  0  0
    9.7942   -1.5796    4.4956 C   0  0  0  0  0  0  0  0  0  0  0  0
   10.9855   -1.3250    3.8251 C   0  0  0  0  0  0  0  0  0  0  0  0
   10.9282   -2.4348    2.5594 S   0  0  0  0  0  0  0  0  0  0  0  0
   11.6850    0.0111    4.0146 C   0  0  0  0  0  0  0  0  0  0  0  0
   10.8234    1.1457    3.7473 C   0  0  0  0  0  0  0  0  0  0  0  0
   11.3431    2.3478    3.7759 C   0  0  0  0  0  0  0  0  0  0  0  0
   10.6918    3.5555    3.5039 C   0  0  0  0  0  0  0  0  0  0  0  0
    9.2470    3.5725    3.2168 C   0  0  0  0  0  0  0  0  0  0  0  0
    8.2353    2.7839    3.4953 C   0  0  0  0  0  0  0  0  0  0  0  0
    7.0178    2.9465    2.8474 C   0  0  0  0  0  0  0  0  0  0  0  0
    6.8172    3.8611    1.9518 C   0  0  0  0  0  0  0  0  0  0  0  0
    5.4404    4.2609    0.8388 S   0  0  0  0  0  0  0  0  0  0  0  0
    5.6973    3.3471   -0.7383 C   0  0  0  0  0  0  0  0  0  0  0  0
    5.6927    1.8587   -0.5333 C   0  0  0  0  0  0  0  0  0  0  0  0
    8.5449    4.7620    1.8836 Se  0  0  0  0  0  2  0  0  0  0  0  0
   11.4042    4.7156    3.5381 C   0  0  0  0  0  0  0  0  0  0  0  0
   12.7299    4.8470    3.8240 C   0  0  0  0  0  0  0  0  0  0  0  0
   13.3981    3.6388    4.0991 C   0  0  0  0  0  0  0  0  0  0  0  0
   14.7388    3.5815    4.6594 C   0  0  0  0  0  0  0  0  0  0  0  0
   15.6169    4.3446    5.2831 C   0  0  0  0  0  0  0  0  0  0  0  0
   16.8295    3.9451    5.6813 C   0  0  0  0  0  0  0  0  0  0  0  0
   17.3012    2.7045    5.4832 C   0  0  0  0  0  0  0  0  0  0  0  0
   18.7811    1.8277    5.8602 S   0  0  0  0  0  0  0  0  0  0  0  0
   19.9534    2.2499    4.4833 C   0  0  0  0  0  0  0  0  0  0  0  0
   19.3696    1.7280    3.1819 C   0  0  0  0  0  0  0  0  0  0  0  0
   15.7601    1.8963    4.5546 Se  0  0  0  0  0  2  0  0  0  0  0  0
   12.6770    2.4349    4.0568 C   0  0  0  0  0  0  0  0  0  0  0  0
   13.1092    0.7662    4.2630 S   0  0  0  0  0  0  0  0  0  0  0  0
   13.2456    6.0889    3.7971 C   0  0  0  0  0  0  0  0  0  0  0  0
   12.4039    7.1261    3.4899 C   0  0  0  0  0  0  0  0  0  0  0  0
   10.9091    6.3470    3.2413 S   0  0  0  0  0  0  0  0  0  0  0  0
   -5.5583   -0.1743    7.5373 H   0  0  0  0  0  0  0  0  0  0  0  0
   -6.4282    1.7807    6.1118 H   0  0  0  0  0  0  0  0  0  0  0  0
   -6.2729    2.0118    2.4092 H   0  0  0  0  0  0  0  0  0  0  0  0
   -5.6662    4.2913    1.6714 H   0  0  0  0  0  0  0  0  0  0  0  0
   -4.3944    7.1080    2.4134 H   0  0  0  0  0  0  0  0  0  0  0  0
   -5.2905    8.0174    3.6693 H   0  0  0  0  0  0  0  0  0  0  0  0
   -5.8283    9.7854    2.1630 H   0  0  0  0  0  0  0  0  0  0  0  0
   -4.2108    9.2737    1.6494 H   0  0  0  0  0  0  0  0  0  0  0  0
   -5.6822    8.7574    0.7322 H   0  0  0  0  0  0  0  0  0  0  0  0
   -9.2794    3.5946    4.9341 H   0  0  0  0  0  0  0  0  0  0  0  0
  -10.9210   -2.9871    3.9289 H   0  0  0  0  0  0  0  0  0  0  0  0
  -11.0351   -5.4079    4.4018 H   0  0  0  0  0  0  0  0  0  0  0  0
   -6.8730   -7.8215    5.6932 H   0  0  0  0  0  0  0  0  0  0  0  0
   -7.7618   -9.3302    5.5337 H   0  0  0  0  0  0  0  0  0  0  0  0
   -7.2268   -8.0697    2.8928 H   0  0  0  0  0  0  0  0  0  0  0  0
   -5.7439   -8.3682    3.8672 H   0  0  0  0  0  0  0  0  0  0  0  0
   -6.8808   -9.7603    3.5233 H   0  0  0  0  0  0  0  0  0  0  0  0
   -6.6950   -3.3318    3.7620 H   0  0  0  0  0  0  0  0  0  0  0  0
  -10.1835   -2.0489    1.4147 H   0  0  0  0  0  0  0  0  0  0  0  0
  -11.1290    2.1564   -0.8684 H   0  0  0  0  0  0  0  0  0  0  0  0
   -9.2256    4.3020   -2.3247 H   0  0  0  0  0  0  0  0  0  0  0  0
  -10.1138    6.6335   -1.9587 H   0  0  0  0  0  0  0  0  0  0  0  0
  -12.5548    8.2576   -0.3431 H   0  0  0  0  0  0  0  0  0  0  0  0
  -13.4378    9.5132   -1.2571 H   0  0  0  0  0  0  0  0  0  0  0  0
  -14.9433    7.1121   -1.6936 H   0  0  0  0  0  0  0  0  0  0  0  0
  -15.3863    8.5616   -0.7439 H   0  0  0  0  0  0  0  0  0  0  0  0
  -14.5154    7.2670    0.0702 H   0  0  0  0  0  0  0  0  0  0  0  0
  -12.8205    3.2519   -4.2214 H   0  0  0  0  0  0  0  0  0  0  0  0
   -7.3790   -0.7401   -4.5198 H   0  0  0  0  0  0  0  0  0  0  0  0
   -6.2153   -2.8529   -5.1309 H   0  0  0  0  0  0  0  0  0  0  0  0
   -6.1070   -5.8084   -3.9051 H   0  0  0  0  0  0  0  0  0  0  0  0
   -7.4019   -6.9610   -4.2473 H   0  0  0  0  0  0  0  0  0  0  0  0
   -4.9710   -7.8080   -4.3408 H   0  0  0  0  0  0  0  0  0  0  0  0
   -6.1125   -8.2377   -5.7066 H   0  0  0  0  0  0  0  0  0  0  0  0
   -4.8213   -6.9301   -5.8919 H   0  0  0  0  0  0  0  0  0  0  0  0
  -11.1130   -2.6628   -5.2686 H   0  0  0  0  0  0  0  0  0  0  0  0
   -8.4967   -0.1081   -6.9638 H   0  0  0  0  0  0  0  0  0  0  0  0
   -6.6757    0.1972   -8.2897 H   0  0  0  0  0  0  0  0  0  0  0  0
   -6.3783   -1.8674   -8.3796 H   0  0  0  0  0  0  0  0  0  0  0  0
   -6.0136   -3.9595   -9.5587 H   0  0  0  0  0  0  0  0  0  0  0  0
   -1.1415   -4.5433  -10.4771 H   0  0  0  0  0  0  0  0  0  0  0  0
   -1.2729   -6.2435  -10.9710 H   0  0  0  0  0  0  0  0  0  0  0  0
   -0.1392   -5.3152   -8.6540 H   0  0  0  0  0  0  0  0  0  0  0  0
   -1.8462   -5.6165   -8.0561 H   0  0  0  0  0  0  0  0  0  0  0  0
   -0.8619   -6.9802   -8.7352 H   0  0  0  0  0  0  0  0  0  0  0  0
   -3.8035    4.7718   -6.9098 H   0  0  0  0  0  0  0  0  0  0  0  0
   -3.4363    6.7608   -5.4009 H   0  0  0  0  0  0  0  0  0  0  0  0
   -0.6446    8.6426   -2.0937 H   0  0  0  0  0  0  0  0  0  0  0  0
   -0.7270    8.5786   -3.8627 H   0  0  0  0  0  0  0  0  0  0  0  0
    0.9391    6.7980   -3.9809 H   0  0  0  0  0  0  0  0  0  0  0  0
    0.7191    6.4421   -2.2006 H   0  0  0  0  0  0  0  0  0  0  0  0
    1.5539    7.9506   -2.7221 H   0  0  0  0  0  0  0  0  0  0  0  0
   -0.6375    1.6224   -4.8794 H   0  0  0  0  0  0  0  0  0  0  0  0
    0.5246   -2.9700   -4.8604 H   0  0  0  0  0  0  0  0  0  0  0  0
    1.4867   -4.6021   -5.2346 H   0  0  0  0  0  0  0  0  0  0  0  0
    1.4744   -6.9501   -5.9292 H   0  0  0  0  0  0  0  0  0  0  0  0
   -0.1898   -9.9530   -4.5800 H   0  0  0  0  0  0  0  0  0  0  0  0
    0.1767  -10.0338   -2.8279 H   0  0  0  0  0  0  0  0  0  0  0  0
    0.0499  -12.3215   -3.3543 H   0  0  0  0  0  0  0  0  0  0  0  0
    1.7683  -12.1438   -3.7324 H   0  0  0  0  0  0  0  0  0  0  0  0
    0.5376  -12.0456   -5.0891 H   0  0  0  0  0  0  0  0  0  0  0  0
    1.3505    1.1819   -0.9489 H   0  0  0  0  0  0  0  0  0  0  0  0
    0.8081    2.7089    0.9447 H   0  0  0  0  0  0  0  0  0  0  0  0
    0.5583    1.4635    6.2535 H   0  0  0  0  0  0  0  0  0  0  0  0
    1.5229    0.3025    5.3396 H   0  0  0  0  0  0  0  0  0  0  0  0
   -0.9573   -0.4108    6.2277 H   0  0  0  0  0  0  0  0  0  0  0  0
   -1.4429    0.5521    4.8002 H   0  0  0  0  0  0  0  0  0  0  0  0
   -0.3964   -0.8634    4.5087 H   0  0  0  0  0  0  0  0  0  0  0  0
    3.1956   -2.2821    1.7295 H   0  0  0  0  0  0  0  0  0  0  0  0
    6.3544   -5.1953    0.7802 H   0  0  0  0  0  0  0  0  0  0  0  0
    9.7166   -6.4231    1.8106 H   0  0  0  0  0  0  0  0  0  0  0  0
   10.1211   -7.5893   -0.2769 H   0  0  0  0  0  0  0  0  0  0  0  0
   11.2652   -7.1709   -4.7270 H   0  0  0  0  0  0  0  0  0  0  0  0
   12.0328   -7.1276   -3.1131 H   0  0  0  0  0  0  0  0  0  0  0  0
   12.4496   -4.8141   -3.3862 H   0  0  0  0  0  0  0  0  0  0  0  0
   11.9925   -5.0964   -5.0837 H   0  0  0  0  0  0  0  0  0  0  0  0
   10.7516   -4.5566   -3.9159 H   0  0  0  0  0  0  0  0  0  0  0  0
    8.2452   -3.0088   -0.2570 H   0  0  0  0  0  0  0  0  0  0  0  0
    8.0713   -3.6429    6.7235 H   0  0  0  0  0  0  0  0  0  0  0  0
    7.4853   -2.7107    8.9674 H   0  0  0  0  0  0  0  0  0  0  0  0
    3.6909   -0.9335    9.7626 H   0  0  0  0  0  0  0  0  0  0  0  0
    4.3269   -0.5868   11.3755 H   0  0  0  0  0  0  0  0  0  0  0  0
    5.1839   -2.7542   11.6693 H   0  0  0  0  0  0  0  0  0  0  0  0
    5.1175   -3.1604    9.8750 H   0  0  0  0  0  0  0  0  0  0  0  0
    3.6449   -2.9837   10.8251 H   0  0  0  0  0  0  0  0  0  0  0  0
    6.1735   -0.4077    4.8282 H   0  0  0  0  0  0  0  0  0  0  0  0
    9.6021   -0.9750    5.4114 H   0  0  0  0  0  0  0  0  0  0  0  0
    9.7809    0.8767    3.4836 H   0  0  0  0  0  0  0  0  0  0  0  0
    8.3095    2.0065    4.3117 H   0  0  0  0  0  0  0  0  0  0  0  0
    6.1787    2.2332    3.1254 H   0  0  0  0  0  0  0  0  0  0  0  0
    6.6755    3.6322   -1.1917 H   0  0  0  0  0  0  0  0  0  0  0  0
    4.9229    3.6275   -1.4607 H   0  0  0  0  0  0  0  0  0  0  0  0
    6.7180    1.4780   -0.8685 H   0  0  0  0  0  0  0  0  0  0  0  0
    5.6142    1.5936    0.5475 H   0  0  0  0  0  0  0  0  0  0  0  0
    4.9615    1.3788   -1.1772 H   0  0  0  0  0  0  0  0  0  0  0  0
   15.3131    5.4196    5.5472 H   0  0  0  0  0  0  0  0  0  0  0  0
   17.5466    4.6578    6.2273 H   0  0  0  0  0  0  0  0  0  0  0  0
   20.9306    1.8107    4.6539 H   0  0  0  0  0  0  0  0  0  0  0  0
   20.0325    3.3502    4.4246 H   0  0  0  0  0  0  0  0  0  0  0  0
   19.5266    2.5217    2.4171 H   0  0  0  0  0  0  0  0  0  0  0  0
   19.7930    0.7902    2.8239 H   0  0  0  0  0  0  0  0  0  0  0  0
   18.2528    1.6462    3.2677 H   0  0  0  0  0  0  0  0  0  0  0  0
   14.3005    6.3429    3.9775 H   0  0  0  0  0  0  0  0  0  0  0  0
   12.6357    8.1963    3.4303 H   0  0  0  0  0  0  0  0  0  0  0  0
  1  2  2  0
  2  3  1  0
  3  4  2  0
  4  5  1  0
  5  6  2  0
  6  7  1  0
  7  8  2  0
  8  9  1  0
  9 10  1  0
 10 11  1  0
  8 12  1  0
 12 13  1  0
 12 14  2  0
  4 15  1  0
 15 16  2  0
 16 17  1  0
 17 18  1  0
 18 19  2  0
 19 20  1  0
 20 21  2  0
 21 22  1  0
 22 23  1  0
 23 24  1  0
 21 25  1  0
 25 26  2  0
 25 27  1  0
 17 28  2  0
 28 29  1  0
 16 30  1  0
 30 31  2  0
 31 32  1  0
 31 33  1  0
 33 34  2  0
 34 35  1  0
 35 36  2  0
 36 37  1  0
 37 38  2  0
 38 39  1  0
 39 40  2  0
 40 41  1  0
 41 42  1  0
 42 43  1  0
 40 44  1  0
 44 45  1  0
 44 46  2  0
 36 47  1  0
 47 48  2  0
 48 49  1  0
 49 50  1  0
 50 51  2  0
 51 52  1  0
 52 53  2  0
 53 54  1  0
 54 55  1  0
 55 56  1  0
 53 57  1  0
 57 58  2  0
 57 59  1  0
 49 60  2  0
 60 61  1  0
 48 62  1  0
 62 63  2  0
 63 64  1  0
 63 65  1  0
 65 66  2  0
 66 67  1  0
 67 68  2  0
 68 69  1  0
 69 70  2  0
 70 71  1  0
 71 72  2  0
 72 73  1  0
 73 74  1  0
 74 75  1  0
 72 76  1  0
 68 77  1  0
 77 78  2  0
 78 79  1  0
 79 80  1  0
 80 81  2  0
 81 82  1  0
 82 83  2  0
 83 84  1  0
 84 85  1  0
 85 86  1  0
 83 87  1  0
 79 88  2  0
 88 89  1  0
 78 90  1  0
 90 91  2  0
 91 92  1  0
 91 93  1  0
 93 94  2  0
 94 95  1  0
 95 96  2  0
 96 97  1  0
 97 98  2  0
 98 99  1  0
 99100  2  0
100101  1  0
101102  1  0
102103  1  0
100104  1  0
 96105  1  0
105106  2  0
106107  1  0
107108  1  0
108109  2  0
109110  1  0
110111  2  0
111112  1  0
112113  1  0
113114  1  0
111115  1  0
107116  2  0
116117  1  0
106118  1  0
118119  2  0
119120  1  0
119121  1  0
121122  2  0
122123  1  0
123124  2  0
124125  1  0
125126  2  0
126127  1  0
127128  2  0
128129  1  0
129130  1  0
130131  1  0
128132  1  0
132133  1  0
132134  2  0
124135  1  0
135136  2  0
136137  1  0
137138  1  0
138139  2  0
139140  1  0
140141  2  0
141142  1  0
142143  1  0
143144  1  0
141145  1  0
145146  2  0
145147  1  0
137148  2  0
148149  1  0
136150  1  0
150151  2  0
151152  1  0
151153  1  0
153154  2  0
154155  1  0
155156  2  0
156157  1  0
157158  2  0
158159  1  0
159160  2  0
160161  1  0
161162  1  0
162163  1  0
160164  1  0
156165  1  0
165166  2  0
166167  1  0
167168  1  0
168169  2  0
169170  1  0
170171  2  0
171172  1  0
172173  1  0
173174  1  0
171175  1  0
167176  2  0
176177  1  0
166178  1  0
178179  2  0
179180  1  0
 29  1  1  0
 61 33  1  0
 89 65  1  0
117 93  1  0
149121  1  0
177153  1  0
 28  3  1  0
 60 35  1  0
 88 67  1  0
116 95  1  0
148123  1  0
176155  1  0
 14  5  1  0
 32 15  1  0
 46 37  1  0
 64 47  1  0
 76 69  1  0
 92 77  1  0
104 97  1  0
120105  1  0
134125  1  0
152135  1  0
164157  1  0
180165  1  0
 26 18  1  0
 58 50  1  0
 87 80  1  0
115108  1  0
146138  1  0
175168  1  0
  1181  1  0
  2182  1  0
  6183  1  0
  7184  1  0
 10185  1  0
 10186  1  0
 11187  1  0
 11188  1  0
 11189  1  0
 14190  1  0
 19191  1  0
 20192  1  0
 23193  1  0
 23194  1  0
 24195  1  0
 24196  1  0
 24197  1  0
 26198  1  0
 30199  1  0
 34200  1  0
 38201  1  0
 39202  1  0
 42203  1  0
 42204  1  0
 43205  1  0
 43206  1  0
 43207  1  0
 46208  1  0
 51209  1  0
 52210  1  0
 55211  1  0
 55212  1  0
 56213  1  0
 56214  1  0
 56215  1  0
 58216  1  0
 62217  1  0
 66218  1  0
 70219  1  0
 71220  1  0
 74221  1  0
 74222  1  0
 75223  1  0
 75224  1  0
 75225  1  0
 81226  1  0
 82227  1  0
 85228  1  0
 85229  1  0
 86230  1  0
 86231  1  0
 86232  1  0
 90233  1  0
 94234  1  0
 98235  1  0
 99236  1  0
102237  1  0
102238  1  0
103239  1  0
103240  1  0
103241  1  0
109242  1  0
110243  1  0
113244  1  0
113245  1  0
114246  1  0
114247  1  0
114248  1  0
118249  1  0
122250  1  0
126251  1  0
127252  1  0
130253  1  0
130254  1  0
131255  1  0
131256  1  0
131257  1  0
134258  1  0
139259  1  0
140260  1  0
143261  1  0
143262  1  0
144263  1  0
144264  1  0
144265  1  0
146266  1  0
150267  1  0
154268  1  0
158269  1  0
159270  1  0
162271  1  0
162272  1  0
163273  1  0
163274  1  0
163275  1  0
169276  1  0
170277  1  0
173278  1  0
173279  1  0
174280  1  0
174281  1  0
174282  1  0
178283  1  0
179284  1  0
M  END

