
     RDKit          3D

278307  0  0  0  0  0  0  0  0999 V2000
   -4.5384   -3.0716   10.4454 C   0  0  0  0  0  0  0  0  0  0  0  0
   -4.8945   -2.0364    9.6406 C   0  0  0  0  0  0  0  0  0  0  0  0
   -5.5940   -2.3322    8.5142 C   0  0  0  0  0  0  0  0  0  0  0  0
   -6.0625   -1.4193    7.5722 C   0  0  0  0  0  0  0  0  0  0  0  0
   -5.7514   -0.0238    7.4863 C   0  0  0  0  0  0  0  0  0  0  0  0
   -6.5831    0.9966    7.7906 C   0  0  0  0  0  0  0  0  0  0  0  0
   -6.2097    2.3375    7.5062 C   0  0  0  0  0  0  0  0  0  0  0  0
   -5.0195    2.5944    6.9291 C   0  0  0  0  0  0  0  0  0  0  0  0
   -4.5425    4.2587    6.3584 S   0  0  0  0  0  0  0  0  0  0  0  0
   -4.9554    4.2072    4.5582 C   0  0  0  0  0  0  0  0  0  0  0  0
   -4.5331    5.4407    3.8421 C   0  0  0  0  0  0  0  0  0  0  0  0
   -4.1611    1.5489    6.6214 C   0  0  0  0  0  0  0  0  0  0  0  0
   -2.9673    1.8319    6.0424 F   0  0  0  0  0  0  0  0  0  0  0  0
   -4.5163    0.2635    6.8937 C   0  0  0  0  0  0  0  0  0  0  0  0
   -6.7926   -1.9015    6.4553 C   0  0  0  0  0  0  0  0  0  0  0  0
   -7.0619   -3.2114    6.2119 C   0  0  0  0  0  0  0  0  0  0  0  0
   -6.5880   -4.1197    7.1634 C   0  0  0  0  0  0  0  0  0  0  0  0
   -6.7269   -5.5483    7.1101 C   0  0  0  0  0  0  0  0  0  0  0  0
   -7.8297   -6.2200    7.5917 C   0  0  0  0  0  0  0  0  0  0  0  0
   -7.9118   -7.5984    7.5473 C   0  0  0  0  0  0  0  0  0  0  0  0
   -6.8926   -8.3897    7.0210 C   0  0  0  0  0  0  0  0  0  0  0  0
   -7.0367  -10.1783    6.9769 S   0  0  0  0  0  0  0  0  0  0  0  0
   -6.3967  -10.8880    8.4936 C   0  0  0  0  0  0  0  0  0  0  0  0
   -4.9108  -10.6926    8.6723 C   0  0  0  0  0  0  0  0  0  0  0  0
   -5.7896   -7.7156    6.5415 C   0  0  0  0  0  0  0  0  0  0  0  0
   -5.7046   -6.3489    6.5819 C   0  0  0  0  0  0  0  0  0  0  0  0
   -4.7561   -8.4109    6.0027 F   0  0  0  0  0  0  0  0  0  0  0  0
   -5.8752   -3.6398    8.2785 C   0  0  0  0  0  0  0  0  0  0  0  0
   -5.1672   -4.4294    9.6322 S   0  0  0  0  0  0  0  0  0  0  0  0
   -7.7500   -3.4930    5.0540 C   0  0  0  0  0  0  0  0  0  0  0  0
   -8.0975   -2.5031    4.2729 C   0  0  0  0  0  0  0  0  0  0  0  0
   -7.4796   -1.0872    5.1322 S   0  0  0  0  0  0  0  0  0  0  0  0
   -8.5061   -2.3329    2.8558 C   0  0  0  0  0  0  0  0  0  0  0  0
   -9.2205   -1.3035    2.3223 C   0  0  0  0  0  0  0  0  0  0  0  0
   -9.2949   -1.2108    0.9736 C   0  0  0  0  0  0  0  0  0  0  0  0
   -9.7689   -0.1295    0.1983 C   0  0  0  0  0  0  0  0  0  0  0  0
  -10.5812    0.9503    0.7462 C   0  0  0  0  0  0  0  0  0  0  0  0
  -11.0983    2.0793    0.1841 C   0  0  0  0  0  0  0  0  0  0  0  0
  -11.8595    2.9138    0.8987 C   0  0  0  0  0  0  0  0  0  0  0  0
  -12.2019    2.7855    2.1482 C   0  0  0  0  0  0  0  0  0  0  0  0
  -13.1335    3.6118    3.3693 S   0  0  0  0  0  0  0  0  0  0  0  0
  -11.9939    4.7659    4.2342 C   0  0  0  0  0  0  0  0  0  0  0  0
  -11.5067    5.8127    3.2462 C   0  0  0  0  0  0  0  0  0  0  0  0
  -11.2329    1.0443    2.5022 Se  0  0  0  0  0  2  0  0  0  0  0  0
   -9.5199   -0.1136   -1.1664 C   0  0  0  0  0  0  0  0  0  0  0  0
   -8.8502   -1.0640   -1.8736 C   0  0  0  0  0  0  0  0  0  0  0  0
   -8.3986   -2.1523   -1.1214 C   0  0  0  0  0  0  0  0  0  0  0  0
   -7.5658   -3.2273   -1.6124 C   0  0  0  0  0  0  0  0  0  0  0  0
   -6.8270   -3.5328   -2.6832 C   0  0  0  0  0  0  0  0  0  0  0  0
   -6.1872   -4.6982   -2.8416 C   0  0  0  0  0  0  0  0  0  0  0  0
   -6.2028   -5.6896   -1.9709 C   0  0  0  0  0  0  0  0  0  0  0  0
   -5.5494   -7.3121   -1.8279 S   0  0  0  0  0  0  0  0  0  0  0  0
   -5.9311   -7.9516   -0.1583 C   0  0  0  0  0  0  0  0  0  0  0  0
   -5.1448   -7.1390    0.8871 C   0  0  0  0  0  0  0  0  0  0  0  0
   -7.3593   -4.8675   -0.5913 Se  0  0  0  0  0  2  0  0  0  0  0  0
   -8.6401   -2.1803    0.2654 C   0  0  0  0  0  0  0  0  0  0  0  0
   -7.9619   -3.1830    1.4990 S   0  0  0  0  0  0  0  0  0  0  0  0
   -8.4651   -0.7189   -3.1470 C   0  0  0  0  0  0  0  0  0  0  0  0
   -8.7655    0.5432   -3.5756 C   0  0  0  0  0  0  0  0  0  0  0  0
   -9.5992    1.2186   -2.2877 S   0  0  0  0  0  0  0  0  0  0  0  0
   -7.8086    1.3665   -4.5281 C   0  0  0  0  0  0  0  0  0  0  0  0
   -7.6192    2.6863   -4.3917 C   0  0  0  0  0  0  0  0  0  0  0  0
   -6.3445    3.1684   -4.6508 C   0  0  0  0  0  0  0  0  0  0  0  0
   -5.8471    4.4004   -4.1406 C   0  0  0  0  0  0  0  0  0  0  0  0
   -6.6742    5.4773   -3.6707 C   0  0  0  0  0  0  0  0  0  0  0  0
   -7.3874    5.3902   -2.4800 C   0  0  0  0  0  0  0  0  0  0  0  0
   -8.1099    6.4644   -2.0424 C   0  0  0  0  0  0  0  0  0  0  0  0
   -8.1830    7.6683   -2.7223 C   0  0  0  0  0  0  0  0  0  0  0  0
   -9.1611    9.0195   -2.0772 S   0  0  0  0  0  0  0  0  0  0  0  0
  -10.8408    8.8550   -2.7963 C   0  0  0  0  0  0  0  0  0  0  0  0
  -10.8010    9.0512   -4.2989 C   0  0  0  0  0  0  0  0  0  0  0  0
   -7.4693    7.7369   -3.8993 C   0  0  0  0  0  0  0  0  0  0  0  0
   -7.5062    8.9357   -4.5709 F   0  0  0  0  0  0  0  0  0  0  0  0
   -6.7310    6.6584   -4.3598 C   0  0  0  0  0  0  0  0  0  0  0  0
   -4.4562    4.5847   -4.0418 C   0  0  0  0  0  0  0  0  0  0  0  0
   -3.5248    3.6899   -4.4071 C   0  0  0  0  0  0  0  0  0  0  0  0
   -4.0310    2.4492   -4.9615 C   0  0  0  0  0  0  0  0  0  0  0  0
   -3.1168    1.4106   -5.3359 C   0  0  0  0  0  0  0  0  0  0  0  0
   -2.5515    0.5834   -4.3460 C   0  0  0  0  0  0  0  0  0  0  0  0
   -1.6413   -0.3746   -4.6888 C   0  0  0  0  0  0  0  0  0  0  0  0
   -1.2585   -0.5557   -5.9891 C   0  0  0  0  0  0  0  0  0  0  0  0
   -0.0522   -1.8122   -6.3236 S   0  0  0  0  0  0  0  0  0  0  0  0
    0.4985   -1.8536   -8.0235 C   0  0  0  0  0  0  0  0  0  0  0  0
    1.3031   -0.6131   -8.3897 C   0  0  0  0  0  0  0  0  0  0  0  0
   -1.7924    0.2263   -6.9724 C   0  0  0  0  0  0  0  0  0  0  0  0
   -2.7204    1.2062   -6.6172 C   0  0  0  0  0  0  0  0  0  0  0  0
   -1.4614    0.0779   -8.2959 F   0  0  0  0  0  0  0  0  0  0  0  0
   -5.4110    2.2848   -5.0345 C   0  0  0  0  0  0  0  0  0  0  0  0
   -6.3107    0.7671   -5.0515 S   0  0  0  0  0  0  0  0  0  0  0  0
   -2.2881    3.8191   -3.8998 C   0  0  0  0  0  0  0  0  0  0  0  0
   -2.0571    4.8733   -3.0071 C   0  0  0  0  0  0  0  0  0  0  0  0
   -3.5691    5.6442   -2.9686 S   0  0  0  0  0  0  0  0  0  0  0  0
   -0.9776    4.8015   -1.9742 C   0  0  0  0  0  0  0  0  0  0  0  0
    0.1340    5.3354   -1.5469 C   0  0  0  0  0  0  0  0  0  0  0  0
    0.8648    4.7053   -0.5596 C   0  0  0  0  0  0  0  0  0  0  0  0
    2.1698    4.9933   -0.1308 C   0  0  0  0  0  0  0  0  0  0  0  0
    2.8146    6.2799   -0.3061 C   0  0  0  0  0  0  0  0  0  0  0  0
    2.5057    7.4829   -0.8034 C   0  0  0  0  0  0  0  0  0  0  0  0
    3.3286    8.5464   -0.7376 C   0  0  0  0  0  0  0  0  0  0  0  0
    4.5189    8.5199   -0.1830 C   0  0  0  0  0  0  0  0  0  0  0  0
    5.8691    9.6343    0.1044 S   0  0  0  0  0  0  0  0  0  0  0  0
    7.1095    8.9282    1.2084 C   0  0  0  0  0  0  0  0  0  0  0  0
    6.4817    8.8016    2.5938 C   0  0  0  0  0  0  0  0  0  0  0  0
    4.5629    6.6217    0.3848 Se  0  0  0  0  0  2  0  0  0  0  0  0
    2.8293    4.0621    0.6976 C   0  0  0  0  0  0  0  0  0  0  0  0
    2.2903    2.8961    1.1446 C   0  0  0  0  0  0  0  0  0  0  0  0
    0.9943    2.6085    0.7597 C   0  0  0  0  0  0  0  0  0  0  0  0
    0.2242    1.4569    1.1129 C   0  0  0  0  0  0  0  0  0  0  0  0
   -1.1227    1.2313    1.0806 C   0  0  0  0  0  0  0  0  0  0  0  0
   -1.6339    0.0359    1.3846 C   0  0  0  0  0  0  0  0  0  0  0  0
   -0.9438   -1.0217    1.7372 C   0  0  0  0  0  0  0  0  0  0  0  0
   -1.3377   -2.6782    2.2065 S   0  0  0  0  0  0  0  0  0  0  0  0
   -1.4977   -3.6322    0.6419 C   0  0  0  0  0  0  0  0  0  0  0  0
   -1.8348   -5.0534    0.8959 C   0  0  0  0  0  0  0  0  0  0  0  0
    0.8753   -0.2768    1.6465 Se  0  0  0  0  0  2  0  0  0  0  0  0
    0.3664    3.5415   -0.0835 C   0  0  0  0  0  0  0  0  0  0  0  0
   -1.0601    3.3309   -0.9670 S   0  0  0  0  0  0  0  0  0  0  0  0
    3.1302    1.9869    1.7175 C   0  0  0  0  0  0  0  0  0  0  0  0
    4.4455    2.3219    1.7773 C   0  0  0  0  0  0  0  0  0  0  0  0
    4.4973    3.8683    1.0887 S   0  0  0  0  0  0  0  0  0  0  0  0
    5.5767    1.3238    1.9068 C   0  0  0  0  0  0  0  0  0  0  0  0
    5.4063   -0.0116    1.5800 C   0  0  0  0  0  0  0  0  0  0  0  0
    6.5165   -0.7288    1.3069 C   0  0  0  0  0  0  0  0  0  0  0  0
    6.5590   -1.9852    0.6747 C   0  0  0  0  0  0  0  0  0  0  0  0
    5.4778   -2.9647    0.7245 C   0  0  0  0  0  0  0  0  0  0  0  0
    4.3165   -3.0366    1.4196 C   0  0  0  0  0  0  0  0  0  0  0  0
    3.4944   -4.0883    1.3020 C   0  0  0  0  0  0  0  0  0  0  0  0
    3.7199   -5.1300    0.5235 C   0  0  0  0  0  0  0  0  0  0  0  0
    2.9248   -6.6715    0.1487 S   0  0  0  0  0  0  0  0  0  0  0  0
    3.3974   -7.9262    1.4029 C   0  0  0  0  0  0  0  0  0  0  0  0
    4.8713   -8.2119    1.3361 C   0  0  0  0  0  0  0  0  0  0  0  0
    5.4594   -4.5830   -0.2520 Se  0  0  0  0  0  2  0  0  0  0  0  0
    7.7641   -2.4436    0.1503 C   0  0  0  0  0  0  0  0  0  0  0  0
    8.9662   -1.7829    0.2002 C   0  0  0  0  0  0  0  0  0  0  0  0
    8.9255   -0.5405    0.8766 C   0  0  0  0  0  0  0  0  0  0  0  0
   10.1040    0.2048    1.2994 C   0  0  0  0  0  0  0  0  0  0  0  0
   11.4151   -0.0033    1.3668 C   0  0  0  0  0  0  0  0  0  0  0  0
   12.2852    0.9048    1.8483 C   0  0  0  0  0  0  0  0  0  0  0  0
   11.9400    2.0888    2.3060 C   0  0  0  0  0  0  0  0  0  0  0  0
   12.6862    3.5104    3.0535 S   0  0  0  0  0  0  0  0  0  0  0  0
   12.7687    3.2799    4.8782 C   0  0  0  0  0  0  0  0  0  0  0  0
   11.3919    3.1501    5.4867 C   0  0  0  0  0  0  0  0  0  0  0  0
    9.9678    1.9764    2.0240 Se  0  0  0  0  0  2  0  0  0  0  0  0
    7.7049   -0.0713    1.3903 C   0  0  0  0  0  0  0  0  0  0  0  0
    7.2192    1.5393    1.8643 S   0  0  0  0  0  0  0  0  0  0  0  0
    9.9410   -2.2556   -0.5905 C   0  0  0  0  0  0  0  0  0  0  0  0
    9.6730   -3.3291   -1.3891 C   0  0  0  0  0  0  0  0  0  0  0  0
    8.0650   -3.7016   -1.0076 S   0  0  0  0  0  0  0  0  0  0  0  0
   10.4436   -3.7915   -2.5705 C   0  0  0  0  0  0  0  0  0  0  0  0
   11.4247   -3.0559   -3.2078 C   0  0  0  0  0  0  0  0  0  0  0  0
   11.8584   -3.5231   -4.4019 C   0  0  0  0  0  0  0  0  0  0  0  0
   12.7626   -2.9111   -5.2572 C   0  0  0  0  0  0  0  0  0  0  0  0
   13.4621   -1.6599   -4.9864 C   0  0  0  0  0  0  0  0  0  0  0  0
   13.8179   -0.9149   -3.9355 C   0  0  0  0  0  0  0  0  0  0  0  0
   14.2732    0.3491   -4.1078 C   0  0  0  0  0  0  0  0  0  0  0  0
   14.4240    0.9810   -5.2161 C   0  0  0  0  0  0  0  0  0  0  0  0
   14.9029    2.5725   -5.8244 S   0  0  0  0  0  0  0  0  0  0  0  0
   13.4596    3.6738   -5.9567 C   0  0  0  0  0  0  0  0  0  0  0  0
   13.9168    4.9902   -6.5203 C   0  0  0  0  0  0  0  0  0  0  0  0
   13.8060   -0.4614   -6.5134 Se  0  0  0  0  0  2  0  0  0  0  0  0
   13.0362   -3.5071   -6.5031 C   0  0  0  0  0  0  0  0  0  0  0  0
   12.4715   -4.6691   -6.9595 C   0  0  0  0  0  0  0  0  0  0  0  0
   11.5501   -5.2699   -6.0954 C   0  0  0  0  0  0  0  0  0  0  0  0
   10.6386   -6.3185   -6.5396 C   0  0  0  0  0  0  0  0  0  0  0  0
   10.2171   -6.7693   -7.7348 C   0  0  0  0  0  0  0  0  0  0  0  0
    9.3667   -7.7915   -7.8789 C   0  0  0  0  0  0  0  0  0  0  0  0
    8.8343   -8.4772   -6.8797 C   0  0  0  0  0  0  0  0  0  0  0  0
    7.7337   -9.7779   -6.5512 S   0  0  0  0  0  0  0  0  0  0  0  0
    6.0461   -9.0604   -6.4085 C   0  0  0  0  0  0  0  0  0  0  0  0
    5.0154  -10.1172   -6.1360 C   0  0  0  0  0  0  0  0  0  0  0  0
    9.7475   -7.4392   -5.3605 Se  0  0  0  0  0  2  0  0  0  0  0  0
   11.2829   -4.6824   -4.8549 C   0  0  0  0  0  0  0  0  0  0  0  0
   10.1789   -5.0717   -3.6140 S   0  0  0  0  0  0  0  0  0  0  0  0
   12.8906   -5.0983   -8.1795 C   0  0  0  0  0  0  0  0  0  0  0  0
   13.8244   -4.3395   -8.8336 C   0  0  0  0  0  0  0  0  0  0  0  0
   14.1097   -3.0535   -7.7587 S   0  0  0  0  0  0  0  0  0  0  0  0
   -3.9734   -3.0131   11.3952 H   0  0  0  0  0  0  0  0  0  0  0  0
   -4.5879   -1.0011    9.9115 H   0  0  0  0  0  0  0  0  0  0  0  0
   -7.5346    0.8773    8.2672 H   0  0  0  0  0  0  0  0  0  0  0  0
   -6.8942    3.1654    7.7516 H   0  0  0  0  0  0  0  0  0  0  0  0
   -4.4595    3.2812    4.1725 H   0  0  0  0  0  0  0  0  0  0  0  0
   -6.0584    4.1235    4.5063 H   0  0  0  0  0  0  0  0  0  0  0  0
   -4.3633    6.2508    4.5636 H   0  0  0  0  0  0  0  0  0  0  0  0
   -3.5807    5.2417    3.2622 H   0  0  0  0  0  0  0  0  0  0  0  0
   -5.3320    5.7344    3.1306 H   0  0  0  0  0  0  0  0  0  0  0  0
   -3.8137   -0.5668    6.6420 H   0  0  0  0  0  0  0  0  0  0  0  0
   -8.6345   -5.6319    8.0098 H   0  0  0  0  0  0  0  0  0  0  0  0
   -8.7757   -8.1438    7.9276 H   0  0  0  0  0  0  0  0  0  0  0  0
   -6.5734  -11.9812    8.5592 H   0  0  0  0  0  0  0  0  0  0  0  0
   -6.8771  -10.3209    9.3450 H   0  0  0  0  0  0  0  0  0  0  0  0
   -4.6611  -10.7413    9.7535 H   0  0  0  0  0  0  0  0  0  0  0  0
   -4.6723   -9.6802    8.3344 H   0  0  0  0  0  0  0  0  0  0  0  0
   -4.3609  -11.4687    8.1134 H   0  0  0  0  0  0  0  0  0  0  0  0
   -4.8598   -5.7688    6.2195 H   0  0  0  0  0  0  0  0  0  0  0  0
   -7.9949   -4.5707    4.7963 H   0  0  0  0  0  0  0  0  0  0  0  0
   -9.7158   -0.6032    3.0252 H   0  0  0  0  0  0  0  0  0  0  0  0
  -10.8533    2.2763   -0.8960 H   0  0  0  0  0  0  0  0  0  0  0  0
  -12.2606    3.8521    0.3354 H   0  0  0  0  0  0  0  0  0  0  0  0
  -11.0975    4.2284    4.5846 H   0  0  0  0  0  0  0  0  0  0  0  0
  -12.5132    5.2656    5.0816 H   0  0  0  0  0  0  0  0  0  0  0  0
  -12.1940    6.6541    3.1194 H   0  0  0  0  0  0  0  0  0  0  0  0
  -10.4652    6.1532    3.4700 H   0  0  0  0  0  0  0  0  0  0  0  0
  -11.4180    5.3312    2.2284 H   0  0  0  0  0  0  0  0  0  0  0  0
   -6.7067   -2.7425   -3.4973 H   0  0  0  0  0  0  0  0  0  0  0  0
   -5.5683   -4.8739   -3.8032 H   0  0  0  0  0  0  0  0  0  0  0  0
   -5.6787   -9.0223   -0.0508 H   0  0  0  0  0  0  0  0  0  0  0  0
   -7.0002   -7.8030    0.0998 H   0  0  0  0  0  0  0  0  0  0  0  0
   -5.2139   -7.6407    1.8475 H   0  0  0  0  0  0  0  0  0  0  0  0
   -5.5994   -6.1199    0.8972 H   0  0  0  0  0  0  0  0  0  0  0  0
   -4.0785   -7.0299    0.5781 H   0  0  0  0  0  0  0  0  0  0  0  0
   -7.9796   -1.3783   -3.8516 H   0  0  0  0  0  0  0  0  0  0  0  0
   -8.4416    3.3529   -4.0858 H   0  0  0  0  0  0  0  0  0  0  0  0
   -7.3296    4.4459   -1.9509 H   0  0  0  0  0  0  0  0  0  0  0  0
   -8.6616    6.4213   -1.1077 H   0  0  0  0  0  0  0  0  0  0  0  0
  -11.1992    7.8139   -2.6192 H   0  0  0  0  0  0  0  0  0  0  0  0
  -11.5608    9.5362   -2.3008 H   0  0  0  0  0  0  0  0  0  0  0  0
  -10.5872    8.0828   -4.8155 H   0  0  0  0  0  0  0  0  0  0  0  0
  -10.0542    9.8342   -4.5933 H   0  0  0  0  0  0  0  0  0  0  0  0
  -11.7779    9.3869   -4.6361 H   0  0  0  0  0  0  0  0  0  0  0  0
   -6.1791    6.7702   -5.3096 H   0  0  0  0  0  0  0  0  0  0  0  0
   -2.8785    0.7593   -3.3301 H   0  0  0  0  0  0  0  0  0  0  0  0
   -1.2251   -0.9840   -3.8602 H   0  0  0  0  0  0  0  0  0  0  0  0
   -0.3110   -1.9441   -8.7614 H   0  0  0  0  0  0  0  0  0  0  0  0
    1.2102   -2.7350   -8.1114 H   0  0  0  0  0  0  0  0  0  0  0  0
    2.3779   -0.8217   -8.4698 H   0  0  0  0  0  0  0  0  0  0  0  0
    1.1469    0.2033   -7.6588 H   0  0  0  0  0  0  0  0  0  0  0  0
    0.9797   -0.2586   -9.3800 H   0  0  0  0  0  0  0  0  0  0  0  0
   -3.1099    1.8217   -7.4237 H   0  0  0  0  0  0  0  0  0  0  0  0
   -1.4230    3.1768   -4.1289 H   0  0  0  0  0  0  0  0  0  0  0  0
    0.4731    6.2667   -2.0615 H   0  0  0  0  0  0  0  0  0  0  0  0
    1.4881    7.6313   -1.2847 H   0  0  0  0  0  0  0  0  0  0  0  0
    2.9763    9.5520   -1.1858 H   0  0  0  0  0  0  0  0  0  0  0  0
    7.4697    7.9242    0.9014 H   0  0  0  0  0  0  0  0  0  0  0  0
    7.9727    9.6384    1.2366 H   0  0  0  0  0  0  0  0  0  0  0  0
    5.3945    9.0787    2.4775 H   0  0  0  0  0  0  0  0  0  0  0  0
    6.9108    9.5644    3.2764 H   0  0  0  0  0  0  0  0  0  0  0  0
    6.5997    7.7671    2.9528 H   0  0  0  0  0  0  0  0  0  0  0  0
   -1.7736    2.1256    0.8281 H   0  0  0  0  0  0  0  0  0  0  0  0
   -2.7813   -0.0854    1.3396 H   0  0  0  0  0  0  0  0  0  0  0  0
   -0.5017   -3.4695    0.1401 H   0  0  0  0  0  0  0  0  0  0  0  0
   -2.2437   -3.1230    0.0014 H   0  0  0  0  0  0  0  0  0  0  0  0
   -2.3775   -5.4412   -0.0209 H   0  0  0  0  0  0  0  0  0  0  0  0
   -0.8791   -5.6498    0.8765 H   0  0  0  0  0  0  0  0  0  0  0  0
   -2.3977   -5.2416    1.8201 H   0  0  0  0  0  0  0  0  0  0  0  0
    2.8313    1.0087    2.1537 H   0  0  0  0  0  0  0  0  0  0  0  0
    4.3845   -0.3938    1.5352 H   0  0  0  0  0  0  0  0  0  0  0  0
    4.0651   -2.2174    2.1422 H   0  0  0  0  0  0  0  0  0  0  0  0
    2.5129   -4.1096    1.9086 H   0  0  0  0  0  0  0  0  0  0  0  0
    3.0832   -7.5929    2.4153 H   0  0  0  0  0  0  0  0  0  0  0  0
    2.8350   -8.8256    1.1303 H   0  0  0  0  0  0  0  0  0  0  0  0
    5.1704   -8.3300    0.2532 H   0  0  0  0  0  0  0  0  0  0  0  0
    5.4243   -7.3622    1.7958 H   0  0  0  0  0  0  0  0  0  0  0  0
    5.1253   -9.1525    1.8224 H   0  0  0  0  0  0  0  0  0  0  0  0
   11.8165   -1.0233    1.0491 H   0  0  0  0  0  0  0  0  0  0  0  0
   13.4079    0.6556    1.8713 H   0  0  0  0  0  0  0  0  0  0  0  0
   13.3667    4.0563    5.3706 H   0  0  0  0  0  0  0  0  0  0  0  0
   13.2739    2.2976    5.0471 H   0  0  0  0  0  0  0  0  0  0  0  0
   11.5393    2.9128    6.5666 H   0  0  0  0  0  0  0  0  0  0  0  0
   10.9255    2.2359    5.0574 H   0  0  0  0  0  0  0  0  0  0  0  0
   10.7591    4.0394    5.4050 H   0  0  0  0  0  0  0  0  0  0  0  0
   10.9579   -1.8139   -0.6720 H   0  0  0  0  0  0  0  0  0  0  0  0
   11.7585   -2.1286   -2.7036 H   0  0  0  0  0  0  0  0  0  0  0  0
   13.7756   -1.3697   -2.9062 H   0  0  0  0  0  0  0  0  0  0  0  0
   14.5794    0.9367   -3.1463 H   0  0  0  0  0  0  0  0  0  0  0  0
   12.6214    3.2272   -6.5208 H   0  0  0  0  0  0  0  0  0  0  0  0
   13.1342    3.8833   -4.8898 H   0  0  0  0  0  0  0  0  0  0  0  0
   14.7074    4.7665   -7.2965 H   0  0  0  0  0  0  0  0  0  0  0  0
   14.4222    5.6451   -5.7969 H   0  0  0  0  0  0  0  0  0  0  0  0
   13.0943    5.4858   -7.0900 H   0  0  0  0  0  0  0  0  0  0  0  0
   10.5713   -6.1772   -8.6563 H   0  0  0  0  0  0  0  0  0  0  0  0
    9.0721   -8.1019   -8.9417 H   0  0  0  0  0  0  0  0  0  0  0  0
    5.7684   -8.5001   -7.3113 H   0  0  0  0  0  0  0  0  0  0  0  0
    6.0627   -8.3459   -5.5432 H   0  0  0  0  0  0  0  0  0  0  0  0
    5.4083  -11.1541   -6.2442 H   0  0  0  0  0  0  0  0  0  0  0  0
    4.1725  -10.0260   -6.8865 H   0  0  0  0  0  0  0  0  0  0  0  0
    4.5888  -10.0471   -5.1186 H   0  0  0  0  0  0  0  0  0  0  0  0
   12.5814   -6.0556   -8.6732 H   0  0  0  0  0  0  0  0  0  0  0  0
   14.2655   -4.5581   -9.8236 H   0  0  0  0  0  0  0  0  0  0  0  0
  1  2  2  0
  2  3  1  0
  3  4  2  0
  4  5  1  0
  5  6  2  0
  6  7  1  0
  7  8  2  0
  8  9  1  0
  9 10  1  0
 10 11  1  0
  8 12  1  0
 12 13  1  0
 12 14  2  0
  4 15  1  0
 15 16  2  0
 16 17  1  0
 17 18  1  0
 18 19  2  0
 19 20  1  0
 20 21  2  0
 21 22  1  0
 22 23  1  0
 23 24  1  0
 21 25  1  0
 25 26  2  0
 25 27  1  0
 17 28  2  0
 28 29  1  0
 16 30  1  0
 30 31  2  0
 31 32  1  0
 31 33  1  0
 33 34  2  0
 34 35  1  0
 35 36  2  0
 36 37  1  0
 37 38  2  0
 38 39  1  0
 39 40  2  0
 40 41  1  0
 41 42  1  0
 42 43  1  0
 40 44  1  0
 36 45  1  0
 45 46  2  0
 46 47  1  0
 47 48  1  0
 48 49  2  0
 49 50  1  0
 50 51  2  0
 51 52  1  0
 52 53  1  0
 53 54  1  0
 51 55  1  0
 47 56  2  0
 56 57  1  0
 46 58  1  0
 58 59  2  0
 59 60  1  0
 59 61  1  0
 61 62  2  0
 62 63  1  0
 63 64  2  0
 64 65  1  0
 65 66  2  0
 66 67  1  0
 67 68  2  0
 68 69  1  0
 69 70  1  0
 70 71  1  0
 68 72  1  0
 72 73  1  0
 72 74  2  0
 64 75  1  0
 75 76  2  0
 76 77  1  0
 77 78  1  0
 78 79  2  0
 79 80  1  0
 80 81  2  0
 81 82  1  0
 82 83  1  0
 83 84  1  0
 81 85  1  0
 85 86  2  0
 85 87  1  0
 77 88  2  0
 88 89  1  0
 76 90  1  0
 90 91  2  0
 91 92  1  0
 91 93  1  0
 93 94  2  0
 94 95  1  0
 95 96  2  0
 96 97  1  0
 97 98  2  0
 98 99  1  0
 99100  2  0
100101  1  0
101102  1  0
102103  1  0
100104  1  0
 96105  1  0
105106  2  0
106107  1  0
107108  1  0
108109  2  0
109110  1  0
110111  2  0
111112  1  0
112113  1  0
113114  1  0
111115  1  0
107116  2  0
116117  1  0
106118  1  0
118119  2  0
119120  1  0
119121  1  0
121122  2  0
122123  1  0
123124  2  0
124125  1  0
125126  2  0
126127  1  0
127128  2  0
128129  1  0
129130  1  0
130131  1  0
128132  1  0
124133  1  0
133134  2  0
134135  1  0
135136  1  0
136137  2  0
137138  1  0
138139  2  0
139140  1  0
140141  1  0
141142  1  0
139143  1  0
135144  2  0
144145  1  0
134146  1  0
146147  2  0
147148  1  0
147149  1  0
149150  2  0
150151  1  0
151152  2  0
152153  1  0
153154  2  0
154155  1  0
155156  2  0
156157  1  0
157158  1  0
158159  1  0
156160  1  0
152161  1  0
161162  2  0
162163  1  0
163164  1  0
164165  2  0
165166  1  0
166167  2  0
167168  1  0
168169  1  0
169170  1  0
167171  1  0
163172  2  0
172173  1  0
162174  1  0
174175  2  0
175176  1  0
 29  1  1  0
 57 33  1  0
 89 61  1  0
117 93  1  0
145121  1  0
173149  1  0
 28  3  1  0
 56 35  1  0
 88 63  1  0
116 95  1  0
144123  1  0
172151  1  0
 14  5  1  0
 32 15  1  0
 44 37  1  0
 60 45  1  0
 74 65  1  0
 92 75  1  0
104 97  1  0
120105  1  0
132125  1  0
148133  1  0
160153  1  0
176161  1  0
 26 18  1  0
 55 48  1  0
 86 78  1  0
115108  1  0
143136  1  0
171164  1  0
  1177  1  0
  2178  1  0
  6179  1  0
  7180  1  0
 10181  1  0
 10182  1  0
 11183  1  0
 11184  1  0
 11185  1  0
 14186  1  0
 19187  1  0
 20188  1  0
 23189  1  0
 23190  1  0
 24191  1  0
 24192  1  0
 24193  1  0
 26194  1  0
 30195  1  0
 34196  1  0
 38197  1  0
 39198  1  0
 42199  1  0
 42200  1  0
 43201  1  0
 43202  1  0
 43203  1  0
 49204  1  0
 50205  1  0
 53206  1  0
 53207  1  0
 54208  1  0
 54209  1  0
 54210  1  0
 58211  1  0
 62212  1  0
 66213  1  0
 67214  1  0
 70215  1  0
 70216  1  0
 71217  1  0
 71218  1  0
 71219  1  0
 74220  1  0
 79221  1  0
 80222  1  0
 83223  1  0
 83224  1  0
 84225  1  0
 84226  1  0
 84227  1  0
 86228  1  0
 90229  1  0
 94230  1  0
 98231  1  0
 99232  1  0
102233  1  0
102234  1  0
103235  1  0
103236  1  0
103237  1  0
109238  1  0
110239  1  0
113240  1  0
113241  1  0
114242  1  0
114243  1  0
114244  1  0
118245  1  0
122246  1  0
126247  1  0
127248  1  0
130249  1  0
130250  1  0
131251  1  0
131252  1  0
131253  1  0
137254  1  0
138255  1  0
141256  1  0
141257  1  0
142258  1  0
142259  1  0
142260  1  0
146261  1  0
150262  1  0
154263  1  0
155264  1  0
158265  1  0
158266  1  0
159267  1  0
159268  1  0
159269  1  0
165270  1  0
166271  1  0
169272  1  0
169273  1  0
170274  1  0
170275  1  0
170276  1  0
174277  1  0
175278  1  0
M  END

