
     RDKit          3D

121135  0  0  0  0  0  0  0  0999 V2000
    6.5943   -7.8911    4.3062 C   0  0  0  0  0  0  0  0  0  0  0  0
    7.6864   -7.4774    5.0166 C   0  0  0  0  0  0  0  0  0  0  0  0
    8.6769   -8.1455    5.6921 N   0  0  0  0  0  0  0  0  0  0  0  0
    9.4780   -7.2425    6.1980 O   0  0  0  0  0  0  0  0  0  0  0  0
    9.0666   -6.0653    5.8933 N   0  0  0  0  0  0  0  0  0  0  0  0
    7.9620   -6.1551    5.1641 C   0  0  0  0  0  0  0  0  0  0  0  0
    7.1529   -5.1247    4.6002 C   0  0  0  0  0  0  0  0  0  0  0  0
    6.0756   -5.6022    3.8986 C   0  0  0  0  0  0  0  0  0  0  0  0
    5.7943   -6.9266    3.7512 C   0  0  0  0  0  0  0  0  0  0  0  0
    7.6044   -3.7849    4.7139 C   0  0  0  0  0  0  0  0  0  0  0  0
    7.0510   -2.6518    4.6571 C   0  0  0  0  0  0  0  0  0  0  0  0
    5.6659   -2.2854    4.4630 C   0  0  0  0  0  0  0  0  0  0  0  0
    4.4986   -2.9169    4.7239 C   0  0  0  0  0  0  0  0  0  0  0  0
    3.3250   -2.3740    4.3125 C   0  0  0  0  0  0  0  0  0  0  0  0
    2.0146   -2.8483    4.4817 C   0  0  0  0  0  0  0  0  0  0  0  0
    1.7438   -4.1310    5.1113 C   0  0  0  0  0  0  0  0  0  0  0  0
    2.3512   -5.2682    5.4063 C   0  0  0  0  0  0  0  0  0  0  0  0
    1.7872   -6.2166    6.1746 C   0  0  0  0  0  0  0  0  0  0  0  0
    0.5789   -6.0990    6.7003 C   0  0  0  0  0  0  0  0  0  0  0  0
   -0.4313   -7.1050    7.7564 S   0  0  0  0  0  0  0  0  0  0  0  0
   -1.4433   -8.1853    6.7144 C   0  0  0  0  0  0  0  0  0  0  0  0
   -2.4270   -7.3619    5.8857 C   0  0  0  0  0  0  0  0  0  0  0  0
    0.0838   -4.3670    6.0347 Se  0  0  0  0  0  2  0  0  0  0  0  0
    0.9472   -2.0968    3.9736 C   0  0  0  0  0  0  0  0  0  0  0  0
    1.0794   -0.9166    3.3154 C   0  0  0  0  0  0  0  0  0  0  0  0
    2.3846   -0.4443    3.1546 C   0  0  0  0  0  0  0  0  0  0  0  0
    2.6455    0.8744    2.6002 C   0  0  0  0  0  0  0  0  0  0  0  0
    3.6900    1.5024    2.0406 C   0  0  0  0  0  0  0  0  0  0  0  0
    3.6660    2.7855    1.6924 C   0  0  0  0  0  0  0  0  0  0  0  0
    2.6193    3.5896    1.8572 C   0  0  0  0  0  0  0  0  0  0  0  0
    2.1405    5.2472    1.5401 S   0  0  0  0  0  0  0  0  0  0  0  0
    1.1685    5.4527    0.0353 C   0  0  0  0  0  0  0  0  0  0  0  0
    0.7832    6.9332   -0.0080 C   0  0  0  0  0  0  0  0  0  0  0  0
    1.3750    2.2929    2.6779 Se  0  0  0  0  0  2  0  0  0  0  0  0
    3.4276   -1.1740    3.6439 C   0  0  0  0  0  0  0  0  0  0  0  0
    5.1165   -0.8738    3.6205 S   0  0  0  0  0  0  0  0  0  0  0  0
   -0.0549   -0.3660    2.8202 C   0  0  0  0  0  0  0  0  0  0  0  0
   -1.2391   -1.0498    3.0301 C   0  0  0  0  0  0  0  0  0  0  0  0
   -0.7259   -2.4121    3.8996 S   0  0  0  0  0  0  0  0  0  0  0  0
   -2.5631   -0.6843    2.4584 C   0  0  0  0  0  0  0  0  0  0  0  0
   -2.7442    0.5521    1.9231 C   0  0  0  0  0  0  0  0  0  0  0  0
   -2.0071    1.6681    1.9662 N   0  0  0  0  0  0  0  0  0  0  0  0
   -2.6115    2.6087    1.3242 O   0  0  0  0  0  0  0  0  0  0  0  0
   -3.7339    2.1832    0.8417 N   0  0  0  0  0  0  0  0  0  0  0  0
   -3.8701    0.8977    1.1884 C   0  0  0  0  0  0  0  0  0  0  0  0
   -4.8717   -0.0478    0.9802 C   0  0  0  0  0  0  0  0  0  0  0  0
   -4.6948   -1.2920    1.5330 C   0  0  0  0  0  0  0  0  0  0  0  0
   -3.5448   -1.6266    2.2745 C   0  0  0  0  0  0  0  0  0  0  0  0
   -5.9695    0.1817   -0.0021 C   0  0  0  0  0  0  0  0  0  0  0  0
   -5.9218    1.1849   -0.8335 C   0  0  0  0  0  0  0  0  0  0  0  0
   -6.8367    1.5947   -1.8602 C   0  0  0  0  0  0  0  0  0  0  0  0
   -6.4396    2.6920   -2.6514 C   0  0  0  0  0  0  0  0  0  0  0  0
   -5.4236    3.5606   -2.5626 N   0  0  0  0  0  0  0  0  0  0  0  0
   -5.4928    4.4250   -3.4918 O   0  0  0  0  0  0  0  0  0  0  0  0
   -6.5466    4.1944   -4.2547 N   0  0  0  0  0  0  0  0  0  0  0  0
   -7.1609    3.0936   -3.7366 C   0  0  0  0  0  0  0  0  0  0  0  0
   -8.3221    2.4376   -4.1127 C   0  0  0  0  0  0  0  0  0  0  0  0
   -8.7427    1.3716   -3.3555 C   0  0  0  0  0  0  0  0  0  0  0  0
   -7.9866    0.9701   -2.2401 C   0  0  0  0  0  0  0  0  0  0  0  0
   -8.9245    2.7656   -5.3949 C   0  0  0  0  0  0  0  0  0  0  0  0
   -8.2457    2.9210   -6.5327 C   0  0  0  0  0  0  0  0  0  0  0  0
   -6.8042    2.7532   -6.6916 C   0  0  0  0  0  0  0  0  0  0  0  0
   -6.1468    1.6947   -6.0478 C   0  0  0  0  0  0  0  0  0  0  0  0
   -6.5662    0.6013   -5.3710 N   0  0  0  0  0  0  0  0  0  0  0  0
   -5.5225   -0.1133   -5.0152 O   0  0  0  0  0  0  0  0  0  0  0  0
   -4.4408    0.4453   -5.4180 N   0  0  0  0  0  0  0  0  0  0  0  0
   -4.7924    1.5831   -6.0737 C   0  0  0  0  0  0  0  0  0  0  0  0
   -3.9820    2.5119   -6.7440 C   0  0  0  0  0  0  0  0  0  0  0  0
   -4.6033    3.5476   -7.3838 C   0  0  0  0  0  0  0  0  0  0  0  0
   -5.9957    3.6522   -7.3476 C   0  0  0  0  0  0  0  0  0  0  0  0
   -2.5452    2.3363   -6.6682 C   0  0  0  0  0  0  0  0  0  0  0  0
   -1.6208    3.0279   -7.2660 C   0  0  0  0  0  0  0  0  0  0  0  0
   -0.1992    2.7746   -7.1221 C   0  0  0  0  0  0  0  0  0  0  0  0
    0.3578    1.8683   -6.2580 C   0  0  0  0  0  0  0  0  0  0  0  0
   -0.2083    1.0443   -5.3347 N   0  0  0  0  0  0  0  0  0  0  0  0
    0.7364    0.3636   -4.7406 O   0  0  0  0  0  0  0  0  0  0  0  0
    1.9097    0.7050   -5.2369 N   0  0  0  0  0  0  0  0  0  0  0  0
    1.7019    1.6421   -6.1843 C   0  0  0  0  0  0  0  0  0  0  0  0
    2.6023    2.3138   -6.9796 C   0  0  0  0  0  0  0  0  0  0  0  0
    2.0785    3.2294   -7.8566 C   0  0  0  0  0  0  0  0  0  0  0  0
    0.7264    3.4583   -7.9313 C   0  0  0  0  0  0  0  0  0  0  0  0
    4.0365    2.0371   -6.8647 C   0  0  0  0  0  0  0  0  0  0  0  0
    4.9311    2.5560   -7.6820 C   0  0  0  0  0  0  0  0  0  0  0  0
    6.4098   -8.9402    4.2116 H   0  0  0  0  0  0  0  0  0  0  0  0
    5.4209   -4.9174    3.3960 H   0  0  0  0  0  0  0  0  0  0  0  0
    4.9102   -7.2534    3.1807 H   0  0  0  0  0  0  0  0  0  0  0  0
    8.7393   -3.7080    4.8822 H   0  0  0  0  0  0  0  0  0  0  0  0
    7.7167   -1.7362    4.7882 H   0  0  0  0  0  0  0  0  0  0  0  0
    4.5649   -3.8554    5.3509 H   0  0  0  0  0  0  0  0  0  0  0  0
    3.3802   -5.4668    4.9371 H   0  0  0  0  0  0  0  0  0  0  0  0
    2.3717   -7.1647    6.4080 H   0  0  0  0  0  0  0  0  0  0  0  0
   -0.8372   -8.7548    5.9543 H   0  0  0  0  0  0  0  0  0  0  0  0
   -1.9927   -8.9673    7.3037 H   0  0  0  0  0  0  0  0  0  0  0  0
   -1.8691   -6.7863    5.1001 H   0  0  0  0  0  0  0  0  0  0  0  0
   -2.9831   -6.6651    6.5053 H   0  0  0  0  0  0  0  0  0  0  0  0
   -3.1163   -8.0172    5.3141 H   0  0  0  0  0  0  0  0  0  0  0  0
    4.6218    0.8596    1.8621 H   0  0  0  0  0  0  0  0  0  0  0  0
    4.5966    3.2653    1.2077 H   0  0  0  0  0  0  0  0  0  0  0  0
    1.6662    5.2041   -0.8933 H   0  0  0  0  0  0  0  0  0  0  0  0
    0.2043    4.8954    0.0939 H   0  0  0  0  0  0  0  0  0  0  0  0
    0.4393    7.2715   -0.9763 H   0  0  0  0  0  0  0  0  0  0  0  0
   -0.0174    7.1454    0.7352 H   0  0  0  0  0  0  0  0  0  0  0  0
    1.6574    7.5562    0.3079 H   0  0  0  0  0  0  0  0  0  0  0  0
   -0.1180    0.5639    2.2297 H   0  0  0  0  0  0  0  0  0  0  0  0
   -5.4764   -2.0258    1.3778 H   0  0  0  0  0  0  0  0  0  0  0  0
   -3.4087   -2.6046    2.7083 H   0  0  0  0  0  0  0  0  0  0  0  0
   -6.7776   -0.5021    0.0039 H   0  0  0  0  0  0  0  0  0  0  0  0
   -5.0112    1.8060   -0.7253 H   0  0  0  0  0  0  0  0  0  0  0  0
   -9.6329    0.8335   -3.5936 H   0  0  0  0  0  0  0  0  0  0  0  0
   -8.3162    0.1184   -1.6275 H   0  0  0  0  0  0  0  0  0  0  0  0
   -9.9920    2.8892   -5.4373 H   0  0  0  0  0  0  0  0  0  0  0  0
   -8.7796    3.1962   -7.4426 H   0  0  0  0  0  0  0  0  0  0  0  0
   -4.0162    4.3073   -7.9265 H   0  0  0  0  0  0  0  0  0  0  0  0
   -6.3999    4.5045   -7.8816 H   0  0  0  0  0  0  0  0  0  0  0  0
   -2.1874    1.5193   -6.0286 H   0  0  0  0  0  0  0  0  0  0  0  0
   -1.9207    3.8613   -7.9130 H   0  0  0  0  0  0  0  0  0  0  0  0
    2.7670    3.7882   -8.5186 H   0  0  0  0  0  0  0  0  0  0  0  0
    0.3197    4.1856   -8.6171 H   0  0  0  0  0  0  0  0  0  0  0  0
    4.3509    1.3594   -6.0558 H   0  0  0  0  0  0  0  0  0  0  0  0
    4.6725    3.2165   -8.4858 H   0  0  0  0  0  0  0  0  0  0  0  0
    5.9755    2.3166   -7.5494 H   0  0  0  0  0  0  0  0  0  0  0  0
  1  2  1  0
  2  3  2  0
  3  4  1  0
  4  5  1  0
  5  6  2  0
  6  7  1  0
  7  8  2  0
  8  9  1  0
  7 10  1  0
 10 11  2  3
 11 12  1  0
 12 13  2  0
 13 14  1  0
 14 15  2  0
 15 16  1  0
 16 17  2  0
 17 18  1  0
 18 19  2  0
 19 20  1  0
 20 21  1  0
 21 22  1  0
 19 23  1  0
 15 24  1  0
 24 25  2  0
 25 26  1  0
 26 27  1  0
 27 28  2  0
 28 29  1  0
 29 30  2  0
 30 31  1  0
 31 32  1  0
 32 33  1  0
 30 34  1  0
 26 35  2  0
 35 36  1  0
 25 37  1  0
 37 38  2  0
 38 39  1  0
 38 40  1  0
 40 41  1  0
 41 42  2  0
 42 43  1  0
 43 44  1  0
 44 45  2  0
 45 46  1  0
 46 47  2  0
 47 48  1  0
 46 49  1  0
 49 50  2  3
 50 51  1  0
 51 52  1  0
 52 53  2  0
 53 54  1  0
 54 55  1  0
 55 56  2  0
 56 57  1  0
 57 58  2  0
 58 59  1  0
 57 60  1  0
 60 61  2  3
 61 62  1  0
 62 63  1  0
 63 64  2  0
 64 65  1  0
 65 66  1  0
 66 67  2  0
 67 68  1  0
 68 69  2  0
 69 70  1  0
 68 71  1  0
 71 72  2  3
 72 73  1  0
 73 74  1  0
 74 75  2  0
 75 76  1  0
 76 77  1  0
 77 78  2  0
 78 79  1  0
 79 80  2  0
 80 81  1  0
 79 82  1  0
 82 83  2  3
  9  1  2  0
 36 12  1  0
 48 40  2  0
 59 51  2  0
 70 62  2  0
 81 73  2  0
  6  2  1  0
 35 14  1  0
 45 41  1  0
 56 52  1  0
 67 63  1  0
 78 74  1  0
 23 16  1  0
 39 24  1  0
 34 27  1  0
  1 84  1  0
  8 85  1  0
  9 86  1  0
 10 87  1  0
 11 88  1  0
 13 89  1  0
 17 90  1  0
 18 91  1  0
 21 92  1  0
 21 93  1  0
 22 94  1  0
 22 95  1  0
 22 96  1  0
 28 97  1  0
 29 98  1  0
 32 99  1  0
 32100  1  0
 33101  1  0
 33102  1  0
 33103  1  0
 37104  1  0
 47105  1  0
 48106  1  0
 49107  1  0
 50108  1  0
 58109  1  0
 59110  1  0
 60111  1  0
 61112  1  0
 69113  1  0
 70114  1  0
 71115  1  0
 72116  1  0
 80117  1  0
 81118  1  0
 82119  1  0
 83120  1  0
 83121  1  0
M  END

