
     RDKit          3D

272301  0  0  0  0  0  0  0  0999 V2000
   -7.2597    2.0791    3.0333 C   0  0  0  0  0  0  0  0  0  0  0  0
   -6.1246    1.3682    2.7375 C   0  0  0  0  0  0  0  0  0  0  0  0
   -4.9704    1.7570    3.3189 C   0  0  0  0  0  0  0  0  0  0  0  0
   -3.7332    1.1757    3.1607 C   0  0  0  0  0  0  0  0  0  0  0  0
   -3.4203   -0.0133    2.3743 C   0  0  0  0  0  0  0  0  0  0  0  0
   -3.0202   -0.0525    1.0748 C   0  0  0  0  0  0  0  0  0  0  0  0
   -2.6949   -1.2954    0.5201 C   0  0  0  0  0  0  0  0  0  0  0  0
   -2.7622   -2.4657    1.2210 C   0  0  0  0  0  0  0  0  0  0  0  0
   -2.2744   -4.0081    0.4868 S   0  0  0  0  0  0  0  0  0  0  0  0
   -0.5882   -4.4867    0.8458 C   0  0  0  0  0  0  0  0  0  0  0  0
    0.4615   -3.6061    0.2709 C   0  0  0  0  0  0  0  0  0  0  0  0
   -3.1660   -2.4415    2.5286 C   0  0  0  0  0  0  0  0  0  0  0  0
   -3.2276   -3.6001    3.2314 F   0  0  0  0  0  0  0  0  0  0  0  0
   -3.4857   -1.2097    3.0741 C   0  0  0  0  0  0  0  0  0  0  0  0
   -2.6305    1.7066    3.8538 C   0  0  0  0  0  0  0  0  0  0  0  0
   -2.6548    2.7642    4.6996 C   0  0  0  0  0  0  0  0  0  0  0  0
   -3.9010    3.3457    4.8509 C   0  0  0  0  0  0  0  0  0  0  0  0
   -4.2110    4.5348    5.6094 C   0  0  0  0  0  0  0  0  0  0  0  0
   -4.2457    5.7546    4.9882 C   0  0  0  0  0  0  0  0  0  0  0  0
   -4.6293    6.8719    5.6903 C   0  0  0  0  0  0  0  0  0  0  0  0
   -4.9907    6.8075    7.0263 C   0  0  0  0  0  0  0  0  0  0  0  0
   -5.5518    8.2486    7.8898 S   0  0  0  0  0  0  0  0  0  0  0  0
   -5.8453    7.9389    9.6290 C   0  0  0  0  0  0  0  0  0  0  0  0
   -4.5281    7.7233   10.3460 C   0  0  0  0  0  0  0  0  0  0  0  0
   -4.9563    5.5976    7.6493 C   0  0  0  0  0  0  0  0  0  0  0  0
   -4.5608    4.4585    6.9242 C   0  0  0  0  0  0  0  0  0  0  0  0
   -5.2973    5.4246    8.9577 F   0  0  0  0  0  0  0  0  0  0  0  0
   -5.0171    2.8180    4.1531 C   0  0  0  0  0  0  0  0  0  0  0  0
   -6.6570    3.2774    4.1240 S   0  0  0  0  0  0  0  0  0  0  0  0
   -1.4585    3.1108    5.2867 C   0  0  0  0  0  0  0  0  0  0  0  0
   -0.3772    2.4368    5.0163 C   0  0  0  0  0  0  0  0  0  0  0  0
   -1.0123    1.2253    3.8704 S   0  0  0  0  0  0  0  0  0  0  0  0
    1.0178    2.1625    5.4206 C   0  0  0  0  0  0  0  0  0  0  0  0
    1.5712    1.6505    6.5477 C   0  0  0  0  0  0  0  0  0  0  0  0
    2.8184    1.1108    6.5020 C   0  0  0  0  0  0  0  0  0  0  0  0
    3.4509    0.2451    7.4398 C   0  0  0  0  0  0  0  0  0  0  0  0
    3.0817    0.2273    8.8149 C   0  0  0  0  0  0  0  0  0  0  0  0
    3.2243   -0.5225    9.8787 C   0  0  0  0  0  0  0  0  0  0  0  0
    2.8800   -0.1891   11.1242 C   0  0  0  0  0  0  0  0  0  0  0  0
    2.3336    0.9936   11.4252 C   0  0  0  0  0  0  0  0  0  0  0  0
    1.8003    1.7501   12.9324 S   0  0  0  0  0  0  0  0  0  0  0  0
    1.2646    3.4393   12.7277 C   0  0  0  0  0  0  0  0  0  0  0  0
   -0.0206    3.5440   11.9183 C   0  0  0  0  0  0  0  0  0  0  0  0
    2.2660    1.8292    9.6644 Se  0  0  0  0  0  2  0  0  0  0  0  0
    4.5811   -0.4888    7.1045 C   0  0  0  0  0  0  0  0  0  0  0  0
    5.1900   -0.4413    5.8921 C   0  0  0  0  0  0  0  0  0  0  0  0
    4.5672    0.4314    4.9514 C   0  0  0  0  0  0  0  0  0  0  0  0
    4.9966    0.3915    3.5455 C   0  0  0  0  0  0  0  0  0  0  0  0
    5.4287   -0.6711    2.8338 C   0  0  0  0  0  0  0  0  0  0  0  0
    5.9494   -0.5689    1.6176 C   0  0  0  0  0  0  0  0  0  0  0  0
    6.0934    0.5894    0.9836 C   0  0  0  0  0  0  0  0  0  0  0  0
    6.6889    1.1801   -0.5617 S   0  0  0  0  0  0  0  0  0  0  0  0
    7.1120   -0.2617   -1.5837 C   0  0  0  0  0  0  0  0  0  0  0  0
    7.5399    0.1613   -2.9728 C   0  0  0  0  0  0  0  0  0  0  0  0
    5.3297    1.7999    2.3975 Se  0  0  0  0  0  2  0  0  0  0  0  0
    3.4524    1.1337    5.2909 C   0  0  0  0  0  0  0  0  0  0  0  0
    2.2845    1.9104    4.2686 S   0  0  0  0  0  0  0  0  0  0  0  0
    6.1252   -1.3438    5.6168 C   0  0  0  0  0  0  0  0  0  0  0  0
    6.4003   -2.3231    6.6244 C   0  0  0  0  0  0  0  0  0  0  0  0
    5.4011   -1.8793    7.8235 S   0  0  0  0  0  0  0  0  0  0  0  0
    7.1147   -3.5684    6.0628 C   0  0  0  0  0  0  0  0  0  0  0  0
    8.1072   -3.6281    5.1889 C   0  0  0  0  0  0  0  0  0  0  0  0
    8.1275   -4.6844    4.2829 C   0  0  0  0  0  0  0  0  0  0  0  0
    8.7971   -4.6492    3.0338 C   0  0  0  0  0  0  0  0  0  0  0  0
    9.9683   -3.8720    2.7591 C   0  0  0  0  0  0  0  0  0  0  0  0
   10.6943   -3.5025    1.7090 C   0  0  0  0  0  0  0  0  0  0  0  0
   11.8323   -2.8274    1.7625 C   0  0  0  0  0  0  0  0  0  0  0  0
   12.4105   -2.4233    2.8983 C   0  0  0  0  0  0  0  0  0  0  0  0
   13.8675   -1.5562    3.3124 S   0  0  0  0  0  0  0  0  0  0  0  0
   14.0517   -1.3212    5.0906 C   0  0  0  0  0  0  0  0  0  0  0  0
   12.9606   -0.3935    5.5500 C   0  0  0  0  0  0  0  0  0  0  0  0
   11.1051   -3.1189    4.1903 Se  0  0  0  0  0  2  0  0  0  0  0  0
    8.3650   -5.5132    2.0124 C   0  0  0  0  0  0  0  0  0  0  0  0
    7.3622   -6.4167    2.0959 C   0  0  0  0  0  0  0  0  0  0  0  0
    6.7186   -6.4702    3.3548 C   0  0  0  0  0  0  0  0  0  0  0  0
    5.5342   -7.2514    3.6096 C   0  0  0  0  0  0  0  0  0  0  0  0
    4.8982   -7.6253    4.7301 C   0  0  0  0  0  0  0  0  0  0  0  0
    3.7113   -8.2342    4.7202 C   0  0  0  0  0  0  0  0  0  0  0  0
    3.0314   -8.5364    3.6123 C   0  0  0  0  0  0  0  0  0  0  0  0
    1.4903   -9.2655    3.1862 S   0  0  0  0  0  0  0  0  0  0  0  0
    0.5740   -9.7357    4.6356 C   0  0  0  0  0  0  0  0  0  0  0  0
    1.2290  -10.8736    5.3969 C   0  0  0  0  0  0  0  0  0  0  0  0
    4.2746   -7.8481    2.2750 Se  0  0  0  0  0  2  0  0  0  0  0  0
    7.1506   -5.5842    4.3662 C   0  0  0  0  0  0  0  0  0  0  0  0
    6.1892   -4.9982    5.7085 S   0  0  0  0  0  0  0  0  0  0  0  0
    6.8749   -6.9099    0.9143 C   0  0  0  0  0  0  0  0  0  0  0  0
    7.4322   -6.4303   -0.2432 C   0  0  0  0  0  0  0  0  0  0  0  0
    8.6200   -5.3596    0.3020 S   0  0  0  0  0  0  0  0  0  0  0  0
    6.7517   -6.4128   -1.5950 C   0  0  0  0  0  0  0  0  0  0  0  0
    5.4494   -6.7332   -1.8495 C   0  0  0  0  0  0  0  0  0  0  0  0
    4.9078   -6.1837   -2.9880 C   0  0  0  0  0  0  0  0  0  0  0  0
    3.5480   -6.1423   -3.3037 C   0  0  0  0  0  0  0  0  0  0  0  0
    2.5419   -7.0307   -2.7456 C   0  0  0  0  0  0  0  0  0  0  0  0
    2.5403   -8.1552   -2.0141 C   0  0  0  0  0  0  0  0  0  0  0  0
    1.4146   -8.7398   -1.6035 C   0  0  0  0  0  0  0  0  0  0  0  0
    0.1839   -8.3435   -1.8314 C   0  0  0  0  0  0  0  0  0  0  0  0
   -1.4798   -8.7483   -1.5378 S   0  0  0  0  0  0  0  0  0  0  0  0
   -2.5468   -7.5773   -2.4199 C   0  0  0  0  0  0  0  0  0  0  0  0
   -4.0029   -7.8892   -2.2954 C   0  0  0  0  0  0  0  0  0  0  0  0
    0.6898   -6.6797   -2.9300 Se  0  0  0  0  0  2  0  0  0  0  0  0
    3.1346   -5.2762   -4.3337 C   0  0  0  0  0  0  0  0  0  0  0  0
    3.9225   -4.4639   -5.0772 C   0  0  0  0  0  0  0  0  0  0  0  0
    5.2853   -4.5321   -4.7836 C   0  0  0  0  0  0  0  0  0  0  0  0
    6.3370   -3.7612   -5.3953 C   0  0  0  0  0  0  0  0  0  0  0  0
    6.5379   -2.6790   -6.1275 C   0  0  0  0  0  0  0  0  0  0  0  0
    7.7114   -2.3126   -6.6450 C   0  0  0  0  0  0  0  0  0  0  0  0
    8.8497   -2.9763   -6.4992 C   0  0  0  0  0  0  0  0  0  0  0  0
   10.5420   -2.8614   -6.9243 S   0  0  0  0  0  0  0  0  0  0  0  0
   10.9791   -1.3202   -7.7203 C   0  0  0  0  0  0  0  0  0  0  0  0
   10.8068   -0.2168   -6.6663 C   0  0  0  0  0  0  0  0  0  0  0  0
    8.1682   -4.4824   -5.3802 Se  0  0  0  0  0  2  0  0  0  0  0  0
    5.7025   -5.4005   -3.7374 C   0  0  0  0  0  0  0  0  0  0  0  0
    7.2196   -5.4372   -2.8638 S   0  0  0  0  0  0  0  0  0  0  0  0
    3.2921   -3.5770   -5.8898 C   0  0  0  0  0  0  0  0  0  0  0  0
    1.9550   -3.5519   -5.9024 C   0  0  0  0  0  0  0  0  0  0  0  0
    1.5501   -4.8181   -4.7674 S   0  0  0  0  0  0  0  0  0  0  0  0
    0.9006   -2.5664   -6.3094 C   0  0  0  0  0  0  0  0  0  0  0  0
    0.8914   -1.2290   -5.9067 C   0  0  0  0  0  0  0  0  0  0  0  0
   -0.2525   -0.5413   -6.0351 C   0  0  0  0  0  0  0  0  0  0  0  0
   -0.5819    0.7353   -5.5659 C   0  0  0  0  0  0  0  0  0  0  0  0
    0.3567    1.6673   -4.9735 C   0  0  0  0  0  0  0  0  0  0  0  0
    0.2175    2.8725   -4.3954 C   0  0  0  0  0  0  0  0  0  0  0  0
    1.2376    3.5911   -3.9351 C   0  0  0  0  0  0  0  0  0  0  0  0
    2.5223    3.1752   -4.0009 C   0  0  0  0  0  0  0  0  0  0  0  0
    4.0538    3.8653   -3.4901 S   0  0  0  0  0  0  0  0  0  0  0  0
    4.4177    3.4577   -1.7456 C   0  0  0  0  0  0  0  0  0  0  0  0
    3.3823    4.1975   -0.8938 C   0  0  0  0  0  0  0  0  0  0  0  0
    2.2608    1.4430   -4.8797 Se  0  0  0  0  0  2  0  0  0  0  0  0
   -1.8896    1.1970   -5.6616 C   0  0  0  0  0  0  0  0  0  0  0  0
   -2.9540    0.5194   -6.2002 C   0  0  0  0  0  0  0  0  0  0  0  0
   -2.6249   -0.7615   -6.6778 C   0  0  0  0  0  0  0  0  0  0  0  0
   -3.5764   -1.7131   -7.2398 C   0  0  0  0  0  0  0  0  0  0  0  0
   -4.8934   -1.9198   -7.2446 C   0  0  0  0  0  0  0  0  0  0  0  0
   -5.4774   -2.8535   -8.0043 C   0  0  0  0  0  0  0  0  0  0  0  0
   -4.8587   -3.6745   -8.8237 C   0  0  0  0  0  0  0  0  0  0  0  0
   -5.2193   -4.9613   -9.9624 S   0  0  0  0  0  0  0  0  0  0  0  0
   -5.4170   -4.2103  -11.6239 C   0  0  0  0  0  0  0  0  0  0  0  0
   -5.8100   -5.2604  -12.6350 C   0  0  0  0  0  0  0  0  0  0  0  0
   -2.9780   -3.0411   -8.5071 Se  0  0  0  0  0  2  0  0  0  0  0  0
   -1.3215   -1.2119   -6.5663 C   0  0  0  0  0  0  0  0  0  0  0  0
   -0.6614   -2.7921   -6.8598 S   0  0  0  0  0  0  0  0  0  0  0  0
   -4.1518    1.1277   -6.1370 C   0  0  0  0  0  0  0  0  0  0  0  0
   -4.2332    2.3465   -5.5451 C   0  0  0  0  0  0  0  0  0  0  0  0
   -2.6245    2.6238   -5.1021 S   0  0  0  0  0  0  0  0  0  0  0  0
   -5.4172    3.1796   -5.2188 C   0  0  0  0  0  0  0  0  0  0  0  0
   -5.3777    4.2509   -4.3062 C   0  0  0  0  0  0  0  0  0  0  0  0
   -6.5465    4.8176   -4.0011 C   0  0  0  0  0  0  0  0  0  0  0  0
   -6.7565    5.8688   -3.0903 C   0  0  0  0  0  0  0  0  0  0  0  0
   -5.7415    6.4596   -2.2580 C   0  0  0  0  0  0  0  0  0  0  0  0
   -4.4823    6.3114   -1.9043 C   0  0  0  0  0  0  0  0  0  0  0  0
   -3.8187    7.1079   -1.0475 C   0  0  0  0  0  0  0  0  0  0  0  0
   -4.3646    8.1630   -0.4366 C   0  0  0  0  0  0  0  0  0  0  0  0
   -3.8579    9.3884    0.7085 S   0  0  0  0  0  0  0  0  0  0  0  0
   -3.3789   10.8891   -0.1725 C   0  0  0  0  0  0  0  0  0  0  0  0
   -4.6347   11.4805   -0.7910 C   0  0  0  0  0  0  0  0  0  0  0  0
   -6.1593    8.0566   -1.1818 Se  0  0  0  0  0  2  0  0  0  0  0  0
   -8.0736    6.3021   -2.8968 C   0  0  0  0  0  0  0  0  0  0  0  0
   -9.1963    5.8230   -3.4940 C   0  0  0  0  0  0  0  0  0  0  0  0
   -8.9713    4.7706   -4.3892 C   0  0  0  0  0  0  0  0  0  0  0  0
  -10.0367    4.0213   -4.9788 C   0  0  0  0  0  0  0  0  0  0  0  0
  -10.2373    3.1540   -5.9491 C   0  0  0  0  0  0  0  0  0  0  0  0
  -11.3791    2.5113   -6.1887 C   0  0  0  0  0  0  0  0  0  0  0  0
  -12.4739    2.6910   -5.4403 C   0  0  0  0  0  0  0  0  0  0  0  0
  -14.1419    2.0844   -5.4238 S   0  0  0  0  0  0  0  0  0  0  0  0
  -15.0209    2.7024   -3.9425 C   0  0  0  0  0  0  0  0  0  0  0  0
  -15.1447    4.1940   -3.9478 C   0  0  0  0  0  0  0  0  0  0  0  0
  -11.8304    3.9921   -4.1513 Se  0  0  0  0  0  2  0  0  0  0  0  0
   -7.6703    4.3153   -4.6061 C   0  0  0  0  0  0  0  0  0  0  0  0
   -7.0549    3.0582   -5.5849 S   0  0  0  0  0  0  0  0  0  0  0  0
  -10.3609    6.4037   -3.1629 C   0  0  0  0  0  0  0  0  0  0  0  0
  -10.3357    7.4309   -2.2473 C   0  0  0  0  0  0  0  0  0  0  0  0
   -8.6885    7.5590   -1.8766 S   0  0  0  0  0  0  0  0  0  0  0  0
   -8.2784    1.9148    2.6582 H   0  0  0  0  0  0  0  0  0  0  0  0
   -6.2246    0.5052    2.0386 H   0  0  0  0  0  0  0  0  0  0  0  0
   -2.9679    0.8751    0.5382 H   0  0  0  0  0  0  0  0  0  0  0  0
   -2.3717   -1.3460   -0.5120 H   0  0  0  0  0  0  0  0  0  0  0  0
   -0.4394   -4.6493    1.9395 H   0  0  0  0  0  0  0  0  0  0  0  0
   -0.4381   -5.5149    0.4025 H   0  0  0  0  0  0  0  0  0  0  0  0
    0.6114   -3.7816   -0.8190 H   0  0  0  0  0  0  0  0  0  0  0  0
    0.1968   -2.5320    0.4225 H   0  0  0  0  0  0  0  0  0  0  0  0
    1.4420   -3.7227    0.8013 H   0  0  0  0  0  0  0  0  0  0  0  0
   -3.7955   -1.2560    4.1330 H   0  0  0  0  0  0  0  0  0  0  0  0
   -3.9628    5.8492    3.9345 H   0  0  0  0  0  0  0  0  0  0  0  0
   -4.6611    7.8456    5.2341 H   0  0  0  0  0  0  0  0  0  0  0  0
   -6.3690    8.8347   10.0797 H   0  0  0  0  0  0  0  0  0  0  0  0
   -6.5038    7.0778    9.8437 H   0  0  0  0  0  0  0  0  0  0  0  0
   -4.6119    6.8668   11.0398 H   0  0  0  0  0  0  0  0  0  0  0  0
   -4.2837    8.6604   10.9147 H   0  0  0  0  0  0  0  0  0  0  0  0
   -3.7489    7.5129    9.5835 H   0  0  0  0  0  0  0  0  0  0  0  0
   -4.5614    3.5314    7.4754 H   0  0  0  0  0  0  0  0  0  0  0  0
   -1.4070    3.9838    6.0055 H   0  0  0  0  0  0  0  0  0  0  0  0
    0.9881    1.6849    7.4958 H   0  0  0  0  0  0  0  0  0  0  0  0
    3.6917   -1.5667    9.7222 H   0  0  0  0  0  0  0  0  0  0  0  0
    3.0312   -0.9029   12.0119 H   0  0  0  0  0  0  0  0  0  0  0  0
    1.0716    3.8506   13.7257 H   0  0  0  0  0  0  0  0  0  0  0  0
    2.0698    4.0817   12.2921 H   0  0  0  0  0  0  0  0  0  0  0  0
   -0.8390    3.0761   12.4878 H   0  0  0  0  0  0  0  0  0  0  0  0
    0.1100    3.1124   10.9122 H   0  0  0  0  0  0  0  0  0  0  0  0
   -0.2540    4.6365   11.7463 H   0  0  0  0  0  0  0  0  0  0  0  0
    5.2657   -1.6982    3.3028 H   0  0  0  0  0  0  0  0  0  0  0  0
    6.2944   -1.5006    1.0466 H   0  0  0  0  0  0  0  0  0  0  0  0
    7.9565   -0.8165   -1.1265 H   0  0  0  0  0  0  0  0  0  0  0  0
    6.2614   -0.9547   -1.7102 H   0  0  0  0  0  0  0  0  0  0  0  0
    6.6728    0.4085   -3.6222 H   0  0  0  0  0  0  0  0  0  0  0  0
    8.1639    1.0714   -2.9407 H   0  0  0  0  0  0  0  0  0  0  0  0
    8.1478   -0.6317   -3.4478 H   0  0  0  0  0  0  0  0  0  0  0  0
    6.7615   -1.3608    4.7062 H   0  0  0  0  0  0  0  0  0  0  0  0
    8.8927   -2.8583    5.1826 H   0  0  0  0  0  0  0  0  0  0  0  0
   10.2843   -3.7916    0.6721 H   0  0  0  0  0  0  0  0  0  0  0  0
   12.3961   -2.5458    0.7935 H   0  0  0  0  0  0  0  0  0  0  0  0
   15.0512   -0.9803    5.3647 H   0  0  0  0  0  0  0  0  0  0  0  0
   13.8928   -2.2927    5.6026 H   0  0  0  0  0  0  0  0  0  0  0  0
   11.9949   -0.9006    5.6311 H   0  0  0  0  0  0  0  0  0  0  0  0
   13.2563    0.1763    6.4601 H   0  0  0  0  0  0  0  0  0  0  0  0
   12.8245    0.3549    4.6989 H   0  0  0  0  0  0  0  0  0  0  0  0
    5.4275   -7.3956    5.7116 H   0  0  0  0  0  0  0  0  0  0  0  0
    3.2092   -8.5326    5.7133 H   0  0  0  0  0  0  0  0  0  0  0  0
    0.4173   -8.9189    5.3706 H   0  0  0  0  0  0  0  0  0  0  0  0
   -0.4783  -10.0684    4.3816 H   0  0  0  0  0  0  0  0  0  0  0  0
    1.7144  -10.4746    6.3097 H   0  0  0  0  0  0  0  0  0  0  0  0
    0.4743  -11.6258    5.7475 H   0  0  0  0  0  0  0  0  0  0  0  0
    1.9923  -11.3378    4.7742 H   0  0  0  0  0  0  0  0  0  0  0  0
    6.1127   -7.6751    0.8487 H   0  0  0  0  0  0  0  0  0  0  0  0
    4.9376   -7.3639   -1.1098 H   0  0  0  0  0  0  0  0  0  0  0  0
    3.5533   -8.6344   -1.7978 H   0  0  0  0  0  0  0  0  0  0  0  0
    1.5222   -9.7096   -0.9714 H   0  0  0  0  0  0  0  0  0  0  0  0
   -2.2138   -7.4525   -3.4814 H   0  0  0  0  0  0  0  0  0  0  0  0
   -2.3740   -6.5599   -1.9690 H   0  0  0  0  0  0  0  0  0  0  0  0
   -4.2461   -8.1244   -1.2462 H   0  0  0  0  0  0  0  0  0  0  0  0
   -4.5483   -6.9281   -2.5361 H   0  0  0  0  0  0  0  0  0  0  0  0
   -4.3714   -8.6191   -3.0311 H   0  0  0  0  0  0  0  0  0  0  0  0
    5.6297   -1.9862   -6.2958 H   0  0  0  0  0  0  0  0  0  0  0  0
    7.7682   -1.3448   -7.2724 H   0  0  0  0  0  0  0  0  0  0  0  0
   12.0635   -1.3592   -7.9567 H   0  0  0  0  0  0  0  0  0  0  0  0
   10.3747   -1.0626   -8.6163 H   0  0  0  0  0  0  0  0  0  0  0  0
   11.7005    0.4191   -6.6196 H   0  0  0  0  0  0  0  0  0  0  0  0
    9.8949    0.3430   -6.9165 H   0  0  0  0  0  0  0  0  0  0  0  0
   10.6507   -0.6483   -5.6509 H   0  0  0  0  0  0  0  0  0  0  0  0
    3.8188   -2.8726   -6.5841 H   0  0  0  0  0  0  0  0  0  0  0  0
    1.8383   -0.8322   -5.5059 H   0  0  0  0  0  0  0  0  0  0  0  0
   -0.8217    3.2934   -4.2803 H   0  0  0  0  0  0  0  0  0  0  0  0
    1.0907    4.6140   -3.4509 H   0  0  0  0  0  0  0  0  0  0  0  0
    5.4122    3.7733   -1.4513 H   0  0  0  0  0  0  0  0  0  0  0  0
    4.2983    2.3602   -1.5991 H   0  0  0  0  0  0  0  0  0  0  0  0
    3.6810    4.2243    0.1534 H   0  0  0  0  0  0  0  0  0  0  0  0
    3.2255    5.1658   -1.3777 H   0  0  0  0  0  0  0  0  0  0  0  0
    2.4279    3.6160   -1.0627 H   0  0  0  0  0  0  0  0  0  0  0  0
   -5.5216   -1.2891   -6.5195 H   0  0  0  0  0  0  0  0  0  0  0  0
   -6.6216   -2.9490   -7.9359 H   0  0  0  0  0  0  0  0  0  0  0  0
   -4.4438   -3.7344  -11.9131 H   0  0  0  0  0  0  0  0  0  0  0  0
   -6.1462   -3.3931  -11.5383 H   0  0  0  0  0  0  0  0  0  0  0  0
   -5.9526   -6.2550  -12.1574 H   0  0  0  0  0  0  0  0  0  0  0  0
   -4.9518   -5.3957  -13.3304 H   0  0  0  0  0  0  0  0  0  0  0  0
   -6.6944   -4.9026  -13.1660 H   0  0  0  0  0  0  0  0  0  0  0  0
   -5.0877    0.7151   -6.5667 H   0  0  0  0  0  0  0  0  0  0  0  0
   -4.3717    4.5355   -3.9652 H   0  0  0  0  0  0  0  0  0  0  0  0
   -3.9067    5.4077   -2.3261 H   0  0  0  0  0  0  0  0  0  0  0  0
   -2.7255    6.8905   -0.8117 H   0  0  0  0  0  0  0  0  0  0  0  0
   -2.6246   10.6955   -0.9777 H   0  0  0  0  0  0  0  0  0  0  0  0
   -2.8707   11.6174    0.5157 H   0  0  0  0  0  0  0  0  0  0  0  0
   -4.6059   12.5980   -0.7565 H   0  0  0  0  0  0  0  0  0  0  0  0
   -5.5333   11.2318   -0.1485 H   0  0  0  0  0  0  0  0  0  0  0  0
   -4.8351   11.0650   -1.7844 H   0  0  0  0  0  0  0  0  0  0  0  0
   -9.3500    2.9345   -6.6417 H   0  0  0  0  0  0  0  0  0  0  0  0
  -11.4924    1.7654   -7.0493 H   0  0  0  0  0  0  0  0  0  0  0  0
  -15.9899    2.2201   -3.9184 H   0  0  0  0  0  0  0  0  0  0  0  0
  -14.3822    2.4152   -3.0659 H   0  0  0  0  0  0  0  0  0  0  0  0
  -14.7139    4.6570   -3.0153 H   0  0  0  0  0  0  0  0  0  0  0  0
  -16.1634    4.5872   -4.0712 H   0  0  0  0  0  0  0  0  0  0  0  0
  -14.4942    4.6272   -4.7592 H   0  0  0  0  0  0  0  0  0  0  0  0
  -11.3506    6.1464   -3.5881 H   0  0  0  0  0  0  0  0  0  0  0  0
  -11.2151    7.9940   -1.8741 H   0  0  0  0  0  0  0  0  0  0  0  0
  1  2  2  0
  2  3  1  0
  3  4  2  0
  4  5  1  0
  5  6  2  0
  6  7  1  0
  7  8  2  0
  8  9  1  0
  9 10  1  0
 10 11  1  0
  8 12  1  0
 12 13  1  0
 12 14  2  0
  4 15  1  0
 15 16  2  0
 16 17  1  0
 17 18  1  0
 18 19  2  0
 19 20  1  0
 20 21  2  0
 21 22  1  0
 22 23  1  0
 23 24  1  0
 21 25  1  0
 25 26  2  0
 25 27  1  0
 17 28  2  0
 28 29  1  0
 16 30  1  0
 30 31  2  0
 31 32  1  0
 31 33  1  0
 33 34  2  0
 34 35  1  0
 35 36  2  0
 36 37  1  0
 37 38  2  0
 38 39  1  0
 39 40  2  0
 40 41  1  0
 41 42  1  0
 42 43  1  0
 40 44  1  0
 36 45  1  0
 45 46  2  0
 46 47  1  0
 47 48  1  0
 48 49  2  0
 49 50  1  0
 50 51  2  0
 51 52  1  0
 52 53  1  0
 53 54  1  0
 51 55  1  0
 47 56  2  0
 56 57  1  0
 46 58  1  0
 58 59  2  0
 59 60  1  0
 59 61  1  0
 61 62  2  0
 62 63  1  0
 63 64  2  0
 64 65  1  0
 65 66  2  0
 66 67  1  0
 67 68  2  0
 68 69  1  0
 69 70  1  0
 70 71  1  0
 68 72  1  0
 64 73  1  0
 73 74  2  0
 74 75  1  0
 75 76  1  0
 76 77  2  0
 77 78  1  0
 78 79  2  0
 79 80  1  0
 80 81  1  0
 81 82  1  0
 79 83  1  0
 75 84  2  0
 84 85  1  0
 74 86  1  0
 86 87  2  0
 87 88  1  0
 87 89  1  0
 89 90  2  0
 90 91  1  0
 91 92  2  0
 92 93  1  0
 93 94  2  0
 94 95  1  0
 95 96  2  0
 96 97  1  0
 97 98  1  0
 98 99  1  0
 96100  1  0
 92101  1  0
101102  2  0
102103  1  0
103104  1  0
104105  2  0
105106  1  0
106107  2  0
107108  1  0
108109  1  0
109110  1  0
107111  1  0
103112  2  0
112113  1  0
102114  1  0
114115  2  0
115116  1  0
115117  1  0
117118  2  0
118119  1  0
119120  2  0
120121  1  0
121122  2  0
122123  1  0
123124  2  0
124125  1  0
125126  1  0
126127  1  0
124128  1  0
120129  1  0
129130  2  0
130131  1  0
131132  1  0
132133  2  0
133134  1  0
134135  2  0
135136  1  0
136137  1  0
137138  1  0
135139  1  0
131140  2  0
140141  1  0
130142  1  0
142143  2  0
143144  1  0
143145  1  0
145146  2  0
146147  1  0
147148  2  0
148149  1  0
149150  2  0
150151  1  0
151152  2  0
152153  1  0
153154  1  0
154155  1  0
152156  1  0
148157  1  0
157158  2  0
158159  1  0
159160  1  0
160161  2  0
161162  1  0
162163  2  0
163164  1  0
164165  1  0
165166  1  0
163167  1  0
159168  2  0
168169  1  0
158170  1  0
170171  2  0
171172  1  0
 29  1  1  0
 57 33  1  0
 85 61  1  0
113 89  1  0
141117  1  0
169145  1  0
 28  3  1  0
 56 35  1  0
 84 63  1  0
112 91  1  0
140119  1  0
168147  1  0
 14  5  1  0
 32 15  1  0
 44 37  1  0
 60 45  1  0
 72 65  1  0
 88 73  1  0
100 93  1  0
116101  1  0
128121  1  0
144129  1  0
156149  1  0
172157  1  0
 26 18  1  0
 55 48  1  0
 83 76  1  0
111104  1  0
139132  1  0
167160  1  0
  1173  1  0
  2174  1  0
  6175  1  0
  7176  1  0
 10177  1  0
 10178  1  0
 11179  1  0
 11180  1  0
 11181  1  0
 14182  1  0
 19183  1  0
 20184  1  0
 23185  1  0
 23186  1  0
 24187  1  0
 24188  1  0
 24189  1  0
 26190  1  0
 30191  1  0
 34192  1  0
 38193  1  0
 39194  1  0
 42195  1  0
 42196  1  0
 43197  1  0
 43198  1  0
 43199  1  0
 49200  1  0
 50201  1  0
 53202  1  0
 53203  1  0
 54204  1  0
 54205  1  0
 54206  1  0
 58207  1  0
 62208  1  0
 66209  1  0
 67210  1  0
 70211  1  0
 70212  1  0
 71213  1  0
 71214  1  0
 71215  1  0
 77216  1  0
 78217  1  0
 81218  1  0
 81219  1  0
 82220  1  0
 82221  1  0
 82222  1  0
 86223  1  0
 90224  1  0
 94225  1  0
 95226  1  0
 98227  1  0
 98228  1  0
 99229  1  0
 99230  1  0
 99231  1  0
105232  1  0
106233  1  0
109234  1  0
109235  1  0
110236  1  0
110237  1  0
110238  1  0
114239  1  0
118240  1  0
122241  1  0
123242  1  0
126243  1  0
126244  1  0
127245  1  0
127246  1  0
127247  1  0
133248  1  0
134249  1  0
137250  1  0
137251  1  0
138252  1  0
138253  1  0
138254  1  0
142255  1  0
146256  1  0
150257  1  0
151258  1  0
154259  1  0
154260  1  0
155261  1  0
155262  1  0
155263  1  0
161264  1  0
162265  1  0
165266  1  0
165267  1  0
166268  1  0
166269  1  0
166270  1  0
170271  1  0
171272  1  0
M  END

