
     RDKit          3D

206226  0  0  0  0  0  0  0  0999 V2000
    4.5195   -5.4612    7.7927 C   0  0  0  0  0  0  0  0  0  0  0  0
    4.0597   -4.5528    9.1849 S   0  0  0  0  0  0  0  0  0  0  0  0
    4.0242   -3.0077    8.5298 C   0  0  0  0  0  0  0  0  0  0  0  0
    4.3943   -3.1689    7.2227 C   0  0  0  0  0  0  0  0  0  0  0  0
    4.6368   -4.4160    6.8505 C   0  0  0  0  0  0  0  0  0  0  0  0
    5.0803   -4.7170    5.4982 C   0  0  0  0  0  0  0  0  0  0  0  0
    5.2721   -3.7789    4.6734 C   0  0  0  0  0  0  0  0  0  0  0  0
    5.3163   -4.0253    3.1435 C   0  0  0  0  0  0  0  0  0  0  0  0
    5.0674   -2.3064    4.9937 C   0  0  0  0  0  0  0  0  0  0  0  0
    5.4840   -1.6938    3.8943 O   0  0  0  0  0  0  0  0  0  0  0  0
    5.8439   -1.0348    2.9472 C   0  0  0  0  0  0  0  0  0  0  0  0
    4.6240   -2.1130    6.2494 C   0  0  0  0  0  0  0  0  0  0  0  0
    3.4236   -1.8069    9.2117 C   0  0  0  0  0  0  0  0  0  0  0  0
    2.2281   -1.4011    9.1364 C   0  0  0  0  0  0  0  0  0  0  0  0
    1.0030   -1.7888    8.4695 C   0  0  0  0  0  0  0  0  0  0  0  0
    0.5971   -2.9410    7.9219 C   0  0  0  0  0  0  0  0  0  0  0  0
   -0.4297   -2.8063    6.9955 C   0  0  0  0  0  0  0  0  0  0  0  0
   -0.7325   -3.9224    6.1005 C   0  0  0  0  0  0  0  0  0  0  0  0
   -0.3293   -5.2531    6.2826 C   0  0  0  0  0  0  0  0  0  0  0  0
    0.2336   -6.0726    7.1850 C   0  0  0  0  0  0  0  0  0  0  0  0
    0.4383   -7.3840    6.8228 C   0  0  0  0  0  0  0  0  0  0  0  0
    0.2067   -7.9804    5.7911 C   0  0  0  0  0  0  0  0  0  0  0  0
    0.2350   -9.5842    4.9444 S   0  0  0  0  0  0  0  0  0  0  0  0
   -1.2472  -10.4884    5.3966 C   0  0  0  0  0  0  0  0  0  0  0  0
   -2.4378   -9.5810    5.5315 C   0  0  0  0  0  0  0  0  0  0  0  0
   -0.5873   -6.4980    4.7493 Se  0  0  0  0  0  2  0  0  0  0  0  0
   -1.5691   -3.6423    5.0090 C   0  0  0  0  0  0  0  0  0  0  0  0
   -2.1408   -2.4070    4.7300 C   0  0  0  0  0  0  0  0  0  0  0  0
   -1.7722   -1.4322    5.6240 C   0  0  0  0  0  0  0  0  0  0  0  0
   -2.0981   -0.0320    5.3830 C   0  0  0  0  0  0  0  0  0  0  0  0
   -2.3363    0.6382    4.1399 C   0  0  0  0  0  0  0  0  0  0  0  0
   -2.6810    1.9741    4.3425 C   0  0  0  0  0  0  0  0  0  0  0  0
   -2.8381    2.6952    5.2802 C   0  0  0  0  0  0  0  0  0  0  0  0
   -3.1071    4.4422    5.7096 S   0  0  0  0  0  0  0  0  0  0  0  0
   -4.8086    4.8681    5.2768 C   0  0  0  0  0  0  0  0  0  0  0  0
   -4.9550    4.6463    3.7506 C   0  0  0  0  0  0  0  0  0  0  0  0
   -2.4014    1.3340    6.7063 Se  0  0  0  0  0  2  0  0  0  0  0  0
   -0.9535   -1.6993    6.6785 C   0  0  0  0  0  0  0  0  0  0  0  0
   -0.0858   -0.5374    7.7612 S   0  0  0  0  0  0  0  0  0  0  0  0
   -2.8442   -2.2592    3.5880 C   0  0  0  0  0  0  0  0  0  0  0  0
   -2.9023   -3.3727    2.7864 C   0  0  0  0  0  0  0  0  0  0  0  0
   -2.0664   -4.5237    3.6048 S   0  0  0  0  0  0  0  0  0  0  0  0
   -3.5413   -3.3231    1.3921 C   0  0  0  0  0  0  0  0  0  0  0  0
   -4.3170   -2.2073    0.4982 S   0  0  0  0  0  0  0  0  0  0  0  0
   -4.5283   -2.9558   -1.0057 C   0  0  0  0  0  0  0  0  0  0  0  0
   -3.9543   -4.2177   -0.7216 C   0  0  0  0  0  0  0  0  0  0  0  0
   -3.4287   -4.4265    0.5335 C   0  0  0  0  0  0  0  0  0  0  0  0
   -2.8705   -5.6633    0.9049 C   0  0  0  0  0  0  0  0  0  0  0  0
   -2.8724   -6.7191   -0.0225 C   0  0  0  0  0  0  0  0  0  0  0  0
   -2.2355   -8.0536    0.2599 C   0  0  0  0  0  0  0  0  0  0  0  0
   -3.3933   -6.4864   -1.1767 C   0  0  0  0  0  0  0  0  0  0  0  0
   -3.3397   -7.6367   -2.1508 O   0  0  0  0  0  0  0  0  0  0  0  0
   -4.2003   -7.1880   -3.2915 C   0  0  0  0  0  0  0  0  0  0  0  0
   -3.9594   -5.2972   -1.6495 C   0  0  0  0  0  0  0  0  0  0  0  0
   -4.7157   -2.4209   -2.4059 C   0  0  0  0  0  0  0  0  0  0  0  0
   -4.6975   -1.1599   -2.7523 C   0  0  0  0  0  0  0  0  0  0  0  0
   -4.8817   -0.7715   -4.2115 C   0  0  0  0  0  0  0  0  0  0  0  0
   -5.0172   -1.4981   -5.6650 S   0  0  0  0  0  0  0  0  0  0  0  0
   -4.3789   -0.2883   -6.7759 C   0  0  0  0  0  0  0  0  0  0  0  0
   -4.0742    0.7038   -5.8718 C   0  0  0  0  0  0  0  0  0  0  0  0
   -4.3216    0.5069   -4.5772 C   0  0  0  0  0  0  0  0  0  0  0  0
   -4.1214    1.5727   -3.6233 C   0  0  0  0  0  0  0  0  0  0  0  0
   -3.5896    2.8393   -4.0502 C   0  0  0  0  0  0  0  0  0  0  0  0
   -3.5400    3.9175   -3.0815 C   0  0  0  0  0  0  0  0  0  0  0  0
   -3.3759    2.8109   -5.2795 C   0  0  0  0  0  0  0  0  0  0  0  0
   -2.7993    4.2327   -5.6192 O   0  0  0  0  0  0  0  0  0  0  0  0
   -2.3199    4.2909   -6.9658 C   0  0  0  0  0  0  0  0  0  0  0  0
   -3.5048    2.0347   -6.3356 C   0  0  0  0  0  0  0  0  0  0  0  0
   -4.3788   -0.2871   -8.2163 C   0  0  0  0  0  0  0  0  0  0  0  0
   -3.4132   -0.5518   -9.1142 C   0  0  0  0  0  0  0  0  0  0  0  0
   -2.1183   -0.9175   -8.4647 C   0  0  0  0  0  0  0  0  0  0  0  0
   -0.9603   -0.2397   -8.5679 C   0  0  0  0  0  0  0  0  0  0  0  0
    0.0077   -0.5724   -7.6124 C   0  0  0  0  0  0  0  0  0  0  0  0
    0.9812    0.3514   -7.2223 C   0  0  0  0  0  0  0  0  0  0  0  0
    1.7234    1.2507   -8.0573 C   0  0  0  0  0  0  0  0  0  0  0  0
    1.8914    1.6632   -9.2239 C   0  0  0  0  0  0  0  0  0  0  0  0
    2.7879    2.4504   -9.7293 C   0  0  0  0  0  0  0  0  0  0  0  0
    3.7323    2.9795   -9.1042 C   0  0  0  0  0  0  0  0  0  0  0  0
    5.2506    3.8815   -9.1762 S   0  0  0  0  0  0  0  0  0  0  0  0
    5.8714    4.3722   -7.5230 C   0  0  0  0  0  0  0  0  0  0  0  0
    5.2164    5.6170   -7.0528 C   0  0  0  0  0  0  0  0  0  0  0  0
    3.2855    2.1811   -7.2095 Se  0  0  0  0  0  2  0  0  0  0  0  0
    1.4815    0.1393   -5.8991 C   0  0  0  0  0  0  0  0  0  0  0  0
    1.1984   -0.7721   -4.9584 C   0  0  0  0  0  0  0  0  0  0  0  0
    0.2186   -1.7194   -5.4372 C   0  0  0  0  0  0  0  0  0  0  0  0
   -0.1245   -2.9508   -4.8046 C   0  0  0  0  0  0  0  0  0  0  0  0
   -0.1267   -3.6960   -3.7760 C   0  0  0  0  0  0  0  0  0  0  0  0
   -0.3799   -4.9809   -3.7594 C   0  0  0  0  0  0  0  0  0  0  0  0
   -0.6601   -5.8669   -4.4597 C   0  0  0  0  0  0  0  0  0  0  0  0
   -1.0116   -7.4552   -5.1359 S   0  0  0  0  0  0  0  0  0  0  0  0
   -1.6100   -7.4408   -6.8172 C   0  0  0  0  0  0  0  0  0  0  0  0
   -3.0802   -7.0480   -6.9132 C   0  0  0  0  0  0  0  0  0  0  0  0
   -0.6069   -4.3835   -6.1773 Se  0  0  0  0  0  2  0  0  0  0  0  0
   -0.2847   -1.5085   -6.7276 C   0  0  0  0  0  0  0  0  0  0  0  0
   -1.9273   -1.9977   -7.1849 S   0  0  0  0  0  0  0  0  0  0  0  0
    1.4018   -0.4654   -3.6313 C   0  0  0  0  0  0  0  0  0  0  0  0
    1.8493    0.7429   -3.3331 C   0  0  0  0  0  0  0  0  0  0  0  0
    2.0587    1.4656   -4.9227 S   0  0  0  0  0  0  0  0  0  0  0  0
    1.9152    1.6497   -2.1720 C   0  0  0  0  0  0  0  0  0  0  0  0
    2.2897    1.7888   -0.8951 C   0  0  0  0  0  0  0  0  0  0  0  0
    2.0919    2.9960   -0.2742 C   0  0  0  0  0  0  0  0  0  0  0  0
    2.5169    3.3996    0.9670 C   0  0  0  0  0  0  0  0  0  0  0  0
    2.9107    2.5402    2.0862 C   0  0  0  0  0  0  0  0  0  0  0  0
    2.8232    1.3918    2.5825 C   0  0  0  0  0  0  0  0  0  0  0  0
    3.2931    0.7697    3.6635 C   0  0  0  0  0  0  0  0  0  0  0  0
    4.1301    1.6589    4.4936 C   0  0  0  0  0  0  0  0  0  0  0  0
    4.9725    1.5095    5.9677 S   0  0  0  0  0  0  0  0  0  0  0  0
    4.0191    2.0095    7.3947 C   0  0  0  0  0  0  0  0  0  0  0  0
    3.6323    3.4831    7.3822 C   0  0  0  0  0  0  0  0  0  0  0  0
    4.0752    3.2882    3.4542 Se  0  0  0  0  0  2  0  0  0  0  0  0
    2.3409    4.7634    1.3405 C   0  0  0  0  0  0  0  0  0  0  0  0
    1.7539    5.7235    0.5889 C   0  0  0  0  0  0  0  0  0  0  0  0
    1.3267    5.3064   -0.6444 C   0  0  0  0  0  0  0  0  0  0  0  0
    0.5200    6.1661   -1.4821 C   0  0  0  0  0  0  0  0  0  0  0  0
    0.1772    6.0423   -2.8276 C   0  0  0  0  0  0  0  0  0  0  0  0
   -0.6163    6.9012   -3.4030 C   0  0  0  0  0  0  0  0  0  0  0  0
   -1.1708    7.9809   -2.7674 C   0  0  0  0  0  0  0  0  0  0  0  0
   -2.3132    9.2306   -3.2962 S   0  0  0  0  0  0  0  0  0  0  0  0
   -3.9966    8.8914   -2.6660 C   0  0  0  0  0  0  0  0  0  0  0  0
   -3.8957    9.2151   -1.1677 C   0  0  0  0  0  0  0  0  0  0  0  0
   -0.4208    7.6943   -1.0166 Se  0  0  0  0  0  2  0  0  0  0  0  0
    1.4988    4.0161   -1.0441 C   0  0  0  0  0  0  0  0  0  0  0  0
    1.2526    3.2736   -2.4751 S   0  0  0  0  0  0  0  0  0  0  0  0
    1.7888    6.9956    1.0778 C   0  0  0  0  0  0  0  0  0  0  0  0
    2.3990    7.2239    2.2827 C   0  0  0  0  0  0  0  0  0  0  0  0
    2.9065    5.6495    2.7114 S   0  0  0  0  0  0  0  0  0  0  0  0
    4.6943   -6.5353    7.6539 H   0  0  0  0  0  0  0  0  0  0  0  0
    5.2186   -5.7710    5.1858 H   0  0  0  0  0  0  0  0  0  0  0  0
    5.0148   -3.0895    2.6241 H   0  0  0  0  0  0  0  0  0  0  0  0
    4.2717   -4.5935    2.9764 H   0  0  0  0  0  0  0  0  0  0  0  0
    6.1188   -4.5148    2.7385 H   0  0  0  0  0  0  0  0  0  0  0  0
    6.6474   -1.8148    2.2615 H   0  0  0  0  0  0  0  0  0  0  0  0
    6.8298   -0.3582    3.3217 H   0  0  0  0  0  0  0  0  0  0  0  0
    5.4774   -0.4178    2.1690 H   0  0  0  0  0  0  0  0  0  0  0  0
    4.4018   -1.1252    6.5586 H   0  0  0  0  0  0  0  0  0  0  0  0
    4.1479   -1.2218    9.8469 H   0  0  0  0  0  0  0  0  0  0  0  0
    1.9586   -0.5667    9.8826 H   0  0  0  0  0  0  0  0  0  0  0  0
    1.1046   -3.8493    8.2783 H   0  0  0  0  0  0  0  0  0  0  0  0
    0.4519   -5.7158    8.2154 H   0  0  0  0  0  0  0  0  0  0  0  0
    0.9487   -8.0535    7.7249 H   0  0  0  0  0  0  0  0  0  0  0  0
   -1.4878  -11.1564    4.4970 H   0  0  0  0  0  0  0  0  0  0  0  0
   -1.0995  -11.1225    6.3094 H   0  0  0  0  0  0  0  0  0  0  0  0
   -2.2112   -8.5144    5.2179 H   0  0  0  0  0  0  0  0  0  0  0  0
   -2.6937   -9.5848    6.6201 H   0  0  0  0  0  0  0  0  0  0  0  0
   -3.3335   -9.9744    4.9640 H   0  0  0  0  0  0  0  0  0  0  0  0
   -2.1843    0.1915    3.1986 H   0  0  0  0  0  0  0  0  0  0  0  0
   -2.8618    2.5063    3.2285 H   0  0  0  0  0  0  0  0  0  0  0  0
   -4.9142    5.9587    5.4313 H   0  0  0  0  0  0  0  0  0  0  0  0
   -5.5355    4.2476    5.8451 H   0  0  0  0  0  0  0  0  0  0  0  0
   -4.0058    5.1109    3.2695 H   0  0  0  0  0  0  0  0  0  0  0  0
   -5.8360    5.1425    3.3663 H   0  0  0  0  0  0  0  0  0  0  0  0
   -4.9569    3.5789    3.5386 H   0  0  0  0  0  0  0  0  0  0  0  0
   -3.3506   -1.3657    3.2084 H   0  0  0  0  0  0  0  0  0  0  0  0
   -2.4353   -5.8563    1.8253 H   0  0  0  0  0  0  0  0  0  0  0  0
   -2.5946   -8.8030   -0.5153 H   0  0  0  0  0  0  0  0  0  0  0  0
   -2.5022   -8.3880    1.2430 H   0  0  0  0  0  0  0  0  0  0  0  0
   -1.1784   -7.8874   -0.0002 H   0  0  0  0  0  0  0  0  0  0  0  0
   -3.6126   -6.5422   -3.8487 H   0  0  0  0  0  0  0  0  0  0  0  0
   -4.9393   -6.5319   -2.6051 H   0  0  0  0  0  0  0  0  0  0  0  0
   -4.8380   -7.9891   -3.4337 H   0  0  0  0  0  0  0  0  0  0  0  0
   -4.3095   -5.1325   -2.6162 H   0  0  0  0  0  0  0  0  0  0  0  0
   -4.8386   -3.2266   -3.1626 H   0  0  0  0  0  0  0  0  0  0  0  0
   -4.6444   -0.4349   -2.0233 H   0  0  0  0  0  0  0  0  0  0  0  0
   -4.3090    1.4721   -2.5962 H   0  0  0  0  0  0  0  0  0  0  0  0
   -3.3298    4.9000   -3.5581 H   0  0  0  0  0  0  0  0  0  0  0  0
   -2.8187    3.7076   -2.3039 H   0  0  0  0  0  0  0  0  0  0  0  0
   -4.5556    3.9645   -2.5556 H   0  0  0  0  0  0  0  0  0  0  0  0
   -1.4049    4.9460   -6.9757 H   0  0  0  0  0  0  0  0  0  0  0  0
   -1.8190    3.1805   -7.0383 H   0  0  0  0  0  0  0  0  0  0  0  0
   -2.9997    4.3587   -7.7143 H   0  0  0  0  0  0  0  0  0  0  0  0
   -3.2993    2.1280   -7.3236 H   0  0  0  0  0  0  0  0  0  0  0  0
   -5.3437   -0.0249   -8.6640 H   0  0  0  0  0  0  0  0  0  0  0  0
   -3.4816   -0.4955  -10.1375 H   0  0  0  0  0  0  0  0  0  0  0  0
   -0.8186    0.5318   -9.3411 H   0  0  0  0  0  0  0  0  0  0  0  0
    1.0951    1.2307  -10.0117 H   0  0  0  0  0  0  0  0  0  0  0  0
    2.7638    2.6543  -10.8937 H   0  0  0  0  0  0  0  0  0  0  0  0
    5.4630    3.5068   -6.8423 H   0  0  0  0  0  0  0  0  0  0  0  0
    6.9429    4.2669   -7.4219 H   0  0  0  0  0  0  0  0  0  0  0  0
    6.0156    6.1553   -6.4514 H   0  0  0  0  0  0  0  0  0  0  0  0
    4.3639    5.4404   -6.4311 H   0  0  0  0  0  0  0  0  0  0  0  0
    4.9562    6.2450   -7.9631 H   0  0  0  0  0  0  0  0  0  0  0  0
    0.1424   -3.1497   -2.7848 H   0  0  0  0  0  0  0  0  0  0  0  0
   -0.2159   -5.4381   -2.5706 H   0  0  0  0  0  0  0  0  0  0  0  0
   -1.4745   -8.4207   -7.3038 H   0  0  0  0  0  0  0  0  0  0  0  0
   -1.0228   -6.6974   -7.4862 H   0  0  0  0  0  0  0  0  0  0  0  0
   -3.6160   -7.5251   -6.0313 H   0  0  0  0  0  0  0  0  0  0  0  0
   -3.2475   -5.9865   -6.8094 H   0  0  0  0  0  0  0  0  0  0  0  0
   -3.5821   -7.4819   -7.7863 H   0  0  0  0  0  0  0  0  0  0  0  0
    1.2088   -1.1999   -2.8363 H   0  0  0  0  0  0  0  0  0  0  0  0
    2.7996    0.9139   -0.4158 H   0  0  0  0  0  0  0  0  0  0  0  0
    2.2269    0.6233    1.8221 H   0  0  0  0  0  0  0  0  0  0  0  0
    3.1556   -0.2359    3.9964 H   0  0  0  0  0  0  0  0  0  0  0  0
    4.6295    1.8508    8.3429 H   0  0  0  0  0  0  0  0  0  0  0  0
    3.0945    1.4024    7.5586 H   0  0  0  0  0  0  0  0  0  0  0  0
    2.6705    3.5966    6.8270 H   0  0  0  0  0  0  0  0  0  0  0  0
    4.4036    4.0602    6.8807 H   0  0  0  0  0  0  0  0  0  0  0  0
    3.5337    3.8720    8.4234 H   0  0  0  0  0  0  0  0  0  0  0  0
    0.6978    5.1788   -3.3764 H   0  0  0  0  0  0  0  0  0  0  0  0
   -0.8816    6.8088   -4.5058 H   0  0  0  0  0  0  0  0  0  0  0  0
   -4.2769    7.8587   -2.8216 H   0  0  0  0  0  0  0  0  0  0  0  0
   -4.6651    9.5529   -3.1534 H   0  0  0  0  0  0  0  0  0  0  0  0
   -2.8439    8.8220   -0.8606 H   0  0  0  0  0  0  0  0  0  0  0  0
   -3.7877   10.3146   -1.1448 H   0  0  0  0  0  0  0  0  0  0  0  0
   -4.7015    8.8221   -0.5710 H   0  0  0  0  0  0  0  0  0  0  0  0
    1.3144    7.8882    0.5795 H   0  0  0  0  0  0  0  0  0  0  0  0
    2.5062    8.2253    2.7764 H   0  0  0  0  0  0  0  0  0  0  0  0
  1  2  1  0
  2  3  1  0
  3  4  2  0
  4  5  1  0
  5  6  1  0
  6  7  2  0
  7  8  1  0
  7  9  1  0
  9 10  1  0
 10 11  1  0
  9 12  2  0
  3 13  1  0
 13 14  2  3
 14 15  1  0
 15 16  2  0
 16 17  1  0
 17 18  2  0
 18 19  1  0
 19 20  2  0
 20 21  1  0
 21 22  2  0
 22 23  1  0
 23 24  1  0
 24 25  1  0
 22 26  1  0
 18 27  1  0
 27 28  2  0
 28 29  1  0
 29 30  1  0
 30 31  2  0
 31 32  1  0
 32 33  2  0
 33 34  1  0
 34 35  1  0
 35 36  1  0
 33 37  1  0
 29 38  2  0
 38 39  1  0
 28 40  1  0
 40 41  2  0
 41 42  1  0
 41 43  1  0
 43 44  1  0
 44 45  1  0
 45 46  2  0
 46 47  1  0
 47 48  1  0
 48 49  2  0
 49 50  1  0
 49 51  1  0
 51 52  1  0
 52 53  1  0
 51 54  2  0
 45 55  1  0
 55 56  2  3
 56 57  1  0
 57 58  1  0
 58 59  1  0
 59 60  2  0
 60 61  1  0
 61 62  1  0
 62 63  2  0
 63 64  1  0
 63 65  1  0
 65 66  1  0
 66 67  1  0
 65 68  2  0
 59 69  1  0
 69 70  2  3
 70 71  1  0
 71 72  2  0
 72 73  1  0
 73 74  2  0
 74 75  1  0
 75 76  2  0
 76 77  1  0
 77 78  2  0
 78 79  1  0
 79 80  1  0
 80 81  1  0
 78 82  1  0
 74 83  1  0
 83 84  2  0
 84 85  1  0
 85 86  1  0
 86 87  2  0
 87 88  1  0
 88 89  2  0
 89 90  1  0
 90 91  1  0
 91 92  1  0
 89 93  1  0
 85 94  2  0
 94 95  1  0
 84 96  1  0
 96 97  2  0
 97 98  1  0
 97 99  1  0
 99100  2  0
100101  1  0
101102  2  0
102103  1  0
103104  2  0
104105  1  0
105106  2  0
106107  1  0
107108  1  0
108109  1  0
106110  1  0
102111  1  0
111112  2  0
112113  1  0
113114  1  0
114115  2  0
115116  1  0
116117  2  0
117118  1  0
118119  1  0
119120  1  0
117121  1  0
113122  2  0
122123  1  0
112124  1  0
124125  2  0
125126  1  0
  5  1  2  0
 39 15  1  0
 47 43  2  0
 61 57  2  0
 95 71  1  0
123 99  1  0
 12  4  1  0
 38 17  1  0
 54 46  1  0
 68 60  1  0
 94 73  1  0
122101  1  0
 26 19  1  0
 42 27  1  0
 82 75  1  0
 98 83  1  0
110103  1  0
126111  1  0
 37 30  1  0
 93 86  1  0
121114  1  0
  1127  1  0
  6128  1  0
  8129  1  0
  8130  1  0
  8131  1  0
 11132  1  0
 11133  1  0
 11134  1  0
 12135  1  0
 13136  1  0
 14137  1  0
 16138  1  0
 20139  1  0
 21140  1  0
 24141  1  0
 24142  1  0
 25143  1  0
 25144  1  0
 25145  1  0
 31146  1  0
 32147  1  0
 35148  1  0
 35149  1  0
 36150  1  0
 36151  1  0
 36152  1  0
 40153  1  0
 48154  1  0
 50155  1  0
 50156  1  0
 50157  1  0
 53158  1  0
 53159  1  0
 53160  1  0
 54161  1  0
 55162  1  0
 56163  1  0
 62164  1  0
 64165  1  0
 64166  1  0
 64167  1  0
 67168  1  0
 67169  1  0
 67170  1  0
 68171  1  0
 69172  1  0
 70173  1  0
 72174  1  0
 76175  1  0
 77176  1  0
 80177  1  0
 80178  1  0
 81179  1  0
 81180  1  0
 81181  1  0
 87182  1  0
 88183  1  0
 91184  1  0
 91185  1  0
 92186  1  0
 92187  1  0
 92188  1  0
 96189  1  0
100190  1  0
104191  1  0
105192  1  0
108193  1  0
108194  1  0
109195  1  0
109196  1  0
109197  1  0
115198  1  0
116199  1  0
119200  1  0
119201  1  0
120202  1  0
120203  1  0
120204  1  0
124205  1  0
125206  1  0
M  END

