
     RDKit          3D

142159  0  0  0  0  0  0  0  0999 V2000
    6.6679    4.1641    9.4567 C   0  0  0  0  0  0  0  0  0  0  0  0
    5.1871    3.4256    9.0600 S   0  0  0  0  0  0  0  0  0  0  0  0
    4.1397    4.1940   10.1605 C   0  0  0  0  0  0  0  0  0  0  0  0
    5.0283    5.0437   10.8310 C   0  0  0  0  0  0  0  0  0  0  0  0
    6.2933    5.0075   10.4560 C   0  0  0  0  0  0  0  0  0  0  0  0
    6.9448    5.8995   11.2340 O   0  0  0  0  0  0  0  0  0  0  0  0
    6.1154    6.4620   12.0562 C   0  0  0  0  0  0  0  0  0  0  0  0
    6.4165    7.5936   13.1847 S   0  0  0  0  0  0  0  0  0  0  0  0
    4.9358    5.9411   11.8138 O   0  0  0  0  0  0  0  0  0  0  0  0
    2.7072    4.0814   10.3737 C   0  0  0  0  0  0  0  0  0  0  0  0
    1.7692    3.5119    9.7420 C   0  0  0  0  0  0  0  0  0  0  0  0
    1.8338    2.7392    8.5130 C   0  0  0  0  0  0  0  0  0  0  0  0
    0.7661    2.1099    7.8858 C   0  0  0  0  0  0  0  0  0  0  0  0
    0.9983    1.4978    6.7186 C   0  0  0  0  0  0  0  0  0  0  0  0
    0.0700    0.8336    5.9062 C   0  0  0  0  0  0  0  0  0  0  0  0
   -1.3309    0.7028    6.2073 C   0  0  0  0  0  0  0  0  0  0  0  0
   -2.3137   -0.0640    5.7452 C   0  0  0  0  0  0  0  0  0  0  0  0
   -3.5867    0.0426    6.1199 C   0  0  0  0  0  0  0  0  0  0  0  0
   -4.0409    0.9257    7.0014 C   0  0  0  0  0  0  0  0  0  0  0  0
   -5.5772    1.3461    7.7241 S   0  0  0  0  0  0  0  0  0  0  0  0
   -5.3715    2.7460    8.8917 C   0  0  0  0  0  0  0  0  0  0  0  0
   -6.6983    3.0890    9.4798 C   0  0  0  0  0  0  0  0  0  0  0  0
   -2.3321    1.8412    7.4350 Se  0  0  0  0  0  2  0  0  0  0  0  0
    0.5253    0.2910    4.6939 C   0  0  0  0  0  0  0  0  0  0  0  0
    1.7913    0.3397    4.2159 C   0  0  0  0  0  0  0  0  0  0  0  0
    2.7271    0.9881    5.0283 C   0  0  0  0  0  0  0  0  0  0  0  0
    4.1449    0.9633    4.7759 C   0  0  0  0  0  0  0  0  0  0  0  0
    5.0251    0.2846    4.0643 C   0  0  0  0  0  0  0  0  0  0  0  0
    6.3341    0.5877    4.0186 C   0  0  0  0  0  0  0  0  0  0  0  0
    6.8694    1.6054    4.6919 C   0  0  0  0  0  0  0  0  0  0  0  0
    8.5348    2.2089    4.8433 S   0  0  0  0  0  0  0  0  0  0  0  0
    8.8005    3.3697    3.4509 C   0  0  0  0  0  0  0  0  0  0  0  0
    8.7695    2.6341    2.1243 C   0  0  0  0  0  0  0  0  0  0  0  0
    5.3409    2.3138    5.5669 Se  0  0  0  0  0  2  0  0  0  0  0  0
    2.2643    1.5348    6.2368 C   0  0  0  0  0  0  0  0  0  0  0  0
    3.1027    2.4262    7.4281 S   0  0  0  0  0  0  0  0  0  0  0  0
    1.9978   -0.1573    2.9787 C   0  0  0  0  0  0  0  0  0  0  0  0
    0.9252   -0.6685    2.3091 C   0  0  0  0  0  0  0  0  0  0  0  0
   -0.3466   -0.4502    3.4187 S   0  0  0  0  0  0  0  0  0  0  0  0
    0.8615   -1.1699    0.9191 C   0  0  0  0  0  0  0  0  0  0  0  0
   -0.2689   -1.6098    0.2747 C   0  0  0  0  0  0  0  0  0  0  0  0
   -0.1322   -1.9403   -1.0294 C   0  0  0  0  0  0  0  0  0  0  0  0
   -1.1595   -2.3432   -1.8921 C   0  0  0  0  0  0  0  0  0  0  0  0
   -2.5036   -2.6829   -1.4371 C   0  0  0  0  0  0  0  0  0  0  0  0
   -3.6665   -2.9150   -2.0364 C   0  0  0  0  0  0  0  0  0  0  0  0
   -4.7572   -3.3241   -1.3762 C   0  0  0  0  0  0  0  0  0  0  0  0
   -4.7955   -3.5385   -0.0692 C   0  0  0  0  0  0  0  0  0  0  0  0
   -5.9447   -4.0497    1.1617 S   0  0  0  0  0  0  0  0  0  0  0  0
   -5.9504   -5.7981    1.5316 C   0  0  0  0  0  0  0  0  0  0  0  0
   -4.6401   -6.2400    2.2010 C   0  0  0  0  0  0  0  0  0  0  0  0
   -2.9248   -3.0840    0.3861 Se  0  0  0  0  0  2  0  0  0  0  0  0
   -0.8479   -2.5655   -3.2167 C   0  0  0  0  0  0  0  0  0  0  0  0
    0.3850   -2.4429   -3.7902 C   0  0  0  0  0  0  0  0  0  0  0  0
    1.4293   -2.0369   -2.9266 C   0  0  0  0  0  0  0  0  0  0  0  0
    2.7400   -1.6922   -3.3790 C   0  0  0  0  0  0  0  0  0  0  0  0
    3.4907   -1.4455   -4.4264 C   0  0  0  0  0  0  0  0  0  0  0  0
    4.7860   -1.1614   -4.4380 C   0  0  0  0  0  0  0  0  0  0  0  0
    5.5414   -1.0792   -3.3252 C   0  0  0  0  0  0  0  0  0  0  0  0
    7.2399   -0.7017   -3.0592 S   0  0  0  0  0  0  0  0  0  0  0  0
    7.5960   -0.6766   -1.3025 C   0  0  0  0  0  0  0  0  0  0  0  0
    7.5102   -2.0360   -0.6383 C   0  0  0  0  0  0  0  0  0  0  0  0
    4.2238   -1.4749   -1.9834 Se  0  0  0  0  0  2  0  0  0  0  0  0
    1.0988   -1.8097   -1.5824 C   0  0  0  0  0  0  0  0  0  0  0  0
    2.0478   -1.2300   -0.2656 S   0  0  0  0  0  0  0  0  0  0  0  0
    0.4958   -2.6762   -5.1004 C   0  0  0  0  0  0  0  0  0  0  0  0
   -0.6551   -3.0172   -5.7848 C   0  0  0  0  0  0  0  0  0  0  0  0
   -1.8258   -3.0053   -4.5746 S   0  0  0  0  0  0  0  0  0  0  0  0
   -0.7230   -3.3236   -7.2177 C   0  0  0  0  0  0  0  0  0  0  0  0
   -2.0303   -3.2249   -8.2852 S   0  0  0  0  0  0  0  0  0  0  0  0
   -1.3166   -3.8006   -9.7354 C   0  0  0  0  0  0  0  0  0  0  0  0
   -0.0053   -4.0613   -9.2806 C   0  0  0  0  0  0  0  0  0  0  0  0
    0.2674   -3.8147   -8.0218 C   0  0  0  0  0  0  0  0  0  0  0  0
    1.5621   -4.1381   -7.8363 O   0  0  0  0  0  0  0  0  0  0  0  0
    2.0716   -4.5743   -8.9561 C   0  0  0  0  0  0  0  0  0  0  0  0
    3.6167   -5.0769   -9.1839 S   0  0  0  0  0  0  0  0  0  0  0  0
    1.1208   -4.5287   -9.8319 O   0  0  0  0  0  0  0  0  0  0  0  0
   -1.7408   -3.8889  -11.1053 C   0  0  0  0  0  0  0  0  0  0  0  0
   -2.6877   -3.2791  -11.7052 C   0  0  0  0  0  0  0  0  0  0  0  0
   -3.6651   -2.2970  -11.2378 C   0  0  0  0  0  0  0  0  0  0  0  0
   -4.1980   -1.8153   -9.7039 S   0  0  0  0  0  0  0  0  0  0  0  0
   -5.1941   -0.4913  -10.0713 C   0  0  0  0  0  0  0  0  0  0  0  0
   -5.0723   -0.4656  -11.4669 C   0  0  0  0  0  0  0  0  0  0  0  0
   -4.3143   -1.3627  -12.0437 C   0  0  0  0  0  0  0  0  0  0  0  0
   -4.3708   -1.1208  -13.3715 O   0  0  0  0  0  0  0  0  0  0  0  0
   -5.1440   -0.0991  -13.6056 C   0  0  0  0  0  0  0  0  0  0  0  0
   -5.5430    0.5949  -15.0351 S   0  0  0  0  0  0  0  0  0  0  0  0
   -5.5701    0.3010  -12.4560 O   0  0  0  0  0  0  0  0  0  0  0  0
   -6.0516    0.3954   -9.2946 C   0  0  0  0  0  0  0  0  0  0  0  0
   -6.5508    0.2317   -8.1305 C   0  0  0  0  0  0  0  0  0  0  0  0
   -6.4266   -0.8878   -7.2310 C   0  0  0  0  0  0  0  0  0  0  0  0
   -5.6275   -2.3867   -7.3992 S   0  0  0  0  0  0  0  0  0  0  0  0
   -6.0430   -3.1320   -5.9408 C   0  0  0  0  0  0  0  0  0  0  0  0
   -6.8110   -2.1765   -5.3342 C   0  0  0  0  0  0  0  0  0  0  0  0
   -7.0213   -1.0283   -5.9685 C   0  0  0  0  0  0  0  0  0  0  0  0
   -7.7935   -0.2655   -5.1792 O   0  0  0  0  0  0  0  0  0  0  0  0
   -8.0546   -0.9369   -4.0709 C   0  0  0  0  0  0  0  0  0  0  0  0
   -8.9865   -0.2987   -2.8632 S   0  0  0  0  0  0  0  0  0  0  0  0
   -7.4711   -2.0811   -4.1553 O   0  0  0  0  0  0  0  0  0  0  0  0
   -5.6983   -4.4748   -5.4091 C   0  0  0  0  0  0  0  0  0  0  0  0
   -6.3472   -4.9908   -4.4079 C   0  0  0  0  0  0  0  0  0  0  0  0
    7.6808    4.0142    9.0310 H   0  0  0  0  0  0  0  0  0  0  0  0
    2.3721    4.6199   11.3128 H   0  0  0  0  0  0  0  0  0  0  0  0
    0.7479    3.6296   10.1817 H   0  0  0  0  0  0  0  0  0  0  0  0
   -0.2103    2.1483    8.4023 H   0  0  0  0  0  0  0  0  0  0  0  0
   -2.0140   -0.8778    4.9906 H   0  0  0  0  0  0  0  0  0  0  0  0
   -4.3709   -0.6664    5.6651 H   0  0  0  0  0  0  0  0  0  0  0  0
   -4.9524    3.6348    8.3593 H   0  0  0  0  0  0  0  0  0  0  0  0
   -4.6852    2.4522    9.7351 H   0  0  0  0  0  0  0  0  0  0  0  0
   -7.0417    2.3170   10.1746 H   0  0  0  0  0  0  0  0  0  0  0  0
   -6.6245    4.0465   10.0723 H   0  0  0  0  0  0  0  0  0  0  0  0
   -7.4672    3.2652    8.6870 H   0  0  0  0  0  0  0  0  0  0  0  0
    4.6571   -0.6539    3.4924 H   0  0  0  0  0  0  0  0  0  0  0  0
    7.0313   -0.0430    3.3795 H   0  0  0  0  0  0  0  0  0  0  0  0
    7.9319    4.0649    3.4473 H   0  0  0  0  0  0  0  0  0  0  0  0
    9.7177    3.9498    3.5475 H   0  0  0  0  0  0  0  0  0  0  0  0
    7.9829    1.8673    2.1260 H   0  0  0  0  0  0  0  0  0  0  0  0
    8.6406    3.3899    1.3424 H   0  0  0  0  0  0  0  0  0  0  0  0
    9.7683    2.1753    1.9803 H   0  0  0  0  0  0  0  0  0  0  0  0
    2.9699   -0.1456    2.4385 H   0  0  0  0  0  0  0  0  0  0  0  0
   -1.2033   -1.6357    0.8764 H   0  0  0  0  0  0  0  0  0  0  0  0
   -3.7279   -2.7378   -3.1626 H   0  0  0  0  0  0  0  0  0  0  0  0
   -5.7327   -3.5109   -1.9510 H   0  0  0  0  0  0  0  0  0  0  0  0
   -6.1978   -6.4676    0.7104 H   0  0  0  0  0  0  0  0  0  0  0  0
   -6.7266   -5.9535    2.3291 H   0  0  0  0  0  0  0  0  0  0  0  0
   -4.1438   -5.3989    2.7099 H   0  0  0  0  0  0  0  0  0  0  0  0
   -3.9771   -6.5839    1.3716 H   0  0  0  0  0  0  0  0  0  0  0  0
   -4.8301   -7.1013    2.8526 H   0  0  0  0  0  0  0  0  0  0  0  0
    2.9529   -1.4276   -5.4556 H   0  0  0  0  0  0  0  0  0  0  0  0
    5.3486   -0.9707   -5.4223 H   0  0  0  0  0  0  0  0  0  0  0  0
    8.6252   -0.2885   -1.0908 H   0  0  0  0  0  0  0  0  0  0  0  0
    6.9339    0.0724   -0.7675 H   0  0  0  0  0  0  0  0  0  0  0  0
    8.5438   -2.4567   -0.5574 H   0  0  0  0  0  0  0  0  0  0  0  0
    6.8314   -2.7207   -1.1492 H   0  0  0  0  0  0  0  0  0  0  0  0
    7.1732   -1.8451    0.4054 H   0  0  0  0  0  0  0  0  0  0  0  0
    1.4314   -2.6633   -5.7012 H   0  0  0  0  0  0  0  0  0  0  0  0
   -1.1560   -4.6063  -11.7256 H   0  0  0  0  0  0  0  0  0  0  0  0
   -2.8529   -3.5375  -12.8086 H   0  0  0  0  0  0  0  0  0  0  0  0
   -6.2679    1.3753   -9.8216 H   0  0  0  0  0  0  0  0  0  0  0  0
   -7.1772    1.0806   -7.7336 H   0  0  0  0  0  0  0  0  0  0  0  0
   -4.8858   -4.9816   -5.9063 H   0  0  0  0  0  0  0  0  0  0  0  0
   -6.0967   -5.9595   -4.0256 H   0  0  0  0  0  0  0  0  0  0  0  0
   -7.1599   -4.4486   -3.9534 H   0  0  0  0  0  0  0  0  0  0  0  0
  1  2  1  0
  2  3  1  0
  3  4  2  0
  4  5  1  0
  5  6  1  0
  6  7  1  0
  7  8  2  0
  7  9  1  0
  3 10  1  0
 10 11  2  3
 11 12  1  0
 12 13  2  0
 13 14  1  0
 14 15  2  0
 15 16  1  0
 16 17  2  0
 17 18  1  0
 18 19  2  0
 19 20  1  0
 20 21  1  0
 21 22  1  0
 19 23  1  0
 15 24  1  0
 24 25  2  0
 25 26  1  0
 26 27  1  0
 27 28  2  0
 28 29  1  0
 29 30  2  0
 30 31  1  0
 31 32  1  0
 32 33  1  0
 30 34  1  0
 26 35  2  0
 35 36  1  0
 25 37  1  0
 37 38  2  0
 38 39  1  0
 38 40  1  0
 40 41  2  0
 41 42  1  0
 42 43  2  0
 43 44  1  0
 44 45  2  0
 45 46  1  0
 46 47  2  0
 47 48  1  0
 48 49  1  0
 49 50  1  0
 47 51  1  0
 43 52  1  0
 52 53  2  0
 53 54  1  0
 54 55  1  0
 55 56  2  0
 56 57  1  0
 57 58  2  0
 58 59  1  0
 59 60  1  0
 60 61  1  0
 58 62  1  0
 54 63  2  0
 63 64  1  0
 53 65  1  0
 65 66  2  0
 66 67  1  0
 66 68  1  0
 68 69  1  0
 69 70  1  0
 70 71  2  0
 71 72  1  0
 72 73  1  0
 73 74  1  0
 74 75  2  0
 74 76  1  0
 70 77  1  0
 77 78  2  3
 78 79  1  0
 79 80  1  0
 80 81  1  0
 81 82  2  0
 82 83  1  0
 83 84  1  0
 84 85  1  0
 85 86  2  0
 85 87  1  0
 81 88  1  0
 88 89  2  3
 89 90  1  0
 90 91  1  0
 91 92  1  0
 92 93  2  0
 93 94  1  0
 94 95  1  0
 95 96  1  0
 96 97  2  0
 96 98  1  0
 92 99  1  0
 99100  2  3
  5  1  2  0
 36 12  1  0
 64 40  1  0
 72 68  2  0
 83 79  2  0
 94 90  2  0
  9  4  1  0
 35 14  1  0
 63 42  1  0
 76 71  1  0
 87 82  1  0
 98 93  1  0
 23 16  1  0
 39 24  1  0
 51 44  1  0
 67 52  1  0
 34 27  1  0
 62 55  1  0
  1101  1  0
 10102  1  0
 11103  1  0
 13104  1  0
 17105  1  0
 18106  1  0
 21107  1  0
 21108  1  0
 22109  1  0
 22110  1  0
 22111  1  0
 28112  1  0
 29113  1  0
 32114  1  0
 32115  1  0
 33116  1  0
 33117  1  0
 33118  1  0
 37119  1  0
 41120  1  0
 45121  1  0
 46122  1  0
 49123  1  0
 49124  1  0
 50125  1  0
 50126  1  0
 50127  1  0
 56128  1  0
 57129  1  0
 60130  1  0
 60131  1  0
 61132  1  0
 61133  1  0
 61134  1  0
 65135  1  0
 77136  1  0
 78137  1  0
 88138  1  0
 89139  1  0
 99140  1  0
100141  1  0
100142  1  0
M  END

