
     RDKit          3D

206227  0  0  0  0  0  0  0  0999 V2000
    8.5394   -7.7730    8.2667 C   0  0  0  0  0  0  0  0  0  0  0  0
    7.3062   -7.1997    8.4794 C   0  0  0  0  0  0  0  0  0  0  0  0
    6.9597   -6.0808    7.7269 C   0  0  0  0  0  0  0  0  0  0  0  0
    7.8476   -5.5905    6.8143 C   0  0  0  0  0  0  0  0  0  0  0  0
    9.0969   -6.1759    6.6106 C   0  0  0  0  0  0  0  0  0  0  0  0
   10.1854   -5.8816    5.7075 C   0  0  0  0  0  0  0  0  0  0  0  0
   10.3026   -4.8538    4.9369 C   0  0  0  0  0  0  0  0  0  0  0  0
   11.4565   -4.6326    4.0217 C   0  0  0  0  0  0  0  0  0  0  0  0
   12.1812   -3.5302    3.9921 C   0  0  0  0  0  0  0  0  0  0  0  0
   13.1666   -3.3993    3.0594 C   0  0  0  0  0  0  0  0  0  0  0  0
   13.0322   -4.8919    2.2204 S   0  0  0  0  0  0  0  0  0  0  0  0
   11.7464   -5.6041    3.0756 C   0  0  0  0  0  0  0  0  0  0  0  0
   11.2320   -6.9068    5.9443 C   0  0  0  0  0  0  0  0  0  0  0  0
   12.3337   -6.9956    5.3594 O   0  0  0  0  0  0  0  0  0  0  0  0
   10.7335   -7.7586    6.9789 N   0  0  0  0  0  0  0  0  0  0  0  0
   11.4700   -8.8850    7.5308 C   0  0  0  0  0  0  0  0  0  0  0  0
   12.3244   -8.5263    8.6963 C   0  0  0  0  0  0  0  0  0  0  0  0
    9.4429   -7.2918    7.3532 C   0  0  0  0  0  0  0  0  0  0  0  0
    7.3858   -4.4985    5.9463 C   0  0  0  0  0  0  0  0  0  0  0  0
    7.0673   -4.7936    4.6308 C   0  0  0  0  0  0  0  0  0  0  0  0
    6.6307   -3.8184    3.7835 C   0  0  0  0  0  0  0  0  0  0  0  0
    6.5039   -2.4921    4.2510 C   0  0  0  0  0  0  0  0  0  0  0  0
    6.8214   -2.2214    5.5334 C   0  0  0  0  0  0  0  0  0  0  0  0
    6.8661   -0.9443    6.2391 C   0  0  0  0  0  0  0  0  0  0  0  0
    6.7573    0.2609    5.7549 C   0  0  0  0  0  0  0  0  0  0  0  0
    6.8006    1.4244    6.6788 C   0  0  0  0  0  0  0  0  0  0  0  0
    7.6236    2.4739    6.4614 C   0  0  0  0  0  0  0  0  0  0  0  0
    7.5366    3.5289    7.3123 C   0  0  0  0  0  0  0  0  0  0  0  0
    6.3097    3.0473    8.3968 S   0  0  0  0  0  0  0  0  0  0  0  0
    5.9373    1.5165    7.7462 C   0  0  0  0  0  0  0  0  0  0  0  0
    7.3433   -1.2409    7.6038 C   0  0  0  0  0  0  0  0  0  0  0  0
    7.5119   -0.3936    8.5102 O   0  0  0  0  0  0  0  0  0  0  0  0
    7.5766   -2.6496    7.6812 N   0  0  0  0  0  0  0  0  0  0  0  0
    8.0643   -3.2471    8.9088 C   0  0  0  0  0  0  0  0  0  0  0  0
    6.8942   -3.6049    9.7965 C   0  0  0  0  0  0  0  0  0  0  0  0
    7.2711   -3.2186    6.4374 C   0  0  0  0  0  0  0  0  0  0  0  0
    5.9200   -1.6018    3.2431 C   0  0  0  0  0  0  0  0  0  0  0  0
    4.9634   -0.6273    3.3739 C   0  0  0  0  0  0  0  0  0  0  0  0
    4.4674   -0.0523    2.2508 C   0  0  0  0  0  0  0  0  0  0  0  0
    3.4956    0.9183    2.1572 C   0  0  0  0  0  0  0  0  0  0  0  0
    2.7325    1.4007    3.2624 C   0  0  0  0  0  0  0  0  0  0  0  0
    1.9711    2.4601    3.4886 C   0  0  0  0  0  0  0  0  0  0  0  0
    1.2202    2.6271    4.5740 C   0  0  0  0  0  0  0  0  0  0  0  0
    1.1564    1.7269    5.5637 C   0  0  0  0  0  0  0  0  0  0  0  0
    0.2501    1.5689    7.0750 S   0  0  0  0  0  0  0  0  0  0  0  0
   -1.3106    0.6562    6.7383 C   0  0  0  0  0  0  0  0  0  0  0  0
   -0.9213   -0.7438    6.3864 C   0  0  0  0  0  0  0  0  0  0  0  0
    2.3794    0.3578    4.8860 Se  0  0  0  0  0  2  0  0  0  0  0  0
    3.0841    1.3747    0.9032 C   0  0  0  0  0  0  0  0  0  0  0  0
    3.5507    0.9486   -0.3044 C   0  0  0  0  0  0  0  0  0  0  0  0
    4.5405   -0.0303   -0.2088 C   0  0  0  0  0  0  0  0  0  0  0  0
    5.1052   -0.7402   -1.3088 C   0  0  0  0  0  0  0  0  0  0  0  0
    6.1493   -1.4984   -1.5467 C   0  0  0  0  0  0  0  0  0  0  0  0
    6.3677   -2.1968   -2.6593 C   0  0  0  0  0  0  0  0  0  0  0  0
    5.5235   -2.2092   -3.7057 C   0  0  0  0  0  0  0  0  0  0  0  0
    5.5060   -3.0277   -5.2638 S   0  0  0  0  0  0  0  0  0  0  0  0
    4.6955   -4.6498   -5.1395 C   0  0  0  0  0  0  0  0  0  0  0  0
    4.6788   -5.3684   -6.4555 C   0  0  0  0  0  0  0  0  0  0  0  0
    4.1300   -1.0076   -3.0274 Se  0  0  0  0  0  2  0  0  0  0  0  0
    4.9622   -0.4916    1.0658 C   0  0  0  0  0  0  0  0  0  0  0  0
    6.0878   -1.6784    1.5221 S   0  0  0  0  0  0  0  0  0  0  0  0
    2.9328    1.4727   -1.4065 C   0  0  0  0  0  0  0  0  0  0  0  0
    1.9394    2.3410   -1.2383 C   0  0  0  0  0  0  0  0  0  0  0  0
    1.8453    2.4657    0.4840 S   0  0  0  0  0  0  0  0  0  0  0  0
    0.8403    2.9529   -2.0091 C   0  0  0  0  0  0  0  0  0  0  0  0
    0.1886    2.4570   -3.1036 C   0  0  0  0  0  0  0  0  0  0  0  0
   -1.0053    2.9774   -3.4619 C   0  0  0  0  0  0  0  0  0  0  0  0
   -1.9467    2.4687   -4.3807 C   0  0  0  0  0  0  0  0  0  0  0  0
   -1.6418    1.5169   -5.4266 C   0  0  0  0  0  0  0  0  0  0  0  0
   -2.2823    0.8328   -6.3708 C   0  0  0  0  0  0  0  0  0  0  0  0
   -1.6878    0.0987   -7.2963 C   0  0  0  0  0  0  0  0  0  0  0  0
   -0.3711   -0.0596   -7.4185 C   0  0  0  0  0  0  0  0  0  0  0  0
    0.7886   -0.8365   -8.4608 S   0  0  0  0  0  0  0  0  0  0  0  0
    0.9985   -2.5930   -8.1671 C   0  0  0  0  0  0  0  0  0  0  0  0
    2.0956   -3.0777   -9.0767 C   0  0  0  0  0  0  0  0  0  0  0  0
    0.1968    1.0767   -5.8747 Se  0  0  0  0  0  2  0  0  0  0  0  0
   -3.2338    2.9868   -4.4298 C   0  0  0  0  0  0  0  0  0  0  0  0
   -3.7095    3.9983   -3.6562 C   0  0  0  0  0  0  0  0  0  0  0  0
   -2.7631    4.5318   -2.7488 C   0  0  0  0  0  0  0  0  0  0  0  0
   -3.0350    5.7258   -1.9394 C   0  0  0  0  0  0  0  0  0  0  0  0
   -2.4137    6.3138   -0.9144 C   0  0  0  0  0  0  0  0  0  0  0  0
   -2.8157    7.4667   -0.3942 C   0  0  0  0  0  0  0  0  0  0  0  0
   -3.8638    8.1655   -0.8189 C   0  0  0  0  0  0  0  0  0  0  0  0
   -4.7171    9.6518   -0.4466 S   0  0  0  0  0  0  0  0  0  0  0  0
   -4.0375   11.1071   -1.2724 C   0  0  0  0  0  0  0  0  0  0  0  0
   -2.6415   11.4349   -0.7465 C   0  0  0  0  0  0  0  0  0  0  0  0
   -4.4368    6.9432   -2.2886 Se  0  0  0  0  0  2  0  0  0  0  0  0
   -1.4895    3.9982   -2.6940 C   0  0  0  0  0  0  0  0  0  0  0  0
   -0.2359    4.1822   -1.5095 S   0  0  0  0  0  0  0  0  0  0  0  0
   -5.0620    4.2163   -3.6912 C   0  0  0  0  0  0  0  0  0  0  0  0
   -5.8289    3.4267   -4.4589 C   0  0  0  0  0  0  0  0  0  0  0  0
   -4.6658    2.3641   -5.1812 S   0  0  0  0  0  0  0  0  0  0  0  0
   -7.2727    3.1785   -4.5723 C   0  0  0  0  0  0  0  0  0  0  0  0
   -8.0794    3.8348   -5.4022 C   0  0  0  0  0  0  0  0  0  0  0  0
   -9.4509    3.5162   -5.5009 C   0  0  0  0  0  0  0  0  0  0  0  0
   -9.9752    2.5254   -4.7377 C   0  0  0  0  0  0  0  0  0  0  0  0
   -9.1532    1.8336   -3.8527 C   0  0  0  0  0  0  0  0  0  0  0  0
   -9.5404    0.7261   -2.9848 C   0  0  0  0  0  0  0  0  0  0  0  0
  -10.5452    0.2478   -2.3807 C   0  0  0  0  0  0  0  0  0  0  0  0
  -11.9608    0.5136   -2.1424 C   0  0  0  0  0  0  0  0  0  0  0  0
  -12.9430   -0.3797   -2.3418 C   0  0  0  0  0  0  0  0  0  0  0  0
  -14.2037   -0.0841   -1.9310 C   0  0  0  0  0  0  0  0  0  0  0  0
  -14.0139    1.4696   -1.2486 S   0  0  0  0  0  0  0  0  0  0  0  0
  -12.3587    1.6893   -1.5059 C   0  0  0  0  0  0  0  0  0  0  0  0
   -8.2062    0.3849   -2.3378 C   0  0  0  0  0  0  0  0  0  0  0  0
   -8.0141   -0.5271   -1.4982 O   0  0  0  0  0  0  0  0  0  0  0  0
   -7.2128    1.2672   -2.8337 N   0  0  0  0  0  0  0  0  0  0  0  0
   -5.8704    1.2488   -2.2618 C   0  0  0  0  0  0  0  0  0  0  0  0
   -4.9339    0.2411   -2.8684 C   0  0  0  0  0  0  0  0  0  0  0  0
   -7.7887    2.1494   -3.7634 C   0  0  0  0  0  0  0  0  0  0  0  0
  -11.3616    2.0587   -4.9421 C   0  0  0  0  0  0  0  0  0  0  0  0
  -12.3941    2.7868   -4.4673 C   0  0  0  0  0  0  0  0  0  0  0  0
  -13.7082    2.3140   -4.4870 C   0  0  0  0  0  0  0  0  0  0  0  0
  -13.9334    1.0487   -5.0191 C   0  0  0  0  0  0  0  0  0  0  0  0
  -12.8772    0.3098   -5.5096 C   0  0  0  0  0  0  0  0  0  0  0  0
  -12.9225   -1.0141   -6.1480 C   0  0  0  0  0  0  0  0  0  0  0  0
  -13.8938   -1.8876   -6.1534 C   0  0  0  0  0  0  0  0  0  0  0  0
  -13.7996   -3.2122   -6.8313 C   0  0  0  0  0  0  0  0  0  0  0  0
  -13.4462   -3.4097   -8.0993 C   0  0  0  0  0  0  0  0  0  0  0  0
  -13.3454   -4.7198   -8.5273 C   0  0  0  0  0  0  0  0  0  0  0  0
  -13.7495   -5.6243   -7.1268 S   0  0  0  0  0  0  0  0  0  0  0  0
  -14.0298   -4.3429   -6.0548 C   0  0  0  0  0  0  0  0  0  0  0  0
  -11.5373   -1.2499   -6.5345 C   0  0  0  0  0  0  0  0  0  0  0  0
  -11.1402   -2.2797   -7.1373 O   0  0  0  0  0  0  0  0  0  0  0  0
  -10.7083   -0.1257   -6.1190 N   0  0  0  0  0  0  0  0  0  0  0  0
   -9.3087   -0.0425   -6.5378 C   0  0  0  0  0  0  0  0  0  0  0  0
   -8.3293   -0.7596   -5.6666 C   0  0  0  0  0  0  0  0  0  0  0  0
  -11.5639    0.7994   -5.4873 C   0  0  0  0  0  0  0  0  0  0  0  0
    8.8306   -8.6472    8.8506 H   0  0  0  0  0  0  0  0  0  0  0  0
    6.6230   -7.6364    9.1990 H   0  0  0  0  0  0  0  0  0  0  0  0
    5.9822   -5.6445    7.8923 H   0  0  0  0  0  0  0  0  0  0  0  0
    9.5881   -4.0516    4.9423 H   0  0  0  0  0  0  0  0  0  0  0  0
   12.0312   -2.6691    4.7048 H   0  0  0  0  0  0  0  0  0  0  0  0
   13.8644   -2.5544    2.8815 H   0  0  0  0  0  0  0  0  0  0  0  0
   11.2378   -6.5776    2.9570 H   0  0  0  0  0  0  0  0  0  0  0  0
   12.1158   -9.2955    6.7331 H   0  0  0  0  0  0  0  0  0  0  0  0
   10.7122   -9.6039    7.8668 H   0  0  0  0  0  0  0  0  0  0  0  0
   12.2482   -9.2787    9.5354 H   0  0  0  0  0  0  0  0  0  0  0  0
   12.0378   -7.5590    9.1427 H   0  0  0  0  0  0  0  0  0  0  0  0
   13.4059   -8.4057    8.4095 H   0  0  0  0  0  0  0  0  0  0  0  0
    7.1588   -5.8084    4.2791 H   0  0  0  0  0  0  0  0  0  0  0  0
    6.3714   -3.9869    2.7644 H   0  0  0  0  0  0  0  0  0  0  0  0
    6.7195    0.4576    4.7177 H   0  0  0  0  0  0  0  0  0  0  0  0
    8.3608    2.5219    5.6294 H   0  0  0  0  0  0  0  0  0  0  0  0
    8.1165    4.4810    7.3028 H   0  0  0  0  0  0  0  0  0  0  0  0
    5.1905    0.7692    8.0703 H   0  0  0  0  0  0  0  0  0  0  0  0
    8.6772   -2.4979    9.4905 H   0  0  0  0  0  0  0  0  0  0  0  0
    8.6785   -4.1410    8.7548 H   0  0  0  0  0  0  0  0  0  0  0  0
    6.6997   -2.7044   10.4682 H   0  0  0  0  0  0  0  0  0  0  0  0
    7.1029   -4.4340   10.4691 H   0  0  0  0  0  0  0  0  0  0  0  0
    5.9452   -3.7661    9.2141 H   0  0  0  0  0  0  0  0  0  0  0  0
    4.6112   -0.3698    4.4003 H   0  0  0  0  0  0  0  0  0  0  0  0
    1.9862    3.2807    2.6958 H   0  0  0  0  0  0  0  0  0  0  0  0
    0.5938    3.5805    4.7494 H   0  0  0  0  0  0  0  0  0  0  0  0
   -1.8839    0.6689    7.6870 H   0  0  0  0  0  0  0  0  0  0  0  0
   -1.9112    1.1639    5.9779 H   0  0  0  0  0  0  0  0  0  0  0  0
   -1.7475   -1.4711    6.5042 H   0  0  0  0  0  0  0  0  0  0  0  0
   -0.0840   -1.0962    7.0472 H   0  0  0  0  0  0  0  0  0  0  0  0
   -0.6095   -0.8363    5.3109 H   0  0  0  0  0  0  0  0  0  0  0  0
    6.9606   -1.5539   -0.7294 H   0  0  0  0  0  0  0  0  0  0  0  0
    7.3151   -2.8342   -2.7942 H   0  0  0  0  0  0  0  0  0  0  0  0
    3.6239   -4.5331   -4.8015 H   0  0  0  0  0  0  0  0  0  0  0  0
    5.2070   -5.2559   -4.3395 H   0  0  0  0  0  0  0  0  0  0  0  0
    5.5262   -5.0932   -7.0890 H   0  0  0  0  0  0  0  0  0  0  0  0
    3.7641   -5.1051   -7.0538 H   0  0  0  0  0  0  0  0  0  0  0  0
    4.6817   -6.4821   -6.2842 H   0  0  0  0  0  0  0  0  0  0  0  0
    3.2230    1.2150   -2.4685 H   0  0  0  0  0  0  0  0  0  0  0  0
    0.6744    1.6215   -3.6569 H   0  0  0  0  0  0  0  0  0  0  0  0
   -3.4408    0.8696   -6.3545 H   0  0  0  0  0  0  0  0  0  0  0  0
   -2.3208   -0.4466   -8.0889 H   0  0  0  0  0  0  0  0  0  0  0  0
    0.0262   -3.0806   -8.5122 H   0  0  0  0  0  0  0  0  0  0  0  0
    1.1033   -2.8945   -7.1214 H   0  0  0  0  0  0  0  0  0  0  0  0
    2.3477   -2.3373   -9.8328 H   0  0  0  0  0  0  0  0  0  0  0  0
    3.0166   -3.3643   -8.4992 H   0  0  0  0  0  0  0  0  0  0  0  0
    1.7780   -4.0335   -9.5790 H   0  0  0  0  0  0  0  0  0  0  0  0
   -1.5003    5.7888   -0.4747 H   0  0  0  0  0  0  0  0  0  0  0  0
   -2.2354    7.9170    0.5086 H   0  0  0  0  0  0  0  0  0  0  0  0
   -4.6980   12.0004   -1.1269 H   0  0  0  0  0  0  0  0  0  0  0  0
   -3.9803   10.9417   -2.3571 H   0  0  0  0  0  0  0  0  0  0  0  0
   -1.8705   10.8620   -1.2721 H   0  0  0  0  0  0  0  0  0  0  0  0
   -2.3848   12.5181   -0.9183 H   0  0  0  0  0  0  0  0  0  0  0  0
   -2.6129   11.2374    0.3463 H   0  0  0  0  0  0  0  0  0  0  0  0
   -5.5217    5.0341   -3.0931 H   0  0  0  0  0  0  0  0  0  0  0  0
   -7.6608    4.6538   -5.9984 H   0  0  0  0  0  0  0  0  0  0  0  0
  -10.0643    4.0800   -6.2078 H   0  0  0  0  0  0  0  0  0  0  0  0
  -10.2975   -0.7915   -1.8868 H   0  0  0  0  0  0  0  0  0  0  0  0
  -12.7448   -1.3650   -2.8606 H   0  0  0  0  0  0  0  0  0  0  0  0
  -15.0955   -0.7358   -2.0527 H   0  0  0  0  0  0  0  0  0  0  0  0
  -11.6823    2.5263   -1.2659 H   0  0  0  0  0  0  0  0  0  0  0  0
   -5.4326    2.2473   -2.0804 H   0  0  0  0  0  0  0  0  0  0  0  0
   -5.9977    0.8694   -1.1872 H   0  0  0  0  0  0  0  0  0  0  0  0
   -3.9163    0.6552   -2.8836 H   0  0  0  0  0  0  0  0  0  0  0  0
   -4.8462   -0.6916   -2.2043 H   0  0  0  0  0  0  0  0  0  0  0  0
   -5.2533   -0.1688   -3.8511 H   0  0  0  0  0  0  0  0  0  0  0  0
  -12.2394    3.7801   -4.0694 H   0  0  0  0  0  0  0  0  0  0  0  0
  -14.4876    2.9362   -4.0956 H   0  0  0  0  0  0  0  0  0  0  0  0
  -14.9596    0.6980   -5.0278 H   0  0  0  0  0  0  0  0  0  0  0  0
  -14.8381   -1.6551   -5.6505 H   0  0  0  0  0  0  0  0  0  0  0  0
  -13.2425   -2.6088   -8.8513 H   0  0  0  0  0  0  0  0  0  0  0  0
  -13.0584   -5.0906   -9.5434 H   0  0  0  0  0  0  0  0  0  0  0  0
  -14.3286   -4.3523   -4.9770 H   0  0  0  0  0  0  0  0  0  0  0  0
   -9.2403   -0.5650   -7.5449 H   0  0  0  0  0  0  0  0  0  0  0  0
   -9.0093    0.9986   -6.8046 H   0  0  0  0  0  0  0  0  0  0  0  0
   -7.4636   -0.0745   -5.4507 H   0  0  0  0  0  0  0  0  0  0  0  0
   -7.7869   -1.5744   -6.2650 H   0  0  0  0  0  0  0  0  0  0  0  0
   -8.7313   -1.2838   -4.7874 H   0  0  0  0  0  0  0  0  0  0  0  0
  1  2  2  0
  2  3  1  0
  3  4  2  0
  4  5  1  0
  5  6  1  0
  6  7  2  3
  7  8  1  0
  8  9  1  0
  9 10  2  0
 10 11  1  0
 11 12  1  0
  6 13  1  0
 13 14  2  0
 13 15  1  0
 15 16  1  0
 16 17  1  0
 15 18  1  0
  4 19  1  0
 19 20  2  0
 20 21  1  0
 21 22  2  0
 22 23  1  0
 23 24  1  0
 24 25  2  3
 25 26  1  0
 26 27  1  0
 27 28  2  0
 28 29  1  0
 29 30  1  0
 24 31  1  0
 31 32  2  0
 31 33  1  0
 33 34  1  0
 34 35  1  0
 33 36  1  0
 22 37  1  0
 37 38  2  0
 38 39  1  0
 39 40  2  0
 40 41  1  0
 41 42  2  0
 42 43  1  0
 43 44  2  0
 44 45  1  0
 45 46  1  0
 46 47  1  0
 44 48  1  0
 40 49  1  0
 49 50  2  0
 50 51  1  0
 51 52  1  0
 52 53  2  0
 53 54  1  0
 54 55  2  0
 55 56  1  0
 56 57  1  0
 57 58  1  0
 55 59  1  0
 51 60  2  0
 60 61  1  0
 50 62  1  0
 62 63  2  0
 63 64  1  0
 63 65  1  0
 65 66  2  0
 66 67  1  0
 67 68  2  0
 68 69  1  0
 69 70  2  0
 70 71  1  0
 71 72  2  0
 72 73  1  0
 73 74  1  0
 74 75  1  0
 72 76  1  0
 68 77  1  0
 77 78  2  0
 78 79  1  0
 79 80  1  0
 80 81  2  0
 81 82  1  0
 82 83  2  0
 83 84  1  0
 84 85  1  0
 85 86  1  0
 83 87  1  0
 79 88  2  0
 88 89  1  0
 78 90  1  0
 90 91  2  0
 91 92  1  0
 91 93  1  0
 93 94  2  0
 94 95  1  0
 95 96  2  0
 96 97  1  0
 97 98  1  0
 98 99  2  3
 99100  1  0
100101  1  0
101102  2  0
102103  1  0
103104  1  0
 98105  1  0
105106  2  0
105107  1  0
107108  1  0
108109  1  0
107110  1  0
 96111  1  0
111112  2  0
112113  1  0
113114  2  0
114115  1  0
115116  1  0
116117  2  3
117118  1  0
118119  1  0
119120  2  0
120121  1  0
121122  1  0
116123  1  0
123124  2  0
123125  1  0
125126  1  0
126127  1  0
125128  1  0
 18  1  1  0
 36 19  1  0
 61 37  1  0
 89 65  1  0
110 93  1  0
128111  1  0
 18  5  2  0
 36 23  2  0
 60 39  1  0
 88 67  1  0
110 97  2  0
128115  2  0
 12  8  2  0
 30 26  2  0
 48 41  1  0
 64 49  1  0
 76 69  1  0
 92 77  1  0
104100  2  0
122118  2  0
 59 52  1  0
 87 80  1  0
  1129  1  0
  2130  1  0
  3131  1  0
  7132  1  0
  9133  1  0
 10134  1  0
 12135  1  0
 16136  1  0
 16137  1  0
 17138  1  0
 17139  1  0
 17140  1  0
 20141  1  0
 21142  1  0
 25143  1  0
 27144  1  0
 28145  1  0
 30146  1  0
 34147  1  0
 34148  1  0
 35149  1  0
 35150  1  0
 35151  1  0
 38152  1  0
 42153  1  0
 43154  1  0
 46155  1  0
 46156  1  0
 47157  1  0
 47158  1  0
 47159  1  0
 53160  1  0
 54161  1  0
 57162  1  0
 57163  1  0
 58164  1  0
 58165  1  0
 58166  1  0
 62167  1  0
 66168  1  0
 70169  1  0
 71170  1  0
 74171  1  0
 74172  1  0
 75173  1  0
 75174  1  0
 75175  1  0
 81176  1  0
 82177  1  0
 85178  1  0
 85179  1  0
 86180  1  0
 86181  1  0
 86182  1  0
 90183  1  0
 94184  1  0
 95185  1  0
 99186  1  0
101187  1  0
102188  1  0
104189  1  0
108190  1  0
108191  1  0
109192  1  0
109193  1  0
109194  1  0
112195  1  0
113196  1  0
114197  1  0
117198  1  0
119199  1  0
120200  1  0
122201  1  0
126202  1  0
126203  1  0
127204  1  0
127205  1  0
127206  1  0
M  END

