
     RDKit          3D

290319  0  0  0  0  0  0  0  0999 V2000
   -5.1387   -6.5672    9.4373 C   0  0  0  0  0  0  0  0  0  0  0  0
   -5.6146   -5.6477    8.5435 C   0  0  0  0  0  0  0  0  0  0  0  0
   -5.6774   -6.0348    7.2482 C   0  0  0  0  0  0  0  0  0  0  0  0
   -6.1399   -5.2494    6.1681 C   0  0  0  0  0  0  0  0  0  0  0  0
   -6.5302   -3.8899    6.3455 C   0  0  0  0  0  0  0  0  0  0  0  0
   -5.6155   -2.8293    6.2302 C   0  0  0  0  0  0  0  0  0  0  0  0
   -5.9851   -1.5385    6.4412 C   0  0  0  0  0  0  0  0  0  0  0  0
   -7.2772   -1.1978    6.7789 C   0  0  0  0  0  0  0  0  0  0  0  0
   -7.7008    0.5397    7.0414 S   0  0  0  0  0  0  0  0  0  0  0  0
   -7.3311    0.9677    8.7837 C   0  0  0  0  0  0  0  0  0  0  0  0
   -5.8410    0.8279    9.0529 C   0  0  0  0  0  0  0  0  0  0  0  0
   -8.2008   -2.2127    6.8996 C   0  0  0  0  0  0  0  0  0  0  0  0
   -9.4746   -1.9111    7.2327 F   0  0  0  0  0  0  0  0  0  0  0  0
   -7.8109   -3.5401    6.6828 C   0  0  0  0  0  0  0  0  0  0  0  0
   -6.1476   -5.8006    4.8833 C   0  0  0  0  0  0  0  0  0  0  0  0
   -5.7298   -7.0728    4.5819 C   0  0  0  0  0  0  0  0  0  0  0  0
   -5.2720   -7.8425    5.6574 C   0  0  0  0  0  0  0  0  0  0  0  0
   -4.7906   -9.1990    5.5859 C   0  0  0  0  0  0  0  0  0  0  0  0
   -3.4672   -9.5145    5.2673 C   0  0  0  0  0  0  0  0  0  0  0  0
   -3.0266  -10.8385    5.3088 C   0  0  0  0  0  0  0  0  0  0  0  0
   -3.8531  -11.8831    5.6601 C   0  0  0  0  0  0  0  0  0  0  0  0
   -3.2628  -13.5680    5.7731 S   0  0  0  0  0  0  0  0  0  0  0  0
   -3.4540  -14.3642    4.1659 C   0  0  0  0  0  0  0  0  0  0  0  0
   -2.5136  -13.7261    3.1317 C   0  0  0  0  0  0  0  0  0  0  0  0
   -5.1773  -11.5712    5.9786 C   0  0  0  0  0  0  0  0  0  0  0  0
   -5.5989  -10.2645    5.9331 C   0  0  0  0  0  0  0  0  0  0  0  0
   -5.9970  -12.5851    6.3089 F   0  0  0  0  0  0  0  0  0  0  0  0
   -5.2718   -7.2830    6.9362 C   0  0  0  0  0  0  0  0  0  0  0  0
   -4.7993   -7.9213    8.4593 S   0  0  0  0  0  0  0  0  0  0  0  0
   -5.7865   -7.4505    3.2858 C   0  0  0  0  0  0  0  0  0  0  0  0
   -6.2547   -6.5418    2.3916 C   0  0  0  0  0  0  0  0  0  0  0  0
   -6.6114   -5.1797    3.3575 S   0  0  0  0  0  0  0  0  0  0  0  0
   -6.2745   -6.6732    0.9131 C   0  0  0  0  0  0  0  0  0  0  0  0
   -6.7734   -5.7905    0.0062 C   0  0  0  0  0  0  0  0  0  0  0  0
   -6.5523   -6.0755   -1.3001 C   0  0  0  0  0  0  0  0  0  0  0  0
   -6.8626   -5.2681   -2.3923 C   0  0  0  0  0  0  0  0  0  0  0  0
   -7.4002   -3.9310   -2.3003 C   0  0  0  0  0  0  0  0  0  0  0  0
   -6.3805   -2.9517   -2.2063 C   0  0  0  0  0  0  0  0  0  0  0  0
   -6.6514   -1.6233   -2.1639 C   0  0  0  0  0  0  0  0  0  0  0  0
   -7.9682   -1.1846   -2.2116 C   0  0  0  0  0  0  0  0  0  0  0  0
   -8.3037    0.5633   -2.2232 S   0  0  0  0  0  0  0  0  0  0  0  0
   -8.3139    1.2519   -0.5759 C   0  0  0  0  0  0  0  0  0  0  0  0
   -8.4560    2.7733   -0.6327 C   0  0  0  0  0  0  0  0  0  0  0  0
   -8.9646   -2.1271   -2.2993 C   0  0  0  0  0  0  0  0  0  0  0  0
  -10.2502   -1.7318   -2.3405 F   0  0  0  0  0  0  0  0  0  0  0  0
   -8.6618   -3.5011   -2.3427 C   0  0  0  0  0  0  0  0  0  0  0  0
   -6.4457   -5.6652   -3.6756 C   0  0  0  0  0  0  0  0  0  0  0  0
   -5.7452   -6.7835   -3.9744 C   0  0  0  0  0  0  0  0  0  0  0  0
   -5.4456   -7.5917   -2.8958 C   0  0  0  0  0  0  0  0  0  0  0  0
   -4.6712   -8.8040   -2.8692 C   0  0  0  0  0  0  0  0  0  0  0  0
   -5.1833  -10.0324   -3.1476 C   0  0  0  0  0  0  0  0  0  0  0  0
   -4.4231  -11.2280   -3.0060 C   0  0  0  0  0  0  0  0  0  0  0  0
   -3.1197  -11.1503   -2.5719 C   0  0  0  0  0  0  0  0  0  0  0  0
   -2.0994  -12.6080   -2.3218 S   0  0  0  0  0  0  0  0  0  0  0  0
   -1.1705  -12.9278   -3.8359 C   0  0  0  0  0  0  0  0  0  0  0  0
   -0.2220  -14.1019   -3.6637 C   0  0  0  0  0  0  0  0  0  0  0  0
   -2.5951   -9.9067   -2.2920 C   0  0  0  0  0  0  0  0  0  0  0  0
   -3.3308   -8.7539   -2.4300 C   0  0  0  0  0  0  0  0  0  0  0  0
   -1.3067   -9.8372   -1.8592 F   0  0  0  0  0  0  0  0  0  0  0  0
   -5.8684   -7.1981   -1.5920 C   0  0  0  0  0  0  0  0  0  0  0  0
   -5.5334   -7.8713   -0.0528 S   0  0  0  0  0  0  0  0  0  0  0  0
   -5.2869   -6.8789   -5.2770 C   0  0  0  0  0  0  0  0  0  0  0  0
   -5.5519   -5.8912   -6.1190 C   0  0  0  0  0  0  0  0  0  0  0  0
   -6.4920   -4.7813   -5.1162 S   0  0  0  0  0  0  0  0  0  0  0  0
   -4.8915   -5.3298   -7.3725 C   0  0  0  0  0  0  0  0  0  0  0  0
   -5.2721   -4.1833   -7.9951 C   0  0  0  0  0  0  0  0  0  0  0  0
   -4.3637   -3.5553   -8.7958 C   0  0  0  0  0  0  0  0  0  0  0  0
   -4.4499   -2.1984   -9.2135 C   0  0  0  0  0  0  0  0  0  0  0  0
   -5.6902   -1.4765   -9.3103 C   0  0  0  0  0  0  0  0  0  0  0  0
   -6.9971   -1.7268   -9.2941 C   0  0  0  0  0  0  0  0  0  0  0  0
   -7.9261   -0.7543   -9.3332 C   0  0  0  0  0  0  0  0  0  0  0  0
   -7.6961    0.5382   -9.3972 C   0  0  0  0  0  0  0  0  0  0  0  0
   -8.5796    2.0554   -9.4566 S   0  0  0  0  0  0  0  0  0  0  0  0
   -9.0011    2.3522  -11.2256 C   0  0  0  0  0  0  0  0  0  0  0  0
   -9.9614    1.2071  -11.5811 C   0  0  0  0  0  0  0  0  0  0  0  0
   -5.6538    0.5180   -9.4076 Se  0  0  0  0  0  2  0  0  0  0  0  0
   -3.2942   -1.5792   -9.6621 C   0  0  0  0  0  0  0  0  0  0  0  0
   -2.0632   -2.1327   -9.7734 C   0  0  0  0  0  0  0  0  0  0  0  0
   -2.0002   -3.5168   -9.3788 C   0  0  0  0  0  0  0  0  0  0  0  0
   -0.7605   -4.2696   -9.4405 C   0  0  0  0  0  0  0  0  0  0  0  0
   -0.3942   -5.5176   -9.0963 C   0  0  0  0  0  0  0  0  0  0  0  0
    0.8611   -5.9533   -9.2196 C   0  0  0  0  0  0  0  0  0  0  0  0
    1.8655   -5.2380   -9.6810 C   0  0  0  0  0  0  0  0  0  0  0  0
    3.6144   -5.3143   -9.9026 S   0  0  0  0  0  0  0  0  0  0  0  0
    4.3208   -6.5471   -8.8047 C   0  0  0  0  0  0  0  0  0  0  0  0
    4.1814   -6.1140   -7.3435 C   0  0  0  0  0  0  0  0  0  0  0  0
    0.8819   -3.5505  -10.0488 Se  0  0  0  0  0  2  0  0  0  0  0  0
   -3.1451   -4.1379   -8.9110 C   0  0  0  0  0  0  0  0  0  0  0  0
   -3.3108   -5.5718   -7.9028 S   0  0  0  0  0  0  0  0  0  0  0  0
   -0.9931   -1.3054   -9.8774 C   0  0  0  0  0  0  0  0  0  0  0  0
   -1.2751    0.0647   -9.8326 C   0  0  0  0  0  0  0  0  0  0  0  0
   -2.9174    0.1409   -9.7082 S   0  0  0  0  0  0  0  0  0  0  0  0
   -0.1874    1.0412   -9.3169 C   0  0  0  0  0  0  0  0  0  0  0  0
   -0.5471    1.8010   -8.1815 C   0  0  0  0  0  0  0  0  0  0  0  0
    0.4450    2.1711   -7.3538 C   0  0  0  0  0  0  0  0  0  0  0  0
    0.3037    2.6468   -6.0252 C   0  0  0  0  0  0  0  0  0  0  0  0
   -0.9514    3.0483   -5.4619 C   0  0  0  0  0  0  0  0  0  0  0  0
   -1.3375    3.5973   -4.2990 C   0  0  0  0  0  0  0  0  0  0  0  0
   -2.6008    3.8202   -3.9614 C   0  0  0  0  0  0  0  0  0  0  0  0
   -3.6505    3.5361   -4.7284 C   0  0  0  0  0  0  0  0  0  0  0  0
   -5.3879    3.6703   -4.5797 S   0  0  0  0  0  0  0  0  0  0  0  0
   -6.2614    3.1690   -6.0834 C   0  0  0  0  0  0  0  0  0  0  0  0
   -5.9776    4.2329   -7.1538 C   0  0  0  0  0  0  0  0  0  0  0  0
   -2.6982    2.7848   -6.2836 Se  0  0  0  0  0  2  0  0  0  0  0  0
    1.4066    2.7057   -5.1921 C   0  0  0  0  0  0  0  0  0  0  0  0
    2.6764    2.3538   -5.5220 C   0  0  0  0  0  0  0  0  0  0  0  0
    2.8283    1.8883   -6.8625 C   0  0  0  0  0  0  0  0  0  0  0  0
    4.1372    1.6124   -7.4361 C   0  0  0  0  0  0  0  0  0  0  0  0
    4.5339    0.9143   -8.5207 C   0  0  0  0  0  0  0  0  0  0  0  0
    5.8081    0.8588   -8.8945 C   0  0  0  0  0  0  0  0  0  0  0  0
    6.8059    1.4675   -8.2609 C   0  0  0  0  0  0  0  0  0  0  0  0
    8.5431    1.5891   -8.4822 S   0  0  0  0  0  0  0  0  0  0  0  0
    9.0184    3.1644   -9.2213 C   0  0  0  0  0  0  0  0  0  0  0  0
    8.8514    4.3051   -8.2127 C   0  0  0  0  0  0  0  0  0  0  0  0
    5.7736    2.3232   -6.8087 Se  0  0  0  0  0  2  0  0  0  0  0  0
    1.7220    1.8141   -7.6744 C   0  0  0  0  0  0  0  0  0  0  0  0
    1.4527    0.9389   -9.1873 S   0  0  0  0  0  0  0  0  0  0  0  0
    3.5850    2.2906   -4.5185 C   0  0  0  0  0  0  0  0  0  0  0  0
    3.1950    2.5656   -3.2616 C   0  0  0  0  0  0  0  0  0  0  0  0
    1.5129    2.9349   -3.5017 S   0  0  0  0  0  0  0  0  0  0  0  0
    3.7778    2.6464   -1.9235 C   0  0  0  0  0  0  0  0  0  0  0  0
    4.9767    2.9673   -1.4061 C   0  0  0  0  0  0  0  0  0  0  0  0
    5.0993    3.0617   -0.0653 C   0  0  0  0  0  0  0  0  0  0  0  0
    6.2154    3.5237    0.6908 C   0  0  0  0  0  0  0  0  0  0  0  0
    7.4854    3.7741    0.0516 C   0  0  0  0  0  0  0  0  0  0  0  0
    7.7630    4.8879   -0.6854 C   0  0  0  0  0  0  0  0  0  0  0  0
    8.9872    5.0674   -1.2882 C   0  0  0  0  0  0  0  0  0  0  0  0
    9.9718    4.1119   -1.1539 C   0  0  0  0  0  0  0  0  0  0  0  0
   11.5742    4.2903   -1.9439 S   0  0  0  0  0  0  0  0  0  0  0  0
   11.5770    5.8073   -2.9537 C   0  0  0  0  0  0  0  0  0  0  0  0
   10.6241    5.6900   -4.1110 C   0  0  0  0  0  0  0  0  0  0  0  0
    9.7354    2.9655   -0.4117 C   0  0  0  0  0  0  0  0  0  0  0  0
   10.6883    1.9997   -0.2683 F   0  0  0  0  0  0  0  0  0  0  0  0
    8.4838    2.8288    0.1745 C   0  0  0  0  0  0  0  0  0  0  0  0
    6.1078    3.6920    2.0439 C   0  0  0  0  0  0  0  0  0  0  0  0
    5.0041    3.4479    2.8066 C   0  0  0  0  0  0  0  0  0  0  0  0
    3.8969    2.9741    2.0657 C   0  0  0  0  0  0  0  0  0  0  0  0
    2.6896    2.5261    2.6846 C   0  0  0  0  0  0  0  0  0  0  0  0
    2.6143    1.1460    2.9318 C   0  0  0  0  0  0  0  0  0  0  0  0
    1.5425    0.5355    3.5190 C   0  0  0  0  0  0  0  0  0  0  0  0
    0.4486    1.2871    3.9103 C   0  0  0  0  0  0  0  0  0  0  0  0
   -0.9678    0.5496    4.6806 S   0  0  0  0  0  0  0  0  0  0  0  0
   -0.7677    0.4506    6.4875 C   0  0  0  0  0  0  0  0  0  0  0  0
   -1.9497   -0.2703    7.0904 C   0  0  0  0  0  0  0  0  0  0  0  0
    0.4941    2.6377    3.6824 C   0  0  0  0  0  0  0  0  0  0  0  0
    1.6020    3.2489    3.0764 C   0  0  0  0  0  0  0  0  0  0  0  0
   -0.5420    3.4072    4.0458 F   0  0  0  0  0  0  0  0  0  0  0  0
    4.0116    2.8209    0.6999 C   0  0  0  0  0  0  0  0  0  0  0  0
    2.8084    2.4626   -0.4704 S   0  0  0  0  0  0  0  0  0  0  0  0
    5.0505    3.7872    4.1119 C   0  0  0  0  0  0  0  0  0  0  0  0
    6.1770    4.3543    4.5861 C   0  0  0  0  0  0  0  0  0  0  0  0
    7.1760    4.3939    3.1947 S   0  0  0  0  0  0  0  0  0  0  0  0
    6.4754    4.9766    5.9056 C   0  0  0  0  0  0  0  0  0  0  0  0
    7.5446    5.8031    6.1477 C   0  0  0  0  0  0  0  0  0  0  0  0
    7.5818    6.4263    7.3420 C   0  0  0  0  0  0  0  0  0  0  0  0
    8.5445    7.3717    7.7513 C   0  0  0  0  0  0  0  0  0  0  0  0
    9.6532    7.7348    6.8869 C   0  0  0  0  0  0  0  0  0  0  0  0
    9.3267    8.3791    5.7096 C   0  0  0  0  0  0  0  0  0  0  0  0
   10.3012    8.7817    4.8065 C   0  0  0  0  0  0  0  0  0  0  0  0
   11.6328    8.5371    5.0810 C   0  0  0  0  0  0  0  0  0  0  0  0
   12.8827    9.0874    3.8955 S   0  0  0  0  0  0  0  0  0  0  0  0
   12.0308    9.8910    2.4903 C   0  0  0  0  0  0  0  0  0  0  0  0
   13.0508   10.3620    1.5031 C   0  0  0  0  0  0  0  0  0  0  0  0
   11.9729    7.8982    6.2399 C   0  0  0  0  0  0  0  0  0  0  0  0
   13.2718    7.6604    6.5159 F   0  0  0  0  0  0  0  0  0  0  0  0
   10.9643    7.5045    7.1317 C   0  0  0  0  0  0  0  0  0  0  0  0
    8.4018    7.9857    8.9934 C   0  0  0  0  0  0  0  0  0  0  0  0
    7.4019    7.7551    9.8627 C   0  0  0  0  0  0  0  0  0  0  0  0
    6.4344    6.8106    9.4562 C   0  0  0  0  0  0  0  0  0  0  0  0
    5.3226    6.5268   10.3244 C   0  0  0  0  0  0  0  0  0  0  0  0
    5.5591    6.0204   11.6092 C   0  0  0  0  0  0  0  0  0  0  0  0
    4.5410    5.7173   12.4762 C   0  0  0  0  0  0  0  0  0  0  0  0
    3.1914    5.9257   12.0551 C   0  0  0  0  0  0  0  0  0  0  0  0
    1.9175    5.5364   13.2648 S   0  0  0  0  0  0  0  0  0  0  0  0
    0.3047    5.9755   12.6096 C   0  0  0  0  0  0  0  0  0  0  0  0
   -0.7665    5.8239   13.6880 C   0  0  0  0  0  0  0  0  0  0  0  0
    2.9748    6.4111   10.8220 C   0  0  0  0  0  0  0  0  0  0  0  0
    4.0291    6.7192    9.9379 C   0  0  0  0  0  0  0  0  0  0  0  0
    1.6789    6.6122   10.4036 F   0  0  0  0  0  0  0  0  0  0  0  0
    6.5761    6.1973    8.2154 C   0  0  0  0  0  0  0  0  0  0  0  0
    5.5788    5.0936    7.3399 S   0  0  0  0  0  0  0  0  0  0  0  0
    7.4208    8.4557   11.0295 C   0  0  0  0  0  0  0  0  0  0  0  0
    8.4531    9.3330   11.2101 C   0  0  0  0  0  0  0  0  0  0  0  0
    9.3629    9.1669    9.7840 S   0  0  0  0  0  0  0  0  0  0  0  0
   -5.0183   -6.4206   10.5262 H   0  0  0  0  0  0  0  0  0  0  0  0
   -5.9131   -4.6444    8.9384 H   0  0  0  0  0  0  0  0  0  0  0  0
   -4.6051   -3.1338    5.9668 H   0  0  0  0  0  0  0  0  0  0  0  0
   -5.2537   -0.7299    6.3525 H   0  0  0  0  0  0  0  0  0  0  0  0
   -7.8330    0.2543    9.4619 H   0  0  0  0  0  0  0  0  0  0  0  0
   -7.6200    1.9874    9.0455 H   0  0  0  0  0  0  0  0  0  0  0  0
   -5.2142    1.1329    8.1972 H   0  0  0  0  0  0  0  0  0  0  0  0
   -5.5831   -0.2687    9.2101 H   0  0  0  0  0  0  0  0  0  0  0  0
   -5.5124    1.3478    9.9592 H   0  0  0  0  0  0  0  0  0  0  0  0
   -8.5629   -4.3118    6.7835 H   0  0  0  0  0  0  0  0  0  0  0  0
   -2.8262   -8.7172    4.9950 H   0  0  0  0  0  0  0  0  0  0  0  0
   -2.0139  -11.0837    5.0613 H   0  0  0  0  0  0  0  0  0  0  0  0
   -3.3294  -15.4618    4.2278 H   0  0  0  0  0  0  0  0  0  0  0  0
   -4.4870  -14.2355    3.7242 H   0  0  0  0  0  0  0  0  0  0  0  0
   -3.0566  -12.8781    2.6603 H   0  0  0  0  0  0  0  0  0  0  0  0
   -2.2277  -14.5093    2.4439 H   0  0  0  0  0  0  0  0  0  0  0  0
   -1.6388  -13.2839    3.6760 H   0  0  0  0  0  0  0  0  0  0  0  0
   -6.6431  -10.0225    6.1952 H   0  0  0  0  0  0  0  0  0  0  0  0
   -5.4851   -8.4608    2.9122 H   0  0  0  0  0  0  0  0  0  0  0  0
   -7.3395   -4.9018    0.3712 H   0  0  0  0  0  0  0  0  0  0  0  0
   -5.3277   -3.2369   -2.1692 H   0  0  0  0  0  0  0  0  0  0  0  0
   -5.8794   -0.8505   -2.0805 H   0  0  0  0  0  0  0  0  0  0  0  0
   -9.1441    0.8138    0.0097 H   0  0  0  0  0  0  0  0  0  0  0  0
   -7.3536    1.0450   -0.0153 H   0  0  0  0  0  0  0  0  0  0  0  0
   -7.5815    3.1814   -1.2278 H   0  0  0  0  0  0  0  0  0  0  0  0
   -9.4045    3.0270   -1.0942 H   0  0  0  0  0  0  0  0  0  0  0  0
   -8.3873    3.1751    0.3886 H   0  0  0  0  0  0  0  0  0  0  0  0
   -9.4566   -4.2469   -2.4153 H   0  0  0  0  0  0  0  0  0  0  0  0
   -6.1968  -10.1835   -3.4933 H   0  0  0  0  0  0  0  0  0  0  0  0
   -4.8354  -12.1900   -3.2297 H   0  0  0  0  0  0  0  0  0  0  0  0
   -1.8426  -13.0304   -4.6939 H   0  0  0  0  0  0  0  0  0  0  0  0
   -0.5353  -12.0105   -4.0244 H   0  0  0  0  0  0  0  0  0  0  0  0
    0.2860  -14.0134   -2.7014 H   0  0  0  0  0  0  0  0  0  0  0  0
   -0.7793  -15.0326   -3.8143 H   0  0  0  0  0  0  0  0  0  0  0  0
    0.5087  -14.0048   -4.5168 H   0  0  0  0  0  0  0  0  0  0  0  0
   -2.9298   -7.7828   -2.2159 H   0  0  0  0  0  0  0  0  0  0  0  0
   -4.6922   -7.7613   -5.6246 H   0  0  0  0  0  0  0  0  0  0  0  0
   -6.2912   -3.7971   -7.8146 H   0  0  0  0  0  0  0  0  0  0  0  0
   -7.3437   -2.8079   -9.2985 H   0  0  0  0  0  0  0  0  0  0  0  0
   -9.0521   -1.0540   -9.3095 H   0  0  0  0  0  0  0  0  0  0  0  0
   -9.4926    3.3239  -11.3456 H   0  0  0  0  0  0  0  0  0  0  0  0
   -8.0828    2.1896  -11.8095 H   0  0  0  0  0  0  0  0  0  0  0  0
  -10.6634    1.5432  -12.3800 H   0  0  0  0  0  0  0  0  0  0  0  0
   -9.4117    0.2811  -11.8438 H   0  0  0  0  0  0  0  0  0  0  0  0
  -10.5991    0.9587  -10.7150 H   0  0  0  0  0  0  0  0  0  0  0  0
   -1.2096   -6.2002   -8.6888 H   0  0  0  0  0  0  0  0  0  0  0  0
    1.0987   -7.0373   -8.9096 H   0  0  0  0  0  0  0  0  0  0  0  0
    5.4145   -6.6843   -8.9676 H   0  0  0  0  0  0  0  0  0  0  0  0
    3.8610   -7.5511   -8.8786 H   0  0  0  0  0  0  0  0  0  0  0  0
    4.1703   -7.0255   -6.7273 H   0  0  0  0  0  0  0  0  0  0  0  0
    3.2778   -5.5346   -7.1526 H   0  0  0  0  0  0  0  0  0  0  0  0
    5.0743   -5.5111   -7.0191 H   0  0  0  0  0  0  0  0  0  0  0  0
    0.0370   -1.5893   -9.9883 H   0  0  0  0  0  0  0  0  0  0  0  0
   -1.5857    2.0598   -8.0666 H   0  0  0  0  0  0  0  0  0  0  0  0
   -0.5072    3.8995   -3.5684 H   0  0  0  0  0  0  0  0  0  0  0  0
   -2.8449    4.2944   -2.9418 H   0  0  0  0  0  0  0  0  0  0  0  0
   -5.8179    2.1757   -6.3958 H   0  0  0  0  0  0  0  0  0  0  0  0
   -7.3245    3.0660   -5.8576 H   0  0  0  0  0  0  0  0  0  0  0  0
   -6.9334    4.5867   -7.5986 H   0  0  0  0  0  0  0  0  0  0  0  0
   -5.2773    3.8148   -7.8645 H   0  0  0  0  0  0  0  0  0  0  0  0
   -5.4885    5.1389   -6.6881 H   0  0  0  0  0  0  0  0  0  0  0  0
    3.7360    0.3354   -9.0918 H   0  0  0  0  0  0  0  0  0  0  0  0
    6.1005    0.2457   -9.8260 H   0  0  0  0  0  0  0  0  0  0  0  0
   10.0922    3.1701   -9.5295 H   0  0  0  0  0  0  0  0  0  0  0  0
    8.3992    3.4360  -10.0983 H   0  0  0  0  0  0  0  0  0  0  0  0
    8.1607    5.0782   -8.5795 H   0  0  0  0  0  0  0  0  0  0  0  0
    8.4664    3.9202   -7.2481 H   0  0  0  0  0  0  0  0  0  0  0  0
    9.8573    4.7463   -7.9771 H   0  0  0  0  0  0  0  0  0  0  0  0
    4.6509    2.0017   -4.6888 H   0  0  0  0  0  0  0  0  0  0  0  0
    5.8418    3.1437   -2.0957 H   0  0  0  0  0  0  0  0  0  0  0  0
    6.9831    5.6350   -0.7830 H   0  0  0  0  0  0  0  0  0  0  0  0
    9.2102    5.9504   -1.8734 H   0  0  0  0  0  0  0  0  0  0  0  0
   11.4428    6.6902   -2.3364 H   0  0  0  0  0  0  0  0  0  0  0  0
   12.6096    5.8761   -3.4130 H   0  0  0  0  0  0  0  0  0  0  0  0
   10.1652    6.6602   -4.3636 H   0  0  0  0  0  0  0  0  0  0  0  0
   11.1383    5.2991   -5.0075 H   0  0  0  0  0  0  0  0  0  0  0  0
    9.8315    4.9294   -3.8796 H   0  0  0  0  0  0  0  0  0  0  0  0
    8.3597    1.9082    0.7392 H   0  0  0  0  0  0  0  0  0  0  0  0
    3.4441    0.4767    2.6403 H   0  0  0  0  0  0  0  0  0  0  0  0
    1.4872   -0.5357    3.7083 H   0  0  0  0  0  0  0  0  0  0  0  0
    0.1584   -0.0823    6.7534 H   0  0  0  0  0  0  0  0  0  0  0  0
   -0.7542    1.4936    6.9206 H   0  0  0  0  0  0  0  0  0  0  0  0
   -1.6326   -1.2161    7.6080 H   0  0  0  0  0  0  0  0  0  0  0  0
   -2.6927   -0.5434    6.2976 H   0  0  0  0  0  0  0  0  0  0  0  0
   -2.4905    0.3389    7.8498 H   0  0  0  0  0  0  0  0  0  0  0  0
    1.6335    4.3029    2.9007 H   0  0  0  0  0  0  0  0  0  0  0  0
    4.1892    3.6086    4.8069 H   0  0  0  0  0  0  0  0  0  0  0  0
    8.3125    5.9135    5.3518 H   0  0  0  0  0  0  0  0  0  0  0  0
    8.2876    8.6059    5.4222 H   0  0  0  0  0  0  0  0  0  0  0  0
   10.0772    9.2863    3.8865 H   0  0  0  0  0  0  0  0  0  0  0  0
   11.3263    9.1980    1.9730 H   0  0  0  0  0  0  0  0  0  0  0  0
   11.4985   10.7573    2.9010 H   0  0  0  0  0  0  0  0  0  0  0  0
   12.6965   10.3110    0.4451 H   0  0  0  0  0  0  0  0  0  0  0  0
   13.2745   11.4544    1.6505 H   0  0  0  0  0  0  0  0  0  0  0  0
   13.9847    9.7670    1.5569 H   0  0  0  0  0  0  0  0  0  0  0  0
   11.2332    6.9953    8.0444 H   0  0  0  0  0  0  0  0  0  0  0  0
    6.5829    5.8604   11.9859 H   0  0  0  0  0  0  0  0  0  0  0  0
    4.6916    5.3312   13.4526 H   0  0  0  0  0  0  0  0  0  0  0  0
   -0.0310    5.3054   11.7735 H   0  0  0  0  0  0  0  0  0  0  0  0
    0.2871    7.0011   12.1911 H   0  0  0  0  0  0  0  0  0  0  0  0
   -1.5723    5.1351   13.4011 H   0  0  0  0  0  0  0  0  0  0  0  0
   -1.2212    6.8043   13.8783 H   0  0  0  0  0  0  0  0  0  0  0  0
   -0.3071    5.4131   14.6260 H   0  0  0  0  0  0  0  0  0  0  0  0
    3.7214    7.0983    8.9742 H   0  0  0  0  0  0  0  0  0  0  0  0
    6.6571    8.3725   11.8457 H   0  0  0  0  0  0  0  0  0  0  0  0
    8.6289    9.9872   12.0910 H   0  0  0  0  0  0  0  0  0  0  0  0
  1  2  2  0
  2  3  1  0
  3  4  2  0
  4  5  1  0
  5  6  2  0
  6  7  1  0
  7  8  2  0
  8  9  1  0
  9 10  1  0
 10 11  1  0
  8 12  1  0
 12 13  1  0
 12 14  2  0
  4 15  1  0
 15 16  2  0
 16 17  1  0
 17 18  1  0
 18 19  2  0
 19 20  1  0
 20 21  2  0
 21 22  1  0
 22 23  1  0
 23 24  1  0
 21 25  1  0
 25 26  2  0
 25 27  1  0
 17 28  2  0
 28 29  1  0
 16 30  1  0
 30 31  2  0
 31 32  1  0
 31 33  1  0
 33 34  2  0
 34 35  1  0
 35 36  2  0
 36 37  1  0
 37 38  2  0
 38 39  1  0
 39 40  2  0
 40 41  1  0
 41 42  1  0
 42 43  1  0
 40 44  1  0
 44 45  1  0
 44 46  2  0
 36 47  1  0
 47 48  2  0
 48 49  1  0
 49 50  1  0
 50 51  2  0
 51 52  1  0
 52 53  2  0
 53 54  1  0
 54 55  1  0
 55 56  1  0
 53 57  1  0
 57 58  2  0
 57 59  1  0
 49 60  2  0
 60 61  1  0
 48 62  1  0
 62 63  2  0
 63 64  1  0
 63 65  1  0
 65 66  2  0
 66 67  1  0
 67 68  2  0
 68 69  1  0
 69 70  2  0
 70 71  1  0
 71 72  2  0
 72 73  1  0
 73 74  1  0
 74 75  1  0
 72 76  1  0
 68 77  1  0
 77 78  2  0
 78 79  1  0
 79 80  1  0
 80 81  2  0
 81 82  1  0
 82 83  2  0
 83 84  1  0
 84 85  1  0
 85 86  1  0
 83 87  1  0
 79 88  2  0
 88 89  1  0
 78 90  1  0
 90 91  2  0
 91 92  1  0
 91 93  1  0
 93 94  2  0
 94 95  1  0
 95 96  2  0
 96 97  1  0
 97 98  2  0
 98 99  1  0
 99100  2  0
100101  1  0
101102  1  0
102103  1  0
100104  1  0
 96105  1  0
105106  2  0
106107  1  0
107108  1  0
108109  2  0
109110  1  0
110111  2  0
111112  1  0
112113  1  0
113114  1  0
111115  1  0
107116  2  0
116117  1  0
106118  1  0
118119  2  0
119120  1  0
119121  1  0
121122  2  0
122123  1  0
123124  2  0
124125  1  0
125126  2  0
126127  1  0
127128  2  0
128129  1  0
129130  1  0
130131  1  0
128132  1  0
132133  1  0
132134  2  0
124135  1  0
135136  2  0
136137  1  0
137138  1  0
138139  2  0
139140  1  0
140141  2  0
141142  1  0
142143  1  0
143144  1  0
141145  1  0
145146  2  0
145147  1  0
137148  2  0
148149  1  0
136150  1  0
150151  2  0
151152  1  0
151153  1  0
153154  2  0
154155  1  0
155156  2  0
156157  1  0
157158  2  0
158159  1  0
159160  2  0
160161  1  0
161162  1  0
162163  1  0
160164  1  0
164165  1  0
164166  2  0
156167  1  0
167168  2  0
168169  1  0
169170  1  0
170171  2  0
171172  1  0
172173  2  0
173174  1  0
174175  1  0
175176  1  0
173177  1  0
177178  2  0
177179  1  0
169180  2  0
180181  1  0
168182  1  0
182183  2  0
183184  1  0
 29  1  1  0
 61 33  1  0
 89 65  1  0
117 93  1  0
149121  1  0
181153  1  0
 28  3  1  0
 60 35  1  0
 88 67  1  0
116 95  1  0
148123  1  0
180155  1  0
 14  5  1  0
 32 15  1  0
 46 37  1  0
 64 47  1  0
 76 69  1  0
 92 77  1  0
104 97  1  0
120105  1  0
134125  1  0
152135  1  0
166157  1  0
184167  1  0
 26 18  1  0
 58 50  1  0
 87 80  1  0
115108  1  0
146138  1  0
178170  1  0
  1185  1  0
  2186  1  0
  6187  1  0
  7188  1  0
 10189  1  0
 10190  1  0
 11191  1  0
 11192  1  0
 11193  1  0
 14194  1  0
 19195  1  0
 20196  1  0
 23197  1  0
 23198  1  0
 24199  1  0
 24200  1  0
 24201  1  0
 26202  1  0
 30203  1  0
 34204  1  0
 38205  1  0
 39206  1  0
 42207  1  0
 42208  1  0
 43209  1  0
 43210  1  0
 43211  1  0
 46212  1  0
 51213  1  0
 52214  1  0
 55215  1  0
 55216  1  0
 56217  1  0
 56218  1  0
 56219  1  0
 58220  1  0
 62221  1  0
 66222  1  0
 70223  1  0
 71224  1  0
 74225  1  0
 74226  1  0
 75227  1  0
 75228  1  0
 75229  1  0
 81230  1  0
 82231  1  0
 85232  1  0
 85233  1  0
 86234  1  0
 86235  1  0
 86236  1  0
 90237  1  0
 94238  1  0
 98239  1  0
 99240  1  0
102241  1  0
102242  1  0
103243  1  0
103244  1  0
103245  1  0
109246  1  0
110247  1  0
113248  1  0
113249  1  0
114250  1  0
114251  1  0
114252  1  0
118253  1  0
122254  1  0
126255  1  0
127256  1  0
130257  1  0
130258  1  0
131259  1  0
131260  1  0
131261  1  0
134262  1  0
139263  1  0
140264  1  0
143265  1  0
143266  1  0
144267  1  0
144268  1  0
144269  1  0
146270  1  0
150271  1  0
154272  1  0
158273  1  0
159274  1  0
162275  1  0
162276  1  0
163277  1  0
163278  1  0
163279  1  0
166280  1  0
171281  1  0
172282  1  0
175283  1  0
175284  1  0
176285  1  0
176286  1  0
176287  1  0
178288  1  0
182289  1  0
183290  1  0
M  END

