
     RDKit          3D

178191  0  0  0  0  0  0  0  0999 V2000
    0.4077   11.0760   11.5977 C   0  0  0  0  0  0  0  0  0  0  0  0
    0.8155    9.8443   12.3165 C   0  0  0  0  0  0  0  0  0  0  0  0
    0.4459    8.6498   11.9307 C   0  0  0  0  0  0  0  0  0  0  0  0
    0.8857    7.5728   12.6794 O   0  0  0  0  0  0  0  0  0  0  0  0
    0.3980    6.3864   13.2277 C   0  0  0  0  0  0  0  0  0  0  0  0
    0.4669    5.2106   12.2409 C   0  0  0  0  0  0  0  0  0  0  0  0
   -0.1460    5.6932   10.9759 C   0  0  0  0  0  0  0  0  0  0  0  0
    0.7044    6.6444   10.4153 O   0  0  0  0  0  0  0  0  0  0  0  0
   -0.1186    7.5715    9.7728 C   0  0  0  0  0  0  0  0  0  0  0  0
   -0.4067    8.7115   10.7125 C   0  0  0  0  0  0  0  0  0  0  0  0
   -0.3183    4.6226    9.9388 C   0  0  0  0  0  0  0  0  0  0  0  0
    0.6521    4.0017    9.1919 C   0  0  0  0  0  0  0  0  0  0  0  0
    0.2592    3.0840    8.2756 C   0  0  0  0  0  0  0  0  0  0  0  0
    1.0281    2.3494    7.3905 C   0  0  0  0  0  0  0  0  0  0  0  0
    2.4510    2.4680    7.2470 C   0  0  0  0  0  0  0  0  0  0  0  0
    3.4669    1.8791    6.6481 C   0  0  0  0  0  0  0  0  0  0  0  0
    4.7279    2.3031    6.6511 C   0  0  0  0  0  0  0  0  0  0  0  0
    5.1288    3.4198    7.2861 C   0  0  0  0  0  0  0  0  0  0  0  0
    6.6594    4.2691    7.4871 S   0  0  0  0  0  0  0  0  0  0  0  0
    6.7732    5.4941    6.1252 C   0  0  0  0  0  0  0  0  0  0  0  0
    6.8644    4.7465    4.8132 C   0  0  0  0  0  0  0  0  0  0  0  0
    3.4517    4.0205    8.0351 Se  0  0  0  0  0  2  0  0  0  0  0  0
    0.3899    1.4691    6.5057 C   0  0  0  0  0  0  0  0  0  0  0  0
   -0.9383    1.2467    6.4057 C   0  0  0  0  0  0  0  0  0  0  0  0
   -1.7248    1.9812    7.3008 C   0  0  0  0  0  0  0  0  0  0  0  0
   -3.1809    1.9240    7.3740 C   0  0  0  0  0  0  0  0  0  0  0  0
   -4.2215    1.5219    6.6558 C   0  0  0  0  0  0  0  0  0  0  0  0
   -5.4718    1.4853    7.1283 C   0  0  0  0  0  0  0  0  0  0  0  0
   -5.8498    1.8345    8.3393 C   0  0  0  0  0  0  0  0  0  0  0  0
   -7.2756    1.9076    9.3497 S   0  0  0  0  0  0  0  0  0  0  0  0
   -8.7236    1.2747    8.5192 C   0  0  0  0  0  0  0  0  0  0  0  0
   -9.1889    2.1059    7.3657 C   0  0  0  0  0  0  0  0  0  0  0  0
   -4.0585    2.3619    9.0643 Se  0  0  0  0  0  2  0  0  0  0  0  0
   -1.0869    2.8612    8.1871 C   0  0  0  0  0  0  0  0  0  0  0  0
   -1.7451    3.9155    9.3554 S   0  0  0  0  0  0  0  0  0  0  0  0
   -1.3494    0.3648    5.4790 C   0  0  0  0  0  0  0  0  0  0  0  0
   -0.4037   -0.2424    4.7047 C   0  0  0  0  0  0  0  0  0  0  0  0
    1.0371    0.4254    5.2897 S   0  0  0  0  0  0  0  0  0  0  0  0
   -0.5185   -1.1325    3.5456 C   0  0  0  0  0  0  0  0  0  0  0  0
   -1.5265   -1.2062    2.6184 C   0  0  0  0  0  0  0  0  0  0  0  0
   -1.3795   -2.0259    1.5565 C   0  0  0  0  0  0  0  0  0  0  0  0
   -2.2407   -2.2071    0.4787 C   0  0  0  0  0  0  0  0  0  0  0  0
   -3.5810   -1.6304    0.3641 C   0  0  0  0  0  0  0  0  0  0  0  0
   -4.4970   -1.1009    1.1784 C   0  0  0  0  0  0  0  0  0  0  0  0
   -5.6122   -0.5232    0.7276 C   0  0  0  0  0  0  0  0  0  0  0  0
   -5.9688   -0.3926   -0.5274 C   0  0  0  0  0  0  0  0  0  0  0  0
   -7.2329    0.2614   -1.5446 S   0  0  0  0  0  0  0  0  0  0  0  0
   -8.5750   -0.8464   -1.9393 C   0  0  0  0  0  0  0  0  0  0  0  0
   -9.4267   -1.2307   -0.7731 C   0  0  0  0  0  0  0  0  0  0  0  0
   -4.3325   -1.3148   -1.3526 Se  0  0  0  0  0  2  0  0  0  0  0  0
   -1.8524   -3.0692   -0.5524 C   0  0  0  0  0  0  0  0  0  0  0  0
   -0.6934   -3.7731   -0.6134 C   0  0  0  0  0  0  0  0  0  0  0  0
    0.1637   -3.5924    0.4682 C   0  0  0  0  0  0  0  0  0  0  0  0
    1.3754   -4.3484    0.6925 C   0  0  0  0  0  0  0  0  0  0  0  0
    1.9280   -5.4835    0.2700 C   0  0  0  0  0  0  0  0  0  0  0  0
    3.1566   -5.8785    0.6073 C   0  0  0  0  0  0  0  0  0  0  0  0
    3.9643   -5.1863    1.4027 C   0  0  0  0  0  0  0  0  0  0  0  0
    5.5840   -5.3547    2.0681 S   0  0  0  0  0  0  0  0  0  0  0  0
    6.0357   -3.9268    3.1005 C   0  0  0  0  0  0  0  0  0  0  0  0
    5.1451   -3.9160    4.3064 C   0  0  0  0  0  0  0  0  0  0  0  0
    2.8118   -3.6444    1.7912 Se  0  0  0  0  0  2  0  0  0  0  0  0
   -0.2093   -2.7273    1.5013 C   0  0  0  0  0  0  0  0  0  0  0  0
    0.6228   -2.2233    2.9091 S   0  0  0  0  0  0  0  0  0  0  0  0
   -0.4868   -4.5243   -1.7279 C   0  0  0  0  0  0  0  0  0  0  0  0
   -1.4598   -4.5050   -2.6798 C   0  0  0  0  0  0  0  0  0  0  0  0
   -2.6231   -3.4770   -2.0481 S   0  0  0  0  0  0  0  0  0  0  0  0
   -1.4306   -5.2716   -3.9903 C   0  0  0  0  0  0  0  0  0  0  0  0
   -0.1782   -4.8880   -4.6737 C   0  0  0  0  0  0  0  0  0  0  0  0
    0.0120   -4.3248   -5.8100 C   0  0  0  0  0  0  0  0  0  0  0  0
    1.3691   -4.1020   -6.1483 O   0  0  0  0  0  0  0  0  0  0  0  0
    2.0413   -2.9898   -6.7611 C   0  0  0  0  0  0  0  0  0  0  0  0
    1.1454   -1.7651   -6.7418 C   0  0  0  0  0  0  0  0  0  0  0  0
    0.1471   -1.7958   -7.8779 C   0  0  0  0  0  0  0  0  0  0  0  0
   -1.1559   -1.7443   -7.5058 O   0  0  0  0  0  0  0  0  0  0  0  0
   -1.5890   -2.5194   -6.4784 C   0  0  0  0  0  0  0  0  0  0  0  0
   -1.1912   -4.0004   -6.5772 C   0  0  0  0  0  0  0  0  0  0  0  0
    0.4661   -0.5982   -8.7916 C   0  0  0  0  0  0  0  0  0  0  0  0
    1.8160   -0.7525   -9.2720 C   0  0  0  0  0  0  0  0  0  0  0  0
    2.1922   -0.7972  -10.5179 C   0  0  0  0  0  0  0  0  0  0  0  0
    3.5723   -0.9569  -10.6928 O   0  0  0  0  0  0  0  0  0  0  0  0
    4.5305   -1.3597  -11.5978 C   0  0  0  0  0  0  0  0  0  0  0  0
    4.3538   -2.6591  -12.2864 C   0  0  0  0  0  0  0  0  0  0  0  0
    2.9218   -3.0930  -12.2543 C   0  0  0  0  0  0  0  0  0  0  0  0
    2.1638   -2.2289  -13.0117 O   0  0  0  0  0  0  0  0  0  0  0  0
    0.9929   -1.9925  -12.2995 C   0  0  0  0  0  0  0  0  0  0  0  0
    1.1351   -0.6752  -11.4984 C   0  0  0  0  0  0  0  0  0  0  0  0
    2.7637   -4.5545  -12.6488 C   0  0  0  0  0  0  0  0  0  0  0  0
    1.3318   -4.8855  -12.6091 C   0  0  0  0  0  0  0  0  0  0  0  0
    0.7628   -5.7748  -11.8215 C   0  0  0  0  0  0  0  0  0  0  0  0
   -0.6202   -5.8786  -12.0037 O   0  0  0  0  0  0  0  0  0  0  0  0
   -1.7385   -6.3378  -11.2831 C   0  0  0  0  0  0  0  0  0  0  0  0
   -1.5577   -6.1674   -9.7688 C   0  0  0  0  0  0  0  0  0  0  0  0
   -1.0406   -7.5285   -9.2918 C   0  0  0  0  0  0  0  0  0  0  0  0
   -0.0682   -7.8790  -10.2607 O   0  0  0  0  0  0  0  0  0  0  0  0
    1.1379   -7.3371   -9.9172 C   0  0  0  0  0  0  0  0  0  0  0  0
    1.7489   -6.4221  -10.9535 C   0  0  0  0  0  0  0  0  0  0  0  0
    0.9836   11.2114   10.6851 H   0  0  0  0  0  0  0  0  0  0  0  0
   -0.6947   11.1147   11.4794 H   0  0  0  0  0  0  0  0  0  0  0  0
    0.6386   11.9664   12.2491 H   0  0  0  0  0  0  0  0  0  0  0  0
    1.4531    9.9373   13.2118 H   0  0  0  0  0  0  0  0  0  0  0  0
   -0.6540    6.4150   13.5645 H   0  0  0  0  0  0  0  0  0  0  0  0
    1.0002    6.0614   14.1190 H   0  0  0  0  0  0  0  0  0  0  0  0
   -0.0737    4.3772   12.7352 H   0  0  0  0  0  0  0  0  0  0  0  0
    1.5335    4.9528   12.0289 H   0  0  0  0  0  0  0  0  0  0  0  0
   -1.1579    6.1097   11.1533 H   0  0  0  0  0  0  0  0  0  0  0  0
    0.4508    7.9496    8.9022 H   0  0  0  0  0  0  0  0  0  0  0  0
   -1.0521    7.1423    9.4002 H   0  0  0  0  0  0  0  0  0  0  0  0
   -0.2043    9.6573   10.1777 H   0  0  0  0  0  0  0  0  0  0  0  0
   -1.4839    8.6915   10.9709 H   0  0  0  0  0  0  0  0  0  0  0  0
    1.6966    4.3017    9.4258 H   0  0  0  0  0  0  0  0  0  0  0  0
    3.2379    0.9041    6.0799 H   0  0  0  0  0  0  0  0  0  0  0  0
    5.5603    1.7325    6.1057 H   0  0  0  0  0  0  0  0  0  0  0  0
    7.6493    6.1583    6.2325 H   0  0  0  0  0  0  0  0  0  0  0  0
    5.7940    6.0603    6.1255 H   0  0  0  0  0  0  0  0  0  0  0  0
    7.9082    4.7121    4.4429 H   0  0  0  0  0  0  0  0  0  0  0  0
    6.5452    3.6860    4.9813 H   0  0  0  0  0  0  0  0  0  0  0  0
    6.1540    5.1410    4.0607 H   0  0  0  0  0  0  0  0  0  0  0  0
   -4.0171    1.2432    5.5552 H   0  0  0  0  0  0  0  0  0  0  0  0
   -6.2980    1.1106    6.4166 H   0  0  0  0  0  0  0  0  0  0  0  0
   -8.6178    0.1888    8.2359 H   0  0  0  0  0  0  0  0  0  0  0  0
   -9.5546    1.2512    9.2792 H   0  0  0  0  0  0  0  0  0  0  0  0
  -10.3132    2.2011    7.3436 H   0  0  0  0  0  0  0  0  0  0  0  0
   -8.7996    3.1351    7.3803 H   0  0  0  0  0  0  0  0  0  0  0  0
   -8.9335    1.5516    6.4334 H   0  0  0  0  0  0  0  0  0  0  0  0
   -2.3951    0.0520    5.2905 H   0  0  0  0  0  0  0  0  0  0  0  0
   -2.4044   -0.5492    2.7971 H   0  0  0  0  0  0  0  0  0  0  0  0
   -4.3174   -1.2020    2.3050 H   0  0  0  0  0  0  0  0  0  0  0  0
   -6.3467   -0.0842    1.5123 H   0  0  0  0  0  0  0  0  0  0  0  0
   -9.2482   -0.2986   -2.6618 H   0  0  0  0  0  0  0  0  0  0  0  0
   -8.2496   -1.7472   -2.4998 H   0  0  0  0  0  0  0  0  0  0  0  0
  -10.2759   -1.8346   -1.1963 H   0  0  0  0  0  0  0  0  0  0  0  0
   -9.9116   -0.3448   -0.3124 H   0  0  0  0  0  0  0  0  0  0  0  0
   -8.9078   -1.7975    0.0135 H   0  0  0  0  0  0  0  0  0  0  0  0
    1.2797   -6.1734   -0.3775 H   0  0  0  0  0  0  0  0  0  0  0  0
    3.5684   -6.8714    0.1977 H   0  0  0  0  0  0  0  0  0  0  0  0
    5.8842   -2.9854    2.5130 H   0  0  0  0  0  0  0  0  0  0  0  0
    7.0952   -3.9950    3.3317 H   0  0  0  0  0  0  0  0  0  0  0  0
    4.1456   -3.5043    4.0320 H   0  0  0  0  0  0  0  0  0  0  0  0
    5.5294   -3.3177    5.1477 H   0  0  0  0  0  0  0  0  0  0  0  0
    4.9609   -4.9368    4.6760 H   0  0  0  0  0  0  0  0  0  0  0  0
    0.4262   -5.1207   -1.9365 H   0  0  0  0  0  0  0  0  0  0  0  0
   -1.2783   -6.3492   -3.6782 H   0  0  0  0  0  0  0  0  0  0  0  0
   -2.3525   -5.1553   -4.5227 H   0  0  0  0  0  0  0  0  0  0  0  0
    0.7433   -5.1360   -4.0983 H   0  0  0  0  0  0  0  0  0  0  0  0
    2.2696   -3.3090   -7.7961 H   0  0  0  0  0  0  0  0  0  0  0  0
    2.9953   -2.7903   -6.2473 H   0  0  0  0  0  0  0  0  0  0  0  0
    0.6324   -1.6778   -5.7357 H   0  0  0  0  0  0  0  0  0  0  0  0
    1.7814   -0.8683   -6.7861 H   0  0  0  0  0  0  0  0  0  0  0  0
    0.3972   -2.7151   -8.4806 H   0  0  0  0  0  0  0  0  0  0  0  0
   -1.2633   -2.2039   -5.4671 H   0  0  0  0  0  0  0  0  0  0  0  0
   -2.7137   -2.4442   -6.4274 H   0  0  0  0  0  0  0  0  0  0  0  0
   -2.0789   -4.5835   -6.2862 H   0  0  0  0  0  0  0  0  0  0  0  0
   -0.9879   -4.1431   -7.6818 H   0  0  0  0  0  0  0  0  0  0  0  0
   -0.3416   -0.3608   -9.4492 H   0  0  0  0  0  0  0  0  0  0  0  0
    0.4900    0.2655   -8.0432 H   0  0  0  0  0  0  0  0  0  0  0  0
    2.6607   -0.8455   -8.5284 H   0  0  0  0  0  0  0  0  0  0  0  0
    4.7048   -0.5272  -12.3298 H   0  0  0  0  0  0  0  0  0  0  0  0
    5.5529   -1.4250  -11.0772 H   0  0  0  0  0  0  0  0  0  0  0  0
    4.7630   -2.6448  -13.3279 H   0  0  0  0  0  0  0  0  0  0  0  0
    4.9367   -3.4487  -11.7262 H   0  0  0  0  0  0  0  0  0  0  0  0
    2.6195   -3.0778  -11.1630 H   0  0  0  0  0  0  0  0  0  0  0  0
    0.7889   -2.7578  -11.5212 H   0  0  0  0  0  0  0  0  0  0  0  0
    0.1786   -1.8415  -13.0133 H   0  0  0  0  0  0  0  0  0  0  0  0
    0.1422   -0.4023  -11.2215 H   0  0  0  0  0  0  0  0  0  0  0  0
    1.4855    0.1110  -12.2525 H   0  0  0  0  0  0  0  0  0  0  0  0
    3.1373   -4.6258  -13.6976 H   0  0  0  0  0  0  0  0  0  0  0  0
    3.4146   -5.1638  -12.0293 H   0  0  0  0  0  0  0  0  0  0  0  0
    0.6907   -4.3384  -13.3020 H   0  0  0  0  0  0  0  0  0  0  0  0
   -2.6003   -5.7214  -11.5955 H   0  0  0  0  0  0  0  0  0  0  0  0
   -1.9089   -7.4263  -11.5270 H   0  0  0  0  0  0  0  0  0  0  0  0
   -0.7006   -5.4604   -9.6542 H   0  0  0  0  0  0  0  0  0  0  0  0
   -2.4710   -5.8731   -9.2566 H   0  0  0  0  0  0  0  0  0  0  0  0
   -0.5784   -7.4327   -8.2994 H   0  0  0  0  0  0  0  0  0  0  0  0
   -1.8809   -8.2202   -9.3467 H   0  0  0  0  0  0  0  0  0  0  0  0
    1.8250   -8.1837   -9.6514 H   0  0  0  0  0  0  0  0  0  0  0  0
    1.0248   -6.7845   -8.9377 H   0  0  0  0  0  0  0  0  0  0  0  0
    2.4013   -5.7154  -10.3908 H   0  0  0  0  0  0  0  0  0  0  0  0
    2.4228   -7.0403  -11.5839 H   0  0  0  0  0  0  0  0  0  0  0  0
  1  2  1  0
  2  3  2  0
  3  4  1  0
  4  5  1  0
  5  6  1  0
  6  7  1  0
  7  8  1  0
  8  9  1  0
  9 10  1  0
  7 11  1  0
 11 12  2  0
 12 13  1  0
 13 14  2  0
 14 15  1  0
 15 16  2  0
 16 17  1  0
 17 18  2  0
 18 19  1  0
 19 20  1  0
 20 21  1  0
 18 22  1  0
 14 23  1  0
 23 24  2  0
 24 25  1  0
 25 26  1  0
 26 27  2  0
 27 28  1  0
 28 29  2  0
 29 30  1  0
 30 31  1  0
 31 32  1  0
 29 33  1  0
 25 34  2  0
 34 35  1  0
 24 36  1  0
 36 37  2  0
 37 38  1  0
 37 39  1  0
 39 40  2  0
 40 41  1  0
 41 42  2  0
 42 43  1  0
 43 44  2  0
 44 45  1  0
 45 46  2  0
 46 47  1  0
 47 48  1  0
 48 49  1  0
 46 50  1  0
 42 51  1  0
 51 52  2  0
 52 53  1  0
 53 54  1  0
 54 55  2  0
 55 56  1  0
 56 57  2  0
 57 58  1  0
 58 59  1  0
 59 60  1  0
 57 61  1  0
 53 62  2  0
 62 63  1  0
 52 64  1  0
 64 65  2  0
 65 66  1  0
 65 67  1  0
 67 68  1  0
 68 69  2  0
 69 70  1  0
 70 71  1  0
 71 72  1  0
 72 73  1  0
 73 74  1  0
 74 75  1  0
 75 76  1  0
 73 77  1  0
 77 78  1  0
 78 79  2  0
 79 80  1  0
 80 81  1  0
 81 82  1  0
 82 83  1  0
 83 84  1  0
 84 85  1  0
 85 86  1  0
 83 87  1  0
 87 88  1  0
 88 89  2  0
 89 90  1  0
 90 91  1  0
 91 92  1  0
 92 93  1  0
 93 94  1  0
 94 95  1  0
 95 96  1  0
 10  3  1  0
 35 11  1  0
 63 39  1  0
 76 69  1  0
 86 79  1  0
 96 89  1  0
 34 13  1  0
 62 41  1  0
 22 15  1  0
 38 23  1  0
 50 43  1  0
 66 51  1  0
 33 26  1  0
 61 54  1  0
  1 97  1  0
  1 98  1  0
  1 99  1  0
  2100  1  0
  5101  1  0
  5102  1  0
  6103  1  0
  6104  1  0
  7105  1  0
  9106  1  0
  9107  1  0
 10108  1  0
 10109  1  0
 12110  1  0
 16111  1  0
 17112  1  0
 20113  1  0
 20114  1  0
 21115  1  0
 21116  1  0
 21117  1  0
 27118  1  0
 28119  1  0
 31120  1  0
 31121  1  0
 32122  1  0
 32123  1  0
 32124  1  0
 36125  1  0
 40126  1  0
 44127  1  0
 45128  1  0
 48129  1  0
 48130  1  0
 49131  1  0
 49132  1  0
 49133  1  0
 55134  1  0
 56135  1  0
 59136  1  0
 59137  1  0
 60138  1  0
 60139  1  0
 60140  1  0
 64141  1  0
 67142  1  0
 67143  1  0
 68144  1  0
 71145  1  0
 71146  1  0
 72147  1  0
 72148  1  0
 73149  1  0
 75150  1  0
 75151  1  0
 76152  1  0
 76153  1  0
 77154  1  0
 77155  1  0
 78156  1  0
 81157  1  0
 81158  1  0
 82159  1  0
 82160  1  0
 83161  1  0
 85162  1  0
 85163  1  0
 86164  1  0
 86165  1  0
 87166  1  0
 87167  1  0
 88168  1  0
 91169  1  0
 91170  1  0
 92171  1  0
 92172  1  0
 93173  1  0
 93174  1  0
 95175  1  0
 95176  1  0
 96177  1  0
 96178  1  0
M  END

