
     RDKit          3D

167187  0  0  0  0  0  0  0  0999 V2000
    8.7038    2.9105   -0.9040 C   0  0  0  0  0  0  0  0  0  0  0  0
    9.5860    3.3135    0.1614 O   0  0  0  0  0  0  0  0  0  0  0  0
    9.4934    2.9278    1.4626 C   0  0  0  0  0  0  0  0  0  0  0  0
   10.3285    3.3926    2.5330 C   0  0  0  0  0  0  0  0  0  0  0  0
   11.3819    4.2834    2.4000 F   0  0  0  0  0  0  0  0  0  0  0  0
    9.7124    2.6168    3.9009 S   0  0  0  0  0  0  0  0  0  0  0  0
    7.8126    2.2430   -0.8889 C   0  0  0  0  0  0  0  0  0  0  0  0
    7.2901    1.4841    0.7483 S   0  0  0  0  0  0  0  0  0  0  0  0
    8.5619    2.0761    1.8942 C   0  0  0  0  0  0  0  0  0  0  0  0
    8.4995    1.7420    3.2687 C   0  0  0  0  0  0  0  0  0  0  0  0
    7.5979    0.6057    3.6507 C   0  0  0  0  0  0  0  0  0  0  0  0
    6.3911    0.4076    4.1707 C   0  0  0  0  0  0  0  0  0  0  0  0
    5.7988   -0.8036    4.1083 C   0  0  0  0  0  0  0  0  0  0  0  0
    4.4818   -1.1982    4.3754 C   0  0  0  0  0  0  0  0  0  0  0  0
    3.5075   -0.3808    5.0473 C   0  0  0  0  0  0  0  0  0  0  0  0
    3.4444    0.7369    5.7603 C   0  0  0  0  0  0  0  0  0  0  0  0
    2.3199    1.3365    6.1689 C   0  0  0  0  0  0  0  0  0  0  0  0
    1.0958    0.9063    5.9265 C   0  0  0  0  0  0  0  0  0  0  0  0
   -0.5838    1.2648    6.1616 S   0  0  0  0  0  0  0  0  0  0  0  0
   -1.2916    2.0373    4.6877 C   0  0  0  0  0  0  0  0  0  0  0  0
   -1.3903    1.0763    3.5129 C   0  0  0  0  0  0  0  0  0  0  0  0
    1.6613   -0.7751    4.8473 Se  0  0  0  0  0  2  0  0  0  0  0  0
    4.0689   -2.4948    3.9694 C   0  0  0  0  0  0  0  0  0  0  0  0
    4.8000   -3.4273    3.3515 C   0  0  0  0  0  0  0  0  0  0  0  0
    6.1051   -3.0621    3.0971 C   0  0  0  0  0  0  0  0  0  0  0  0
    7.0975   -3.9155    2.5065 C   0  0  0  0  0  0  0  0  0  0  0  0
    8.4355   -3.7713    2.2742 C   0  0  0  0  0  0  0  0  0  0  0  0
    9.1638   -4.6932    1.6759 C   0  0  0  0  0  0  0  0  0  0  0  0
    8.6953   -5.8592    1.2359 C   0  0  0  0  0  0  0  0  0  0  0  0
    9.3291   -7.3012    0.4352 S   0  0  0  0  0  0  0  0  0  0  0  0
    7.9311   -8.4321    0.1451 C   0  0  0  0  0  0  0  0  0  0  0  0
    7.4440   -8.8572    1.4985 C   0  0  0  0  0  0  0  0  0  0  0  0
    6.7870   -5.6357    1.7643 Se  0  0  0  0  0  2  0  0  0  0  0  0
    6.5309   -1.7909    3.4729 C   0  0  0  0  0  0  0  0  0  0  0  0
    7.9721   -0.9750    3.0305 S   0  0  0  0  0  0  0  0  0  0  0  0
    4.1449   -4.5214    2.8404 C   0  0  0  0  0  0  0  0  0  0  0  0
    2.8184   -4.5739    2.9790 C   0  0  0  0  0  0  0  0  0  0  0  0
    2.4580   -3.1128    3.8702 S   0  0  0  0  0  0  0  0  0  0  0  0
    1.7545   -5.1877    2.0825 C   0  0  0  0  0  0  0  0  0  0  0  0
    0.4328   -5.1862    2.1791 C   0  0  0  0  0  0  0  0  0  0  0  0
   -0.2996   -5.3319    1.0241 C   0  0  0  0  0  0  0  0  0  0  0  0
   -1.6660   -5.0038    0.8695 C   0  0  0  0  0  0  0  0  0  0  0  0
   -2.5513   -4.9768    1.9971 C   0  0  0  0  0  0  0  0  0  0  0  0
   -3.7274   -4.4836    2.2979 C   0  0  0  0  0  0  0  0  0  0  0  0
   -4.3833   -4.6929    3.4452 C   0  0  0  0  0  0  0  0  0  0  0  0
   -3.8882   -5.4426    4.4258 C   0  0  0  0  0  0  0  0  0  0  0  0
   -4.4118   -5.9799    6.0304 S   0  0  0  0  0  0  0  0  0  0  0  0
   -5.2048   -7.6046    5.8493 C   0  0  0  0  0  0  0  0  0  0  0  0
   -4.2210   -8.6308    5.3664 C   0  0  0  0  0  0  0  0  0  0  0  0
   -2.1739   -5.9770    3.6227 Se  0  0  0  0  0  2  0  0  0  0  0  0
   -2.1689   -4.8240   -0.4141 C   0  0  0  0  0  0  0  0  0  0  0  0
   -1.4853   -4.9343   -1.5825 C   0  0  0  0  0  0  0  0  0  0  0  0
   -0.1303   -5.3048   -1.4277 C   0  0  0  0  0  0  0  0  0  0  0  0
    0.8162   -5.5118   -2.4767 C   0  0  0  0  0  0  0  0  0  0  0  0
    2.0632   -6.0031   -2.5362 C   0  0  0  0  0  0  0  0  0  0  0  0
    2.7951   -5.9997   -3.6299 C   0  0  0  0  0  0  0  0  0  0  0  0
    2.3999   -5.5147   -4.8180 C   0  0  0  0  0  0  0  0  0  0  0  0
    3.0920   -5.3132   -6.4187 S   0  0  0  0  0  0  0  0  0  0  0  0
    4.8217   -5.9268   -6.3020 C   0  0  0  0  0  0  0  0  0  0  0  0
    5.6364   -5.0227   -5.3708 C   0  0  0  0  0  0  0  0  0  0  0  0
    0.5857   -4.9223   -4.3173 Se  0  0  0  0  0  2  0  0  0  0  0  0
    0.3762   -5.4761   -0.1214 C   0  0  0  0  0  0  0  0  0  0  0  0
    2.0389   -5.4262    0.3942 S   0  0  0  0  0  0  0  0  0  0  0  0
   -2.0853   -4.4227   -2.7001 C   0  0  0  0  0  0  0  0  0  0  0  0
   -3.2790   -3.8477   -2.5920 C   0  0  0  0  0  0  0  0  0  0  0  0
   -3.6395   -4.0320   -0.8911 S   0  0  0  0  0  0  0  0  0  0  0  0
   -3.9213   -2.6809   -3.3552 C   0  0  0  0  0  0  0  0  0  0  0  0
   -3.1121   -1.5394   -3.5581 C   0  0  0  0  0  0  0  0  0  0  0  0
   -3.7434   -0.3753   -3.7384 C   0  0  0  0  0  0  0  0  0  0  0  0
   -3.1534    0.9076   -3.5961 C   0  0  0  0  0  0  0  0  0  0  0  0
   -1.7286    1.1798   -3.6497 C   0  0  0  0  0  0  0  0  0  0  0  0
   -0.6100    0.5958   -4.0194 C   0  0  0  0  0  0  0  0  0  0  0  0
    0.6286    1.0907   -3.8440 C   0  0  0  0  0  0  0  0  0  0  0  0
    0.8556    2.2554   -3.2629 C   0  0  0  0  0  0  0  0  0  0  0  0
    2.2173    3.2777   -2.7990 S   0  0  0  0  0  0  0  0  0  0  0  0
    3.7719    2.4579   -3.1539 C   0  0  0  0  0  0  0  0  0  0  0  0
    4.9115    3.4104   -2.7755 C   0  0  0  0  0  0  0  0  0  0  0  0
   -1.0029    2.8055   -2.8733 Se  0  0  0  0  0  2  0  0  0  0  0  0
   -3.9927    2.0113   -3.4390 C   0  0  0  0  0  0  0  0  0  0  0  0
   -5.3443    2.0102   -3.4224 C   0  0  0  0  0  0  0  0  0  0  0  0
   -5.9309    0.7303   -3.5972 C   0  0  0  0  0  0  0  0  0  0  0  0
   -7.3266    0.5321   -3.8322 C   0  0  0  0  0  0  0  0  0  0  0  0
   -8.2134   -0.4581   -3.8945 C   0  0  0  0  0  0  0  0  0  0  0  0
   -9.4768   -0.3212   -4.2536 C   0  0  0  0  0  0  0  0  0  0  0  0
  -10.0356    0.8537   -4.6005 C   0  0  0  0  0  0  0  0  0  0  0  0
  -11.5952    1.4290   -5.1539 S   0  0  0  0  0  0  0  0  0  0  0  0
  -11.5709    1.4507   -6.9867 C   0  0  0  0  0  0  0  0  0  0  0  0
  -11.4812    0.0632   -7.5615 C   0  0  0  0  0  0  0  0  0  0  0  0
   -8.4704    2.0381   -4.3829 Se  0  0  0  0  0  2  0  0  0  0  0  0
   -5.0944   -0.3793   -3.7270 C   0  0  0  0  0  0  0  0  0  0  0  0
   -5.4529   -2.0856   -3.4595 S   0  0  0  0  0  0  0  0  0  0  0  0
   -5.9560    3.1465   -2.9944 C   0  0  0  0  0  0  0  0  0  0  0  0
   -5.1844    4.1891   -2.6072 C   0  0  0  0  0  0  0  0  0  0  0  0
   -3.5919    3.6134   -2.8704 S   0  0  0  0  0  0  0  0  0  0  0  0
   -5.5106    5.4062   -1.7623 C   0  0  0  0  0  0  0  0  0  0  0  0
   -6.7480    5.4723   -1.2402 O   0  0  0  0  0  0  0  0  0  0  0  0
   -7.2231    6.4938   -0.3644 C   0  0  0  0  0  0  0  0  0  0  0  0
   -8.5316    6.4380    0.1295 C   0  0  0  0  0  0  0  0  0  0  0  0
   -9.4892    5.4864   -0.1305 F   0  0  0  0  0  0  0  0  0  0  0  0
   -8.6184    7.8089    1.1367 S   0  0  0  0  0  0  0  0  0  0  0  0
   -4.5323    6.2494   -1.6034 C   0  0  0  0  0  0  0  0  0  0  0  0
   -4.7900    7.7192   -0.6376 S   0  0  0  0  0  0  0  0  0  0  0  0
   -6.4794    7.5260    0.0567 C   0  0  0  0  0  0  0  0  0  0  0  0
   -7.0440    8.4129    0.9228 C   0  0  0  0  0  0  0  0  0  0  0  0
   -6.4021    9.5539    1.6518 C   0  0  0  0  0  0  0  0  0  0  0  0
   -5.0842    9.7869    1.3140 O   0  0  0  0  0  0  0  0  0  0  0  0
   -4.2918   10.8207    1.9101 C   0  0  0  0  0  0  0  0  0  0  0  0
   -2.9532   10.9657    1.4865 C   0  0  0  0  0  0  0  0  0  0  0  0
   -2.2643   10.2536    0.5507 F   0  0  0  0  0  0  0  0  0  0  0  0
   -2.4181   12.2703    2.4343 S   0  0  0  0  0  0  0  0  0  0  0  0
   -7.1326   10.1770    2.5095 C   0  0  0  0  0  0  0  0  0  0  0  0
   -6.4462   11.5388    3.4360 S   0  0  0  0  0  0  0  0  0  0  0  0
   -4.7092   11.6521    2.8321 C   0  0  0  0  0  0  0  0  0  0  0  0
   -3.8446   12.5989    3.3264 C   0  0  0  0  0  0  0  0  0  0  0  0
    9.0412    3.4109   -1.9087 H   0  0  0  0  0  0  0  0  0  0  0  0
    6.9520    1.8295   -1.5234 H   0  0  0  0  0  0  0  0  0  0  0  0
    5.8823    1.2880    4.6409 H   0  0  0  0  0  0  0  0  0  0  0  0
    4.4555    1.1945    6.0784 H   0  0  0  0  0  0  0  0  0  0  0  0
    2.3990    2.2989    6.7842 H   0  0  0  0  0  0  0  0  0  0  0  0
   -2.3136    2.4345    4.8756 H   0  0  0  0  0  0  0  0  0  0  0  0
   -0.6664    2.8817    4.3275 H   0  0  0  0  0  0  0  0  0  0  0  0
   -1.1008    1.5623    2.5729 H   0  0  0  0  0  0  0  0  0  0  0  0
   -2.4541    0.7779    3.3680 H   0  0  0  0  0  0  0  0  0  0  0  0
   -0.8421    0.1546    3.7380 H   0  0  0  0  0  0  0  0  0  0  0  0
    8.9119   -2.8230    2.6759 H   0  0  0  0  0  0  0  0  0  0  0  0
   10.2966   -4.5119    1.5219 H   0  0  0  0  0  0  0  0  0  0  0  0
    7.1134   -7.8602   -0.3414 H   0  0  0  0  0  0  0  0  0  0  0  0
    8.2347   -9.2602   -0.5191 H   0  0  0  0  0  0  0  0  0  0  0  0
    6.6767   -8.2110    1.9185 H   0  0  0  0  0  0  0  0  0  0  0  0
    8.2929   -8.7920    2.2419 H   0  0  0  0  0  0  0  0  0  0  0  0
    7.0753   -9.8819    1.5025 H   0  0  0  0  0  0  0  0  0  0  0  0
    4.6577   -5.3618    2.3273 H   0  0  0  0  0  0  0  0  0  0  0  0
   -0.0343   -5.0482    3.1726 H   0  0  0  0  0  0  0  0  0  0  0  0
   -4.2277   -3.8267    1.4806 H   0  0  0  0  0  0  0  0  0  0  0  0
   -5.3979   -4.2018    3.6389 H   0  0  0  0  0  0  0  0  0  0  0  0
   -5.6518   -7.8570    6.7996 H   0  0  0  0  0  0  0  0  0  0  0  0
   -6.0443   -7.5026    5.1120 H   0  0  0  0  0  0  0  0  0  0  0  0
   -4.6520   -9.1837    4.5074 H   0  0  0  0  0  0  0  0  0  0  0  0
   -3.2622   -8.1996    5.0228 H   0  0  0  0  0  0  0  0  0  0  0  0
   -4.0582   -9.4073    6.1589 H   0  0  0  0  0  0  0  0  0  0  0  0
    2.4684   -6.4776   -1.5740 H   0  0  0  0  0  0  0  0  0  0  0  0
    3.8578   -6.4462   -3.6034 H   0  0  0  0  0  0  0  0  0  0  0  0
    4.8725   -6.9459   -5.9057 H   0  0  0  0  0  0  0  0  0  0  0  0
    5.2427   -5.8350   -7.3099 H   0  0  0  0  0  0  0  0  0  0  0  0
    5.9048   -4.1241   -5.9565 H   0  0  0  0  0  0  0  0  0  0  0  0
    5.0265   -4.6648   -4.5152 H   0  0  0  0  0  0  0  0  0  0  0  0
    6.5652   -5.5048   -5.0517 H   0  0  0  0  0  0  0  0  0  0  0  0
   -1.5993   -4.4768   -3.7086 H   0  0  0  0  0  0  0  0  0  0  0  0
   -2.0337   -1.7061   -3.5432 H   0  0  0  0  0  0  0  0  0  0  0  0
   -0.6827   -0.4127   -4.5729 H   0  0  0  0  0  0  0  0  0  0  0  0
    1.5407    0.5122   -4.1951 H   0  0  0  0  0  0  0  0  0  0  0  0
    3.9175    1.5143   -2.5903 H   0  0  0  0  0  0  0  0  0  0  0  0
    3.8582    2.3475   -4.2503 H   0  0  0  0  0  0  0  0  0  0  0  0
    4.9803    3.5511   -1.6717 H   0  0  0  0  0  0  0  0  0  0  0  0
    4.7108    4.4223   -3.2414 H   0  0  0  0  0  0  0  0  0  0  0  0
    5.8595    3.0908   -3.2261 H   0  0  0  0  0  0  0  0  0  0  0  0
   -7.8146   -1.5010   -3.6095 H   0  0  0  0  0  0  0  0  0  0  0  0
  -10.1934   -1.2232   -4.2873 H   0  0  0  0  0  0  0  0  0  0  0  0
  -12.4803    1.9861   -7.3108 H   0  0  0  0  0  0  0  0  0  0  0  0
  -10.6729    2.0177   -7.2953 H   0  0  0  0  0  0  0  0  0  0  0  0
  -12.0182   -0.7129   -6.9805 H   0  0  0  0  0  0  0  0  0  0  0  0
  -10.3919   -0.2137   -7.7182 H   0  0  0  0  0  0  0  0  0  0  0  0
  -11.9363    0.0470   -8.5713 H   0  0  0  0  0  0  0  0  0  0  0  0
   -7.0548    3.2458   -2.9107 H   0  0  0  0  0  0  0  0  0  0  0  0
   -3.5857    6.0748   -2.0390 H   0  0  0  0  0  0  0  0  0  0  0  0
   -8.1480    9.9133    2.6858 H   0  0  0  0  0  0  0  0  0  0  0  0
   -3.9927   13.3713    4.0878 H   0  0  0  0  0  0  0  0  0  0  0  0
  1  2  1  0
  2  3  1  0
  3  4  2  0
  4  5  1  0
  4  6  1  0
  1  7  2  0
  7  8  1  0
  8  9  1  0
  9 10  2  0
 10 11  1  0
 11 12  2  0
 12 13  1  0
 13 14  2  0
 14 15  1  0
 15 16  2  0
 16 17  1  0
 17 18  2  0
 18 19  1  0
 19 20  1  0
 20 21  1  0
 18 22  1  0
 14 23  1  0
 23 24  2  0
 24 25  1  0
 25 26  1  0
 26 27  2  0
 27 28  1  0
 28 29  2  0
 29 30  1  0
 30 31  1  0
 31 32  1  0
 29 33  1  0
 25 34  2  0
 34 35  1  0
 24 36  1  0
 36 37  2  0
 37 38  1  0
 37 39  1  0
 39 40  2  0
 40 41  1  0
 41 42  2  0
 42 43  1  0
 43 44  2  0
 44 45  1  0
 45 46  2  0
 46 47  1  0
 47 48  1  0
 48 49  1  0
 46 50  1  0
 42 51  1  0
 51 52  2  0
 52 53  1  0
 53 54  1  0
 54 55  2  0
 55 56  1  0
 56 57  2  0
 57 58  1  0
 58 59  1  0
 59 60  1  0
 57 61  1  0
 53 62  2  0
 62 63  1  0
 52 64  1  0
 64 65  2  0
 65 66  1  0
 65 67  1  0
 67 68  2  0
 68 69  1  0
 69 70  2  0
 70 71  1  0
 71 72  2  0
 72 73  1  0
 73 74  2  0
 74 75  1  0
 75 76  1  0
 76 77  1  0
 74 78  1  0
 70 79  1  0
 79 80  2  0
 80 81  1  0
 81 82  1  0
 82 83  2  0
 83 84  1  0
 84 85  2  0
 85 86  1  0
 86 87  1  0
 87 88  1  0
 85 89  1  0
 81 90  2  0
 90 91  1  0
 80 92  1  0
 92 93  2  0
 93 94  1  0
 93 95  1  0
 95 96  1  0
 96 97  1  0
 97 98  2  0
 98 99  1  0
 98100  1  0
 95101  2  0
101102  1  0
102103  1  0
103104  2  0
104105  1  0
105106  1  0
106107  1  0
107108  2  0
108109  1  0
108110  1  0
105111  2  0
111112  1  0
112113  1  0
113114  2  0
  9  3  1  0
 35 11  1  0
 63 39  1  0
 91 67  1  0
103 97  1  0
113107  1  0
 10  6  1  0
 34 13  1  0
 62 41  1  0
 90 69  1  0
104100  1  0
114110  1  0
 22 15  1  0
 38 23  1  0
 50 43  1  0
 66 51  1  0
 78 71  1  0
 94 79  1  0
 33 26  1  0
 61 54  1  0
 89 82  1  0
  1115  1  0
  7116  1  0
 12117  1  0
 16118  1  0
 17119  1  0
 20120  1  0
 20121  1  0
 21122  1  0
 21123  1  0
 21124  1  0
 27125  1  0
 28126  1  0
 31127  1  0
 31128  1  0
 32129  1  0
 32130  1  0
 32131  1  0
 36132  1  0
 40133  1  0
 44134  1  0
 45135  1  0
 48136  1  0
 48137  1  0
 49138  1  0
 49139  1  0
 49140  1  0
 55141  1  0
 56142  1  0
 59143  1  0
 59144  1  0
 60145  1  0
 60146  1  0
 60147  1  0
 64148  1  0
 68149  1  0
 72150  1  0
 73151  1  0
 76152  1  0
 76153  1  0
 77154  1  0
 77155  1  0
 77156  1  0
 83157  1  0
 84158  1  0
 87159  1  0
 87160  1  0
 88161  1  0
 88162  1  0
 88163  1  0
 92164  1  0
101165  1  0
111166  1  0
114167  1  0
M  END

