
     RDKit          3D

260289  0  0  0  0  0  0  0  0999 V2000
    5.8992   -4.8523    5.5739 C   0  0  0  0  0  0  0  0  0  0  0  0
    4.9441   -5.7898    5.8576 C   0  0  0  0  0  0  0  0  0  0  0  0
    3.6917   -5.5720    5.4456 C   0  0  0  0  0  0  0  0  0  0  0  0
    2.5607   -6.3958    5.6035 C   0  0  0  0  0  0  0  0  0  0  0  0
    2.6154   -7.6836    6.3126 C   0  0  0  0  0  0  0  0  0  0  0  0
    1.6435   -8.5288    6.7474 C   0  0  0  0  0  0  0  0  0  0  0  0
    2.0178   -9.6266    7.4277 C   0  0  0  0  0  0  0  0  0  0  0  0
    3.3520   -9.8253    7.6392 C   0  0  0  0  0  0  0  0  0  0  0  0
    4.0143  -10.9545    8.3923 C   0  0  0  0  0  0  0  0  0  0  0  0
    4.3413  -12.1231    7.5300 C   0  0  0  0  0  0  0  0  0  0  0  0
    4.0220   -8.4660    6.8769 S   0  0  0  0  0  0  0  0  0  0  0  0
    1.3343   -6.0243    5.0973 C   0  0  0  0  0  0  0  0  0  0  0  0
    1.1056   -4.8569    4.4232 C   0  0  0  0  0  0  0  0  0  0  0  0
    2.2257   -4.0135    4.2469 C   0  0  0  0  0  0  0  0  0  0  0  0
    2.1633   -2.7748    3.4737 C   0  0  0  0  0  0  0  0  0  0  0  0
    3.0986   -1.8181    3.2040 C   0  0  0  0  0  0  0  0  0  0  0  0
    2.7452   -0.7812    2.4314 C   0  0  0  0  0  0  0  0  0  0  0  0
    1.4623   -0.7441    1.9582 C   0  0  0  0  0  0  0  0  0  0  0  0
    0.8563    0.3286    1.0837 C   0  0  0  0  0  0  0  0  0  0  0  0
   -0.5694   -0.0845    0.8033 C   0  0  0  0  0  0  0  0  0  0  0  0
    0.8163   -2.1674    2.6221 S   0  0  0  0  0  0  0  0  0  0  0  0
    3.4431   -4.4109    4.7598 C   0  0  0  0  0  0  0  0  0  0  0  0
    5.0210   -3.6770    4.7321 S   0  0  0  0  0  0  0  0  0  0  0  0
   -0.1265   -4.6478    3.9488 C   0  0  0  0  0  0  0  0  0  0  0  0
   -1.0790   -5.6591    4.1775 C   0  0  0  0  0  0  0  0  0  0  0  0
   -0.2284   -6.7826    5.0149 S   0  0  0  0  0  0  0  0  0  0  0  0
   -2.4718   -5.5316    3.6590 C   0  0  0  0  0  0  0  0  0  0  0  0
   -3.2451   -4.4169    3.6520 C   0  0  0  0  0  0  0  0  0  0  0  0
   -4.4315   -4.4639    3.0069 C   0  0  0  0  0  0  0  0  0  0  0  0
   -5.3036   -3.4195    2.7430 C   0  0  0  0  0  0  0  0  0  0  0  0
   -5.1426   -2.0358    3.1631 C   0  0  0  0  0  0  0  0  0  0  0  0
   -4.2089   -1.2259    3.6256 C   0  0  0  0  0  0  0  0  0  0  0  0
   -4.4276    0.0402    4.0071 C   0  0  0  0  0  0  0  0  0  0  0  0
   -5.6246    0.6222    3.9581 C   0  0  0  0  0  0  0  0  0  0  0  0
   -6.2591    2.2245    4.3501 S   0  0  0  0  0  0  0  0  0  0  0  0
   -6.1664    3.3524    2.9367 C   0  0  0  0  0  0  0  0  0  0  0  0
   -7.0480    2.9442    1.7885 C   0  0  0  0  0  0  0  0  0  0  0  0
   -6.6937   -0.8448    3.2449 Se  0  0  0  0  0  2  0  0  0  0  0  0
   -6.4103   -3.6395    1.8866 C   0  0  0  0  0  0  0  0  0  0  0  0
   -6.7117   -4.8032    1.2743 C   0  0  0  0  0  0  0  0  0  0  0  0
   -5.8511   -5.8663    1.5642 C   0  0  0  0  0  0  0  0  0  0  0  0
   -6.0637   -7.2362    1.1623 C   0  0  0  0  0  0  0  0  0  0  0  0
   -7.0676   -7.9728    0.6780 C   0  0  0  0  0  0  0  0  0  0  0  0
   -6.9525   -9.2475    0.3262 C   0  0  0  0  0  0  0  0  0  0  0  0
   -5.8325   -9.9586    0.4100 C   0  0  0  0  0  0  0  0  0  0  0  0
   -5.2611  -11.5804    0.0860 S   0  0  0  0  0  0  0  0  0  0  0  0
   -5.4995  -12.6766    1.4993 C   0  0  0  0  0  0  0  0  0  0  0  0
   -4.6478  -12.3091    2.6878 C   0  0  0  0  0  0  0  0  0  0  0  0
   -4.6360   -8.5300    1.1538 Se  0  0  0  0  0  2  0  0  0  0  0  0
   -4.7506   -5.6568    2.4126 C   0  0  0  0  0  0  0  0  0  0  0  0
   -3.3937   -6.6529    2.7904 S   0  0  0  0  0  0  0  0  0  0  0  0
   -7.6590   -4.7424    0.2660 C   0  0  0  0  0  0  0  0  0  0  0  0
   -8.1901   -3.5483   -0.0266 C   0  0  0  0  0  0  0  0  0  0  0  0
   -7.4149   -2.4864    1.1124 S   0  0  0  0  0  0  0  0  0  0  0  0
   -8.7176   -2.9529   -1.3369 C   0  0  0  0  0  0  0  0  0  0  0  0
   -8.9908   -1.6213   -1.5392 C   0  0  0  0  0  0  0  0  0  0  0  0
   -8.9063   -1.1768   -2.8180 C   0  0  0  0  0  0  0  0  0  0  0  0
   -8.7643    0.1907   -3.1852 C   0  0  0  0  0  0  0  0  0  0  0  0
   -9.1922    1.2551   -2.2956 C   0  0  0  0  0  0  0  0  0  0  0  0
   -9.1855    2.6112   -2.4352 C   0  0  0  0  0  0  0  0  0  0  0  0
   -9.6707    3.3691   -1.4376 C   0  0  0  0  0  0  0  0  0  0  0  0
  -10.1433    2.7233   -0.3340 C   0  0  0  0  0  0  0  0  0  0  0  0
  -10.7372    3.2948    0.9273 C   0  0  0  0  0  0  0  0  0  0  0  0
  -12.2323    3.3832    0.7335 C   0  0  0  0  0  0  0  0  0  0  0  0
   -9.9011    1.0999   -0.7214 S   0  0  0  0  0  0  0  0  0  0  0  0
   -8.2814    0.5076   -4.4459 C   0  0  0  0  0  0  0  0  0  0  0  0
   -7.9328   -0.3907   -5.4083 C   0  0  0  0  0  0  0  0  0  0  0  0
   -8.1071   -1.7436   -5.0619 C   0  0  0  0  0  0  0  0  0  0  0  0
   -7.7428   -2.8285   -5.9388 C   0  0  0  0  0  0  0  0  0  0  0  0
   -8.0938   -4.1572   -5.8474 C   0  0  0  0  0  0  0  0  0  0  0  0
   -7.6441   -4.9981   -6.7843 C   0  0  0  0  0  0  0  0  0  0  0  0
   -6.8649   -4.4847   -7.7771 C   0  0  0  0  0  0  0  0  0  0  0  0
   -6.2100   -5.2193   -8.9350 C   0  0  0  0  0  0  0  0  0  0  0  0
   -4.8257   -5.5904   -8.3565 C   0  0  0  0  0  0  0  0  0  0  0  0
   -6.7959   -2.8385   -7.3572 S   0  0  0  0  0  0  0  0  0  0  0  0
   -8.5833   -2.0666   -3.7778 C   0  0  0  0  0  0  0  0  0  0  0  0
   -8.4045   -3.5602   -2.8832 S   0  0  0  0  0  0  0  0  0  0  0  0
   -7.1803    0.0751   -6.4470 C   0  0  0  0  0  0  0  0  0  0  0  0
   -6.8329    1.3916   -6.4224 C   0  0  0  0  0  0  0  0  0  0  0  0
   -7.5532    1.9859   -5.0263 S   0  0  0  0  0  0  0  0  0  0  0  0
   -5.5696    1.9776   -7.0512 C   0  0  0  0  0  0  0  0  0  0  0  0
   -4.9137    3.1033   -6.7248 C   0  0  0  0  0  0  0  0  0  0  0  0
   -3.5700    3.1564   -6.9909 C   0  0  0  0  0  0  0  0  0  0  0  0
   -2.6412    4.0716   -6.4834 C   0  0  0  0  0  0  0  0  0  0  0  0
   -3.0360    5.3345   -5.8786 C   0  0  0  0  0  0  0  0  0  0  0  0
   -2.2289    6.3695   -5.4805 C   0  0  0  0  0  0  0  0  0  0  0  0
   -2.8102    7.4604   -4.9645 C   0  0  0  0  0  0  0  0  0  0  0  0
   -4.1700    7.4741   -4.8663 C   0  0  0  0  0  0  0  0  0  0  0  0
   -5.0266    8.5911   -4.3068 C   0  0  0  0  0  0  0  0  0  0  0  0
   -5.3196    9.5128   -5.4748 C   0  0  0  0  0  0  0  0  0  0  0  0
   -4.5803    5.9509   -5.5045 S   0  0  0  0  0  0  0  0  0  0  0  0
   -1.2598    3.8002   -6.5699 C   0  0  0  0  0  0  0  0  0  0  0  0
   -0.7264    2.6877   -7.1331 C   0  0  0  0  0  0  0  0  0  0  0  0
   -1.6602    1.7926   -7.6752 C   0  0  0  0  0  0  0  0  0  0  0  0
   -1.2399    0.6893   -8.5528 C   0  0  0  0  0  0  0  0  0  0  0  0
   -1.8924   -0.3967   -9.0218 C   0  0  0  0  0  0  0  0  0  0  0  0
   -1.2474   -1.2221   -9.8629 C   0  0  0  0  0  0  0  0  0  0  0  0
    0.0346   -0.9131  -10.1917 C   0  0  0  0  0  0  0  0  0  0  0  0
    0.9543   -1.6325  -11.1506 C   0  0  0  0  0  0  0  0  0  0  0  0
    0.7226   -0.9313  -12.5074 C   0  0  0  0  0  0  0  0  0  0  0  0
    0.3228    0.5211   -9.3248 S   0  0  0  0  0  0  0  0  0  0  0  0
   -3.0201    2.0523   -7.5783 C   0  0  0  0  0  0  0  0  0  0  0  0
   -4.3804    0.9887   -7.7581 S   0  0  0  0  0  0  0  0  0  0  0  0
    0.5948    2.4237   -6.8768 C   0  0  0  0  0  0  0  0  0  0  0  0
    1.2703    3.2637   -6.0889 C   0  0  0  0  0  0  0  0  0  0  0  0
    0.0681    4.4735   -5.7102 S   0  0  0  0  0  0  0  0  0  0  0  0
    2.4339    3.0756   -5.1500 C   0  0  0  0  0  0  0  0  0  0  0  0
    3.3574    3.8335   -4.6050 C   0  0  0  0  0  0  0  0  0  0  0  0
    4.0826    3.3426   -3.5596 C   0  0  0  0  0  0  0  0  0  0  0  0
    4.9841    4.0122   -2.7421 C   0  0  0  0  0  0  0  0  0  0  0  0
    5.5889    5.3180   -3.0441 C   0  0  0  0  0  0  0  0  0  0  0  0
    5.7607    6.0486   -4.1441 C   0  0  0  0  0  0  0  0  0  0  0  0
    6.2554    7.2877   -4.1240 C   0  0  0  0  0  0  0  0  0  0  0  0
    6.6242    7.9183   -3.0140 C   0  0  0  0  0  0  0  0  0  0  0  0
    7.2653    9.4994   -2.5725 S   0  0  0  0  0  0  0  0  0  0  0  0
    9.0744    9.4891   -2.5421 C   0  0  0  0  0  0  0  0  0  0  0  0
    9.6066    8.6255   -1.4308 C   0  0  0  0  0  0  0  0  0  0  0  0
    6.2047    6.4905   -1.6988 Se  0  0  0  0  0  2  0  0  0  0  0  0
    5.4803    3.3911   -1.6047 C   0  0  0  0  0  0  0  0  0  0  0  0
    5.1657    2.1269   -1.1809 C   0  0  0  0  0  0  0  0  0  0  0  0
    4.2759    1.4436   -2.0181 C   0  0  0  0  0  0  0  0  0  0  0  0
    3.8569    0.0725   -1.8038 C   0  0  0  0  0  0  0  0  0  0  0  0
    2.8808   -0.7074   -2.2787 C   0  0  0  0  0  0  0  0  0  0  0  0
    2.7628   -1.9962   -1.9518 C   0  0  0  0  0  0  0  0  0  0  0  0
    3.5891   -2.6469   -1.1284 C   0  0  0  0  0  0  0  0  0  0  0  0
    3.6741   -4.2801   -0.5043 S   0  0  0  0  0  0  0  0  0  0  0  0
    4.6316   -5.3189   -1.6258 C   0  0  0  0  0  0  0  0  0  0  0  0
    4.6687   -6.7598   -1.1379 C   0  0  0  0  0  0  0  0  0  0  0  0
    4.8193   -1.1835   -0.6850 Se  0  0  0  0  0  2  0  0  0  0  0  0
    3.7830    2.0731   -3.1540 C   0  0  0  0  0  0  0  0  0  0  0  0
    2.5415    1.5955   -4.2269 S   0  0  0  0  0  0  0  0  0  0  0  0
    5.6579    1.7358    0.0026 C   0  0  0  0  0  0  0  0  0  0  0  0
    6.4279    2.6079    0.7015 C   0  0  0  0  0  0  0  0  0  0  0  0
    6.4639    3.9838   -0.3263 S   0  0  0  0  0  0  0  0  0  0  0  0
    6.9190    2.4852    2.0759 C   0  0  0  0  0  0  0  0  0  0  0  0
    7.9795    3.0954    2.6638 C   0  0  0  0  0  0  0  0  0  0  0  0
    8.2429    2.7783    3.9492 C   0  0  0  0  0  0  0  0  0  0  0  0
    9.2873    3.2490    4.7527 C   0  0  0  0  0  0  0  0  0  0  0  0
   10.2292    4.2915    4.3386 C   0  0  0  0  0  0  0  0  0  0  0  0
   11.4088    4.6862    4.8250 C   0  0  0  0  0  0  0  0  0  0  0  0
   12.0676    5.7415    4.3466 C   0  0  0  0  0  0  0  0  0  0  0  0
   11.6380    6.5038    3.3528 C   0  0  0  0  0  0  0  0  0  0  0  0
   12.1614    7.9109    2.4581 S   0  0  0  0  0  0  0  0  0  0  0  0
   11.6015    9.4689    3.1492 C   0  0  0  0  0  0  0  0  0  0  0  0
   10.0915    9.5335    3.0133 C   0  0  0  0  0  0  0  0  0  0  0  0
    9.9197    5.5512    2.9777 Se  0  0  0  0  0  2  0  0  0  0  0  0
    9.4083    2.7879    6.0492 C   0  0  0  0  0  0  0  0  0  0  0  0
    8.5679    1.8782    6.6509 C   0  0  0  0  0  0  0  0  0  0  0  0
    7.5247    1.3998    5.8559 C   0  0  0  0  0  0  0  0  0  0  0  0
    6.5428    0.4033    6.2578 C   0  0  0  0  0  0  0  0  0  0  0  0
    6.4073   -0.5453    7.1725 C   0  0  0  0  0  0  0  0  0  0  0  0
    5.2637   -1.2076    7.3870 C   0  0  0  0  0  0  0  0  0  0  0  0
    4.1404   -0.9940    6.7141 C   0  0  0  0  0  0  0  0  0  0  0  0
    2.5045   -1.6328    6.7521 S   0  0  0  0  0  0  0  0  0  0  0  0
    1.4076   -0.6668    7.8185 C   0  0  0  0  0  0  0  0  0  0  0  0
    1.8303   -0.7335    9.2744 C   0  0  0  0  0  0  0  0  0  0  0  0
    4.7556    0.4250    5.5016 Se  0  0  0  0  0  2  0  0  0  0  0  0
    7.4105    1.8665    4.5478 C   0  0  0  0  0  0  0  0  0  0  0  0
    6.3038    1.4876    3.2998 S   0  0  0  0  0  0  0  0  0  0  0  0
    8.8155    1.5783    7.9350 C   0  0  0  0  0  0  0  0  0  0  0  0
    9.8815    2.1904    8.5533 C   0  0  0  0  0  0  0  0  0  0  0  0
   10.4986    3.1635    7.3130 S   0  0  0  0  0  0  0  0  0  0  0  0
    6.9744   -4.9040    5.8470 H   0  0  0  0  0  0  0  0  0  0  0  0
    5.2797   -6.6819    6.4251 H   0  0  0  0  0  0  0  0  0  0  0  0
    0.5669   -8.3195    6.5530 H   0  0  0  0  0  0  0  0  0  0  0  0
    1.2953  -10.3765    7.8272 H   0  0  0  0  0  0  0  0  0  0  0  0
    3.3915  -11.2639    9.2284 H   0  0  0  0  0  0  0  0  0  0  0  0
    4.9573  -10.5221    8.8118 H   0  0  0  0  0  0  0  0  0  0  0  0
    3.5772  -12.9560    7.6308 H   0  0  0  0  0  0  0  0  0  0  0  0
    4.4482  -11.9038    6.4594 H   0  0  0  0  0  0  0  0  0  0  0  0
    5.3060  -12.5997    7.8716 H   0  0  0  0  0  0  0  0  0  0  0  0
    4.1222   -1.9096    3.6174 H   0  0  0  0  0  0  0  0  0  0  0  0
    3.4558    0.0384    2.1623 H   0  0  0  0  0  0  0  0  0  0  0  0
    1.4426    0.4245    0.1589 H   0  0  0  0  0  0  0  0  0  0  0  0
    0.8237    1.2740    1.6656 H   0  0  0  0  0  0  0  0  0  0  0  0
   -1.2047    0.8202    0.5843 H   0  0  0  0  0  0  0  0  0  0  0  0
   -0.6592   -0.8267   -0.0224 H   0  0  0  0  0  0  0  0  0  0  0  0
   -1.0207   -0.5175    1.7093 H   0  0  0  0  0  0  0  0  0  0  0  0
   -0.5031   -3.7573    3.4106 H   0  0  0  0  0  0  0  0  0  0  0  0
   -2.8735   -3.5342    4.2104 H   0  0  0  0  0  0  0  0  0  0  0  0
   -3.1247   -1.5950    3.6683 H   0  0  0  0  0  0  0  0  0  0  0  0
   -3.5667    0.6949    4.4077 H   0  0  0  0  0  0  0  0  0  0  0  0
   -6.3853    4.4135    3.2740 H   0  0  0  0  0  0  0  0  0  0  0  0
   -5.1114    3.3673    2.5591 H   0  0  0  0  0  0  0  0  0  0  0  0
   -7.6729    2.0658    2.0581 H   0  0  0  0  0  0  0  0  0  0  0  0
   -7.7441    3.7486    1.4589 H   0  0  0  0  0  0  0  0  0  0  0  0
   -6.4401    2.6335    0.8899 H   0  0  0  0  0  0  0  0  0  0  0  0
   -8.0930   -7.4626    0.6199 H   0  0  0  0  0  0  0  0  0  0  0  0
   -7.8668   -9.8114   -0.0971 H   0  0  0  0  0  0  0  0  0  0  0  0
   -6.5743  -12.6352    1.8248 H   0  0  0  0  0  0  0  0  0  0  0  0
   -5.3247  -13.7257    1.1534 H   0  0  0  0  0  0  0  0  0  0  0  0
   -4.4916  -13.2148    3.3466 H   0  0  0  0  0  0  0  0  0  0  0  0
   -5.1273  -11.5333    3.3204 H   0  0  0  0  0  0  0  0  0  0  0  0
   -3.6453  -11.9326    2.3793 H   0  0  0  0  0  0  0  0  0  0  0  0
   -7.9796   -5.6229   -0.3321 H   0  0  0  0  0  0  0  0  0  0  0  0
   -9.2405   -1.0328   -0.6442 H   0  0  0  0  0  0  0  0  0  0  0  0
   -8.7894    3.0670   -3.3709 H   0  0  0  0  0  0  0  0  0  0  0  0
   -9.6905    4.4772   -1.4696 H   0  0  0  0  0  0  0  0  0  0  0  0
  -10.2312    4.2382    1.1144 H   0  0  0  0  0  0  0  0  0  0  0  0
  -10.5245    2.5359    1.7317 H   0  0  0  0  0  0  0  0  0  0  0  0
  -12.5951    4.2578    1.3167 H   0  0  0  0  0  0  0  0  0  0  0  0
  -12.7050    2.4829    1.1906 H   0  0  0  0  0  0  0  0  0  0  0  0
  -12.5414    3.4309   -0.3143 H   0  0  0  0  0  0  0  0  0  0  0  0
   -8.7554   -4.4921   -5.0199 H   0  0  0  0  0  0  0  0  0  0  0  0
   -7.8870   -6.0965   -6.7848 H   0  0  0  0  0  0  0  0  0  0  0  0
   -6.7324   -6.1423   -9.1537 H   0  0  0  0  0  0  0  0  0  0  0  0
   -6.0377   -4.5448   -9.7755 H   0  0  0  0  0  0  0  0  0  0  0  0
   -5.0145   -6.1962   -7.4325 H   0  0  0  0  0  0  0  0  0  0  0  0
   -4.2840   -6.2276   -9.0604 H   0  0  0  0  0  0  0  0  0  0  0  0
   -4.2821   -4.7006   -8.0173 H   0  0  0  0  0  0  0  0  0  0  0  0
   -6.8439   -0.5343   -7.3062 H   0  0  0  0  0  0  0  0  0  0  0  0
   -5.4683    3.9453   -6.2717 H   0  0  0  0  0  0  0  0  0  0  0  0
   -1.1248    6.3255   -5.6081 H   0  0  0  0  0  0  0  0  0  0  0  0
   -2.2332    8.3487   -4.6090 H   0  0  0  0  0  0  0  0  0  0  0  0
   -4.4816    9.1498   -3.5464 H   0  0  0  0  0  0  0  0  0  0  0  0
   -5.9749    8.1503   -3.9856 H   0  0  0  0  0  0  0  0  0  0  0  0
   -4.3825    9.8242   -6.0219 H   0  0  0  0  0  0  0  0  0  0  0  0
   -5.9721    8.9908   -6.1911 H   0  0  0  0  0  0  0  0  0  0  0  0
   -5.8555   10.4288   -5.1249 H   0  0  0  0  0  0  0  0  0  0  0  0
   -2.9476   -0.6122   -8.7027 H   0  0  0  0  0  0  0  0  0  0  0  0
   -1.7258   -2.1372  -10.2850 H   0  0  0  0  0  0  0  0  0  0  0  0
    0.6531   -2.6839  -11.1788 H   0  0  0  0  0  0  0  0  0  0  0  0
    1.9797   -1.4759  -10.7808 H   0  0  0  0  0  0  0  0  0  0  0  0
    0.4406    0.1419  -12.3183 H   0  0  0  0  0  0  0  0  0  0  0  0
   -0.1371   -1.4054  -12.9855 H   0  0  0  0  0  0  0  0  0  0  0  0
    1.6198   -1.0203  -13.1604 H   0  0  0  0  0  0  0  0  0  0  0  0
    1.1185    1.5321   -7.3000 H   0  0  0  0  0  0  0  0  0  0  0  0
    3.5096    4.8714   -4.9937 H   0  0  0  0  0  0  0  0  0  0  0  0
    5.5114    5.5674   -5.1481 H   0  0  0  0  0  0  0  0  0  0  0  0
    6.4002    7.8851   -5.0978 H   0  0  0  0  0  0  0  0  0  0  0  0
    9.4750    9.2318   -3.5440 H   0  0  0  0  0  0  0  0  0  0  0  0
    9.4539   10.5297   -2.3285 H   0  0  0  0  0  0  0  0  0  0  0  0
   10.5999    8.9998   -1.0362 H   0  0  0  0  0  0  0  0  0  0  0  0
    8.9511    8.6197   -0.5420 H   0  0  0  0  0  0  0  0  0  0  0  0
    9.8289    7.5853   -1.7970 H   0  0  0  0  0  0  0  0  0  0  0  0
    2.1116   -0.2213   -2.9746 H   0  0  0  0  0  0  0  0  0  0  0  0
    1.9036   -2.6119   -2.3998 H   0  0  0  0  0  0  0  0  0  0  0  0
    5.6592   -4.9421   -1.6974 H   0  0  0  0  0  0  0  0  0  0  0  0
    4.1380   -5.3021   -2.6178 H   0  0  0  0  0  0  0  0  0  0  0  0
    3.6823   -7.1953   -1.4638 H   0  0  0  0  0  0  0  0  0  0  0  0
    4.7221   -6.7603   -0.0381 H   0  0  0  0  0  0  0  0  0  0  0  0
    5.4561   -7.3588   -1.6264 H   0  0  0  0  0  0  0  0  0  0  0  0
    5.4852    0.7393    0.4704 H   0  0  0  0  0  0  0  0  0  0  0  0
    8.5798    3.8250    2.0639 H   0  0  0  0  0  0  0  0  0  0  0  0
   11.8601    4.0616    5.6619 H   0  0  0  0  0  0  0  0  0  0  0  0
   13.0845    6.0321    4.8064 H   0  0  0  0  0  0  0  0  0  0  0  0
   12.0970   10.2861    2.5971 H   0  0  0  0  0  0  0  0  0  0  0  0
   11.8933    9.5858    4.2305 H   0  0  0  0  0  0  0  0  0  0  0  0
    9.6592    8.8402    3.7637 H   0  0  0  0  0  0  0  0  0  0  0  0
    9.7173   10.5674    3.1730 H   0  0  0  0  0  0  0  0  0  0  0  0
    9.8144    9.1575    2.0236 H   0  0  0  0  0  0  0  0  0  0  0  0
    7.3323   -0.8416    7.7779 H   0  0  0  0  0  0  0  0  0  0  0  0
    5.2144   -2.0167    8.2002 H   0  0  0  0  0  0  0  0  0  0  0  0
    0.3613   -0.9976    7.7513 H   0  0  0  0  0  0  0  0  0  0  0  0
    1.4399    0.3962    7.5115 H   0  0  0  0  0  0  0  0  0  0  0  0
    2.6188   -1.5147    9.4363 H   0  0  0  0  0  0  0  0  0  0  0  0
    0.9766   -0.9864    9.9382 H   0  0  0  0  0  0  0  0  0  0  0  0
    2.3064    0.2377    9.5965 H   0  0  0  0  0  0  0  0  0  0  0  0
    8.2100    0.8937    8.5747 H   0  0  0  0  0  0  0  0  0  0  0  0
   10.2085    2.0432    9.5996 H   0  0  0  0  0  0  0  0  0  0  0  0
  1  2  2  0
  2  3  1  0
  3  4  2  0
  4  5  1  0
  5  6  2  0
  6  7  1  0
  7  8  2  0
  8  9  1  0
  9 10  1  0
  8 11  1  0
  4 12  1  0
 12 13  2  0
 13 14  1  0
 14 15  1  0
 15 16  2  0
 16 17  1  0
 17 18  2  0
 18 19  1  0
 19 20  1  0
 18 21  1  0
 14 22  2  0
 22 23  1  0
 13 24  1  0
 24 25  2  0
 25 26  1  0
 25 27  1  0
 27 28  2  0
 28 29  1  0
 29 30  2  0
 30 31  1  0
 31 32  2  0
 32 33  1  0
 33 34  2  0
 34 35  1  0
 35 36  1  0
 36 37  1  0
 34 38  1  0
 30 39  1  0
 39 40  2  0
 40 41  1  0
 41 42  1  0
 42 43  2  0
 43 44  1  0
 44 45  2  0
 45 46  1  0
 46 47  1  0
 47 48  1  0
 45 49  1  0
 41 50  2  0
 50 51  1  0
 40 52  1  0
 52 53  2  0
 53 54  1  0
 53 55  1  0
 55 56  2  0
 56 57  1  0
 57 58  2  0
 58 59  1  0
 59 60  2  0
 60 61  1  0
 61 62  2  0
 62 63  1  0
 63 64  1  0
 62 65  1  0
 58 66  1  0
 66 67  2  0
 67 68  1  0
 68 69  1  0
 69 70  2  0
 70 71  1  0
 71 72  2  0
 72 73  1  0
 73 74  1  0
 72 75  1  0
 68 76  2  0
 76 77  1  0
 67 78  1  0
 78 79  2  0
 79 80  1  0
 79 81  1  0
 81 82  2  0
 82 83  1  0
 83 84  2  0
 84 85  1  0
 85 86  2  0
 86 87  1  0
 87 88  2  0
 88 89  1  0
 89 90  1  0
 88 91  1  0
 84 92  1  0
 92 93  2  0
 93 94  1  0
 94 95  1  0
 95 96  2  0
 96 97  1  0
 97 98  2  0
 98 99  1  0
 99100  1  0
 98101  1  0
 94102  2  0
102103  1  0
 93104  1  0
104105  2  0
105106  1  0
105107  1  0
107108  2  0
108109  1  0
109110  2  0
110111  1  0
111112  2  0
112113  1  0
113114  2  0
114115  1  0
115116  1  0
116117  1  0
114118  1  0
110119  1  0
119120  2  0
120121  1  0
121122  1  0
122123  2  0
123124  1  0
124125  2  0
125126  1  0
126127  1  0
127128  1  0
125129  1  0
121130  2  0
130131  1  0
120132  1  0
132133  2  0
133134  1  0
133135  1  0
135136  2  0
136137  1  0
137138  2  0
138139  1  0
139140  2  0
140141  1  0
141142  2  0
142143  1  0
143144  1  0
144145  1  0
142146  1  0
138147  1  0
147148  2  0
148149  1  0
149150  1  0
150151  2  0
151152  1  0
152153  2  0
153154  1  0
154155  1  0
155156  1  0
153157  1  0
149158  2  0
158159  1  0
148160  1  0
160161  2  0
161162  1  0
 23  1  1  0
 51 27  1  0
 77 55  1  0
103 81  1  0
131107  1  0
159135  1  0
 22  3  1  0
 50 29  1  0
 76 57  1  0
102 83  1  0
130109  1  0
158137  1  0
 11  5  1  0
 26 12  1  0
 38 31  1  0
 54 39  1  0
 65 59  1  0
 80 66  1  0
 91 85  1  0
106 92  1  0
118111  1  0
134119  1  0
146139  1  0
162147  1  0
 21 15  1  0
 49 42  1  0
 75 69  1  0
101 95  1  0
129122  1  0
157150  1  0
  1163  1  0
  2164  1  0
  6165  1  0
  7166  1  0
  9167  1  0
  9168  1  0
 10169  1  0
 10170  1  0
 10171  1  0
 16172  1  0
 17173  1  0
 19174  1  0
 19175  1  0
 20176  1  0
 20177  1  0
 20178  1  0
 24179  1  0
 28180  1  0
 32181  1  0
 33182  1  0
 36183  1  0
 36184  1  0
 37185  1  0
 37186  1  0
 37187  1  0
 43188  1  0
 44189  1  0
 47190  1  0
 47191  1  0
 48192  1  0
 48193  1  0
 48194  1  0
 52195  1  0
 56196  1  0
 60197  1  0
 61198  1  0
 63199  1  0
 63200  1  0
 64201  1  0
 64202  1  0
 64203  1  0
 70204  1  0
 71205  1  0
 73206  1  0
 73207  1  0
 74208  1  0
 74209  1  0
 74210  1  0
 78211  1  0
 82212  1  0
 86213  1  0
 87214  1  0
 89215  1  0
 89216  1  0
 90217  1  0
 90218  1  0
 90219  1  0
 96220  1  0
 97221  1  0
 99222  1  0
 99223  1  0
100224  1  0
100225  1  0
100226  1  0
104227  1  0
108228  1  0
112229  1  0
113230  1  0
116231  1  0
116232  1  0
117233  1  0
117234  1  0
117235  1  0
123236  1  0
124237  1  0
127238  1  0
127239  1  0
128240  1  0
128241  1  0
128242  1  0
132243  1  0
136244  1  0
140245  1  0
141246  1  0
144247  1  0
144248  1  0
145249  1  0
145250  1  0
145251  1  0
151252  1  0
152253  1  0
155254  1  0
155255  1  0
156256  1  0
156257  1  0
156258  1  0
160259  1  0
161260  1  0
M  END

