
     RDKit          3D

284313  0  0  0  0  0  0  0  0999 V2000
   -4.4411   -6.5529   11.4249 C   0  0  0  0  0  0  0  0  0  0  0  0
   -4.3794   -5.5057   10.5453 C   0  0  0  0  0  0  0  0  0  0  0  0
   -4.6075   -5.7758    9.2473 C   0  0  0  0  0  0  0  0  0  0  0  0
   -4.5974   -4.8425    8.1780 C   0  0  0  0  0  0  0  0  0  0  0  0
   -4.2512   -3.4708    8.4525 C   0  0  0  0  0  0  0  0  0  0  0  0
   -2.9097   -3.2164    8.7657 C   0  0  0  0  0  0  0  0  0  0  0  0
   -2.4912   -1.9212    9.1059 C   0  0  0  0  0  0  0  0  0  0  0  0
   -3.3554   -0.8937    9.1432 C   0  0  0  0  0  0  0  0  0  0  0  0
   -2.9159    0.7690    9.6368 S   0  0  0  0  0  0  0  0  0  0  0  0
   -1.1871    0.8880   10.1201 C   0  0  0  0  0  0  0  0  0  0  0  0
   -0.9350    2.2961   10.6417 C   0  0  0  0  0  0  0  0  0  0  0  0
   -4.6935   -1.1251    8.8308 C   0  0  0  0  0  0  0  0  0  0  0  0
   -5.6026   -0.1170    8.8504 F   0  0  0  0  0  0  0  0  0  0  0  0
   -5.1034   -2.4231    8.4900 C   0  0  0  0  0  0  0  0  0  0  0  0
   -4.8696   -5.2895    6.8877 C   0  0  0  0  0  0  0  0  0  0  0  0
   -5.1480   -6.5859    6.5586 C   0  0  0  0  0  0  0  0  0  0  0  0
   -5.1518   -7.5151    7.6102 C   0  0  0  0  0  0  0  0  0  0  0  0
   -5.3367   -8.9319    7.4584 C   0  0  0  0  0  0  0  0  0  0  0  0
   -6.4906   -9.5792    7.1889 C   0  0  0  0  0  0  0  0  0  0  0  0
   -6.5261  -10.9655    7.1308 C   0  0  0  0  0  0  0  0  0  0  0  0
   -5.4051  -11.7577    7.3379 C   0  0  0  0  0  0  0  0  0  0  0  0
   -5.3886  -13.5159    7.3579 S   0  0  0  0  0  0  0  0  0  0  0  0
   -4.9867  -14.2747    5.8089 C   0  0  0  0  0  0  0  0  0  0  0  0
   -6.0760  -14.0722    4.7935 C   0  0  0  0  0  0  0  0  0  0  0  0
   -4.2088  -11.0738    7.6116 C   0  0  0  0  0  0  0  0  0  0  0  0
   -4.2047   -9.7148    7.6635 C   0  0  0  0  0  0  0  0  0  0  0  0
   -3.0582  -11.7880    7.8137 F   0  0  0  0  0  0  0  0  0  0  0  0
   -4.8813   -7.0621    8.9056 C   0  0  0  0  0  0  0  0  0  0  0  0
   -4.8171   -7.8751   10.4075 S   0  0  0  0  0  0  0  0  0  0  0  0
   -5.3797   -6.8602    5.2533 C   0  0  0  0  0  0  0  0  0  0  0  0
   -5.3164   -5.8223    4.3746 C   0  0  0  0  0  0  0  0  0  0  0  0
   -4.9341   -4.4884    5.3857 S   0  0  0  0  0  0  0  0  0  0  0  0
   -5.4475   -5.8456    2.9066 C   0  0  0  0  0  0  0  0  0  0  0  0
   -5.6103   -6.8857    2.0534 C   0  0  0  0  0  0  0  0  0  0  0  0
   -5.5595   -6.6134    0.7124 C   0  0  0  0  0  0  0  0  0  0  0  0
   -5.5349   -7.5380   -0.3610 C   0  0  0  0  0  0  0  0  0  0  0  0
   -5.9225   -8.9258   -0.2026 C   0  0  0  0  0  0  0  0  0  0  0  0
   -5.8089  -10.0455   -0.9324 C   0  0  0  0  0  0  0  0  0  0  0  0
   -6.3748  -11.2041   -0.5748 C   0  0  0  0  0  0  0  0  0  0  0  0
   -7.0960  -11.3719    0.5209 C   0  0  0  0  0  0  0  0  0  0  0  0
   -7.9362  -12.6859    1.3573 S   0  0  0  0  0  0  0  0  0  0  0  0
   -8.9189  -11.9874    2.7465 C   0  0  0  0  0  0  0  0  0  0  0  0
   -7.9813  -11.2985    3.6873 C   0  0  0  0  0  0  0  0  0  0  0  0
   -7.0002   -9.5373    1.2584 Se  0  0  0  0  0  2  0  0  0  0  0  0
   -5.2924   -7.0734   -1.6382 C   0  0  0  0  0  0  0  0  0  0  0  0
   -5.0848   -5.7776   -1.9922 C   0  0  0  0  0  0  0  0  0  0  0  0
   -5.1226   -4.8419   -0.9401 C   0  0  0  0  0  0  0  0  0  0  0  0
   -5.0118   -3.4138   -1.1064 C   0  0  0  0  0  0  0  0  0  0  0  0
   -5.1181   -2.4956   -2.0455 C   0  0  0  0  0  0  0  0  0  0  0  0
   -4.8079   -1.2028   -1.8925 C   0  0  0  0  0  0  0  0  0  0  0  0
   -4.3535   -0.6996   -0.7507 C   0  0  0  0  0  0  0  0  0  0  0  0
   -3.8528    0.8911   -0.1518 S   0  0  0  0  0  0  0  0  0  0  0  0
   -5.2421    1.7378    0.6931 C   0  0  0  0  0  0  0  0  0  0  0  0
   -6.3462    2.0382   -0.2834 C   0  0  0  0  0  0  0  0  0  0  0  0
   -4.3379   -2.3135    0.3755 Se  0  0  0  0  0  2  0  0  0  0  0  0
   -5.3535   -5.3176    0.3618 C   0  0  0  0  0  0  0  0  0  0  0  0
   -5.2426   -4.5157    1.8894 S   0  0  0  0  0  0  0  0  0  0  0  0
   -4.6342   -5.5206   -3.2334 C   0  0  0  0  0  0  0  0  0  0  0  0
   -4.4038   -6.6306   -4.0488 C   0  0  0  0  0  0  0  0  0  0  0  0
   -4.8348   -7.9130   -3.1112 S   0  0  0  0  0  0  0  0  0  0  0  0
   -3.5705   -6.4948   -5.2998 C   0  0  0  0  0  0  0  0  0  0  0  0
   -3.4434   -5.5931   -6.2495 C   0  0  0  0  0  0  0  0  0  0  0  0
   -2.2705   -5.5688   -7.0007 C   0  0  0  0  0  0  0  0  0  0  0  0
   -1.8007   -4.5488   -7.8066 C   0  0  0  0  0  0  0  0  0  0  0  0
   -2.6343   -3.5765   -8.5088 C   0  0  0  0  0  0  0  0  0  0  0  0
   -3.9439   -3.4482   -8.7892 C   0  0  0  0  0  0  0  0  0  0  0  0
   -4.4411   -2.4187   -9.4791 C   0  0  0  0  0  0  0  0  0  0  0  0
   -3.7274   -1.4191   -9.9640 C   0  0  0  0  0  0  0  0  0  0  0  0
   -3.8988    0.0563  -10.9077 S   0  0  0  0  0  0  0  0  0  0  0  0
   -3.6373   -0.2013  -12.6801 C   0  0  0  0  0  0  0  0  0  0  0  0
   -3.6619    1.1724  -13.3515 C   0  0  0  0  0  0  0  0  0  0  0  0
   -1.9223   -2.0203   -9.3233 Se  0  0  0  0  0  2  0  0  0  0  0  0
   -0.4307   -4.5253   -8.1807 C   0  0  0  0  0  0  0  0  0  0  0  0
    0.4971   -5.4424   -7.8312 C   0  0  0  0  0  0  0  0  0  0  0  0
    0.0118   -6.5022   -7.0568 C   0  0  0  0  0  0  0  0  0  0  0  0
    0.7650   -7.6596   -6.7442 C   0  0  0  0  0  0  0  0  0  0  0  0
    0.6789   -8.7316   -5.9822 C   0  0  0  0  0  0  0  0  0  0  0  0
    1.5246   -9.7614   -5.9799 C   0  0  0  0  0  0  0  0  0  0  0  0
    2.5988   -9.8178   -6.7794 C   0  0  0  0  0  0  0  0  0  0  0  0
    3.8669  -11.0038   -7.0401 S   0  0  0  0  0  0  0  0  0  0  0  0
    5.1091  -10.4449   -8.1886 C   0  0  0  0  0  0  0  0  0  0  0  0
    4.6619  -10.2450   -9.5990 C   0  0  0  0  0  0  0  0  0  0  0  0
    2.4058   -8.1153   -7.7220 Se  0  0  0  0  0  2  0  0  0  0  0  0
   -1.3546   -6.5120   -6.6700 C   0  0  0  0  0  0  0  0  0  0  0  0
   -2.0780   -7.3952   -5.4082 S   0  0  0  0  0  0  0  0  0  0  0  0
    1.8177   -5.0755   -8.0049 C   0  0  0  0  0  0  0  0  0  0  0  0
    2.0840   -3.8666   -8.4848 C   0  0  0  0  0  0  0  0  0  0  0  0
    0.4930   -3.2003   -8.7494 S   0  0  0  0  0  0  0  0  0  0  0  0
    3.2729   -2.9356   -8.2819 C   0  0  0  0  0  0  0  0  0  0  0  0
    3.7790   -2.8144   -6.9589 C   0  0  0  0  0  0  0  0  0  0  0  0
    4.5007   -1.7228   -6.6801 C   0  0  0  0  0  0  0  0  0  0  0  0
    4.8738   -1.2432   -5.4124 C   0  0  0  0  0  0  0  0  0  0  0  0
    4.6484   -2.0135   -4.1899 C   0  0  0  0  0  0  0  0  0  0  0  0
    4.8287   -1.6931   -2.8977 C   0  0  0  0  0  0  0  0  0  0  0  0
    4.5237   -2.4966   -1.8834 C   0  0  0  0  0  0  0  0  0  0  0  0
    4.0069   -3.7107   -2.0417 C   0  0  0  0  0  0  0  0  0  0  0  0
    3.4571   -4.9936   -1.0064 S   0  0  0  0  0  0  0  0  0  0  0  0
    2.9032   -6.4834   -1.7996 C   0  0  0  0  0  0  0  0  0  0  0  0
    1.6216   -6.2578   -2.6095 C   0  0  0  0  0  0  0  0  0  0  0  0
    3.9394   -3.7209   -4.0452 Se  0  0  0  0  0  2  0  0  0  0  0  0
    5.3820    0.0383   -5.2887 C   0  0  0  0  0  0  0  0  0  0  0  0
    5.5680    0.9282   -6.3144 C   0  0  0  0  0  0  0  0  0  0  0  0
    5.2178    0.4612   -7.5974 C   0  0  0  0  0  0  0  0  0  0  0  0
    5.3533    1.1839   -8.8206 C   0  0  0  0  0  0  0  0  0  0  0  0
    5.5216    2.3587   -9.3969 C   0  0  0  0  0  0  0  0  0  0  0  0
    5.7720    2.5609  -10.6854 C   0  0  0  0  0  0  0  0  0  0  0  0
    5.8875    1.5903  -11.5934 C   0  0  0  0  0  0  0  0  0  0  0  0
    6.2566    1.4762  -13.3348 S   0  0  0  0  0  0  0  0  0  0  0  0
    8.0843    1.1075  -13.3828 C   0  0  0  0  0  0  0  0  0  0  0  0
    8.2830   -0.2578  -12.7626 C   0  0  0  0  0  0  0  0  0  0  0  0
    5.6009    0.0390  -10.4950 Se  0  0  0  0  0  2  0  0  0  0  0  0
    4.7006   -0.8349   -7.6953 C   0  0  0  0  0  0  0  0  0  0  0  0
    3.8460   -1.5878   -9.0239 S   0  0  0  0  0  0  0  0  0  0  0  0
    5.9164    2.1928   -5.9573 C   0  0  0  0  0  0  0  0  0  0  0  0
    6.0517    2.5076   -4.6890 C   0  0  0  0  0  0  0  0  0  0  0  0
    5.7043    0.9658   -3.9014 S   0  0  0  0  0  0  0  0  0  0  0  0
    5.9980    3.7339   -3.8115 C   0  0  0  0  0  0  0  0  0  0  0  0
    4.8841    4.5565   -3.7866 C   0  0  0  0  0  0  0  0  0  0  0  0
    4.7116    5.3442   -2.7185 C   0  0  0  0  0  0  0  0  0  0  0  0
    3.5995    6.1043   -2.3370 C   0  0  0  0  0  0  0  0  0  0  0  0
    2.3423    6.1604   -3.0830 C   0  0  0  0  0  0  0  0  0  0  0  0
    1.3405    5.2290   -2.6832 C   0  0  0  0  0  0  0  0  0  0  0  0
    0.1122    5.2513   -3.2648 C   0  0  0  0  0  0  0  0  0  0  0  0
   -0.2330    6.1581   -4.2450 C   0  0  0  0  0  0  0  0  0  0  0  0
   -1.9067    6.1324   -4.8676 S   0  0  0  0  0  0  0  0  0  0  0  0
   -2.9576    7.1785   -3.7867 C   0  0  0  0  0  0  0  0  0  0  0  0
   -2.9968    6.5799   -2.3653 C   0  0  0  0  0  0  0  0  0  0  0  0
    0.7174    7.0453   -4.6233 C   0  0  0  0  0  0  0  0  0  0  0  0
    0.4178    7.9437   -5.5772 F   0  0  0  0  0  0  0  0  0  0  0  0
    2.0179    7.0530   -4.0444 C   0  0  0  0  0  0  0  0  0  0  0  0
    3.5259    6.7050   -1.0734 C   0  0  0  0  0  0  0  0  0  0  0  0
    4.4780    6.6231   -0.1131 C   0  0  0  0  0  0  0  0  0  0  0  0
    5.6118    5.8607   -0.4997 C   0  0  0  0  0  0  0  0  0  0  0  0
    6.7125    5.7382    0.4489 C   0  0  0  0  0  0  0  0  0  0  0  0
    7.5107    6.8912    0.5420 C   0  0  0  0  0  0  0  0  0  0  0  0
    8.5270    6.9197    1.4685 C   0  0  0  0  0  0  0  0  0  0  0  0
    8.7716    5.8316    2.3075 C   0  0  0  0  0  0  0  0  0  0  0  0
   10.0737    5.9348    3.5166 S   0  0  0  0  0  0  0  0  0  0  0  0
   11.6358    5.3416    2.8602 C   0  0  0  0  0  0  0  0  0  0  0  0
   12.1493    6.2208    1.7182 C   0  0  0  0  0  0  0  0  0  0  0  0
    7.9531    4.7048    2.1774 C   0  0  0  0  0  0  0  0  0  0  0  0
    6.9207    4.6806    1.2318 C   0  0  0  0  0  0  0  0  0  0  0  0
    8.1959    3.6529    2.9778 F   0  0  0  0  0  0  0  0  0  0  0  0
    5.6753    5.2814   -1.7158 C   0  0  0  0  0  0  0  0  0  0  0  0
    6.7671    4.0991   -2.3761 S   0  0  0  0  0  0  0  0  0  0  0  0
    4.2047    7.1435    1.0877 C   0  0  0  0  0  0  0  0  0  0  0  0
    2.9752    7.7291    1.2740 C   0  0  0  0  0  0  0  0  0  0  0  0
    2.2480    7.5306   -0.2790 S   0  0  0  0  0  0  0  0  0  0  0  0
    2.3438    8.1104    2.5308 C   0  0  0  0  0  0  0  0  0  0  0  0
    1.6562    9.1418    2.9971 C   0  0  0  0  0  0  0  0  0  0  0  0
    1.2744    9.1160    4.3165 C   0  0  0  0  0  0  0  0  0  0  0  0
    0.5751   10.0912    5.0176 C   0  0  0  0  0  0  0  0  0  0  0  0
    0.0587   11.3222    4.4731 C   0  0  0  0  0  0  0  0  0  0  0  0
    0.7238   12.4988    4.6012 C   0  0  0  0  0  0  0  0  0  0  0  0
    0.2702   13.7335    4.1556 C   0  0  0  0  0  0  0  0  0  0  0  0
   -0.9763   13.7814    3.5242 C   0  0  0  0  0  0  0  0  0  0  0  0
   -1.7185   15.3061    2.9671 S   0  0  0  0  0  0  0  0  0  0  0  0
   -0.7326   16.7600    3.3483 C   0  0  0  0  0  0  0  0  0  0  0  0
    0.5048   16.7888    2.4821 C   0  0  0  0  0  0  0  0  0  0  0  0
   -1.6559   12.5811    3.3946 C   0  0  0  0  0  0  0  0  0  0  0  0
   -2.8665   12.6477    2.7718 F   0  0  0  0  0  0  0  0  0  0  0  0
   -1.1999   11.3658    3.8362 C   0  0  0  0  0  0  0  0  0  0  0  0
    0.2936    9.8960    6.3820 C   0  0  0  0  0  0  0  0  0  0  0  0
    0.6518    8.7957    7.0984 C   0  0  0  0  0  0  0  0  0  0  0  0
    1.3453    7.8171    6.3952 C   0  0  0  0  0  0  0  0  0  0  0  0
    1.6639    6.4951    6.8885 C   0  0  0  0  0  0  0  0  0  0  0  0
    2.7712    6.0895    7.5530 C   0  0  0  0  0  0  0  0  0  0  0  0
    2.9632    4.7488    7.9010 C   0  0  0  0  0  0  0  0  0  0  0  0
    2.0600    3.7675    7.6009 C   0  0  0  0  0  0  0  0  0  0  0  0
    2.2751    2.0353    7.9318 S   0  0  0  0  0  0  0  0  0  0  0  0
    3.8568    1.6425    8.7044 C   0  0  0  0  0  0  0  0  0  0  0  0
    3.9851    0.1175    8.6810 C   0  0  0  0  0  0  0  0  0  0  0  0
    0.9042    4.1779    6.9134 C   0  0  0  0  0  0  0  0  0  0  0  0
    0.7287    5.4814    6.5815 C   0  0  0  0  0  0  0  0  0  0  0  0
    0.0042    3.2016    6.6219 F   0  0  0  0  0  0  0  0  0  0  0  0
    1.6317    8.0248    5.0380 C   0  0  0  0  0  0  0  0  0  0  0  0
    2.4829    7.0638    3.9167 S   0  0  0  0  0  0  0  0  0  0  0  0
    0.3305    8.7633    8.4103 C   0  0  0  0  0  0  0  0  0  0  0  0
   -0.3370    9.8518    8.9175 C   0  0  0  0  0  0  0  0  0  0  0  0
   -0.4865   10.8682    7.5496 S   0  0  0  0  0  0  0  0  0  0  0  0
   -4.2834   -6.5170   12.5171 H   0  0  0  0  0  0  0  0  0  0  0  0
   -4.1343   -4.4914   10.9647 H   0  0  0  0  0  0  0  0  0  0  0  0
   -2.1914   -4.0132    8.7503 H   0  0  0  0  0  0  0  0  0  0  0  0
   -1.4385   -1.7557    9.3476 H   0  0  0  0  0  0  0  0  0  0  0  0
   -0.5187    0.7935    9.2207 H   0  0  0  0  0  0  0  0  0  0  0  0
   -0.8899    0.1943   10.9246 H   0  0  0  0  0  0  0  0  0  0  0  0
   -1.5453    3.0678   10.1454 H   0  0  0  0  0  0  0  0  0  0  0  0
   -1.1486    2.3692   11.7443 H   0  0  0  0  0  0  0  0  0  0  0  0
    0.1361    2.5820   10.5343 H   0  0  0  0  0  0  0  0  0  0  0  0
   -6.1525   -2.5911    8.2508 H   0  0  0  0  0  0  0  0  0  0  0  0
   -7.3758   -9.0048    7.0238 H   0  0  0  0  0  0  0  0  0  0  0  0
   -7.4611  -11.4659    6.9210 H   0  0  0  0  0  0  0  0  0  0  0  0
   -4.7875  -15.3710    5.9711 H   0  0  0  0  0  0  0  0  0  0  0  0
   -4.0312  -13.8729    5.3484 H   0  0  0  0  0  0  0  0  0  0  0  0
   -5.8798  -13.1814    4.1827 H   0  0  0  0  0  0  0  0  0  0  0  0
   -7.0351  -13.9423    5.3250 H   0  0  0  0  0  0  0  0  0  0  0  0
   -6.1018  -14.9849    4.1501 H   0  0  0  0  0  0  0  0  0  0  0  0
   -3.2577   -9.2304    7.8850 H   0  0  0  0  0  0  0  0  0  0  0  0
   -5.6184   -7.8721    4.8451 H   0  0  0  0  0  0  0  0  0  0  0  0
   -5.7570   -7.8979    2.4936 H   0  0  0  0  0  0  0  0  0  0  0  0
   -5.1917   -9.9776   -1.8898 H   0  0  0  0  0  0  0  0  0  0  0  0
   -6.2467  -12.1231   -1.2551 H   0  0  0  0  0  0  0  0  0  0  0  0
   -9.6976  -11.3307    2.3049 H   0  0  0  0  0  0  0  0  0  0  0  0
   -9.3848  -12.8549    3.2597 H   0  0  0  0  0  0  0  0  0  0  0  0
   -8.3040  -10.2523    3.8865 H   0  0  0  0  0  0  0  0  0  0  0  0
   -6.9529  -11.2741    3.2525 H   0  0  0  0  0  0  0  0  0  0  0  0
   -7.9800  -11.8520    4.6304 H   0  0  0  0  0  0  0  0  0  0  0  0
   -5.5438   -2.8090   -3.0642 H   0  0  0  0  0  0  0  0  0  0  0  0
   -4.9179   -0.4586   -2.7637 H   0  0  0  0  0  0  0  0  0  0  0  0
   -4.7935    2.6538    1.1478 H   0  0  0  0  0  0  0  0  0  0  0  0
   -5.6227    1.0638    1.5226 H   0  0  0  0  0  0  0  0  0  0  0  0
   -6.5023    1.1332   -0.9218 H   0  0  0  0  0  0  0  0  0  0  0  0
   -7.3258    2.2267    0.2331 H   0  0  0  0  0  0  0  0  0  0  0  0
   -6.1545    2.9329   -0.8811 H   0  0  0  0  0  0  0  0  0  0  0  0
   -4.4116   -4.5318   -3.6719 H   0  0  0  0  0  0  0  0  0  0  0  0
   -4.2419   -4.8474   -6.4301 H   0  0  0  0  0  0  0  0  0  0  0  0
   -4.6390   -4.2853   -8.4550 H   0  0  0  0  0  0  0  0  0  0  0  0
   -5.5769   -2.3707   -9.6887 H   0  0  0  0  0  0  0  0  0  0  0  0
   -4.5035   -0.7646  -13.0985 H   0  0  0  0  0  0  0  0  0  0  0  0
   -2.6729   -0.7005  -12.8661 H   0  0  0  0  0  0  0  0  0  0  0  0
   -2.5848    1.4732  -13.4813 H   0  0  0  0  0  0  0  0  0  0  0  0
   -4.2046    1.9265  -12.7289 H   0  0  0  0  0  0  0  0  0  0  0  0
   -4.0822    1.0536  -14.3601 H   0  0  0  0  0  0  0  0  0  0  0  0
   -0.2022   -8.7931   -5.2404 H   0  0  0  0  0  0  0  0  0  0  0  0
    1.3818  -10.6717   -5.2897 H   0  0  0  0  0  0  0  0  0  0  0  0
    5.9097  -11.2594   -8.2129 H   0  0  0  0  0  0  0  0  0  0  0  0
    5.6556   -9.5387   -7.7906 H   0  0  0  0  0  0  0  0  0  0  0  0
    5.3972   -9.5421  -10.0596 H   0  0  0  0  0  0  0  0  0  0  0  0
    3.6354   -9.8978   -9.6568 H   0  0  0  0  0  0  0  0  0  0  0  0
    4.8146  -11.1877  -10.1910 H   0  0  0  0  0  0  0  0  0  0  0  0
    2.6429   -5.7589   -7.7370 H   0  0  0  0  0  0  0  0  0  0  0  0
    3.5459   -3.6328   -6.2815 H   0  0  0  0  0  0  0  0  0  0  0  0
    5.2745   -0.6739   -2.6574 H   0  0  0  0  0  0  0  0  0  0  0  0
    4.6917   -2.1589   -0.7961 H   0  0  0  0  0  0  0  0  0  0  0  0
    3.6811   -6.9193   -2.4603 H   0  0  0  0  0  0  0  0  0  0  0  0
    2.6319   -7.2075   -0.9828 H   0  0  0  0  0  0  0  0  0  0  0  0
    1.7729   -6.6432   -3.6151 H   0  0  0  0  0  0  0  0  0  0  0  0
    0.7568   -6.7523   -2.0683 H   0  0  0  0  0  0  0  0  0  0  0  0
    1.3258   -5.1934   -2.6483 H   0  0  0  0  0  0  0  0  0  0  0  0
    5.3950    3.2734   -8.6965 H   0  0  0  0  0  0  0  0  0  0  0  0
    5.9058    3.6307  -11.0877 H   0  0  0  0  0  0  0  0  0  0  0  0
    8.4524    1.0850  -14.3988 H   0  0  0  0  0  0  0  0  0  0  0  0
    8.5807    1.8339  -12.7050 H   0  0  0  0  0  0  0  0  0  0  0  0
    8.7183   -0.2457  -11.7483 H   0  0  0  0  0  0  0  0  0  0  0  0
    7.2726   -0.7742  -12.7703 H   0  0  0  0  0  0  0  0  0  0  0  0
    8.9327   -0.9045  -13.4066 H   0  0  0  0  0  0  0  0  0  0  0  0
    6.1180    2.9853   -6.7317 H   0  0  0  0  0  0  0  0  0  0  0  0
    4.1755    4.5458   -4.6411 H   0  0  0  0  0  0  0  0  0  0  0  0
    1.6136    4.5398   -1.9127 H   0  0  0  0  0  0  0  0  0  0  0  0
   -0.6652    4.5265   -2.9490 H   0  0  0  0  0  0  0  0  0  0  0  0
   -2.6891    8.2216   -3.8042 H   0  0  0  0  0  0  0  0  0  0  0  0
   -3.9942    7.0564   -4.1597 H   0  0  0  0  0  0  0  0  0  0  0  0
   -3.4720    7.3016   -1.6663 H   0  0  0  0  0  0  0  0  0  0  0  0
   -1.9887    6.2664   -2.0262 H   0  0  0  0  0  0  0  0  0  0  0  0
   -3.6418    5.6551   -2.3537 H   0  0  0  0  0  0  0  0  0  0  0  0
    2.7208    7.7925   -4.4020 H   0  0  0  0  0  0  0  0  0  0  0  0
    7.3607    7.7604   -0.0953 H   0  0  0  0  0  0  0  0  0  0  0  0
    9.1542    7.7974    1.5597 H   0  0  0  0  0  0  0  0  0  0  0  0
   12.4059    5.4865    3.6879 H   0  0  0  0  0  0  0  0  0  0  0  0
   11.6539    4.2730    2.6300 H   0  0  0  0  0  0  0  0  0  0  0  0
   12.7676    5.6308    1.0562 H   0  0  0  0  0  0  0  0  0  0  0  0
   11.3121    6.7372    1.1949 H   0  0  0  0  0  0  0  0  0  0  0  0
   12.7725    7.0615    2.1300 H   0  0  0  0  0  0  0  0  0  0  0  0
    6.3230    3.7893    1.1758 H   0  0  0  0  0  0  0  0  0  0  0  0
    4.8902    7.1320    1.9519 H   0  0  0  0  0  0  0  0  0  0  0  0
    1.3897   10.0041    2.3327 H   0  0  0  0  0  0  0  0  0  0  0  0
    1.7190   12.5574    5.0893 H   0  0  0  0  0  0  0  0  0  0  0  0
    0.8461   14.6098    4.2910 H   0  0  0  0  0  0  0  0  0  0  0  0
   -0.3366   16.5907    4.4016 H   0  0  0  0  0  0  0  0  0  0  0  0
   -1.3131   17.7023    3.3079 H   0  0  0  0  0  0  0  0  0  0  0  0
    0.7470   17.8629    2.1940 H   0  0  0  0  0  0  0  0  0  0  0  0
    1.4182   16.4320    2.9663 H   0  0  0  0  0  0  0  0  0  0  0  0
    0.4200   16.2256    1.5353 H   0  0  0  0  0  0  0  0  0  0  0  0
   -1.7476   10.4327    3.7292 H   0  0  0  0  0  0  0  0  0  0  0  0
    3.5156    6.8482    7.8048 H   0  0  0  0  0  0  0  0  0  0  0  0
    3.8669    4.4749    8.4348 H   0  0  0  0  0  0  0  0  0  0  0  0
    3.8802    1.9718    9.7698 H   0  0  0  0  0  0  0  0  0  0  0  0
    4.7319    2.0330    8.1642 H   0  0  0  0  0  0  0  0  0  0  0  0
    3.4551   -0.2780    9.5370 H   0  0  0  0  0  0  0  0  0  0  0  0
    5.0406   -0.1921    8.5893 H   0  0  0  0  0  0  0  0  0  0  0  0
    3.4898   -0.2747    7.7561 H   0  0  0  0  0  0  0  0  0  0  0  0
   -0.1760    5.7975    6.0506 H   0  0  0  0  0  0  0  0  0  0  0  0
    0.5669    7.9233    9.1121 H   0  0  0  0  0  0  0  0  0  0  0  0
   -0.6678    9.9956    9.9626 H   0  0  0  0  0  0  0  0  0  0  0  0
  1  2  2  0
  2  3  1  0
  3  4  2  0
  4  5  1  0
  5  6  2  0
  6  7  1  0
  7  8  2  0
  8  9  1  0
  9 10  1  0
 10 11  1  0
  8 12  1  0
 12 13  1  0
 12 14  2  0
  4 15  1  0
 15 16  2  0
 16 17  1  0
 17 18  1  0
 18 19  2  0
 19 20  1  0
 20 21  2  0
 21 22  1  0
 22 23  1  0
 23 24  1  0
 21 25  1  0
 25 26  2  0
 25 27  1  0
 17 28  2  0
 28 29  1  0
 16 30  1  0
 30 31  2  0
 31 32  1  0
 31 33  1  0
 33 34  2  0
 34 35  1  0
 35 36  2  0
 36 37  1  0
 37 38  2  0
 38 39  1  0
 39 40  2  0
 40 41  1  0
 41 42  1  0
 42 43  1  0
 40 44  1  0
 36 45  1  0
 45 46  2  0
 46 47  1  0
 47 48  1  0
 48 49  2  0
 49 50  1  0
 50 51  2  0
 51 52  1  0
 52 53  1  0
 53 54  1  0
 51 55  1  0
 47 56  2  0
 56 57  1  0
 46 58  1  0
 58 59  2  0
 59 60  1  0
 59 61  1  0
 61 62  2  0
 62 63  1  0
 63 64  2  0
 64 65  1  0
 65 66  2  0
 66 67  1  0
 67 68  2  0
 68 69  1  0
 69 70  1  0
 70 71  1  0
 68 72  1  0
 64 73  1  0
 73 74  2  0
 74 75  1  0
 75 76  1  0
 76 77  2  0
 77 78  1  0
 78 79  2  0
 79 80  1  0
 80 81  1  0
 81 82  1  0
 79 83  1  0
 75 84  2  0
 84 85  1  0
 74 86  1  0
 86 87  2  0
 87 88  1  0
 87 89  1  0
 89 90  2  0
 90 91  1  0
 91 92  2  0
 92 93  1  0
 93 94  2  0
 94 95  1  0
 95 96  2  0
 96 97  1  0
 97 98  1  0
 98 99  1  0
 96100  1  0
 92101  1  0
101102  2  0
102103  1  0
103104  1  0
104105  2  0
105106  1  0
106107  2  0
107108  1  0
108109  1  0
109110  1  0
107111  1  0
103112  2  0
112113  1  0
102114  1  0
114115  2  0
115116  1  0
115117  1  0
117118  2  0
118119  1  0
119120  2  0
120121  1  0
121122  2  0
122123  1  0
123124  2  0
124125  1  0
125126  1  0
126127  1  0
124128  1  0
128129  1  0
128130  2  0
120131  1  0
131132  2  0
132133  1  0
133134  1  0
134135  2  0
135136  1  0
136137  2  0
137138  1  0
138139  1  0
139140  1  0
137141  1  0
141142  2  0
141143  1  0
133144  2  0
144145  1  0
132146  1  0
146147  2  0
147148  1  0
147149  1  0
149150  2  0
150151  1  0
151152  2  0
152153  1  0
153154  2  0
154155  1  0
155156  2  0
156157  1  0
157158  1  0
158159  1  0
156160  1  0
160161  1  0
160162  2  0
152163  1  0
163164  2  0
164165  1  0
165166  1  0
166167  2  0
167168  1  0
168169  2  0
169170  1  0
170171  1  0
171172  1  0
169173  1  0
173174  2  0
173175  1  0
165176  2  0
176177  1  0
164178  1  0
178179  2  0
179180  1  0
 29  1  1  0
 57 33  1  0
 85 61  1  0
113 89  1  0
145117  1  0
177149  1  0
 28  3  1  0
 56 35  1  0
 84 63  1  0
112 91  1  0
144119  1  0
176151  1  0
 14  5  1  0
 32 15  1  0
 44 37  1  0
 60 45  1  0
 72 65  1  0
 88 73  1  0
100 93  1  0
116101  1  0
130121  1  0
148131  1  0
162153  1  0
180163  1  0
 26 18  1  0
 55 48  1  0
 83 76  1  0
111104  1  0
142134  1  0
174166  1  0
  1181  1  0
  2182  1  0
  6183  1  0
  7184  1  0
 10185  1  0
 10186  1  0
 11187  1  0
 11188  1  0
 11189  1  0
 14190  1  0
 19191  1  0
 20192  1  0
 23193  1  0
 23194  1  0
 24195  1  0
 24196  1  0
 24197  1  0
 26198  1  0
 30199  1  0
 34200  1  0
 38201  1  0
 39202  1  0
 42203  1  0
 42204  1  0
 43205  1  0
 43206  1  0
 43207  1  0
 49208  1  0
 50209  1  0
 53210  1  0
 53211  1  0
 54212  1  0
 54213  1  0
 54214  1  0
 58215  1  0
 62216  1  0
 66217  1  0
 67218  1  0
 70219  1  0
 70220  1  0
 71221  1  0
 71222  1  0
 71223  1  0
 77224  1  0
 78225  1  0
 81226  1  0
 81227  1  0
 82228  1  0
 82229  1  0
 82230  1  0
 86231  1  0
 90232  1  0
 94233  1  0
 95234  1  0
 98235  1  0
 98236  1  0
 99237  1  0
 99238  1  0
 99239  1  0
105240  1  0
106241  1  0
109242  1  0
109243  1  0
110244  1  0
110245  1  0
110246  1  0
114247  1  0
118248  1  0
122249  1  0
123250  1  0
126251  1  0
126252  1  0
127253  1  0
127254  1  0
127255  1  0
130256  1  0
135257  1  0
136258  1  0
139259  1  0
139260  1  0
140261  1  0
140262  1  0
140263  1  0
142264  1  0
146265  1  0
150266  1  0
154267  1  0
155268  1  0
158269  1  0
158270  1  0
159271  1  0
159272  1  0
159273  1  0
162274  1  0
167275  1  0
168276  1  0
171277  1  0
171278  1  0
172279  1  0
172280  1  0
172281  1  0
174282  1  0
178283  1  0
179284  1  0
M  END

