
     RDKit          3D

186207  0  0  0  0  0  0  0  0999 V2000
    3.1001    5.4470    3.1516 C   0  0  0  0  0  0  0  0  0  0  0  0
    4.1799    4.7142    3.5515 C   0  0  0  0  0  0  0  0  0  0  0  0
    4.2114    3.3976    3.2409 C   0  0  0  0  0  0  0  0  0  0  0  0
    5.2025    2.4845    3.5596 C   0  0  0  0  0  0  0  0  0  0  0  0
    6.4620    2.7836    4.1538 C   0  0  0  0  0  0  0  0  0  0  0  0
    7.4294    2.1201    4.8096 C   0  0  0  0  0  0  0  0  0  0  0  0
    8.6019    2.6527    5.1153 C   0  0  0  0  0  0  0  0  0  0  0  0
    9.0117    3.8781    4.8396 C   0  0  0  0  0  0  0  0  0  0  0  0
   10.4336    4.8756    5.0543 S   0  0  0  0  0  0  0  0  0  0  0  0
   11.6395    4.5578    3.7304 C   0  0  0  0  0  0  0  0  0  0  0  0
   11.1599    4.9449    2.3680 C   0  0  0  0  0  0  0  0  0  0  0  0
    7.3688    4.5427    3.8992 Se  0  0  0  0  0  2  0  0  0  0  0  0
    5.0362    1.1538    3.1601 C   0  0  0  0  0  0  0  0  0  0  0  0
    3.9849    0.6282    2.4722 C   0  0  0  0  0  0  0  0  0  0  0  0
    3.0003    1.5522    2.1494 C   0  0  0  0  0  0  0  0  0  0  0  0
    1.8741    1.3427    1.2459 C   0  0  0  0  0  0  0  0  0  0  0  0
    1.5024    0.4447    0.3278 C   0  0  0  0  0  0  0  0  0  0  0  0
    0.3512    0.5410   -0.3515 C   0  0  0  0  0  0  0  0  0  0  0  0
   -0.5385    1.4949   -0.2168 C   0  0  0  0  0  0  0  0  0  0  0  0
   -2.0925    2.0113   -0.8642 S   0  0  0  0  0  0  0  0  0  0  0  0
   -2.5916    3.5615   -0.0636 C   0  0  0  0  0  0  0  0  0  0  0  0
   -2.8608    3.4225    1.4034 C   0  0  0  0  0  0  0  0  0  0  0  0
    0.4013    2.5591    1.2000 Se  0  0  0  0  0  2  0  0  0  0  0  0
    3.1528    2.8974    2.5487 C   0  0  0  0  0  0  0  0  0  0  0  0
    2.1565    4.2746    2.3535 S   0  0  0  0  0  0  0  0  0  0  0  0
    4.0628   -0.7022    2.1787 C   0  0  0  0  0  0  0  0  0  0  0  0
    5.1377   -1.4030    2.5619 C   0  0  0  0  0  0  0  0  0  0  0  0
    6.0826   -0.1619    3.3725 S   0  0  0  0  0  0  0  0  0  0  0  0
    5.6901   -2.7469    2.3785 C   0  0  0  0  0  0  0  0  0  0  0  0
    7.0988   -2.7488    2.1138 C   0  0  0  0  0  0  0  0  0  0  0  0
    7.7214   -3.9638    2.1103 C   0  0  0  0  0  0  0  0  0  0  0  0
    9.4389   -3.6314    1.7183 S   0  0  0  0  0  0  0  0  0  0  0  0
    9.1063   -1.9936    0.9439 C   0  0  0  0  0  0  0  0  0  0  0  0
    7.9441   -1.5936    1.8137 C   0  0  0  0  0  0  0  0  0  0  0  0
    7.0661   -5.1274    2.3471 C   0  0  0  0  0  0  0  0  0  0  0  0
    5.7032   -5.1789    2.6107 C   0  0  0  0  0  0  0  0  0  0  0  0
    5.2266   -6.5178    2.9828 C   0  0  0  0  0  0  0  0  0  0  0  0
    6.3695   -7.2979    3.6865 C   0  0  0  0  0  0  0  0  0  0  0  0
    7.6528   -6.8470    2.4349 S   0  0  0  0  0  0  0  0  0  0  0  0
    5.0451   -3.8976    2.6062 C   0  0  0  0  0  0  0  0  0  0  0  0
    3.5737   -3.8332    2.8960 C   0  0  0  0  0  0  0  0  0  0  0  0
    2.8088   -4.8303    2.6857 C   0  0  0  0  0  0  0  0  0  0  0  0
    1.4253   -5.2188    2.8184 C   0  0  0  0  0  0  0  0  0  0  0  0
    1.0444   -6.5298    2.3682 C   0  0  0  0  0  0  0  0  0  0  0  0
   -0.2664   -6.8640    2.4854 C   0  0  0  0  0  0  0  0  0  0  0  0
   -0.4762   -8.5260    1.8642 S   0  0  0  0  0  0  0  0  0  0  0  0
    1.1455   -8.5615    1.0017 C   0  0  0  0  0  0  0  0  0  0  0  0
    1.8846   -7.5698    1.8131 C   0  0  0  0  0  0  0  0  0  0  0  0
   -1.2090   -6.0340    3.0015 C   0  0  0  0  0  0  0  0  0  0  0  0
   -0.8764   -4.7746    3.4506 C   0  0  0  0  0  0  0  0  0  0  0  0
   -1.9799   -4.1066    4.1669 C   0  0  0  0  0  0  0  0  0  0  0  0
   -3.2562   -4.3243    3.3484 C   0  0  0  0  0  0  0  0  0  0  0  0
   -3.0066   -6.1699    3.2066 S   0  0  0  0  0  0  0  0  0  0  0  0
    0.4989   -4.3807    3.3362 C   0  0  0  0  0  0  0  0  0  0  0  0
    0.7989   -3.1052    3.9859 C   0  0  0  0  0  0  0  0  0  0  0  0
    0.1844   -2.0246    3.5673 C   0  0  0  0  0  0  0  0  0  0  0  0
   -0.7520   -2.1223    2.4266 C   0  0  0  0  0  0  0  0  0  0  0  0
   -1.8185   -1.3713    2.0656 C   0  0  0  0  0  0  0  0  0  0  0  0
   -2.3907   -1.5848    0.8557 C   0  0  0  0  0  0  0  0  0  0  0  0
   -3.4402   -0.8885    0.2903 C   0  0  0  0  0  0  0  0  0  0  0  0
   -4.3774   -0.0176    1.0041 C   0  0  0  0  0  0  0  0  0  0  0  0
   -4.6895    0.1804    2.2905 C   0  0  0  0  0  0  0  0  0  0  0  0
   -5.6098    1.0719    2.6738 C   0  0  0  0  0  0  0  0  0  0  0  0
   -6.3020    1.8399    1.8416 C   0  0  0  0  0  0  0  0  0  0  0  0
   -7.5957    3.0187    1.9349 S   0  0  0  0  0  0  0  0  0  0  0  0
   -7.0933    4.6712    2.3955 C   0  0  0  0  0  0  0  0  0  0  0  0
   -6.6558    4.6978    3.8582 C   0  0  0  0  0  0  0  0  0  0  0  0
   -5.5204    1.2120    0.1311 Se  0  0  0  0  0  2  0  0  0  0  0  0
   -3.8455   -1.1887   -1.0189 C   0  0  0  0  0  0  0  0  0  0  0  0
   -3.2824   -2.1491   -1.8159 C   0  0  0  0  0  0  0  0  0  0  0  0
   -2.2289   -2.8691   -1.2321 C   0  0  0  0  0  0  0  0  0  0  0  0
   -1.4272   -3.8480   -1.9113 C   0  0  0  0  0  0  0  0  0  0  0  0
   -0.5754   -4.8230   -1.5496 C   0  0  0  0  0  0  0  0  0  0  0  0
    0.1516   -5.5216   -2.4087 C   0  0  0  0  0  0  0  0  0  0  0  0
    0.1372   -5.3543   -3.7362 C   0  0  0  0  0  0  0  0  0  0  0  0
    0.9581   -6.0976   -5.0883 S   0  0  0  0  0  0  0  0  0  0  0  0
    2.5225   -5.3473   -5.5424 C   0  0  0  0  0  0  0  0  0  0  0  0
    2.3993   -3.9647   -6.0832 C   0  0  0  0  0  0  0  0  0  0  0  0
   -1.1791   -3.9006   -3.8576 Se  0  0  0  0  0  2  0  0  0  0  0  0
   -1.8256   -2.5626    0.0793 C   0  0  0  0  0  0  0  0  0  0  0  0
   -0.5470   -3.1478    1.0482 S   0  0  0  0  0  0  0  0  0  0  0  0
   -3.7763   -2.2816   -3.0530 C   0  0  0  0  0  0  0  0  0  0  0  0
   -4.8103   -1.4495   -3.4443 C   0  0  0  0  0  0  0  0  0  0  0  0
   -5.0374   -0.5203   -2.0462 S   0  0  0  0  0  0  0  0  0  0  0  0
   -5.3669   -1.3628   -4.8165 C   0  0  0  0  0  0  0  0  0  0  0  0
   -5.5222   -2.5269   -5.5660 C   0  0  0  0  0  0  0  0  0  0  0  0
   -5.8276   -2.3566   -6.8946 C   0  0  0  0  0  0  0  0  0  0  0  0
   -5.8989   -3.9882   -7.6253 S   0  0  0  0  0  0  0  0  0  0  0  0
   -4.9066   -4.7864   -6.2595 C   0  0  0  0  0  0  0  0  0  0  0  0
   -5.5357   -3.9452   -5.1419 C   0  0  0  0  0  0  0  0  0  0  0  0
   -5.9829   -1.1255   -7.4663 C   0  0  0  0  0  0  0  0  0  0  0  0
   -5.8471    0.0465   -6.7466 C   0  0  0  0  0  0  0  0  0  0  0  0
   -6.1894    1.2446   -7.5039 C   0  0  0  0  0  0  0  0  0  0  0  0
   -5.6101    1.0982   -8.9249 C   0  0  0  0  0  0  0  0  0  0  0  0
   -6.3034   -0.6077   -9.1733 S   0  0  0  0  0  0  0  0  0  0  0  0
   -5.5230   -0.1268   -5.3744 C   0  0  0  0  0  0  0  0  0  0  0  0
   -5.4743    1.0654   -4.5395 C   0  0  0  0  0  0  0  0  0  0  0  0
   -4.8555    2.1658   -4.8592 C   0  0  0  0  0  0  0  0  0  0  0  0
   -4.7832    3.4041   -4.0899 C   0  0  0  0  0  0  0  0  0  0  0  0
   -3.6208    4.1947   -4.3236 C   0  0  0  0  0  0  0  0  0  0  0  0
   -3.5421    5.3653   -3.6185 C   0  0  0  0  0  0  0  0  0  0  0  0
   -1.9837    6.1171   -4.0619 S   0  0  0  0  0  0  0  0  0  0  0  0
   -1.2224    4.5243   -4.6655 C   0  0  0  0  0  0  0  0  0  0  0  0
   -2.4980    3.9305   -5.2275 C   0  0  0  0  0  0  0  0  0  0  0  0
   -4.5135    5.7508   -2.7509 C   0  0  0  0  0  0  0  0  0  0  0  0
   -5.6408    5.0205   -2.5062 C   0  0  0  0  0  0  0  0  0  0  0  0
   -6.5871    5.5533   -1.5512 C   0  0  0  0  0  0  0  0  0  0  0  0
   -6.4506    7.0349   -1.3829 C   0  0  0  0  0  0  0  0  0  0  0  0
   -4.6495    7.2107   -1.7238 S   0  0  0  0  0  0  0  0  0  0  0  0
   -5.7388    3.8052   -3.2299 C   0  0  0  0  0  0  0  0  0  0  0  0
   -7.0059    3.0890   -3.1171 C   0  0  0  0  0  0  0  0  0  0  0  0
   -7.7631    2.8091   -4.1911 C   0  0  0  0  0  0  0  0  0  0  0  0
    2.9198    6.5266    3.3206 H   0  0  0  0  0  0  0  0  0  0  0  0
    4.9742    5.2408    4.1425 H   0  0  0  0  0  0  0  0  0  0  0  0
    7.1674    1.0424    5.1098 H   0  0  0  0  0  0  0  0  0  0  0  0
    9.3747    1.9978    5.6877 H   0  0  0  0  0  0  0  0  0  0  0  0
   11.8985    3.4651    3.7949 H   0  0  0  0  0  0  0  0  0  0  0  0
   12.5746    5.1370    3.9337 H   0  0  0  0  0  0  0  0  0  0  0  0
   11.9089    5.4930    1.7570 H   0  0  0  0  0  0  0  0  0  0  0  0
   10.1872    5.4641    2.3508 H   0  0  0  0  0  0  0  0  0  0  0  0
   11.0175    3.9766    1.7896 H   0  0  0  0  0  0  0  0  0  0  0  0
    2.2283   -0.4062    0.1105 H   0  0  0  0  0  0  0  0  0  0  0  0
    0.1144   -0.2737   -1.1277 H   0  0  0  0  0  0  0  0  0  0  0  0
   -1.7956    4.3480   -0.1990 H   0  0  0  0  0  0  0  0  0  0  0  0
   -3.5215    3.8838   -0.5899 H   0  0  0  0  0  0  0  0  0  0  0  0
   -2.7834    2.3420    1.6535 H   0  0  0  0  0  0  0  0  0  0  0  0
   -2.0485    3.9368    1.9899 H   0  0  0  0  0  0  0  0  0  0  0  0
   -3.8510    3.8531    1.6894 H   0  0  0  0  0  0  0  0  0  0  0  0
    3.2460   -1.2455    1.6453 H   0  0  0  0  0  0  0  0  0  0  0  0
    8.7990   -2.1226   -0.1109 H   0  0  0  0  0  0  0  0  0  0  0  0
    9.9573   -1.3116    1.0710 H   0  0  0  0  0  0  0  0  0  0  0  0
    8.3565   -1.1982    2.7649 H   0  0  0  0  0  0  0  0  0  0  0  0
    7.3508   -0.8098    1.2734 H   0  0  0  0  0  0  0  0  0  0  0  0
    4.5226   -6.4081    3.8464 H   0  0  0  0  0  0  0  0  0  0  0  0
    4.9254   -7.1899    2.1968 H   0  0  0  0  0  0  0  0  0  0  0  0
    6.6235   -6.8505    4.6456 H   0  0  0  0  0  0  0  0  0  0  0  0
    6.1511   -8.3550    3.6709 H   0  0  0  0  0  0  0  0  0  0  0  0
    3.1677   -2.9138    3.2884 H   0  0  0  0  0  0  0  0  0  0  0  0
    3.4314   -5.6163    2.0904 H   0  0  0  0  0  0  0  0  0  0  0  0
    1.5217   -9.5976    1.1609 H   0  0  0  0  0  0  0  0  0  0  0  0
    1.0216   -8.3306   -0.0708 H   0  0  0  0  0  0  0  0  0  0  0  0
    2.5091   -8.1021    2.5587 H   0  0  0  0  0  0  0  0  0  0  0  0
    2.6347   -7.1111    1.1133 H   0  0  0  0  0  0  0  0  0  0  0  0
   -2.1538   -4.6856    5.1600 H   0  0  0  0  0  0  0  0  0  0  0  0
   -1.8574   -3.0985    4.4189 H   0  0  0  0  0  0  0  0  0  0  0  0
   -3.1874   -3.8638    2.3776 H   0  0  0  0  0  0  0  0  0  0  0  0
   -4.1286   -4.1189    3.9649 H   0  0  0  0  0  0  0  0  0  0  0  0
    1.4912   -3.0786    4.8080 H   0  0  0  0  0  0  0  0  0  0  0  0
    0.3569   -1.1013    4.0483 H   0  0  0  0  0  0  0  0  0  0  0  0
   -2.1473   -0.5764    2.7886 H   0  0  0  0  0  0  0  0  0  0  0  0
   -4.1814   -0.4753    3.0679 H   0  0  0  0  0  0  0  0  0  0  0  0
   -5.8321    1.1950    3.7895 H   0  0  0  0  0  0  0  0  0  0  0  0
   -6.2349    5.0424    1.7980 H   0  0  0  0  0  0  0  0  0  0  0  0
   -7.9491    5.3537    2.2599 H   0  0  0  0  0  0  0  0  0  0  0  0
   -5.5702    4.5898    3.9259 H   0  0  0  0  0  0  0  0  0  0  0  0
   -6.9976    5.6015    4.3788 H   0  0  0  0  0  0  0  0  0  0  0  0
   -7.1179    3.7829    4.3240 H   0  0  0  0  0  0  0  0  0  0  0  0
   -0.5234   -5.0542   -0.4258 H   0  0  0  0  0  0  0  0  0  0  0  0
    0.8652   -6.3357   -2.0267 H   0  0  0  0  0  0  0  0  0  0  0  0
    3.1710   -5.3123   -4.6292 H   0  0  0  0  0  0  0  0  0  0  0  0
    3.0175   -6.0247   -6.2791 H   0  0  0  0  0  0  0  0  0  0  0  0
    1.9708   -3.9227   -7.1011 H   0  0  0  0  0  0  0  0  0  0  0  0
    3.4123   -3.4959   -6.1156 H   0  0  0  0  0  0  0  0  0  0  0  0
    1.7913   -3.3008   -5.4159 H   0  0  0  0  0  0  0  0  0  0  0  0
   -3.3945   -2.9975   -3.8037 H   0  0  0  0  0  0  0  0  0  0  0  0
   -5.2370   -5.8215   -6.2316 H   0  0  0  0  0  0  0  0  0  0  0  0
   -3.8497   -4.5907   -6.4154 H   0  0  0  0  0  0  0  0  0  0  0  0
   -5.1741   -4.1295   -4.1593 H   0  0  0  0  0  0  0  0  0  0  0  0
   -6.6275   -4.3096   -5.1343 H   0  0  0  0  0  0  0  0  0  0  0  0
   -5.8639    2.1620   -7.0966 H   0  0  0  0  0  0  0  0  0  0  0  0
   -7.3246    1.2670   -7.7024 H   0  0  0  0  0  0  0  0  0  0  0  0
   -4.5250    1.0803   -8.9363 H   0  0  0  0  0  0  0  0  0  0  0  0
   -6.1129    1.7478   -9.6296 H   0  0  0  0  0  0  0  0  0  0  0  0
   -5.9706    0.9834   -3.5933 H   0  0  0  0  0  0  0  0  0  0  0  0
   -4.2747    2.0980   -5.8025 H   0  0  0  0  0  0  0  0  0  0  0  0
   -0.8258    3.9584   -3.8215 H   0  0  0  0  0  0  0  0  0  0  0  0
   -0.4863    4.7413   -5.4402 H   0  0  0  0  0  0  0  0  0  0  0  0
   -2.3376    2.8335   -5.2580 H   0  0  0  0  0  0  0  0  0  0  0  0
   -2.6497    4.3436   -6.2530 H   0  0  0  0  0  0  0  0  0  0  0  0
   -7.6173    5.3902   -1.9655 H   0  0  0  0  0  0  0  0  0  0  0  0
   -6.5625    5.0337   -0.5630 H   0  0  0  0  0  0  0  0  0  0  0  0
   -6.6292    7.3470   -0.3244 H   0  0  0  0  0  0  0  0  0  0  0  0
   -7.0332    7.6255   -2.0923 H   0  0  0  0  0  0  0  0  0  0  0  0
   -7.3540    2.7744   -2.1672 H   0  0  0  0  0  0  0  0  0  0  0  0
   -7.4679    3.0985   -5.1849 H   0  0  0  0  0  0  0  0  0  0  0  0
   -8.6905    2.2778   -4.0968 H   0  0  0  0  0  0  0  0  0  0  0  0
  1  2  2  0
  2  3  1  0
  3  4  2  0
  4  5  1  0
  5  6  2  0
  6  7  1  0
  7  8  2  0
  8  9  1  0
  9 10  1  0
 10 11  1  0
  8 12  1  0
  4 13  1  0
 13 14  2  0
 14 15  1  0
 15 16  1  0
 16 17  2  0
 17 18  1  0
 18 19  2  0
 19 20  1  0
 20 21  1  0
 21 22  1  0
 19 23  1  0
 15 24  2  0
 24 25  1  0
 14 26  1  0
 26 27  2  0
 27 28  1  0
 27 29  1  0
 29 30  1  0
 30 31  2  0
 31 32  1  0
 32 33  1  0
 33 34  1  0
 31 35  1  0
 35 36  2  0
 36 37  1  0
 37 38  1  0
 38 39  1  0
 36 40  1  0
 40 41  1  0
 41 42  2  3
 42 43  1  0
 43 44  1  0
 44 45  2  0
 45 46  1  0
 46 47  1  0
 47 48  1  0
 45 49  1  0
 49 50  2  0
 50 51  1  0
 51 52  1  0
 52 53  1  0
 50 54  1  0
 54 55  1  0
 55 56  2  3
 56 57  1  0
 57 58  2  0
 58 59  1  0
 59 60  2  0
 60 61  1  0
 61 62  2  0
 62 63  1  0
 63 64  2  0
 64 65  1  0
 65 66  1  0
 66 67  1  0
 64 68  1  0
 60 69  1  0
 69 70  2  0
 70 71  1  0
 71 72  1  0
 72 73  2  0
 73 74  1  0
 74 75  2  0
 75 76  1  0
 76 77  1  0
 77 78  1  0
 75 79  1  0
 71 80  2  0
 80 81  1  0
 70 82  1  0
 82 83  2  0
 83 84  1  0
 83 85  1  0
 85 86  1  0
 86 87  2  0
 87 88  1  0
 88 89  1  0
 89 90  1  0
 87 91  1  0
 91 92  2  0
 92 93  1  0
 93 94  1  0
 94 95  1  0
 92 96  1  0
 96 97  1  0
 97 98  2  3
 98 99  1  0
 99100  1  0
100101  2  0
101102  1  0
102103  1  0
103104  1  0
101105  1  0
105106  2  0
106107  1  0
107108  1  0
108109  1  0
106110  1  0
110111  1  0
111112  2  3
 25  1  1  0
 40 29  2  0
 54 43  2  0
 81 57  1  0
 96 85  2  0
110 99  2  0
 24  3  1  0
 34 30  1  0
 39 35  1  0
 48 44  1  0
 53 49  1  0
 80 59  1  0
 90 86  1  0
 95 91  1  0
104100  1  0
109105  1  0
 12  5  1  0
 28 13  1  0
 68 61  1  0
 84 69  1  0
 23 16  1  0
 79 72  1  0
  1113  1  0
  2114  1  0
  6115  1  0
  7116  1  0
 10117  1  0
 10118  1  0
 11119  1  0
 11120  1  0
 11121  1  0
 17122  1  0
 18123  1  0
 21124  1  0
 21125  1  0
 22126  1  0
 22127  1  0
 22128  1  0
 26129  1  0
 33130  1  0
 33131  1  0
 34132  1  0
 34133  1  0
 37134  1  0
 37135  1  0
 38136  1  0
 38137  1  0
 41138  1  0
 42139  1  0
 47140  1  0
 47141  1  0
 48142  1  0
 48143  1  0
 51144  1  0
 51145  1  0
 52146  1  0
 52147  1  0
 55148  1  0
 56149  1  0
 58150  1  0
 62151  1  0
 63152  1  0
 66153  1  0
 66154  1  0
 67155  1  0
 67156  1  0
 67157  1  0
 73158  1  0
 74159  1  0
 77160  1  0
 77161  1  0
 78162  1  0
 78163  1  0
 78164  1  0
 82165  1  0
 89166  1  0
 89167  1  0
 90168  1  0
 90169  1  0
 93170  1  0
 93171  1  0
 94172  1  0
 94173  1  0
 97174  1  0
 98175  1  0
103176  1  0
103177  1  0
104178  1  0
104179  1  0
107180  1  0
107181  1  0
108182  1  0
108183  1  0
111184  1  0
112185  1  0
112186  1  0
M  END

