
     RDKit          3D

272301  0  0  0  0  0  0  0  0999 V2000
   -9.2950   -5.6762   -1.4504 C   0  0  0  0  0  0  0  0  0  0  0  0
   -8.0727   -6.2550   -1.2601 C   0  0  0  0  0  0  0  0  0  0  0  0
   -7.4511   -6.0757   -0.0854 C   0  0  0  0  0  0  0  0  0  0  0  0
   -6.2087   -6.5914    0.3038 C   0  0  0  0  0  0  0  0  0  0  0  0
   -5.2835   -7.2476   -0.5840 C   0  0  0  0  0  0  0  0  0  0  0  0
   -4.1503   -7.9502   -0.5021 C   0  0  0  0  0  0  0  0  0  0  0  0
   -3.4262   -8.3355   -1.5517 C   0  0  0  0  0  0  0  0  0  0  0  0
   -3.7446   -8.0687   -2.8240 C   0  0  0  0  0  0  0  0  0  0  0  0
   -3.0203   -8.3394   -4.4051 S   0  0  0  0  0  0  0  0  0  0  0  0
   -1.3591   -9.0197   -4.1495 C   0  0  0  0  0  0  0  0  0  0  0  0
   -0.5334   -7.9400   -3.5116 C   0  0  0  0  0  0  0  0  0  0  0  0
   -5.4034   -7.0714   -2.5519 Se  0  0  0  0  0  2  0  0  0  0  0  0
   -5.7388   -6.3079    1.5830 C   0  0  0  0  0  0  0  0  0  0  0  0
   -6.3855   -5.5536    2.5170 C   0  0  0  0  0  0  0  0  0  0  0  0
   -7.6236   -5.0326    2.1270 C   0  0  0  0  0  0  0  0  0  0  0  0
   -8.4555   -4.1681    2.9165 C   0  0  0  0  0  0  0  0  0  0  0  0
   -9.5509   -3.4228    2.6756 C   0  0  0  0  0  0  0  0  0  0  0  0
  -10.1421   -2.6658    3.6011 C   0  0  0  0  0  0  0  0  0  0  0  0
   -9.7371   -2.5521    4.8616 C   0  0  0  0  0  0  0  0  0  0  0  0
  -10.1697   -1.6596    6.3017 S   0  0  0  0  0  0  0  0  0  0  0  0
  -11.4882   -0.4962    5.9702 C   0  0  0  0  0  0  0  0  0  0  0  0
  -12.8342   -1.1473    5.6553 C   0  0  0  0  0  0  0  0  0  0  0  0
   -8.1684   -3.7661    4.7846 Se  0  0  0  0  0  2  0  0  0  0  0  0
   -8.1051   -5.3125    0.8467 C   0  0  0  0  0  0  0  0  0  0  0  0
   -9.5534   -4.8881    0.0257 S   0  0  0  0  0  0  0  0  0  0  0  0
   -5.7377   -5.3488    3.6922 C   0  0  0  0  0  0  0  0  0  0  0  0
   -4.4967   -5.9032    3.8422 C   0  0  0  0  0  0  0  0  0  0  0  0
   -4.2603   -6.7020    2.3596 S   0  0  0  0  0  0  0  0  0  0  0  0
   -3.5538   -5.7339    4.9682 C   0  0  0  0  0  0  0  0  0  0  0  0
   -3.6152   -4.9005    6.0406 C   0  0  0  0  0  0  0  0  0  0  0  0
   -2.4955   -4.7981    6.8013 C   0  0  0  0  0  0  0  0  0  0  0  0
   -2.2292   -3.8498    7.7979 C   0  0  0  0  0  0  0  0  0  0  0  0
   -3.2517   -3.1359    8.5353 C   0  0  0  0  0  0  0  0  0  0  0  0
   -4.5791   -3.1990    8.6798 C   0  0  0  0  0  0  0  0  0  0  0  0
   -5.2886   -2.3948    9.4686 C   0  0  0  0  0  0  0  0  0  0  0  0
   -4.7945   -1.4282   10.2146 C   0  0  0  0  0  0  0  0  0  0  0  0
   -5.3537   -0.2393   11.3425 S   0  0  0  0  0  0  0  0  0  0  0  0
   -4.0426    0.7270   12.0825 C   0  0  0  0  0  0  0  0  0  0  0  0
   -3.3273    1.6338   11.1029 C   0  0  0  0  0  0  0  0  0  0  0  0
   -2.8396   -1.6537    9.7327 Se  0  0  0  0  0  2  0  0  0  0  0  0
   -0.9324   -3.7261    8.2880 C   0  0  0  0  0  0  0  0  0  0  0  0
    0.1434   -4.4684    7.8991 C   0  0  0  0  0  0  0  0  0  0  0  0
   -0.1133   -5.4410    6.9268 C   0  0  0  0  0  0  0  0  0  0  0  0
    0.8264   -6.4547    6.4627 C   0  0  0  0  0  0  0  0  0  0  0  0
    2.0191   -6.9343    6.7650 C   0  0  0  0  0  0  0  0  0  0  0  0
    2.6506   -7.9060    6.0968 C   0  0  0  0  0  0  0  0  0  0  0  0
    2.1336   -8.5094    5.0261 C   0  0  0  0  0  0  0  0  0  0  0  0
    2.5661   -9.7565    3.8565 S   0  0  0  0  0  0  0  0  0  0  0  0
    3.2017   -9.0254    2.3509 C   0  0  0  0  0  0  0  0  0  0  0  0
    3.5072  -10.0687    1.2998 C   0  0  0  0  0  0  0  0  0  0  0  0
    0.4300   -7.5478    4.9116 Se  0  0  0  0  0  2  0  0  0  0  0  0
   -1.4230   -5.5409    6.4299 C   0  0  0  0  0  0  0  0  0  0  0  0
   -2.0066   -6.3736    5.0233 S   0  0  0  0  0  0  0  0  0  0  0  0
    1.3729   -4.0197    8.2841 C   0  0  0  0  0  0  0  0  0  0  0  0
    1.4035   -2.8327    9.0181 C   0  0  0  0  0  0  0  0  0  0  0  0
   -0.1870   -2.4214    9.1838 S   0  0  0  0  0  0  0  0  0  0  0  0
    2.6746   -2.0029    9.1503 C   0  0  0  0  0  0  0  0  0  0  0  0
    3.9265   -2.3742    8.8646 C   0  0  0  0  0  0  0  0  0  0  0  0
    4.8349   -1.3789    8.5978 C   0  0  0  0  0  0  0  0  0  0  0  0
    6.0605   -1.5637    7.8982 C   0  0  0  0  0  0  0  0  0  0  0  0
    6.7938   -2.8098    7.9437 C   0  0  0  0  0  0  0  0  0  0  0  0
    7.8158   -3.3423    7.2700 C   0  0  0  0  0  0  0  0  0  0  0  0
    8.3697   -4.5060    7.6277 C   0  0  0  0  0  0  0  0  0  0  0  0
    7.9989   -5.2440    8.6444 C   0  0  0  0  0  0  0  0  0  0  0  0
    8.4779   -6.7617    9.4262 S   0  0  0  0  0  0  0  0  0  0  0  0
    9.7184   -6.4519   10.7235 C   0  0  0  0  0  0  0  0  0  0  0  0
   11.0043   -5.9214   10.1845 C   0  0  0  0  0  0  0  0  0  0  0  0
    6.5124   -4.1077    9.3255 Se  0  0  0  0  0  2  0  0  0  0  0  0
    6.6716   -0.4680    7.3233 C   0  0  0  0  0  0  0  0  0  0  0  0
    6.2439    0.8189    7.3598 C   0  0  0  0  0  0  0  0  0  0  0  0
    5.0409    1.0286    8.0889 C   0  0  0  0  0  0  0  0  0  0  0  0
    4.4898    2.3322    8.3687 C   0  0  0  0  0  0  0  0  0  0  0  0
    4.8656    3.6117    8.3388 C   0  0  0  0  0  0  0  0  0  0  0  0
    4.0354    4.6245    8.5685 C   0  0  0  0  0  0  0  0  0  0  0  0
    2.7512    4.5089    8.8521 C   0  0  0  0  0  0  0  0  0  0  0  0
    1.4224    5.6070    9.1962 S   0  0  0  0  0  0  0  0  0  0  0  0
   -0.0785    4.6322    9.3870 C   0  0  0  0  0  0  0  0  0  0  0  0
   -0.0313    3.7167   10.6016 C   0  0  0  0  0  0  0  0  0  0  0  0
    2.5847    2.5466    8.8094 Se  0  0  0  0  0  2  0  0  0  0  0  0
    4.4059   -0.1078    8.6563 C   0  0  0  0  0  0  0  0  0  0  0  0
    2.7238   -0.2879    9.1055 S   0  0  0  0  0  0  0  0  0  0  0  0
    6.7740    1.6865    6.4291 C   0  0  0  0  0  0  0  0  0  0  0  0
    7.6717    1.1540    5.5518 C   0  0  0  0  0  0  0  0  0  0  0  0
    7.8122   -0.4581    6.0157 S   0  0  0  0  0  0  0  0  0  0  0  0
    8.0445    1.7180    4.1822 C   0  0  0  0  0  0  0  0  0  0  0  0
    7.9590    0.8070    3.0949 C   0  0  0  0  0  0  0  0  0  0  0  0
    7.8329    1.3413    1.8706 C   0  0  0  0  0  0  0  0  0  0  0  0
    7.4585    0.5918    0.7413 C   0  0  0  0  0  0  0  0  0  0  0  0
    7.4931   -0.8606    0.6420 C   0  0  0  0  0  0  0  0  0  0  0  0
    8.0258   -1.8732    1.3167 C   0  0  0  0  0  0  0  0  0  0  0  0
    7.7794   -3.1608    1.0559 C   0  0  0  0  0  0  0  0  0  0  0  0
    6.9783   -3.5756    0.0944 C   0  0  0  0  0  0  0  0  0  0  0  0
    6.3768   -5.1150   -0.5307 S   0  0  0  0  0  0  0  0  0  0  0  0
    7.5109   -5.8208   -1.7748 C   0  0  0  0  0  0  0  0  0  0  0  0
    6.9594   -7.1390   -2.2373 C   0  0  0  0  0  0  0  0  0  0  0  0
    6.4076   -1.8050   -0.6601 Se  0  0  0  0  0  2  0  0  0  0  0  0
    7.0771    1.3092   -0.4022 C   0  0  0  0  0  0  0  0  0  0  0  0
    7.0450    2.6573   -0.5338 C   0  0  0  0  0  0  0  0  0  0  0  0
    7.4466    3.3852    0.6121 C   0  0  0  0  0  0  0  0  0  0  0  0
    7.5953    4.8262    0.6020 C   0  0  0  0  0  0  0  0  0  0  0  0
    7.9673    5.6985    1.5878 C   0  0  0  0  0  0  0  0  0  0  0  0
    8.0857    7.0016    1.3416 C   0  0  0  0  0  0  0  0  0  0  0  0
    7.8635    7.5805    0.1673 C   0  0  0  0  0  0  0  0  0  0  0  0
    7.9302    9.1927   -0.5148 S   0  0  0  0  0  0  0  0  0  0  0  0
    6.4375   10.1644   -0.2293 C   0  0  0  0  0  0  0  0  0  0  0  0
    5.2795    9.5188   -0.9610 C   0  0  0  0  0  0  0  0  0  0  0  0
    7.3753    5.9484   -0.8686 Se  0  0  0  0  0  2  0  0  0  0  0  0
    7.8121    2.6975    1.7592 C   0  0  0  0  0  0  0  0  0  0  0  0
    7.9788    3.1749    3.4258 S   0  0  0  0  0  0  0  0  0  0  0  0
    6.4520    3.1361   -1.6828 C   0  0  0  0  0  0  0  0  0  0  0  0
    5.9534    2.2208   -2.5521 C   0  0  0  0  0  0  0  0  0  0  0  0
    6.3022    0.7466   -1.8394 S   0  0  0  0  0  0  0  0  0  0  0  0
    5.0533    2.3449   -3.7216 C   0  0  0  0  0  0  0  0  0  0  0  0
    4.4214    3.4204   -4.2324 C   0  0  0  0  0  0  0  0  0  0  0  0
    3.4466    3.2235   -5.1538 C   0  0  0  0  0  0  0  0  0  0  0  0
    2.5783    4.1582   -5.6908 C   0  0  0  0  0  0  0  0  0  0  0  0
    2.6720    5.6151   -5.5575 C   0  0  0  0  0  0  0  0  0  0  0  0
    3.1771    6.3327   -6.6459 C   0  0  0  0  0  0  0  0  0  0  0  0
    3.2492    7.7178   -6.6497 C   0  0  0  0  0  0  0  0  0  0  0  0
    2.8166    8.4421   -5.5473 C   0  0  0  0  0  0  0  0  0  0  0  0
    2.8384   10.2408   -5.5590 S   0  0  0  0  0  0  0  0  0  0  0  0
    4.4356   10.9013   -5.0491 C   0  0  0  0  0  0  0  0  0  0  0  0
    5.5362   10.6396   -6.0675 C   0  0  0  0  0  0  0  0  0  0  0  0
    2.3302    7.7066   -4.4868 C   0  0  0  0  0  0  0  0  0  0  0  0
    1.9233    8.3969   -3.4027 F   0  0  0  0  0  0  0  0  0  0  0  0
    2.2481    6.3232   -4.4691 C   0  0  0  0  0  0  0  0  0  0  0  0
    1.5108    3.7641   -6.5085 C   0  0  0  0  0  0  0  0  0  0  0  0
    1.2305    2.4820   -6.8659 C   0  0  0  0  0  0  0  0  0  0  0  0
    2.1211    1.5357   -6.3288 C   0  0  0  0  0  0  0  0  0  0  0  0
    1.9585    0.0984   -6.5236 C   0  0  0  0  0  0  0  0  0  0  0  0
    1.0213   -0.5839   -5.7264 C   0  0  0  0  0  0  0  0  0  0  0  0
    0.8363   -1.9254   -5.8431 C   0  0  0  0  0  0  0  0  0  0  0  0
    1.5703   -2.6813   -6.7655 C   0  0  0  0  0  0  0  0  0  0  0  0
    1.2871   -4.4331   -6.8907 S   0  0  0  0  0  0  0  0  0  0  0  0
    2.3699   -5.2632   -8.0352 C   0  0  0  0  0  0  0  0  0  0  0  0
    3.7947   -5.3000   -7.5325 C   0  0  0  0  0  0  0  0  0  0  0  0
    2.4954   -2.0220   -7.5567 C   0  0  0  0  0  0  0  0  0  0  0  0
    2.6796   -0.6323   -7.4244 C   0  0  0  0  0  0  0  0  0  0  0  0
    3.2396   -2.7148   -8.4651 F   0  0  0  0  0  0  0  0  0  0  0  0
    3.1740    1.9214   -5.5100 C   0  0  0  0  0  0  0  0  0  0  0  0
    4.2948    1.0296   -4.5520 S   0  0  0  0  0  0  0  0  0  0  0  0
    0.1126    2.2557   -7.5782 C   0  0  0  0  0  0  0  0  0  0  0  0
   -0.6609    3.3283   -7.8823 C   0  0  0  0  0  0  0  0  0  0  0  0
    0.2004    4.6336   -7.1832 S   0  0  0  0  0  0  0  0  0  0  0  0
   -1.9839    3.4486   -8.5290 C   0  0  0  0  0  0  0  0  0  0  0  0
   -2.8559    4.4891   -8.3651 C   0  0  0  0  0  0  0  0  0  0  0  0
   -4.0959    4.3781   -8.8776 C   0  0  0  0  0  0  0  0  0  0  0  0
   -5.1424    5.2744   -8.7945 C   0  0  0  0  0  0  0  0  0  0  0  0
   -5.1573    6.4905   -7.9781 C   0  0  0  0  0  0  0  0  0  0  0  0
   -4.4514    6.9648   -6.9346 C   0  0  0  0  0  0  0  0  0  0  0  0
   -4.6756    8.1974   -6.4363 C   0  0  0  0  0  0  0  0  0  0  0  0
   -5.5509    9.0562   -6.8641 C   0  0  0  0  0  0  0  0  0  0  0  0
   -6.1718   10.6717   -6.5083 S   0  0  0  0  0  0  0  0  0  0  0  0
   -7.6161   10.4636   -5.4075 C   0  0  0  0  0  0  0  0  0  0  0  0
   -7.1478    9.8338   -4.1265 C   0  0  0  0  0  0  0  0  0  0  0  0
   -6.3199    7.9320   -8.3581 Se  0  0  0  0  0  2  0  0  0  0  0  0
   -6.3919    4.9752   -9.3651 C   0  0  0  0  0  0  0  0  0  0  0  0
   -6.6743    3.8070  -10.0299 C   0  0  0  0  0  0  0  0  0  0  0  0
   -5.6081    2.9019  -10.1110 C   0  0  0  0  0  0  0  0  0  0  0  0
   -5.7449    1.5664  -10.6760 C   0  0  0  0  0  0  0  0  0  0  0  0
   -4.8374    0.6819  -11.1168 C   0  0  0  0  0  0  0  0  0  0  0  0
   -5.1615   -0.5461  -11.4974 C   0  0  0  0  0  0  0  0  0  0  0  0
   -6.3951   -1.0337  -11.4847 C   0  0  0  0  0  0  0  0  0  0  0  0
   -7.2097   -2.5432  -11.8709 S   0  0  0  0  0  0  0  0  0  0  0  0
   -8.9672   -2.3770  -11.4572 C   0  0  0  0  0  0  0  0  0  0  0  0
   -9.0861   -2.2268   -9.9411 C   0  0  0  0  0  0  0  0  0  0  0  0
   -7.3530    0.5649  -10.7900 Se  0  0  0  0  0  2  0  0  0  0  0  0
   -4.3730    3.1972   -9.5496 C   0  0  0  0  0  0  0  0  0  0  0  0
   -2.8885    2.3349   -9.4018 S   0  0  0  0  0  0  0  0  0  0  0  0
   -7.9273    3.6660  -10.5128 C   0  0  0  0  0  0  0  0  0  0  0  0
   -8.8082    4.6879  -10.2990 C   0  0  0  0  0  0  0  0  0  0  0  0
   -7.8947    5.8249   -9.4427 S   0  0  0  0  0  0  0  0  0  0  0  0
   -9.9352   -5.7326   -2.3539 H   0  0  0  0  0  0  0  0  0  0  0  0
   -7.6750   -6.8717   -2.1010 H   0  0  0  0  0  0  0  0  0  0  0  0
   -3.8194   -8.2482    0.5599 H   0  0  0  0  0  0  0  0  0  0  0  0
   -2.4530   -8.9194   -1.3932 H   0  0  0  0  0  0  0  0  0  0  0  0
   -1.4890   -9.8497   -3.3984 H   0  0  0  0  0  0  0  0  0  0  0  0
   -0.9308   -9.4465   -5.0639 H   0  0  0  0  0  0  0  0  0  0  0  0
    0.2739   -7.6699   -4.2534 H   0  0  0  0  0  0  0  0  0  0  0  0
   -0.0122   -8.2673   -2.5844 H   0  0  0  0  0  0  0  0  0  0  0  0
   -1.1416   -7.0494   -3.2366 H   0  0  0  0  0  0  0  0  0  0  0  0
   -9.9789   -3.4504    1.6198 H   0  0  0  0  0  0  0  0  0  0  0  0
  -11.0545   -2.0406    3.2947 H   0  0  0  0  0  0  0  0  0  0  0  0
  -11.2863    0.1482    5.0616 H   0  0  0  0  0  0  0  0  0  0  0  0
  -11.6592    0.2006    6.8106 H   0  0  0  0  0  0  0  0  0  0  0  0
  -13.5419   -0.2508    5.5994 H   0  0  0  0  0  0  0  0  0  0  0  0
  -13.1551   -1.8827    6.4181 H   0  0  0  0  0  0  0  0  0  0  0  0
  -12.8749   -1.5908    4.6671 H   0  0  0  0  0  0  0  0  0  0  0  0
   -6.1141   -4.7686    4.5632 H   0  0  0  0  0  0  0  0  0  0  0  0
   -4.5838   -4.3754    6.1873 H   0  0  0  0  0  0  0  0  0  0  0  0
   -5.1069   -4.0446    8.1088 H   0  0  0  0  0  0  0  0  0  0  0  0
   -6.4301   -2.5314    9.5309 H   0  0  0  0  0  0  0  0  0  0  0  0
   -4.4704    1.3600   12.8887 H   0  0  0  0  0  0  0  0  0  0  0  0
   -3.2849    0.0313   12.5449 H   0  0  0  0  0  0  0  0  0  0  0  0
   -3.4757    2.6955   11.3641 H   0  0  0  0  0  0  0  0  0  0  0  0
   -2.2470    1.4634   11.1197 H   0  0  0  0  0  0  0  0  0  0  0  0
   -3.6611    1.5017   10.0451 H   0  0  0  0  0  0  0  0  0  0  0  0
    2.5221   -6.5024    7.7014 H   0  0  0  0  0  0  0  0  0  0  0  0
    3.6826   -8.2529    6.4342 H   0  0  0  0  0  0  0  0  0  0  0  0
    2.3945   -8.3522    1.9394 H   0  0  0  0  0  0  0  0  0  0  0  0
    4.0824   -8.4017    2.5047 H   0  0  0  0  0  0  0  0  0  0  0  0
    4.3711   -9.7576    0.6927 H   0  0  0  0  0  0  0  0  0  0  0  0
    3.7002  -11.0917    1.7184 H   0  0  0  0  0  0  0  0  0  0  0  0
    2.6050  -10.1329    0.6050 H   0  0  0  0  0  0  0  0  0  0  0  0
    2.3370   -4.4859    8.0789 H   0  0  0  0  0  0  0  0  0  0  0  0
    4.2058   -3.4365    8.8484 H   0  0  0  0  0  0  0  0  0  0  0  0
    8.1960   -2.7628    6.3629 H   0  0  0  0  0  0  0  0  0  0  0  0
    9.2408   -4.9151    6.9834 H   0  0  0  0  0  0  0  0  0  0  0  0
    9.2817   -5.8330   11.5495 H   0  0  0  0  0  0  0  0  0  0  0  0
    9.9418   -7.4504   11.1666 H   0  0  0  0  0  0  0  0  0  0  0  0
   11.9130   -6.3490   10.6762 H   0  0  0  0  0  0  0  0  0  0  0  0
   11.1418   -6.0700    9.0851 H   0  0  0  0  0  0  0  0  0  0  0  0
   11.0869   -4.8146   10.3270 H   0  0  0  0  0  0  0  0  0  0  0  0
    5.9841    3.8279    8.1512 H   0  0  0  0  0  0  0  0  0  0  0  0
    4.4483    5.7024    8.5170 H   0  0  0  0  0  0  0  0  0  0  0  0
   -0.1386    3.9230    8.4989 H   0  0  0  0  0  0  0  0  0  0  0  0
   -0.9860    5.2416    9.3714 H   0  0  0  0  0  0  0  0  0  0  0  0
   -0.6424    4.1412   11.4307 H   0  0  0  0  0  0  0  0  0  0  0  0
    1.0005    3.4836   10.9145 H   0  0  0  0  0  0  0  0  0  0  0  0
   -0.4843    2.7281   10.3500 H   0  0  0  0  0  0  0  0  0  0  0  0
    6.5058    2.7381    6.3636 H   0  0  0  0  0  0  0  0  0  0  0  0
    7.9862   -0.2720    3.3520 H   0  0  0  0  0  0  0  0  0  0  0  0
    8.7934   -1.6278    2.1328 H   0  0  0  0  0  0  0  0  0  0  0  0
    8.2710   -3.9966    1.6897 H   0  0  0  0  0  0  0  0  0  0  0  0
    8.5004   -6.0222   -1.3176 H   0  0  0  0  0  0  0  0  0  0  0  0
    7.5774   -5.0871   -2.6067 H   0  0  0  0  0  0  0  0  0  0  0  0
    7.1177   -7.2129   -3.3484 H   0  0  0  0  0  0  0  0  0  0  0  0
    5.8746   -7.2620   -2.0093 H   0  0  0  0  0  0  0  0  0  0  0  0
    7.5442   -7.9740   -1.8129 H   0  0  0  0  0  0  0  0  0  0  0  0
    8.1731    5.2596    2.6075 H   0  0  0  0  0  0  0  0  0  0  0  0
    8.4133    7.6902    2.2079 H   0  0  0  0  0  0  0  0  0  0  0  0
    6.2344   10.2878    0.8608 H   0  0  0  0  0  0  0  0  0  0  0  0
    6.5889   11.1884   -0.6089 H   0  0  0  0  0  0  0  0  0  0  0  0
    5.4368    9.4716   -2.0531 H   0  0  0  0  0  0  0  0  0  0  0  0
    5.0901    8.4758   -0.6132 H   0  0  0  0  0  0  0  0  0  0  0  0
    4.3284   10.0827   -0.7776 H   0  0  0  0  0  0  0  0  0  0  0  0
    6.3542    4.2031   -1.9654 H   0  0  0  0  0  0  0  0  0  0  0  0
    4.7268    4.4421   -3.8792 H   0  0  0  0  0  0  0  0  0  0  0  0
    3.5256    5.7447   -7.4833 H   0  0  0  0  0  0  0  0  0  0  0  0
    3.6347    8.2624   -7.4989 H   0  0  0  0  0  0  0  0  0  0  0  0
    4.6794   10.4623   -4.0616 H   0  0  0  0  0  0  0  0  0  0  0  0
    4.3246   12.0135   -4.8940 H   0  0  0  0  0  0  0  0  0  0  0  0
    5.9270    9.5960   -5.8658 H   0  0  0  0  0  0  0  0  0  0  0  0
    6.3930   11.3056   -5.8779 H   0  0  0  0  0  0  0  0  0  0  0  0
    5.2166   10.7693   -7.1043 H   0  0  0  0  0  0  0  0  0  0  0  0
    1.8593    5.7818   -3.6078 H   0  0  0  0  0  0  0  0  0  0  0  0
    0.4781    0.0230   -5.0253 H   0  0  0  0  0  0  0  0  0  0  0  0
    0.1213   -2.4569   -5.2254 H   0  0  0  0  0  0  0  0  0  0  0  0
    2.4068   -4.7998   -9.0524 H   0  0  0  0  0  0  0  0  0  0  0  0
    2.0727   -6.3180   -8.2535 H   0  0  0  0  0  0  0  0  0  0  0  0
    4.0272   -6.3471   -7.2115 H   0  0  0  0  0  0  0  0  0  0  0  0
    3.9744   -4.5747   -6.7279 H   0  0  0  0  0  0  0  0  0  0  0  0
    4.5187   -5.0541   -8.3534 H   0  0  0  0  0  0  0  0  0  0  0  0
    3.4200   -0.1711   -8.0632 H   0  0  0  0  0  0  0  0  0  0  0  0
   -0.2071    1.2535   -7.9393 H   0  0  0  0  0  0  0  0  0  0  0  0
   -2.4912    5.3981   -7.8518 H   0  0  0  0  0  0  0  0  0  0  0  0
   -3.6907    6.2675   -6.4526 H   0  0  0  0  0  0  0  0  0  0  0  0
   -4.0270    8.5285   -5.5330 H   0  0  0  0  0  0  0  0  0  0  0  0
   -8.3145    9.8028   -5.9530 H   0  0  0  0  0  0  0  0  0  0  0  0
   -8.0740   11.4571   -5.1825 H   0  0  0  0  0  0  0  0  0  0  0  0
   -7.2182   10.5164   -3.2445 H   0  0  0  0  0  0  0  0  0  0  0  0
   -6.0640    9.5664   -4.2036 H   0  0  0  0  0  0  0  0  0  0  0  0
   -7.6751    8.8648   -3.9486 H   0  0  0  0  0  0  0  0  0  0  0  0
   -3.7468    1.0365  -11.1637 H   0  0  0  0  0  0  0  0  0  0  0  0
   -4.3408   -1.2638  -11.8759 H   0  0  0  0  0  0  0  0  0  0  0  0
   -9.4368   -1.4748  -11.9336 H   0  0  0  0  0  0  0  0  0  0  0  0
   -9.5429   -3.2444  -11.8009 H   0  0  0  0  0  0  0  0  0  0  0  0
   -8.1572   -2.6082   -9.4491 H   0  0  0  0  0  0  0  0  0  0  0  0
   -9.2805   -1.1656   -9.6889 H   0  0  0  0  0  0  0  0  0  0  0  0
   -9.9012   -2.8490   -9.5269 H   0  0  0  0  0  0  0  0  0  0  0  0
   -8.2983    2.7862  -11.0746 H   0  0  0  0  0  0  0  0  0  0  0  0
   -9.8703    4.7185  -10.6186 H   0  0  0  0  0  0  0  0  0  0  0  0
  1  2  2  0
  2  3  1  0
  3  4  2  0
  4  5  1  0
  5  6  2  0
  6  7  1  0
  7  8  2  0
  8  9  1  0
  9 10  1  0
 10 11  1  0
  8 12  1  0
  4 13  1  0
 13 14  2  0
 14 15  1  0
 15 16  1  0
 16 17  2  0
 17 18  1  0
 18 19  2  0
 19 20  1  0
 20 21  1  0
 21 22  1  0
 19 23  1  0
 15 24  2  0
 24 25  1  0
 14 26  1  0
 26 27  2  0
 27 28  1  0
 27 29  1  0
 29 30  2  0
 30 31  1  0
 31 32  2  0
 32 33  1  0
 33 34  2  0
 34 35  1  0
 35 36  2  0
 36 37  1  0
 37 38  1  0
 38 39  1  0
 36 40  1  0
 32 41  1  0
 41 42  2  0
 42 43  1  0
 43 44  1  0
 44 45  2  0
 45 46  1  0
 46 47  2  0
 47 48  1  0
 48 49  1  0
 49 50  1  0
 47 51  1  0
 43 52  2  0
 52 53  1  0
 42 54  1  0
 54 55  2  0
 55 56  1  0
 55 57  1  0
 57 58  2  0
 58 59  1  0
 59 60  2  0
 60 61  1  0
 61 62  2  0
 62 63  1  0
 63 64  2  0
 64 65  1  0
 65 66  1  0
 66 67  1  0
 64 68  1  0
 60 69  1  0
 69 70  2  0
 70 71  1  0
 71 72  1  0
 72 73  2  0
 73 74  1  0
 74 75  2  0
 75 76  1  0
 76 77  1  0
 77 78  1  0
 75 79  1  0
 71 80  2  0
 80 81  1  0
 70 82  1  0
 82 83  2  0
 83 84  1  0
 83 85  1  0
 85 86  2  0
 86 87  1  0
 87 88  2  0
 88 89  1  0
 89 90  2  0
 90 91  1  0
 91 92  2  0
 92 93  1  0
 93 94  1  0
 94 95  1  0
 92 96  1  0
 88 97  1  0
 97 98  2  0
 98 99  1  0
 99100  1  0
100101  2  0
101102  1  0
102103  2  0
103104  1  0
104105  1  0
105106  1  0
103107  1  0
 99108  2  0
108109  1  0
 98110  1  0
110111  2  0
111112  1  0
111113  1  0
113114  2  0
114115  1  0
115116  2  0
116117  1  0
117118  2  0
118119  1  0
119120  2  0
120121  1  0
121122  1  0
122123  1  0
120124  1  0
124125  1  0
124126  2  0
116127  1  0
127128  2  0
128129  1  0
129130  1  0
130131  2  0
131132  1  0
132133  2  0
133134  1  0
134135  1  0
135136  1  0
133137  1  0
137138  2  0
137139  1  0
129140  2  0
140141  1  0
128142  1  0
142143  2  0
143144  1  0
143145  1  0
145146  2  0
146147  1  0
147148  2  0
148149  1  0
149150  2  0
150151  1  0
151152  2  0
152153  1  0
153154  1  0
154155  1  0
152156  1  0
148157  1  0
157158  2  0
158159  1  0
159160  1  0
160161  2  0
161162  1  0
162163  2  0
163164  1  0
164165  1  0
165166  1  0
163167  1  0
159168  2  0
168169  1  0
158170  1  0
170171  2  0
171172  1  0
 25  1  1  0
 53 29  1  0
 81 57  1  0
109 85  1  0
141113  1  0
169145  1  0
 24  3  1  0
 52 31  1  0
 80 59  1  0
108 87  1  0
140115  1  0
168147  1  0
 12  5  1  0
 28 13  1  0
 40 33  1  0
 56 41  1  0
 68 61  1  0
 84 69  1  0
 96 89  1  0
112 97  1  0
126117  1  0
144127  1  0
156149  1  0
172157  1  0
 23 16  1  0
 51 44  1  0
 79 72  1  0
107100  1  0
138130  1  0
167160  1  0
  1173  1  0
  2174  1  0
  6175  1  0
  7176  1  0
 10177  1  0
 10178  1  0
 11179  1  0
 11180  1  0
 11181  1  0
 17182  1  0
 18183  1  0
 21184  1  0
 21185  1  0
 22186  1  0
 22187  1  0
 22188  1  0
 26189  1  0
 30190  1  0
 34191  1  0
 35192  1  0
 38193  1  0
 38194  1  0
 39195  1  0
 39196  1  0
 39197  1  0
 45198  1  0
 46199  1  0
 49200  1  0
 49201  1  0
 50202  1  0
 50203  1  0
 50204  1  0
 54205  1  0
 58206  1  0
 62207  1  0
 63208  1  0
 66209  1  0
 66210  1  0
 67211  1  0
 67212  1  0
 67213  1  0
 73214  1  0
 74215  1  0
 77216  1  0
 77217  1  0
 78218  1  0
 78219  1  0
 78220  1  0
 82221  1  0
 86222  1  0
 90223  1  0
 91224  1  0
 94225  1  0
 94226  1  0
 95227  1  0
 95228  1  0
 95229  1  0
101230  1  0
102231  1  0
105232  1  0
105233  1  0
106234  1  0
106235  1  0
106236  1  0
110237  1  0
114238  1  0
118239  1  0
119240  1  0
122241  1  0
122242  1  0
123243  1  0
123244  1  0
123245  1  0
126246  1  0
131247  1  0
132248  1  0
135249  1  0
135250  1  0
136251  1  0
136252  1  0
136253  1  0
138254  1  0
142255  1  0
146256  1  0
150257  1  0
151258  1  0
154259  1  0
154260  1  0
155261  1  0
155262  1  0
155263  1  0
161264  1  0
162265  1  0
165266  1  0
165267  1  0
166268  1  0
166269  1  0
166270  1  0
170271  1  0
171272  1  0
M  END

