
     RDKit          3D

150163  0  0  0  0  0  0  0  0999 V2000
    3.0882    0.1152    5.1200 C   0  0  0  0  0  0  0  0  0  0  0  0
    3.9393    1.1078    5.2682 C   0  0  0  0  0  0  0  0  0  0  0  0
    3.5016    2.5118    5.5186 C   0  0  0  0  0  0  0  0  0  0  0  0
    4.4382    3.5103    5.6350 C   0  0  0  0  0  0  0  0  0  0  0  0
    3.4951    4.9052    5.8759 S   0  0  0  0  0  0  0  0  0  0  0  0
    1.9412    4.1960    5.8253 C   0  0  0  0  0  0  0  0  0  0  0  0
    2.2195    2.8747    5.6191 C   0  0  0  0  0  0  0  0  0  0  0  0
    0.6080    4.8427    5.9347 C   0  0  0  0  0  0  0  0  0  0  0  0
   -0.4369    4.0919    5.9457 C   0  0  0  0  0  0  0  0  0  0  0  0
   -1.7972    4.6211    6.0436 C   0  0  0  0  0  0  0  0  0  0  0  0
   -2.8192    3.7903    6.0519 C   0  0  0  0  0  0  0  0  0  0  0  0
   -4.2172    4.2690    6.1367 C   0  0  0  0  0  0  0  0  0  0  0  0
   -4.5372    5.5925    6.2323 C   0  0  0  0  0  0  0  0  0  0  0  0
   -6.2495    5.5719    6.1595 S   0  0  0  0  0  0  0  0  0  0  0  0
   -6.5158    3.8934    6.0061 C   0  0  0  0  0  0  0  0  0  0  0  0
   -5.2491    3.4055    6.0274 C   0  0  0  0  0  0  0  0  0  0  0  0
   -7.7677    3.1277    5.9726 C   0  0  0  0  0  0  0  0  0  0  0  0
   -8.0137    2.0006    5.3943 C   0  0  0  0  0  0  0  0  0  0  0  0
   -7.0225    1.2618    4.5996 C   0  0  0  0  0  0  0  0  0  0  0  0
   -6.9698   -0.0642    4.2837 C   0  0  0  0  0  0  0  0  0  0  0  0
   -6.0107   -0.4820    3.4328 C   0  0  0  0  0  0  0  0  0  0  0  0
   -5.7357   -1.7828    3.0188 C   0  0  0  0  0  0  0  0  0  0  0  0
   -6.5555   -2.9631    3.2967 C   0  0  0  0  0  0  0  0  0  0  0  0
   -7.7719   -3.2544    3.7088 C   0  0  0  0  0  0  0  0  0  0  0  0
   -8.2108   -4.4952    3.9752 C   0  0  0  0  0  0  0  0  0  0  0  0
   -7.4427   -5.5772    3.8468 C   0  0  0  0  0  0  0  0  0  0  0  0
   -7.6066   -7.3183    4.0877 S   0  0  0  0  0  0  0  0  0  0  0  0
   -7.1475   -7.8124    5.7770 C   0  0  0  0  0  0  0  0  0  0  0  0
   -5.6846   -7.5572    6.0556 C   0  0  0  0  0  0  0  0  0  0  0  0
   -5.7731   -4.7355    3.2305 Se  0  0  0  0  0  2  0  0  0  0  0  0
   -4.6370   -2.0074    2.1825 C   0  0  0  0  0  0  0  0  0  0  0  0
   -3.7796   -1.0573    1.7098 C   0  0  0  0  0  0  0  0  0  0  0  0
   -4.0699    0.2428    2.1170 C   0  0  0  0  0  0  0  0  0  0  0  0
   -3.3505    1.3933    1.5798 C   0  0  0  0  0  0  0  0  0  0  0  0
   -3.3114    2.6946    1.9165 C   0  0  0  0  0  0  0  0  0  0  0  0
   -2.6489    3.6136    1.1993 C   0  0  0  0  0  0  0  0  0  0  0  0
   -1.9684    3.3361    0.1001 C   0  0  0  0  0  0  0  0  0  0  0  0
   -1.0318    4.1725   -1.1404 S   0  0  0  0  0  0  0  0  0  0  0  0
   -1.0669    5.9568   -0.9768 C   0  0  0  0  0  0  0  0  0  0  0  0
   -0.3682    6.4165    0.2678 C   0  0  0  0  0  0  0  0  0  0  0  0
   -2.3032    1.3795    0.0155 Se  0  0  0  0  0  2  0  0  0  0  0  0
   -5.1507    0.4732    2.9474 C   0  0  0  0  0  0  0  0  0  0  0  0
   -5.7125    1.8996    3.6836 S   0  0  0  0  0  0  0  0  0  0  0  0
   -2.7694   -1.4800    0.9145 C   0  0  0  0  0  0  0  0  0  0  0  0
   -2.6992   -2.8207    0.6443 C   0  0  0  0  0  0  0  0  0  0  0  0
   -3.9901   -3.4521    1.4786 S   0  0  0  0  0  0  0  0  0  0  0  0
   -1.6570   -3.4574   -0.1810 C   0  0  0  0  0  0  0  0  0  0  0  0
   -0.4326   -2.9035   -0.4964 C   0  0  0  0  0  0  0  0  0  0  0  0
    0.4032   -3.6215   -1.2672 C   0  0  0  0  0  0  0  0  0  0  0  0
    1.6270   -3.2009   -1.7686 C   0  0  0  0  0  0  0  0  0  0  0  0
    2.4038   -2.1329   -1.1257 C   0  0  0  0  0  0  0  0  0  0  0  0
    2.3463   -1.5944    0.1016 C   0  0  0  0  0  0  0  0  0  0  0  0
    3.1726   -0.6392    0.5061 C   0  0  0  0  0  0  0  0  0  0  0  0
    4.1387   -0.1268   -0.2589 C   0  0  0  0  0  0  0  0  0  0  0  0
    5.4244    1.0468   -0.0354 S   0  0  0  0  0  0  0  0  0  0  0  0
    4.8774    2.7706   -0.1302 C   0  0  0  0  0  0  0  0  0  0  0  0
    4.4130    3.1429   -1.5040 C   0  0  0  0  0  0  0  0  0  0  0  0
    3.8420   -1.1913   -1.9112 Se  0  0  0  0  0  2  0  0  0  0  0  0
    2.3155   -4.0137   -2.6599 C   0  0  0  0  0  0  0  0  0  0  0  0
    1.9094   -5.2435   -3.0950 C   0  0  0  0  0  0  0  0  0  0  0  0
    0.6790   -5.6634   -2.5702 C   0  0  0  0  0  0  0  0  0  0  0  0
    0.0504   -6.9120   -3.0027 C   0  0  0  0  0  0  0  0  0  0  0  0
   -1.0157   -7.5824   -2.5410 C   0  0  0  0  0  0  0  0  0  0  0  0
   -1.4959   -8.6841   -3.1354 C   0  0  0  0  0  0  0  0  0  0  0  0
   -0.9630   -9.2144   -4.2258 C   0  0  0  0  0  0  0  0  0  0  0  0
   -1.2393  -10.5942   -5.3044 S   0  0  0  0  0  0  0  0  0  0  0  0
   -2.3978  -10.2418   -6.6318 C   0  0  0  0  0  0  0  0  0  0  0  0
   -1.9140   -9.2011   -7.6134 C   0  0  0  0  0  0  0  0  0  0  0  0
    0.5141   -7.9208   -4.4968 Se  0  0  0  0  0  2  0  0  0  0  0  0
   -0.0290   -4.8514   -1.6867 C   0  0  0  0  0  0  0  0  0  0  0  0
   -1.5870   -4.9481   -0.9645 S   0  0  0  0  0  0  0  0  0  0  0  0
    2.6728   -5.8509   -4.0159 C   0  0  0  0  0  0  0  0  0  0  0  0
    3.8193   -5.1577   -4.4573 C   0  0  0  0  0  0  0  0  0  0  0  0
    3.7336   -3.7406   -3.5444 S   0  0  0  0  0  0  0  0  0  0  0  0
    4.7564   -5.6519   -5.4539 C   0  0  0  0  0  0  0  0  0  0  0  0
    5.5366   -4.9887   -6.1813 C   0  0  0  0  0  0  0  0  0  0  0  0
    5.7592   -3.5231   -6.2600 C   0  0  0  0  0  0  0  0  0  0  0  0
    5.7902   -3.0054   -7.5814 C   0  0  0  0  0  0  0  0  0  0  0  0
    6.0704   -1.3559   -7.3520 S   0  0  0  0  0  0  0  0  0  0  0  0
    6.1549   -1.3072   -5.6560 C   0  0  0  0  0  0  0  0  0  0  0  0
    5.9566   -2.6238   -5.3024 C   0  0  0  0  0  0  0  0  0  0  0  0
    6.3035   -0.1376   -4.7599 C   0  0  0  0  0  0  0  0  0  0  0  0
    6.1506    1.0623   -5.3390 C   0  0  0  0  0  0  0  0  0  0  0  0
    6.2806    2.2461   -4.5363 C   0  0  0  0  0  0  0  0  0  0  0  0
    6.1689    3.4924   -4.7757 C   0  0  0  0  0  0  0  0  0  0  0  0
    5.8454    4.1554   -6.0664 C   0  0  0  0  0  0  0  0  0  0  0  0
    6.0790    3.6008   -7.2785 C   0  0  0  0  0  0  0  0  0  0  0  0
    5.3303    4.7099   -8.3738 S   0  0  0  0  0  0  0  0  0  0  0  0
    4.7439    5.8406   -7.2582 C   0  0  0  0  0  0  0  0  0  0  0  0
    5.1458    5.3294   -6.0626 C   0  0  0  0  0  0  0  0  0  0  0  0
    3.9554    7.0847   -7.4703 C   0  0  0  0  0  0  0  0  0  0  0  0
    3.4487    7.7419   -6.4440 C   0  0  0  0  0  0  0  0  0  0  0  0
    2.0263    0.3140    5.1776 H   0  0  0  0  0  0  0  0  0  0  0  0
    3.3999   -0.9022    4.9473 H   0  0  0  0  0  0  0  0  0  0  0  0
    4.9933    0.8443    5.1954 H   0  0  0  0  0  0  0  0  0  0  0  0
    5.5442    3.4100    5.5774 H   0  0  0  0  0  0  0  0  0  0  0  0
    1.3686    2.1555    5.5459 H   0  0  0  0  0  0  0  0  0  0  0  0
    0.6124    5.9195    5.9983 H   0  0  0  0  0  0  0  0  0  0  0  0
   -0.3527    3.0176    5.8875 H   0  0  0  0  0  0  0  0  0  0  0  0
   -2.0056    5.6771    6.1103 H   0  0  0  0  0  0  0  0  0  0  0  0
   -2.5523    2.7344    5.9960 H   0  0  0  0  0  0  0  0  0  0  0  0
   -3.8538    6.4670    6.3348 H   0  0  0  0  0  0  0  0  0  0  0  0
   -5.0936    2.2958    6.0540 H   0  0  0  0  0  0  0  0  0  0  0  0
   -8.6048    3.5748    6.5233 H   0  0  0  0  0  0  0  0  0  0  0  0
   -9.0048    1.5182    5.4657 H   0  0  0  0  0  0  0  0  0  0  0  0
   -7.7226   -0.7225    4.7838 H   0  0  0  0  0  0  0  0  0  0  0  0
   -8.5332   -2.4128    3.8128 H   0  0  0  0  0  0  0  0  0  0  0  0
   -9.2839   -4.6773    4.3412 H   0  0  0  0  0  0  0  0  0  0  0  0
   -7.7571   -7.1924    6.4591 H   0  0  0  0  0  0  0  0  0  0  0  0
   -7.3825   -8.8771    5.8805 H   0  0  0  0  0  0  0  0  0  0  0  0
   -5.0627   -7.6827    5.1538 H   0  0  0  0  0  0  0  0  0  0  0  0
   -5.3172   -8.2207    6.8509 H   0  0  0  0  0  0  0  0  0  0  0  0
   -5.5800   -6.5158    6.4875 H   0  0  0  0  0  0  0  0  0  0  0  0
   -3.8505    3.0057    2.8707 H   0  0  0  0  0  0  0  0  0  0  0  0
   -2.6577    4.7144    1.5389 H   0  0  0  0  0  0  0  0  0  0  0  0
   -2.1169    6.3501   -1.0119 H   0  0  0  0  0  0  0  0  0  0  0  0
   -0.5900    6.3664   -1.9008 H   0  0  0  0  0  0  0  0  0  0  0  0
   -0.9900    7.2660    0.6838 H   0  0  0  0  0  0  0  0  0  0  0  0
   -0.2207    5.6229    1.0317 H   0  0  0  0  0  0  0  0  0  0  0  0
    0.6167    6.8993    0.0514 H   0  0  0  0  0  0  0  0  0  0  0  0
   -1.9808   -0.8273    0.4790 H   0  0  0  0  0  0  0  0  0  0  0  0
   -0.2542   -1.8725   -0.1196 H   0  0  0  0  0  0  0  0  0  0  0  0
    1.5728   -2.0285    0.8225 H   0  0  0  0  0  0  0  0  0  0  0  0
    3.0836   -0.1981    1.5596 H   0  0  0  0  0  0  0  0  0  0  0  0
    5.7163    3.4181    0.1844 H   0  0  0  0  0  0  0  0  0  0  0  0
    4.0639    2.9299    0.6433 H   0  0  0  0  0  0  0  0  0  0  0  0
    4.2690    2.3091   -2.2034 H   0  0  0  0  0  0  0  0  0  0  0  0
    3.4912    3.7683   -1.5188 H   0  0  0  0  0  0  0  0  0  0  0  0
    5.2113    3.8020   -1.9661 H   0  0  0  0  0  0  0  0  0  0  0  0
   -1.5054   -7.2005   -1.5904 H   0  0  0  0  0  0  0  0  0  0  0  0
   -2.4193   -9.2168   -2.7133 H   0  0  0  0  0  0  0  0  0  0  0  0
   -2.6052  -11.1980   -7.1709 H   0  0  0  0  0  0  0  0  0  0  0  0
   -3.3658   -9.8046   -6.2096 H   0  0  0  0  0  0  0  0  0  0  0  0
   -0.8337   -9.1344   -7.7462 H   0  0  0  0  0  0  0  0  0  0  0  0
   -2.3571   -9.4094   -8.6408 H   0  0  0  0  0  0  0  0  0  0  0  0
   -2.2843   -8.1842   -7.3522 H   0  0  0  0  0  0  0  0  0  0  0  0
    2.5180   -6.8394   -4.4631 H   0  0  0  0  0  0  0  0  0  0  0  0
    4.7994   -6.7678   -5.5959 H   0  0  0  0  0  0  0  0  0  0  0  0
    6.1842   -5.6129   -6.8738 H   0  0  0  0  0  0  0  0  0  0  0  0
    5.6454   -3.5962   -8.5046 H   0  0  0  0  0  0  0  0  0  0  0  0
    6.0421   -2.9088   -4.2232 H   0  0  0  0  0  0  0  0  0  0  0  0
    6.5084   -0.2559   -3.7266 H   0  0  0  0  0  0  0  0  0  0  0  0
    5.9180    1.0880   -6.3683 H   0  0  0  0  0  0  0  0  0  0  0  0
    6.5324    2.0301   -3.4294 H   0  0  0  0  0  0  0  0  0  0  0  0
    6.3732    4.1969   -3.9274 H   0  0  0  0  0  0  0  0  0  0  0  0
    6.6425    2.6851   -7.5606 H   0  0  0  0  0  0  0  0  0  0  0  0
    4.8813    5.8868   -5.1235 H   0  0  0  0  0  0  0  0  0  0  0  0
    3.8309    7.4026   -8.4908 H   0  0  0  0  0  0  0  0  0  0  0  0
    3.5749    7.4208   -5.4211 H   0  0  0  0  0  0  0  0  0  0  0  0
    2.8779    8.6301   -6.6200 H   0  0  0  0  0  0  0  0  0  0  0  0
  1  2  2  3
  2  3  1  0
  3  4  2  0
  4  5  1  0
  5  6  1  0
  6  7  2  0
  6  8  1  0
  8  9  2  3
  9 10  1  0
 10 11  2  3
 11 12  1  0
 12 13  2  0
 13 14  1  0
 14 15  1  0
 15 16  2  0
 15 17  1  0
 17 18  2  3
 18 19  1  0
 19 20  2  0
 20 21  1  0
 21 22  2  0
 22 23  1  0
 23 24  2  0
 24 25  1  0
 25 26  2  0
 26 27  1  0
 27 28  1  0
 28 29  1  0
 26 30  1  0
 22 31  1  0
 31 32  2  0
 32 33  1  0
 33 34  1  0
 34 35  2  0
 35 36  1  0
 36 37  2  0
 37 38  1  0
 38 39  1  0
 39 40  1  0
 37 41  1  0
 33 42  2  0
 42 43  1  0
 32 44  1  0
 44 45  2  0
 45 46  1  0
 45 47  1  0
 47 48  2  0
 48 49  1  0
 49 50  2  0
 50 51  1  0
 51 52  2  0
 52 53  1  0
 53 54  2  0
 54 55  1  0
 55 56  1  0
 56 57  1  0
 54 58  1  0
 50 59  1  0
 59 60  2  0
 60 61  1  0
 61 62  1  0
 62 63  2  0
 63 64  1  0
 64 65  2  0
 65 66  1  0
 66 67  1  0
 67 68  1  0
 65 69  1  0
 61 70  2  0
 70 71  1  0
 60 72  1  0
 72 73  2  0
 73 74  1  0
 73 75  1  0
 75 76  2  3
 76 77  1  0
 77 78  2  0
 78 79  1  0
 79 80  1  0
 80 81  2  0
 80 82  1  0
 82 83  2  3
 83 84  1  0
 84 85  2  3
 85 86  1  0
 86 87  2  0
 87 88  1  0
 88 89  1  0
 89 90  2  0
 89 91  1  0
 91 92  2  3
  7  3  1  0
 16 12  1  0
 43 19  1  0
 71 47  1  0
 81 77  1  0
 90 86  1  0
 42 21  1  0
 70 49  1  0
 30 23  1  0
 46 31  1  0
 58 51  1  0
 74 59  1  0
 41 34  1  0
 69 62  1  0
  1 93  1  0
  1 94  1  0
  2 95  1  0
  4 96  1  0
  7 97  1  0
  8 98  1  0
  9 99  1  0
 10100  1  0
 11101  1  0
 13102  1  0
 16103  1  0
 17104  1  0
 18105  1  0
 20106  1  0
 24107  1  0
 25108  1  0
 28109  1  0
 28110  1  0
 29111  1  0
 29112  1  0
 29113  1  0
 35114  1  0
 36115  1  0
 39116  1  0
 39117  1  0
 40118  1  0
 40119  1  0
 40120  1  0
 44121  1  0
 48122  1  0
 52123  1  0
 53124  1  0
 56125  1  0
 56126  1  0
 57127  1  0
 57128  1  0
 57129  1  0
 63130  1  0
 64131  1  0
 67132  1  0
 67133  1  0
 68134  1  0
 68135  1  0
 68136  1  0
 72137  1  0
 75138  1  0
 76139  1  0
 78140  1  0
 81141  1  0
 82142  1  0
 83143  1  0
 84144  1  0
 85145  1  0
 87146  1  0
 90147  1  0
 91148  1  0
 92149  1  0
 92150  1  0
M  END

