
     RDKit          3D

278307  0  0  0  0  0  0  0  0999 V2000
    5.1652  -10.9522    8.0777 C   0  0  0  0  0  0  0  0  0  0  0  0
    6.2210  -10.5119    7.3322 C   0  0  0  0  0  0  0  0  0  0  0  0
    5.9340   -9.9840    6.1095 C   0  0  0  0  0  0  0  0  0  0  0  0
    6.8650   -9.4979    5.1821 C   0  0  0  0  0  0  0  0  0  0  0  0
    8.2812   -9.3458    5.4701 C   0  0  0  0  0  0  0  0  0  0  0  0
    9.3699   -9.1563    4.7202 C   0  0  0  0  0  0  0  0  0  0  0  0
   10.5725   -8.9056    5.2378 C   0  0  0  0  0  0  0  0  0  0  0  0
   10.8475   -8.8143    6.5250 C   0  0  0  0  0  0  0  0  0  0  0  0
   12.2485   -8.5130    7.5364 S   0  0  0  0  0  0  0  0  0  0  0  0
   12.3926   -6.7202    7.8207 C   0  0  0  0  0  0  0  0  0  0  0  0
   12.7307   -5.9840    6.5334 C   0  0  0  0  0  0  0  0  0  0  0  0
    9.0320   -9.1568    7.2405 Se  0  0  0  0  0  2  0  0  0  0  0  0
    6.4013   -9.0202    3.9733 C   0  0  0  0  0  0  0  0  0  0  0  0
    5.0851   -8.9694    3.5741 C   0  0  0  0  0  0  0  0  0  0  0  0
    4.1533   -9.4524    4.5155 C   0  0  0  0  0  0  0  0  0  0  0  0
    2.7094   -9.4180    4.3503 C   0  0  0  0  0  0  0  0  0  0  0  0
    1.7740   -8.9819    3.5118 C   0  0  0  0  0  0  0  0  0  0  0  0
    0.4619   -9.1534    3.6774 C   0  0  0  0  0  0  0  0  0  0  0  0
   -0.0783   -9.7876    4.7121 C   0  0  0  0  0  0  0  0  0  0  0  0
   -1.7064  -10.1987    5.2224 S   0  0  0  0  0  0  0  0  0  0  0  0
   -2.4283   -8.8085    6.1254 C   0  0  0  0  0  0  0  0  0  0  0  0
   -1.7211   -8.5028    7.4150 C   0  0  0  0  0  0  0  0  0  0  0  0
    1.5472  -10.2617    5.6759 Se  0  0  0  0  0  2  0  0  0  0  0  0
    4.6366   -9.9383    5.7405 C   0  0  0  0  0  0  0  0  0  0  0  0
    3.8319  -10.6251    7.0807 S   0  0  0  0  0  0  0  0  0  0  0  0
    4.8489   -8.4201    2.3882 C   0  0  0  0  0  0  0  0  0  0  0  0
    5.9302   -7.9372    1.6565 C   0  0  0  0  0  0  0  0  0  0  0  0
    7.2219   -8.2809    2.6483 S   0  0  0  0  0  0  0  0  0  0  0  0
    5.8204   -7.2054    0.3568 C   0  0  0  0  0  0  0  0  0  0  0  0
    6.6460   -6.3086   -0.2332 C   0  0  0  0  0  0  0  0  0  0  0  0
    6.2056   -5.6051   -1.2968 C   0  0  0  0  0  0  0  0  0  0  0  0
    6.7927   -4.5125   -1.9371 C   0  0  0  0  0  0  0  0  0  0  0  0
    8.2070   -4.1679   -1.9030 C   0  0  0  0  0  0  0  0  0  0  0  0
    9.3377   -4.7476   -1.4435 C   0  0  0  0  0  0  0  0  0  0  0  0
   10.5439   -4.1966   -1.5788 C   0  0  0  0  0  0  0  0  0  0  0  0
   10.7909   -3.0569   -2.1577 C   0  0  0  0  0  0  0  0  0  0  0  0
   12.1173   -1.9798   -2.5871 S   0  0  0  0  0  0  0  0  0  0  0  0
   12.7104   -2.3675   -4.2293 C   0  0  0  0  0  0  0  0  0  0  0  0
   11.6616   -2.0474   -5.2838 C   0  0  0  0  0  0  0  0  0  0  0  0
    8.9106   -2.5768   -2.6466 Se  0  0  0  0  0  2  0  0  0  0  0  0
    6.0657   -3.7772   -2.8762 C   0  0  0  0  0  0  0  0  0  0  0  0
    4.7867   -4.0511   -3.2645 C   0  0  0  0  0  0  0  0  0  0  0  0
    4.1887   -5.1709   -2.6486 C   0  0  0  0  0  0  0  0  0  0  0  0
    2.9561   -5.7648   -3.1128 C   0  0  0  0  0  0  0  0  0  0  0  0
    2.1026   -6.7001   -2.6869 C   0  0  0  0  0  0  0  0  0  0  0  0
    1.1063   -7.1796   -3.4393 C   0  0  0  0  0  0  0  0  0  0  0  0
    0.8403   -6.8020   -4.6836 C   0  0  0  0  0  0  0  0  0  0  0  0
   -0.2388   -7.2644   -5.9909 S   0  0  0  0  0  0  0  0  0  0  0  0
   -1.8460   -6.5197   -5.7862 C   0  0  0  0  0  0  0  0  0  0  0  0
   -2.6025   -7.1285   -4.6154 C   0  0  0  0  0  0  0  0  0  0  0  0
    2.2775   -5.4560   -4.9000 Se  0  0  0  0  0  2  0  0  0  0  0  0
    4.9192   -5.8788   -1.6901 C   0  0  0  0  0  0  0  0  0  0  0  0
    4.4226   -7.0826   -0.5795 S   0  0  0  0  0  0  0  0  0  0  0  0
    4.1651   -3.1359   -4.0148 C   0  0  0  0  0  0  0  0  0  0  0  0
    4.8587   -1.9664   -4.3387 C   0  0  0  0  0  0  0  0  0  0  0  0
    6.3450   -2.2236   -3.6016 S   0  0  0  0  0  0  0  0  0  0  0  0
    4.1584   -0.7718   -4.8965 C   0  0  0  0  0  0  0  0  0  0  0  0
    4.5336    0.5151   -5.0245 C   0  0  0  0  0  0  0  0  0  0  0  0
    3.5479    1.4461   -5.2852 C   0  0  0  0  0  0  0  0  0  0  0  0
    3.6111    2.8678   -5.3083 C   0  0  0  0  0  0  0  0  0  0  0  0
    4.8269    3.6111   -5.2131 C   0  0  0  0  0  0  0  0  0  0  0  0
    5.1700    4.9166   -5.1222 C   0  0  0  0  0  0  0  0  0  0  0  0
    6.4399    5.3355   -5.0809 C   0  0  0  0  0  0  0  0  0  0  0  0
    7.5034    4.5534   -5.1239 C   0  0  0  0  0  0  0  0  0  0  0  0
    9.2495    4.6546   -5.0931 S   0  0  0  0  0  0  0  0  0  0  0  0
   10.0004    3.0369   -5.1244 C   0  0  0  0  0  0  0  0  0  0  0  0
    9.7640    2.2243   -3.8900 C   0  0  0  0  0  0  0  0  0  0  0  0
    6.5725    2.7885   -5.2389 Se  0  0  0  0  0  2  0  0  0  0  0  0
    2.4261    3.6041   -5.4293 C   0  0  0  0  0  0  0  0  0  0  0  0
    1.1816    3.0614   -5.5423 C   0  0  0  0  0  0  0  0  0  0  0  0
    1.0942    1.6893   -5.5185 C   0  0  0  0  0  0  0  0  0  0  0  0
   -0.0986    0.8729   -5.2800 C   0  0  0  0  0  0  0  0  0  0  0  0
   -1.3173    1.0044   -4.7691 C   0  0  0  0  0  0  0  0  0  0  0  0
   -2.1847   -0.0053   -4.6276 C   0  0  0  0  0  0  0  0  0  0  0  0
   -1.9172   -1.2433   -4.9795 C   0  0  0  0  0  0  0  0  0  0  0  0
   -2.7232   -2.8148   -4.8778 S   0  0  0  0  0  0  0  0  0  0  0  0
   -2.0890   -3.5681   -3.3068 C   0  0  0  0  0  0  0  0  0  0  0  0
   -2.6902   -2.7188   -2.2060 C   0  0  0  0  0  0  0  0  0  0  0  0
   -0.1158   -1.0206   -5.6503 Se  0  0  0  0  0  2  0  0  0  0  0  0
    2.2899    0.9577   -5.3894 C   0  0  0  0  0  0  0  0  0  0  0  0
    2.4753   -0.7044   -5.1463 S   0  0  0  0  0  0  0  0  0  0  0  0
    0.1381    3.9034   -5.5537 C   0  0  0  0  0  0  0  0  0  0  0  0
    0.4142    5.2859   -5.4430 C   0  0  0  0  0  0  0  0  0  0  0  0
    2.0483    5.3040   -5.3467 S   0  0  0  0  0  0  0  0  0  0  0  0
   -0.8134    6.1765   -5.3307 C   0  0  0  0  0  0  0  0  0  0  0  0
   -1.1544    6.7786   -4.1280 C   0  0  0  0  0  0  0  0  0  0  0  0
   -2.4651    7.0744   -3.9318 C   0  0  0  0  0  0  0  0  0  0  0  0
   -3.0815    7.3158   -2.6622 C   0  0  0  0  0  0  0  0  0  0  0  0
   -2.2990    7.5257   -1.4809 C   0  0  0  0  0  0  0  0  0  0  0  0
   -1.8904    8.6952   -0.9028 C   0  0  0  0  0  0  0  0  0  0  0  0
   -1.1321    8.7331    0.2622 C   0  0  0  0  0  0  0  0  0  0  0  0
   -0.7391    7.5877    0.9196 C   0  0  0  0  0  0  0  0  0  0  0  0
    0.2428    7.5836    2.4160 S   0  0  0  0  0  0  0  0  0  0  0  0
   -0.7389    7.5074    3.9166 C   0  0  0  0  0  0  0  0  0  0  0  0
   -1.6080    8.7001    4.1445 C   0  0  0  0  0  0  0  0  0  0  0  0
   -1.1388    6.3884    0.3484 C   0  0  0  0  0  0  0  0  0  0  0  0
   -0.8074    5.2033    0.9107 F   0  0  0  0  0  0  0  0  0  0  0  0
   -1.8835    6.3560   -0.8017 C   0  0  0  0  0  0  0  0  0  0  0  0
   -4.4774    7.2110   -2.5521 C   0  0  0  0  0  0  0  0  0  0  0  0
   -5.3491    6.9086   -3.5255 C   0  0  0  0  0  0  0  0  0  0  0  0
   -4.7348    6.7060   -4.7851 C   0  0  0  0  0  0  0  0  0  0  0  0
   -5.5115    6.4937   -6.0016 C   0  0  0  0  0  0  0  0  0  0  0  0
   -6.1213    7.6346   -6.5103 C   0  0  0  0  0  0  0  0  0  0  0  0
   -6.9133    7.5677   -7.6578 C   0  0  0  0  0  0  0  0  0  0  0  0
   -7.1030    6.3708   -8.3065 C   0  0  0  0  0  0  0  0  0  0  0  0
   -8.1296    6.3178   -9.7836 S   0  0  0  0  0  0  0  0  0  0  0  0
   -7.0841    6.5770  -11.2502 C   0  0  0  0  0  0  0  0  0  0  0  0
   -6.4966    7.9557  -11.2511 C   0  0  0  0  0  0  0  0  0  0  0  0
   -6.5026    5.2576   -7.8023 C   0  0  0  0  0  0  0  0  0  0  0  0
   -5.7162    5.3309   -6.6638 C   0  0  0  0  0  0  0  0  0  0  0  0
   -6.7353    4.0997   -8.4311 F   0  0  0  0  0  0  0  0  0  0  0  0
   -3.3510    6.7927   -4.9037 C   0  0  0  0  0  0  0  0  0  0  0  0
   -2.3065    6.0945   -6.1244 S   0  0  0  0  0  0  0  0  0  0  0  0
   -6.6080    6.4441   -3.1596 C   0  0  0  0  0  0  0  0  0  0  0  0
   -6.8639    6.3182   -1.8683 C   0  0  0  0  0  0  0  0  0  0  0  0
   -5.3795    6.8826   -1.1103 S   0  0  0  0  0  0  0  0  0  0  0  0
   -7.6522    5.2169   -1.1024 C   0  0  0  0  0  0  0  0  0  0  0  0
   -7.4414    3.8957   -1.5555 C   0  0  0  0  0  0  0  0  0  0  0  0
   -7.4835    2.9294   -0.6079 C   0  0  0  0  0  0  0  0  0  0  0  0
   -6.7523    1.6692   -0.7849 C   0  0  0  0  0  0  0  0  0  0  0  0
   -6.5255    1.1874   -2.1203 C   0  0  0  0  0  0  0  0  0  0  0  0
   -7.2193    0.0811   -2.5994 C   0  0  0  0  0  0  0  0  0  0  0  0
   -7.1397   -0.3216   -3.8908 C   0  0  0  0  0  0  0  0  0  0  0  0
   -6.3546    0.3412   -4.8550 C   0  0  0  0  0  0  0  0  0  0  0  0
   -6.4439   -0.2728   -6.4928 S   0  0  0  0  0  0  0  0  0  0  0  0
   -5.5723    0.5899   -7.7588 C   0  0  0  0  0  0  0  0  0  0  0  0
   -4.0941    0.5058   -7.7632 C   0  0  0  0  0  0  0  0  0  0  0  0
   -5.6665    1.4244   -4.3866 C   0  0  0  0  0  0  0  0  0  0  0  0
   -4.8588    2.0816   -5.2414 F   0  0  0  0  0  0  0  0  0  0  0  0
   -5.7329    1.8624   -3.0608 C   0  0  0  0  0  0  0  0  0  0  0  0
   -6.3783    0.9583    0.3245 C   0  0  0  0  0  0  0  0  0  0  0  0
   -6.6439    1.2976    1.6055 C   0  0  0  0  0  0  0  0  0  0  0  0
   -7.3974    2.5241    1.7806 C   0  0  0  0  0  0  0  0  0  0  0  0
   -7.8505    2.8936    3.0964 C   0  0  0  0  0  0  0  0  0  0  0  0
   -8.7970    2.0485    3.7111 C   0  0  0  0  0  0  0  0  0  0  0  0
   -9.2721    2.3312    4.9808 C   0  0  0  0  0  0  0  0  0  0  0  0
   -8.8667    3.4138    5.7010 C   0  0  0  0  0  0  0  0  0  0  0  0
   -9.4735    3.7591    7.3571 S   0  0  0  0  0  0  0  0  0  0  0  0
  -10.5843    2.4795    7.9425 C   0  0  0  0  0  0  0  0  0  0  0  0
   -9.8752    1.1837    8.1667 C   0  0  0  0  0  0  0  0  0  0  0  0
   -7.9292    4.2654    5.1070 C   0  0  0  0  0  0  0  0  0  0  0  0
   -7.4476    3.9807    3.8235 C   0  0  0  0  0  0  0  0  0  0  0  0
   -7.5312    5.3204    5.7875 F   0  0  0  0  0  0  0  0  0  0  0  0
   -7.7403    3.2454    0.6627 C   0  0  0  0  0  0  0  0  0  0  0  0
   -7.9368    5.0306    0.5097 S   0  0  0  0  0  0  0  0  0  0  0  0
   -5.9161    0.6998    2.5861 C   0  0  0  0  0  0  0  0  0  0  0  0
   -4.9346   -0.1924    2.1876 C   0  0  0  0  0  0  0  0  0  0  0  0
   -5.0818   -0.2153    0.5147 S   0  0  0  0  0  0  0  0  0  0  0  0
   -3.7955   -0.6297    3.0633 C   0  0  0  0  0  0  0  0  0  0  0  0
   -3.6011   -0.5355    4.3957 C   0  0  0  0  0  0  0  0  0  0  0  0
   -2.3476   -0.7777    4.8581 C   0  0  0  0  0  0  0  0  0  0  0  0
   -1.8803   -0.6991    6.1501 C   0  0  0  0  0  0  0  0  0  0  0  0
   -2.6071   -0.1196    7.2997 C   0  0  0  0  0  0  0  0  0  0  0  0
   -3.6992    0.6356    7.4084 C   0  0  0  0  0  0  0  0  0  0  0  0
   -4.1868    1.0316    8.5864 C   0  0  0  0  0  0  0  0  0  0  0  0
   -3.6343    0.7212    9.7529 C   0  0  0  0  0  0  0  0  0  0  0  0
   -3.9220    1.0838   11.4526 S   0  0  0  0  0  0  0  0  0  0  0  0
   -5.3637    2.1931   11.5174 C   0  0  0  0  0  0  0  0  0  0  0  0
   -6.6411    1.5094   11.0891 C   0  0  0  0  0  0  0  0  0  0  0  0
   -2.1146   -0.3464    9.0864 Se  0  0  0  0  0  2  0  0  0  0  0  0
   -0.5198   -0.9686    6.4233 C   0  0  0  0  0  0  0  0  0  0  0  0
    0.4140   -1.3028    5.4812 C   0  0  0  0  0  0  0  0  0  0  0  0
   -0.0698   -1.3693    4.1847 C   0  0  0  0  0  0  0  0  0  0  0  0
    0.8436   -1.3803    3.0032 C   0  0  0  0  0  0  0  0  0  0  0  0
    0.7215   -1.5416    1.6921 C   0  0  0  0  0  0  0  0  0  0  0  0
    1.7316   -1.3081    0.8319 C   0  0  0  0  0  0  0  0  0  0  0  0
    2.9282   -0.9038    1.1964 C   0  0  0  0  0  0  0  0  0  0  0  0
    4.4598   -0.4097    0.4760 S   0  0  0  0  0  0  0  0  0  0  0  0
    4.2954   -0.2608   -1.2960 C   0  0  0  0  0  0  0  0  0  0  0  0
    3.3908    0.9217   -1.5983 C   0  0  0  0  0  0  0  0  0  0  0  0
    2.6419   -0.8140    3.1368 Se  0  0  0  0  0  2  0  0  0  0  0  0
   -1.3882   -1.1179    3.9153 C   0  0  0  0  0  0  0  0  0  0  0  0
   -2.2867   -1.0832    2.4494 S   0  0  0  0  0  0  0  0  0  0  0  0
    1.6691   -1.5418    5.9355 C   0  0  0  0  0  0  0  0  0  0  0  0
    1.8999   -1.4251    7.2797 C   0  0  0  0  0  0  0  0  0  0  0  0
    0.3681   -0.9896    7.8784 S   0  0  0  0  0  0  0  0  0  0  0  0
    5.1993  -11.4031    9.0881 H   0  0  0  0  0  0  0  0  0  0  0  0
    7.2353  -10.6212    7.7619 H   0  0  0  0  0  0  0  0  0  0  0  0
    9.2316   -9.2395    3.5926 H   0  0  0  0  0  0  0  0  0  0  0  0
   11.4584   -8.7346    4.5070 H   0  0  0  0  0  0  0  0  0  0  0  0
   11.4415   -6.3055    8.1964 H   0  0  0  0  0  0  0  0  0  0  0  0
   13.2268   -6.5878    8.5276 H   0  0  0  0  0  0  0  0  0  0  0  0
   13.3889   -6.6023    5.8881 H   0  0  0  0  0  0  0  0  0  0  0  0
   13.1706   -5.0066    6.7722 H   0  0  0  0  0  0  0  0  0  0  0  0
   11.7912   -5.8678    5.9535 H   0  0  0  0  0  0  0  0  0  0  0  0
    2.1163   -8.3916    2.6038 H   0  0  0  0  0  0  0  0  0  0  0  0
   -0.2720   -8.7309    2.9063 H   0  0  0  0  0  0  0  0  0  0  0  0
   -3.5302   -8.9713    6.2847 H   0  0  0  0  0  0  0  0  0  0  0  0
   -2.3076   -7.9142    5.4933 H   0  0  0  0  0  0  0  0  0  0  0  0
   -1.2992   -7.4482    7.3974 H   0  0  0  0  0  0  0  0  0  0  0  0
   -0.8473   -9.1586    7.5151 H   0  0  0  0  0  0  0  0  0  0  0  0
   -2.3771   -8.5700    8.3009 H   0  0  0  0  0  0  0  0  0  0  0  0
    3.8744   -8.3334    1.8965 H   0  0  0  0  0  0  0  0  0  0  0  0
    7.6589   -6.1705    0.2204 H   0  0  0  0  0  0  0  0  0  0  0  0
    9.2101   -5.7762   -0.9637 H   0  0  0  0  0  0  0  0  0  0  0  0
   11.4458   -4.7739   -1.1459 H   0  0  0  0  0  0  0  0  0  0  0  0
   13.6461   -1.8024   -4.4260 H   0  0  0  0  0  0  0  0  0  0  0  0
   13.0046   -3.4391   -4.3643 H   0  0  0  0  0  0  0  0  0  0  0  0
   10.6831   -2.3868   -4.9501 H   0  0  0  0  0  0  0  0  0  0  0  0
   11.9187   -2.5396   -6.2537 H   0  0  0  0  0  0  0  0  0  0  0  0
   11.6686   -0.9437   -5.3861 H   0  0  0  0  0  0  0  0  0  0  0  0
    2.2379   -7.0914   -1.6209 H   0  0  0  0  0  0  0  0  0  0  0  0
    0.3923   -7.9751   -3.0017 H   0  0  0  0  0  0  0  0  0  0  0  0
   -2.5075   -6.6730   -6.6824 H   0  0  0  0  0  0  0  0  0  0  0  0
   -1.8343   -5.4471   -5.6036 H   0  0  0  0  0  0  0  0  0  0  0  0
   -1.9136   -7.1916   -3.7514 H   0  0  0  0  0  0  0  0  0  0  0  0
   -2.9366   -8.1264   -4.9543 H   0  0  0  0  0  0  0  0  0  0  0  0
   -3.5098   -6.5097   -4.3867 H   0  0  0  0  0  0  0  0  0  0  0  0
    3.1238   -3.2558   -4.3711 H   0  0  0  0  0  0  0  0  0  0  0  0
    5.6165    0.8114   -4.9342 H   0  0  0  0  0  0  0  0  0  0  0  0
    4.3174    5.6725   -5.0775 H   0  0  0  0  0  0  0  0  0  0  0  0
    6.6411    6.4671   -5.0093 H   0  0  0  0  0  0  0  0  0  0  0  0
    9.6686    2.4413   -6.0315 H   0  0  0  0  0  0  0  0  0  0  0  0
   11.0996    3.1977   -5.2680 H   0  0  0  0  0  0  0  0  0  0  0  0
   10.7048    1.6742   -3.6050 H   0  0  0  0  0  0  0  0  0  0  0  0
    9.0182    1.4356   -4.1551 H   0  0  0  0  0  0  0  0  0  0  0  0
    9.3909    2.7927   -3.0390 H   0  0  0  0  0  0  0  0  0  0  0  0
   -1.6154    2.0641   -4.4095 H   0  0  0  0  0  0  0  0  0  0  0  0
   -3.1977    0.2144   -4.1661 H   0  0  0  0  0  0  0  0  0  0  0  0
   -0.9821   -3.3367   -3.2747 H   0  0  0  0  0  0  0  0  0  0  0  0
   -2.2610   -4.6215   -3.2341 H   0  0  0  0  0  0  0  0  0  0  0  0
   -3.7872   -2.7164   -2.4349 H   0  0  0  0  0  0  0  0  0  0  0  0
   -2.2838   -1.6982   -2.3095 H   0  0  0  0  0  0  0  0  0  0  0  0
   -2.4881   -3.1334   -1.2141 H   0  0  0  0  0  0  0  0  0  0  0  0
   -0.9255    3.6096   -5.6681 H   0  0  0  0  0  0  0  0  0  0  0  0
   -0.3661    7.0016   -3.4032 H   0  0  0  0  0  0  0  0  0  0  0  0
   -2.1703    9.6238   -1.4134 H   0  0  0  0  0  0  0  0  0  0  0  0
   -0.8384    9.7060    0.6903 H   0  0  0  0  0  0  0  0  0  0  0  0
   -1.3559    6.5494    3.9960 H   0  0  0  0  0  0  0  0  0  0  0  0
   -0.0322    7.4444    4.7664 H   0  0  0  0  0  0  0  0  0  0  0  0
   -1.2974    9.5318    3.4749 H   0  0  0  0  0  0  0  0  0  0  0  0
   -2.6937    8.4882    3.9865 H   0  0  0  0  0  0  0  0  0  0  0  0
   -1.5117    9.1192    5.1813 H   0  0  0  0  0  0  0  0  0  0  0  0
   -2.1905    5.4154   -1.2693 H   0  0  0  0  0  0  0  0  0  0  0  0
   -6.0150    8.6164   -6.0521 H   0  0  0  0  0  0  0  0  0  0  0  0
   -7.4033    8.4144   -8.0650 H   0  0  0  0  0  0  0  0  0  0  0  0
   -7.7050    6.3975  -12.1296 H   0  0  0  0  0  0  0  0  0  0  0  0
   -6.2455    5.8563  -11.2707 H   0  0  0  0  0  0  0  0  0  0  0  0
   -5.9875    8.2222  -10.3140 H   0  0  0  0  0  0  0  0  0  0  0  0
   -7.2842    8.7588  -11.3878 H   0  0  0  0  0  0  0  0  0  0  0  0
   -5.7497    8.0330  -12.0642 H   0  0  0  0  0  0  0  0  0  0  0  0
   -5.2385    4.4588   -6.2585 H   0  0  0  0  0  0  0  0  0  0  0  0
   -7.3610    6.1786   -3.9237 H   0  0  0  0  0  0  0  0  0  0  0  0
   -7.2757    3.7488   -2.6117 H   0  0  0  0  0  0  0  0  0  0  0  0
   -7.8300   -0.4276   -1.8495 H   0  0  0  0  0  0  0  0  0  0  0  0
   -7.7420   -1.1891   -4.1576 H   0  0  0  0  0  0  0  0  0  0  0  0
   -5.8197    1.6941   -7.7898 H   0  0  0  0  0  0  0  0  0  0  0  0
   -5.9362    0.2312   -8.7717 H   0  0  0  0  0  0  0  0  0  0  0  0
   -3.6283    1.5347   -7.8837 H   0  0  0  0  0  0  0  0  0  0  0  0
   -3.6300   -0.0988   -7.0098 H   0  0  0  0  0  0  0  0  0  0  0  0
   -3.8123    0.0092   -8.7551 H   0  0  0  0  0  0  0  0  0  0  0  0
   -5.1739    2.7551   -2.7764 H   0  0  0  0  0  0  0  0  0  0  0  0
   -9.1506    1.1841    3.1996 H   0  0  0  0  0  0  0  0  0  0  0  0
  -10.0163    1.6894    5.4597 H   0  0  0  0  0  0  0  0  0  0  0  0
  -11.1434    2.8172    8.8394 H   0  0  0  0  0  0  0  0  0  0  0  0
  -11.3629    2.3181    7.1551 H   0  0  0  0  0  0  0  0  0  0  0  0
  -10.2332    0.7702    9.1581 H   0  0  0  0  0  0  0  0  0  0  0  0
  -10.1938    0.3866    7.4537 H   0  0  0  0  0  0  0  0  0  0  0  0
   -8.7642    1.2407    8.1442 H   0  0  0  0  0  0  0  0  0  0  0  0
   -6.7146    4.6246    3.3407 H   0  0  0  0  0  0  0  0  0  0  0  0
   -6.0512    0.8710    3.6608 H   0  0  0  0  0  0  0  0  0  0  0  0
   -4.5149   -0.3175    5.0066 H   0  0  0  0  0  0  0  0  0  0  0  0
   -4.2029    1.0057    6.4635 H   0  0  0  0  0  0  0  0  0  0  0  0
   -5.1545    1.6571    8.6171 H   0  0  0  0  0  0  0  0  0  0  0  0
   -5.2198    3.0761   10.8700 H   0  0  0  0  0  0  0  0  0  0  0  0
   -5.4245    2.5778   12.5494 H   0  0  0  0  0  0  0  0  0  0  0  0
   -7.2508    2.1712   10.4347 H   0  0  0  0  0  0  0  0  0  0  0  0
   -6.4744    0.6117   10.5115 H   0  0  0  0  0  0  0  0  0  0  0  0
   -7.2387    1.3312   11.9981 H   0  0  0  0  0  0  0  0  0  0  0  0
   -0.2798   -1.8962    1.2837 H   0  0  0  0  0  0  0  0  0  0  0  0
    1.5710   -1.4688   -0.2859 H   0  0  0  0  0  0  0  0  0  0  0  0
    5.2939   -0.0692   -1.7702 H   0  0  0  0  0  0  0  0  0  0  0  0
    3.8627   -1.1490   -1.8029 H   0  0  0  0  0  0  0  0  0  0  0  0
    3.6979    1.3914   -2.5398 H   0  0  0  0  0  0  0  0  0  0  0  0
    2.3224    0.6425   -1.6566 H   0  0  0  0  0  0  0  0  0  0  0  0
    3.5422    1.6889   -0.7928 H   0  0  0  0  0  0  0  0  0  0  0  0
    2.5448   -1.8535    5.3177 H   0  0  0  0  0  0  0  0  0  0  0  0
    2.8652   -1.5794    7.8024 H   0  0  0  0  0  0  0  0  0  0  0  0
  1  2  2  0
  2  3  1  0
  3  4  2  0
  4  5  1  0
  5  6  2  0
  6  7  1  0
  7  8  2  0
  8  9  1  0
  9 10  1  0
 10 11  1  0
  8 12  1  0
  4 13  1  0
 13 14  2  0
 14 15  1  0
 15 16  1  0
 16 17  2  0
 17 18  1  0
 18 19  2  0
 19 20  1  0
 20 21  1  0
 21 22  1  0
 19 23  1  0
 15 24  2  0
 24 25  1  0
 14 26  1  0
 26 27  2  0
 27 28  1  0
 27 29  1  0
 29 30  2  0
 30 31  1  0
 31 32  2  0
 32 33  1  0
 33 34  2  0
 34 35  1  0
 35 36  2  0
 36 37  1  0
 37 38  1  0
 38 39  1  0
 36 40  1  0
 32 41  1  0
 41 42  2  0
 42 43  1  0
 43 44  1  0
 44 45  2  0
 45 46  1  0
 46 47  2  0
 47 48  1  0
 48 49  1  0
 49 50  1  0
 47 51  1  0
 43 52  2  0
 52 53  1  0
 42 54  1  0
 54 55  2  0
 55 56  1  0
 55 57  1  0
 57 58  2  0
 58 59  1  0
 59 60  2  0
 60 61  1  0
 61 62  2  0
 62 63  1  0
 63 64  2  0
 64 65  1  0
 65 66  1  0
 66 67  1  0
 64 68  1  0
 60 69  1  0
 69 70  2  0
 70 71  1  0
 71 72  1  0
 72 73  2  0
 73 74  1  0
 74 75  2  0
 75 76  1  0
 76 77  1  0
 77 78  1  0
 75 79  1  0
 71 80  2  0
 80 81  1  0
 70 82  1  0
 82 83  2  0
 83 84  1  0
 83 85  1  0
 85 86  2  0
 86 87  1  0
 87 88  2  0
 88 89  1  0
 89 90  2  0
 90 91  1  0
 91 92  2  0
 92 93  1  0
 93 94  1  0
 94 95  1  0
 92 96  1  0
 96 97  1  0
 96 98  2  0
 88 99  1  0
 99100  2  0
100101  1  0
101102  1  0
102103  2  0
103104  1  0
104105  2  0
105106  1  0
106107  1  0
107108  1  0
105109  1  0
109110  2  0
109111  1  0
101112  2  0
112113  1  0
100114  1  0
114115  2  0
115116  1  0
115117  1  0
117118  2  0
118119  1  0
119120  2  0
120121  1  0
121122  2  0
122123  1  0
123124  2  0
124125  1  0
125126  1  0
126127  1  0
124128  1  0
128129  1  0
128130  2  0
120131  1  0
131132  2  0
132133  1  0
133134  1  0
134135  2  0
135136  1  0
136137  2  0
137138  1  0
138139  1  0
139140  1  0
137141  1  0
141142  2  0
141143  1  0
133144  2  0
144145  1  0
132146  1  0
146147  2  0
147148  1  0
147149  1  0
149150  2  0
150151  1  0
151152  2  0
152153  1  0
153154  2  0
154155  1  0
155156  2  0
156157  1  0
157158  1  0
158159  1  0
156160  1  0
152161  1  0
161162  2  0
162163  1  0
163164  1  0
164165  2  0
165166  1  0
166167  2  0
167168  1  0
168169  1  0
169170  1  0
167171  1  0
163172  2  0
172173  1  0
162174  1  0
174175  2  0
175176  1  0
 25  1  1  0
 53 29  1  0
 81 57  1  0
113 85  1  0
145117  1  0
173149  1  0
 24  3  1  0
 52 31  1  0
 80 59  1  0
112 87  1  0
144119  1  0
172151  1  0
 12  5  1  0
 28 13  1  0
 40 33  1  0
 56 41  1  0
 68 61  1  0
 84 69  1  0
 98 89  1  0
116 99  1  0
130121  1  0
148131  1  0
160153  1  0
176161  1  0
 23 16  1  0
 51 44  1  0
 79 72  1  0
110102  1  0
142134  1  0
171164  1  0
  1177  1  0
  2178  1  0
  6179  1  0
  7180  1  0
 10181  1  0
 10182  1  0
 11183  1  0
 11184  1  0
 11185  1  0
 17186  1  0
 18187  1  0
 21188  1  0
 21189  1  0
 22190  1  0
 22191  1  0
 22192  1  0
 26193  1  0
 30194  1  0
 34195  1  0
 35196  1  0
 38197  1  0
 38198  1  0
 39199  1  0
 39200  1  0
 39201  1  0
 45202  1  0
 46203  1  0
 49204  1  0
 49205  1  0
 50206  1  0
 50207  1  0
 50208  1  0
 54209  1  0
 58210  1  0
 62211  1  0
 63212  1  0
 66213  1  0
 66214  1  0
 67215  1  0
 67216  1  0
 67217  1  0
 73218  1  0
 74219  1  0
 77220  1  0
 77221  1  0
 78222  1  0
 78223  1  0
 78224  1  0
 82225  1  0
 86226  1  0
 90227  1  0
 91228  1  0
 94229  1  0
 94230  1  0
 95231  1  0
 95232  1  0
 95233  1  0
 98234  1  0
103235  1  0
104236  1  0
107237  1  0
107238  1  0
108239  1  0
108240  1  0
108241  1  0
110242  1  0
114243  1  0
118244  1  0
122245  1  0
123246  1  0
126247  1  0
126248  1  0
127249  1  0
127250  1  0
127251  1  0
130252  1  0
135253  1  0
136254  1  0
139255  1  0
139256  1  0
140257  1  0
140258  1  0
140259  1  0
142260  1  0
146261  1  0
150262  1  0
154263  1  0
155264  1  0
158265  1  0
158266  1  0
159267  1  0
159268  1  0
159269  1  0
165270  1  0
166271  1  0
169272  1  0
169273  1  0
170274  1  0
170275  1  0
170276  1  0
174277  1  0
175278  1  0
M  END

