
     RDKit          3D

191211  0  0  0  0  0  0  0  0999 V2000
    7.7869   -6.9283    9.3425 C   0  0  0  0  0  0  0  0  0  0  0  0
    8.2419   -5.8573    8.6212 C   0  0  0  0  0  0  0  0  0  0  0  0
    7.3378   -5.0707    8.0116 C   0  0  0  0  0  0  0  0  0  0  0  0
    7.5686   -3.9190    7.2575 C   0  0  0  0  0  0  0  0  0  0  0  0
    8.8630   -3.4120    6.8316 C   0  0  0  0  0  0  0  0  0  0  0  0
   10.1076   -3.8823    6.7190 C   0  0  0  0  0  0  0  0  0  0  0  0
   11.1320   -3.1018    6.3813 C   0  0  0  0  0  0  0  0  0  0  0  0
   11.0770   -1.8154    6.1241 C   0  0  0  0  0  0  0  0  0  0  0  0
   12.1524   -0.4878    5.6752 S   0  0  0  0  0  0  0  0  0  0  0  0
   12.2976   -0.2393    3.9042 C   0  0  0  0  0  0  0  0  0  0  0  0
   12.9563   -1.3743    3.1758 C   0  0  0  0  0  0  0  0  0  0  0  0
    9.1146   -1.5530    6.3970 Se  0  0  0  0  0  2  0  0  0  0  0  0
    6.4633   -3.2299    6.7492 C   0  0  0  0  0  0  0  0  0  0  0  0
    5.1685   -3.5732    6.9097 C   0  0  0  0  0  0  0  0  0  0  0  0
    4.9180   -4.7394    7.6685 C   0  0  0  0  0  0  0  0  0  0  0  0
    3.6102   -5.2350    7.9907 C   0  0  0  0  0  0  0  0  0  0  0  0
    2.3264   -4.9114    7.9229 C   0  0  0  0  0  0  0  0  0  0  0  0
    1.3243   -5.7064    8.2744 C   0  0  0  0  0  0  0  0  0  0  0  0
    1.4686   -6.9468    8.7522 C   0  0  0  0  0  0  0  0  0  0  0  0
    0.3450   -8.1997    9.2621 S   0  0  0  0  0  0  0  0  0  0  0  0
   -0.2354   -7.9898   10.9631 C   0  0  0  0  0  0  0  0  0  0  0  0
   -1.1044   -6.7307   11.0391 C   0  0  0  0  0  0  0  0  0  0  0  0
    3.4101   -7.0841    8.7219 Se  0  0  0  0  0  2  0  0  0  0  0  0
    6.0213   -5.4169    8.1737 C   0  0  0  0  0  0  0  0  0  0  0  0
    6.1079   -6.8192    9.1606 S   0  0  0  0  0  0  0  0  0  0  0  0
    4.2411   -2.7981    6.3407 C   0  0  0  0  0  0  0  0  0  0  0  0
    4.6843   -1.6981    5.6318 C   0  0  0  0  0  0  0  0  0  0  0  0
    6.3556   -1.7981    5.7868 S   0  0  0  0  0  0  0  0  0  0  0  0
    3.8032   -0.7094    4.9812 C   0  0  0  0  0  0  0  0  0  0  0  0
    2.1284   -0.7140    5.1663 S   0  0  0  0  0  0  0  0  0  0  0  0
    1.7346    0.6431    4.1223 C   0  0  0  0  0  0  0  0  0  0  0  0
    2.9657    1.0148    3.6961 C   0  0  0  0  0  0  0  0  0  0  0  0
    4.0533    0.3201    4.1346 C   0  0  0  0  0  0  0  0  0  0  0  0
    5.8113    0.5956    3.7275 S   0  0  0  0  0  0  0  0  0  0  0  0
    6.0341    1.7978    2.4310 C   0  0  0  0  0  0  0  0  0  0  0  0
    5.3244    3.0533    2.8238 C   0  0  0  0  0  0  0  0  0  0  0  0
    6.0741    3.9179    3.1871 O   0  0  0  0  0  0  0  0  0  0  0  0
    3.8748    3.2416    2.7824 C   0  0  0  0  0  0  0  0  0  0  0  0
    3.0844    2.1145    2.8191 O   0  0  0  0  0  0  0  0  0  0  0  0
    0.3722    1.1094    3.9932 C   0  0  0  0  0  0  0  0  0  0  0  0
   -0.3655    1.1150    2.9886 C   0  0  0  0  0  0  0  0  0  0  0  0
   -0.0582    0.6435    1.6450 C   0  0  0  0  0  0  0  0  0  0  0  0
   -1.0410    0.3460    0.6896 C   0  0  0  0  0  0  0  0  0  0  0  0
   -0.6192    0.0107   -0.5336 C   0  0  0  0  0  0  0  0  0  0  0  0
   -1.4324   -0.2655   -1.6402 C   0  0  0  0  0  0  0  0  0  0  0  0
   -2.8678   -0.5569   -1.4900 C   0  0  0  0  0  0  0  0  0  0  0  0
   -3.9189   -0.5968   -2.2958 C   0  0  0  0  0  0  0  0  0  0  0  0
   -5.1027   -1.0885   -1.9128 C   0  0  0  0  0  0  0  0  0  0  0  0
   -5.3485   -1.5810   -0.7039 C   0  0  0  0  0  0  0  0  0  0  0  0
   -6.6952   -2.2971    0.1783 S   0  0  0  0  0  0  0  0  0  0  0  0
   -7.5062   -1.0819    1.2491 C   0  0  0  0  0  0  0  0  0  0  0  0
   -6.5237   -0.6959    2.3605 C   0  0  0  0  0  0  0  0  0  0  0  0
   -3.5669   -1.3174    0.1184 Se  0  0  0  0  0  2  0  0  0  0  0  0
   -0.8710   -0.5263   -2.8577 C   0  0  0  0  0  0  0  0  0  0  0  0
    0.4884   -0.5673   -3.1315 C   0  0  0  0  0  0  0  0  0  0  0  0
    1.2913   -0.2958   -2.0280 C   0  0  0  0  0  0  0  0  0  0  0  0
    2.7471   -0.0776   -2.0663 C   0  0  0  0  0  0  0  0  0  0  0  0
    3.6483    0.1153   -3.0291 C   0  0  0  0  0  0  0  0  0  0  0  0
    4.9577    0.2757   -2.7957 C   0  0  0  0  0  0  0  0  0  0  0  0
    5.4893    0.2623   -1.5831 C   0  0  0  0  0  0  0  0  0  0  0  0
    7.0942    0.4232   -0.8738 S   0  0  0  0  0  0  0  0  0  0  0  0
    7.8551   -1.1680   -0.4333 C   0  0  0  0  0  0  0  0  0  0  0  0
    7.1118   -1.7808    0.7533 C   0  0  0  0  0  0  0  0  0  0  0  0
    3.8363   -0.0395   -0.5363 Se  0  0  0  0  0  2  0  0  0  0  0  0
    0.7123   -0.0204   -0.7772 C   0  0  0  0  0  0  0  0  0  0  0  0
    1.3587    0.4200    0.7366 S   0  0  0  0  0  0  0  0  0  0  0  0
    0.8114   -0.8127   -4.4107 C   0  0  0  0  0  0  0  0  0  0  0  0
   -0.1673   -0.9873   -5.3333 C   0  0  0  0  0  0  0  0  0  0  0  0
   -1.5925   -0.8145   -4.3773 S   0  0  0  0  0  0  0  0  0  0  0  0
   -0.1553   -1.2659   -6.7640 C   0  0  0  0  0  0  0  0  0  0  0  0
   -1.2278   -0.4515   -7.8517 S   0  0  0  0  0  0  0  0  0  0  0  0
   -0.8034   -1.1877   -9.3107 C   0  0  0  0  0  0  0  0  0  0  0  0
    0.1841   -2.0895   -8.9067 C   0  0  0  0  0  0  0  0  0  0  0  0
    0.4931   -2.1081   -7.6119 C   0  0  0  0  0  0  0  0  0  0  0  0
    1.7180   -3.1924   -6.7751 S   0  0  0  0  0  0  0  0  0  0  0  0
    2.1029   -4.5922   -7.8646 C   0  0  0  0  0  0  0  0  0  0  0  0
    2.6292   -4.0991   -9.1537 C   0  0  0  0  0  0  0  0  0  0  0  0
    3.8204   -4.2266   -9.3208 O   0  0  0  0  0  0  0  0  0  0  0  0
    1.9058   -3.4744  -10.2663 C   0  0  0  0  0  0  0  0  0  0  0  0
    0.7331   -2.8777   -9.9132 O   0  0  0  0  0  0  0  0  0  0  0  0
   -1.2696   -0.8337  -10.6535 C   0  0  0  0  0  0  0  0  0  0  0  0
   -2.1695    0.0857  -10.8814 C   0  0  0  0  0  0  0  0  0  0  0  0
   -2.8694    0.8823   -9.8496 C   0  0  0  0  0  0  0  0  0  0  0  0
   -3.7352    0.2636   -8.4839 S   0  0  0  0  0  0  0  0  0  0  0  0
   -4.1010    1.7378   -7.6843 C   0  0  0  0  0  0  0  0  0  0  0  0
   -3.5372    2.6559   -8.5158 C   0  0  0  0  0  0  0  0  0  0  0  0
   -2.9106    2.2218   -9.6191 C   0  0  0  0  0  0  0  0  0  0  0  0
   -2.0722    3.2879  -10.8536 S   0  0  0  0  0  0  0  0  0  0  0  0
   -1.3027    4.7055  -10.0292 C   0  0  0  0  0  0  0  0  0  0  0  0
   -2.3039    5.5631   -9.3301 C   0  0  0  0  0  0  0  0  0  0  0  0
   -1.9074    6.6810   -9.1100 O   0  0  0  0  0  0  0  0  0  0  0  0
   -3.6598    5.2015   -8.9052 C   0  0  0  0  0  0  0  0  0  0  0  0
   -3.6752    4.0222   -8.1211 O   0  0  0  0  0  0  0  0  0  0  0  0
   -4.8625    1.8578   -6.4459 C   0  0  0  0  0  0  0  0  0  0  0  0
   -4.9653    2.9299   -5.6935 C   0  0  0  0  0  0  0  0  0  0  0  0
   -5.8156    2.7515   -4.4831 C   0  0  0  0  0  0  0  0  0  0  0  0
   -5.9769    3.5576   -3.3932 C   0  0  0  0  0  0  0  0  0  0  0  0
   -6.8579    3.1712   -2.4450 C   0  0  0  0  0  0  0  0  0  0  0  0
   -7.1899    3.8271   -1.2675 C   0  0  0  0  0  0  0  0  0  0  0  0
   -6.4593    4.9531   -0.7042 C   0  0  0  0  0  0  0  0  0  0  0  0
   -5.2877    5.5584   -0.8788 C   0  0  0  0  0  0  0  0  0  0  0  0
   -4.8973    6.6375   -0.1915 C   0  0  0  0  0  0  0  0  0  0  0  0
   -5.6307    7.2234    0.7437 C   0  0  0  0  0  0  0  0  0  0  0  0
   -5.4552    8.5798    1.8680 S   0  0  0  0  0  0  0  0  0  0  0  0
   -4.7723    7.8869    3.4268 C   0  0  0  0  0  0  0  0  0  0  0  0
   -3.3928    7.3497    3.2632 C   0  0  0  0  0  0  0  0  0  0  0  0
   -7.2220    6.0614    0.6883 Se  0  0  0  0  0  2  0  0  0  0  0  0
   -8.1612    3.2700   -0.4264 C   0  0  0  0  0  0  0  0  0  0  0  0
   -8.8289    2.0949   -0.6681 C   0  0  0  0  0  0  0  0  0  0  0  0
   -8.4924    1.4334   -1.8303 C   0  0  0  0  0  0  0  0  0  0  0  0
   -8.9510    0.1013   -2.2238 C   0  0  0  0  0  0  0  0  0  0  0  0
   -9.5676   -0.9346   -1.6746 C   0  0  0  0  0  0  0  0  0  0  0  0
   -9.9147   -2.0443   -2.3460 C   0  0  0  0  0  0  0  0  0  0  0  0
   -9.6686   -2.2168   -3.6421 C   0  0  0  0  0  0  0  0  0  0  0  0
   -9.9484   -3.4892   -4.8437 S   0  0  0  0  0  0  0  0  0  0  0  0
   -8.6020   -4.7157   -4.8467 C   0  0  0  0  0  0  0  0  0  0  0  0
   -8.5961   -5.5133   -3.5666 C   0  0  0  0  0  0  0  0  0  0  0  0
   -8.7795   -0.5171   -4.0426 Se  0  0  0  0  0  2  0  0  0  0  0  0
   -7.5219    2.0028   -2.6669 C   0  0  0  0  0  0  0  0  0  0  0  0
   -6.9005    1.4747   -4.1682 S   0  0  0  0  0  0  0  0  0  0  0  0
   -9.7524    1.7343    0.2540 C   0  0  0  0  0  0  0  0  0  0  0  0
   -9.9379    2.5497    1.3357 C   0  0  0  0  0  0  0  0  0  0  0  0
   -8.8318    3.8064    1.0482 S   0  0  0  0  0  0  0  0  0  0  0  0
    8.4015   -7.6733    9.8955 H   0  0  0  0  0  0  0  0  0  0  0  0
    9.3486   -5.6872    8.6182 H   0  0  0  0  0  0  0  0  0  0  0  0
   10.2712   -4.9969    6.8749 H   0  0  0  0  0  0  0  0  0  0  0  0
   12.1966   -3.5728    6.2922 H   0  0  0  0  0  0  0  0  0  0  0  0
   12.9697    0.6548    3.7498 H   0  0  0  0  0  0  0  0  0  0  0  0
   11.3379    0.0642    3.4476 H   0  0  0  0  0  0  0  0  0  0  0  0
   13.0949   -1.0593    2.1163 H   0  0  0  0  0  0  0  0  0  0  0  0
   13.9754   -1.5167    3.5790 H   0  0  0  0  0  0  0  0  0  0  0  0
   12.3524   -2.2888    3.1803 H   0  0  0  0  0  0  0  0  0  0  0  0
    2.0774   -3.8446    7.5710 H   0  0  0  0  0  0  0  0  0  0  0  0
    0.2403   -5.3347    8.1756 H   0  0  0  0  0  0  0  0  0  0  0  0
    0.5673   -7.9814   11.7014 H   0  0  0  0  0  0  0  0  0  0  0  0
   -0.9020   -8.8470   11.2033 H   0  0  0  0  0  0  0  0  0  0  0  0
   -2.1735   -6.9737   11.2207 H   0  0  0  0  0  0  0  0  0  0  0  0
   -1.0667   -6.1834   10.0522 H   0  0  0  0  0  0  0  0  0  0  0  0
   -0.7574   -6.0607   11.8303 H   0  0  0  0  0  0  0  0  0  0  0  0
    3.1484   -2.9659    6.3526 H   0  0  0  0  0  0  0  0  0  0  0  0
    7.1131    1.9348    2.2680 H   0  0  0  0  0  0  0  0  0  0  0  0
    5.5856    1.4309    1.4712 H   0  0  0  0  0  0  0  0  0  0  0  0
    3.6168    3.9193    3.6426 H   0  0  0  0  0  0  0  0  0  0  0  0
    3.5525    3.8465    1.8836 H   0  0  0  0  0  0  0  0  0  0  0  0
   -0.0408    1.5165    4.9431 H   0  0  0  0  0  0  0  0  0  0  0  0
   -1.3948    1.5487    3.1237 H   0  0  0  0  0  0  0  0  0  0  0  0
   -2.0971    0.4263    1.0078 H   0  0  0  0  0  0  0  0  0  0  0  0
   -3.7946   -0.1934   -3.3554 H   0  0  0  0  0  0  0  0  0  0  0  0
   -5.9927   -1.0964   -2.6450 H   0  0  0  0  0  0  0  0  0  0  0  0
   -7.6778   -0.1859    0.6267 H   0  0  0  0  0  0  0  0  0  0  0  0
   -8.4033   -1.4932    1.7301 H   0  0  0  0  0  0  0  0  0  0  0  0
   -7.0791   -0.2028    3.2150 H   0  0  0  0  0  0  0  0  0  0  0  0
   -5.7398   -0.0181    2.0363 H   0  0  0  0  0  0  0  0  0  0  0  0
   -6.0290   -1.6308    2.7172 H   0  0  0  0  0  0  0  0  0  0  0  0
    3.2843    0.2042   -4.1057 H   0  0  0  0  0  0  0  0  0  0  0  0
    5.6879    0.4472   -3.6667 H   0  0  0  0  0  0  0  0  0  0  0  0
    8.8998   -1.0214   -0.1321 H   0  0  0  0  0  0  0  0  0  0  0  0
    7.7904   -1.9134   -1.2612 H   0  0  0  0  0  0  0  0  0  0  0  0
    7.6824   -1.5696    1.7027 H   0  0  0  0  0  0  0  0  0  0  0  0
    6.1332   -1.2818    0.8954 H   0  0  0  0  0  0  0  0  0  0  0  0
    7.0058   -2.8658    0.6752 H   0  0  0  0  0  0  0  0  0  0  0  0
    1.8544   -0.9355   -4.7723 H   0  0  0  0  0  0  0  0  0  0  0  0
    2.9089   -5.1601   -7.3611 H   0  0  0  0  0  0  0  0  0  0  0  0
    1.2463   -5.2844   -7.9613 H   0  0  0  0  0  0  0  0  0  0  0  0
    2.5572   -2.7192  -10.8101 H   0  0  0  0  0  0  0  0  0  0  0  0
    1.6757   -4.2990  -11.0381 H   0  0  0  0  0  0  0  0  0  0  0  0
   -0.8323   -1.3804  -11.4949 H   0  0  0  0  0  0  0  0  0  0  0  0
   -2.4151    0.2618  -11.9335 H   0  0  0  0  0  0  0  0  0  0  0  0
   -0.4753    4.4053   -9.3309 H   0  0  0  0  0  0  0  0  0  0  0  0
   -0.8397    5.3300  -10.8148 H   0  0  0  0  0  0  0  0  0  0  0  0
   -4.1014    6.0232   -8.2878 H   0  0  0  0  0  0  0  0  0  0  0  0
   -4.3382    5.0204   -9.7845 H   0  0  0  0  0  0  0  0  0  0  0  0
   -5.4087    0.9327   -6.1304 H   0  0  0  0  0  0  0  0  0  0  0  0
   -4.4962    3.8473   -5.8973 H   0  0  0  0  0  0  0  0  0  0  0  0
   -5.3894    4.5024   -3.3895 H   0  0  0  0  0  0  0  0  0  0  0  0
   -4.5557    5.0966   -1.6307 H   0  0  0  0  0  0  0  0  0  0  0  0
   -3.8709    7.1012   -0.4039 H   0  0  0  0  0  0  0  0  0  0  0  0
   -5.4170    7.0207    3.7522 H   0  0  0  0  0  0  0  0  0  0  0  0
   -4.8810    8.6684    4.1846 H   0  0  0  0  0  0  0  0  0  0  0  0
   -3.4590    6.2918    2.9125 H   0  0  0  0  0  0  0  0  0  0  0  0
   -2.7583    7.8901    2.5643 H   0  0  0  0  0  0  0  0  0  0  0  0
   -2.9153    7.3566    4.2950 H   0  0  0  0  0  0  0  0  0  0  0  0
   -9.7765   -0.9274   -0.5591 H   0  0  0  0  0  0  0  0  0  0  0  0
  -10.4543   -2.9137   -1.8170 H   0  0  0  0  0  0  0  0  0  0  0  0
   -7.6459   -4.1063   -4.8072 H   0  0  0  0  0  0  0  0  0  0  0  0
   -8.5540   -5.3154   -5.7562 H   0  0  0  0  0  0  0  0  0  0  0  0
   -8.1288   -6.4874   -3.7820 H   0  0  0  0  0  0  0  0  0  0  0  0
   -8.0245   -5.0070   -2.7731 H   0  0  0  0  0  0  0  0  0  0  0  0
   -9.6309   -5.6794   -3.1883 H   0  0  0  0  0  0  0  0  0  0  0  0
  -10.4045    0.8324    0.2096 H   0  0  0  0  0  0  0  0  0  0  0  0
  -10.6416    2.4130    2.1777 H   0  0  0  0  0  0  0  0  0  0  0  0
  1  2  2  0
  2  3  1  0
  3  4  2  0
  4  5  1  0
  5  6  2  0
  6  7  1  0
  7  8  2  0
  8  9  1  0
  9 10  1  0
 10 11  1  0
  8 12  1  0
  4 13  1  0
 13 14  2  0
 14 15  1  0
 15 16  1  0
 16 17  2  0
 17 18  1  0
 18 19  2  0
 19 20  1  0
 20 21  1  0
 21 22  1  0
 19 23  1  0
 15 24  2  0
 24 25  1  0
 14 26  1  0
 26 27  2  0
 27 28  1  0
 27 29  1  0
 29 30  1  0
 30 31  1  0
 31 32  2  0
 32 33  1  0
 33 34  1  0
 34 35  1  0
 35 36  1  0
 36 37  2  0
 36 38  1  0
 38 39  1  0
 31 40  1  0
 40 41  2  3
 41 42  1  0
 42 43  2  0
 43 44  1  0
 44 45  2  0
 45 46  1  0
 46 47  2  0
 47 48  1  0
 48 49  2  0
 49 50  1  0
 50 51  1  0
 51 52  1  0
 49 53  1  0
 45 54  1  0
 54 55  2  0
 55 56  1  0
 56 57  1  0
 57 58  2  0
 58 59  1  0
 59 60  2  0
 60 61  1  0
 61 62  1  0
 62 63  1  0
 60 64  1  0
 56 65  2  0
 65 66  1  0
 55 67  1  0
 67 68  2  0
 68 69  1  0
 68 70  1  0
 70 71  1  0
 71 72  1  0
 72 73  2  0
 73 74  1  0
 74 75  1  0
 75 76  1  0
 76 77  1  0
 77 78  2  0
 77 79  1  0
 79 80  1  0
 72 81  1  0
 81 82  2  3
 82 83  1  0
 83 84  1  0
 84 85  1  0
 85 86  2  0
 86 87  1  0
 87 88  1  0
 88 89  1  0
 89 90  1  0
 90 91  2  0
 90 92  1  0
 92 93  1  0
 85 94  1  0
 94 95  2  3
 95 96  1  0
 96 97  2  0
 97 98  1  0
 98 99  2  0
 99100  1  0
100101  2  0
101102  1  0
102103  2  0
103104  1  0
104105  1  0
105106  1  0
103107  1  0
 99108  1  0
108109  2  0
109110  1  0
110111  1  0
111112  2  0
112113  1  0
113114  2  0
114115  1  0
115116  1  0
116117  1  0
114118  1  0
110119  2  0
119120  1  0
109121  1  0
121122  2  0
122123  1  0
 25  1  1  0
 33 29  2  0
 66 42  1  0
 74 70  2  0
 87 83  2  0
120 96  1  0
 24  3  1  0
 39 32  1  0
 65 44  1  0
 80 73  1  0
 93 86  1  0
119 98  1  0
 12  5  1  0
 28 13  1  0
 53 46  1  0
 69 54  1  0
107100  1  0
123108  1  0
 23 16  1  0
 64 57  1  0
118111  1  0
  1124  1  0
  2125  1  0
  6126  1  0
  7127  1  0
 10128  1  0
 10129  1  0
 11130  1  0
 11131  1  0
 11132  1  0
 17133  1  0
 18134  1  0
 21135  1  0
 21136  1  0
 22137  1  0
 22138  1  0
 22139  1  0
 26140  1  0
 35141  1  0
 35142  1  0
 38143  1  0
 38144  1  0
 40145  1  0
 41146  1  0
 43147  1  0
 47148  1  0
 48149  1  0
 51150  1  0
 51151  1  0
 52152  1  0
 52153  1  0
 52154  1  0
 58155  1  0
 59156  1  0
 62157  1  0
 62158  1  0
 63159  1  0
 63160  1  0
 63161  1  0
 67162  1  0
 76163  1  0
 76164  1  0
 79165  1  0
 79166  1  0
 81167  1  0
 82168  1  0
 89169  1  0
 89170  1  0
 92171  1  0
 92172  1  0
 94173  1  0
 95174  1  0
 97175  1  0
101176  1  0
102177  1  0
105178  1  0
105179  1  0
106180  1  0
106181  1  0
106182  1  0
112183  1  0
113184  1  0
116185  1  0
116186  1  0
117187  1  0
117188  1  0
117189  1  0
121190  1  0
122191  1  0
M  END

