
     RDKit          3D

278307  0  0  0  0  0  0  0  0999 V2000
   -3.2044   -7.0961   10.5709 C   0  0  0  0  0  0  0  0  0  0  0  0
   -2.0581   -7.0025    9.8276 C   0  0  0  0  0  0  0  0  0  0  0  0
   -2.1276   -7.2367    8.4975 C   0  0  0  0  0  0  0  0  0  0  0  0
   -1.0730   -7.2072    7.5604 C   0  0  0  0  0  0  0  0  0  0  0  0
    0.2619   -6.7976    7.8399 C   0  0  0  0  0  0  0  0  0  0  0  0
    1.4687   -6.8475    7.2734 C   0  0  0  0  0  0  0  0  0  0  0  0
    2.5625   -6.2952    7.7642 C   0  0  0  0  0  0  0  0  0  0  0  0
    2.6144   -5.6054    8.9049 C   0  0  0  0  0  0  0  0  0  0  0  0
    3.8692   -4.8189    9.8330 S   0  0  0  0  0  0  0  0  0  0  0  0
    3.2017   -4.0139   11.3046 C   0  0  0  0  0  0  0  0  0  0  0  0
    2.3627   -2.8180   10.8635 C   0  0  0  0  0  0  0  0  0  0  0  0
    0.7306   -5.7322    9.4422 Se  0  0  0  0  0  2  0  0  0  0  0  0
   -1.3810   -7.5057    6.2279 C   0  0  0  0  0  0  0  0  0  0  0  0
   -2.6187   -7.8347    5.7459 C   0  0  0  0  0  0  0  0  0  0  0  0
   -3.6589   -7.8539    6.6853 C   0  0  0  0  0  0  0  0  0  0  0  0
   -5.0521   -8.0773    6.3419 C   0  0  0  0  0  0  0  0  0  0  0  0
   -6.1743   -8.3242    7.0606 C   0  0  0  0  0  0  0  0  0  0  0  0
   -7.3713   -8.4325    6.5111 C   0  0  0  0  0  0  0  0  0  0  0  0
   -7.6373   -8.3188    5.2094 C   0  0  0  0  0  0  0  0  0  0  0  0
   -9.0401   -8.4240    4.1633 S   0  0  0  0  0  0  0  0  0  0  0  0
   -9.8795   -6.8621    3.9800 C   0  0  0  0  0  0  0  0  0  0  0  0
  -10.5415   -6.3286    5.2146 C   0  0  0  0  0  0  0  0  0  0  0  0
   -5.7877   -7.9786    4.5634 Se  0  0  0  0  0  2  0  0  0  0  0  0
   -3.3615   -7.5555    8.0048 C   0  0  0  0  0  0  0  0  0  0  0  0
   -4.3483   -7.5064    9.4026 S   0  0  0  0  0  0  0  0  0  0  0  0
   -2.6979   -8.0941    4.4215 C   0  0  0  0  0  0  0  0  0  0  0  0
   -1.5457   -8.0006    3.6795 C   0  0  0  0  0  0  0  0  0  0  0  0
   -0.3978   -7.5743    4.8038 S   0  0  0  0  0  0  0  0  0  0  0  0
   -1.4082   -8.1320    2.2251 C   0  0  0  0  0  0  0  0  0  0  0  0
   -0.3876   -7.6907    1.4069 C   0  0  0  0  0  0  0  0  0  0  0  0
   -0.6056   -7.7229    0.0708 C   0  0  0  0  0  0  0  0  0  0  0  0
    0.2226   -7.1504   -0.9369 C   0  0  0  0  0  0  0  0  0  0  0  0
    1.4747   -6.4959   -0.6615 C   0  0  0  0  0  0  0  0  0  0  0  0
    2.5520   -6.0682   -1.2958 C   0  0  0  0  0  0  0  0  0  0  0  0
    3.5526   -5.3692   -0.7453 C   0  0  0  0  0  0  0  0  0  0  0  0
    3.6124   -5.0005    0.5315 C   0  0  0  0  0  0  0  0  0  0  0  0
    4.6475   -4.1552    1.6579 S   0  0  0  0  0  0  0  0  0  0  0  0
    3.8212   -4.0317    3.3108 C   0  0  0  0  0  0  0  0  0  0  0  0
    3.6416   -5.3831    3.9285 C   0  0  0  0  0  0  0  0  0  0  0  0
    1.8871   -5.7934    1.1291 Se  0  0  0  0  0  2  0  0  0  0  0  0
   -0.2639   -7.1245   -2.2527 C   0  0  0  0  0  0  0  0  0  0  0  0
   -1.4513   -7.6004   -2.6732 C   0  0  0  0  0  0  0  0  0  0  0  0
   -2.2443   -8.1626   -1.6827 C   0  0  0  0  0  0  0  0  0  0  0  0
   -3.6445   -8.5701   -1.8520 C   0  0  0  0  0  0  0  0  0  0  0  0
   -4.6175   -8.3075   -2.7387 C   0  0  0  0  0  0  0  0  0  0  0  0
   -5.8052   -8.9243   -2.6923 C   0  0  0  0  0  0  0  0  0  0  0  0
   -6.1571   -9.8330   -1.7837 C   0  0  0  0  0  0  0  0  0  0  0  0
   -7.5489  -10.8240   -1.4756 S   0  0  0  0  0  0  0  0  0  0  0  0
   -8.7857   -9.8791   -0.5401 C   0  0  0  0  0  0  0  0  0  0  0  0
   -8.3722   -9.5755    0.8574 C   0  0  0  0  0  0  0  0  0  0  0  0
   -4.4687   -9.8727   -0.7290 Se  0  0  0  0  0  2  0  0  0  0  0  0
   -1.7864   -8.1932   -0.3612 C   0  0  0  0  0  0  0  0  0  0  0  0
   -2.6004   -8.5916    1.1104 S   0  0  0  0  0  0  0  0  0  0  0  0
   -1.8593   -7.3011   -3.9167 C   0  0  0  0  0  0  0  0  0  0  0  0
   -1.0377   -6.4986   -4.6821 C   0  0  0  0  0  0  0  0  0  0  0  0
    0.2845   -6.2299   -3.6755 S   0  0  0  0  0  0  0  0  0  0  0  0
   -1.6231   -5.5472   -5.7527 C   0  0  0  0  0  0  0  0  0  0  0  0
   -1.1925   -4.3597   -6.1922 C   0  0  0  0  0  0  0  0  0  0  0  0
   -2.1571   -3.4214   -6.5722 C   0  0  0  0  0  0  0  0  0  0  0  0
   -1.9656   -2.0266   -6.6480 C   0  0  0  0  0  0  0  0  0  0  0  0
   -0.7042   -1.3362   -6.7586 C   0  0  0  0  0  0  0  0  0  0  0  0
    0.0329   -1.0066   -5.6068 C   0  0  0  0  0  0  0  0  0  0  0  0
    1.1703   -0.2574   -5.7709 C   0  0  0  0  0  0  0  0  0  0  0  0
    1.6561    0.1995   -6.9705 C   0  0  0  0  0  0  0  0  0  0  0  0
    3.0880    1.2295   -7.1046 S   0  0  0  0  0  0  0  0  0  0  0  0
    4.6388    0.3388   -7.1326 C   0  0  0  0  0  0  0  0  0  0  0  0
    4.8538   -0.5202   -8.3149 C   0  0  0  0  0  0  0  0  0  0  0  0
    0.9118   -0.1461   -8.0964 C   0  0  0  0  0  0  0  0  0  0  0  0
    1.3187    0.2760   -9.3185 F   0  0  0  0  0  0  0  0  0  0  0  0
   -0.2506   -0.9025   -7.9793 C   0  0  0  0  0  0  0  0  0  0  0  0
   -3.1078   -1.1675   -6.5722 C   0  0  0  0  0  0  0  0  0  0  0  0
   -4.3769   -1.5648   -6.4355 C   0  0  0  0  0  0  0  0  0  0  0  0
   -4.5682   -2.9627   -6.4131 C   0  0  0  0  0  0  0  0  0  0  0  0
   -5.8561   -3.6087   -6.4411 C   0  0  0  0  0  0  0  0  0  0  0  0
   -6.4461   -3.7708   -7.7250 C   0  0  0  0  0  0  0  0  0  0  0  0
   -7.6199   -4.4022   -7.9405 C   0  0  0  0  0  0  0  0  0  0  0  0
   -8.3573   -4.9464   -6.8821 C   0  0  0  0  0  0  0  0  0  0  0  0
   -9.9076   -5.7805   -7.1870 S   0  0  0  0  0  0  0  0  0  0  0  0
  -10.3002   -5.8909   -8.9671 C   0  0  0  0  0  0  0  0  0  0  0  0
  -10.5431   -4.5585   -9.6082 C   0  0  0  0  0  0  0  0  0  0  0  0
   -7.7953   -4.7902   -5.6244 C   0  0  0  0  0  0  0  0  0  0  0  0
   -6.5846   -4.1382   -5.4223 C   0  0  0  0  0  0  0  0  0  0  0  0
   -8.4754   -5.3110   -4.5660 F   0  0  0  0  0  0  0  0  0  0  0  0
   -3.4450   -3.8039   -6.4760 C   0  0  0  0  0  0  0  0  0  0  0  0
   -3.3491   -5.4330   -5.8884 S   0  0  0  0  0  0  0  0  0  0  0  0
   -5.2737   -0.6309   -5.8974 C   0  0  0  0  0  0  0  0  0  0  0  0
   -4.8420    0.5594   -5.5424 C   0  0  0  0  0  0  0  0  0  0  0  0
   -3.1188    0.4670   -6.0020 S   0  0  0  0  0  0  0  0  0  0  0  0
   -5.1093    1.3955   -4.2510 C   0  0  0  0  0  0  0  0  0  0  0  0
   -4.7232    2.5636   -3.8349 C   0  0  0  0  0  0  0  0  0  0  0  0
   -4.5430    2.7807   -2.4736 C   0  0  0  0  0  0  0  0  0  0  0  0
   -3.8386    3.8240   -1.8666 C   0  0  0  0  0  0  0  0  0  0  0  0
   -3.5131    5.0863   -2.4886 C   0  0  0  0  0  0  0  0  0  0  0  0
   -4.4984    6.0722   -2.6097 C   0  0  0  0  0  0  0  0  0  0  0  0
   -4.2470    7.3148   -3.1506 C   0  0  0  0  0  0  0  0  0  0  0  0
   -2.9902    7.6526   -3.6057 C   0  0  0  0  0  0  0  0  0  0  0  0
   -2.7869    9.2930   -4.2499 S   0  0  0  0  0  0  0  0  0  0  0  0
   -2.2217   10.4844   -3.0830 C   0  0  0  0  0  0  0  0  0  0  0  0
   -3.2108   10.7349   -1.9475 C   0  0  0  0  0  0  0  0  0  0  0  0
   -2.0188    6.7106   -3.5016 C   0  0  0  0  0  0  0  0  0  0  0  0
   -0.7654    7.0154   -3.9535 F   0  0  0  0  0  0  0  0  0  0  0  0
   -2.2548    5.4679   -2.9657 C   0  0  0  0  0  0  0  0  0  0  0  0
   -3.4306    3.6693   -0.5178 C   0  0  0  0  0  0  0  0  0  0  0  0
   -3.6411    2.6236    0.2699 C   0  0  0  0  0  0  0  0  0  0  0  0
   -4.3843    1.5879   -0.3251 C   0  0  0  0  0  0  0  0  0  0  0  0
   -4.6526    0.3256    0.3428 C   0  0  0  0  0  0  0  0  0  0  0  0
   -3.6131   -0.6480    0.2568 C   0  0  0  0  0  0  0  0  0  0  0  0
   -3.7224   -1.8793    0.8405 C   0  0  0  0  0  0  0  0  0  0  0  0
   -4.8518   -2.2420    1.5422 C   0  0  0  0  0  0  0  0  0  0  0  0
   -4.9516   -3.8605    2.3229 S   0  0  0  0  0  0  0  0  0  0  0  0
   -5.6666   -5.0306    1.1115 C   0  0  0  0  0  0  0  0  0  0  0  0
   -4.7743   -5.2825   -0.0702 C   0  0  0  0  0  0  0  0  0  0  0  0
   -5.8728   -1.2977    1.6314 C   0  0  0  0  0  0  0  0  0  0  0  0
   -5.7434   -0.0513    1.0339 C   0  0  0  0  0  0  0  0  0  0  0  0
   -6.9725   -1.6398    2.3247 F   0  0  0  0  0  0  0  0  0  0  0  0
   -4.8031    1.7143   -1.6638 C   0  0  0  0  0  0  0  0  0  0  0  0
   -5.2980    0.4957   -2.7368 S   0  0  0  0  0  0  0  0  0  0  0  0
   -2.9178    2.5328    1.4351 C   0  0  0  0  0  0  0  0  0  0  0  0
   -2.0380    3.4743    1.7257 C   0  0  0  0  0  0  0  0  0  0  0  0
   -2.2403    4.5644    0.3319 S   0  0  0  0  0  0  0  0  0  0  0  0
   -0.7501    3.5654    2.4950 C   0  0  0  0  0  0  0  0  0  0  0  0
    0.3507    2.7319    2.0878 C   0  0  0  0  0  0  0  0  0  0  0  0
    1.5684    3.1216    2.4278 C   0  0  0  0  0  0  0  0  0  0  0  0
    2.7965    2.6616    1.8198 C   0  0  0  0  0  0  0  0  0  0  0  0
    2.8680    1.4918    1.0371 C   0  0  0  0  0  0  0  0  0  0  0  0
    2.2420    0.3912    0.6532 C   0  0  0  0  0  0  0  0  0  0  0  0
    2.6019   -0.4562   -0.2990 C   0  0  0  0  0  0  0  0  0  0  0  0
    3.6802   -0.3575   -1.0588 C   0  0  0  0  0  0  0  0  0  0  0  0
    4.4721   -1.1245   -2.4172 S   0  0  0  0  0  0  0  0  0  0  0  0
    3.3945   -2.3631   -3.1389 C   0  0  0  0  0  0  0  0  0  0  0  0
    4.1529   -2.9908   -4.3332 C   0  0  0  0  0  0  0  0  0  0  0  0
    4.4375    1.3321   -0.3096 Se  0  0  0  0  0  2  0  0  0  0  0  0
    3.9445    3.4349    2.0172 C   0  0  0  0  0  0  0  0  0  0  0  0
    4.0402    4.5854    2.7287 C   0  0  0  0  0  0  0  0  0  0  0  0
    2.8285    5.0187    3.3483 C   0  0  0  0  0  0  0  0  0  0  0  0
    2.7577    6.0941    4.3029 C   0  0  0  0  0  0  0  0  0  0  0  0
    1.8207    6.7668    4.9499 C   0  0  0  0  0  0  0  0  0  0  0  0
    2.0506    7.6883    5.8815 C   0  0  0  0  0  0  0  0  0  0  0  0
    3.2934    8.0491    6.2824 C   0  0  0  0  0  0  0  0  0  0  0  0
    3.9545    9.1746    7.4497 S   0  0  0  0  0  0  0  0  0  0  0  0
    5.7693    9.1599    7.4386 C   0  0  0  0  0  0  0  0  0  0  0  0
    6.3082    7.8133    7.8351 C   0  0  0  0  0  0  0  0  0  0  0  0
    4.3639    6.8805    5.1399 Se  0  0  0  0  0  2  0  0  0  0  0  0
    1.7003    4.2687    3.1437 C   0  0  0  0  0  0  0  0  0  0  0  0
    0.0131    4.7629    3.3123 S   0  0  0  0  0  0  0  0  0  0  0  0
    5.1453    5.3220    2.5640 C   0  0  0  0  0  0  0  0  0  0  0  0
    6.1030    4.8923    1.6957 C   0  0  0  0  0  0  0  0  0  0  0  0
    5.4509    3.4270    1.1386 S   0  0  0  0  0  0  0  0  0  0  0  0
    7.0884    5.7288    0.9812 C   0  0  0  0  0  0  0  0  0  0  0  0
    8.3101    5.6762    0.5116 C   0  0  0  0  0  0  0  0  0  0  0  0
    8.7849    6.7456   -0.2396 C   0  0  0  0  0  0  0  0  0  0  0  0
   10.0162    6.8703   -0.8429 C   0  0  0  0  0  0  0  0  0  0  0  0
   11.0459    5.8545   -0.8973 C   0  0  0  0  0  0  0  0  0  0  0  0
   11.2009    4.5782   -0.5765 C   0  0  0  0  0  0  0  0  0  0  0  0
   12.3516    3.8980   -0.7227 C   0  0  0  0  0  0  0  0  0  0  0  0
   13.4682    4.4535   -1.2132 C   0  0  0  0  0  0  0  0  0  0  0  0
   15.1233    3.9226   -1.5315 S   0  0  0  0  0  0  0  0  0  0  0  0
   16.0007    5.1187   -2.5939 C   0  0  0  0  0  0  0  0  0  0  0  0
   16.2110    6.4473   -1.9356 C   0  0  0  0  0  0  0  0  0  0  0  0
   12.8168    6.2524   -1.5493 Se  0  0  0  0  0  2  0  0  0  0  0  0
   10.2722    8.0388   -1.5815 C   0  0  0  0  0  0  0  0  0  0  0  0
    9.4049    9.0811   -1.7660 C   0  0  0  0  0  0  0  0  0  0  0  0
    8.1621    8.9585   -1.1652 C   0  0  0  0  0  0  0  0  0  0  0  0
    7.0025    9.7673   -1.4310 C   0  0  0  0  0  0  0  0  0  0  0  0
    6.5300   10.6994   -2.2205 C   0  0  0  0  0  0  0  0  0  0  0  0
    5.2736   11.1913   -2.1715 C   0  0  0  0  0  0  0  0  0  0  0  0
    4.3622   10.7847   -1.3071 C   0  0  0  0  0  0  0  0  0  0  0  0
    2.6363   11.1442   -0.9555 S   0  0  0  0  0  0  0  0  0  0  0  0
    2.0553    9.9810    0.3275 C   0  0  0  0  0  0  0  0  0  0  0  0
    0.6190   10.1013    0.6604 C   0  0  0  0  0  0  0  0  0  0  0  0
    5.3657    9.4662   -0.3381 Se  0  0  0  0  0  2  0  0  0  0  0  0
    7.9315    7.7798   -0.4182 C   0  0  0  0  0  0  0  0  0  0  0  0
    6.5290    7.3013    0.4187 S   0  0  0  0  0  0  0  0  0  0  0  0
    9.8380   10.1237   -2.5026 C   0  0  0  0  0  0  0  0  0  0  0  0
   11.1014   10.0637   -3.0113 C   0  0  0  0  0  0  0  0  0  0  0  0
   11.6619    8.5681   -2.4558 S   0  0  0  0  0  0  0  0  0  0  0  0
   -3.2743   -6.9356   11.6635 H   0  0  0  0  0  0  0  0  0  0  0  0
   -1.1242   -6.7577   10.3903 H   0  0  0  0  0  0  0  0  0  0  0  0
    1.5198   -7.4511    6.2872 H   0  0  0  0  0  0  0  0  0  0  0  0
    3.5680   -6.3864    7.2011 H   0  0  0  0  0  0  0  0  0  0  0  0
    3.9780   -3.6432   12.0097 H   0  0  0  0  0  0  0  0  0  0  0  0
    2.5274   -4.6718   11.9015 H   0  0  0  0  0  0  0  0  0  0  0  0
    2.8798   -2.3902    9.9496 H   0  0  0  0  0  0  0  0  0  0  0  0
    2.3133   -2.0572   11.6626 H   0  0  0  0  0  0  0  0  0  0  0  0
    1.3575   -3.1550   10.5787 H   0  0  0  0  0  0  0  0  0  0  0  0
   -6.0307   -8.4637    8.1750 H   0  0  0  0  0  0  0  0  0  0  0  0
   -8.2903   -8.6395    7.1768 H   0  0  0  0  0  0  0  0  0  0  0  0
  -10.7007   -6.9604    3.2020 H   0  0  0  0  0  0  0  0  0  0  0  0
   -9.1900   -6.1141    3.5176 H   0  0  0  0  0  0  0  0  0  0  0  0
  -10.0282   -5.3786    5.5118 H   0  0  0  0  0  0  0  0  0  0  0  0
  -10.6473   -7.0446    6.0448 H   0  0  0  0  0  0  0  0  0  0  0  0
  -11.6099   -5.9898    5.0112 H   0  0  0  0  0  0  0  0  0  0  0  0
   -3.6225   -8.3903    3.8792 H   0  0  0  0  0  0  0  0  0  0  0  0
    0.5402   -7.3487    1.9228 H   0  0  0  0  0  0  0  0  0  0  0  0
    2.5958   -6.3222   -2.4311 H   0  0  0  0  0  0  0  0  0  0  0  0
    4.4334   -5.0645   -1.4161 H   0  0  0  0  0  0  0  0  0  0  0  0
    4.4723   -3.4297    3.9354 H   0  0  0  0  0  0  0  0  0  0  0  0
    2.8554   -3.5360    3.2287 H   0  0  0  0  0  0  0  0  0  0  0  0
    4.4610   -6.0831    3.6615 H   0  0  0  0  0  0  0  0  0  0  0  0
    3.4834   -5.3421    5.0207 H   0  0  0  0  0  0  0  0  0  0  0  0
    2.6790   -5.8771    3.5488 H   0  0  0  0  0  0  0  0  0  0  0  0
   -4.4344   -7.4713   -3.4879 H   0  0  0  0  0  0  0  0  0  0  0  0
   -6.5795   -8.6607   -3.4878 H   0  0  0  0  0  0  0  0  0  0  0  0
   -9.8055  -10.2901   -0.6743 H   0  0  0  0  0  0  0  0  0  0  0  0
   -8.8418   -8.8708   -1.0710 H   0  0  0  0  0  0  0  0  0  0  0  0
   -7.3694   -9.9471    1.0977 H   0  0  0  0  0  0  0  0  0  0  0  0
   -9.0891   -9.9681    1.6047 H   0  0  0  0  0  0  0  0  0  0  0  0
   -8.2859   -8.4601    1.0554 H   0  0  0  0  0  0  0  0  0  0  0  0
   -2.7534   -7.7163   -4.4248 H   0  0  0  0  0  0  0  0  0  0  0  0
   -0.1322   -4.1178   -6.2557 H   0  0  0  0  0  0  0  0  0  0  0  0
   -0.3548   -1.3737   -4.6732 H   0  0  0  0  0  0  0  0  0  0  0  0
    1.7111    0.0068   -4.8435 H   0  0  0  0  0  0  0  0  0  0  0  0
    5.4744    1.1075   -7.0984 H   0  0  0  0  0  0  0  0  0  0  0  0
    4.7831   -0.3130   -6.2227 H   0  0  0  0  0  0  0  0  0  0  0  0
    5.8844   -0.9702   -8.2365 H   0  0  0  0  0  0  0  0  0  0  0  0
    4.8104   -0.0181   -9.2763 H   0  0  0  0  0  0  0  0  0  0  0  0
    4.1497   -1.3885   -8.3606 H   0  0  0  0  0  0  0  0  0  0  0  0
   -0.7926   -1.1327   -8.8677 H   0  0  0  0  0  0  0  0  0  0  0  0
   -5.8832   -3.3542   -8.5920 H   0  0  0  0  0  0  0  0  0  0  0  0
   -8.0527   -4.5238   -8.9383 H   0  0  0  0  0  0  0  0  0  0  0  0
   -9.4054   -6.3652   -9.4706 H   0  0  0  0  0  0  0  0  0  0  0  0
  -11.2131   -6.5058   -9.0726 H   0  0  0  0  0  0  0  0  0  0  0  0
  -10.3189   -3.6972   -8.9380 H   0  0  0  0  0  0  0  0  0  0  0  0
  -11.5345   -4.4587  -10.0909 H   0  0  0  0  0  0  0  0  0  0  0  0
   -9.8062   -4.4545  -10.4478 H   0  0  0  0  0  0  0  0  0  0  0  0
   -6.1567   -4.0321   -4.4303 H   0  0  0  0  0  0  0  0  0  0  0  0
   -6.3374   -0.9145   -5.7662 H   0  0  0  0  0  0  0  0  0  0  0  0
   -4.5190    3.3933   -4.5578 H   0  0  0  0  0  0  0  0  0  0  0  0
   -5.5007    5.8272   -2.2525 H   0  0  0  0  0  0  0  0  0  0  0  0
   -5.0729    8.0494   -3.2166 H   0  0  0  0  0  0  0  0  0  0  0  0
   -1.1852   10.3360   -2.7121 H   0  0  0  0  0  0  0  0  0  0  0  0
   -2.1316   11.5031   -3.5993 H   0  0  0  0  0  0  0  0  0  0  0  0
   -4.2076   11.0916   -2.3385 H   0  0  0  0  0  0  0  0  0  0  0  0
   -3.4131    9.8301   -1.3536 H   0  0  0  0  0  0  0  0  0  0  0  0
   -2.8500   11.5040   -1.2521 H   0  0  0  0  0  0  0  0  0  0  0  0
   -1.4706    4.7023   -2.8731 H   0  0  0  0  0  0  0  0  0  0  0  0
   -2.7143   -0.3723   -0.3003 H   0  0  0  0  0  0  0  0  0  0  0  0
   -2.9072   -2.5822    0.7468 H   0  0  0  0  0  0  0  0  0  0  0  0
   -5.9486   -6.0027    1.5808 H   0  0  0  0  0  0  0  0  0  0  0  0
   -6.5958   -4.5100    0.7467 H   0  0  0  0  0  0  0  0  0  0  0  0
   -4.3905   -6.3425   -0.0834 H   0  0  0  0  0  0  0  0  0  0  0  0
   -5.3804   -5.1380   -0.9831 H   0  0  0  0  0  0  0  0  0  0  0  0
   -3.9285   -4.5630   -0.0864 H   0  0  0  0  0  0  0  0  0  0  0  0
   -6.5741    0.6441    1.1445 H   0  0  0  0  0  0  0  0  0  0  0  0
   -3.0608    1.6804    2.1440 H   0  0  0  0  0  0  0  0  0  0  0  0
    0.0707    1.8353    1.5359 H   0  0  0  0  0  0  0  0  0  0  0  0
    1.2982    0.1396    1.2812 H   0  0  0  0  0  0  0  0  0  0  0  0
    1.9411   -1.3832   -0.5236 H   0  0  0  0  0  0  0  0  0  0  0  0
    2.4877   -1.9184   -3.6179 H   0  0  0  0  0  0  0  0  0  0  0  0
    3.1898   -3.1446   -2.4139 H   0  0  0  0  0  0  0  0  0  0  0  0
    4.0363   -4.0861   -4.3100 H   0  0  0  0  0  0  0  0  0  0  0  0
    3.7949   -2.5899   -5.2816 H   0  0  0  0  0  0  0  0  0  0  0  0
    5.2435   -2.7175   -4.2538 H   0  0  0  0  0  0  0  0  0  0  0  0
    0.7337    6.5451    4.6889 H   0  0  0  0  0  0  0  0  0  0  0  0
    1.1875    8.2348    6.4114 H   0  0  0  0  0  0  0  0  0  0  0  0
    6.1370    9.4715    6.4491 H   0  0  0  0  0  0  0  0  0  0  0  0
    6.0804    9.9319    8.1677 H   0  0  0  0  0  0  0  0  0  0  0  0
    6.6814    7.7850    8.8993 H   0  0  0  0  0  0  0  0  0  0  0  0
    7.1922    7.5555    7.2135 H   0  0  0  0  0  0  0  0  0  0  0  0
    5.5455    6.9959    7.6935 H   0  0  0  0  0  0  0  0  0  0  0  0
    5.3449    6.2857    3.0945 H   0  0  0  0  0  0  0  0  0  0  0  0
    8.9213    4.7875    0.7670 H   0  0  0  0  0  0  0  0  0  0  0  0
   10.3185    3.9816   -0.1984 H   0  0  0  0  0  0  0  0  0  0  0  0
   12.4449    2.7889   -0.4160 H   0  0  0  0  0  0  0  0  0  0  0  0
   15.3636    5.3092   -3.5099 H   0  0  0  0  0  0  0  0  0  0  0  0
   16.9706    4.7128   -2.8928 H   0  0  0  0  0  0  0  0  0  0  0  0
   17.2845    6.6541   -1.7637 H   0  0  0  0  0  0  0  0  0  0  0  0
   15.8305    7.2969   -2.5900 H   0  0  0  0  0  0  0  0  0  0  0  0
   15.7279    6.4880   -0.9187 H   0  0  0  0  0  0  0  0  0  0  0  0
    7.2102   11.1055   -3.0515 H   0  0  0  0  0  0  0  0  0  0  0  0
    4.9151   12.0131   -2.9225 H   0  0  0  0  0  0  0  0  0  0  0  0
    2.6447   10.2864    1.2404 H   0  0  0  0  0  0  0  0  0  0  0  0
    2.4110    8.9411    0.0984 H   0  0  0  0  0  0  0  0  0  0  0  0
    0.0818    9.2387    0.1525 H   0  0  0  0  0  0  0  0  0  0  0  0
    0.1578   11.0695    0.4337 H   0  0  0  0  0  0  0  0  0  0  0  0
    0.4120    9.8791    1.7662 H   0  0  0  0  0  0  0  0  0  0  0  0
    9.2542   11.0481   -2.7160 H   0  0  0  0  0  0  0  0  0  0  0  0
   11.5898   10.8477   -3.6377 H   0  0  0  0  0  0  0  0  0  0  0  0
  1  2  2  0
  2  3  1  0
  3  4  2  0
  4  5  1  0
  5  6  2  0
  6  7  1  0
  7  8  2  0
  8  9  1  0
  9 10  1  0
 10 11  1  0
  8 12  1  0
  4 13  1  0
 13 14  2  0
 14 15  1  0
 15 16  1  0
 16 17  2  0
 17 18  1  0
 18 19  2  0
 19 20  1  0
 20 21  1  0
 21 22  1  0
 19 23  1  0
 15 24  2  0
 24 25  1  0
 14 26  1  0
 26 27  2  0
 27 28  1  0
 27 29  1  0
 29 30  2  0
 30 31  1  0
 31 32  2  0
 32 33  1  0
 33 34  2  0
 34 35  1  0
 35 36  2  0
 36 37  1  0
 37 38  1  0
 38 39  1  0
 36 40  1  0
 32 41  1  0
 41 42  2  0
 42 43  1  0
 43 44  1  0
 44 45  2  0
 45 46  1  0
 46 47  2  0
 47 48  1  0
 48 49  1  0
 49 50  1  0
 47 51  1  0
 43 52  2  0
 52 53  1  0
 42 54  1  0
 54 55  2  0
 55 56  1  0
 55 57  1  0
 57 58  2  0
 58 59  1  0
 59 60  2  0
 60 61  1  0
 61 62  2  0
 62 63  1  0
 63 64  2  0
 64 65  1  0
 65 66  1  0
 66 67  1  0
 64 68  1  0
 68 69  1  0
 68 70  2  0
 60 71  1  0
 71 72  2  0
 72 73  1  0
 73 74  1  0
 74 75  2  0
 75 76  1  0
 76 77  2  0
 77 78  1  0
 78 79  1  0
 79 80  1  0
 77 81  1  0
 81 82  2  0
 81 83  1  0
 73 84  2  0
 84 85  1  0
 72 86  1  0
 86 87  2  0
 87 88  1  0
 87 89  1  0
 89 90  2  0
 90 91  1  0
 91 92  2  0
 92 93  1  0
 93 94  2  0
 94 95  1  0
 95 96  2  0
 96 97  1  0
 97 98  1  0
 98 99  1  0
 96100  1  0
100101  1  0
100102  2  0
 92103  1  0
103104  2  0
104105  1  0
105106  1  0
106107  2  0
107108  1  0
108109  2  0
109110  1  0
110111  1  0
111112  1  0
109113  1  0
113114  2  0
113115  1  0
105116  2  0
116117  1  0
104118  1  0
118119  2  0
119120  1  0
119121  1  0
121122  2  0
122123  1  0
123124  2  0
124125  1  0
125126  2  0
126127  1  0
127128  2  0
128129  1  0
129130  1  0
130131  1  0
128132  1  0
124133  1  0
133134  2  0
134135  1  0
135136  1  0
136137  2  0
137138  1  0
138139  2  0
139140  1  0
140141  1  0
141142  1  0
139143  1  0
135144  2  0
144145  1  0
134146  1  0
146147  2  0
147148  1  0
147149  1  0
149150  2  0
150151  1  0
151152  2  0
152153  1  0
153154  2  0
154155  1  0
155156  2  0
156157  1  0
157158  1  0
158159  1  0
156160  1  0
152161  1  0
161162  2  0
162163  1  0
163164  1  0
164165  2  0
165166  1  0
166167  2  0
167168  1  0
168169  1  0
169170  1  0
167171  1  0
163172  2  0
172173  1  0
162174  1  0
174175  2  0
175176  1  0
 25  1  1  0
 53 29  1  0
 85 57  1  0
117 89  1  0
145121  1  0
173149  1  0
 24  3  1  0
 52 31  1  0
 84 59  1  0
116 91  1  0
144123  1  0
172151  1  0
 12  5  1  0
 28 13  1  0
 40 33  1  0
 56 41  1  0
 70 61  1  0
 88 71  1  0
102 93  1  0
120103  1  0
132125  1  0
148133  1  0
160153  1  0
176161  1  0
 23 16  1  0
 51 44  1  0
 82 74  1  0
114106  1  0
143136  1  0
171164  1  0
  1177  1  0
  2178  1  0
  6179  1  0
  7180  1  0
 10181  1  0
 10182  1  0
 11183  1  0
 11184  1  0
 11185  1  0
 17186  1  0
 18187  1  0
 21188  1  0
 21189  1  0
 22190  1  0
 22191  1  0
 22192  1  0
 26193  1  0
 30194  1  0
 34195  1  0
 35196  1  0
 38197  1  0
 38198  1  0
 39199  1  0
 39200  1  0
 39201  1  0
 45202  1  0
 46203  1  0
 49204  1  0
 49205  1  0
 50206  1  0
 50207  1  0
 50208  1  0
 54209  1  0
 58210  1  0
 62211  1  0
 63212  1  0
 66213  1  0
 66214  1  0
 67215  1  0
 67216  1  0
 67217  1  0
 70218  1  0
 75219  1  0
 76220  1  0
 79221  1  0
 79222  1  0
 80223  1  0
 80224  1  0
 80225  1  0
 82226  1  0
 86227  1  0
 90228  1  0
 94229  1  0
 95230  1  0
 98231  1  0
 98232  1  0
 99233  1  0
 99234  1  0
 99235  1  0
102236  1  0
107237  1  0
108238  1  0
111239  1  0
111240  1  0
112241  1  0
112242  1  0
112243  1  0
114244  1  0
118245  1  0
122246  1  0
126247  1  0
127248  1  0
130249  1  0
130250  1  0
131251  1  0
131252  1  0
131253  1  0
137254  1  0
138255  1  0
141256  1  0
141257  1  0
142258  1  0
142259  1  0
142260  1  0
146261  1  0
150262  1  0
154263  1  0
155264  1  0
158265  1  0
158266  1  0
159267  1  0
159268  1  0
159269  1  0
165270  1  0
166271  1  0
169272  1  0
169273  1  0
170274  1  0
170275  1  0
170276  1  0
174277  1  0
175278  1  0
M  END

