
     RDKit          3D

173193  0  0  0  0  0  0  0  0999 V2000
   12.6783   -1.7923    9.7775 C   0  0  0  0  0  0  0  0  0  0  0  0
   12.5821   -2.2434    8.4894 C   0  0  0  0  0  0  0  0  0  0  0  0
   11.3490   -2.4889    7.9872 C   0  0  0  0  0  0  0  0  0  0  0  0
   11.0217   -2.9538    6.7099 C   0  0  0  0  0  0  0  0  0  0  0  0
   12.0104   -3.1298    5.6600 C   0  0  0  0  0  0  0  0  0  0  0  0
   12.0410   -3.7738    4.4834 C   0  0  0  0  0  0  0  0  0  0  0  0
   13.0469   -3.6847    3.6220 C   0  0  0  0  0  0  0  0  0  0  0  0
   14.1483   -2.9527    3.8107 C   0  0  0  0  0  0  0  0  0  0  0  0
   15.6272   -2.5948    2.9425 S   0  0  0  0  0  0  0  0  0  0  0  0
   15.2877   -1.1499    1.8580 C   0  0  0  0  0  0  0  0  0  0  0  0
   15.0006    0.0917    2.6483 C   0  0  0  0  0  0  0  0  0  0  0  0
   13.7138   -2.1991    5.5938 Se  0  0  0  0  0  2  0  0  0  0  0  0
    9.6844   -3.1486    6.4018 C   0  0  0  0  0  0  0  0  0  0  0  0
    8.6191   -2.9296    7.2320 C   0  0  0  0  0  0  0  0  0  0  0  0
    8.9547   -2.4574    8.5142 C   0  0  0  0  0  0  0  0  0  0  0  0
    7.9765   -2.0569    9.5025 C   0  0  0  0  0  0  0  0  0  0  0  0
    8.0061   -1.7477   10.8090 C   0  0  0  0  0  0  0  0  0  0  0  0
    6.9424   -1.3102   11.4776 C   0  0  0  0  0  0  0  0  0  0  0  0
    5.7357   -1.1267   10.9502 C   0  0  0  0  0  0  0  0  0  0  0  0
    4.1592   -0.5701   11.4698 S   0  0  0  0  0  0  0  0  0  0  0  0
    2.9946   -0.7176   10.0582 C   0  0  0  0  0  0  0  0  0  0  0  0
    2.7449   -2.1651    9.7253 C   0  0  0  0  0  0  0  0  0  0  0  0
    6.1401   -1.6862    9.0844 Se  0  0  0  0  0  2  0  0  0  0  0  0
   10.2918   -2.2627    8.8289 C   0  0  0  0  0  0  0  0  0  0  0  0
   11.0532   -1.7217   10.2594 S   0  0  0  0  0  0  0  0  0  0  0  0
    7.3970   -3.1762    6.7160 C   0  0  0  0  0  0  0  0  0  0  0  0
    7.3189   -3.6128    5.4309 C   0  0  0  0  0  0  0  0  0  0  0  0
    8.9455   -3.6803    4.9574 S   0  0  0  0  0  0  0  0  0  0  0  0
    6.1445   -3.9581    4.5913 C   0  0  0  0  0  0  0  0  0  0  0  0
    5.3316   -2.9310    3.5008 S   0  0  0  0  0  0  0  0  0  0  0  0
    4.1556   -4.0523    2.9131 C   0  0  0  0  0  0  0  0  0  0  0  0
    4.4453   -5.1803    3.5967 C   0  0  0  0  0  0  0  0  0  0  0  0
    5.4724   -5.1404    4.4668 C   0  0  0  0  0  0  0  0  0  0  0  0
    5.7828   -6.2942    5.2199 C   0  0  0  0  0  0  0  0  0  0  0  0
    6.8154   -6.3056    6.1098 F   0  0  0  0  0  0  0  0  0  0  0  0
    5.0854   -7.4658    5.1139 C   0  0  0  0  0  0  0  0  0  0  0  0
    5.3985   -8.5685    5.8438 F   0  0  0  0  0  0  0  0  0  0  0  0
    4.0447   -7.5138    4.2423 C   0  0  0  0  0  0  0  0  0  0  0  0
    3.3306   -8.6712    4.1250 F   0  0  0  0  0  0  0  0  0  0  0  0
    3.7289   -6.3921    3.4986 C   0  0  0  0  0  0  0  0  0  0  0  0
    2.6393   -6.5235    2.7095 F   0  0  0  0  0  0  0  0  0  0  0  0
    3.2649   -3.6676    1.8108 C   0  0  0  0  0  0  0  0  0  0  0  0
    2.8145   -4.3323    0.7112 C   0  0  0  0  0  0  0  0  0  0  0  0
    2.0508   -3.6688   -0.1783 C   0  0  0  0  0  0  0  0  0  0  0  0
    1.4932   -4.1677   -1.3634 C   0  0  0  0  0  0  0  0  0  0  0  0
    1.5626   -5.5503   -1.7661 C   0  0  0  0  0  0  0  0  0  0  0  0
    1.3423   -6.2179   -2.8947 C   0  0  0  0  0  0  0  0  0  0  0  0
    1.3725   -7.5428   -2.9981 C   0  0  0  0  0  0  0  0  0  0  0  0
    1.6238   -8.3847   -2.0058 C   0  0  0  0  0  0  0  0  0  0  0  0
    1.7665  -10.0946   -1.6869 S   0  0  0  0  0  0  0  0  0  0  0  0
    0.1254  -10.7420   -1.2014 C   0  0  0  0  0  0  0  0  0  0  0  0
   -0.8248  -10.6521   -2.3966 C   0  0  0  0  0  0  0  0  0  0  0  0
    1.8958   -7.0164   -0.5254 Se  0  0  0  0  0  2  0  0  0  0  0  0
    0.7359   -3.3101   -2.1430 C   0  0  0  0  0  0  0  0  0  0  0  0
    0.4599   -2.0034   -1.8813 C   0  0  0  0  0  0  0  0  0  0  0  0
    1.0111   -1.4977   -0.7050 C   0  0  0  0  0  0  0  0  0  0  0  0
    0.7780   -0.1805   -0.1593 C   0  0  0  0  0  0  0  0  0  0  0  0
   -0.0710    0.8349   -0.2877 C   0  0  0  0  0  0  0  0  0  0  0  0
    0.0581    2.0143    0.3158 C   0  0  0  0  0  0  0  0  0  0  0  0
    1.0529    2.3427    1.1328 C   0  0  0  0  0  0  0  0  0  0  0  0
    1.5744    3.7173    2.0825 S   0  0  0  0  0  0  0  0  0  0  0  0
    0.8872    3.7157    3.7556 C   0  0  0  0  0  0  0  0  0  0  0  0
   -0.6090    3.9129    3.6349 C   0  0  0  0  0  0  0  0  0  0  0  0
    2.0736    0.6220    1.0717 Se  0  0  0  0  0  2  0  0  0  0  0  0
    1.7807   -2.3692    0.0799 C   0  0  0  0  0  0  0  0  0  0  0  0
    2.5945   -2.0864    1.5620 S   0  0  0  0  0  0  0  0  0  0  0  0
   -0.3015   -1.3415   -2.7624 C   0  0  0  0  0  0  0  0  0  0  0  0
   -0.7509   -2.0330   -3.8628 C   0  0  0  0  0  0  0  0  0  0  0  0
   -0.0962   -3.5630   -3.6349 S   0  0  0  0  0  0  0  0  0  0  0  0
   -1.6936   -1.4946   -4.8476 C   0  0  0  0  0  0  0  0  0  0  0  0
   -2.7283   -0.1376   -4.5219 S   0  0  0  0  0  0  0  0  0  0  0  0
   -3.5275   -0.0483   -6.0482 C   0  0  0  0  0  0  0  0  0  0  0  0
   -2.9611   -1.0643   -6.7358 C   0  0  0  0  0  0  0  0  0  0  0  0
   -2.0173   -1.8069   -6.1169 C   0  0  0  0  0  0  0  0  0  0  0  0
   -1.4471   -2.8922   -6.8299 C   0  0  0  0  0  0  0  0  0  0  0  0
   -0.4784   -3.6623   -6.2686 F   0  0  0  0  0  0  0  0  0  0  0  0
   -1.8028   -3.2311   -8.1040 C   0  0  0  0  0  0  0  0  0  0  0  0
   -1.2529   -4.2675   -8.7728 F   0  0  0  0  0  0  0  0  0  0  0  0
   -2.7633   -2.4815   -8.7302 C   0  0  0  0  0  0  0  0  0  0  0  0
   -3.1485   -2.7863  -10.0087 F   0  0  0  0  0  0  0  0  0  0  0  0
   -3.3188   -1.4318   -8.0525 C   0  0  0  0  0  0  0  0  0  0  0  0
   -4.3000   -0.7658   -8.7137 F   0  0  0  0  0  0  0  0  0  0  0  0
   -4.4994    1.0079   -6.3273 C   0  0  0  0  0  0  0  0  0  0  0  0
   -5.8690    1.2100   -5.3250 S   0  0  0  0  0  0  0  0  0  0  0  0
   -6.5947    2.6108   -6.1031 C   0  0  0  0  0  0  0  0  0  0  0  0
   -5.7109    2.8363   -7.1057 C   0  0  0  0  0  0  0  0  0  0  0  0
   -4.6414    2.0172   -7.2158 C   0  0  0  0  0  0  0  0  0  0  0  0
   -3.6886    2.2640   -8.2403 C   0  0  0  0  0  0  0  0  0  0  0  0
   -2.5633    1.5223   -8.3563 F   0  0  0  0  0  0  0  0  0  0  0  0
   -3.8075    3.2937   -9.1347 C   0  0  0  0  0  0  0  0  0  0  0  0
   -2.8696    3.5117  -10.0957 F   0  0  0  0  0  0  0  0  0  0  0  0
   -4.8822    4.1105   -9.0334 C   0  0  0  0  0  0  0  0  0  0  0  0
   -5.0722    5.1443   -9.8903 F   0  0  0  0  0  0  0  0  0  0  0  0
   -5.8105    3.8903   -8.0476 C   0  0  0  0  0  0  0  0  0  0  0  0
   -6.8761    4.7272   -8.0651 F   0  0  0  0  0  0  0  0  0  0  0  0
   -7.8159    3.2289   -5.5752 C   0  0  0  0  0  0  0  0  0  0  0  0
   -8.5325    4.3443   -5.6839 C   0  0  0  0  0  0  0  0  0  0  0  0
   -9.6578    4.5003   -4.9205 C   0  0  0  0  0  0  0  0  0  0  0  0
  -10.5088    5.6082   -4.9085 C   0  0  0  0  0  0  0  0  0  0  0  0
  -10.4655    6.7201   -5.8303 C   0  0  0  0  0  0  0  0  0  0  0  0
   -9.9371    7.0599   -6.9952 C   0  0  0  0  0  0  0  0  0  0  0  0
  -10.0506    8.2556   -7.5603 C   0  0  0  0  0  0  0  0  0  0  0  0
  -10.7219    9.2870   -7.0287 C   0  0  0  0  0  0  0  0  0  0  0  0
  -11.0918   10.9410   -7.4597 S   0  0  0  0  0  0  0  0  0  0  0  0
   -9.9466   12.1770   -6.8626 C   0  0  0  0  0  0  0  0  0  0  0  0
   -8.5711   12.0933   -7.4359 C   0  0  0  0  0  0  0  0  0  0  0  0
  -11.3412    8.4181   -5.3622 Se  0  0  0  0  0  2  0  0  0  0  0  0
  -11.5994    5.5800   -4.0233 C   0  0  0  0  0  0  0  0  0  0  0  0
  -11.9125    4.5685   -3.1728 C   0  0  0  0  0  0  0  0  0  0  0  0
  -11.0610    3.4487   -3.1912 C   0  0  0  0  0  0  0  0  0  0  0  0
  -11.2782    2.2756   -2.4577 C   0  0  0  0  0  0  0  0  0  0  0  0
  -12.0671    1.5196   -1.7527 C   0  0  0  0  0  0  0  0  0  0  0  0
  -11.8031    0.4155   -1.0773 C   0  0  0  0  0  0  0  0  0  0  0  0
  -10.5736   -0.1370   -1.0169 C   0  0  0  0  0  0  0  0  0  0  0  0
   -9.8969   -1.5586   -0.2026 S   0  0  0  0  0  0  0  0  0  0  0  0
   -8.1590   -1.7315   -0.7106 C   0  0  0  0  0  0  0  0  0  0  0  0
   -7.3059   -0.5769   -0.2521 C   0  0  0  0  0  0  0  0  0  0  0  0
   -9.5430    1.0842   -2.0976 Se  0  0  0  0  0  2  0  0  0  0  0  0
   -9.9728    3.4868   -4.0770 C   0  0  0  0  0  0  0  0  0  0  0  0
   -8.7227    2.3626   -4.3695 S   0  0  0  0  0  0  0  0  0  0  0  0
  -12.9874    4.7201   -2.3830 C   0  0  0  0  0  0  0  0  0  0  0  0
  -13.6931    5.8968   -2.5022 C   0  0  0  0  0  0  0  0  0  0  0  0
  -12.8251    6.7298   -3.7026 S   0  0  0  0  0  0  0  0  0  0  0  0
   13.6071   -1.5456   10.3326 H   0  0  0  0  0  0  0  0  0  0  0  0
   13.5528   -2.3961    7.9471 H   0  0  0  0  0  0  0  0  0  0  0  0
   11.1387   -4.4415    4.2526 H   0  0  0  0  0  0  0  0  0  0  0  0
   13.0039   -4.2662    2.6293 H   0  0  0  0  0  0  0  0  0  0  0  0
   16.1490   -0.9432    1.1923 H   0  0  0  0  0  0  0  0  0  0  0  0
   14.3790   -1.4124    1.2657 H   0  0  0  0  0  0  0  0  0  0  0  0
   14.0037    0.5083    2.3353 H   0  0  0  0  0  0  0  0  0  0  0  0
   15.7264    0.9128    2.4784 H   0  0  0  0  0  0  0  0  0  0  0  0
   14.9128   -0.0819    3.7425 H   0  0  0  0  0  0  0  0  0  0  0  0
    9.0061   -1.8950   11.3447 H   0  0  0  0  0  0  0  0  0  0  0  0
    7.0502   -1.0666   12.5981 H   0  0  0  0  0  0  0  0  0  0  0  0
    2.0485   -0.2068   10.2421 H   0  0  0  0  0  0  0  0  0  0  0  0
    3.4412   -0.2315    9.1561 H   0  0  0  0  0  0  0  0  0  0  0  0
    3.1985   -2.3970    8.7519 H   0  0  0  0  0  0  0  0  0  0  0  0
    1.6413   -2.3609    9.5906 H   0  0  0  0  0  0  0  0  0  0  0  0
    3.1634   -2.8351   10.5110 H   0  0  0  0  0  0  0  0  0  0  0  0
    6.4262   -3.0738    7.2498 H   0  0  0  0  0  0  0  0  0  0  0  0
    3.1548   -5.3850    0.5789 H   0  0  0  0  0  0  0  0  0  0  0  0
    1.1368   -5.5902   -3.8313 H   0  0  0  0  0  0  0  0  0  0  0  0
    1.1691   -8.0416   -4.0244 H   0  0  0  0  0  0  0  0  0  0  0  0
    0.1771  -11.8056   -0.9027 H   0  0  0  0  0  0  0  0  0  0  0  0
   -0.2912  -10.1320   -0.3969 H   0  0  0  0  0  0  0  0  0  0  0  0
   -0.9130   -9.6186   -2.7707 H   0  0  0  0  0  0  0  0  0  0  0  0
   -0.4017  -11.2482   -3.2442 H   0  0  0  0  0  0  0  0  0  0  0  0
   -1.8132  -11.0078   -2.0939 H   0  0  0  0  0  0  0  0  0  0  0  0
   -1.0087    0.6615   -0.9261 H   0  0  0  0  0  0  0  0  0  0  0  0
   -0.7283    2.8466    0.1431 H   0  0  0  0  0  0  0  0  0  0  0  0
    1.2574    4.6167    4.3231 H   0  0  0  0  0  0  0  0  0  0  0  0
    1.1520    2.8498    4.3615 H   0  0  0  0  0  0  0  0  0  0  0  0
   -1.1251    3.3035    4.3963 H   0  0  0  0  0  0  0  0  0  0  0  0
   -0.9432    3.5672    2.6306 H   0  0  0  0  0  0  0  0  0  0  0  0
   -0.8959    4.9666    3.7119 H   0  0  0  0  0  0  0  0  0  0  0  0
   -0.5583   -0.2582   -2.6840 H   0  0  0  0  0  0  0  0  0  0  0  0
   -8.1555    5.1690   -6.3467 H   0  0  0  0  0  0  0  0  0  0  0  0
   -9.3797    6.2371   -7.5795 H   0  0  0  0  0  0  0  0  0  0  0  0
   -9.5589    8.4694   -8.5784 H   0  0  0  0  0  0  0  0  0  0  0  0
  -10.3794   13.1696   -7.1074 H   0  0  0  0  0  0  0  0  0  0  0  0
   -9.8806   12.0734   -5.7581 H   0  0  0  0  0  0  0  0  0  0  0  0
   -7.9386   11.3286   -6.9358 H   0  0  0  0  0  0  0  0  0  0  0  0
   -8.5484   11.9050   -8.5236 H   0  0  0  0  0  0  0  0  0  0  0  0
   -8.0309   13.0646   -7.2700 H   0  0  0  0  0  0  0  0  0  0  0  0
  -13.1926    1.8562   -1.7560 H   0  0  0  0  0  0  0  0  0  0  0  0
  -12.6081   -0.1557   -0.4925 H   0  0  0  0  0  0  0  0  0  0  0  0
   -7.7276   -2.6853   -0.3392 H   0  0  0  0  0  0  0  0  0  0  0  0
   -8.0884   -1.7609   -1.8371 H   0  0  0  0  0  0  0  0  0  0  0  0
   -6.2501   -0.8900   -0.0258 H   0  0  0  0  0  0  0  0  0  0  0  0
   -7.6656   -0.0733    0.6437 H   0  0  0  0  0  0  0  0  0  0  0  0
   -7.1840    0.1616   -1.0977 H   0  0  0  0  0  0  0  0  0  0  0  0
  -13.3504    3.9846   -1.6208 H   0  0  0  0  0  0  0  0  0  0  0  0
  -14.5953    6.1788   -1.9297 H   0  0  0  0  0  0  0  0  0  0  0  0
  1  2  2  0
  2  3  1  0
  3  4  2  0
  4  5  1  0
  5  6  2  0
  6  7  1  0
  7  8  2  0
  8  9  1  0
  9 10  1  0
 10 11  1  0
  8 12  1  0
  4 13  1  0
 13 14  2  0
 14 15  1  0
 15 16  1  0
 16 17  2  0
 17 18  1  0
 18 19  2  0
 19 20  1  0
 20 21  1  0
 21 22  1  0
 19 23  1  0
 15 24  2  0
 24 25  1  0
 14 26  1  0
 26 27  2  0
 27 28  1  0
 27 29  1  0
 29 30  1  0
 30 31  1  0
 31 32  2  0
 32 33  1  0
 33 34  1  0
 34 35  1  0
 34 36  2  0
 36 37  1  0
 36 38  1  0
 38 39  1  0
 38 40  2  0
 40 41  1  0
 31 42  1  0
 42 43  2  0
 43 44  1  0
 44 45  2  0
 45 46  1  0
 46 47  2  0
 47 48  1  0
 48 49  2  0
 49 50  1  0
 50 51  1  0
 51 52  1  0
 49 53  1  0
 45 54  1  0
 54 55  2  0
 55 56  1  0
 56 57  1  0
 57 58  2  0
 58 59  1  0
 59 60  2  0
 60 61  1  0
 61 62  1  0
 62 63  1  0
 60 64  1  0
 56 65  2  0
 65 66  1  0
 55 67  1  0
 67 68  2  0
 68 69  1  0
 68 70  1  0
 70 71  1  0
 71 72  1  0
 72 73  2  0
 73 74  1  0
 74 75  1  0
 75 76  1  0
 75 77  2  0
 77 78  1  0
 77 79  1  0
 79 80  1  0
 79 81  2  0
 81 82  1  0
 72 83  1  0
 83 84  1  0
 84 85  1  0
 85 86  2  0
 86 87  1  0
 87 88  1  0
 88 89  1  0
 88 90  2  0
 90 91  1  0
 90 92  1  0
 92 93  1  0
 92 94  2  0
 94 95  1  0
 85 96  1  0
 96 97  2  0
 97 98  1  0
 98 99  2  0
 99100  1  0
100101  2  0
101102  1  0
102103  2  0
103104  1  0
104105  1  0
105106  1  0
103107  1  0
 99108  1  0
108109  2  0
109110  1  0
110111  1  0
111112  2  0
112113  1  0
113114  2  0
114115  1  0
115116  1  0
116117  1  0
114118  1  0
110119  2  0
119120  1  0
109121  1  0
121122  2  0
122123  1  0
 25  1  1  0
 33 29  2  0
 66 42  1  0
 74 70  2  0
 87 83  2  0
120 96  1  0
 24  3  1  0
 40 32  1  0
 65 44  1  0
 81 73  1  0
 94 86  1  0
119 98  1  0
 12  5  1  0
 28 13  1  0
 53 46  1  0
 69 54  1  0
107100  1  0
123108  1  0
 23 16  1  0
 64 57  1  0
118111  1  0
  1124  1  0
  2125  1  0
  6126  1  0
  7127  1  0
 10128  1  0
 10129  1  0
 11130  1  0
 11131  1  0
 11132  1  0
 17133  1  0
 18134  1  0
 21135  1  0
 21136  1  0
 22137  1  0
 22138  1  0
 22139  1  0
 26140  1  0
 43141  1  0
 47142  1  0
 48143  1  0
 51144  1  0
 51145  1  0
 52146  1  0
 52147  1  0
 52148  1  0
 58149  1  0
 59150  1  0
 62151  1  0
 62152  1  0
 63153  1  0
 63154  1  0
 63155  1  0
 67156  1  0
 97157  1  0
101158  1  0
102159  1  0
105160  1  0
105161  1  0
106162  1  0
106163  1  0
106164  1  0
112165  1  0
113166  1  0
116167  1  0
116168  1  0
117169  1  0
117170  1  0
117171  1  0
121172  1  0
122173  1  0
M  END

