
     RDKit          3D

206229  0  0  0  0  0  0  0  0999 V2000
    3.9497   -7.0508   12.1171 C   0  0  0  0  0  0  0  0  0  0  0  0
    4.9815   -6.7722   11.2575 C   0  0  0  0  0  0  0  0  0  0  0  0
    4.6814   -6.5107    9.9696 C   0  0  0  0  0  0  0  0  0  0  0  0
    5.5527   -6.2279    8.9240 C   0  0  0  0  0  0  0  0  0  0  0  0
    6.9863   -5.9911    9.1023 C   0  0  0  0  0  0  0  0  0  0  0  0
    7.7789   -5.6805   10.1374 C   0  0  0  0  0  0  0  0  0  0  0  0
    9.1072   -5.6433   10.0392 C   0  0  0  0  0  0  0  0  0  0  0  0
    9.7854   -5.9022    8.9351 C   0  0  0  0  0  0  0  0  0  0  0  0
   11.4438   -6.0238    8.3977 S   0  0  0  0  0  0  0  0  0  0  0  0
   12.1489   -4.4377    7.9187 C   0  0  0  0  0  0  0  0  0  0  0  0
   11.5502   -3.8315    6.6933 C   0  0  0  0  0  0  0  0  0  0  0  0
    8.1973   -6.2886    7.7357 Se  0  0  0  0  0  2  0  0  0  0  0  0
    5.0450   -6.0197    7.6388 C   0  0  0  0  0  0  0  0  0  0  0  0
    3.7215   -6.0686    7.3015 C   0  0  0  0  0  0  0  0  0  0  0  0
    2.8435   -6.3406    8.3543 C   0  0  0  0  0  0  0  0  0  0  0  0
    1.3985   -6.2287    8.2075 C   0  0  0  0  0  0  0  0  0  0  0  0
    0.3629   -6.6244    8.9496 C   0  0  0  0  0  0  0  0  0  0  0  0
   -0.9032   -6.2945    8.6916 C   0  0  0  0  0  0  0  0  0  0  0  0
   -1.2626   -5.5321    7.6558 C   0  0  0  0  0  0  0  0  0  0  0  0
   -2.7498   -4.8775    6.9917 S   0  0  0  0  0  0  0  0  0  0  0  0
   -2.4530   -3.8486    5.5277 C   0  0  0  0  0  0  0  0  0  0  0  0
   -1.6834   -2.5985    5.9127 C   0  0  0  0  0  0  0  0  0  0  0  0
    0.5203   -5.1983    6.8753 Se  0  0  0  0  0  2  0  0  0  0  0  0
    3.3556   -6.5485    9.6237 C   0  0  0  0  0  0  0  0  0  0  0  0
    2.5890   -6.9431   11.1094 S   0  0  0  0  0  0  0  0  0  0  0  0
    3.4072   -5.8525    6.0136 C   0  0  0  0  0  0  0  0  0  0  0  0
    4.4470   -5.5951    5.1449 C   0  0  0  0  0  0  0  0  0  0  0  0
    5.7938   -5.6631    6.1221 S   0  0  0  0  0  0  0  0  0  0  0  0
    4.3046   -5.3569    3.6931 C   0  0  0  0  0  0  0  0  0  0  0  0
    5.0004   -4.5346    2.8574 C   0  0  0  0  0  0  0  0  0  0  0  0
    4.5244   -4.3412    1.6129 C   0  0  0  0  0  0  0  0  0  0  0  0
    5.0064   -3.4492    0.6414 C   0  0  0  0  0  0  0  0  0  0  0  0
    6.1768   -2.6270    0.7729 C   0  0  0  0  0  0  0  0  0  0  0  0
    6.9188   -1.9372   -0.1298 C   0  0  0  0  0  0  0  0  0  0  0  0
    7.9213   -1.1461    0.2145 C   0  0  0  0  0  0  0  0  0  0  0  0
    8.3370   -0.9167    1.4531 C   0  0  0  0  0  0  0  0  0  0  0  0
    9.5709    0.0101    2.2797 S   0  0  0  0  0  0  0  0  0  0  0  0
    9.4429   -0.1477    4.0886 C   0  0  0  0  0  0  0  0  0  0  0  0
   10.6000    0.6549    4.6653 C   0  0  0  0  0  0  0  0  0  0  0  0
    7.0268   -2.0780    2.4177 Se  0  0  0  0  0  2  0  0  0  0  0  0
    4.2958   -3.2957   -0.5483 C   0  0  0  0  0  0  0  0  0  0  0  0
    3.1470   -3.9566   -0.8862 C   0  0  0  0  0  0  0  0  0  0  0  0
    2.6733   -4.8548    0.0785 C   0  0  0  0  0  0  0  0  0  0  0  0
    1.5729   -5.7764   -0.1427 C   0  0  0  0  0  0  0  0  0  0  0  0
    0.9174   -6.2710   -1.1912 C   0  0  0  0  0  0  0  0  0  0  0  0
   -0.1546   -7.0641   -1.0889 C   0  0  0  0  0  0  0  0  0  0  0  0
   -0.6777   -7.4435    0.0655 C   0  0  0  0  0  0  0  0  0  0  0  0
   -2.0376   -8.4160    0.6373 S   0  0  0  0  0  0  0  0  0  0  0  0
   -2.0601   -8.5058    2.4459 C   0  0  0  0  0  0  0  0  0  0  0  0
   -2.3242   -7.1195    2.9825 C   0  0  0  0  0  0  0  0  0  0  0  0
    0.5676   -6.5137    1.3111 Se  0  0  0  0  0  2  0  0  0  0  0  0
    3.3669   -5.0027    1.2775 C   0  0  0  0  0  0  0  0  0  0  0  0
    2.9932   -5.8584    2.7054 S   0  0  0  0  0  0  0  0  0  0  0  0
    2.5003   -3.5335   -2.0069 C   0  0  0  0  0  0  0  0  0  0  0  0
    3.0491   -2.4807   -2.6903 C   0  0  0  0  0  0  0  0  0  0  0  0
    4.4208   -2.1162   -1.8067 S   0  0  0  0  0  0  0  0  0  0  0  0
    2.3900   -1.8305   -3.8419 C   0  0  0  0  0  0  0  0  0  0  0  0
    1.9902   -0.4901   -3.6657 C   0  0  0  0  0  0  0  0  0  0  0  0
    1.1637    0.0316   -4.5880 C   0  0  0  0  0  0  0  0  0  0  0  0
    0.5194    1.2765   -4.5408 C   0  0  0  0  0  0  0  0  0  0  0  0
    0.8558    2.3085   -3.5730 C   0  0  0  0  0  0  0  0  0  0  0  0
    0.2826    3.4540   -3.2108 C   0  0  0  0  0  0  0  0  0  0  0  0
    0.8174    4.3116   -2.3331 C   0  0  0  0  0  0  0  0  0  0  0  0
    1.9983    4.0819   -1.7363 C   0  0  0  0  0  0  0  0  0  0  0  0
    2.9823    4.9647   -0.5634 S   0  0  0  0  0  0  0  0  0  0  0  0
    2.4094    4.4941    1.1079 C   0  0  0  0  0  0  0  0  0  0  0  0
    2.7430    3.0794    1.4251 C   0  0  0  0  0  0  0  0  0  0  0  0
    2.4658    2.3581   -2.5296 Se  0  0  0  0  0  2  0  0  0  0  0  0
   -0.4152    1.5813   -5.5050 C   0  0  0  0  0  0  0  0  0  0  0  0
   -0.7994    0.7914   -6.5628 C   0  0  0  0  0  0  0  0  0  0  0  0
   -0.1571   -0.4383   -6.6155 C   0  0  0  0  0  0  0  0  0  0  0  0
   -0.2399   -1.3957   -7.7362 C   0  0  0  0  0  0  0  0  0  0  0  0
   -0.6553   -1.3563   -8.9999 C   0  0  0  0  0  0  0  0  0  0  0  0
   -0.6583   -2.4329   -9.8049 C   0  0  0  0  0  0  0  0  0  0  0  0
   -0.2505   -3.6332   -9.4242 C   0  0  0  0  0  0  0  0  0  0  0  0
   -0.0642   -5.2522  -10.1045 S   0  0  0  0  0  0  0  0  0  0  0  0
    1.6298   -5.4052  -10.7948 C   0  0  0  0  0  0  0  0  0  0  0  0
    2.6545   -5.3464   -9.6923 C   0  0  0  0  0  0  0  0  0  0  0  0
    0.2504   -3.1951   -7.5430 Se  0  0  0  0  0  2  0  0  0  0  0  0
    0.7866   -0.7716   -5.6247 C   0  0  0  0  0  0  0  0  0  0  0  0
    1.6157   -2.2478   -5.2471 S   0  0  0  0  0  0  0  0  0  0  0  0
   -1.8277    1.2617   -7.3071 C   0  0  0  0  0  0  0  0  0  0  0  0
   -2.4046    2.4225   -6.9895 C   0  0  0  0  0  0  0  0  0  0  0  0
   -1.4837    2.9041   -5.6024 S   0  0  0  0  0  0  0  0  0  0  0  0
   -3.5098    3.2479   -7.5335 C   0  0  0  0  0  0  0  0  0  0  0  0
   -4.1551    4.0674   -6.7028 C   0  0  0  0  0  0  0  0  0  0  0  0
   -5.2555    4.8375   -7.3929 C   0  0  2  0  0  0  0  0  0  0  0  0
   -4.6992    4.7918   -8.8066 C   0  0  2  0  0  0  0  0  0  0  0  0
   -4.0044    3.4318   -8.8666 C   0  0  0  0  0  0  0  0  0  0  0  0
   -3.8138    5.9816   -8.8565 C   0  0  2  0  0  0  0  0  0  0  0  0
   -4.5661    7.0254   -8.0031 C   0  0  1  0  0  0  0  0  0  0  0  0
   -5.6199    7.4719   -8.9414 C   0  0  0  0  0  0  0  0  0  0  0  0
   -5.2620    7.2430  -10.1965 C   0  0  0  0  0  0  0  0  0  0  0  0
   -3.9182    6.6123  -10.2251 C   0  0  0  0  0  0  0  0  0  0  0  0
   -5.0844    6.2299   -6.8782 C   0  0  0  0  0  0  0  0  0  0  0  0
   -5.2945    6.5965   -5.6582 C   0  0  0  0  0  0  0  0  0  0  0  0
   -5.7376    5.8427   -4.5087 C   0  0  0  0  0  0  0  0  0  0  0  0
   -5.8079    6.3426   -3.2631 C   0  0  0  0  0  0  0  0  0  0  0  0
   -6.2851    5.2590   -2.3523 C   0  0  2  0  0  0  0  0  0  0  0  0
   -7.3484    4.6271   -3.2890 C   0  0  2  0  0  0  0  0  0  0  0  0
   -6.4066    4.4952   -4.5162 C   0  0  0  0  0  0  0  0  0  0  0  0
   -8.3165    5.7705   -3.3921 C   0  0  2  0  0  0  0  0  0  0  0  0
   -8.1496    6.6093   -2.1166 C   0  0  1  0  0  0  0  0  0  0  0  0
   -9.4704    6.7090   -1.4912 C   0  0  0  0  0  0  0  0  0  0  0  0
  -10.3656    6.0017   -2.1657 C   0  0  0  0  0  0  0  0  0  0  0  0
   -9.7551    5.3309   -3.3404 C   0  0  0  0  0  0  0  0  0  0  0  0
   -7.2095    5.7185   -1.2980 C   0  0  0  0  0  0  0  0  0  0  0  0
   -7.3605    5.4549   -0.0452 C   0  0  0  0  0  0  0  0  0  0  0  0
   -6.6023    4.5350    0.7893 C   0  0  0  0  0  0  0  0  0  0  0  0
   -6.7765    4.3288    2.0859 C   0  0  0  0  0  0  0  0  0  0  0  0
   -5.8382    3.3269    2.6309 C   0  0  2  0  0  0  0  0  0  0  0  0
   -5.3046    2.6462    1.4142 C   0  0  2  0  0  0  0  0  0  0  0  0
   -5.5381    3.6386    0.2904 C   0  0  0  0  0  0  0  0  0  0  0  0
   -6.2002    1.4428    1.1416 C   0  0  2  0  0  0  0  0  0  0  0  0
   -7.1577    1.3688    2.2925 C   0  0  1  0  0  0  0  0  0  0  0  0
   -7.2053   -0.0654    2.6900 C   0  0  0  0  0  0  0  0  0  0  0  0
   -6.2364   -0.7140    2.0594 C   0  0  0  0  0  0  0  0  0  0  0  0
   -5.4320    0.1560    1.1845 C   0  0  0  0  0  0  0  0  0  0  0  0
   -6.5692    2.2202    3.3574 C   0  0  0  0  0  0  0  0  0  0  0  0
   -6.6525    2.0581    4.6690 C   0  0  0  0  0  0  0  0  0  0  0  0
    4.0368   -7.2814   13.1968 H   0  0  0  0  0  0  0  0  0  0  0  0
    6.0020   -6.8309   11.7005 H   0  0  0  0  0  0  0  0  0  0  0  0
    7.2810   -5.3771   11.1138 H   0  0  0  0  0  0  0  0  0  0  0  0
    9.7485   -5.3712   10.9556 H   0  0  0  0  0  0  0  0  0  0  0  0
   11.9902   -3.6922    8.7481 H   0  0  0  0  0  0  0  0  0  0  0  0
   13.2600   -4.5069    7.8406 H   0  0  0  0  0  0  0  0  0  0  0  0
   12.0443   -2.8225    6.5777 H   0  0  0  0  0  0  0  0  0  0  0  0
   11.8335   -4.3872    5.7785 H   0  0  0  0  0  0  0  0  0  0  0  0
   10.4765   -3.6457    6.7969 H   0  0  0  0  0  0  0  0  0  0  0  0
    0.5866   -7.3008    9.8461 H   0  0  0  0  0  0  0  0  0  0  0  0
   -1.7509   -6.6623    9.3652 H   0  0  0  0  0  0  0  0  0  0  0  0
   -3.4595   -3.5570    5.1563 H   0  0  0  0  0  0  0  0  0  0  0  0
   -1.8452   -4.3644    4.7524 H   0  0  0  0  0  0  0  0  0  0  0  0
   -2.1714   -1.6801    5.4917 H   0  0  0  0  0  0  0  0  0  0  0  0
   -1.7042   -2.4945    7.0101 H   0  0  0  0  0  0  0  0  0  0  0  0
   -0.6503   -2.5833    5.4905 H   0  0  0  0  0  0  0  0  0  0  0  0
    2.3958   -5.8754    5.5701 H   0  0  0  0  0  0  0  0  0  0  0  0
    5.9311   -4.0816    3.2698 H   0  0  0  0  0  0  0  0  0  0  0  0
    6.6588   -2.1008   -1.2203 H   0  0  0  0  0  0  0  0  0  0  0  0
    8.5188   -0.5821   -0.6075 H   0  0  0  0  0  0  0  0  0  0  0  0
    8.4766    0.3105    4.4080 H   0  0  0  0  0  0  0  0  0  0  0  0
    9.4792   -1.1798    4.4241 H   0  0  0  0  0  0  0  0  0  0  0  0
   10.4627    1.7344    4.4530 H   0  0  0  0  0  0  0  0  0  0  0  0
   10.7439    0.4498    5.7370 H   0  0  0  0  0  0  0  0  0  0  0  0
   11.5643    0.3547    4.1614 H   0  0  0  0  0  0  0  0  0  0  0  0
    1.3350   -6.0486   -2.2314 H   0  0  0  0  0  0  0  0  0  0  0  0
   -0.6739   -7.4579   -2.0344 H   0  0  0  0  0  0  0  0  0  0  0  0
   -1.0921   -8.9030    2.8203 H   0  0  0  0  0  0  0  0  0  0  0  0
   -2.8362   -9.2095    2.7790 H   0  0  0  0  0  0  0  0  0  0  0  0
   -1.7903   -6.3523    2.3805 H   0  0  0  0  0  0  0  0  0  0  0  0
   -1.9935   -7.0257    4.0382 H   0  0  0  0  0  0  0  0  0  0  0  0
   -3.3892   -6.8561    2.8950 H   0  0  0  0  0  0  0  0  0  0  0  0
    1.5422   -3.9805   -2.3742 H   0  0  0  0  0  0  0  0  0  0  0  0
    2.3778    0.0403   -2.7710 H   0  0  0  0  0  0  0  0  0  0  0  0
   -0.7290    3.7267   -3.6505 H   0  0  0  0  0  0  0  0  0  0  0  0
    0.2978    5.2923   -2.0512 H   0  0  0  0  0  0  0  0  0  0  0  0
    1.2831    4.6046    1.1546 H   0  0  0  0  0  0  0  0  0  0  0  0
    2.7947    5.2441    1.8056 H   0  0  0  0  0  0  0  0  0  0  0  0
    1.8858    2.4021    1.4883 H   0  0  0  0  0  0  0  0  0  0  0  0
    3.5022    2.6448    0.7386 H   0  0  0  0  0  0  0  0  0  0  0  0
    3.2344    3.0625    2.4310 H   0  0  0  0  0  0  0  0  0  0  0  0
   -0.9918   -0.3585   -9.4270 H   0  0  0  0  0  0  0  0  0  0  0  0
   -1.0346   -2.3418  -10.8822 H   0  0  0  0  0  0  0  0  0  0  0  0
    1.8148   -4.5271  -11.4516 H   0  0  0  0  0  0  0  0  0  0  0  0
    1.7188   -6.3059  -11.4010 H   0  0  0  0  0  0  0  0  0  0  0  0
    2.9727   -4.3114   -9.4775 H   0  0  0  0  0  0  0  0  0  0  0  0
    2.2921   -5.8110   -8.7464 H   0  0  0  0  0  0  0  0  0  0  0  0
    3.5834   -5.8974  -10.0234 H   0  0  0  0  0  0  0  0  0  0  0  0
   -2.2579    0.7047   -8.1771 H   0  0  0  0  0  0  0  0  0  0  0  0
   -3.9050    4.1793   -5.6612 H   0  0  0  0  0  0  0  0  0  0  0  0
   -6.2266    4.4347   -7.3350 H   0  0  0  0  0  0  0  0  0  0  0  0
   -5.5245    4.7779   -9.5340 H   0  0  0  0  0  0  0  0  0  0  0  0
   -4.7233    2.6629   -9.2086 H   0  0  0  0  0  0  0  0  0  0  0  0
   -3.1530    3.5364   -9.5730 H   0  0  0  0  0  0  0  0  0  0  0  0
   -2.7918    5.8418   -8.5075 H   0  0  0  0  0  0  0  0  0  0  0  0
   -3.8765    7.8299   -7.6760 H   0  0  0  0  0  0  0  0  0  0  0  0
   -6.5492    7.9271   -8.6407 H   0  0  0  0  0  0  0  0  0  0  0  0
   -5.8261    7.4691  -11.0980 H   0  0  0  0  0  0  0  0  0  0  0  0
   -3.1564    7.4167  -10.3653 H   0  0  0  0  0  0  0  0  0  0  0  0
   -3.8568    5.8175  -10.9996 H   0  0  0  0  0  0  0  0  0  0  0  0
   -5.0995    7.6816   -5.4610 H   0  0  0  0  0  0  0  0  0  0  0  0
   -5.5851    7.3385   -2.9215 H   0  0  0  0  0  0  0  0  0  0  0  0
   -5.4974    4.5861   -2.0785 H   0  0  0  0  0  0  0  0  0  0  0  0
   -7.7272    3.6902   -2.9276 H   0  0  0  0  0  0  0  0  0  0  0  0
   -7.0855    4.3434   -5.3572 H   0  0  0  0  0  0  0  0  0  0  0  0
   -5.7304    3.6722   -4.3558 H   0  0  0  0  0  0  0  0  0  0  0  0
   -8.0875    6.4458   -4.2446 H   0  0  0  0  0  0  0  0  0  0  0  0
   -7.6000    7.5335   -2.2851 H   0  0  0  0  0  0  0  0  0  0  0  0
   -9.6435    7.3076   -0.5819 H   0  0  0  0  0  0  0  0  0  0  0  0
  -11.4100    5.9224   -1.9115 H   0  0  0  0  0  0  0  0  0  0  0  0
   -9.7812    4.2364   -3.1527 H   0  0  0  0  0  0  0  0  0  0  0  0
  -10.3395    5.6271   -4.2343 H   0  0  0  0  0  0  0  0  0  0  0  0
   -8.1718    5.9998    0.4808 H   0  0  0  0  0  0  0  0  0  0  0  0
   -7.5270    4.8509    2.7034 H   0  0  0  0  0  0  0  0  0  0  0  0
   -5.0518    3.7164    3.2837 H   0  0  0  0  0  0  0  0  0  0  0  0
   -4.2314    2.3482    1.4932 H   0  0  0  0  0  0  0  0  0  0  0  0
   -4.6298    4.1917    0.0578 H   0  0  0  0  0  0  0  0  0  0  0  0
   -5.9963    3.0831   -0.5741 H   0  0  0  0  0  0  0  0  0  0  0  0
   -6.7552    1.5591    0.1900 H   0  0  0  0  0  0  0  0  0  0  0  0
   -8.1859    1.6853    2.0495 H   0  0  0  0  0  0  0  0  0  0  0  0
   -7.9336   -0.4851    3.3769 H   0  0  0  0  0  0  0  0  0  0  0  0
   -6.0544   -1.7869    2.1871 H   0  0  0  0  0  0  0  0  0  0  0  0
   -4.4231    0.3553    1.6190 H   0  0  0  0  0  0  0  0  0  0  0  0
   -5.2914   -0.2948    0.1753 H   0  0  0  0  0  0  0  0  0  0  0  0
   -7.2238    1.2000    5.0518 H   0  0  0  0  0  0  0  0  0  0  0  0
   -6.1791    2.7221    5.3652 H   0  0  0  0  0  0  0  0  0  0  0  0
  1  2  2  0
  2  3  1  0
  3  4  2  0
  4  5  1  0
  5  6  2  0
  6  7  1  0
  7  8  2  0
  8  9  1  0
  9 10  1  0
 10 11  1  0
  8 12  1  0
  4 13  1  0
 13 14  2  0
 14 15  1  0
 15 16  1  0
 16 17  2  0
 17 18  1  0
 18 19  2  0
 19 20  1  0
 20 21  1  0
 21 22  1  0
 19 23  1  0
 15 24  2  0
 24 25  1  0
 14 26  1  0
 26 27  2  0
 27 28  1  0
 27 29  1  0
 29 30  2  0
 30 31  1  0
 31 32  2  0
 32 33  1  0
 33 34  2  0
 34 35  1  0
 35 36  2  0
 36 37  1  0
 37 38  1  0
 38 39  1  0
 36 40  1  0
 32 41  1  0
 41 42  2  0
 42 43  1  0
 43 44  1  0
 44 45  2  0
 45 46  1  0
 46 47  2  0
 47 48  1  0
 48 49  1  0
 49 50  1  0
 47 51  1  0
 43 52  2  0
 52 53  1  0
 42 54  1  0
 54 55  2  0
 55 56  1  0
 55 57  1  0
 57 58  2  0
 58 59  1  0
 59 60  2  0
 60 61  1  0
 61 62  2  0
 62 63  1  0
 63 64  2  0
 64 65  1  0
 65 66  1  0
 66 67  1  0
 64 68  1  0
 60 69  1  0
 69 70  2  0
 70 71  1  0
 71 72  1  0
 72 73  2  0
 73 74  1  0
 74 75  2  0
 75 76  1  0
 76 77  1  0
 77 78  1  0
 75 79  1  0
 71 80  2  0
 80 81  1  0
 70 82  1  0
 82 83  2  0
 83 84  1  0
 83 85  1  0
 85 86  2  0
 86 87  1  0
 87 88  1  0
 88 89  1  0
 88 90  1  0
 90 91  1  0
 91 92  1  0
 92 93  2  0
 93 94  1  0
 91 95  1  0
 95 96  2  3
 96 97  1  0
 97 98  2  0
 98 99  1  0
 99100  1  0
100101  1  0
100102  1  0
102103  1  0
103104  1  0
104105  2  0
105106  1  0
103107  1  0
107108  2  3
108109  1  0
109110  2  0
110111  1  0
111112  1  0
112113  1  0
112114  1  0
114115  1  0
115116  1  0
116117  2  0
117118  1  0
115119  1  0
119120  2  3
 25  1  1  0
 53 29  1  0
 81 57  1  0
 89 85  1  0
 94 90  1  0
101 97  1  0
106102  1  0
113109  1  0
118114  1  0
 24  3  1  0
 52 31  1  0
 80 59  1  0
 95 87  1  0
107 99  1  0
119111  1  0
 12  5  1  0
 28 13  1  0
 40 33  1  0
 56 41  1  0
 68 61  1  0
 84 69  1  0
 23 16  1  0
 51 44  1  0
 79 72  1  0
  1121  1  0
  2122  1  0
  6123  1  0
  7124  1  0
 10125  1  0
 10126  1  0
 11127  1  0
 11128  1  0
 11129  1  0
 17130  1  0
 18131  1  0
 21132  1  0
 21133  1  0
 22134  1  0
 22135  1  0
 22136  1  0
 26137  1  0
 30138  1  0
 34139  1  0
 35140  1  0
 38141  1  0
 38142  1  0
 39143  1  0
 39144  1  0
 39145  1  0
 45146  1  0
 46147  1  0
 49148  1  0
 49149  1  0
 50150  1  0
 50151  1  0
 50152  1  0
 54153  1  0
 58154  1  0
 62155  1  0
 63156  1  0
 66157  1  0
 66158  1  0
 67159  1  0
 67160  1  0
 67161  1  0
 73162  1  0
 74163  1  0
 77164  1  0
 77165  1  0
 78166  1  0
 78167  1  0
 78168  1  0
 82169  1  0
 86170  1  0
 87171  1  6
 88172  1  6
 89173  1  0
 89174  1  0
 90175  1  1
 91176  1  1
 92177  1  0
 93178  1  0
 94179  1  0
 94180  1  0
 96181  1  0
 98182  1  0
 99183  1  1
100184  1  1
101185  1  0
101186  1  0
102187  1  6
103188  1  6
104189  1  0
105190  1  0
106191  1  0
106192  1  0
108193  1  0
110194  1  0
111195  1  1
112196  1  1
113197  1  0
113198  1  0
114199  1  6
115200  1  6
116201  1  0
117202  1  0
118203  1  0
118204  1  0
120205  1  0
120206  1  0
M  END

