
     RDKit          3D

284313  0  0  0  0  0  0  0  0999 V2000
   -4.6235  -11.6116    8.3179 C   0  0  0  0  0  0  0  0  0  0  0  0
   -3.9210  -12.3276    7.4018 C   0  0  0  0  0  0  0  0  0  0  0  0
   -4.3501  -12.2958    6.1034 C   0  0  0  0  0  0  0  0  0  0  0  0
   -3.8275  -12.9430    5.0026 C   0  0  0  0  0  0  0  0  0  0  0  0
   -2.5012  -13.5965    4.9599 C   0  0  0  0  0  0  0  0  0  0  0  0
   -1.3940  -13.5624    5.6981 C   0  0  0  0  0  0  0  0  0  0  0  0
   -0.3029  -14.2959    5.4230 C   0  0  0  0  0  0  0  0  0  0  0  0
   -0.2169  -15.1232    4.3915 C   0  0  0  0  0  0  0  0  0  0  0  0
    0.9582  -16.1818    3.6136 S   0  0  0  0  0  0  0  0  0  0  0  0
    1.6715  -15.2331    2.2103 C   0  0  0  0  0  0  0  0  0  0  0  0
    2.5111  -14.0812    2.6481 C   0  0  0  0  0  0  0  0  0  0  0  0
   -2.0467  -14.8424    3.6155 Se  0  0  0  0  0  2  0  0  0  0  0  0
   -4.4560  -12.8035    3.7704 C   0  0  0  0  0  0  0  0  0  0  0  0
   -5.5816  -12.0619    3.5039 C   0  0  0  0  0  0  0  0  0  0  0  0
   -6.0967  -11.3960    4.6073 C   0  0  0  0  0  0  0  0  0  0  0  0
   -7.1010  -10.3276    4.5580 C   0  0  0  0  0  0  0  0  0  0  0  0
   -7.6542   -9.5761    3.5908 C   0  0  0  0  0  0  0  0  0  0  0  0
   -8.5610   -8.6248    3.8513 C   0  0  0  0  0  0  0  0  0  0  0  0
   -9.0096   -8.3168    5.0568 C   0  0  0  0  0  0  0  0  0  0  0  0
  -10.1403   -7.1785    5.7784 S   0  0  0  0  0  0  0  0  0  0  0  0
   -9.3185   -5.5919    6.1236 C   0  0  0  0  0  0  0  0  0  0  0  0
   -8.2624   -5.7504    7.1929 C   0  0  0  0  0  0  0  0  0  0  0  0
   -7.9526   -9.6368    6.1063 Se  0  0  0  0  0  2  0  0  0  0  0  0
   -5.4724  -11.5340    5.8627 C   0  0  0  0  0  0  0  0  0  0  0  0
   -5.8547  -10.9166    7.4080 S   0  0  0  0  0  0  0  0  0  0  0  0
   -5.9872  -12.0365    2.2010 C   0  0  0  0  0  0  0  0  0  0  0  0
   -5.2560  -12.7155    1.2911 C   0  0  0  0  0  0  0  0  0  0  0  0
   -4.0171  -13.4123    2.2470 S   0  0  0  0  0  0  0  0  0  0  0  0
   -5.2653  -12.7010   -0.2015 C   0  0  0  0  0  0  0  0  0  0  0  0
   -5.8961  -11.9249   -1.0990 C   0  0  0  0  0  0  0  0  0  0  0  0
   -5.4145  -11.9068   -2.3891 C   0  0  0  0  0  0  0  0  0  0  0  0
   -5.7284  -10.9721   -3.3861 C   0  0  0  0  0  0  0  0  0  0  0  0
   -6.7511   -9.9815   -3.3339 C   0  0  0  0  0  0  0  0  0  0  0  0
   -7.3080   -9.1359   -4.2139 C   0  0  0  0  0  0  0  0  0  0  0  0
   -8.1629   -8.1722   -3.8808 C   0  0  0  0  0  0  0  0  0  0  0  0
   -8.5615   -7.9429   -2.6181 C   0  0  0  0  0  0  0  0  0  0  0  0
   -9.5257   -6.7165   -1.7952 S   0  0  0  0  0  0  0  0  0  0  0  0
   -9.7492   -5.3634   -2.9836 C   0  0  0  0  0  0  0  0  0  0  0  0
  -10.3929   -4.1933   -2.2833 C   0  0  0  0  0  0  0  0  0  0  0  0
   -7.6001   -9.3004   -1.6947 Se  0  0  0  0  0  2  0  0  0  0  0  0
   -4.8869  -10.9215   -4.5237 C   0  0  0  0  0  0  0  0  0  0  0  0
   -3.8094  -11.6795   -4.7682 C   0  0  0  0  0  0  0  0  0  0  0  0
   -3.5142  -12.6486   -3.7844 C   0  0  0  0  0  0  0  0  0  0  0  0
   -2.5529  -13.7046   -3.9148 C   0  0  0  0  0  0  0  0  0  0  0  0
   -1.7564  -14.2815   -4.8130 C   0  0  0  0  0  0  0  0  0  0  0  0
   -0.9360  -15.3072   -4.5418 C   0  0  0  0  0  0  0  0  0  0  0  0
   -0.7929  -15.8943   -3.3670 C   0  0  0  0  0  0  0  0  0  0  0  0
    0.1013  -17.2119   -2.6280 S   0  0  0  0  0  0  0  0  0  0  0  0
   -0.8105  -18.7918   -2.6862 C   0  0  0  0  0  0  0  0  0  0  0  0
   -0.9604  -19.3096   -4.0903 C   0  0  0  0  0  0  0  0  0  0  0  0
   -2.0813  -14.8141   -2.3197 Se  0  0  0  0  0  2  0  0  0  0  0  0
   -4.3476  -12.6869   -2.6453 C   0  0  0  0  0  0  0  0  0  0  0  0
   -4.0296  -13.4348   -1.1133 S   0  0  0  0  0  0  0  0  0  0  0  0
   -2.9544  -11.2401   -5.7578 C   0  0  0  0  0  0  0  0  0  0  0  0
   -3.2393  -10.1054   -6.3970 C   0  0  0  0  0  0  0  0  0  0  0  0
   -4.7437   -9.6233   -5.6564 S   0  0  0  0  0  0  0  0  0  0  0  0
   -2.3601   -9.0327   -7.0298 C   0  0  0  0  0  0  0  0  0  0  0  0
   -2.7263   -7.8430   -7.5231 C   0  0  0  0  0  0  0  0  0  0  0  0
   -1.7729   -6.8585   -7.5953 C   0  0  0  0  0  0  0  0  0  0  0  0
   -1.9791   -5.4887   -7.8399 C   0  0  0  0  0  0  0  0  0  0  0  0
   -3.1973   -4.9506   -8.3728 C   0  0  0  0  0  0  0  0  0  0  0  0
   -4.1789   -4.3480   -7.6567 C   0  0  0  0  0  0  0  0  0  0  0  0
   -5.3183   -3.7989   -8.2643 C   0  0  0  0  0  0  0  0  0  0  0  0
   -5.4799   -3.8555   -9.6252 C   0  0  0  0  0  0  0  0  0  0  0  0
   -6.8235   -3.1323  -10.5378 S   0  0  0  0  0  0  0  0  0  0  0  0
   -7.9895   -2.1985   -9.5729 C   0  0  0  0  0  0  0  0  0  0  0  0
   -8.9796   -1.5186  -10.5368 C   0  0  0  0  0  0  0  0  0  0  0  0
   -4.4711   -4.4765  -10.3437 C   0  0  0  0  0  0  0  0  0  0  0  0
   -4.6144   -4.5493  -11.6996 F   0  0  0  0  0  0  0  0  0  0  0  0
   -3.3674   -5.0066   -9.7531 C   0  0  0  0  0  0  0  0  0  0  0  0
   -0.9499   -4.5878   -7.6163 C   0  0  0  0  0  0  0  0  0  0  0  0
    0.3025   -4.8843   -7.1777 C   0  0  0  0  0  0  0  0  0  0  0  0
    0.5055   -6.2602   -6.9564 C   0  0  0  0  0  0  0  0  0  0  0  0
    1.7278   -6.8188   -6.4050 C   0  0  0  0  0  0  0  0  0  0  0  0
    2.8266   -7.1341   -7.1575 C   0  0  0  0  0  0  0  0  0  0  0  0
    3.9210   -7.7317   -6.5288 C   0  0  0  0  0  0  0  0  0  0  0  0
    3.9489   -8.0223   -5.1742 C   0  0  0  0  0  0  0  0  0  0  0  0
    5.3140   -8.8444   -4.3850 S   0  0  0  0  0  0  0  0  0  0  0  0
    6.5646   -9.3514   -5.6081 C   0  0  0  0  0  0  0  0  0  0  0  0
    5.9921  -10.4254   -6.5252 C   0  0  0  0  0  0  0  0  0  0  0  0
    2.8319   -7.6948   -4.4291 C   0  0  0  0  0  0  0  0  0  0  0  0
    1.7549   -7.1115   -5.0236 C   0  0  0  0  0  0  0  0  0  0  0  0
    2.7638   -7.9396   -3.0848 F   0  0  0  0  0  0  0  0  0  0  0  0
   -0.5286   -7.1733   -7.1714 C   0  0  0  0  0  0  0  0  0  0  0  0
   -0.6942   -8.8338   -6.6891 S   0  0  0  0  0  0  0  0  0  0  0  0
    1.0961   -3.8386   -6.8015 C   0  0  0  0  0  0  0  0  0  0  0  0
    0.5792   -2.5911   -6.8783 C   0  0  0  0  0  0  0  0  0  0  0  0
   -0.9915   -2.8639   -7.4970 S   0  0  0  0  0  0  0  0  0  0  0  0
    1.0850   -1.2829   -6.3354 C   0  0  0  0  0  0  0  0  0  0  0  0
    0.1702   -0.3635   -5.7822 C   0  0  0  0  0  0  0  0  0  0  0  0
    0.6528    0.6495   -5.0621 C   0  0  0  0  0  0  0  0  0  0  0  0
   -0.0804    1.5845   -4.2906 C   0  0  0  0  0  0  0  0  0  0  0  0
   -1.5144    1.7359   -4.3838 C   0  0  0  0  0  0  0  0  0  0  0  0
   -2.5328    1.4463   -5.1664 C   0  0  0  0  0  0  0  0  0  0  0  0
   -3.8139    1.6511   -4.8642 C   0  0  0  0  0  0  0  0  0  0  0  0
   -4.2127    2.1808   -3.7212 C   0  0  0  0  0  0  0  0  0  0  0  0
   -5.7898    2.5716   -2.9828 S   0  0  0  0  0  0  0  0  0  0  0  0
   -6.4275    1.1457   -2.0588 C   0  0  0  0  0  0  0  0  0  0  0  0
   -7.7235    1.5178   -1.4193 C   0  0  0  0  0  0  0  0  0  0  0  0
   -2.5019    2.4885   -2.8369 Se  0  0  0  0  0  2  0  0  0  0  0  0
    0.5942    2.4752   -3.4759 C   0  0  0  0  0  0  0  0  0  0  0  0
    1.9538    2.5580   -3.3407 C   0  0  0  0  0  0  0  0  0  0  0  0
    2.6737    1.6270   -4.1111 C   0  0  0  0  0  0  0  0  0  0  0  0
    4.0784    1.4525   -4.0223 C   0  0  0  0  0  0  0  0  0  0  0  0
    5.0735    0.9262   -4.7031 C   0  0  0  0  0  0  0  0  0  0  0  0
    6.3264    0.7700   -4.2819 C   0  0  0  0  0  0  0  0  0  0  0  0
    6.7273    1.1527   -3.0518 C   0  0  0  0  0  0  0  0  0  0  0  0
    8.2731    1.0901   -2.1844 S   0  0  0  0  0  0  0  0  0  0  0  0
    7.9384    1.6917   -0.4852 C   0  0  0  0  0  0  0  0  0  0  0  0
    7.5535    3.1451   -0.4779 C   0  0  0  0  0  0  0  0  0  0  0  0
    5.0776    1.8697   -2.3189 Se  0  0  0  0  0  2  0  0  0  0  0  0
    2.0002    0.7310   -4.9182 C   0  0  0  0  0  0  0  0  0  0  0  0
    2.5441   -0.6539   -5.8235 S   0  0  0  0  0  0  0  0  0  0  0  0
    2.4182    3.4798   -2.4846 C   0  0  0  0  0  0  0  0  0  0  0  0
    1.5083    4.2563   -1.8146 C   0  0  0  0  0  0  0  0  0  0  0  0
    0.0210    3.6881   -2.3959 S   0  0  0  0  0  0  0  0  0  0  0  0
    1.8247    5.3240   -0.8593 C   0  0  0  0  0  0  0  0  0  0  0  0
    1.0630    5.9398    0.0549 C   0  0  0  0  0  0  0  0  0  0  0  0
    1.6444    6.8570    0.8386 C   0  0  0  0  0  0  0  0  0  0  0  0
    1.0783    7.6392    1.8667 C   0  0  0  0  0  0  0  0  0  0  0  0
   -0.3163    7.5229    2.2414 C   0  0  0  0  0  0  0  0  0  0  0  0
   -0.7840    6.5315    3.0512 C   0  0  0  0  0  0  0  0  0  0  0  0
   -2.0928    6.4472    3.4746 C   0  0  0  0  0  0  0  0  0  0  0  0
   -3.0278    7.4215    3.0676 C   0  0  0  0  0  0  0  0  0  0  0  0
   -4.6732    7.3201    3.7015 S   0  0  0  0  0  0  0  0  0  0  0  0
   -5.6727    8.6958    3.1311 C   0  0  0  0  0  0  0  0  0  0  0  0
   -5.2630   10.0510    3.6435 C   0  0  0  0  0  0  0  0  0  0  0  0
   -2.5604    8.4079    2.2500 C   0  0  0  0  0  0  0  0  0  0  0  0
   -3.4399    9.3386    1.7838 F   0  0  0  0  0  0  0  0  0  0  0  0
   -1.2179    8.4869    1.8237 C   0  0  0  0  0  0  0  0  0  0  0  0
    1.8651    8.5472    2.5711 C   0  0  0  0  0  0  0  0  0  0  0  0
    3.1782    8.7720    2.3668 C   0  0  0  0  0  0  0  0  0  0  0  0
    3.7539    7.9994    1.3443 C   0  0  0  0  0  0  0  0  0  0  0  0
    5.1247    8.1446    0.9383 C   0  0  0  0  0  0  0  0  0  0  0  0
    6.1423    7.3768    1.3939 C   0  0  0  0  0  0  0  0  0  0  0  0
    7.4663    7.5807    0.9636 C   0  0  0  0  0  0  0  0  0  0  0  0
    7.7563    8.5736    0.0669 C   0  0  0  0  0  0  0  0  0  0  0  0
    9.4346    8.8447   -0.4953 S   0  0  0  0  0  0  0  0  0  0  0  0
    9.7198    7.9189   -2.0454 C   0  0  0  0  0  0  0  0  0  0  0  0
   11.1150    8.2252   -2.5372 C   0  0  0  0  0  0  0  0  0  0  0  0
    6.7243    9.3769   -0.4151 C   0  0  0  0  0  0  0  0  0  0  0  0
    5.4465    9.1516    0.0228 C   0  0  0  0  0  0  0  0  0  0  0  0
    7.0158   10.3621   -1.2987 F   0  0  0  0  0  0  0  0  0  0  0  0
    2.9791    7.1061    0.6550 C   0  0  0  0  0  0  0  0  0  0  0  0
    3.3614    6.0130   -0.6409 S   0  0  0  0  0  0  0  0  0  0  0  0
    3.8200    9.6785    3.0945 C   0  0  0  0  0  0  0  0  0  0  0  0
    3.0594   10.3626    4.0518 C   0  0  0  0  0  0  0  0  0  0  0  0
    1.5391    9.6738    3.8438 S   0  0  0  0  0  0  0  0  0  0  0  0
    3.6761   11.3817    4.9428 C   0  0  0  0  0  0  0  0  0  0  0  0
    3.2034   12.3665    5.7174 C   0  0  0  0  0  0  0  0  0  0  0  0
    4.0875   13.1799    6.3509 C   0  0  0  0  0  0  0  0  0  0  0  0
    3.8374   14.2777    7.1739 C   0  0  0  0  0  0  0  0  0  0  0  0
    2.5316   14.8161    7.5236 C   0  0  0  0  0  0  0  0  0  0  0  0
    1.6763   14.2876    8.4522 C   0  0  0  0  0  0  0  0  0  0  0  0
    0.4862   14.9168    8.7946 C   0  0  0  0  0  0  0  0  0  0  0  0
    0.0968   16.1082    8.2223 C   0  0  0  0  0  0  0  0  0  0  0  0
   -1.3821   17.0118    8.5808 S   0  0  0  0  0  0  0  0  0  0  0  0
   -1.1216   18.1782    9.9049 C   0  0  0  0  0  0  0  0  0  0  0  0
   -0.1352   19.2712    9.6276 C   0  0  0  0  0  0  0  0  0  0  0  0
    0.9839   16.6186    7.2826 C   0  0  0  0  0  0  0  0  0  0  0  0
    0.6646   17.7898    6.6629 F   0  0  0  0  0  0  0  0  0  0  0  0
    2.1598   16.0278    6.9202 C   0  0  0  0  0  0  0  0  0  0  0  0
    4.9134   15.0045    7.7107 C   0  0  0  0  0  0  0  0  0  0  0  0
    6.2281   14.7263    7.4918 C   0  0  0  0  0  0  0  0  0  0  0  0
    6.4910   13.6328    6.6702 C   0  0  0  0  0  0  0  0  0  0  0  0
    7.8237   13.1726    6.3035 C   0  0  0  0  0  0  0  0  0  0  0  0
    8.6867   13.8825    5.4916 C   0  0  0  0  0  0  0  0  0  0  0  0
    9.9107   13.3668    5.0737 C   0  0  0  0  0  0  0  0  0  0  0  0
   10.3098   12.1050    5.4658 C   0  0  0  0  0  0  0  0  0  0  0  0
   11.8364   11.3678    4.9025 S   0  0  0  0  0  0  0  0  0  0  0  0
   13.2376   11.8416    5.9874 C   0  0  0  0  0  0  0  0  0  0  0  0
   14.5209   11.2431    5.4754 C   0  0  0  0  0  0  0  0  0  0  0  0
    9.4637   11.3586    6.2920 C   0  0  0  0  0  0  0  0  0  0  0  0
    8.2806   11.9165    6.6661 C   0  0  0  0  0  0  0  0  0  0  0  0
    9.7977   10.1228    6.7064 F   0  0  0  0  0  0  0  0  0  0  0  0
    5.4178   12.9250    6.1465 C   0  0  0  0  0  0  0  0  0  0  0  0
    5.4030   11.5937    5.1028 S   0  0  0  0  0  0  0  0  0  0  0  0
    7.1371   15.5494    8.0690 C   0  0  0  0  0  0  0  0  0  0  0  0
    6.6747   16.5867    8.8202 C   0  0  0  0  0  0  0  0  0  0  0  0
    4.9678   16.3848    8.7053 S   0  0  0  0  0  0  0  0  0  0  0  0
   -4.3900  -11.5381    9.4055 H   0  0  0  0  0  0  0  0  0  0  0  0
   -3.0509  -12.9264    7.7703 H   0  0  0  0  0  0  0  0  0  0  0  0
   -1.3578  -12.8333    6.5811 H   0  0  0  0  0  0  0  0  0  0  0  0
    0.6187  -14.2147    6.1010 H   0  0  0  0  0  0  0  0  0  0  0  0
    0.7533  -14.7621    1.7137 H   0  0  0  0  0  0  0  0  0  0  0  0
    2.0946  -15.8739    1.4408 H   0  0  0  0  0  0  0  0  0  0  0  0
    3.2734  -13.8828    1.8341 H   0  0  0  0  0  0  0  0  0  0  0  0
    3.0352  -14.2088    3.6005 H   0  0  0  0  0  0  0  0  0  0  0  0
    1.9410  -13.1145    2.6928 H   0  0  0  0  0  0  0  0  0  0  0  0
   -7.3005   -9.7333    2.5275 H   0  0  0  0  0  0  0  0  0  0  0  0
   -9.0067   -8.0118    2.9836 H   0  0  0  0  0  0  0  0  0  0  0  0
  -10.0412   -4.7981    6.3627 H   0  0  0  0  0  0  0  0  0  0  0  0
   -8.7842   -5.1994    5.2051 H   0  0  0  0  0  0  0  0  0  0  0  0
   -7.3955   -6.2488    6.6830 H   0  0  0  0  0  0  0  0  0  0  0  0
   -7.8886   -4.7500    7.5011 H   0  0  0  0  0  0  0  0  0  0  0  0
   -8.6775   -6.3518    8.0253 H   0  0  0  0  0  0  0  0  0  0  0  0
   -6.9035  -11.5370    1.8115 H   0  0  0  0  0  0  0  0  0  0  0  0
   -6.7877  -11.3570   -0.7855 H   0  0  0  0  0  0  0  0  0  0  0  0
   -7.0336   -9.2877   -5.3166 H   0  0  0  0  0  0  0  0  0  0  0  0
   -8.6046   -7.4847   -4.6800 H   0  0  0  0  0  0  0  0  0  0  0  0
   -8.7661   -4.9891   -3.3554 H   0  0  0  0  0  0  0  0  0  0  0  0
  -10.3565   -5.6441   -3.8543 H   0  0  0  0  0  0  0  0  0  0  0  0
  -10.4186   -3.2915   -2.9206 H   0  0  0  0  0  0  0  0  0  0  0  0
  -11.4323   -4.4022   -1.9443 H   0  0  0  0  0  0  0  0  0  0  0  0
   -9.7555   -3.8939   -1.3944 H   0  0  0  0  0  0  0  0  0  0  0  0
   -1.8195  -13.8784   -5.8844 H   0  0  0  0  0  0  0  0  0  0  0  0
   -0.2832  -15.7238   -5.4016 H   0  0  0  0  0  0  0  0  0  0  0  0
   -1.8510  -18.5339   -2.3304 H   0  0  0  0  0  0  0  0  0  0  0  0
   -0.3296  -19.4736   -1.9898 H   0  0  0  0  0  0  0  0  0  0  0  0
   -1.2783  -18.5106   -4.7955 H   0  0  0  0  0  0  0  0  0  0  0  0
   -1.7418  -20.1103   -4.1434 H   0  0  0  0  0  0  0  0  0  0  0  0
   -0.0115  -19.7498   -4.4694 H   0  0  0  0  0  0  0  0  0  0  0  0
   -2.0274  -11.7905   -6.0138 H   0  0  0  0  0  0  0  0  0  0  0  0
   -3.7670   -7.6606   -7.8561 H   0  0  0  0  0  0  0  0  0  0  0  0
   -4.0895   -4.2866   -6.5600 H   0  0  0  0  0  0  0  0  0  0  0  0
   -6.0795   -3.3291   -7.6708 H   0  0  0  0  0  0  0  0  0  0  0  0
   -8.6114   -2.8726   -8.9370 H   0  0  0  0  0  0  0  0  0  0  0  0
   -7.5365   -1.3715   -8.9896 H   0  0  0  0  0  0  0  0  0  0  0  0
   -8.5191   -1.2434  -11.4901 H   0  0  0  0  0  0  0  0  0  0  0  0
   -9.8600   -2.1332  -10.7403 H   0  0  0  0  0  0  0  0  0  0  0  0
   -9.3605   -0.5518  -10.0934 H   0  0  0  0  0  0  0  0  0  0  0  0
   -2.5871   -5.4941  -10.3638 H   0  0  0  0  0  0  0  0  0  0  0  0
    2.8888   -6.9338   -8.2219 H   0  0  0  0  0  0  0  0  0  0  0  0
    4.8253   -8.0022   -7.0948 H   0  0  0  0  0  0  0  0  0  0  0  0
    6.8864   -8.4767   -6.1846 H   0  0  0  0  0  0  0  0  0  0  0  0
    7.4080   -9.8054   -5.0226 H   0  0  0  0  0  0  0  0  0  0  0  0
    6.3778  -10.3942   -7.5462 H   0  0  0  0  0  0  0  0  0  0  0  0
    6.2866  -11.4334   -6.0886 H   0  0  0  0  0  0  0  0  0  0  0  0
    4.8895  -10.3756   -6.5148 H   0  0  0  0  0  0  0  0  0  0  0  0
    0.8690   -6.8364   -4.4784 H   0  0  0  0  0  0  0  0  0  0  0  0
    2.1342   -4.0021   -6.4459 H   0  0  0  0  0  0  0  0  0  0  0  0
   -0.9000   -0.5442   -5.9549 H   0  0  0  0  0  0  0  0  0  0  0  0
   -2.2971    1.0163   -6.2077 H   0  0  0  0  0  0  0  0  0  0  0  0
   -4.6513    1.3636   -5.6116 H   0  0  0  0  0  0  0  0  0  0  0  0
   -6.6553    0.2938   -2.7792 H   0  0  0  0  0  0  0  0  0  0  0  0
   -5.7170    0.7428   -1.3175 H   0  0  0  0  0  0  0  0  0  0  0  0
   -8.5685    0.8697   -1.8196 H   0  0  0  0  0  0  0  0  0  0  0  0
   -8.0052    2.5652   -1.4412 H   0  0  0  0  0  0  0  0  0  0  0  0
   -7.6824    1.2030   -0.3315 H   0  0  0  0  0  0  0  0  0  0  0  0
    4.8240    0.5683   -5.7725 H   0  0  0  0  0  0  0  0  0  0  0  0
    7.1446    0.3023   -4.9360 H   0  0  0  0  0  0  0  0  0  0  0  0
    8.8078    1.5460    0.1765 H   0  0  0  0  0  0  0  0  0  0  0  0
    7.0939    1.1129   -0.0223 H   0  0  0  0  0  0  0  0  0  0  0  0
    8.1437    3.7414   -1.2003 H   0  0  0  0  0  0  0  0  0  0  0  0
    7.7596    3.5408    0.5415 H   0  0  0  0  0  0  0  0  0  0  0  0
    6.4629    3.2979   -0.6442 H   0  0  0  0  0  0  0  0  0  0  0  0
    3.4951    3.6589   -2.3144 H   0  0  0  0  0  0  0  0  0  0  0  0
   -0.0216    5.6648    0.1353 H   0  0  0  0  0  0  0  0  0  0  0  0
   -0.1284    5.7158    3.4225 H   0  0  0  0  0  0  0  0  0  0  0  0
   -2.4615    5.6552    4.1054 H   0  0  0  0  0  0  0  0  0  0  0  0
   -5.7274    8.7594    2.0210 H   0  0  0  0  0  0  0  0  0  0  0  0
   -6.7650    8.4895    3.4270 H   0  0  0  0  0  0  0  0  0  0  0  0
   -4.2885   10.1247    4.1140 H   0  0  0  0  0  0  0  0  0  0  0  0
   -6.0846   10.4064    4.3489 H   0  0  0  0  0  0  0  0  0  0  0  0
   -5.3057   10.8452    2.8368 H   0  0  0  0  0  0  0  0  0  0  0  0
   -0.9687    9.3207    1.1841 H   0  0  0  0  0  0  0  0  0  0  0  0
    5.9543    6.5709    2.1053 H   0  0  0  0  0  0  0  0  0  0  0  0
    8.2455    6.9272    1.3580 H   0  0  0  0  0  0  0  0  0  0  0  0
    9.0120    8.2155   -2.8225 H   0  0  0  0  0  0  0  0  0  0  0  0
    9.6615    6.8386   -1.8215 H   0  0  0  0  0  0  0  0  0  0  0  0
   11.8773    8.2002   -1.7019 H   0  0  0  0  0  0  0  0  0  0  0  0
   11.4343    7.4931   -3.2964 H   0  0  0  0  0  0  0  0  0  0  0  0
   11.1763    9.2401   -2.9921 H   0  0  0  0  0  0  0  0  0  0  0  0
    4.6436    9.7581   -0.3362 H   0  0  0  0  0  0  0  0  0  0  0  0
    4.9012    9.9339    2.9958 H   0  0  0  0  0  0  0  0  0  0  0  0
    2.0890   12.4900    5.8223 H   0  0  0  0  0  0  0  0  0  0  0  0
    1.9236   13.3515    8.9411 H   0  0  0  0  0  0  0  0  0  0  0  0
   -0.2001   14.4957    9.5363 H   0  0  0  0  0  0  0  0  0  0  0  0
   -2.1062   18.6865   10.1129 H   0  0  0  0  0  0  0  0  0  0  0  0
   -0.7756   17.6444   10.8127 H   0  0  0  0  0  0  0  0  0  0  0  0
   -0.5612   20.1071    9.0264 H   0  0  0  0  0  0  0  0  0  0  0  0
    0.2746   19.6962   10.5960 H   0  0  0  0  0  0  0  0  0  0  0  0
    0.7359   18.8563    9.1087 H   0  0  0  0  0  0  0  0  0  0  0  0
    2.8286   16.4371    6.1908 H   0  0  0  0  0  0  0  0  0  0  0  0
    8.3659   14.8732    5.1773 H   0  0  0  0  0  0  0  0  0  0  0  0
   10.5551   13.9606    4.4342 H   0  0  0  0  0  0  0  0  0  0  0  0
   13.0318   11.5557    7.0249 H   0  0  0  0  0  0  0  0  0  0  0  0
   13.3652   12.9545    5.9917 H   0  0  0  0  0  0  0  0  0  0  0  0
   14.4162   10.9295    4.4044 H   0  0  0  0  0  0  0  0  0  0  0  0
   14.8734   10.3814    6.0522 H   0  0  0  0  0  0  0  0  0  0  0  0
   15.3293   12.0184    5.4524 H   0  0  0  0  0  0  0  0  0  0  0  0
    7.6096   11.3385    7.3147 H   0  0  0  0  0  0  0  0  0  0  0  0
    8.2482   15.4252    7.9675 H   0  0  0  0  0  0  0  0  0  0  0  0
    7.2498   17.3510    9.3524 H   0  0  0  0  0  0  0  0  0  0  0  0
  1  2  2  0
  2  3  1  0
  3  4  2  0
  4  5  1  0
  5  6  2  0
  6  7  1  0
  7  8  2  0
  8  9  1  0
  9 10  1  0
 10 11  1  0
  8 12  1  0
  4 13  1  0
 13 14  2  0
 14 15  1  0
 15 16  1  0
 16 17  2  0
 17 18  1  0
 18 19  2  0
 19 20  1  0
 20 21  1  0
 21 22  1  0
 19 23  1  0
 15 24  2  0
 24 25  1  0
 14 26  1  0
 26 27  2  0
 27 28  1  0
 27 29  1  0
 29 30  2  0
 30 31  1  0
 31 32  2  0
 32 33  1  0
 33 34  2  0
 34 35  1  0
 35 36  2  0
 36 37  1  0
 37 38  1  0
 38 39  1  0
 36 40  1  0
 32 41  1  0
 41 42  2  0
 42 43  1  0
 43 44  1  0
 44 45  2  0
 45 46  1  0
 46 47  2  0
 47 48  1  0
 48 49  1  0
 49 50  1  0
 47 51  1  0
 43 52  2  0
 52 53  1  0
 42 54  1  0
 54 55  2  0
 55 56  1  0
 55 57  1  0
 57 58  2  0
 58 59  1  0
 59 60  2  0
 60 61  1  0
 61 62  2  0
 62 63  1  0
 63 64  2  0
 64 65  1  0
 65 66  1  0
 66 67  1  0
 64 68  1  0
 68 69  1  0
 68 70  2  0
 60 71  1  0
 71 72  2  0
 72 73  1  0
 73 74  1  0
 74 75  2  0
 75 76  1  0
 76 77  2  0
 77 78  1  0
 78 79  1  0
 79 80  1  0
 77 81  1  0
 81 82  2  0
 81 83  1  0
 73 84  2  0
 84 85  1  0
 72 86  1  0
 86 87  2  0
 87 88  1  0
 87 89  1  0
 89 90  2  0
 90 91  1  0
 91 92  2  0
 92 93  1  0
 93 94  2  0
 94 95  1  0
 95 96  2  0
 96 97  1  0
 97 98  1  0
 98 99  1  0
 96100  1  0
 92101  1  0
101102  2  0
102103  1  0
103104  1  0
104105  2  0
105106  1  0
106107  2  0
107108  1  0
108109  1  0
109110  1  0
107111  1  0
103112  2  0
112113  1  0
102114  1  0
114115  2  0
115116  1  0
115117  1  0
117118  2  0
118119  1  0
119120  2  0
120121  1  0
121122  2  0
122123  1  0
123124  2  0
124125  1  0
125126  1  0
126127  1  0
124128  1  0
128129  1  0
128130  2  0
120131  1  0
131132  2  0
132133  1  0
133134  1  0
134135  2  0
135136  1  0
136137  2  0
137138  1  0
138139  1  0
139140  1  0
137141  1  0
141142  2  0
141143  1  0
133144  2  0
144145  1  0
132146  1  0
146147  2  0
147148  1  0
147149  1  0
149150  2  0
150151  1  0
151152  2  0
152153  1  0
153154  2  0
154155  1  0
155156  2  0
156157  1  0
157158  1  0
158159  1  0
156160  1  0
160161  1  0
160162  2  0
152163  1  0
163164  2  0
164165  1  0
165166  1  0
166167  2  0
167168  1  0
168169  2  0
169170  1  0
170171  1  0
171172  1  0
169173  1  0
173174  2  0
173175  1  0
165176  2  0
176177  1  0
164178  1  0
178179  2  0
179180  1  0
 25  1  1  0
 53 29  1  0
 85 57  1  0
113 89  1  0
145117  1  0
177149  1  0
 24  3  1  0
 52 31  1  0
 84 59  1  0
112 91  1  0
144119  1  0
176151  1  0
 12  5  1  0
 28 13  1  0
 40 33  1  0
 56 41  1  0
 70 61  1  0
 88 71  1  0
100 93  1  0
116101  1  0
130121  1  0
148131  1  0
162153  1  0
180163  1  0
 23 16  1  0
 51 44  1  0
 82 74  1  0
111104  1  0
142134  1  0
174166  1  0
  1181  1  0
  2182  1  0
  6183  1  0
  7184  1  0
 10185  1  0
 10186  1  0
 11187  1  0
 11188  1  0
 11189  1  0
 17190  1  0
 18191  1  0
 21192  1  0
 21193  1  0
 22194  1  0
 22195  1  0
 22196  1  0
 26197  1  0
 30198  1  0
 34199  1  0
 35200  1  0
 38201  1  0
 38202  1  0
 39203  1  0
 39204  1  0
 39205  1  0
 45206  1  0
 46207  1  0
 49208  1  0
 49209  1  0
 50210  1  0
 50211  1  0
 50212  1  0
 54213  1  0
 58214  1  0
 62215  1  0
 63216  1  0
 66217  1  0
 66218  1  0
 67219  1  0
 67220  1  0
 67221  1  0
 70222  1  0
 75223  1  0
 76224  1  0
 79225  1  0
 79226  1  0
 80227  1  0
 80228  1  0
 80229  1  0
 82230  1  0
 86231  1  0
 90232  1  0
 94233  1  0
 95234  1  0
 98235  1  0
 98236  1  0
 99237  1  0
 99238  1  0
 99239  1  0
105240  1  0
106241  1  0
109242  1  0
109243  1  0
110244  1  0
110245  1  0
110246  1  0
114247  1  0
118248  1  0
122249  1  0
123250  1  0
126251  1  0
126252  1  0
127253  1  0
127254  1  0
127255  1  0
130256  1  0
135257  1  0
136258  1  0
139259  1  0
139260  1  0
140261  1  0
140262  1  0
140263  1  0
142264  1  0
146265  1  0
150266  1  0
154267  1  0
155268  1  0
158269  1  0
158270  1  0
159271  1  0
159272  1  0
159273  1  0
162274  1  0
167275  1  0
168276  1  0
171277  1  0
171278  1  0
172279  1  0
172280  1  0
172281  1  0
174282  1  0
178283  1  0
179284  1  0
M  END

