
     RDKit          3D

206227  0  0  0  0  0  0  0  0999 V2000
    2.3094   -8.1421   10.0384 N   0  0  0  0  0  0  0  0  0  0  0  0
    2.6958   -8.4056   11.3240 N   0  0  0  0  0  0  0  0  0  0  0  0
    2.8066   -7.1371   12.0354 C   0  0  1  0  0  0  0  0  0  0  0  0
    4.2507   -6.7796   12.0545 C   0  0  1  0  0  0  0  0  0  0  0  0
    5.0046   -7.3204   10.8463 C   0  0  0  0  0  0  0  0  0  0  0  0
    4.5549   -5.3297   12.2865 C   0  0  2  0  0  0  0  0  0  0  0  0
    3.2895   -4.5397   12.3671 C   0  0  1  0  0  0  0  0  0  0  0  0
    3.6655   -3.1400   12.4668 N   0  0  0  0  0  0  0  0  0  0  0  0
    5.0370   -3.0889   11.3231 S   0  0  0  0  0  0  0  0  0  0  0  0
    5.2896   -4.8437   11.1348 N   0  0  0  0  0  0  0  0  0  0  0  0
    2.3117   -4.7825   11.2582 C   0  0  2  0  0  0  0  0  0  0  0  0
    1.0907   -3.9021   11.5446 C   0  0  0  0  0  0  0  0  0  0  0  0
    1.9392   -6.2344   11.2311 C   0  0  1  0  0  0  0  0  0  0  0  0
    2.1025   -6.7918    9.8775 N   0  0  0  0  0  0  0  0  0  0  0  0
    2.0608   -6.0432    8.6405 C   0  0  0  0  0  0  0  0  0  0  0  0
    0.9590   -5.7341    7.8906 C   0  0  0  0  0  0  0  0  0  0  0  0
    1.1240   -5.0260    6.7594 C   0  0  0  0  0  0  0  0  0  0  0  0
    0.1702   -4.5579    5.8387 C   0  0  0  0  0  0  0  0  0  0  0  0
   -1.2563   -4.8627    5.9093 C   0  0  0  0  0  0  0  0  0  0  0  0
   -2.0514   -5.7342    6.4904 C   0  0  0  0  0  0  0  0  0  0  0  0
   -3.3865   -5.6751    6.4765 C   0  0  0  0  0  0  0  0  0  0  0  0
   -4.0573   -4.7019    5.8544 C   0  0  0  0  0  0  0  0  0  0  0  0
   -5.7580   -4.2861    5.6323 S   0  0  0  0  0  0  0  0  0  0  0  0
   -5.9566   -2.7694    4.6569 C   0  0  0  0  0  0  0  0  0  0  0  0
   -5.4914   -2.9786    3.2226 C   0  0  0  0  0  0  0  0  0  0  0  0
   -2.5604   -3.6560    5.1415 Se  0  0  0  0  0  2  0  0  0  0  0  0
    0.5731   -3.8103    4.7541 C   0  0  0  0  0  0  0  0  0  0  0  0
    1.8554   -3.4433    4.4455 C   0  0  0  0  0  0  0  0  0  0  0  0
    2.8136   -3.9107    5.3631 C   0  0  0  0  0  0  0  0  0  0  0  0
    4.2337   -3.6003    5.3010 C   0  0  0  0  0  0  0  0  0  0  0  0
    5.0438   -2.7343    4.7276 C   0  0  0  0  0  0  0  0  0  0  0  0
    6.3768   -2.7965    4.7681 C   0  0  0  0  0  0  0  0  0  0  0  0
    7.0327   -3.7647    5.4122 C   0  0  0  0  0  0  0  0  0  0  0  0
    8.7382   -4.1805    5.6730 S   0  0  0  0  0  0  0  0  0  0  0  0
    8.8949   -5.6820    6.6784 C   0  0  0  0  0  0  0  0  0  0  0  0
    8.3815   -6.9054    5.9915 C   0  0  0  0  0  0  0  0  0  0  0  0
    5.5348   -4.8076    6.1073 Se  0  0  0  0  0  2  0  0  0  0  0  0
    2.4082   -4.6605    6.4441 C   0  0  0  0  0  0  0  0  0  0  0  0
    3.3189   -5.3340    7.7493 S   0  0  0  0  0  0  0  0  0  0  0  0
    2.0407   -2.7453    3.3237 C   0  0  0  0  0  0  0  0  0  0  0  0
    0.9506   -2.4436    2.5584 C   0  0  0  0  0  0  0  0  0  0  0  0
   -0.3195   -3.1465    3.4283 S   0  0  0  0  0  0  0  0  0  0  0  0
    0.9362   -1.6158    1.3298 C   0  0  0  0  0  0  0  0  0  0  0  0
    0.0468   -1.6209    0.3028 C   0  0  0  0  0  0  0  0  0  0  0  0
    0.2828   -0.8117   -0.7410 C   0  0  0  0  0  0  0  0  0  0  0  0
   -0.4990   -0.6294   -1.8868 C   0  0  0  0  0  0  0  0  0  0  0  0
   -1.6433   -1.4582   -2.2170 C   0  0  0  0  0  0  0  0  0  0  0  0
   -2.6561   -1.3960   -3.0942 C   0  0  0  0  0  0  0  0  0  0  0  0
   -3.5375   -2.3835   -3.2455 C   0  0  0  0  0  0  0  0  0  0  0  0
   -3.5473   -3.5244   -2.5836 C   0  0  0  0  0  0  0  0  0  0  0  0
   -4.4782   -4.9988   -2.4491 S   0  0  0  0  0  0  0  0  0  0  0  0
   -5.6296   -4.8197   -1.0579 C   0  0  0  0  0  0  0  0  0  0  0  0
   -4.7663   -4.7546    0.2071 C   0  0  0  0  0  0  0  0  0  0  0  0
   -1.9236   -3.2030   -1.4251 Se  0  0  0  0  0  2  0  0  0  0  0  0
   -0.0952    0.2996   -2.8368 C   0  0  0  0  0  0  0  0  0  0  0  0
    1.0304    1.0764   -2.7632 C   0  0  0  0  0  0  0  0  0  0  0  0
    1.8224    0.8922   -1.6205 C   0  0  0  0  0  0  0  0  0  0  0  0
    2.9838    1.7161   -1.3157 C   0  0  0  0  0  0  0  0  0  0  0  0
    3.9953    1.5452   -0.4413 C   0  0  0  0  0  0  0  0  0  0  0  0
    4.9185    2.4807   -0.2243 C   0  0  0  0  0  0  0  0  0  0  0  0
    4.9405    3.6615   -0.8376 C   0  0  0  0  0  0  0  0  0  0  0  0
    5.9335    5.1106   -0.8474 S   0  0  0  0  0  0  0  0  0  0  0  0
    5.3384    6.2056    0.4566 C   0  0  0  0  0  0  0  0  0  0  0  0
    3.9655    6.7388    0.2445 C   0  0  0  0  0  0  0  0  0  0  0  0
    3.3251    3.4275   -1.9691 Se  0  0  0  0  0  2  0  0  0  0  0  0
    1.4112   -0.0308   -0.6859 C   0  0  0  0  0  0  0  0  0  0  0  0
    2.0901   -0.4730    0.8170 S   0  0  0  0  0  0  0  0  0  0  0  0
    1.2611    1.9297   -3.7824 C   0  0  0  0  0  0  0  0  0  0  0  0
    0.3587    1.9588   -4.8071 C   0  0  0  0  0  0  0  0  0  0  0  0
   -0.7741    0.8043   -4.3309 S   0  0  0  0  0  0  0  0  0  0  0  0
    0.3618    2.7956   -5.9883 N   0  0  0  0  0  0  0  0  0  0  0  0
    1.4036    3.6810   -6.2216 N   0  0  0  0  0  0  0  0  0  0  0  0
    1.2932    4.0497   -7.5901 C   0  0  1  0  0  0  0  0  0  0  0  0
    2.2345    3.2081   -8.4049 C   0  0  1  0  0  0  0  0  0  0  0  0
    3.3116    2.5454   -7.5671 C   0  0  0  0  0  0  0  0  0  0  0  0
    1.5509    2.2455   -9.3066 C   0  0  2  0  0  0  0  0  0  0  0  0
    0.5741    2.9712  -10.1597 C   0  0  1  0  0  0  0  0  0  0  0  0
   -0.0784    2.0135  -11.0277 N   0  0  0  0  0  0  0  0  0  0  0  0
   -0.0598    0.5444  -10.0522 S   0  0  0  0  0  0  0  0  0  0  0  0
    0.8301    1.1837   -8.6297 N   0  0  0  0  0  0  0  0  0  0  0  0
   -0.4763    3.6339   -9.3143 C   0  0  2  0  0  0  0  0  0  0  0  0
   -0.7524    4.9839  -10.0119 C   0  0  0  0  0  0  0  0  0  0  0  0
   -0.1452    3.8395   -7.8846 C   0  0  1  0  0  0  0  0  0  0  0  0
   -0.6269    2.8427   -6.9728 N   0  0  0  0  0  0  0  0  0  0  0  0
   -1.8697    3.2616   -6.4755 N   0  0  0  0  0  0  0  0  0  0  0  0
   -2.5864    3.8839   -7.4843 N   0  0  0  0  0  0  0  0  0  0  0  0
   -3.9631    3.4527   -7.3257 C   0  0  1  0  0  0  0  0  0  0  0  0
   -4.8246    3.5897   -8.5198 C   0  0  1  0  0  0  0  0  0  0  0  0
   -4.2734    4.4464   -9.6179 C   0  0  0  0  0  0  0  0  0  0  0  0
   -5.3164    2.2420   -8.9834 C   0  0  2  0  0  0  0  0  0  0  0  0
   -4.2294    1.2342   -9.2066 C   0  0  1  0  0  0  0  0  0  0  0  0
   -3.5130    1.5831  -10.4073 N   0  0  0  0  0  0  0  0  0  0  0  0
   -4.8500    2.1814  -11.4312 S   0  0  0  0  0  0  0  0  0  0  0  0
   -6.1082    2.3300  -10.1758 N   0  0  0  0  0  0  0  0  0  0  0  0
   -3.3651    1.1071   -7.9827 C   0  0  2  0  0  0  0  0  0  0  0  0
   -3.5220   -0.3347   -7.4830 C   0  0  0  0  0  0  0  0  0  0  0  0
   -3.7522    2.0207   -6.8794 C   0  0  1  0  0  0  0  0  0  0  0  0
   -2.6520    2.2786   -5.9258 N   0  0  0  0  0  0  0  0  0  0  0  0
   -3.3561    2.8956   -4.8492 N   0  0  0  0  0  0  0  0  0  0  0  0
   -2.6484    3.8241   -4.1626 N   0  0  0  0  0  0  0  0  0  0  0  0
   -2.8966    3.6088   -2.7586 C   0  0  1  0  0  0  0  0  0  0  0  0
   -3.6124    4.7854   -2.1964 C   0  0  1  0  0  0  0  0  0  0  0  0
   -4.5065    5.4439   -3.2294 C   0  0  0  0  0  0  0  0  0  0  0  0
   -4.4220    4.5172   -0.9737 C   0  0  2  0  0  0  0  0  0  0  0  0
   -4.2808    3.0755   -0.5361 C   0  0  1  0  0  0  0  0  0  0  0  0
   -5.1007    2.8776    0.6158 N   0  0  0  0  0  0  0  0  0  0  0  0
   -6.5394    3.8321    0.1502 S   0  0  0  0  0  0  0  0  0  0  0  0
   -5.8361    4.7179   -1.2356 N   0  0  0  0  0  0  0  0  0  0  0  0
   -4.7525    2.2524   -1.7337 C   0  0  2  0  0  0  0  0  0  0  0  0
   -5.0043    0.8147   -1.3439 C   0  0  0  0  0  0  0  0  0  0  0  0
   -3.5933    2.3166   -2.7097 C   0  0  1  0  0  0  0  0  0  0  0  0
   -3.9886    1.9920   -4.0535 N   0  0  0  0  0  0  0  0  0  0  0  0
    1.4949   -8.6974    9.7575 H   0  0  0  0  0  0  0  0  0  0  0  0
    2.0277   -9.0120   11.8655 H   0  0  0  0  0  0  0  0  0  0  0  0
    2.4459   -7.2284   13.0781 H   0  0  0  0  0  0  0  0  0  0  0  0
    4.7062   -7.3340   12.9316 H   0  0  0  0  0  0  0  0  0  0  0  0
    4.7822   -6.7692    9.9348 H   0  0  0  0  0  0  0  0  0  0  0  0
    4.7733   -8.3779   10.7020 H   0  0  0  0  0  0  0  0  0  0  0  0
    6.1099   -7.2492   11.0080 H   0  0  0  0  0  0  0  0  0  0  0  0
    5.1078   -5.1454   13.2514 H   0  0  0  0  0  0  0  0  0  0  0  0
    2.7907   -4.8029   13.3255 H   0  0  0  0  0  0  0  0  0  0  0  0
    2.9635   -2.4880   12.0471 H   0  0  0  0  0  0  0  0  0  0  0  0
    6.3143   -4.9939   11.3133 H   0  0  0  0  0  0  0  0  0  0  0  0
    2.8069   -4.4592   10.3106 H   0  0  0  0  0  0  0  0  0  0  0  0
    1.1981   -3.3681   12.5144 H   0  0  0  0  0  0  0  0  0  0  0  0
    0.9811   -3.2220   10.6859 H   0  0  0  0  0  0  0  0  0  0  0  0
    0.1689   -4.5112   11.6642 H   0  0  0  0  0  0  0  0  0  0  0  0
    0.8663   -6.3768   11.4684 H   0  0  0  0  0  0  0  0  0  0  0  0
   -0.0359   -6.0576    8.2718 H   0  0  0  0  0  0  0  0  0  0  0  0
   -1.5810   -6.6411    7.0086 H   0  0  0  0  0  0  0  0  0  0  0  0
   -4.0351   -6.4635    7.0037 H   0  0  0  0  0  0  0  0  0  0  0  0
   -7.0120   -2.5082    4.6393 H   0  0  0  0  0  0  0  0  0  0  0  0
   -5.3722   -1.9210    5.0914 H   0  0  0  0  0  0  0  0  0  0  0  0
   -4.8741   -3.8909    3.1282 H   0  0  0  0  0  0  0  0  0  0  0  0
   -6.3636   -3.0885    2.5453 H   0  0  0  0  0  0  0  0  0  0  0  0
   -4.8867   -2.1454    2.8400 H   0  0  0  0  0  0  0  0  0  0  0  0
    4.5783   -1.8327    4.1954 H   0  0  0  0  0  0  0  0  0  0  0  0
    7.0357   -2.0161    4.2394 H   0  0  0  0  0  0  0  0  0  0  0  0
    8.2257   -5.5061    7.5728 H   0  0  0  0  0  0  0  0  0  0  0  0
    9.9058   -5.7927    7.0992 H   0  0  0  0  0  0  0  0  0  0  0  0
    7.2553   -6.9490    5.9956 H   0  0  0  0  0  0  0  0  0  0  0  0
    8.7066   -7.0356    4.9547 H   0  0  0  0  0  0  0  0  0  0  0  0
    8.6871   -7.7907    6.6140 H   0  0  0  0  0  0  0  0  0  0  0  0
    3.0338   -2.4116    2.9448 H   0  0  0  0  0  0  0  0  0  0  0  0
   -0.8335   -2.2933    0.4333 H   0  0  0  0  0  0  0  0  0  0  0  0
   -2.7359   -0.4393   -3.7157 H   0  0  0  0  0  0  0  0  0  0  0  0
   -4.3771   -2.2444   -4.0298 H   0  0  0  0  0  0  0  0  0  0  0  0
   -6.1651   -3.8510   -1.1163 H   0  0  0  0  0  0  0  0  0  0  0  0
   -6.3586   -5.6465   -0.9874 H   0  0  0  0  0  0  0  0  0  0  0  0
   -4.2603   -3.7783    0.2747 H   0  0  0  0  0  0  0  0  0  0  0  0
   -4.0299   -5.5976    0.2096 H   0  0  0  0  0  0  0  0  0  0  0  0
   -5.4378   -4.9029    1.0676 H   0  0  0  0  0  0  0  0  0  0  0  0
    4.0503    0.5400    0.0997 H   0  0  0  0  0  0  0  0  0  0  0  0
    5.7572    2.2822    0.5374 H   0  0  0  0  0  0  0  0  0  0  0  0
    5.3340    5.5980    1.4052 H   0  0  0  0  0  0  0  0  0  0  0  0
    6.0957    7.0146    0.6679 H   0  0  0  0  0  0  0  0  0  0  0  0
    3.5016    6.3203   -0.6519 H   0  0  0  0  0  0  0  0  0  0  0  0
    3.9073    7.8578    0.2501 H   0  0  0  0  0  0  0  0  0  0  0  0
    3.2863    6.4430    1.1003 H   0  0  0  0  0  0  0  0  0  0  0  0
    2.1509    2.6089   -3.8695 H   0  0  0  0  0  0  0  0  0  0  0  0
    1.3383    4.5173   -5.6184 H   0  0  0  0  0  0  0  0  0  0  0  0
    1.5708    5.1478   -7.6607 H   0  0  0  0  0  0  0  0  0  0  0  0
    2.7811    3.9283   -9.0850 H   0  0  0  0  0  0  0  0  0  0  0  0
    4.3482    2.8082   -7.9220 H   0  0  0  0  0  0  0  0  0  0  0  0
    3.2585    1.4324   -7.6578 H   0  0  0  0  0  0  0  0  0  0  0  0
    3.2738    2.8945   -6.5118 H   0  0  0  0  0  0  0  0  0  0  0  0
    2.3267    1.7626   -9.9492 H   0  0  0  0  0  0  0  0  0  0  0  0
    1.1590    3.7187  -10.7518 H   0  0  0  0  0  0  0  0  0  0  0  0
    0.4461    1.9267  -11.9115 H   0  0  0  0  0  0  0  0  0  0  0  0
    1.5238    0.4357   -8.4024 H   0  0  0  0  0  0  0  0  0  0  0  0
   -1.4339    3.0908   -9.3967 H   0  0  0  0  0  0  0  0  0  0  0  0
   -1.3849    5.5928   -9.3442 H   0  0  0  0  0  0  0  0  0  0  0  0
    0.1994    5.5363  -10.1708 H   0  0  0  0  0  0  0  0  0  0  0  0
   -1.2883    4.8399  -10.9565 H   0  0  0  0  0  0  0  0  0  0  0  0
   -0.6376    4.8301   -7.6070 H   0  0  0  0  0  0  0  0  0  0  0  0
   -2.6012    4.9268   -7.2646 H   0  0  0  0  0  0  0  0  0  0  0  0
   -4.3473    3.9933   -6.4196 H   0  0  0  0  0  0  0  0  0  0  0  0
   -5.7647    4.1246   -8.1743 H   0  0  0  0  0  0  0  0  0  0  0  0
   -3.4997    3.9855  -10.2247 H   0  0  0  0  0  0  0  0  0  0  0  0
   -5.1143    4.8810  -10.1932 H   0  0  0  0  0  0  0  0  0  0  0  0
   -3.7884    5.3279   -9.1108 H   0  0  0  0  0  0  0  0  0  0  0  0
   -5.9684    1.8415   -8.1895 H   0  0  0  0  0  0  0  0  0  0  0  0
   -4.7660    0.2686   -9.4519 H   0  0  0  0  0  0  0  0  0  0  0  0
   -3.1716    0.7210  -10.8728 H   0  0  0  0  0  0  0  0  0  0  0  0
   -6.7765    1.5079  -10.2456 H   0  0  0  0  0  0  0  0  0  0  0  0
   -2.3043    1.2042   -8.2419 H   0  0  0  0  0  0  0  0  0  0  0  0
   -4.5383   -0.6833   -7.7608 H   0  0  0  0  0  0  0  0  0  0  0  0
   -2.8000   -0.9961   -8.0383 H   0  0  0  0  0  0  0  0  0  0  0  0
   -3.4090   -0.4052   -6.4005 H   0  0  0  0  0  0  0  0  0  0  0  0
   -4.6268    1.6157   -6.3426 H   0  0  0  0  0  0  0  0  0  0  0  0
   -1.6727    3.9929   -4.4172 H   0  0  0  0  0  0  0  0  0  0  0  0
   -1.8749    3.5009   -2.2905 H   0  0  0  0  0  0  0  0  0  0  0  0
   -2.8419    5.5443   -1.9275 H   0  0  0  0  0  0  0  0  0  0  0  0
   -4.9644    6.3628   -2.7708 H   0  0  0  0  0  0  0  0  0  0  0  0
   -5.3125    4.7732   -3.5453 H   0  0  0  0  0  0  0  0  0  0  0  0
   -3.8671    5.8227   -4.0583 H   0  0  0  0  0  0  0  0  0  0  0  0
   -4.1528    5.1482   -0.1024 H   0  0  0  0  0  0  0  0  0  0  0  0
   -3.2106    2.9013   -0.3496 H   0  0  0  0  0  0  0  0  0  0  0  0
   -4.6326    3.2701    1.4471 H   0  0  0  0  0  0  0  0  0  0  0  0
   -6.0965    5.7137   -1.0890 H   0  0  0  0  0  0  0  0  0  0  0  0
   -5.6351    2.6734   -2.2153 H   0  0  0  0  0  0  0  0  0  0  0  0
   -5.8802    0.8300   -0.6307 H   0  0  0  0  0  0  0  0  0  0  0  0
   -4.1359    0.3378   -0.8841 H   0  0  0  0  0  0  0  0  0  0  0  0
   -5.3799    0.3025   -2.2525 H   0  0  0  0  0  0  0  0  0  0  0  0
   -2.9003    1.4996   -2.3642 H   0  0  0  0  0  0  0  0  0  0  0  0
   -5.0141    1.9851   -4.1105 H   0  0  0  0  0  0  0  0  0  0  0  0
  1  2  1  0
  2  3  1  0
  3  4  1  0
  4  5  1  0
  4  6  1  0
  6  7  1  0
  7  8  1  0
  8  9  1  0
  9 10  1  0
  7 11  1  0
 11 12  1  0
 11 13  1  0
 13 14  1  0
 14 15  1  0
 15 16  2  0
 16 17  1  0
 17 18  2  0
 18 19  1  0
 19 20  2  0
 20 21  1  0
 21 22  2  0
 22 23  1  0
 23 24  1  0
 24 25  1  0
 22 26  1  0
 18 27  1  0
 27 28  2  0
 28 29  1  0
 29 30  1  0
 30 31  2  0
 31 32  1  0
 32 33  2  0
 33 34  1  0
 34 35  1  0
 35 36  1  0
 33 37  1  0
 29 38  2  0
 38 39  1  0
 28 40  1  0
 40 41  2  0
 41 42  1  0
 41 43  1  0
 43 44  2  0
 44 45  1  0
 45 46  2  0
 46 47  1  0
 47 48  2  0
 48 49  1  0
 49 50  2  0
 50 51  1  0
 51 52  1  0
 52 53  1  0
 50 54  1  0
 46 55  1  0
 55 56  2  0
 56 57  1  0
 57 58  1  0
 58 59  2  0
 59 60  1  0
 60 61  2  0
 61 62  1  0
 62 63  1  0
 63 64  1  0
 61 65  1  0
 57 66  2  0
 66 67  1  0
 56 68  1  0
 68 69  2  0
 69 70  1  0
 69 71  1  0
 71 72  1  0
 72 73  1  0
 73 74  1  0
 74 75  1  0
 74 76  1  0
 76 77  1  0
 77 78  1  0
 78 79  1  0
 79 80  1  0
 77 81  1  0
 81 82  1  0
 81 83  1  0
 83 84  1  0
 84 85  1  0
 85 86  1  0
 86 87  1  0
 87 88  1  0
 88 89  1  0
 88 90  1  0
 90 91  1  0
 91 92  1  0
 92 93  1  0
 93 94  1  0
 91 95  1  0
 95 96  1  0
 95 97  1  0
 97 98  1  0
 98 99  1  0
 99100  1  0
100101  1  0
101102  1  0
102103  1  0
102104  1  0
104105  1  0
105106  1  0
106107  1  0
107108  1  0
105109  1  0
109110  1  0
109111  1  0
111112  1  0
 14  1  1  0
 39 15  1  0
 67 43  1  0
 84 71  1  0
 98 85  1  0
112 99  1  0
 13  3  1  0
 38 17  1  0
 66 45  1  0
 83 73  1  0
 97 87  1  0
111101  1  0
 10  6  1  0
 26 19  1  0
 42 27  1  0
 54 47  1  0
 70 55  1  0
 80 76  1  0
 94 90  1  0
108104  1  0
 37 30  1  0
 65 58  1  0
  1113  1  0
  2114  1  0
  3115  1  1
  4116  1  1
  5117  1  0
  5118  1  0
  5119  1  0
  6120  1  1
  7121  1  1
  8122  1  0
 10123  1  0
 11124  1  6
 12125  1  0
 12126  1  0
 12127  1  0
 13128  1  1
 16129  1  0
 20130  1  0
 21131  1  0
 24132  1  0
 24133  1  0
 25134  1  0
 25135  1  0
 25136  1  0
 31137  1  0
 32138  1  0
 35139  1  0
 35140  1  0
 36141  1  0
 36142  1  0
 36143  1  0
 40144  1  0
 44145  1  0
 48146  1  0
 49147  1  0
 52148  1  0
 52149  1  0
 53150  1  0
 53151  1  0
 53152  1  0
 59153  1  0
 60154  1  0
 63155  1  0
 63156  1  0
 64157  1  0
 64158  1  0
 64159  1  0
 68160  1  0
 72161  1  0
 73162  1  1
 74163  1  6
 75164  1  0
 75165  1  0
 75166  1  0
 76167  1  6
 77168  1  6
 78169  1  0
 80170  1  0
 81171  1  1
 82172  1  0
 82173  1  0
 82174  1  0
 83175  1  1
 86176  1  0
 87177  1  1
 88178  1  1
 89179  1  0
 89180  1  0
 89181  1  0
 90182  1  1
 91183  1  6
 92184  1  0
 94185  1  0
 95186  1  6
 96187  1  0
 96188  1  0
 96189  1  0
 97190  1  1
100191  1  0
101192  1  1
102193  1  1
103194  1  0
103195  1  0
103196  1  0
104197  1  1
105198  1  1
106199  1  0
108200  1  0
109201  1  6
110202  1  0
110203  1  0
110204  1  0
111205  1  1
112206  1  0
M  END

