
     RDKit          3D

176196  0  0  0  0  0  0  0  0999 V2000
    6.6528   -2.4648    8.0554 C   0  0  0  0  0  0  0  0  0  0  0  0
    7.6542   -2.1684    7.1569 C   0  0  0  0  0  0  0  0  0  0  0  0
    8.8325   -2.9236    6.7288 C   0  0  0  0  0  0  0  0  0  0  0  0
    9.1572   -4.0591    7.1466 O   0  0  0  0  0  0  0  0  0  0  0  0
    9.5096   -2.1702    5.7961 O   0  0  0  0  0  0  0  0  0  0  0  0
    8.8242   -0.9364    5.5796 C   0  0  0  0  0  0  0  0  0  0  0  0
    7.6449   -0.9667    6.4658 C   0  0  0  0  0  0  0  0  0  0  0  0
    6.6325   -0.0839    6.6879 C   0  0  0  0  0  0  0  0  0  0  0  0
    5.6144   -0.3863    7.6012 C   0  0  0  0  0  0  0  0  0  0  0  0
    5.5998   -1.5618    8.2939 C   0  0  0  0  0  0  0  0  0  0  0  0
    4.5560   -1.9033    9.2419 C   0  0  0  0  0  0  0  0  0  0  0  0
    4.8919   -1.9161   10.6025 C   0  0  0  0  0  0  0  0  0  0  0  0
    6.1257   -1.5755   11.3005 C   0  0  0  0  0  0  0  0  0  0  0  0
    7.1925   -1.1910   10.7451 O   0  0  0  0  0  0  0  0  0  0  0  0
    5.9021   -1.7540   12.6766 O   0  0  0  0  0  0  0  0  0  0  0  0
    4.6035   -2.2010   12.9130 C   0  0  0  0  0  0  0  0  0  0  0  0
    3.9769   -2.2844   11.5584 C   0  0  0  0  0  0  0  0  0  0  0  0
    2.6986   -2.6497   11.1475 C   0  0  0  0  0  0  0  0  0  0  0  0
    2.3921   -2.6292    9.8114 C   0  0  0  0  0  0  0  0  0  0  0  0
    3.3200   -2.2512    8.8233 C   0  0  0  0  0  0  0  0  0  0  0  0
    2.8643   -2.1649    7.4338 C   0  0  0  0  0  0  0  0  0  0  0  0
    3.4383   -2.4014    6.2334 C   0  0  0  0  0  0  0  0  0  0  0  0
    2.6763   -2.2490    5.1153 C   0  0  0  0  0  0  0  0  0  0  0  0
    3.0439   -2.4183    3.7661 C   0  0  0  0  0  0  0  0  0  0  0  0
    4.3536   -2.8328    3.3383 C   0  0  0  0  0  0  0  0  0  0  0  0
    4.9971   -2.8576    2.1616 C   0  0  0  0  0  0  0  0  0  0  0  0
    6.2145   -3.3602    1.9969 C   0  0  0  0  0  0  0  0  0  0  0  0
    6.9486   -3.9001    2.9724 C   0  0  0  0  0  0  0  0  0  0  0  0
    8.5313   -4.6335    3.1432 S   0  0  0  0  0  0  0  0  0  0  0  0
    8.3277   -6.4303    2.8048 C   0  0  0  0  0  0  0  0  0  0  0  0
    7.4448   -7.0127    3.8874 C   0  0  0  0  0  0  0  0  0  0  0  0
    5.6807   -3.6712    4.4716 Se  0  0  0  0  0  2  0  0  0  0  0  0
    2.0922   -2.1956    2.7899 C   0  0  0  0  0  0  0  0  0  0  0  0
    0.8000   -1.8170    2.9833 C   0  0  0  0  0  0  0  0  0  0  0  0
    0.4171   -1.6386    4.3083 C   0  0  0  0  0  0  0  0  0  0  0  0
   -0.8544   -1.1225    4.7688 C   0  0  0  0  0  0  0  0  0  0  0  0
   -1.9093   -0.4653    4.3167 C   0  0  0  0  0  0  0  0  0  0  0  0
   -3.0181   -0.2231    5.0235 C   0  0  0  0  0  0  0  0  0  0  0  0
   -3.1823   -0.6230    6.2803 C   0  0  0  0  0  0  0  0  0  0  0  0
   -4.4342   -0.5125    7.5235 S   0  0  0  0  0  0  0  0  0  0  0  0
   -3.8911   -1.3523    9.0607 C   0  0  0  0  0  0  0  0  0  0  0  0
   -3.7452   -2.8223    8.7962 C   0  0  0  0  0  0  0  0  0  0  0  0
   -1.4759   -1.5246    6.5919 Se  0  0  0  0  0  2  0  0  0  0  0  0
    1.3817   -1.8664    5.3123 C   0  0  0  0  0  0  0  0  0  0  0  0
    1.2678   -1.7301    7.0198 S   0  0  0  0  0  0  0  0  0  0  0  0
    0.0209   -1.6828    1.9019 C   0  0  0  0  0  0  0  0  0  0  0  0
    0.5810   -1.9305    0.6763 C   0  0  0  0  0  0  0  0  0  0  0  0
    2.1708   -2.3481    1.0685 S   0  0  0  0  0  0  0  0  0  0  0  0
   -0.0922   -1.8018   -0.6352 C   0  0  0  0  0  0  0  0  0  0  0  0
    0.4663   -1.9454   -1.8745 C   0  0  0  0  0  0  0  0  0  0  0  0
   -0.3065   -1.7132   -2.9398 C   0  0  0  0  0  0  0  0  0  0  0  0
    0.0905   -1.7314   -4.2901 C   0  0  0  0  0  0  0  0  0  0  0  0
    1.3943   -2.2565   -4.7069 C   0  0  0  0  0  0  0  0  0  0  0  0
    2.1287   -2.1317   -5.8320 C   0  0  0  0  0  0  0  0  0  0  0  0
    3.2465   -2.8283   -6.0256 C   0  0  0  0  0  0  0  0  0  0  0  0
    3.7573   -3.6997   -5.1682 C   0  0  0  0  0  0  0  0  0  0  0  0
    5.1630   -4.7609   -5.0580 S   0  0  0  0  0  0  0  0  0  0  0  0
    6.4713   -3.9436   -4.1175 C   0  0  0  0  0  0  0  0  0  0  0  0
    5.9378   -3.8367   -2.6742 C   0  0  0  0  0  0  0  0  0  0  0  0
    2.3951   -3.5457   -3.7365 Se  0  0  0  0  0  2  0  0  0  0  0  0
   -0.8348   -1.3827   -5.2539 C   0  0  0  0  0  0  0  0  0  0  0  0
   -2.1392   -1.0153   -5.0445 C   0  0  0  0  0  0  0  0  0  0  0  0
   -2.5297   -1.0091   -3.6910 C   0  0  0  0  0  0  0  0  0  0  0  0
   -3.8607   -0.6974   -3.2431 C   0  0  0  0  0  0  0  0  0  0  0  0
   -4.5063   -0.6451   -2.0734 C   0  0  0  0  0  0  0  0  0  0  0  0
   -5.7972   -0.3442   -1.9410 C   0  0  0  0  0  0  0  0  0  0  0  0
   -6.6060   -0.0554   -2.9673 C   0  0  0  0  0  0  0  0  0  0  0  0
   -8.3072    0.3398   -3.1926 S   0  0  0  0  0  0  0  0  0  0  0  0
   -9.3000   -1.1381   -3.5321 C   0  0  0  0  0  0  0  0  0  0  0  0
   -9.2997   -2.0839   -2.3476 C   0  0  0  0  0  0  0  0  0  0  0  0
   -5.3212   -0.2328   -4.4448 Se  0  0  0  0  0  2  0  0  0  0  0  0
   -1.5990   -1.3519   -2.7223 C   0  0  0  0  0  0  0  0  0  0  0  0
   -1.6852   -1.3522   -1.0037 S   0  0  0  0  0  0  0  0  0  0  0  0
   -2.8650   -0.6916   -6.1275 C   0  0  0  0  0  0  0  0  0  0  0  0
   -2.2446   -0.7542   -7.3652 C   0  0  0  0  0  0  0  0  0  0  0  0
   -0.6851   -1.2592   -6.9687 S   0  0  0  0  0  0  0  0  0  0  0  0
   -2.8202   -0.4272   -8.6520 C   0  0  0  0  0  0  0  0  0  0  0  0
   -2.9141   -1.2909   -9.6946 C   0  0  0  0  0  0  0  0  0  0  0  0
   -2.5294   -2.6865   -9.8805 C   0  0  0  0  0  0  0  0  0  0  0  0
   -1.9762   -3.3948   -9.0006 O   0  0  0  0  0  0  0  0  0  0  0  0
   -2.8505   -3.1260  -11.1388 O   0  0  0  0  0  0  0  0  0  0  0  0
   -3.4633   -2.0546  -11.8295 C   0  0  0  0  0  0  0  0  0  0  0  0
   -3.4844   -0.9084  -10.9062 C   0  0  0  0  0  0  0  0  0  0  0  0
   -3.9583    0.3704  -11.0458 C   0  0  0  0  0  0  0  0  0  0  0  0
   -3.8740    1.2729   -9.9963 C   0  0  0  0  0  0  0  0  0  0  0  0
   -3.3127    0.8641   -8.8243 C   0  0  0  0  0  0  0  0  0  0  0  0
   -3.2342    1.7410   -7.6496 C   0  0  0  0  0  0  0  0  0  0  0  0
   -4.2547    2.4397   -7.0595 C   0  0  0  0  0  0  0  0  0  0  0  0
   -3.9723    3.1498   -5.9388 C   0  0  0  0  0  0  0  0  0  0  0  0
   -4.8658    3.8815   -5.1441 C   0  0  0  0  0  0  0  0  0  0  0  0
   -6.2399    4.1895   -5.4798 C   0  0  0  0  0  0  0  0  0  0  0  0
   -7.0299    4.1905   -6.5555 C   0  0  0  0  0  0  0  0  0  0  0  0
   -8.3362    4.4392   -6.5196 C   0  0  0  0  0  0  0  0  0  0  0  0
   -9.0199    4.7184   -5.4167 C   0  0  0  0  0  0  0  0  0  0  0  0
  -10.6663    5.0968   -4.9470 S   0  0  0  0  0  0  0  0  0  0  0  0
  -10.7108    5.3557   -3.1529 C   0  0  0  0  0  0  0  0  0  0  0  0
  -12.0718    5.6800   -2.6292 C   0  0  0  0  0  0  0  0  0  0  0  0
   -7.5234    4.6200   -4.0991 Se  0  0  0  0  0  2  0  0  0  0  0  0
   -4.3802    4.4888   -3.9804 C   0  0  0  0  0  0  0  0  0  0  0  0
   -3.0886    4.4379   -3.5398 C   0  0  0  0  0  0  0  0  0  0  0  0
   -2.2010    3.7099   -4.3389 C   0  0  0  0  0  0  0  0  0  0  0  0
   -0.8115    3.4699   -3.9603 C   0  0  0  0  0  0  0  0  0  0  0  0
    0.2541    3.0395   -4.6567 C   0  0  0  0  0  0  0  0  0  0  0  0
    1.4320    2.7956   -4.0848 C   0  0  0  0  0  0  0  0  0  0  0  0
    1.6768    2.9460   -2.7901 C   0  0  0  0  0  0  0  0  0  0  0  0
    3.0368    2.7385   -1.6819 S   0  0  0  0  0  0  0  0  0  0  0  0
    4.0138    4.2474   -1.5678 C   0  0  0  0  0  0  0  0  0  0  0  0
    3.2322    5.4051   -0.9483 C   0  0  0  0  0  0  0  0  0  0  0  0
   -0.1097    3.5670   -2.2166 Se  0  0  0  0  0  2  0  0  0  0  0  0
   -2.6763    3.1003   -5.4957 C   0  0  0  0  0  0  0  0  0  0  0  0
   -1.9171    2.0876   -6.6417 S   0  0  0  0  0  0  0  0  0  0  0  0
   -2.8045    5.0999   -2.3903 C   0  0  0  0  0  0  0  0  0  0  0  0
   -3.8377    5.7591   -1.7720 C   0  0  0  0  0  0  0  0  0  0  0  0
   -5.1536    5.4425   -2.7965 S   0  0  0  0  0  0  0  0  0  0  0  0
    6.6159   -3.3847    8.6128 H   0  0  0  0  0  0  0  0  0  0  0  0
    9.5370   -0.1251    5.8047 H   0  0  0  0  0  0  0  0  0  0  0  0
    8.5043   -0.8558    4.5058 H   0  0  0  0  0  0  0  0  0  0  0  0
    6.5918    0.8682    6.1730 H   0  0  0  0  0  0  0  0  0  0  0  0
    4.8206    0.3246    7.7591 H   0  0  0  0  0  0  0  0  0  0  0  0
    4.0613   -1.4196   13.5130 H   0  0  0  0  0  0  0  0  0  0  0  0
    4.5885   -3.1686   13.4509 H   0  0  0  0  0  0  0  0  0  0  0  0
    2.0045   -2.9434   11.9149 H   0  0  0  0  0  0  0  0  0  0  0  0
    1.4097   -2.9128    9.4936 H   0  0  0  0  0  0  0  0  0  0  0  0
    4.5145   -2.6958    6.2112 H   0  0  0  0  0  0  0  0  0  0  0  0
    4.4501   -2.4001    1.2641 H   0  0  0  0  0  0  0  0  0  0  0  0
    6.7136   -3.3482    0.9584 H   0  0  0  0  0  0  0  0  0  0  0  0
    9.2866   -6.9374    2.7203 H   0  0  0  0  0  0  0  0  0  0  0  0
    7.8014   -6.4820    1.8140 H   0  0  0  0  0  0  0  0  0  0  0  0
    7.7090   -6.5938    4.8930 H   0  0  0  0  0  0  0  0  0  0  0  0
    6.3864   -6.6736    3.7131 H   0  0  0  0  0  0  0  0  0  0  0  0
    7.5455   -8.1079    3.9450 H   0  0  0  0  0  0  0  0  0  0  0  0
   -1.8531   -0.0383    3.2522 H   0  0  0  0  0  0  0  0  0  0  0  0
   -3.8940    0.3550    4.5559 H   0  0  0  0  0  0  0  0  0  0  0  0
   -4.5167   -1.1033    9.9159 H   0  0  0  0  0  0  0  0  0  0  0  0
   -2.8624   -0.9523    9.2577 H   0  0  0  0  0  0  0  0  0  0  0  0
   -3.8612   -3.3643    9.7492 H   0  0  0  0  0  0  0  0  0  0  0  0
   -2.7447   -3.0555    8.3162 H   0  0  0  0  0  0  0  0  0  0  0  0
   -4.4930   -3.2319    8.0844 H   0  0  0  0  0  0  0  0  0  0  0  0
   -1.0618   -1.4192    1.9070 H   0  0  0  0  0  0  0  0  0  0  0  0
    1.5390   -2.2275   -1.9117 H   0  0  0  0  0  0  0  0  0  0  0  0
    1.7399   -1.3762   -6.6036 H   0  0  0  0  0  0  0  0  0  0  0  0
    3.8229   -2.6688   -7.0090 H   0  0  0  0  0  0  0  0  0  0  0  0
    7.3419   -4.6257   -4.1020 H   0  0  0  0  0  0  0  0  0  0  0  0
    6.6474   -2.9437   -4.5217 H   0  0  0  0  0  0  0  0  0  0  0  0
    5.0105   -3.2502   -2.6502 H   0  0  0  0  0  0  0  0  0  0  0  0
    6.7066   -3.3776   -2.0471 H   0  0  0  0  0  0  0  0  0  0  0  0
    5.7843   -4.8912   -2.2986 H   0  0  0  0  0  0  0  0  0  0  0  0
   -3.9082   -0.8782   -1.1284 H   0  0  0  0  0  0  0  0  0  0  0  0
   -6.2905   -0.3186   -0.9007 H   0  0  0  0  0  0  0  0  0  0  0  0
   -8.9573   -1.6657   -4.4369 H   0  0  0  0  0  0  0  0  0  0  0  0
  -10.3753   -0.8301   -3.6817 H   0  0  0  0  0  0  0  0  0  0  0  0
   -9.4235   -3.1199   -2.7931 H   0  0  0  0  0  0  0  0  0  0  0  0
   -8.3341   -2.1145   -1.8100 H   0  0  0  0  0  0  0  0  0  0  0  0
  -10.1707   -1.9028   -1.7070 H   0  0  0  0  0  0  0  0  0  0  0  0
   -3.9269   -0.3701   -6.1589 H   0  0  0  0  0  0  0  0  0  0  0  0
   -2.8946   -1.8640  -12.7483 H   0  0  0  0  0  0  0  0  0  0  0  0
   -4.4964   -2.3207  -12.1683 H   0  0  0  0  0  0  0  0  0  0  0  0
   -4.4141    0.7359  -11.9683 H   0  0  0  0  0  0  0  0  0  0  0  0
   -4.2627    2.2659  -10.1489 H   0  0  0  0  0  0  0  0  0  0  0  0
   -5.2753    2.3663   -7.5216 H   0  0  0  0  0  0  0  0  0  0  0  0
   -6.5289    4.0193   -7.5746 H   0  0  0  0  0  0  0  0  0  0  0  0
   -8.9470    4.4213   -7.5016 H   0  0  0  0  0  0  0  0  0  0  0  0
  -10.0091    6.1521   -2.8449 H   0  0  0  0  0  0  0  0  0  0  0  0
  -10.3736    4.4286   -2.6335 H   0  0  0  0  0  0  0  0  0  0  0  0
  -12.2865    6.7734   -2.5797 H   0  0  0  0  0  0  0  0  0  0  0  0
  -12.8922    5.1300   -3.1544 H   0  0  0  0  0  0  0  0  0  0  0  0
  -12.1326    5.3234   -1.5558 H   0  0  0  0  0  0  0  0  0  0  0  0
    0.1124    2.9148   -5.7770 H   0  0  0  0  0  0  0  0  0  0  0  0
    2.3195    2.4352   -4.7104 H   0  0  0  0  0  0  0  0  0  0  0  0
    4.8823    4.0840   -0.9037 H   0  0  0  0  0  0  0  0  0  0  0  0
    4.3342    4.5793   -2.5633 H   0  0  0  0  0  0  0  0  0  0  0  0
    2.4208    5.6851   -1.6505 H   0  0  0  0  0  0  0  0  0  0  0  0
    3.9480    6.2587   -0.9396 H   0  0  0  0  0  0  0  0  0  0  0  0
    2.9189    5.2226    0.0791 H   0  0  0  0  0  0  0  0  0  0  0  0
   -1.8094    5.1785   -1.9058 H   0  0  0  0  0  0  0  0  0  0  0  0
   -3.8066    6.3464   -0.8398 H   0  0  0  0  0  0  0  0  0  0  0  0
  1  2  2  0
  2  3  1  0
  3  4  2  0
  3  5  1  0
  5  6  1  0
  6  7  1  0
  7  8  2  0
  8  9  1  0
  9 10  2  0
 10 11  1  0
 11 12  2  0
 12 13  1  0
 13 14  2  0
 13 15  1  0
 15 16  1  0
 16 17  1  0
 17 18  2  0
 18 19  1  0
 19 20  2  0
 20 21  1  0
 21 22  2  0
 22 23  1  0
 23 24  2  0
 24 25  1  0
 25 26  2  0
 26 27  1  0
 27 28  2  0
 28 29  1  0
 29 30  1  0
 30 31  1  0
 28 32  1  0
 24 33  1  0
 33 34  2  0
 34 35  1  0
 35 36  1  0
 36 37  2  0
 37 38  1  0
 38 39  2  0
 39 40  1  0
 40 41  1  0
 41 42  1  0
 39 43  1  0
 35 44  2  0
 44 45  1  0
 34 46  1  0
 46 47  2  0
 47 48  1  0
 47 49  1  0
 49 50  2  0
 50 51  1  0
 51 52  2  0
 52 53  1  0
 53 54  2  0
 54 55  1  0
 55 56  2  0
 56 57  1  0
 57 58  1  0
 58 59  1  0
 56 60  1  0
 52 61  1  0
 61 62  2  0
 62 63  1  0
 63 64  1  0
 64 65  2  0
 65 66  1  0
 66 67  2  0
 67 68  1  0
 68 69  1  0
 69 70  1  0
 67 71  1  0
 63 72  2  0
 72 73  1  0
 62 74  1  0
 74 75  2  0
 75 76  1  0
 75 77  1  0
 77 78  2  0
 78 79  1  0
 79 80  2  0
 79 81  1  0
 81 82  1  0
 82 83  1  0
 83 84  2  0
 84 85  1  0
 85 86  2  0
 86 87  1  0
 87 88  2  0
 88 89  1  0
 89 90  2  0
 90 91  1  0
 91 92  2  0
 92 93  1  0
 93 94  2  0
 94 95  1  0
 95 96  1  0
 96 97  1  0
 94 98  1  0
 90 99  1  0
 99100  2  0
100101  1  0
101102  1  0
102103  2  0
103104  1  0
104105  2  0
105106  1  0
106107  1  0
107108  1  0
105109  1  0
101110  2  0
110111  1  0
100112  1  0
112113  2  0
113114  1  0
 10  1  1  0
 20 11  1  0
 45 21  1  0
 73 49  1  0
 86 77  1  0
111 87  1  0
  7  2  1  0
 17 12  1  0
 44 23  1  0
 72 51  1  0
 83 78  1  0
110 89  1  0
 32 25  1  0
 48 33  1  0
 60 53  1  0
 76 61  1  0
 98 91  1  0
114 99  1  0
 43 36  1  0
 71 64  1  0
109102  1  0
  1115  1  0
  6116  1  0
  6117  1  0
  8118  1  0
  9119  1  0
 16120  1  0
 16121  1  0
 18122  1  0
 19123  1  0
 22124  1  0
 26125  1  0
 27126  1  0
 30127  1  0
 30128  1  0
 31129  1  0
 31130  1  0
 31131  1  0
 37132  1  0
 38133  1  0
 41134  1  0
 41135  1  0
 42136  1  0
 42137  1  0
 42138  1  0
 46139  1  0
 50140  1  0
 54141  1  0
 55142  1  0
 58143  1  0
 58144  1  0
 59145  1  0
 59146  1  0
 59147  1  0
 65148  1  0
 66149  1  0
 69150  1  0
 69151  1  0
 70152  1  0
 70153  1  0
 70154  1  0
 74155  1  0
 82156  1  0
 82157  1  0
 84158  1  0
 85159  1  0
 88160  1  0
 92161  1  0
 93162  1  0
 96163  1  0
 96164  1  0
 97165  1  0
 97166  1  0
 97167  1  0
103168  1  0
104169  1  0
107170  1  0
107171  1  0
108172  1  0
108173  1  0
108174  1  0
112175  1  0
113176  1  0
M  END

