
     RDKit          3D

106115  0  0  0  0  0  0  0  0999 V2000
   11.2853   -3.4656    1.0037 C   0  0  0  0  0  0  0  0  0  0  0  0
   10.0547   -2.3970    0.4901 S   0  0  0  0  0  0  0  0  0  0  0  0
    8.8027   -2.9310    1.5959 C   0  0  0  0  0  0  0  0  0  0  0  0
    9.4097   -3.8971    2.2935 C   0  0  0  0  0  0  0  0  0  0  0  0
   10.6875   -4.1758    1.9890 C   0  0  0  0  0  0  0  0  0  0  0  0
    8.7255   -4.6036    3.4387 C   0  0  0  0  0  0  0  0  0  0  0  0
    7.5740   -4.2605    3.7714 O   0  0  0  0  0  0  0  0  0  0  0  0
    9.3664   -5.6927    4.1868 C   0  0  0  0  0  0  0  0  0  0  0  0
    7.4106   -2.4164    1.5545 C   0  0  0  0  0  0  0  0  0  0  0  0
    7.0344   -1.2031    1.0191 C   0  0  0  0  0  0  0  0  0  0  0  0
    5.7319   -0.8712    1.0921 C   0  0  0  0  0  0  0  0  0  0  0  0
    5.1087    0.2970    0.6395 C   0  0  0  0  0  0  0  0  0  0  0  0
    5.8324    1.3858   -0.0306 C   0  0  0  0  0  0  0  0  0  0  0  0
    5.4948    2.6169   -0.4003 C   0  0  0  0  0  0  0  0  0  0  0  0
    6.3406    3.4499   -1.0261 C   0  0  0  0  0  0  0  0  0  0  0  0
    7.6108    3.1040   -1.3343 C   0  0  0  0  0  0  0  0  0  0  0  0
    8.9966    3.8941   -2.0751 S   0  0  0  0  0  0  0  0  0  0  0  0
    9.0477    3.8467   -3.8605 C   0  0  0  0  0  0  0  0  0  0  0  0
    9.1821    2.4477   -4.4237 C   0  0  0  0  0  0  0  0  0  0  0  0
    7.6211    1.2730   -0.6160 Se  0  0  0  0  0  2  0  0  0  0  0  0
    3.7475    0.4505    0.8191 C   0  0  0  0  0  0  0  0  0  0  0  0
    2.9167   -0.4837    1.4342 C   0  0  0  0  0  0  0  0  0  0  0  0
    3.5377   -1.6358    1.8815 C   0  0  0  0  0  0  0  0  0  0  0  0
    2.8218   -2.7766    2.4301 C   0  0  0  0  0  0  0  0  0  0  0  0
    1.6037   -3.2643    2.4922 C   0  0  0  0  0  0  0  0  0  0  0  0
    1.2538   -4.3453    3.1965 C   0  0  0  0  0  0  0  0  0  0  0  0
    2.1067   -5.0530    3.9163 C   0  0  0  0  0  0  0  0  0  0  0  0
    2.0232   -6.4933    4.9544 S   0  0  0  0  0  0  0  0  0  0  0  0
    2.2870   -8.0184    4.0420 C   0  0  0  0  0  0  0  0  0  0  0  0
    3.7052   -8.1392    3.5048 C   0  0  0  0  0  0  0  0  0  0  0  0
    3.7638   -4.0527    3.5775 Se  0  0  0  0  0  2  0  0  0  0  0  0
    4.8929   -1.7759    1.6943 C   0  0  0  0  0  0  0  0  0  0  0  0
    5.9557   -3.0423    2.1338 S   0  0  0  0  0  0  0  0  0  0  0  0
    1.6220   -0.1480    1.5115 C   0  0  0  0  0  0  0  0  0  0  0  0
    1.2150    1.0459    0.9979 C   0  0  0  0  0  0  0  0  0  0  0  0
    2.6541    1.6922    0.4152 S   0  0  0  0  0  0  0  0  0  0  0  0
   -0.1933    1.5177    0.9160 C   0  0  0  0  0  0  0  0  0  0  0  0
   -1.6022    0.6294    1.2792 S   0  0  0  0  0  0  0  0  0  0  0  0
   -2.7815    1.8453    0.8831 C   0  0  0  0  0  0  0  0  0  0  0  0
   -2.0121    2.8860    0.5008 C   0  0  0  0  0  0  0  0  0  0  0  0
   -0.6675    2.7029    0.5168 C   0  0  0  0  0  0  0  0  0  0  0  0
   -2.6037    4.2626    0.3225 C   0  0  0  0  0  0  0  0  0  0  0  0
   -1.9877    5.1713   -0.2426 O   0  0  0  0  0  0  0  0  0  0  0  0
   -3.9542    4.5863    0.8466 C   0  0  0  0  0  0  0  0  0  0  0  0
   -4.2001    1.5143    0.7472 C   0  0  0  0  0  0  0  0  0  0  0  0
   -5.2491    2.0744   -0.4560 S   0  0  0  0  0  0  0  0  0  0  0  0
   -6.7162    1.2308    0.0101 C   0  0  0  0  0  0  0  0  0  0  0  0
   -6.2872    0.5739    1.0874 C   0  0  0  0  0  0  0  0  0  0  0  0
   -5.0014    0.6997    1.4831 C   0  0  0  0  0  0  0  0  0  0  0  0
   -7.2396   -0.1991    1.9548 C   0  0  0  0  0  0  0  0  0  0  0  0
   -8.4724   -0.1662    1.7668 O   0  0  0  0  0  0  0  0  0  0  0  0
   -6.7841   -1.0471    3.0765 C   0  0  0  0  0  0  0  0  0  0  0  0
   -7.9061    1.2376   -0.8597 C   0  0  0  0  0  0  0  0  0  0  0  0
   -8.1899    2.4907   -2.0283 S   0  0  0  0  0  0  0  0  0  0  0  0
   -9.5599    1.8072   -2.8341 C   0  0  0  0  0  0  0  0  0  0  0  0
   -9.7445    0.6561   -2.1665 C   0  0  0  0  0  0  0  0  0  0  0  0
   -8.8914    0.3697   -1.1561 C   0  0  0  0  0  0  0  0  0  0  0  0
  -10.9255   -0.1948   -2.4927 C   0  0  0  0  0  0  0  0  0  0  0  0
  -11.7979    0.1068   -3.3049 O   0  0  0  0  0  0  0  0  0  0  0  0
  -11.0537   -1.5141   -1.7763 C   0  0  0  0  0  0  0  0  0  0  0  0
  -10.0726    2.4005   -4.0759 C   0  0  0  0  0  0  0  0  0  0  0  0
  -10.2208    4.0564   -4.4960 S   0  0  0  0  0  0  0  0  0  0  0  0
  -10.6849    3.8893   -6.1470 C   0  0  0  0  0  0  0  0  0  0  0  0
  -10.7079    2.5352   -6.3110 C   0  0  0  0  0  0  0  0  0  0  0  0
  -10.3973    1.7709   -5.2645 C   0  0  0  0  0  0  0  0  0  0  0  0
  -11.0533    1.9776   -7.6525 C   0  0  0  0  0  0  0  0  0  0  0  0
  -11.3260    2.7095   -8.5952 O   0  0  0  0  0  0  0  0  0  0  0  0
  -11.0626    0.5135   -7.8445 C   0  0  0  0  0  0  0  0  0  0  0  0
   12.3251   -3.5718    0.6300 H   0  0  0  0  0  0  0  0  0  0  0  0
   11.2829   -4.9672    2.5062 H   0  0  0  0  0  0  0  0  0  0  0  0
    9.4838   -5.3834    5.2572 H   0  0  0  0  0  0  0  0  0  0  0  0
    8.6541   -6.5716    4.1745 H   0  0  0  0  0  0  0  0  0  0  0  0
   10.3138   -6.0521    3.8151 H   0  0  0  0  0  0  0  0  0  0  0  0
    7.8471   -0.5866    0.5782 H   0  0  0  0  0  0  0  0  0  0  0  0
    4.4605    3.0080   -0.1703 H   0  0  0  0  0  0  0  0  0  0  0  0
    6.0259    4.5020   -1.3408 H   0  0  0  0  0  0  0  0  0  0  0  0
    9.8732    4.4879   -4.2671 H   0  0  0  0  0  0  0  0  0  0  0  0
    8.1193    4.2829   -4.2788 H   0  0  0  0  0  0  0  0  0  0  0  0
    8.9797    2.5022   -5.5141 H   0  0  0  0  0  0  0  0  0  0  0  0
    8.5293    1.7032   -3.9373 H   0  0  0  0  0  0  0  0  0  0  0  0
   10.2618    2.1238   -4.2745 H   0  0  0  0  0  0  0  0  0  0  0  0
    0.7929   -2.7532    1.8600 H   0  0  0  0  0  0  0  0  0  0  0  0
    0.1700   -4.7084    3.1952 H   0  0  0  0  0  0  0  0  0  0  0  0
    1.9867   -8.8656    4.6854 H   0  0  0  0  0  0  0  0  0  0  0  0
    1.6231   -8.0491    3.1335 H   0  0  0  0  0  0  0  0  0  0  0  0
    4.3674   -7.3173    3.8930 H   0  0  0  0  0  0  0  0  0  0  0  0
    3.7342   -8.0417    2.3876 H   0  0  0  0  0  0  0  0  0  0  0  0
    4.1686   -9.0951    3.7791 H   0  0  0  0  0  0  0  0  0  0  0  0
    0.8425   -0.7616    2.0179 H   0  0  0  0  0  0  0  0  0  0  0  0
    0.0314    3.5185    0.2085 H   0  0  0  0  0  0  0  0  0  0  0  0
   -4.6831    4.8063    0.0932 H   0  0  0  0  0  0  0  0  0  0  0  0
   -3.9005    5.5340    1.4813 H   0  0  0  0  0  0  0  0  0  0  0  0
   -4.3076    3.8309    1.5649 H   0  0  0  0  0  0  0  0  0  0  0  0
   -4.5343    0.1931    2.3612 H   0  0  0  0  0  0  0  0  0  0  0  0
   -6.7848   -2.1223    2.7370 H   0  0  0  0  0  0  0  0  0  0  0  0
   -5.8507   -0.7384    3.5464 H   0  0  0  0  0  0  0  0  0  0  0  0
   -7.5524   -1.0218    3.9071 H   0  0  0  0  0  0  0  0  0  0  0  0
   -8.9787   -0.5898   -0.5995 H   0  0  0  0  0  0  0  0  0  0  0  0
  -11.0773   -1.2783   -0.6928 H   0  0  0  0  0  0  0  0  0  0  0  0
  -10.0593   -2.0323   -1.9225 H   0  0  0  0  0  0  0  0  0  0  0  0
  -11.8997   -2.0877   -2.1479 H   0  0  0  0  0  0  0  0  0  0  0  0
  -10.9075    4.6872   -6.8786 H   0  0  0  0  0  0  0  0  0  0  0  0
  -10.3470    0.6619   -5.3052 H   0  0  0  0  0  0  0  0  0  0  0  0
  -11.1772    0.2608   -8.9092 H   0  0  0  0  0  0  0  0  0  0  0  0
  -10.1044    0.0294   -7.4973 H   0  0  0  0  0  0  0  0  0  0  0  0
  -11.8577   -0.0105   -7.2748 H   0  0  0  0  0  0  0  0  0  0  0  0
  1  2  1  0
  2  3  1  0
  3  4  2  0
  4  5  1  0
  4  6  1  0
  6  7  2  0
  6  8  1  0
  3  9  1  0
  9 10  2  0
 10 11  1  0
 11 12  2  0
 12 13  1  0
 13 14  2  0
 14 15  1  0
 15 16  2  0
 16 17  1  0
 17 18  1  0
 18 19  1  0
 16 20  1  0
 12 21  1  0
 21 22  2  0
 22 23  1  0
 23 24  1  0
 24 25  2  0
 25 26  1  0
 26 27  2  0
 27 28  1  0
 28 29  1  0
 29 30  1  0
 27 31  1  0
 23 32  2  0
 32 33  1  0
 22 34  1  0
 34 35  2  0
 35 36  1  0
 35 37  1  0
 37 38  1  0
 38 39  1  0
 39 40  2  0
 40 41  1  0
 40 42  1  0
 42 43  2  0
 42 44  1  0
 39 45  1  0
 45 46  1  0
 46 47  1  0
 47 48  2  0
 48 49  1  0
 48 50  1  0
 50 51  2  0
 50 52  1  0
 47 53  1  0
 53 54  1  0
 54 55  1  0
 55 56  2  0
 56 57  1  0
 56 58  1  0
 58 59  2  0
 58 60  1  0
 55 61  1  0
 61 62  1  0
 62 63  1  0
 63 64  2  0
 64 65  1  0
 64 66  1  0
 66 67  2  0
 66 68  1  0
  5  1  2  0
 33  9  1  0
 41 37  2  0
 49 45  2  0
 57 53  2  0
 65 61  2  0
 32 11  1  0
 20 13  1  0
 36 21  1  0
 31 24  1  0
  1 69  1  0
  5 70  1  0
  8 71  1  0
  8 72  1  0
  8 73  1  0
 10 74  1  0
 14 75  1  0
 15 76  1  0
 18 77  1  0
 18 78  1  0
 19 79  1  0
 19 80  1  0
 19 81  1  0
 25 82  1  0
 26 83  1  0
 29 84  1  0
 29 85  1  0
 30 86  1  0
 30 87  1  0
 30 88  1  0
 34 89  1  0
 41 90  1  0
 44 91  1  0
 44 92  1  0
 44 93  1  0
 49 94  1  0
 52 95  1  0
 52 96  1  0
 52 97  1  0
 57 98  1  0
 60 99  1  0
 60100  1  0
 60101  1  0
 63102  1  0
 65103  1  0
 68104  1  0
 68105  1  0
 68106  1  0
M  END

