
     RDKit          3D

161175  0  0  0  0  0  0  0  0999 V2000
    0.0674    6.8680   11.6131 C   0  0  0  0  0  0  0  0  0  0  0  0
   -0.4561    5.3956   10.9574 S   0  0  0  0  0  0  0  0  0  0  0  0
   -0.3548    5.7895    9.2565 C   0  0  0  0  0  0  0  0  0  0  0  0
    0.0748    7.0451    9.3033 C   0  0  0  0  0  0  0  0  0  0  0  0
    0.3095    7.6383   10.5070 C   0  0  0  0  0  0  0  0  0  0  0  0
    0.8629    9.0466   10.4984 C   0  0  2  0  0  0  0  0  0  0  0  0
   -0.1689   10.0537   10.5188 N   0  0  0  0  0  0  0  0  0  0  0  0
    1.9096    9.2409    9.4402 C   0  0  0  0  0  0  0  0  0  0  0  0
    1.6753    8.4238    8.1773 C   0  0  0  0  0  0  0  0  0  0  0  0
    0.2495    8.0313    8.1455 C   0  0  1  0  0  0  0  0  0  0  0  0
   -0.3427    7.6729    7.0031 O   0  0  0  0  0  0  0  0  0  0  0  0
   -1.4038    8.4943    6.6598 C   0  0  0  0  0  0  0  0  0  0  0  0
   -0.5736    4.7844    8.1963 C   0  0  0  0  0  0  0  0  0  0  0  0
   -0.0746    4.5878    6.9678 C   0  0  0  0  0  0  0  0  0  0  0  0
   -0.4176    3.4860    6.2588 C   0  0  0  0  0  0  0  0  0  0  0  0
    0.0104    3.0866    5.0130 C   0  0  0  0  0  0  0  0  0  0  0  0
    0.7690    3.8968    4.0451 C   0  0  0  0  0  0  0  0  0  0  0  0
    1.0580    5.1809    3.8698 C   0  0  0  0  0  0  0  0  0  0  0  0
    1.8386    5.6335    2.8823 C   0  0  0  0  0  0  0  0  0  0  0  0
    2.4111    4.8542    1.9708 C   0  0  0  0  0  0  0  0  0  0  0  0
    3.4330    5.0182    0.5505 S   0  0  0  0  0  0  0  0  0  0  0  0
    2.4733    5.1455   -0.9835 C   0  0  0  0  0  0  0  0  0  0  0  0
    1.7547    3.8149   -1.2281 C   0  0  0  0  0  0  0  0  0  0  0  0
    1.7288    3.1111    2.6061 Se  0  0  0  0  0  2  0  0  0  0  0  0
   -0.4509    1.8639    4.4987 C   0  0  0  0  0  0  0  0  0  0  0  0
   -1.3079    1.0010    5.0976 C   0  0  0  0  0  0  0  0  0  0  0  0
   -1.7403    1.4167    6.3623 C   0  0  0  0  0  0  0  0  0  0  0  0
   -2.6620    0.6757    7.2044 C   0  0  0  0  0  0  0  0  0  0  0  0
   -3.1998    0.8049    8.4096 C   0  0  0  0  0  0  0  0  0  0  0  0
   -4.0589   -0.0455    8.9583 C   0  0  0  0  0  0  0  0  0  0  0  0
   -4.4890   -1.1588    8.3381 C   0  0  0  0  0  0  0  0  0  0  0  0
   -5.5784   -2.4861    8.7151 S   0  0  0  0  0  0  0  0  0  0  0  0
   -5.6209   -3.6436    7.3143 C   0  0  0  0  0  0  0  0  0  0  0  0
   -6.2460   -3.0087    6.1005 C   0  0  0  0  0  0  0  0  0  0  0  0
   -3.4967   -0.9863    6.6483 Se  0  0  0  0  0  2  0  0  0  0  0  0
   -1.2872    2.6131    6.8808 C   0  0  0  0  0  0  0  0  0  0  0  0
   -1.5469    3.4017    8.3818 S   0  0  0  0  0  0  0  0  0  0  0  0
   -1.5920   -0.1228    4.3920 C   0  0  0  0  0  0  0  0  0  0  0  0
   -1.0490   -0.3279    3.2050 C   0  0  0  0  0  0  0  0  0  0  0  0
   -0.0717    1.1027    3.0137 S   0  0  0  0  0  0  0  0  0  0  0  0
   -1.1874   -1.2799    2.0694 C   0  0  0  0  0  0  0  0  0  0  0  0
    0.1302   -2.0745    1.2658 S   0  0  0  0  0  0  0  0  0  0  0  0
   -0.7440   -2.7473   -0.0595 C   0  0  0  0  0  0  0  0  0  0  0  0
   -2.0088   -2.3382    0.1708 C   0  0  0  0  0  0  0  0  0  0  0  0
   -2.2169   -1.5884    1.2662 C   0  0  0  0  0  0  0  0  0  0  0  0
   -3.6555   -1.1453    1.4570 C   0  0  2  0  0  0  0  0  0  0  0  0
   -3.8523   -0.4283    2.6674 N   0  0  0  0  0  0  0  0  0  0  0  0
   -4.4380   -2.4580    1.5400 C   0  0  0  0  0  0  0  0  0  0  0  0
   -4.3568   -3.1933    0.2508 C   0  0  0  0  0  0  0  0  0  0  0  0
   -3.2320   -2.6418   -0.6718 C   0  0  1  0  0  0  0  0  0  0  0  0
   -3.7067   -1.5257   -1.3402 O   0  0  0  0  0  0  0  0  0  0  0  0
   -3.9867   -1.7137   -2.6775 C   0  0  0  0  0  0  0  0  0  0  0  0
   -0.1504   -3.4101   -1.2151 C   0  0  0  0  0  0  0  0  0  0  0  0
   -0.5651   -3.2583   -2.8680 S   0  0  0  0  0  0  0  0  0  0  0  0
    0.5493   -4.3461   -3.5477 C   0  0  0  0  0  0  0  0  0  0  0  0
    1.2159   -4.8054   -2.4671 C   0  0  0  0  0  0  0  0  0  0  0  0
    0.8624   -4.3316   -1.2616 C   0  0  0  0  0  0  0  0  0  0  0  0
    1.5827   -4.8812   -0.0485 C   0  0  2  0  0  0  0  0  0  0  0  0
    2.9158   -4.4228    0.0961 N   0  0  0  0  0  0  0  0  0  0  0  0
    1.5334   -6.4021   -0.2096 C   0  0  0  0  0  0  0  0  0  0  0  0
    2.2388   -6.8508   -1.4579 C   0  0  0  0  0  0  0  0  0  0  0  0
    2.4120   -5.7495   -2.4524 C   0  0  1  0  0  0  0  0  0  0  0  0
    2.7996   -6.1207   -3.7015 O   0  0  0  0  0  0  0  0  0  0  0  0
    4.0648   -5.6043   -4.0679 C   0  0  0  0  0  0  0  0  0  0  0  0
    0.5846   -4.5841   -4.9953 C   0  0  0  0  0  0  0  0  0  0  0  0
    0.8592   -3.3011   -6.1312 S   0  0  0  0  0  0  0  0  0  0  0  0
    0.7950   -4.2066   -7.5716 C   0  0  0  0  0  0  0  0  0  0  0  0
    0.5641   -5.4790   -7.1658 C   0  0  0  0  0  0  0  0  0  0  0  0
    0.4438   -5.6628   -5.8036 C   0  0  0  0  0  0  0  0  0  0  0  0
   -0.1005   -7.0118   -5.3271 C   0  0  2  0  0  0  0  0  0  0  0  0
    0.0090   -7.2033   -3.9551 N   0  0  0  0  0  0  0  0  0  0  0  0
    0.2826   -8.1627   -6.1625 C   0  0  0  0  0  0  0  0  0  0  0  0
   -0.3013   -7.8235   -7.5690 C   0  0  0  0  0  0  0  0  0  0  0  0
    0.6226   -6.7179   -8.0260 C   0  0  1  0  0  0  0  0  0  0  0  0
    0.6053   -6.5637   -9.3495 O   0  0  0  0  0  0  0  0  0  0  0  0
    1.7946   -7.1053   -9.9314 C   0  0  0  0  0  0  0  0  0  0  0  0
    0.8927   -3.5737   -8.9138 C   0  0  0  0  0  0  0  0  0  0  0  0
    0.4733   -4.1252  -10.4545 S   0  0  0  0  0  0  0  0  0  0  0  0
    0.9677   -2.8049  -11.3773 C   0  0  0  0  0  0  0  0  0  0  0  0
    1.4694   -1.9268  -10.4425 C   0  0  0  0  0  0  0  0  0  0  0  0
    1.4428   -2.2978   -9.1537 C   0  0  0  0  0  0  0  0  0  0  0  0
    1.9459   -1.3761   -8.0630 C   0  0  2  0  0  0  0  0  0  0  0  0
    0.8236   -0.7628   -7.3753 N   0  0  0  0  0  0  0  0  0  0  0  0
    2.8192   -0.2884   -8.5622 C   0  0  0  0  0  0  0  0  0  0  0  0
    2.1268    0.3907   -9.7378 C   0  0  0  0  0  0  0  0  0  0  0  0
    2.0700   -0.5836  -10.8781 C   0  0  1  0  0  0  0  0  0  0  0  0
    3.3620   -0.7945  -11.3003 O   0  0  0  0  0  0  0  0  0  0  0  0
    3.5445   -0.3568  -12.6031 C   0  0  0  0  0  0  0  0  0  0  0  0
    0.1904    7.1581   12.6743 H   0  0  0  0  0  0  0  0  0  0  0  0
    1.4038    9.1967   11.4933 H   0  0  0  0  0  0  0  0  0  0  0  0
   -0.5276   10.1591   11.4844 H   0  0  0  0  0  0  0  0  0  0  0  0
    0.2693   10.9481   10.2570 H   0  0  0  0  0  0  0  0  0  0  0  0
    1.8977   10.3489    9.2149 H   0  0  0  0  0  0  0  0  0  0  0  0
    2.9125    9.0561    9.8697 H   0  0  0  0  0  0  0  0  0  0  0  0
    1.9957    9.0785    7.3268 H   0  0  0  0  0  0  0  0  0  0  0  0
    2.4078    7.5901    8.2148 H   0  0  0  0  0  0  0  0  0  0  0  0
   -0.3117    8.9838    8.4732 H   0  0  0  0  0  0  0  0  0  0  0  0
   -1.8738    8.1555    5.7013 H   0  0  0  0  0  0  0  0  0  0  0  0
   -2.2091    8.3978    7.4367 H   0  0  0  0  0  0  0  0  0  0  0  0
   -1.0459    9.5215    6.5422 H   0  0  0  0  0  0  0  0  0  0  0  0
    0.6584    5.3218    6.5831 H   0  0  0  0  0  0  0  0  0  0  0  0
    0.5709    5.9346    4.5867 H   0  0  0  0  0  0  0  0  0  0  0  0
    2.0484    6.7512    2.7862 H   0  0  0  0  0  0  0  0  0  0  0  0
    1.7031    5.9318   -0.9609 H   0  0  0  0  0  0  0  0  0  0  0  0
    3.2052    5.2899   -1.8087 H   0  0  0  0  0  0  0  0  0  0  0  0
    2.5423    3.0785   -1.4732 H   0  0  0  0  0  0  0  0  0  0  0  0
    1.2125    3.5567   -0.3067 H   0  0  0  0  0  0  0  0  0  0  0  0
    0.9935    3.9141   -2.0273 H   0  0  0  0  0  0  0  0  0  0  0  0
   -2.8885    1.7218    9.0327 H   0  0  0  0  0  0  0  0  0  0  0  0
   -4.4850    0.1277   10.0109 H   0  0  0  0  0  0  0  0  0  0  0  0
   -4.5641   -3.9216    7.0394 H   0  0  0  0  0  0  0  0  0  0  0  0
   -6.1922   -4.5567    7.6300 H   0  0  0  0  0  0  0  0  0  0  0  0
   -6.1971   -1.9072    6.1287 H   0  0  0  0  0  0  0  0  0  0  0  0
   -5.7053   -3.2907    5.1489 H   0  0  0  0  0  0  0  0  0  0  0  0
   -7.3226   -3.3106    6.0272 H   0  0  0  0  0  0  0  0  0  0  0  0
   -2.2651   -0.9148    4.7827 H   0  0  0  0  0  0  0  0  0  0  0  0
   -3.9969   -0.5016    0.6264 H   0  0  0  0  0  0  0  0  0  0  0  0
   -4.5717    0.3301    2.5674 H   0  0  0  0  0  0  0  0  0  0  0  0
   -4.2217   -1.0545    3.4505 H   0  0  0  0  0  0  0  0  0  0  0  0
   -5.4490   -2.1820    1.8522 H   0  0  0  0  0  0  0  0  0  0  0  0
   -3.9157   -3.0427    2.3536 H   0  0  0  0  0  0  0  0  0  0  0  0
   -5.2828   -3.0451   -0.3707 H   0  0  0  0  0  0  0  0  0  0  0  0
   -4.1107   -4.2637    0.3928 H   0  0  0  0  0  0  0  0  0  0  0  0
   -3.0725   -3.4419   -1.3825 H   0  0  0  0  0  0  0  0  0  0  0  0
   -4.3512   -0.7635   -3.1368 H   0  0  0  0  0  0  0  0  0  0  0  0
   -3.2295   -2.2150   -3.2688 H   0  0  0  0  0  0  0  0  0  0  0  0
   -4.9174   -2.3640   -2.6857 H   0  0  0  0  0  0  0  0  0  0  0  0
    1.0378   -4.6409    0.8865 H   0  0  0  0  0  0  0  0  0  0  0  0
    3.1177   -3.7531    0.8394 H   0  0  0  0  0  0  0  0  0  0  0  0
    3.5156   -5.2758    0.3237 H   0  0  0  0  0  0  0  0  0  0  0  0
    1.9749   -6.8943    0.7100 H   0  0  0  0  0  0  0  0  0  0  0  0
    0.4645   -6.6860   -0.2469 H   0  0  0  0  0  0  0  0  0  0  0  0
    1.7322   -7.7441   -1.8330 H   0  0  0  0  0  0  0  0  0  0  0  0
    3.2672   -7.2033   -1.1634 H   0  0  0  0  0  0  0  0  0  0  0  0
    3.2589   -5.0914   -2.0688 H   0  0  0  0  0  0  0  0  0  0  0  0
    4.3381   -5.9334   -5.0808 H   0  0  0  0  0  0  0  0  0  0  0  0
    4.8409   -5.9405   -3.3427 H   0  0  0  0  0  0  0  0  0  0  0  0
    3.9950   -4.5100   -3.9665 H   0  0  0  0  0  0  0  0  0  0  0  0
   -1.2644   -6.9370   -5.5098 H   0  0  0  0  0  0  0  0  0  0  0  0
    0.2838   -8.1931   -3.6900 H   0  0  0  0  0  0  0  0  0  0  0  0
   -0.8531   -6.9777   -3.3966 H   0  0  0  0  0  0  0  0  0  0  0  0
   -0.2762   -9.0588   -5.8402 H   0  0  0  0  0  0  0  0  0  0  0  0
    1.3435   -8.3968   -6.2193 H   0  0  0  0  0  0  0  0  0  0  0  0
   -1.3208   -7.4903   -7.4061 H   0  0  0  0  0  0  0  0  0  0  0  0
   -0.1651   -8.6655   -8.2373 H   0  0  0  0  0  0  0  0  0  0  0  0
    1.6617   -7.1634   -7.7784 H   0  0  0  0  0  0  0  0  0  0  0  0
    2.6326   -6.5282   -9.4737 H   0  0  0  0  0  0  0  0  0  0  0  0
    1.7286   -7.0112  -11.0127 H   0  0  0  0  0  0  0  0  0  0  0  0
    1.8454   -8.1405   -9.5556 H   0  0  0  0  0  0  0  0  0  0  0  0
    0.9044   -2.6678  -12.4807 H   0  0  0  0  0  0  0  0  0  0  0  0
    2.5320   -1.9266   -7.2942 H   0  0  0  0  0  0  0  0  0  0  0  0
    1.1296   -0.0476   -6.6784 H   0  0  0  0  0  0  0  0  0  0  0  0
    0.0962   -0.3905   -8.0234 H   0  0  0  0  0  0  0  0  0  0  0  0
    2.8411    0.5013   -7.7539 H   0  0  0  0  0  0  0  0  0  0  0  0
    3.8312   -0.5532   -8.8585 H   0  0  0  0  0  0  0  0  0  0  0  0
    1.1079    0.7399   -9.4730 H   0  0  0  0  0  0  0  0  0  0  0  0
    2.7215    1.2840   -9.9983 H   0  0  0  0  0  0  0  0  0  0  0  0
    1.4876   -0.1280  -11.6858 H   0  0  0  0  0  0  0  0  0  0  0  0
    2.9157   -0.8504  -13.3438 H   0  0  0  0  0  0  0  0  0  0  0  0
    3.2373    0.7294  -12.5998 H   0  0  0  0  0  0  0  0  0  0  0  0
    4.6182   -0.3323  -12.8979 H   0  0  0  0  0  0  0  0  0  0  0  0
  1  2  1  0
  2  3  1  0
  3  4  2  0
  4  5  1  0
  5  6  1  0
  6  7  1  0
  6  8  1  0
  8  9  1  0
  9 10  1  0
 10 11  1  0
 11 12  1  0
  3 13  1  0
 13 14  2  0
 14 15  1  0
 15 16  2  0
 16 17  1  0
 17 18  2  0
 18 19  1  0
 19 20  2  0
 20 21  1  0
 21 22  1  0
 22 23  1  0
 20 24  1  0
 16 25  1  0
 25 26  2  0
 26 27  1  0
 27 28  1  0
 28 29  2  0
 29 30  1  0
 30 31  2  0
 31 32  1  0
 32 33  1  0
 33 34  1  0
 31 35  1  0
 27 36  2  0
 36 37  1  0
 26 38  1  0
 38 39  2  0
 39 40  1  0
 39 41  1  0
 41 42  1  0
 42 43  1  0
 43 44  2  0
 44 45  1  0
 45 46  1  0
 46 47  1  0
 46 48  1  0
 48 49  1  0
 49 50  1  0
 50 51  1  0
 51 52  1  0
 43 53  1  0
 53 54  1  0
 54 55  1  0
 55 56  2  0
 56 57  1  0
 57 58  1  0
 58 59  1  0
 58 60  1  0
 60 61  1  0
 61 62  1  0
 62 63  1  0
 63 64  1  0
 55 65  1  0
 65 66  1  0
 66 67  1  0
 67 68  2  0
 68 69  1  0
 69 70  1  0
 70 71  1  0
 70 72  1  0
 72 73  1  0
 73 74  1  0
 74 75  1  0
 75 76  1  0
 67 77  1  0
 77 78  1  0
 78 79  1  0
 79 80  2  0
 80 81  1  0
 81 82  1  0
 82 83  1  0
 82 84  1  0
 84 85  1  0
 85 86  1  0
 86 87  1  0
 87 88  1  0
  5  1  2  0
 37 13  1  0
 45 41  2  0
 57 53  2  0
 69 65  2  0
 81 77  2  0
 10  4  1  0
 36 15  1  0
 50 44  1  0
 62 56  1  0
 74 68  1  0
 86 80  1  0
 24 17  1  0
 40 25  1  0
 35 28  1  0
  1 89  1  0
  6 90  1  1
  7 91  1  0
  7 92  1  0
  8 93  1  0
  8 94  1  0
  9 95  1  0
  9 96  1  0
 10 97  1  1
 12 98  1  0
 12 99  1  0
 12100  1  0
 14101  1  0
 18102  1  0
 19103  1  0
 22104  1  0
 22105  1  0
 23106  1  0
 23107  1  0
 23108  1  0
 29109  1  0
 30110  1  0
 33111  1  0
 33112  1  0
 34113  1  0
 34114  1  0
 34115  1  0
 38116  1  0
 46117  1  6
 47118  1  0
 47119  1  0
 48120  1  0
 48121  1  0
 49122  1  0
 49123  1  0
 50124  1  6
 52125  1  0
 52126  1  0
 52127  1  0
 58128  1  1
 59129  1  0
 59130  1  0
 60131  1  0
 60132  1  0
 61133  1  0
 61134  1  0
 62135  1  1
 64136  1  0
 64137  1  0
 64138  1  0
 70139  1  1
 71140  1  0
 71141  1  0
 72142  1  0
 72143  1  0
 73144  1  0
 73145  1  0
 74146  1  6
 76147  1  0
 76148  1  0
 76149  1  0
 79150  1  0
 82151  1  1
 83152  1  0
 83153  1  0
 84154  1  0
 84155  1  0
 85156  1  0
 85157  1  0
 86158  1  6
 88159  1  0
 88160  1  0
 88161  1  0
M  END

