
     RDKit          3D

185202  0  0  0  0  0  0  0  0999 V2000
    5.0392    1.8204    8.2615 C   0  0  0  0  0  0  0  0  0  0  0  0
    5.3071    2.7634    6.8549 S   0  0  0  0  0  0  0  0  0  0  0  0
    6.5421    1.9097    6.1442 C   0  0  0  0  0  0  0  0  0  0  0  0
    6.7822    0.7988    7.0705 C   0  0  0  0  0  0  0  0  0  0  0  0
    7.7646   -0.0762    6.7075 O   0  0  0  0  0  0  0  0  0  0  0  0
    8.5688   -0.0446    5.5678 C   0  0  0  0  0  0  0  0  0  0  0  0
    5.9638    0.8427    8.1125 C   0  0  0  0  0  0  0  0  0  0  0  0
    6.0510   -0.1946    9.2110 N   0  0  0  0  0  0  0  0  0  0  0  0
    5.3457   -0.0347   10.3673 C   0  0  0  0  0  0  0  0  0  0  0  0
    4.0909   -0.4695   10.5615 C   0  0  0  0  0  0  0  0  0  0  0  0
    3.6208   -1.2022    9.3181 C   0  0  0  0  0  0  0  0  0  0  0  0
    2.3432   -1.4974    8.9575 C   0  0  0  0  0  0  0  0  0  0  0  0
    2.2208   -2.2860    7.8101 C   0  0  0  0  0  0  0  0  0  0  0  0
    1.0439   -2.6162    7.1606 C   0  0  0  0  0  0  0  0  0  0  0  0
   -0.2579   -2.3849    7.7185 C   0  0  0  0  0  0  0  0  0  0  0  0
   -1.4821   -2.2112    7.2175 C   0  0  0  0  0  0  0  0  0  0  0  0
   -2.5933   -2.1922    7.9462 C   0  0  0  0  0  0  0  0  0  0  0  0
   -2.5978   -2.3443    9.2843 C   0  0  0  0  0  0  0  0  0  0  0  0
   -3.8250   -2.5164   10.5211 S   0  0  0  0  0  0  0  0  0  0  0  0
   -5.4667   -2.2311    9.8538 C   0  0  0  0  0  0  0  0  0  0  0  0
   -6.0094   -0.8339   10.0726 C   0  0  0  0  0  0  0  0  0  0  0  0
   -0.7057   -2.5391    9.6220 Se  0  0  0  0  0  2  0  0  0  0  0  0
    1.1197   -3.3133    5.9236 C   0  0  0  0  0  0  0  0  0  0  0  0
    2.2779   -3.6724    5.3320 C   0  0  0  0  0  0  0  0  0  0  0  0
    3.4613   -3.3413    5.9737 C   0  0  0  0  0  0  0  0  0  0  0  0
    4.8256   -3.5526    5.5180 C   0  0  0  0  0  0  0  0  0  0  0  0
    5.4274   -3.7930    4.3445 C   0  0  0  0  0  0  0  0  0  0  0  0
    6.6951   -4.0994    4.1697 C   0  0  0  0  0  0  0  0  0  0  0  0
    7.5639   -4.1870    5.2761 C   0  0  0  0  0  0  0  0  0  0  0  0
    9.2481   -4.5930    5.4576 S   0  0  0  0  0  0  0  0  0  0  0  0
    9.9060   -5.0874    3.8622 C   0  0  0  0  0  0  0  0  0  0  0  0
    9.8906   -3.9568    2.8436 C   0  0  0  0  0  0  0  0  0  0  0  0
    6.2582   -3.7781    6.6886 Se  0  0  0  0  0  2  0  0  0  0  0  0
    3.3622   -2.6624    7.1936 C   0  0  0  0  0  0  0  0  0  0  0  0
    4.5883   -1.9511    8.1862 S   0  0  0  0  0  0  0  0  0  0  0  0
    2.2080   -4.3068    4.1222 C   0  0  0  0  0  0  0  0  0  0  0  0
    0.9281   -4.5205    3.6133 C   0  0  0  0  0  0  0  0  0  0  0  0
   -0.0725   -3.8543    4.8102 S   0  0  0  0  0  0  0  0  0  0  0  0
    0.6489   -4.8550    2.1700 C   0  0  0  0  0  0  0  0  0  0  0  0
   -0.4794   -5.1396    1.5207 C   0  0  0  0  0  0  0  0  0  0  0  0
   -0.4459   -5.0960    0.1305 C   0  0  0  0  0  0  0  0  0  0  0  0
   -1.5228   -5.0965   -0.7239 C   0  0  0  0  0  0  0  0  0  0  0  0
   -2.8490   -5.6071   -0.4030 C   0  0  0  0  0  0  0  0  0  0  0  0
   -3.3951   -6.3764    0.5005 C   0  0  0  0  0  0  0  0  0  0  0  0
   -4.6627   -6.6801    0.7068 C   0  0  0  0  0  0  0  0  0  0  0  0
   -5.5956   -6.0977   -0.1857 C   0  0  0  0  0  0  0  0  0  0  0  0
   -7.3412   -6.1832   -0.3139 S   0  0  0  0  0  0  0  0  0  0  0  0
   -7.8683   -5.2382   -1.7989 C   0  0  0  0  0  0  0  0  0  0  0  0
   -7.5452   -3.7998   -1.6033 C   0  0  0  0  0  0  0  0  0  0  0  0
   -4.4088   -5.0651   -1.3349 Se  0  0  0  0  0  2  0  0  0  0  0  0
   -1.3696   -4.7455   -2.0913 C   0  0  0  0  0  0  0  0  0  0  0  0
   -0.1903   -4.3915   -2.6470 C   0  0  0  0  0  0  0  0  0  0  0  0
    0.9234   -4.4186   -1.8013 C   0  0  0  0  0  0  0  0  0  0  0  0
    2.2826   -4.2802   -2.2229 C   0  0  0  0  0  0  0  0  0  0  0  0
    3.0169   -4.2763   -3.3099 C   0  0  0  0  0  0  0  0  0  0  0  0
    4.3223   -4.0546   -3.4142 C   0  0  0  0  0  0  0  0  0  0  0  0
    5.0782   -3.7979   -2.3122 C   0  0  0  0  0  0  0  0  0  0  0  0
    6.7715   -3.4450   -2.0490 S   0  0  0  0  0  0  0  0  0  0  0  0
    7.0648   -3.2834   -0.2491 C   0  0  0  0  0  0  0  0  0  0  0  0
    6.3192   -2.1311    0.3163 C   0  0  0  0  0  0  0  0  0  0  0  0
    3.6967   -3.8869   -0.9210 Se  0  0  0  0  0  2  0  0  0  0  0  0
    0.7408   -4.7756   -0.4341 C   0  0  0  0  0  0  0  0  0  0  0  0
    1.7858   -4.5531    0.9107 S   0  0  0  0  0  0  0  0  0  0  0  0
   -0.2522   -3.8121   -3.8922 C   0  0  0  0  0  0  0  0  0  0  0  0
   -1.4827   -3.6435   -4.4506 C   0  0  0  0  0  0  0  0  0  0  0  0
   -2.5348   -4.3004   -3.2819 S   0  0  0  0  0  0  0  0  0  0  0  0
   -1.8226   -2.6444   -5.5147 C   0  0  0  0  0  0  0  0  0  0  0  0
   -1.2260   -1.3724   -5.4284 C   0  0  0  0  0  0  0  0  0  0  0  0
   -1.7696   -0.3929   -6.1800 C   0  0  0  0  0  0  0  0  0  0  0  0
   -1.4503    0.9680   -6.0507 C   0  0  0  0  0  0  0  0  0  0  0  0
   -0.2703    1.4723   -5.4152 C   0  0  0  0  0  0  0  0  0  0  0  0
    0.9347    0.9239   -5.1505 C   0  0  0  0  0  0  0  0  0  0  0  0
    1.8403    1.5316   -4.3886 C   0  0  0  0  0  0  0  0  0  0  0  0
    1.6893    2.7124   -3.8135 C   0  0  0  0  0  0  0  0  0  0  0  0
    2.5366    3.8253   -2.7635 S   0  0  0  0  0  0  0  0  0  0  0  0
    3.5983    4.9966   -3.6170 C   0  0  0  0  0  0  0  0  0  0  0  0
    4.7806    4.3259   -4.2707 C   0  0  0  0  0  0  0  0  0  0  0  0
   -0.1659    3.1061   -4.4662 Se  0  0  0  0  0  2  0  0  0  0  0  0
   -2.2668    1.8661   -6.6953 C   0  0  0  0  0  0  0  0  0  0  0  0
   -3.3516    1.6193   -7.4630 C   0  0  0  0  0  0  0  0  0  0  0  0
   -3.6320    0.2482   -7.6080 C   0  0  0  0  0  0  0  0  0  0  0  0
   -4.6042   -0.2995   -8.5561 C   0  0  0  0  0  0  0  0  0  0  0  0
   -4.9467   -1.5646   -8.8707 C   0  0  0  0  0  0  0  0  0  0  0  0
   -5.8615   -1.7074   -9.8841 C   0  0  0  0  0  0  0  0  0  0  0  0
   -6.4352   -0.8898  -10.5679 C   0  0  0  0  0  0  0  0  0  0  0  0
   -7.6005   -0.7557  -11.9387 S   0  0  0  0  0  0  0  0  0  0  0  0
   -6.6998   -0.9280  -13.5176 C   0  0  0  0  0  0  0  0  0  0  0  0
   -6.0990   -2.3322  -13.6067 C   0  0  0  0  0  0  0  0  0  0  0  0
   -5.6346    0.7717   -9.7541 Se  0  0  0  0  0  2  0  0  0  0  0  0
   -2.8312   -0.7091   -6.9623 C   0  0  0  0  0  0  0  0  0  0  0  0
   -3.0283   -2.4022   -6.5951 S   0  0  0  0  0  0  0  0  0  0  0  0
   -4.1333    2.6839   -7.8254 C   0  0  0  0  0  0  0  0  0  0  0  0
   -3.7780    3.9202   -7.3660 C   0  0  0  0  0  0  0  0  0  0  0  0
   -2.3500    3.5858   -6.4625 S   0  0  0  0  0  0  0  0  0  0  0  0
   -4.4667    5.2667   -7.3178 C   0  0  0  0  0  0  0  0  0  0  0  0
   -5.2853    6.3292   -8.2532 S   0  0  0  0  0  0  0  0  0  0  0  0
   -5.9355    7.3826   -7.0784 C   0  0  0  0  0  0  0  0  0  0  0  0
   -5.5009    6.8914   -5.9122 C   0  0  0  0  0  0  0  0  0  0  0  0
   -5.7513    7.3143   -4.6146 O   0  0  0  0  0  0  0  0  0  0  0  0
   -6.5399    8.5824   -4.3933 C   0  0  0  0  0  0  0  0  0  0  0  0
   -4.6961    5.7482   -5.9716 C   0  0  0  0  0  0  0  0  0  0  0  0
   -4.1691    5.1311   -4.8496 N   0  0  0  0  0  0  0  0  0  0  0  0
   -4.0518    5.4314   -3.4413 C   0  0  0  0  0  0  0  0  0  0  0  0
   -4.4385    4.4850   -2.5872 C   0  0  0  0  0  0  0  0  0  0  0  0
   -4.3826    4.6173   -1.1432 C   0  0  0  0  0  0  0  0  0  0  0  0
   -5.2617    3.6485   -0.0057 S   0  0  0  0  0  0  0  0  0  0  0  0
   -4.6676    4.2621    1.4129 C   0  0  0  0  0  0  0  0  0  0  0  0
   -3.7738    5.2449    1.0578 C   0  0  0  0  0  0  0  0  0  0  0  0
   -3.0728    6.0129    1.8900 O   0  0  0  0  0  0  0  0  0  0  0  0
   -2.7860    6.3282    3.1194 C   0  0  0  0  0  0  0  0  0  0  0  0
   -3.6423    5.4023   -0.3392 C   0  0  0  0  0  0  0  0  0  0  0  0
   -2.5567    6.2756   -0.8065 N   0  0  0  0  0  0  0  0  0  0  0  0
   -1.2241    5.7195   -0.6908 C   0  0  0  0  0  0  0  0  0  0  0  0
   -0.1514    6.1381   -1.2448 C   0  0  0  0  0  0  0  0  0  0  0  0
    4.2709    1.9969    9.0376 H   0  0  0  0  0  0  0  0  0  0  0  0
    7.1715    2.0237    5.2258 H   0  0  0  0  0  0  0  0  0  0  0  0
    9.1535    0.8867    5.4642 H   0  0  0  0  0  0  0  0  0  0  0  0
    9.2163   -0.9432    5.5956 H   0  0  0  0  0  0  0  0  0  0  0  0
    7.8810   -0.0695    4.6369 H   0  0  0  0  0  0  0  0  0  0  0  0
    6.7012   -0.9791    8.9641 H   0  0  0  0  0  0  0  0  0  0  0  0
    5.8122    0.4493   11.2026 H   0  0  0  0  0  0  0  0  0  0  0  0
    3.5096   -0.3771   11.3741 H   0  0  0  0  0  0  0  0  0  0  0  0
    1.4962   -1.1176    9.5306 H   0  0  0  0  0  0  0  0  0  0  0  0
   -1.5400   -2.0657    6.0844 H   0  0  0  0  0  0  0  0  0  0  0  0
   -3.6231   -2.0280    7.4611 H   0  0  0  0  0  0  0  0  0  0  0  0
   -5.3118   -2.3118    8.6860 H   0  0  0  0  0  0  0  0  0  0  0  0
   -6.1836   -3.0330   10.0761 H   0  0  0  0  0  0  0  0  0  0  0  0
   -6.6466   -0.9035   11.0229 H   0  0  0  0  0  0  0  0  0  0  0  0
   -6.6201   -0.4618    9.2104 H   0  0  0  0  0  0  0  0  0  0  0  0
   -5.1888   -0.1149   10.3109 H   0  0  0  0  0  0  0  0  0  0  0  0
    4.7701   -3.6387    3.4014 H   0  0  0  0  0  0  0  0  0  0  0  0
    7.1929   -4.2927    3.1908 H   0  0  0  0  0  0  0  0  0  0  0  0
    9.2630   -5.9267    3.4570 H   0  0  0  0  0  0  0  0  0  0  0  0
   10.9326   -5.4766    3.9908 H   0  0  0  0  0  0  0  0  0  0  0  0
    9.5332   -3.0086    3.2625 H   0  0  0  0  0  0  0  0  0  0  0  0
    9.2542   -4.2333    1.9544 H   0  0  0  0  0  0  0  0  0  0  0  0
   10.9140   -3.8357    2.4587 H   0  0  0  0  0  0  0  0  0  0  0  0
    3.0412   -4.7010    3.5538 H   0  0  0  0  0  0  0  0  0  0  0  0
   -1.3882   -5.3923    2.0880 H   0  0  0  0  0  0  0  0  0  0  0  0
   -2.6145   -6.9069    1.2038 H   0  0  0  0  0  0  0  0  0  0  0  0
   -5.0966   -7.3534    1.4628 H   0  0  0  0  0  0  0  0  0  0  0  0
   -7.1937   -5.5887   -2.6370 H   0  0  0  0  0  0  0  0  0  0  0  0
   -8.9121   -5.4138   -2.0368 H   0  0  0  0  0  0  0  0  0  0  0  0
   -6.5858   -3.6612   -1.0449 H   0  0  0  0  0  0  0  0  0  0  0  0
   -7.4426   -3.2439   -2.5698 H   0  0  0  0  0  0  0  0  0  0  0  0
   -8.3042   -3.2250   -1.0384 H   0  0  0  0  0  0  0  0  0  0  0  0
    2.4654   -4.5328   -4.3007 H   0  0  0  0  0  0  0  0  0  0  0  0
    4.8876   -4.0645   -4.4099 H   0  0  0  0  0  0  0  0  0  0  0  0
    8.1746   -3.0886   -0.1533 H   0  0  0  0  0  0  0  0  0  0  0  0
    6.8528   -4.2642    0.2238 H   0  0  0  0  0  0  0  0  0  0  0  0
    5.8971   -2.3763    1.3230 H   0  0  0  0  0  0  0  0  0  0  0  0
    7.0116   -1.2601    0.4572 H   0  0  0  0  0  0  0  0  0  0  0  0
    5.4599   -1.7914   -0.2927 H   0  0  0  0  0  0  0  0  0  0  0  0
    0.6225   -3.4588   -4.4756 H   0  0  0  0  0  0  0  0  0  0  0  0
   -0.4014   -1.2251   -4.7124 H   0  0  0  0  0  0  0  0  0  0  0  0
    1.1636   -0.0697   -5.6844 H   0  0  0  0  0  0  0  0  0  0  0  0
    2.8344    0.9819   -4.1973 H   0  0  0  0  0  0  0  0  0  0  0  0
    3.0160    5.5666   -4.3981 H   0  0  0  0  0  0  0  0  0  0  0  0
    3.9388    5.7596   -2.8946 H   0  0  0  0  0  0  0  0  0  0  0  0
    5.5974    4.1617   -3.5372 H   0  0  0  0  0  0  0  0  0  0  0  0
    5.1774    4.9604   -5.1234 H   0  0  0  0  0  0  0  0  0  0  0  0
    4.4174    3.3799   -4.6910 H   0  0  0  0  0  0  0  0  0  0  0  0
   -4.5157   -2.4318   -8.3426 H   0  0  0  0  0  0  0  0  0  0  0  0
   -6.0898   -2.8730  -10.1049 H   0  0  0  0  0  0  0  0  0  0  0  0
   -7.4192   -0.8222  -14.3214 H   0  0  0  0  0  0  0  0  0  0  0  0
   -5.8557   -0.2508  -13.6253 H   0  0  0  0  0  0  0  0  0  0  0  0
   -5.5191   -2.3891  -14.5483 H   0  0  0  0  0  0  0  0  0  0  0  0
   -6.8756   -3.1193  -13.6165 H   0  0  0  0  0  0  0  0  0  0  0  0
   -5.3340   -2.4783  -12.7872 H   0  0  0  0  0  0  0  0  0  0  0  0
   -5.0434    2.6264   -8.4720 H   0  0  0  0  0  0  0  0  0  0  0  0
   -6.5807    8.3015   -7.2103 H   0  0  0  0  0  0  0  0  0  0  0  0
   -7.6066    8.2636   -4.6000 H   0  0  0  0  0  0  0  0  0  0  0  0
   -6.4128    8.8933   -3.3949 H   0  0  0  0  0  0  0  0  0  0  0  0
   -6.1550    9.2535   -5.1545 H   0  0  0  0  0  0  0  0  0  0  0  0
   -3.8009    4.1039   -4.9800 H   0  0  0  0  0  0  0  0  0  0  0  0
   -3.6895    6.3520   -3.1308 H   0  0  0  0  0  0  0  0  0  0  0  0
   -4.7879    3.5505   -2.9962 H   0  0  0  0  0  0  0  0  0  0  0  0
   -4.8789    4.0149    2.4947 H   0  0  0  0  0  0  0  0  0  0  0  0
   -3.6075    6.1172    3.8854 H   0  0  0  0  0  0  0  0  0  0  0  0
   -1.8866    5.7786    3.5714 H   0  0  0  0  0  0  0  0  0  0  0  0
   -2.5377    7.4512    3.2306 H   0  0  0  0  0  0  0  0  0  0  0  0
   -2.7242    7.1636   -1.1792 H   0  0  0  0  0  0  0  0  0  0  0  0
   -1.1419    4.8805    0.0132 H   0  0  0  0  0  0  0  0  0  0  0  0
    0.7685    5.5611   -1.0185 H   0  0  0  0  0  0  0  0  0  0  0  0
   -0.0911    6.9732   -1.8964 H   0  0  0  0  0  0  0  0  0  0  0  0
  1  2  1  0
  2  3  1  0
  3  4  2  0
  4  5  1  0
  5  6  1  0
  4  7  1  0
  7  8  1  0
  8  9  1  0
  9 10  2  3
 10 11  1  0
 11 12  2  0
 12 13  1  0
 13 14  2  0
 14 15  1  0
 15 16  2  0
 16 17  1  0
 17 18  2  0
 18 19  1  0
 19 20  1  0
 20 21  1  0
 18 22  1  0
 14 23  1  0
 23 24  2  0
 24 25  1  0
 25 26  1  0
 26 27  2  0
 27 28  1  0
 28 29  2  0
 29 30  1  0
 30 31  1  0
 31 32  1  0
 29 33  1  0
 25 34  2  0
 34 35  1  0
 24 36  1  0
 36 37  2  0
 37 38  1  0
 37 39  1  0
 39 40  2  0
 40 41  1  0
 41 42  2  0
 42 43  1  0
 43 44  2  0
 44 45  1  0
 45 46  2  0
 46 47  1  0
 47 48  1  0
 48 49  1  0
 46 50  1  0
 42 51  1  0
 51 52  2  0
 52 53  1  0
 53 54  1  0
 54 55  2  0
 55 56  1  0
 56 57  2  0
 57 58  1  0
 58 59  1  0
 59 60  1  0
 57 61  1  0
 53 62  2  0
 62 63  1  0
 52 64  1  0
 64 65  2  0
 65 66  1  0
 65 67  1  0
 67 68  2  0
 68 69  1  0
 69 70  2  0
 70 71  1  0
 71 72  2  0
 72 73  1  0
 73 74  2  0
 74 75  1  0
 75 76  1  0
 76 77  1  0
 74 78  1  0
 70 79  1  0
 79 80  2  0
 80 81  1  0
 81 82  1  0
 82 83  2  0
 83 84  1  0
 84 85  2  0
 85 86  1  0
 86 87  1  0
 87 88  1  0
 85 89  1  0
 81 90  2  0
 90 91  1  0
 80 92  1  0
 92 93  2  0
 93 94  1  0
 93 95  1  0
 95 96  1  0
 96 97  1  0
 97 98  2  0
 98 99  1  0
 99100  1  0
 98101  1  0
101102  1  0
102103  1  0
103104  2  3
104105  1  0
105106  1  0
106107  1  0
107108  2  0
108109  1  0
109110  1  0
108111  1  0
111112  1  0
112113  1  0
113114  2  3
  7  1  2  0
 35 11  1  0
 63 39  1  0
 91 67  1  0
101 95  2  0
111105  2  0
 34 13  1  0
 62 41  1  0
 90 69  1  0
 22 15  1  0
 38 23  1  0
 50 43  1  0
 66 51  1  0
 78 71  1  0
 94 79  1  0
 33 26  1  0
 61 54  1  0
 89 82  1  0
  1115  1  0
  3116  1  0
  6117  1  0
  6118  1  0
  6119  1  0
  8120  1  0
  9121  1  0
 10122  1  0
 12123  1  0
 16124  1  0
 17125  1  0
 20126  1  0
 20127  1  0
 21128  1  0
 21129  1  0
 21130  1  0
 27131  1  0
 28132  1  0
 31133  1  0
 31134  1  0
 32135  1  0
 32136  1  0
 32137  1  0
 36138  1  0
 40139  1  0
 44140  1  0
 45141  1  0
 48142  1  0
 48143  1  0
 49144  1  0
 49145  1  0
 49146  1  0
 55147  1  0
 56148  1  0
 59149  1  0
 59150  1  0
 60151  1  0
 60152  1  0
 60153  1  0
 64154  1  0
 68155  1  0
 72156  1  0
 73157  1  0
 76158  1  0
 76159  1  0
 77160  1  0
 77161  1  0
 77162  1  0
 83163  1  0
 84164  1  0
 87165  1  0
 87166  1  0
 88167  1  0
 88168  1  0
 88169  1  0
 92170  1  0
 97171  1  0
100172  1  0
100173  1  0
100174  1  0
102175  1  0
103176  1  0
104177  1  0
107178  1  0
110179  1  0
110180  1  0
110181  1  0
112182  1  0
113183  1  0
114184  1  0
114185  1  0
M  END

