
     RDKit          3D

162179  0  0  0  0  0  0  0  0999 V2000
   -1.3199    0.5733   12.6057 C   0  0  0  0  0  0  0  0  0  0  0  0
   -0.1155    0.4269   11.9527 C   0  0  0  0  0  0  0  0  0  0  0  0
   -0.1204   -0.2696   10.8019 C   0  0  0  0  0  0  0  0  0  0  0  0
    0.9755   -0.5300    9.9614 C   0  0  0  0  0  0  0  0  0  0  0  0
    2.3411   -0.1436   10.2191 C   0  0  0  0  0  0  0  0  0  0  0  0
    3.1089    0.3231   11.1873 C   0  0  0  0  0  0  0  0  0  0  0  0
    4.3762    0.7017   11.0383 C   0  0  0  0  0  0  0  0  0  0  0  0
    5.0444    0.6540    9.8772 C   0  0  0  0  0  0  0  0  0  0  0  0
    6.6557    1.0901    9.3105 S   0  0  0  0  0  0  0  0  0  0  0  0
    6.5906    2.7717    8.6277 C   0  0  0  0  0  0  0  0  0  0  0  0
    6.3033    3.7995    9.6950 C   0  0  0  0  0  0  0  0  0  0  0  0
    3.6325   -0.0671    8.7141 Se  0  0  0  0  0  2  0  0  0  0  0  0
    0.7429   -1.2629    8.7846 C   0  0  0  0  0  0  0  0  0  0  0  0
   -0.4344   -1.7508    8.3703 C   0  0  0  0  0  0  0  0  0  0  0  0
   -1.5355   -1.5008    9.2146 C   0  0  0  0  0  0  0  0  0  0  0  0
   -2.8468   -2.0538    9.0313 C   0  0  0  0  0  0  0  0  0  0  0  0
   -3.4923   -3.0418    8.4384 C   0  0  0  0  0  0  0  0  0  0  0  0
   -4.8130   -3.1558    8.3636 C   0  0  0  0  0  0  0  0  0  0  0  0
   -5.6771   -2.2741    8.8829 C   0  0  0  0  0  0  0  0  0  0  0  0
   -7.4289   -2.1697    8.9551 S   0  0  0  0  0  0  0  0  0  0  0  0
   -8.0297   -1.4851    7.3784 C   0  0  0  0  0  0  0  0  0  0  0  0
   -7.6449   -0.0558    7.1602 C   0  0  0  0  0  0  0  0  0  0  0  0
   -4.4325   -0.9740    9.6681 Se  0  0  0  0  0  2  0  0  0  0  0  0
   -1.3120   -0.7696   10.3852 C   0  0  0  0  0  0  0  0  0  0  0  0
   -2.4063   -0.2563   11.6050 S   0  0  0  0  0  0  0  0  0  0  0  0
   -0.4828   -2.3716    7.1589 C   0  0  0  0  0  0  0  0  0  0  0  0
    0.6956   -2.4368    6.4661 C   0  0  0  0  0  0  0  0  0  0  0  0
    1.8004   -1.6716    7.4841 S   0  0  0  0  0  0  0  0  0  0  0  0
    0.8187   -2.8955    5.0625 C   0  0  0  0  0  0  0  0  0  0  0  0
    1.9220   -2.8864    4.2688 C   0  0  0  0  0  0  0  0  0  0  0  0
    1.7888   -3.1905    2.9602 C   0  0  0  0  0  0  0  0  0  0  0  0
    2.7448   -3.1343    1.9330 C   0  0  0  0  0  0  0  0  0  0  0  0
    4.1444   -2.9549    2.1952 C   0  0  0  0  0  0  0  0  0  0  0  0
    5.2424   -2.6700    1.4906 C   0  0  0  0  0  0  0  0  0  0  0  0
    6.4775   -2.6602    1.9831 C   0  0  0  0  0  0  0  0  0  0  0  0
    6.7418   -2.9448    3.2790 C   0  0  0  0  0  0  0  0  0  0  0  0
    8.2472   -3.0104    4.2167 S   0  0  0  0  0  0  0  0  0  0  0  0
    8.5046   -1.4179    5.0473 C   0  0  0  0  0  0  0  0  0  0  0  0
    7.4716   -1.2216    6.1531 C   0  0  0  0  0  0  0  0  0  0  0  0
    4.9743   -3.2848    3.9193 Se  0  0  0  0  0  2  0  0  0  0  0  0
    2.3721   -3.3493    0.6242 C   0  0  0  0  0  0  0  0  0  0  0  0
    1.0978   -3.6308    0.2014 C   0  0  0  0  0  0  0  0  0  0  0  0
    0.1283   -3.7140    1.2322 C   0  0  0  0  0  0  0  0  0  0  0  0
   -1.2118   -4.1846    1.0274 C   0  0  0  0  0  0  0  0  0  0  0  0
   -2.3850   -4.2487    1.6549 C   0  0  0  0  0  0  0  0  0  0  0  0
   -3.4452   -4.9028    1.1861 C   0  0  0  0  0  0  0  0  0  0  0  0
   -3.5025   -5.5745    0.0506 C   0  0  0  0  0  0  0  0  0  0  0  0
   -4.6460   -6.5448   -0.8597 S   0  0  0  0  0  0  0  0  0  0  0  0
   -4.3649   -8.2876   -0.5286 C   0  0  0  0  0  0  0  0  0  0  0  0
   -4.7133   -8.6979    0.8860 C   0  0  0  0  0  0  0  0  0  0  0  0
   -1.6605   -5.2711   -0.5843 Se  0  0  0  0  0  2  0  0  0  0  0  0
    0.5243   -3.4878    2.5359 C   0  0  0  0  0  0  0  0  0  0  0  0
   -0.4221   -3.3429    3.9760 S   0  0  0  0  0  0  0  0  0  0  0  0
    0.8947   -3.6752   -1.1278 C   0  0  0  0  0  0  0  0  0  0  0  0
    1.9520   -3.4433   -1.9550 C   0  0  0  0  0  0  0  0  0  0  0  0
    3.2237   -3.1766   -0.8618 S   0  0  0  0  0  0  0  0  0  0  0  0
    1.9066   -3.1379   -3.3981 C   0  0  0  0  0  0  0  0  0  0  0  0
    0.5161   -2.5605   -4.1604 S   0  0  0  0  0  0  0  0  0  0  0  0
    1.2142   -2.1994   -5.7372 C   0  0  0  0  0  0  0  0  0  0  0  0
    2.5416   -2.5881   -5.5665 C   0  0  0  0  0  0  0  0  0  0  0  0
    2.8446   -3.0657   -4.3349 C   0  0  0  0  0  0  0  0  0  0  0  0
    4.5244   -3.4705   -4.4241 S   0  0  0  0  0  0  0  0  0  0  0  0
    4.8165   -3.0289   -6.0403 C   0  0  0  0  0  0  0  0  0  0  0  0
    6.1051   -3.0881   -6.7891 C   0  0  0  0  0  0  0  0  0  0  0  0
    6.1522   -2.7283   -7.9648 O   0  0  0  0  0  0  0  0  0  0  0  0
    7.2857   -3.5877   -6.0518 C   0  0  0  0  0  0  0  0  0  0  0  0
    8.4194   -2.5900   -6.0821 C   0  0  0  0  0  0  0  0  0  0  0  0
    3.5977   -2.5809   -6.4533 C   0  0  0  0  0  0  0  0  0  0  0  0
    3.5244   -2.2131   -7.7978 F   0  0  0  0  0  0  0  0  0  0  0  0
    0.4435   -1.3742   -6.6871 C   0  0  0  0  0  0  0  0  0  0  0  0
   -1.2391   -1.3566   -6.8287 S   0  0  0  0  0  0  0  0  0  0  0  0
   -1.4209    0.1063   -7.7433 C   0  0  0  0  0  0  0  0  0  0  0  0
   -0.0906    0.5382   -7.9233 C   0  0  0  0  0  0  0  0  0  0  0  0
    0.8211   -0.2553   -7.3625 C   0  0  0  0  0  0  0  0  0  0  0  0
    2.3260    0.5321   -7.7129 S   0  0  0  0  0  0  0  0  0  0  0  0
    1.7456    1.8636   -8.5805 C   0  0  0  0  0  0  0  0  0  0  0  0
    2.5106    2.9918   -9.1790 C   0  0  0  0  0  0  0  0  0  0  0  0
    1.9291    3.8962   -9.7835 O   0  0  0  0  0  0  0  0  0  0  0  0
    3.9937    3.0071   -9.0412 C   0  0  0  0  0  0  0  0  0  0  0  0
    4.4182    3.8920   -7.8871 C   0  0  0  0  0  0  0  0  0  0  0  0
    0.3911    1.6643   -8.5758 C   0  0  0  0  0  0  0  0  0  0  0  0
   -0.3694    2.6165   -9.2671 F   0  0  0  0  0  0  0  0  0  0  0  0
   -2.6754    0.8228   -7.9385 C   0  0  0  0  0  0  0  0  0  0  0  0
   -2.8180    2.5063   -8.0092 S   0  0  0  0  0  0  0  0  0  0  0  0
   -4.5332    2.6070   -8.1261 C   0  0  0  0  0  0  0  0  0  0  0  0
   -4.9483    1.2689   -8.1125 C   0  0  0  0  0  0  0  0  0  0  0  0
   -3.9482    0.3789   -8.0152 C   0  0  0  0  0  0  0  0  0  0  0  0
   -4.7576   -1.1580   -8.0079 S   0  0  0  0  0  0  0  0  0  0  0  0
   -6.3620   -0.6223   -8.1319 C   0  0  0  0  0  0  0  0  0  0  0  0
   -7.6131   -1.4124   -8.1543 C   0  0  0  0  0  0  0  0  0  0  0  0
   -8.7278   -0.9095   -8.2508 O   0  0  0  0  0  0  0  0  0  0  0  0
   -7.4770   -2.9031   -8.0481 C   0  0  0  0  0  0  0  0  0  0  0  0
   -7.9035   -3.3829   -6.6775 C   0  0  0  0  0  0  0  0  0  0  0  0
   -6.2254    0.7350   -8.1745 C   0  0  0  0  0  0  0  0  0  0  0  0
   -7.4135    1.4696   -8.2604 F   0  0  0  0  0  0  0  0  0  0  0  0
   -5.2629    3.8829   -8.2467 C   0  0  0  0  0  0  0  0  0  0  0  0
   -6.7452    4.2536   -8.9339 S   0  0  0  0  0  0  0  0  0  0  0  0
   -6.8577    5.8948   -8.4868 C   0  0  0  0  0  0  0  0  0  0  0  0
   -5.6618    6.1303   -7.7649 C   0  0  0  0  0  0  0  0  0  0  0  0
   -4.8645    5.0861   -7.6564 C   0  0  0  0  0  0  0  0  0  0  0  0
   -3.5543    5.6263   -6.6996 S   0  0  0  0  0  0  0  0  0  0  0  0
   -4.0566    7.2395   -6.4374 C   0  0  0  0  0  0  0  0  0  0  0  0
   -3.3904    8.2672   -5.6024 C   0  0  0  0  0  0  0  0  0  0  0  0
   -2.3717    7.8548   -4.9657 O   0  0  0  0  0  0  0  0  0  0  0  0
   -3.8397    9.6606   -5.4914 C   0  0  0  0  0  0  0  0  0  0  0  0
   -3.3118   10.3097   -4.2085 C   0  0  0  0  0  0  0  0  0  0  0  0
   -5.2443    7.3007   -7.1213 C   0  0  0  0  0  0  0  0  0  0  0  0
   -5.9164    8.5046   -7.1024 F   0  0  0  0  0  0  0  0  0  0  0  0
   -1.4908    1.1170   13.5556 H   0  0  0  0  0  0  0  0  0  0  0  0
    0.7570    0.9355   12.4206 H   0  0  0  0  0  0  0  0  0  0  0  0
    2.6653    0.3472   12.2426 H   0  0  0  0  0  0  0  0  0  0  0  0
    4.9805    1.1018   11.9331 H   0  0  0  0  0  0  0  0  0  0  0  0
    7.4922    3.0715    8.0876 H   0  0  0  0  0  0  0  0  0  0  0  0
    5.7541    2.8527    7.8851 H   0  0  0  0  0  0  0  0  0  0  0  0
    7.1616    3.8045   10.4099 H   0  0  0  0  0  0  0  0  0  0  0  0
    5.3824    3.6135   10.2372 H   0  0  0  0  0  0  0  0  0  0  0  0
    6.2928    4.8157    9.2400 H   0  0  0  0  0  0  0  0  0  0  0  0
   -2.8209   -3.8882    8.0017 H   0  0  0  0  0  0  0  0  0  0  0  0
   -5.2839   -4.0543    7.8186 H   0  0  0  0  0  0  0  0  0  0  0  0
   -7.5504   -2.0728    6.5615 H   0  0  0  0  0  0  0  0  0  0  0  0
   -9.1560   -1.6161    7.3205 H   0  0  0  0  0  0  0  0  0  0  0  0
   -6.6411    0.0801    6.7402 H   0  0  0  0  0  0  0  0  0  0  0  0
   -8.3390    0.3663    6.3711 H   0  0  0  0  0  0  0  0  0  0  0  0
   -7.7578    0.6018    8.0192 H   0  0  0  0  0  0  0  0  0  0  0  0
   -1.4236   -2.7805    6.7120 H   0  0  0  0  0  0  0  0  0  0  0  0
    2.8887   -2.6043    4.7522 H   0  0  0  0  0  0  0  0  0  0  0  0
    5.1357   -2.4050    0.3707 H   0  0  0  0  0  0  0  0  0  0  0  0
    7.4015   -2.4117    1.3468 H   0  0  0  0  0  0  0  0  0  0  0  0
    9.5247   -1.3219    5.4427 H   0  0  0  0  0  0  0  0  0  0  0  0
    8.3467   -0.6117    4.2727 H   0  0  0  0  0  0  0  0  0  0  0  0
    7.9921   -1.4103    7.1403 H   0  0  0  0  0  0  0  0  0  0  0  0
    7.1411   -0.1507    6.1897 H   0  0  0  0  0  0  0  0  0  0  0  0
    6.6524   -1.9370    6.1127 H   0  0  0  0  0  0  0  0  0  0  0  0
   -2.4534   -3.6779    2.6569 H   0  0  0  0  0  0  0  0  0  0  0  0
   -4.4162   -4.8963    1.8118 H   0  0  0  0  0  0  0  0  0  0  0  0
   -4.9680   -8.9513   -1.1897 H   0  0  0  0  0  0  0  0  0  0  0  0
   -3.3003   -8.5798   -0.6989 H   0  0  0  0  0  0  0  0  0  0  0  0
   -5.6791   -8.3049    1.2297 H   0  0  0  0  0  0  0  0  0  0  0  0
   -4.7328   -9.8238    0.9145 H   0  0  0  0  0  0  0  0  0  0  0  0
   -3.8567   -8.4273    1.5445 H   0  0  0  0  0  0  0  0  0  0  0  0
   -0.0919   -3.8640   -1.6063 H   0  0  0  0  0  0  0  0  0  0  0  0
    7.6609   -4.4641   -6.6680 H   0  0  0  0  0  0  0  0  0  0  0  0
    7.0663   -4.0166   -5.0745 H   0  0  0  0  0  0  0  0  0  0  0  0
    8.4185   -2.0910   -7.0714 H   0  0  0  0  0  0  0  0  0  0  0  0
    9.4036   -3.1321   -5.9886 H   0  0  0  0  0  0  0  0  0  0  0  0
    8.3140   -1.8089   -5.3323 H   0  0  0  0  0  0  0  0  0  0  0  0
    4.3266    1.9855   -8.8088 H   0  0  0  0  0  0  0  0  0  0  0  0
    4.4023    3.4319   -9.9615 H   0  0  0  0  0  0  0  0  0  0  0  0
    4.4863    4.9789   -8.1939 H   0  0  0  0  0  0  0  0  0  0  0  0
    5.4094    3.6375   -7.4629 H   0  0  0  0  0  0  0  0  0  0  0  0
    3.6683    3.8275   -7.0813 H   0  0  0  0  0  0  0  0  0  0  0  0
   -6.4284   -3.1653   -8.2138 H   0  0  0  0  0  0  0  0  0  0  0  0
   -8.1546   -3.4133   -8.7887 H   0  0  0  0  0  0  0  0  0  0  0  0
   -7.7564   -2.6066   -5.9069 H   0  0  0  0  0  0  0  0  0  0  0  0
   -7.4315   -4.3269   -6.4235 H   0  0  0  0  0  0  0  0  0  0  0  0
   -9.0262   -3.5627   -6.7210 H   0  0  0  0  0  0  0  0  0  0  0  0
   -7.6898    6.5381   -8.7291 H   0  0  0  0  0  0  0  0  0  0  0  0
   -4.8533    9.9057   -5.7229 H   0  0  0  0  0  0  0  0  0  0  0  0
   -3.2351   10.2212   -6.3000 H   0  0  0  0  0  0  0  0  0  0  0  0
   -3.3109    9.5394   -3.3984 H   0  0  0  0  0  0  0  0  0  0  0  0
   -4.0634   11.0896   -3.9249 H   0  0  0  0  0  0  0  0  0  0  0  0
   -2.3056   10.7249   -4.3745 H   0  0  0  0  0  0  0  0  0  0  0  0
  1  2  2  0
  2  3  1  0
  3  4  2  0
  4  5  1  0
  5  6  2  0
  6  7  1  0
  7  8  2  0
  8  9  1  0
  9 10  1  0
 10 11  1  0
  8 12  1  0
  4 13  1  0
 13 14  2  0
 14 15  1  0
 15 16  1  0
 16 17  2  0
 17 18  1  0
 18 19  2  0
 19 20  1  0
 20 21  1  0
 21 22  1  0
 19 23  1  0
 15 24  2  0
 24 25  1  0
 14 26  1  0
 26 27  2  0
 27 28  1  0
 27 29  1  0
 29 30  2  0
 30 31  1  0
 31 32  2  0
 32 33  1  0
 33 34  2  0
 34 35  1  0
 35 36  2  0
 36 37  1  0
 37 38  1  0
 38 39  1  0
 36 40  1  0
 32 41  1  0
 41 42  2  0
 42 43  1  0
 43 44  1  0
 44 45  2  0
 45 46  1  0
 46 47  2  0
 47 48  1  0
 48 49  1  0
 49 50  1  0
 47 51  1  0
 43 52  2  0
 52 53  1  0
 42 54  1  0
 54 55  2  0
 55 56  1  0
 55 57  1  0
 57 58  1  0
 58 59  1  0
 59 60  2  0
 60 61  1  0
 61 62  1  0
 62 63  1  0
 63 64  1  0
 64 65  2  0
 64 66  1  0
 66 67  1  0
 63 68  2  0
 68 69  1  0
 59 70  1  0
 70 71  1  0
 71 72  1  0
 72 73  2  0
 73 74  1  0
 74 75  1  0
 75 76  1  0
 76 77  1  0
 77 78  2  0
 77 79  1  0
 79 80  1  0
 76 81  2  0
 81 82  1  0
 72 83  1  0
 83 84  1  0
 84 85  1  0
 85 86  2  0
 86 87  1  0
 87 88  1  0
 88 89  1  0
 89 90  1  0
 90 91  2  0
 90 92  1  0
 92 93  1  0
 89 94  2  0
 94 95  1  0
 85 96  1  0
 96 97  1  0
 97 98  1  0
 98 99  2  0
 99100  1  0
100101  1  0
101102  1  0
102103  1  0
103104  2  0
103105  1  0
105106  1  0
102107  2  0
107108  1  0
 25  1  1  0
 53 29  1  0
 61 57  2  0
 74 70  2  0
 87 83  2  0
100 96  2  0
 24  3  1  0
 52 31  1  0
 68 60  1  0
 81 73  1  0
 94 86  1  0
107 99  1  0
 12  5  1  0
 28 13  1  0
 40 33  1  0
 56 41  1  0
 23 16  1  0
 51 44  1  0
  1109  1  0
  2110  1  0
  6111  1  0
  7112  1  0
 10113  1  0
 10114  1  0
 11115  1  0
 11116  1  0
 11117  1  0
 17118  1  0
 18119  1  0
 21120  1  0
 21121  1  0
 22122  1  0
 22123  1  0
 22124  1  0
 26125  1  0
 30126  1  0
 34127  1  0
 35128  1  0
 38129  1  0
 38130  1  0
 39131  1  0
 39132  1  0
 39133  1  0
 45134  1  0
 46135  1  0
 49136  1  0
 49137  1  0
 50138  1  0
 50139  1  0
 50140  1  0
 54141  1  0
 66142  1  0
 66143  1  0
 67144  1  0
 67145  1  0
 67146  1  0
 79147  1  0
 79148  1  0
 80149  1  0
 80150  1  0
 80151  1  0
 92152  1  0
 92153  1  0
 93154  1  0
 93155  1  0
 93156  1  0
 98157  1  0
105158  1  0
105159  1  0
106160  1  0
106161  1  0
106162  1  0
M  END

