
     RDKit          3D

252277  0  0  0  0  0  0  0  0999 V2000
   -2.3568   -2.4388    9.2101 C   0  0  0  0  0  0  0  0  0  0  0  0
   -1.9058   -1.8817    8.0178 C   0  0  0  0  0  0  0  0  0  0  0  0
   -2.6441   -2.2950    6.8974 C   0  0  0  0  0  0  0  0  0  0  0  0
   -2.4379   -1.8916    5.5610 C   0  0  0  0  0  0  0  0  0  0  0  0
   -1.2910   -1.0433    5.1642 C   0  0  0  0  0  0  0  0  0  0  0  0
    0.0221   -1.4915    5.3750 C   0  0  0  0  0  0  0  0  0  0  0  0
    1.1099   -0.7205    4.9545 C   0  0  0  0  0  0  0  0  0  0  0  0
    0.8969    0.5129    4.3262 C   0  0  0  0  0  0  0  0  0  0  0  0
    2.3073    1.4682    3.7426 S   0  0  0  0  0  0  0  0  0  0  0  0
    2.6695    2.2573    5.3526 C   0  0  0  0  0  0  0  0  0  0  0  0
    1.7739    3.4687    5.5795 C   0  0  0  0  0  0  0  0  0  0  0  0
   -0.4120    0.9694    4.1177 C   0  0  0  0  0  0  0  0  0  0  0  0
   -0.6361    2.1517    3.4893 F   0  0  0  0  0  0  0  0  0  0  0  0
   -1.5016    0.1956    4.5368 C   0  0  0  0  0  0  0  0  0  0  0  0
   -3.3341   -2.4000    4.6007 C   0  0  0  0  0  0  0  0  0  0  0  0
   -4.3636   -3.2909    4.9240 C   0  0  0  0  0  0  0  0  0  0  0  0
   -4.5628   -3.7028    6.2574 C   0  0  0  0  0  0  0  0  0  0  0  0
   -5.6257   -4.6614    6.6293 C   0  0  0  0  0  0  0  0  0  0  0  0
   -6.9725   -4.3629    6.3726 C   0  0  0  0  0  0  0  0  0  0  0  0
   -7.9699   -5.2946    6.6738 C   0  0  0  0  0  0  0  0  0  0  0  0
   -7.6336   -6.5251    7.2455 C   0  0  0  0  0  0  0  0  0  0  0  0
   -8.9235   -7.7200    7.5988 S   0  0  0  0  0  0  0  0  0  0  0  0
   -9.2215   -7.0718    9.2754 C   0  0  0  0  0  0  0  0  0  0  0  0
  -10.3523   -7.8438    9.9366 C   0  0  0  0  0  0  0  0  0  0  0  0
   -6.2930   -6.8217    7.5214 C   0  0  0  0  0  0  0  0  0  0  0  0
   -5.2922   -5.8936    7.2138 C   0  0  0  0  0  0  0  0  0  0  0  0
   -5.9539   -8.0117    8.0803 F   0  0  0  0  0  0  0  0  0  0  0  0
   -3.6823   -3.1768    7.2212 C   0  0  0  0  0  0  0  0  0  0  0  0
   -3.6768   -3.4383    8.8823 S   0  0  0  0  0  0  0  0  0  0  0  0
   -5.0929   -3.7183    3.8014 C   0  0  0  0  0  0  0  0  0  0  0  0
   -4.6345   -3.1573    2.6154 C   0  0  0  0  0  0  0  0  0  0  0  0
   -3.3374   -2.1312    2.9401 S   0  0  0  0  0  0  0  0  0  0  0  0
   -5.2182   -3.3600    1.2848 C   0  0  0  0  0  0  0  0  0  0  0  0
   -5.6684   -2.0950    0.2799 S   0  0  0  0  0  0  0  0  0  0  0  0
   -6.0841   -3.0353   -1.0491 C   0  0  0  0  0  0  0  0  0  0  0  0
   -5.8287   -4.3729   -0.7336 C   0  0  0  0  0  0  0  0  0  0  0  0
   -5.3486   -4.5582    0.5752 C   0  0  0  0  0  0  0  0  0  0  0  0
   -4.9268   -5.8999    1.0315 C   0  0  0  0  0  0  0  0  0  0  0  0
   -4.4396   -6.0624    2.1837 O   0  0  0  0  0  0  0  0  0  0  0  0
   -5.0517   -7.0567    0.1073 C   0  0  0  0  0  0  0  0  0  0  0  0
   -4.6519   -8.3406    0.5132 C   0  0  0  0  0  0  0  0  0  0  0  0
   -4.7575   -9.4259   -0.3582 C   0  0  0  0  0  0  0  0  0  0  0  0
   -5.2684   -9.2505   -1.6520 C   0  0  0  0  0  0  0  0  0  0  0  0
   -5.3604  -10.4179   -2.5972 C   0  0  0  0  0  0  0  0  0  0  0  0
   -4.0761  -10.5571   -3.4070 C   0  0  0  0  0  0  0  0  0  0  0  0
   -5.6555   -7.9693   -2.0725 C   0  0  0  0  0  0  0  0  0  0  0  0
   -5.5575   -6.8679   -1.2032 C   0  0  0  0  0  0  0  0  0  0  0  0
   -5.9811   -5.5193   -1.6515 C   0  0  0  0  0  0  0  0  0  0  0  0
   -6.4834   -5.3606   -2.7981 O   0  0  0  0  0  0  0  0  0  0  0  0
   -6.2548   -2.4632   -2.3897 C   0  0  0  0  0  0  0  0  0  0  0  0
   -5.0541   -2.5623   -3.5496 S   0  0  0  0  0  0  0  0  0  0  0  0
   -5.5671   -1.2954   -4.5293 C   0  0  0  0  0  0  0  0  0  0  0  0
   -6.7323   -0.7696   -3.9467 C   0  0  0  0  0  0  0  0  0  0  0  0
   -7.0960   -1.4074   -2.7443 C   0  0  0  0  0  0  0  0  0  0  0  0
   -8.2404   -0.9210   -1.9454 C   0  0  0  0  0  0  0  0  0  0  0  0
   -8.6197   -1.5542   -0.9231 O   0  0  0  0  0  0  0  0  0  0  0  0
   -8.9449    0.3128   -2.3665 C   0  0  0  0  0  0  0  0  0  0  0  0
   -9.9599    0.8642   -1.5683 C   0  0  0  0  0  0  0  0  0  0  0  0
  -10.6099    2.0360   -1.9578 C   0  0  0  0  0  0  0  0  0  0  0  0
  -10.2546    2.6812   -3.1505 C   0  0  0  0  0  0  0  0  0  0  0  0
  -10.9750    3.9330   -3.5726 C   0  0  0  0  0  0  0  0  0  0  0  0
  -12.2345    3.5875   -4.3569 C   0  0  0  0  0  0  0  0  0  0  0  0
   -9.2614    2.1216   -3.9705 C   0  0  0  0  0  0  0  0  0  0  0  0
   -8.5994    0.9434   -3.5865 C   0  0  0  0  0  0  0  0  0  0  0  0
   -7.5511    0.3542   -4.4589 C   0  0  0  0  0  0  0  0  0  0  0  0
   -7.4063    0.7635   -5.6415 O   0  0  0  0  0  0  0  0  0  0  0  0
   -4.6360   -0.6319   -5.4646 C   0  0  0  0  0  0  0  0  0  0  0  0
   -3.4472   -1.2260   -5.9039 C   0  0  0  0  0  0  0  0  0  0  0  0
   -2.4606   -0.2989   -6.2733 C   0  0  0  0  0  0  0  0  0  0  0  0
   -1.1078   -0.5990   -6.5409 C   0  0  0  0  0  0  0  0  0  0  0  0
   -0.5856   -1.9777   -6.4618 C   0  0  0  0  0  0  0  0  0  0  0  0
   -0.4983   -2.6263   -5.2198 C   0  0  0  0  0  0  0  0  0  0  0  0
    0.0295   -3.9179   -5.1346 C   0  0  0  0  0  0  0  0  0  0  0  0
    0.4733   -4.5728   -6.2897 C   0  0  0  0  0  0  0  0  0  0  0  0
    1.1197   -6.2450   -6.1719 S   0  0  0  0  0  0  0  0  0  0  0  0
    2.8277   -5.7458   -5.7487 C   0  0  0  0  0  0  0  0  0  0  0  0
    3.6256   -5.4179   -7.0031 C   0  0  0  0  0  0  0  0  0  0  0  0
    0.3785   -3.9314   -7.5344 C   0  0  0  0  0  0  0  0  0  0  0  0
    0.7756   -4.5643   -8.6654 F   0  0  0  0  0  0  0  0  0  0  0  0
   -0.1362   -2.6332   -7.6171 C   0  0  0  0  0  0  0  0  0  0  0  0
   -0.2269    0.4908   -6.6466 C   0  0  0  0  0  0  0  0  0  0  0  0
   -0.6508    1.8181   -6.5170 C   0  0  0  0  0  0  0  0  0  0  0  0
   -2.0140    2.1206   -6.3288 C   0  0  0  0  0  0  0  0  0  0  0  0
   -2.4906    3.5139   -6.1825 C   0  0  0  0  0  0  0  0  0  0  0  0
   -3.0601    3.9578   -4.9783 C   0  0  0  0  0  0  0  0  0  0  0  0
   -3.5309    5.2695   -4.8638 C   0  0  0  0  0  0  0  0  0  0  0  0
   -3.4412    6.1456   -5.9518 C   0  0  0  0  0  0  0  0  0  0  0  0
   -4.0295    7.8358   -5.7885 S   0  0  0  0  0  0  0  0  0  0  0  0
   -5.7268    7.4941   -6.3837 C   0  0  0  0  0  0  0  0  0  0  0  0
   -6.6258    7.0468   -5.2365 C   0  0  0  0  0  0  0  0  0  0  0  0
   -2.8461    5.7152   -7.1459 C   0  0  0  0  0  0  0  0  0  0  0  0
   -2.3694    4.4062   -7.2562 C   0  0  0  0  0  0  0  0  0  0  0  0
   -2.7229    6.5626   -8.1959 F   0  0  0  0  0  0  0  0  0  0  0  0
   -2.8893    1.0286   -6.1821 C   0  0  0  0  0  0  0  0  0  0  0  0
   -4.4636    1.0421   -5.6021 S   0  0  0  0  0  0  0  0  0  0  0  0
    0.4074    2.7207   -6.3290 C   0  0  0  0  0  0  0  0  0  0  0  0
    1.6568    2.1008   -6.2664 C   0  0  0  0  0  0  0  0  0  0  0  0
    1.4471    0.4456   -6.5200 S   0  0  0  0  0  0  0  0  0  0  0  0
    2.7752    2.6179   -5.4667 C   0  0  0  0  0  0  0  0  0  0  0  0
    2.5796    3.3273   -4.2812 C   0  0  0  0  0  0  0  0  0  0  0  0
    3.6634    3.2467   -3.3917 C   0  0  0  0  0  0  0  0  0  0  0  0
    3.6559    3.6718   -2.0424 C   0  0  0  0  0  0  0  0  0  0  0  0
    2.4989    4.4126   -1.4861 C   0  0  0  0  0  0  0  0  0  0  0  0
    2.0865    5.6135   -2.0870 C   0  0  0  0  0  0  0  0  0  0  0  0
    0.9214    6.2547   -1.6594 C   0  0  0  0  0  0  0  0  0  0  0  0
    0.1706    5.7183   -0.6093 C   0  0  0  0  0  0  0  0  0  0  0  0
   -1.3403    6.5366   -0.0940 S   0  0  0  0  0  0  0  0  0  0  0  0
   -0.5147    7.7467    1.0028 C   0  0  0  0  0  0  0  0  0  0  0  0
   -0.9909    9.1511    0.6611 C   0  0  0  0  0  0  0  0  0  0  0  0
    0.5892    4.5362    0.0172 C   0  0  0  0  0  0  0  0  0  0  0  0
   -0.1346    4.0055    1.0341 F   0  0  0  0  0  0  0  0  0  0  0  0
    1.7440    3.8817   -0.4259 C   0  0  0  0  0  0  0  0  0  0  0  0
    4.7392    3.2524   -1.2434 C   0  0  0  0  0  0  0  0  0  0  0  0
    5.8012    2.5075   -1.7640 C   0  0  0  0  0  0  0  0  0  0  0  0
    5.8360    2.1379   -3.1203 C   0  0  0  0  0  0  0  0  0  0  0  0
    6.9122    1.2809   -3.6550 C   0  0  0  0  0  0  0  0  0  0  0  0
    6.6527   -0.0531   -4.0015 C   0  0  0  0  0  0  0  0  0  0  0  0
    7.6878   -0.8776   -4.4458 C   0  0  0  0  0  0  0  0  0  0  0  0
    8.9899   -0.3786   -4.5481 C   0  0  0  0  0  0  0  0  0  0  0  0
   10.3138   -1.4507   -5.1185 S   0  0  0  0  0  0  0  0  0  0  0  0
   10.2240   -0.9026   -6.8617 C   0  0  0  0  0  0  0  0  0  0  0  0
    9.0873   -1.6020   -7.5974 C   0  0  0  0  0  0  0  0  0  0  0  0
    9.2580    0.9477   -4.1861 C   0  0  0  0  0  0  0  0  0  0  0  0
    8.2230    1.7733   -3.7439 C   0  0  0  0  0  0  0  0  0  0  0  0
   10.5208    1.4399   -4.2628 F   0  0  0  0  0  0  0  0  0  0  0  0
    4.7300    2.4991   -3.9036 C   0  0  0  0  0  0  0  0  0  0  0  0
    4.3138    1.9222   -5.4302 S   0  0  0  0  0  0  0  0  0  0  0  0
    6.6890    2.0447   -0.7865 C   0  0  0  0  0  0  0  0  0  0  0  0
    6.3046    2.3863    0.5070 C   0  0  0  0  0  0  0  0  0  0  0  0
    4.9040    3.3279    0.4356 S   0  0  0  0  0  0  0  0  0  0  0  0
    6.8307    1.7310    1.7109 C   0  0  0  0  0  0  0  0  0  0  0  0
    7.4693    0.4944    1.6942 C   0  0  0  0  0  0  0  0  0  0  0  0
    7.7694    0.0069    2.9708 C   0  0  0  0  0  0  0  0  0  0  0  0
    8.3564   -1.2435    3.2577 C   0  0  0  0  0  0  0  0  0  0  0  0
    8.7433   -2.1833    2.1799 C   0  0  0  0  0  0  0  0  0  0  0  0
    8.1212   -3.4373    2.0833 C   0  0  0  0  0  0  0  0  0  0  0  0
    8.3763   -4.2698    0.9915 C   0  0  0  0  0  0  0  0  0  0  0  0
    9.2556   -3.8596   -0.0169 C   0  0  0  0  0  0  0  0  0  0  0  0
    9.5265   -4.9150   -1.4437 S   0  0  0  0  0  0  0  0  0  0  0  0
    8.2085   -4.1297   -2.4329 C   0  0  0  0  0  0  0  0  0  0  0  0
    8.0912   -4.8046   -3.7931 C   0  0  0  0  0  0  0  0  0  0  0  0
    9.9099   -2.6253    0.0897 C   0  0  0  0  0  0  0  0  0  0  0  0
   10.7535   -2.2063   -0.8879 F   0  0  0  0  0  0  0  0  0  0  0  0
    9.6554   -1.7917    1.1854 C   0  0  0  0  0  0  0  0  0  0  0  0
    8.5071   -1.5710    4.6158 C   0  0  0  0  0  0  0  0  0  0  0  0
    8.1100   -0.7131    5.6476 C   0  0  0  0  0  0  0  0  0  0  0  0
    7.5192    0.5390    5.3577 C   0  0  0  0  0  0  0  0  0  0  0  0
    7.0970    1.4754    6.4241 C   0  0  0  0  0  0  0  0  0  0  0  0
    6.1392    1.0857    7.3711 C   0  0  0  0  0  0  0  0  0  0  0  0
    5.7660    1.9578    8.3959 C   0  0  0  0  0  0  0  0  0  0  0  0
    6.3354    3.2331    8.4765 C   0  0  0  0  0  0  0  0  0  0  0  0
    5.8982    4.3170    9.8426 S   0  0  0  0  0  0  0  0  0  0  0  0
    4.4360    5.0527    9.0240 C   0  0  0  0  0  0  0  0  0  0  0  0
    4.8320    6.2678    8.1939 C   0  0  0  0  0  0  0  0  0  0  0  0
    7.2869    3.6315    7.5287 C   0  0  0  0  0  0  0  0  0  0  0  0
    7.6605    2.7590    6.5022 C   0  0  0  0  0  0  0  0  0  0  0  0
    7.8677    4.8544    7.6077 F   0  0  0  0  0  0  0  0  0  0  0  0
    7.3559    0.8626    3.9974 C   0  0  0  0  0  0  0  0  0  0  0  0
    6.6008    2.2126    3.3141 S   0  0  0  0  0  0  0  0  0  0  0  0
    8.3919   -1.2326    6.9256 C   0  0  0  0  0  0  0  0  0  0  0  0
    8.9907   -2.4884    6.8897 C   0  0  0  0  0  0  0  0  0  0  0  0
    9.1896   -2.9566    5.2810 S   0  0  0  0  0  0  0  0  0  0  0  0
   -1.9309   -2.2581   10.1882 H   0  0  0  0  0  0  0  0  0  0  0  0
   -1.0716   -1.1930    7.9772 H   0  0  0  0  0  0  0  0  0  0  0  0
    0.2011   -2.4499    5.8442 H   0  0  0  0  0  0  0  0  0  0  0  0
    2.1155   -1.0875    5.1107 H   0  0  0  0  0  0  0  0  0  0  0  0
    3.7292    2.5892    5.3471 H   0  0  0  0  0  0  0  0  0  0  0  0
    2.5440    1.5308    6.1855 H   0  0  0  0  0  0  0  0  0  0  0  0
    2.0785    3.9853    6.5139 H   0  0  0  0  0  0  0  0  0  0  0  0
    1.8656    4.1820    4.7320 H   0  0  0  0  0  0  0  0  0  0  0  0
    0.7148    3.1541    5.6802 H   0  0  0  0  0  0  0  0  0  0  0  0
   -2.5081    0.5538    4.3632 H   0  0  0  0  0  0  0  0  0  0  0  0
   -7.2486   -3.4164    5.9283 H   0  0  0  0  0  0  0  0  0  0  0  0
   -9.0034   -5.0594    6.4597 H   0  0  0  0  0  0  0  0  0  0  0  0
   -8.2967   -7.1752    9.8845 H   0  0  0  0  0  0  0  0  0  0  0  0
   -9.5001   -5.9967    9.2143 H   0  0  0  0  0  0  0  0  0  0  0  0
  -10.0657   -8.9124   10.0446 H   0  0  0  0  0  0  0  0  0  0  0  0
  -11.2767   -7.7700    9.3240 H   0  0  0  0  0  0  0  0  0  0  0  0
  -10.5526   -7.4213   10.9445 H   0  0  0  0  0  0  0  0  0  0  0  0
   -4.2567   -6.1416    7.4133 H   0  0  0  0  0  0  0  0  0  0  0  0
   -5.9237   -4.4110    3.8396 H   0  0  0  0  0  0  0  0  0  0  0  0
   -4.2561   -8.5080    1.5073 H   0  0  0  0  0  0  0  0  0  0  0  0
   -4.4368  -10.4049   -0.0248 H   0  0  0  0  0  0  0  0  0  0  0  0
   -5.5417  -11.3568   -2.0301 H   0  0  0  0  0  0  0  0  0  0  0  0
   -6.2175  -10.2803   -3.2905 H   0  0  0  0  0  0  0  0  0  0  0  0
   -4.1739  -11.4091   -4.1149 H   0  0  0  0  0  0  0  0  0  0  0  0
   -3.8841   -9.6319   -3.9910 H   0  0  0  0  0  0  0  0  0  0  0  0
   -3.2167  -10.7507   -2.7326 H   0  0  0  0  0  0  0  0  0  0  0  0
   -6.0308   -7.8331   -3.0794 H   0  0  0  0  0  0  0  0  0  0  0  0
  -10.2507    0.3913   -0.6389 H   0  0  0  0  0  0  0  0  0  0  0  0
  -11.3927    2.4391   -1.3293 H   0  0  0  0  0  0  0  0  0  0  0  0
  -11.2558    4.5267   -2.6758 H   0  0  0  0  0  0  0  0  0  0  0  0
  -10.3102    4.5681   -4.1973 H   0  0  0  0  0  0  0  0  0  0  0  0
  -11.9751    3.0017   -5.2644 H   0  0  0  0  0  0  0  0  0  0  0  0
  -12.7444    4.5239   -4.6738 H   0  0  0  0  0  0  0  0  0  0  0  0
  -12.9316    2.9925   -3.7272 H   0  0  0  0  0  0  0  0  0  0  0  0
   -9.0051    2.6156   -4.8998 H   0  0  0  0  0  0  0  0  0  0  0  0
   -3.2643   -2.2893   -5.8321 H   0  0  0  0  0  0  0  0  0  0  0  0
   -0.8308   -2.1268   -4.3194 H   0  0  0  0  0  0  0  0  0  0  0  0
    0.0976   -4.4072   -4.1706 H   0  0  0  0  0  0  0  0  0  0  0  0
    2.8329   -4.8783   -5.0527 H   0  0  0  0  0  0  0  0  0  0  0  0
    3.3154   -6.6025   -5.2352 H   0  0  0  0  0  0  0  0  0  0  0  0
    3.2067   -4.5289   -7.5156 H   0  0  0  0  0  0  0  0  0  0  0  0
    4.6807   -5.2092   -6.7289 H   0  0  0  0  0  0  0  0  0  0  0  0
    3.6097   -6.2838   -7.6978 H   0  0  0  0  0  0  0  0  0  0  0  0
   -0.1847   -2.1386   -8.5790 H   0  0  0  0  0  0  0  0  0  0  0  0
   -3.1350    3.2909   -4.1256 H   0  0  0  0  0  0  0  0  0  0  0  0
   -3.9617    5.6029   -3.9276 H   0  0  0  0  0  0  0  0  0  0  0  0
   -6.1362    8.4353   -6.8073 H   0  0  0  0  0  0  0  0  0  0  0  0
   -5.7240    6.7282   -7.1904 H   0  0  0  0  0  0  0  0  0  0  0  0
   -6.5658    7.7705   -4.3960 H   0  0  0  0  0  0  0  0  0  0  0  0
   -7.6789    6.9985   -5.5856 H   0  0  0  0  0  0  0  0  0  0  0  0
   -6.3248    6.0405   -4.8769 H   0  0  0  0  0  0  0  0  0  0  0  0
   -1.9183    4.0814   -8.1863 H   0  0  0  0  0  0  0  0  0  0  0  0
    0.2617    3.7630   -6.0660 H   0  0  0  0  0  0  0  0  0  0  0  0
    1.6205    3.7445   -4.0059 H   0  0  0  0  0  0  0  0  0  0  0  0
    2.6460    6.0313   -2.9142 H   0  0  0  0  0  0  0  0  0  0  0  0
    0.6039    7.1667   -2.1466 H   0  0  0  0  0  0  0  0  0  0  0  0
   -0.7808    7.5122    2.0541 H   0  0  0  0  0  0  0  0  0  0  0  0
    0.5921    7.7128    0.9067 H   0  0  0  0  0  0  0  0  0  0  0  0
   -2.0897    9.2244    0.7932 H   0  0  0  0  0  0  0  0  0  0  0  0
   -0.4989    9.8853    1.3316 H   0  0  0  0  0  0  0  0  0  0  0  0
   -0.7342    9.3965   -0.3903 H   0  0  0  0  0  0  0  0  0  0  0  0
    2.0243    2.9413    0.0319 H   0  0  0  0  0  0  0  0  0  0  0  0
    5.6525   -0.4587   -3.9088 H   0  0  0  0  0  0  0  0  0  0  0  0
    7.4756   -1.9057   -4.7069 H   0  0  0  0  0  0  0  0  0  0  0  0
   10.0978    0.2000   -6.9244 H   0  0  0  0  0  0  0  0  0  0  0  0
   11.1822   -1.1648   -7.3573 H   0  0  0  0  0  0  0  0  0  0  0  0
    8.1054   -1.3007   -7.1785 H   0  0  0  0  0  0  0  0  0  0  0  0
    9.1116   -1.3168   -8.6698 H   0  0  0  0  0  0  0  0  0  0  0  0
    9.2000   -2.7050   -7.5161 H   0  0  0  0  0  0  0  0  0  0  0  0
    8.4395    2.7948   -3.4576 H   0  0  0  0  0  0  0  0  0  0  0  0
    7.5282    1.4005   -1.0021 H   0  0  0  0  0  0  0  0  0  0  0  0
    7.6582   -0.0580    0.7873 H   0  0  0  0  0  0  0  0  0  0  0  0
    7.4030   -3.7508    2.8317 H   0  0  0  0  0  0  0  0  0  0  0  0
    7.8602   -5.2206    0.9126 H   0  0  0  0  0  0  0  0  0  0  0  0
    8.4542   -3.0562   -2.5749 H   0  0  0  0  0  0  0  0  0  0  0  0
    7.2367   -4.2112   -1.8975 H   0  0  0  0  0  0  0  0  0  0  0  0
    7.3255   -4.2848   -4.4044 H   0  0  0  0  0  0  0  0  0  0  0  0
    7.7837   -5.8632   -3.6694 H   0  0  0  0  0  0  0  0  0  0  0  0
    9.0638   -4.7616   -4.3256 H   0  0  0  0  0  0  0  0  0  0  0  0
   10.1401   -0.8260    1.2413 H   0  0  0  0  0  0  0  0  0  0  0  0
    5.6893    0.1011    7.3197 H   0  0  0  0  0  0  0  0  0  0  0  0
    5.0363    1.6377    9.1289 H   0  0  0  0  0  0  0  0  0  0  0  0
    3.9164    4.3045    8.3875 H   0  0  0  0  0  0  0  0  0  0  0  0
    3.7279    5.3781    9.8159 H   0  0  0  0  0  0  0  0  0  0  0  0
    5.4362    5.9566    7.3174 H   0  0  0  0  0  0  0  0  0  0  0  0
    3.9177    6.7816    7.8306 H   0  0  0  0  0  0  0  0  0  0  0  0
    5.4185    6.9813    8.8124 H   0  0  0  0  0  0  0  0  0  0  0  0
    8.4066    3.0714    5.7826 H   0  0  0  0  0  0  0  0  0  0  0  0
    8.1814   -0.7199    7.8546 H   0  0  0  0  0  0  0  0  0  0  0  0
    9.2911   -3.0663    7.7528 H   0  0  0  0  0  0  0  0  0  0  0  0
  1  2  2  0
  2  3  1  0
  3  4  2  0
  4  5  1  0
  5  6  2  0
  6  7  1  0
  7  8  2  0
  8  9  1  0
  9 10  1  0
 10 11  1  0
  8 12  1  0
 12 13  1  0
 12 14  2  0
  4 15  1  0
 15 16  2  0
 16 17  1  0
 17 18  1  0
 18 19  2  0
 19 20  1  0
 20 21  2  0
 21 22  1  0
 22 23  1  0
 23 24  1  0
 21 25  1  0
 25 26  2  0
 25 27  1  0
 17 28  2  0
 28 29  1  0
 16 30  1  0
 30 31  2  0
 31 32  1  0
 31 33  1  0
 33 34  1  0
 34 35  1  0
 35 36  2  0
 36 37  1  0
 37 38  1  0
 38 39  2  0
 38 40  1  0
 40 41  2  0
 41 42  1  0
 42 43  2  0
 43 44  1  0
 44 45  1  0
 43 46  1  0
 46 47  2  0
 47 48  1  0
 48 49  2  0
 35 50  1  0
 50 51  1  0
 51 52  1  0
 52 53  2  0
 53 54  1  0
 54 55  1  0
 55 56  2  0
 55 57  1  0
 57 58  2  0
 58 59  1  0
 59 60  2  0
 60 61  1  0
 61 62  1  0
 60 63  1  0
 63 64  2  0
 64 65  1  0
 65 66  2  0
 52 67  1  0
 67 68  2  0
 68 69  1  0
 69 70  2  0
 70 71  1  0
 71 72  2  0
 72 73  1  0
 73 74  2  0
 74 75  1  0
 75 76  1  0
 76 77  1  0
 74 78  1  0
 78 79  1  0
 78 80  2  0
 70 81  1  0
 81 82  2  0
 82 83  1  0
 83 84  1  0
 84 85  2  0
 85 86  1  0
 86 87  2  0
 87 88  1  0
 88 89  1  0
 89 90  1  0
 87 91  1  0
 91 92  2  0
 91 93  1  0
 83 94  2  0
 94 95  1  0
 82 96  1  0
 96 97  2  0
 97 98  1  0
 97 99  1  0
 99100  2  0
100101  1  0
101102  2  0
102103  1  0
103104  2  0
104105  1  0
105106  2  0
106107  1  0
107108  1  0
108109  1  0
106110  1  0
110111  1  0
110112  2  0
102113  1  0
113114  2  0
114115  1  0
115116  1  0
116117  2  0
117118  1  0
118119  2  0
119120  1  0
120121  1  0
121122  1  0
119123  1  0
123124  2  0
123125  1  0
115126  2  0
126127  1  0
114128  1  0
128129  2  0
129130  1  0
129131  1  0
131132  2  0
132133  1  0
133134  2  0
134135  1  0
135136  2  0
136137  1  0
137138  2  0
138139  1  0
139140  1  0
140141  1  0
138142  1  0
142143  1  0
142144  2  0
134145  1  0
145146  2  0
146147  1  0
147148  1  0
148149  2  0
149150  1  0
150151  2  0
151152  1  0
152153  1  0
153154  1  0
151155  1  0
155156  2  0
155157  1  0
147158  2  0
158159  1  0
146160  1  0
160161  2  0
161162  1  0
 29  1  1  0
 37 33  2  0
 47 40  1  0
 54 50  2  0
 64 57  1  0
 95 67  1  0
127 99  1  0
159131  1  0
 28  3  1  0
 48 36  1  0
 65 53  1  0
 94 69  1  0
126101  1  0
158133  1  0
 14  5  1  0
 32 15  1  0
 80 71  1  0
 98 81  1  0
112103  1  0
130113  1  0
144135  1  0
162145  1  0
 26 18  1  0
 92 84  1  0
124116  1  0
156148  1  0
  1163  1  0
  2164  1  0
  6165  1  0
  7166  1  0
 10167  1  0
 10168  1  0
 11169  1  0
 11170  1  0
 11171  1  0
 14172  1  0
 19173  1  0
 20174  1  0
 23175  1  0
 23176  1  0
 24177  1  0
 24178  1  0
 24179  1  0
 26180  1  0
 30181  1  0
 41182  1  0
 42183  1  0
 44184  1  0
 44185  1  0
 45186  1  0
 45187  1  0
 45188  1  0
 46189  1  0
 58190  1  0
 59191  1  0
 61192  1  0
 61193  1  0
 62194  1  0
 62195  1  0
 62196  1  0
 63197  1  0
 68198  1  0
 72199  1  0
 73200  1  0
 76201  1  0
 76202  1  0
 77203  1  0
 77204  1  0
 77205  1  0
 80206  1  0
 85207  1  0
 86208  1  0
 89209  1  0
 89210  1  0
 90211  1  0
 90212  1  0
 90213  1  0
 92214  1  0
 96215  1  0
100216  1  0
104217  1  0
105218  1  0
108219  1  0
108220  1  0
109221  1  0
109222  1  0
109223  1  0
112224  1  0
117225  1  0
118226  1  0
121227  1  0
121228  1  0
122229  1  0
122230  1  0
122231  1  0
124232  1  0
128233  1  0
132234  1  0
136235  1  0
137236  1  0
140237  1  0
140238  1  0
141239  1  0
141240  1  0
141241  1  0
144242  1  0
149243  1  0
150244  1  0
153245  1  0
153246  1  0
154247  1  0
154248  1  0
154249  1  0
156250  1  0
160251  1  0
161252  1  0
M  END

