
     RDKit          3D

230251  0  0  0  0  0  0  0  0999 V2000
   -2.5270    8.1094   -3.0072 C   0  0  0  0  0  0  0  0  0  0  0  0
   -3.4268    7.0565   -3.1264 C   0  0  0  0  0  0  0  0  0  0  0  0
   -2.8227    5.7935   -3.0042 C   0  0  0  0  0  0  0  0  0  0  0  0
   -3.4746    4.5500   -3.0467 C   0  0  0  0  0  0  0  0  0  0  0  0
   -4.9427    4.4379   -3.1862 C   0  0  0  0  0  0  0  0  0  0  0  0
   -5.7007    3.8645   -2.1537 C   0  0  0  0  0  0  0  0  0  0  0  0
   -7.0881    3.7597   -2.2729 C   0  0  0  0  0  0  0  0  0  0  0  0
   -7.7327    4.2412   -3.4171 C   0  0  0  0  0  0  0  0  0  0  0  0
   -9.5176    4.0971   -3.5624 S   0  0  0  0  0  0  0  0  0  0  0  0
   -9.8783    5.7607   -2.8913 C   0  0  0  0  0  0  0  0  0  0  0  0
   -9.8484    5.7579   -1.3678 C   0  0  0  0  0  0  0  0  0  0  0  0
   -6.9789    4.8053   -4.4569 C   0  0  0  0  0  0  0  0  0  0  0  0
   -7.5895    5.2535   -5.5834 F   0  0  0  0  0  0  0  0  0  0  0  0
   -5.5898    4.9064   -4.3396 C   0  0  0  0  0  0  0  0  0  0  0  0
   -2.6718    3.4094   -2.8806 C   0  0  0  0  0  0  0  0  0  0  0  0
   -1.2920    3.4508   -2.6341 C   0  0  0  0  0  0  0  0  0  0  0  0
   -0.6387    4.7111   -2.5913 C   0  0  0  0  0  0  0  0  0  0  0  0
    0.8015    4.8966   -2.3242 C   0  0  0  0  0  0  0  0  0  0  0  0
    1.3084    4.6720   -1.0342 C   0  0  0  0  0  0  0  0  0  0  0  0
    2.5581    5.1940   -0.6711 C   0  0  0  0  0  0  0  0  0  0  0  0
    3.3109    5.9334   -1.5920 C   0  0  0  0  0  0  0  0  0  0  0  0
    4.8584    6.7001   -1.0795 S   0  0  0  0  0  0  0  0  0  0  0  0
    5.9630    5.4925   -1.8965 C   0  0  0  0  0  0  0  0  0  0  0  0
    6.9622    6.2210   -2.7855 C   0  0  0  0  0  0  0  0  0  0  0  0
    2.8199    6.1350   -2.8867 C   0  0  0  0  0  0  0  0  0  0  0  0
    1.5830    5.5989   -3.2582 C   0  0  0  0  0  0  0  0  0  0  0  0
    3.5183    6.8819   -3.7767 F   0  0  0  0  0  0  0  0  0  0  0  0
   -1.4446    5.8568   -2.7854 C   0  0  0  0  0  0  0  0  0  0  0  0
   -0.9887    7.4795   -2.7362 S   0  0  0  0  0  0  0  0  0  0  0  0
   -0.7261    2.1547   -2.4640 C   0  0  0  0  0  0  0  0  0  0  0  0
   -1.6765    1.1249   -2.6170 C   0  0  0  0  0  0  0  0  0  0  0  0
   -3.1759    1.8246   -2.9382 S   0  0  0  0  0  0  0  0  0  0  0  0
   -1.5533   -0.3414   -2.4395 C   0  0  0  0  0  0  0  0  0  0  0  0
   -0.5678   -1.0764   -1.7546 C   0  0  0  0  0  0  0  0  0  0  0  0
   -0.9816   -2.4046   -1.4557 C   0  0  0  0  0  0  0  0  0  0  0  0
   -0.3050   -3.3703   -0.6672 C   0  0  0  0  0  0  0  0  0  0  0  0
    1.0778   -3.2099   -0.1659 C   0  0  0  0  0  0  0  0  0  0  0  0
    1.4313   -2.1453    0.6782 C   0  0  0  0  0  0  0  0  0  0  0  0
    2.7073   -2.0983    1.2505 C   0  0  0  0  0  0  0  0  0  0  0  0
    3.6376   -3.1121    0.9916 C   0  0  0  0  0  0  0  0  0  0  0  0
    5.2658   -3.0688    1.7522 S   0  0  0  0  0  0  0  0  0  0  0  0
    6.0944   -2.2656    0.3323 C   0  0  0  0  0  0  0  0  0  0  0  0
    6.1854   -0.7641    0.5531 C   0  0  0  0  0  0  0  0  0  0  0  0
    3.2810   -4.1852    0.1695 C   0  0  0  0  0  0  0  0  0  0  0  0
    4.1516   -5.2015   -0.0486 F   0  0  0  0  0  0  0  0  0  0  0  0
    2.0117   -4.2288   -0.4107 C   0  0  0  0  0  0  0  0  0  0  0  0
   -1.0445   -4.5123   -0.2850 C   0  0  0  0  0  0  0  0  0  0  0  0
   -2.3612   -4.7360   -0.6885 C   0  0  0  0  0  0  0  0  0  0  0  0
   -2.9840   -3.8551   -1.5864 C   0  0  0  0  0  0  0  0  0  0  0  0
   -4.3882   -4.0531   -2.0071 C   0  0  0  0  0  0  0  0  0  0  0  0
   -4.7339   -5.1628   -2.7918 C   0  0  0  0  0  0  0  0  0  0  0  0
   -6.0556   -5.3469   -3.2040 C   0  0  0  0  0  0  0  0  0  0  0  0
   -7.0412   -4.4232   -2.8403 C   0  0  0  0  0  0  0  0  0  0  0  0
   -8.7362   -4.6587   -3.3933 S   0  0  0  0  0  0  0  0  0  0  0  0
   -8.5960   -3.5555   -4.8453 C   0  0  0  0  0  0  0  0  0  0  0  0
   -7.9266   -4.2637   -6.0174 C   0  0  0  0  0  0  0  0  0  0  0  0
   -6.7081   -3.3326   -2.0274 C   0  0  0  0  0  0  0  0  0  0  0  0
   -5.3870   -3.1505   -1.6116 C   0  0  0  0  0  0  0  0  0  0  0  0
   -7.6603   -2.4439   -1.6393 F   0  0  0  0  0  0  0  0  0  0  0  0
   -2.2711   -2.6933   -1.9292 C   0  0  0  0  0  0  0  0  0  0  0  0
   -2.8702   -1.3568   -2.7233 S   0  0  0  0  0  0  0  0  0  0  0  0
   -3.0290   -5.7089    0.0788 C   0  0  0  0  0  0  0  0  0  0  0  0
   -2.2741   -6.1916    1.1531 C   0  0  0  0  0  0  0  0  0  0  0  0
   -0.7293   -5.5173    1.0201 S   0  0  0  0  0  0  0  0  0  0  0  0
   -2.8677   -6.2887    2.4958 C   0  0  0  0  0  0  0  0  0  0  0  0
   -2.1337   -6.7317    3.6048 C   0  0  0  0  0  0  0  0  0  0  0  0
   -2.3054   -5.9238    4.7508 C   0  0  0  0  0  0  0  0  0  0  0  0
   -1.5014   -5.9480    5.9126 C   0  0  0  0  0  0  0  0  0  0  0  0
   -0.5703   -7.0535    6.2087 C   0  0  0  0  0  0  0  0  0  0  0  0
   -0.8159   -7.8775    7.3178 C   0  0  0  0  0  0  0  0  0  0  0  0
    0.0468   -8.9313    7.6153 C   0  0  0  0  0  0  0  0  0  0  0  0
    1.1634   -9.1767    6.8060 C   0  0  0  0  0  0  0  0  0  0  0  0
    2.2641  -10.5404    7.2038 S   0  0  0  0  0  0  0  0  0  0  0  0
    1.2437  -11.8278    6.3987 C   0  0  0  0  0  0  0  0  0  0  0  0
    1.4154  -11.8018    4.8863 C   0  0  0  0  0  0  0  0  0  0  0  0
    1.4306   -8.3377    5.7164 C   0  0  0  0  0  0  0  0  0  0  0  0
    2.5247   -8.5432    4.9415 F   0  0  0  0  0  0  0  0  0  0  0  0
    0.5679   -7.2756    5.4219 C   0  0  0  0  0  0  0  0  0  0  0  0
   -1.5450   -4.8107    6.7380 C   0  0  0  0  0  0  0  0  0  0  0  0
   -2.3791   -3.7218    6.4714 C   0  0  0  0  0  0  0  0  0  0  0  0
   -3.2878   -3.7615    5.3976 C   0  0  0  0  0  0  0  0  0  0  0  0
   -4.0447   -2.5530    5.0025 C   0  0  0  0  0  0  0  0  0  0  0  0
   -3.6781   -1.8379    3.8497 C   0  0  0  0  0  0  0  0  0  0  0  0
   -4.3457   -0.6604    3.5115 C   0  0  0  0  0  0  0  0  0  0  0  0
   -5.3661   -0.1677    4.3331 C   0  0  0  0  0  0  0  0  0  0  0  0
   -6.1964    1.3661    3.8962 S   0  0  0  0  0  0  0  0  0  0  0  0
   -4.9254    2.4622    4.6249 C   0  0  0  0  0  0  0  0  0  0  0  0
   -5.1451    2.6363    6.1206 C   0  0  0  0  0  0  0  0  0  0  0  0
   -5.7360   -0.8775    5.4855 C   0  0  0  0  0  0  0  0  0  0  0  0
   -5.0705   -2.0624    5.8221 C   0  0  0  0  0  0  0  0  0  0  0  0
   -6.7392   -0.4239    6.2799 F   0  0  0  0  0  0  0  0  0  0  0  0
   -3.2209   -4.8856    4.5532 C   0  0  0  0  0  0  0  0  0  0  0  0
   -3.8357   -5.0029    3.0045 S   0  0  0  0  0  0  0  0  0  0  0  0
   -2.0060   -2.5586    7.1660 C   0  0  0  0  0  0  0  0  0  0  0  0
   -0.8580   -2.7095    7.9396 C   0  0  0  0  0  0  0  0  0  0  0  0
   -0.3517   -4.3153    7.8170 S   0  0  0  0  0  0  0  0  0  0  0  0
    0.1212   -1.6211    8.0364 C   0  0  0  0  0  0  0  0  0  0  0  0
    0.3253   -0.8097    7.0284 O   0  0  0  0  0  0  0  0  0  0  0  0
    1.3633   -0.0524    7.2829 C   0  0  0  0  0  0  0  0  0  0  0  0
    1.8543   -0.3381    8.5446 C   0  0  0  0  0  0  0  0  0  0  0  0
    1.0511   -1.3604    9.0322 C   0  0  0  0  0  0  0  0  0  0  0  0
    1.2008   -2.0391   10.3302 C   0  0  0  0  0  0  0  0  0  0  0  0
    2.1358   -1.7083   11.1092 O   0  0  0  0  0  0  0  0  0  0  0  0
    0.3047   -3.0318   10.7124 O   0  0  0  0  0  0  0  0  0  0  0  0
    1.9547    0.8654    6.2930 C   0  0  0  0  0  0  0  0  0  0  0  0
    1.4182    0.9653    5.0703 C   0  0  0  0  0  0  0  0  0  0  0  0
    2.1072    1.5862    3.9303 C   0  0  0  0  0  0  0  0  0  0  0  0
    2.0827    1.0337    2.7407 O   0  0  0  0  0  0  0  0  0  0  0  0
    2.8034    1.7491    1.9110 C   0  0  0  0  0  0  0  0  0  0  0  0
    3.3279    2.8455    2.5769 C   0  0  0  0  0  0  0  0  0  0  0  0
    2.8628    2.7552    3.8779 C   0  0  0  0  0  0  0  0  0  0  0  0
    3.0415    3.7887    4.9144 C   0  0  0  0  0  0  0  0  0  0  0  0
    3.8771    4.7181    4.7381 O   0  0  0  0  0  0  0  0  0  0  0  0
    2.2509    3.7906    6.0581 O   0  0  0  0  0  0  0  0  0  0  0  0
    2.9732    1.3740    0.4927 C   0  0  0  0  0  0  0  0  0  0  0  0
    3.6866    2.0883   -0.3801 C   0  0  0  0  0  0  0  0  0  0  0  0
    3.7682    1.7015   -1.7929 C   0  0  0  0  0  0  0  0  0  0  0  0
    4.0623    0.4364   -2.3003 C   0  0  0  0  0  0  0  0  0  0  0  0
    4.1469    0.4264   -3.7034 C   0  0  0  0  0  0  0  0  0  0  0  0
    4.4765   -0.6751   -4.5134 C   0  0  0  0  0  0  0  0  0  0  0  0
    4.8416   -1.9844   -3.9480 C   0  0  0  0  0  0  0  0  0  0  0  0
    3.8499   -2.8836   -3.5418 C   0  0  0  0  0  0  0  0  0  0  0  0
    4.2025   -4.1693   -3.1207 C   0  0  0  0  0  0  0  0  0  0  0  0
    5.5501   -4.5455   -3.0649 C   0  0  0  0  0  0  0  0  0  0  0  0
    5.9960   -6.2057   -2.5487 S   0  0  0  0  0  0  0  0  0  0  0  0
    5.9385   -6.9253   -4.2316 C   0  0  0  0  0  0  0  0  0  0  0  0
    4.7615   -7.8822   -4.3492 C   0  0  0  0  0  0  0  0  0  0  0  0
    6.5461   -3.6325   -3.4346 C   0  0  0  0  0  0  0  0  0  0  0  0
    7.8549   -3.9851   -3.3855 F   0  0  0  0  0  0  0  0  0  0  0  0
    6.1911   -2.3576   -3.8827 C   0  0  0  0  0  0  0  0  0  0  0  0
    4.5119   -0.4607   -5.9015 C   0  0  0  0  0  0  0  0  0  0  0  0
    4.2421    0.7823   -6.4808 C   0  0  0  0  0  0  0  0  0  0  0  0
    3.9281    1.8931   -5.6723 C   0  0  0  0  0  0  0  0  0  0  0  0
    3.6073    3.2159   -6.2473 C   0  0  0  0  0  0  0  0  0  0  0  0
    4.4037    4.3378   -5.9611 C   0  0  0  0  0  0  0  0  0  0  0  0
    4.0884    5.5837   -6.5101 C   0  0  0  0  0  0  0  0  0  0  0  0
    2.9699    5.7241   -7.3429 C   0  0  0  0  0  0  0  0  0  0  0  0
    2.5646    7.3266   -8.0458 S   0  0  0  0  0  0  0  0  0  0  0  0
    1.3921    7.7495   -6.7147 C   0  0  0  0  0  0  0  0  0  0  0  0
    0.6476    9.0276   -7.0606 C   0  0  0  0  0  0  0  0  0  0  0  0
    2.1729    4.6069   -7.6280 C   0  0  0  0  0  0  0  0  0  0  0  0
    2.4870    3.3621   -7.0790 C   0  0  0  0  0  0  0  0  0  0  0  0
    1.0828    4.7277   -8.4308 F   0  0  0  0  0  0  0  0  0  0  0  0
    3.8981    1.6743   -4.2838 C   0  0  0  0  0  0  0  0  0  0  0  0
    3.5872    2.7793   -3.0676 S   0  0  0  0  0  0  0  0  0  0  0  0
    4.3510    0.7714   -7.8812 C   0  0  0  0  0  0  0  0  0  0  0  0
    4.6896   -0.4764   -8.3948 C   0  0  0  0  0  0  0  0  0  0  0  0
    4.8691   -1.5639   -7.1193 S   0  0  0  0  0  0  0  0  0  0  0  0
   -2.7796    9.1602   -3.0694 H   0  0  0  0  0  0  0  0  0  0  0  0
   -4.4843    7.2127   -3.2915 H   0  0  0  0  0  0  0  0  0  0  0  0
   -5.2175    3.4979   -1.2566 H   0  0  0  0  0  0  0  0  0  0  0  0
   -7.6601    3.3027   -1.4747 H   0  0  0  0  0  0  0  0  0  0  0  0
   -9.1589    6.5098   -3.2833 H   0  0  0  0  0  0  0  0  0  0  0  0
  -10.8932    6.0561   -3.2300 H   0  0  0  0  0  0  0  0  0  0  0  0
  -10.5329    4.9778   -0.9743 H   0  0  0  0  0  0  0  0  0  0  0  0
   -8.8196    5.5674   -0.9996 H   0  0  0  0  0  0  0  0  0  0  0  0
  -10.1761    6.7471   -0.9838 H   0  0  0  0  0  0  0  0  0  0  0  0
   -5.0164    5.3437   -5.1478 H   0  0  0  0  0  0  0  0  0  0  0  0
    0.7032    4.1722   -0.2891 H   0  0  0  0  0  0  0  0  0  0  0  0
    2.9134    5.0638    0.3419 H   0  0  0  0  0  0  0  0  0  0  0  0
    6.5052    4.9142   -1.1205 H   0  0  0  0  0  0  0  0  0  0  0  0
    5.4024    4.7803   -2.5287 H   0  0  0  0  0  0  0  0  0  0  0  0
    7.5789    6.9235   -2.1850 H   0  0  0  0  0  0  0  0  0  0  0  0
    6.4235    6.7897   -3.5737 H   0  0  0  0  0  0  0  0  0  0  0  0
    7.6317    5.4853   -3.2789 H   0  0  0  0  0  0  0  0  0  0  0  0
    1.1952    5.8058   -4.2480 H   0  0  0  0  0  0  0  0  0  0  0  0
    0.3166    1.9717   -2.2390 H   0  0  0  0  0  0  0  0  0  0  0  0
    0.3553   -0.6339   -1.4055 H   0  0  0  0  0  0  0  0  0  0  0  0
    0.7058   -1.3810    0.9278 H   0  0  0  0  0  0  0  0  0  0  0  0
    2.9680   -1.2917    1.9211 H   0  0  0  0  0  0  0  0  0  0  0  0
    7.1222   -2.6772    0.2480 H   0  0  0  0  0  0  0  0  0  0  0  0
    5.5655   -2.4776   -0.6228 H   0  0  0  0  0  0  0  0  0  0  0  0
    5.1698   -0.3348    0.6615 H   0  0  0  0  0  0  0  0  0  0  0  0
    6.7709   -0.5473    1.4722 H   0  0  0  0  0  0  0  0  0  0  0  0
    6.6882   -0.2837   -0.3137 H   0  0  0  0  0  0  0  0  0  0  0  0
    1.7384   -5.0790   -1.0240 H   0  0  0  0  0  0  0  0  0  0  0  0
   -3.9778   -5.8800   -3.0882 H   0  0  0  0  0  0  0  0  0  0  0  0
   -6.3120   -6.2082   -3.8067 H   0  0  0  0  0  0  0  0  0  0  0  0
   -8.0343   -2.6318   -4.5872 H   0  0  0  0  0  0  0  0  0  0  0  0
   -9.6201   -3.2545   -5.1498 H   0  0  0  0  0  0  0  0  0  0  0  0
   -6.8763   -4.5169   -5.7689 H   0  0  0  0  0  0  0  0  0  0  0  0
   -7.9272   -3.5949   -6.9050 H   0  0  0  0  0  0  0  0  0  0  0  0
   -8.4804   -5.1937   -6.2693 H   0  0  0  0  0  0  0  0  0  0  0  0
   -5.1393   -2.3090   -0.9769 H   0  0  0  0  0  0  0  0  0  0  0  0
   -4.0989   -5.8669    0.0188 H   0  0  0  0  0  0  0  0  0  0  0  0
   -1.3476   -7.4673    3.5104 H   0  0  0  0  0  0  0  0  0  0  0  0
   -1.6829   -7.7071    7.9453 H   0  0  0  0  0  0  0  0  0  0  0  0
   -0.1603   -9.5692    8.4650 H   0  0  0  0  0  0  0  0  0  0  0  0
    0.1708  -11.7060    6.6618 H   0  0  0  0  0  0  0  0  0  0  0  0
    1.5766  -12.8155    6.7789 H   0  0  0  0  0  0  0  0  0  0  0  0
    2.4928  -11.8579    4.6215 H   0  0  0  0  0  0  0  0  0  0  0  0
    0.8915  -12.6711    4.4382 H   0  0  0  0  0  0  0  0  0  0  0  0
    0.9769  -10.8749    4.4651 H   0  0  0  0  0  0  0  0  0  0  0  0
    0.7841   -6.6277    4.5818 H   0  0  0  0  0  0  0  0  0  0  0  0
   -2.8673   -2.1841    3.2220 H   0  0  0  0  0  0  0  0  0  0  0  0
   -4.0505   -0.1184    2.6212 H   0  0  0  0  0  0  0  0  0  0  0  0
   -3.9058    2.0648    4.4392 H   0  0  0  0  0  0  0  0  0  0  0  0
   -4.9959    3.4538    4.1356 H   0  0  0  0  0  0  0  0  0  0  0  0
   -6.1619    3.0443    6.3167 H   0  0  0  0  0  0  0  0  0  0  0  0
   -4.3945    3.3517    6.5239 H   0  0  0  0  0  0  0  0  0  0  0  0
   -5.0228    1.6684    6.6471 H   0  0  0  0  0  0  0  0  0  0  0  0
   -5.3566   -2.6008    6.7180 H   0  0  0  0  0  0  0  0  0  0  0  0
   -2.4230   -1.5831    6.9526 H   0  0  0  0  0  0  0  0  0  0  0  0
    2.7187    0.1057    9.0244 H   0  0  0  0  0  0  0  0  0  0  0  0
    0.3962   -3.5026   11.6058 H   0  0  0  0  0  0  0  0  0  0  0  0
    2.8973    1.3414    6.5254 H   0  0  0  0  0  0  0  0  0  0  0  0
    0.5304    0.3885    4.8327 H   0  0  0  0  0  0  0  0  0  0  0  0
    3.9419    3.6345    2.1660 H   0  0  0  0  0  0  0  0  0  0  0  0
    2.3592    4.5093    6.7655 H   0  0  0  0  0  0  0  0  0  0  0  0
    2.4585    0.4882    0.1478 H   0  0  0  0  0  0  0  0  0  0  0  0
    4.1559    3.0159   -0.0791 H   0  0  0  0  0  0  0  0  0  0  0  0
    4.2366   -0.4302   -1.6764 H   0  0  0  0  0  0  0  0  0  0  0  0
    2.8030   -2.6040   -3.5910 H   0  0  0  0  0  0  0  0  0  0  0  0
    3.4287   -4.8772   -2.8573 H   0  0  0  0  0  0  0  0  0  0  0  0
    6.8813   -7.4861   -4.3998 H   0  0  0  0  0  0  0  0  0  0  0  0
    5.8623   -6.1458   -5.0199 H   0  0  0  0  0  0  0  0  0  0  0  0
    4.7500   -8.3418   -5.3614 H   0  0  0  0  0  0  0  0  0  0  0  0
    4.8495   -8.6927   -3.5942 H   0  0  0  0  0  0  0  0  0  0  0  0
    3.8054   -7.3381   -4.1972 H   0  0  0  0  0  0  0  0  0  0  0  0
    6.9652   -1.6676   -4.1994 H   0  0  0  0  0  0  0  0  0  0  0  0
    5.2724    4.2430   -5.3216 H   0  0  0  0  0  0  0  0  0  0  0  0
    4.7134    6.4419   -6.2906 H   0  0  0  0  0  0  0  0  0  0  0  0
    1.9513    7.8928   -5.7676 H   0  0  0  0  0  0  0  0  0  0  0  0
    0.6576    6.9301   -6.5760 H   0  0  0  0  0  0  0  0  0  0  0  0
   -0.0838    9.2661   -6.2566 H   0  0  0  0  0  0  0  0  0  0  0  0
    0.0966    8.8975   -8.0180 H   0  0  0  0  0  0  0  0  0  0  0  0
    1.3616    9.8711   -7.1633 H   0  0  0  0  0  0  0  0  0  0  0  0
    1.8558    2.5072   -7.2962 H   0  0  0  0  0  0  0  0  0  0  0  0
    4.1994    1.6386   -8.5110 H   0  0  0  0  0  0  0  0  0  0  0  0
    4.8239   -0.7099   -9.4404 H   0  0  0  0  0  0  0  0  0  0  0  0
  1  2  2  0
  2  3  1  0
  3  4  2  0
  4  5  1  0
  5  6  2  0
  6  7  1  0
  7  8  2  0
  8  9  1  0
  9 10  1  0
 10 11  1  0
  8 12  1  0
 12 13  1  0
 12 14  2  0
  4 15  1  0
 15 16  2  0
 16 17  1  0
 17 18  1  0
 18 19  2  0
 19 20  1  0
 20 21  2  0
 21 22  1  0
 22 23  1  0
 23 24  1  0
 21 25  1  0
 25 26  2  0
 25 27  1  0
 17 28  2  0
 28 29  1  0
 16 30  1  0
 30 31  2  0
 31 32  1  0
 31 33  1  0
 33 34  2  0
 34 35  1  0
 35 36  2  0
 36 37  1  0
 37 38  2  0
 38 39  1  0
 39 40  2  0
 40 41  1  0
 41 42  1  0
 42 43  1  0
 40 44  1  0
 44 45  1  0
 44 46  2  0
 36 47  1  0
 47 48  2  0
 48 49  1  0
 49 50  1  0
 50 51  2  0
 51 52  1  0
 52 53  2  0
 53 54  1  0
 54 55  1  0
 55 56  1  0
 53 57  1  0
 57 58  2  0
 57 59  1  0
 49 60  2  0
 60 61  1  0
 48 62  1  0
 62 63  2  0
 63 64  1  0
 63 65  1  0
 65 66  2  0
 66 67  1  0
 67 68  2  0
 68 69  1  0
 69 70  2  0
 70 71  1  0
 71 72  2  0
 72 73  1  0
 73 74  1  0
 74 75  1  0
 72 76  1  0
 76 77  1  0
 76 78  2  0
 68 79  1  0
 79 80  2  0
 80 81  1  0
 81 82  1  0
 82 83  2  0
 83 84  1  0
 84 85  2  0
 85 86  1  0
 86 87  1  0
 87 88  1  0
 85 89  1  0
 89 90  2  0
 89 91  1  0
 81 92  2  0
 92 93  1  0
 80 94  1  0
 94 95  2  0
 95 96  1  0
 95 97  1  0
 97 98  1  0
 98 99  1  0
 99100  2  0
100101  1  0
101102  1  0
102103  2  0
102104  1  0
 99105  1  0
105106  2  3
106107  1  0
107108  1  0
108109  1  0
109110  2  0
110111  1  0
111112  1  0
112113  2  0
112114  1  0
109115  1  0
115116  2  3
116117  1  0
117118  2  0
118119  1  0
119120  2  0
120121  1  0
121122  2  0
122123  1  0
123124  2  0
124125  1  0
125126  1  0
126127  1  0
124128  1  0
128129  1  0
128130  2  0
120131  1  0
131132  2  0
132133  1  0
133134  1  0
134135  2  0
135136  1  0
136137  2  0
137138  1  0
138139  1  0
139140  1  0
137141  1  0
141142  2  0
141143  1  0
133144  2  0
144145  1  0
132146  1  0
146147  2  0
147148  1  0
 29  1  1  0
 61 33  1  0
 93 65  1  0
101 97  2  0
111107  2  0
145117  1  0
 28  3  1  0
 60 35  1  0
 92 67  1  0
144119  1  0
 14  5  1  0
 32 15  1  0
 46 37  1  0
 64 47  1  0
 78 69  1  0
 96 79  1  0
130121  1  0
148131  1  0
 26 18  1  0
 58 50  1  0
 90 82  1  0
142134  1  0
  1149  1  0
  2150  1  0
  6151  1  0
  7152  1  0
 10153  1  0
 10154  1  0
 11155  1  0
 11156  1  0
 11157  1  0
 14158  1  0
 19159  1  0
 20160  1  0
 23161  1  0
 23162  1  0
 24163  1  0
 24164  1  0
 24165  1  0
 26166  1  0
 30167  1  0
 34168  1  0
 38169  1  0
 39170  1  0
 42171  1  0
 42172  1  0
 43173  1  0
 43174  1  0
 43175  1  0
 46176  1  0
 51177  1  0
 52178  1  0
 55179  1  0
 55180  1  0
 56181  1  0
 56182  1  0
 56183  1  0
 58184  1  0
 62185  1  0
 66186  1  0
 70187  1  0
 71188  1  0
 74189  1  0
 74190  1  0
 75191  1  0
 75192  1  0
 75193  1  0
 78194  1  0
 83195  1  0
 84196  1  0
 87197  1  0
 87198  1  0
 88199  1  0
 88200  1  0
 88201  1  0
 90202  1  0
 94203  1  0
100204  1  0
104205  1  0
105206  1  0
106207  1  0
110208  1  0
114209  1  0
115210  1  0
116211  1  0
118212  1  0
122213  1  0
123214  1  0
126215  1  0
126216  1  0
127217  1  0
127218  1  0
127219  1  0
130220  1  0
135221  1  0
136222  1  0
139223  1  0
139224  1  0
140225  1  0
140226  1  0
140227  1  0
142228  1  0
146229  1  0
147230  1  0
M  END

