
     RDKit          3D

234260  0  0  0  0  0  0  0  0999 V2000
    4.4681  -10.1032    8.9418 C   0  0  0  0  0  0  0  0  0  0  0  0
    4.8708   -9.2741    7.9008 C   0  0  0  0  0  0  0  0  0  0  0  0
    3.9326   -8.2740    7.6017 C   0  0  0  0  0  0  0  0  0  0  0  0
    4.0689   -7.2727    6.6226 C   0  0  0  0  0  0  0  0  0  0  0  0
    5.2678   -7.1581    5.7779 C   0  0  0  0  0  0  0  0  0  0  0  0
    5.5616   -8.0812    4.4073 S   0  0  0  0  0  0  0  0  0  0  0  0
    6.9584   -7.2633    3.9406 C   0  0  0  0  0  0  0  0  0  0  0  0
    7.6971   -7.5054    2.6586 C   0  0  0  0  0  0  0  0  0  0  0  0
    7.1506   -6.6134    1.5476 C   0  0  0  0  0  0  0  0  0  0  0  0
    7.1949   -6.2312    4.8479 C   0  0  0  0  0  0  0  0  0  0  0  0
    8.5124   -5.0783    4.6921 Cl  0  0  0  0  0  0  0  0  0  0  0  0
    6.2460   -6.1754    5.8791 C   0  0  0  0  0  0  0  0  0  0  0  0
    6.2726   -4.9643    7.1554 Cl  0  0  0  0  0  0  0  0  0  0  0  0
    3.0205   -6.3468    6.5087 C   0  0  0  0  0  0  0  0  0  0  0  0
    1.8897   -6.3799    7.3302 C   0  0  0  0  0  0  0  0  0  0  0  0
    1.7513   -7.3809    8.3142 C   0  0  0  0  0  0  0  0  0  0  0  0
    0.5602   -7.4666    9.1803 C   0  0  0  0  0  0  0  0  0  0  0  0
   -0.5230   -8.7533    9.1859 S   0  0  0  0  0  0  0  0  0  0  0  0
   -1.5587   -8.1123   10.3478 C   0  0  0  0  0  0  0  0  0  0  0  0
   -2.8302   -8.7632   10.8033 C   0  0  0  0  0  0  0  0  0  0  0  0
   -4.0095   -8.2782    9.9686 C   0  0  0  0  0  0  0  0  0  0  0  0
   -1.0774   -6.8610   10.7330 C   0  0  0  0  0  0  0  0  0  0  0  0
    0.1166   -6.5038   10.0863 C   0  0  0  0  0  0  0  0  0  0  0  0
    0.9764   -5.0049   10.4215 Cl  0  0  0  0  0  0  0  0  0  0  0  0
   -1.8828   -5.8320   11.9085 Cl  0  0  0  0  0  0  0  0  0  0  0  0
    2.7941   -8.3205    8.4142 C   0  0  0  0  0  0  0  0  0  0  0  0
    2.9551   -9.5992    9.4963 S   0  0  0  0  0  0  0  0  0  0  0  0
    0.9778   -5.3481    7.0530 C   0  0  0  0  0  0  0  0  0  0  0  0
    1.4088   -4.5128    6.0239 C   0  0  0  0  0  0  0  0  0  0  0  0
    2.8961   -5.0529    5.4421 S   0  0  0  0  0  0  0  0  0  0  0  0
    0.7602   -3.2658    5.6061 C   0  0  0  0  0  0  0  0  0  0  0  0
    0.0054   -2.4379    6.4349 C   0  0  0  0  0  0  0  0  0  0  0  0
   -0.3252   -1.2170    5.8265 C   0  0  0  0  0  0  0  0  0  0  0  0
   -1.0355   -0.1546    6.4240 C   0  0  0  0  0  0  0  0  0  0  0  0
   -1.5423   -0.2376    7.8038 C   0  0  0  0  0  0  0  0  0  0  0  0
   -0.9759    0.6961    9.0813 S   0  0  0  0  0  0  0  0  0  0  0  0
   -1.9330   -0.0196   10.2648 C   0  0  0  0  0  0  0  0  0  0  0  0
   -1.8402    0.2881   11.7268 C   0  0  0  0  0  0  0  0  0  0  0  0
   -0.8167   -0.6195   12.3997 C   0  0  0  0  0  0  0  0  0  0  0  0
   -2.6974   -1.0256    9.6741 C   0  0  0  0  0  0  0  0  0  0  0  0
   -3.7985   -2.0607   10.5721 Cl  0  0  0  0  0  0  0  0  0  0  0  0
   -2.4832   -1.1417    8.2897 C   0  0  0  0  0  0  0  0  0  0  0  0
   -3.3380   -2.3027    7.2800 Cl  0  0  0  0  0  0  0  0  0  0  0  0
   -1.1734    1.0192    5.6660 C   0  0  0  0  0  0  0  0  0  0  0  0
   -0.6545    1.1390    4.3725 C   0  0  0  0  0  0  0  0  0  0  0  0
    0.0165    0.0650    3.7565 C   0  0  0  0  0  0  0  0  0  0  0  0
    0.4667    0.1322    2.3504 C   0  0  0  0  0  0  0  0  0  0  0  0
   -0.5670    0.3010    1.0320 S   0  0  0  0  0  0  0  0  0  0  0  0
    0.6309    0.2634   -0.1501 C   0  0  0  0  0  0  0  0  0  0  0  0
    0.3757    0.3082   -1.6286 C   0  0  0  0  0  0  0  0  0  0  0  0
    0.0854   -1.0894   -2.1694 C   0  0  0  0  0  0  0  0  0  0  0  0
    1.8656    0.0960    0.4769 C   0  0  0  0  0  0  0  0  0  0  0  0
    1.7738    0.0321    1.8787 C   0  0  0  0  0  0  0  0  0  0  0  0
    3.1814   -0.0954    2.9288 Cl  0  0  0  0  0  0  0  0  0  0  0  0
    3.3856   -0.0308   -0.3961 Cl  0  0  0  0  0  0  0  0  0  0  0  0
    0.1786   -1.0987    4.5257 C   0  0  0  0  0  0  0  0  0  0  0  0
    1.0126   -2.5022    4.1238 S   0  0  0  0  0  0  0  0  0  0  0  0
   -0.8704    2.4010    3.8125 C   0  0  0  0  0  0  0  0  0  0  0  0
   -1.5790    3.2548    4.6514 C   0  0  0  0  0  0  0  0  0  0  0  0
   -1.9592    2.4546    6.0859 S   0  0  0  0  0  0  0  0  0  0  0  0
   -2.0299    4.5882    4.2472 C   0  0  0  0  0  0  0  0  0  0  0  0
   -3.3577    4.8710    3.9325 C   0  0  0  0  0  0  0  0  0  0  0  0
   -3.4919    5.8717    2.9521 C   0  0  0  0  0  0  0  0  0  0  0  0
   -4.6634    6.1462    2.2169 C   0  0  0  0  0  0  0  0  0  0  0  0
   -5.9361    5.4786    2.5281 C   0  0  0  0  0  0  0  0  0  0  0  0
   -7.2086    6.1886    3.3577 S   0  0  0  0  0  0  0  0  0  0  0  0
   -8.2066    4.8322    3.3394 C   0  0  0  0  0  0  0  0  0  0  0  0
   -9.5468    4.7538    4.0095 C   0  0  0  0  0  0  0  0  0  0  0  0
   -9.3926    4.3038    5.4584 C   0  0  0  0  0  0  0  0  0  0  0  0
   -7.5415    3.7946    2.6865 C   0  0  0  0  0  0  0  0  0  0  0  0
   -8.2260    2.1904    2.4598 Cl  0  0  0  0  0  0  0  0  0  0  0  0
   -6.2731    4.1635    2.2159 C   0  0  0  0  0  0  0  0  0  0  0  0
   -5.2090    3.0777    1.3319 Cl  0  0  0  0  0  0  0  0  0  0  0  0
   -4.5154    6.8884    1.0325 C   0  0  0  0  0  0  0  0  0  0  0  0
   -3.2805    7.3894    0.6129 C   0  0  0  0  0  0  0  0  0  0  0  0
   -2.1246    7.1948    1.3932 C   0  0  0  0  0  0  0  0  0  0  0  0
   -0.7762    7.4918    0.8745 C   0  0  0  0  0  0  0  0  0  0  0  0
   -0.0451    6.6584   -0.3918 S   0  0  0  0  0  0  0  0  0  0  0  0
    1.4677    7.3755   -0.2317 C   0  0  0  0  0  0  0  0  0  0  0  0
    2.6679    7.0186   -1.0546 C   0  0  0  0  0  0  0  0  0  0  0  0
    3.5582    6.0148   -0.3295 C   0  0  0  0  0  0  0  0  0  0  0  0
    1.4282    8.2606    0.8472 C   0  0  0  0  0  0  0  0  0  0  0  0
    0.1726    8.3177    1.4710 C   0  0  0  0  0  0  0  0  0  0  0  0
   -0.1648    9.3142    2.8803 Cl  0  0  0  0  0  0  0  0  0  0  0  0
    2.8151    9.1949    1.3885 Cl  0  0  0  0  0  0  0  0  0  0  0  0
   -2.2676    6.4143    2.5504 C   0  0  0  0  0  0  0  0  0  0  0  0
   -1.0355    5.6222    3.3657 S   0  0  0  0  0  0  0  0  0  0  0  0
   -3.2828    7.8183   -0.7213 C   0  0  0  0  0  0  0  0  0  0  0  0
   -4.4702    7.5342   -1.4014 C   0  0  0  0  0  0  0  0  0  0  0  0
   -5.5695    6.9037   -0.2756 S   0  0  0  0  0  0  0  0  0  0  0  0
   -4.4502    7.1163   -2.8183 C   0  0  0  0  0  0  0  0  0  0  0  0
   -5.0062    5.9013   -3.2277 C   0  0  0  0  0  0  0  0  0  0  0  0
   -4.2868    5.2719   -4.2570 C   0  0  0  0  0  0  0  0  0  0  0  0
   -4.4040    3.9144   -4.6173 C   0  0  0  0  0  0  0  0  0  0  0  0
   -5.4426    3.0472   -4.0397 C   0  0  0  0  0  0  0  0  0  0  0  0
   -5.4955    2.5447   -2.4339 S   0  0  0  0  0  0  0  0  0  0  0  0
   -6.9594    1.7267   -2.5564 C   0  0  0  0  0  0  0  0  0  0  0  0
   -7.5985    0.9575   -1.4422 C   0  0  0  0  0  0  0  0  0  0  0  0
   -7.2506   -0.5223   -1.5400 C   0  0  0  0  0  0  0  0  0  0  0  0
   -7.4177    1.8189   -3.8718 C   0  0  0  0  0  0  0  0  0  0  0  0
   -8.9212    1.0986   -4.4286 Cl  0  0  0  0  0  0  0  0  0  0  0  0
   -6.5640    2.5625   -4.7016 C   0  0  0  0  0  0  0  0  0  0  0  0
   -6.8925    2.8793   -6.3997 Cl  0  0  0  0  0  0  0  0  0  0  0  0
   -3.3842    3.3789   -5.4202 C   0  0  0  0  0  0  0  0  0  0  0  0
   -2.3246    4.1542   -5.9017 C   0  0  0  0  0  0  0  0  0  0  0  0
   -2.2399    5.5290   -5.5928 C   0  0  0  0  0  0  0  0  0  0  0  0
   -1.0477    6.3266   -5.9332 C   0  0  0  0  0  0  0  0  0  0  0  0
    0.5192    5.9692   -5.4345 S   0  0  0  0  0  0  0  0  0  0  0  0
    1.2548    7.2757   -6.1987 C   0  0  0  0  0  0  0  0  0  0  0  0
    2.7207    7.5756   -6.1394 C   0  0  0  0  0  0  0  0  0  0  0  0
    3.0514    8.4092   -4.9086 C   0  0  0  0  0  0  0  0  0  0  0  0
    0.2696    8.0379   -6.8265 C   0  0  0  0  0  0  0  0  0  0  0  0
   -1.0224    7.5085   -6.6762 C   0  0  0  0  0  0  0  0  0  0  0  0
   -2.4550    8.2233   -7.4010 Cl  0  0  0  0  0  0  0  0  0  0  0  0
    0.6043    9.5127   -7.7239 Cl  0  0  0  0  0  0  0  0  0  0  0  0
   -3.2346    6.0485   -4.7478 C   0  0  0  0  0  0  0  0  0  0  0  0
   -3.1562    7.4675   -3.8514 S   0  0  0  0  0  0  0  0  0  0  0  0
   -1.3375    3.3943   -6.5430 C   0  0  0  0  0  0  0  0  0  0  0  0
   -1.5573    2.0204   -6.4587 C   0  0  0  0  0  0  0  0  0  0  0  0
   -3.0494    1.7518   -5.7109 S   0  0  0  0  0  0  0  0  0  0  0  0
   -0.5498    0.9733   -6.7173 C   0  0  0  0  0  0  0  0  0  0  0  0
   -0.9199   -0.6273   -7.0829 S   0  0  0  0  0  0  0  0  0  0  0  0
    0.6638   -1.1880   -7.1076 C   0  0  0  0  0  0  0  0  0  0  0  0
    1.5224   -0.1342   -6.7902 C   0  0  0  0  0  0  0  0  0  0  0  0
    0.8377    1.0686   -6.5271 C   0  0  0  0  0  0  0  0  0  0  0  0
    1.5567    2.2972   -6.0240 C   0  0  0  0  0  0  0  0  0  0  0  0
    2.9030    1.9463   -5.3710 C   0  0  2  0  0  0  0  0  0  0  0  0
    3.6734    3.2109   -5.0547 C   0  0  0  0  0  0  0  0  0  0  0  0
    4.0769    3.9123   -5.9720 O   0  0  0  0  0  0  0  0  0  0  0  0
    3.8957    3.6563   -3.6364 C   0  0  0  0  0  0  0  0  0  0  0  0
    2.8085    4.3972   -3.2202 F   0  0  0  0  0  0  0  0  0  0  0  0
    4.0544    2.5679   -2.7987 F   0  0  0  0  0  0  0  0  0  0  0  0
    5.0373    4.4396   -3.5591 F   0  0  0  0  0  0  0  0  0  0  0  0
    3.7166    1.0271   -6.2986 C   0  0  0  0  0  0  0  0  0  0  0  0
    2.9969   -0.3109   -6.5103 C   0  0  0  0  0  0  0  0  0  0  0  0
    1.0433   -2.5932   -7.2618 C   0  0  0  0  0  0  0  0  0  0  0  0
    2.0253   -3.0757   -8.1208 C   0  0  0  0  0  0  0  0  0  0  0  0
    2.2523   -4.4498   -7.9657 C   0  0  0  0  0  0  0  0  0  0  0  0
    3.1957   -5.2212   -8.6681 C   0  0  0  0  0  0  0  0  0  0  0  0
    4.0784   -4.6228   -9.6799 C   0  0  0  0  0  0  0  0  0  0  0  0
    5.3292   -3.5524   -9.3442 S   0  0  0  0  0  0  0  0  0  0  0  0
    5.7648   -3.2829  -10.9476 C   0  0  0  0  0  0  0  0  0  0  0  0
    6.8271   -2.3209  -11.3892 C   0  0  0  0  0  0  0  0  0  0  0  0
    6.2457   -0.9210  -11.5578 C   0  0  0  0  0  0  0  0  0  0  0  0
    4.9074   -4.0091  -11.7726 C   0  0  0  0  0  0  0  0  0  0  0  0
    4.9683   -3.9559  -13.5283 Cl  0  0  0  0  0  0  0  0  0  0  0  0
    3.9665   -4.7700  -11.0593 C   0  0  0  0  0  0  0  0  0  0  0  0
    2.7200   -5.7468  -11.8240 Cl  0  0  0  0  0  0  0  0  0  0  0  0
    3.2764   -6.5829   -8.3409 C   0  0  0  0  0  0  0  0  0  0  0  0
    2.4818   -7.1650   -7.3493 C   0  0  0  0  0  0  0  0  0  0  0  0
    1.5425   -6.3914   -6.6387 C   0  0  0  0  0  0  0  0  0  0  0  0
    0.7475   -6.9484   -5.5343 C   0  0  0  0  0  0  0  0  0  0  0  0
   -0.9249   -7.1196   -5.5400 S   0  0  0  0  0  0  0  0  0  0  0  0
   -1.0397   -7.7496   -3.9827 C   0  0  0  0  0  0  0  0  0  0  0  0
   -2.3262   -8.1074   -3.3033 C   0  0  0  0  0  0  0  0  0  0  0  0
   -2.9961   -6.8675   -2.7204 C   0  0  0  0  0  0  0  0  0  0  0  0
    0.2361   -7.8041   -3.4259 C   0  0  0  0  0  0  0  0  0  0  0  0
    1.2401   -7.3601   -4.2972 C   0  0  0  0  0  0  0  0  0  0  0  0
    2.9388   -7.2675   -3.8500 Cl  0  0  0  0  0  0  0  0  0  0  0  0
    0.5592   -8.3515   -1.7839 Cl  0  0  0  0  0  0  0  0  0  0  0  0
    1.4396   -5.0359   -6.9896 C   0  0  0  0  0  0  0  0  0  0  0  0
    0.4456   -3.8558   -6.3140 S   0  0  0  0  0  0  0  0  0  0  0  0
    2.7435   -8.5323   -7.1677 C   0  0  0  0  0  0  0  0  0  0  0  0
    3.7473   -9.0135   -8.0043 C   0  0  0  0  0  0  0  0  0  0  0  0
    4.3099   -7.7492   -8.9721 S   0  0  0  0  0  0  0  0  0  0  0  0
    5.0361  -10.9336    9.3389 H   0  0  0  0  0  0  0  0  0  0  0  0
    5.8181   -9.3936    7.3900 H   0  0  0  0  0  0  0  0  0  0  0  0
    7.5836   -8.5706    2.3631 H   0  0  0  0  0  0  0  0  0  0  0  0
    8.7791   -7.3006    2.7991 H   0  0  0  0  0  0  0  0  0  0  0  0
    6.0752   -6.8329    1.3751 H   0  0  0  0  0  0  0  0  0  0  0  0
    7.2671   -5.5407    1.8158 H   0  0  0  0  0  0  0  0  0  0  0  0
    7.7050   -6.8055    0.6054 H   0  0  0  0  0  0  0  0  0  0  0  0
   -3.0106   -8.5339   11.8740 H   0  0  0  0  0  0  0  0  0  0  0  0
   -2.7360   -9.8640   10.6945 H   0  0  0  0  0  0  0  0  0  0  0  0
   -4.1454   -7.1832   10.0936 H   0  0  0  0  0  0  0  0  0  0  0  0
   -4.9384   -8.7914   10.3004 H   0  0  0  0  0  0  0  0  0  0  0  0
   -3.8421   -8.5092    8.8951 H   0  0  0  0  0  0  0  0  0  0  0  0
    0.0455   -5.1987    7.5845 H   0  0  0  0  0  0  0  0  0  0  0  0
   -0.2366   -2.6911    7.4614 H   0  0  0  0  0  0  0  0  0  0  0  0
   -2.8323    0.1568   12.2084 H   0  0  0  0  0  0  0  0  0  0  0  0
   -1.5340    1.3468   11.8623 H   0  0  0  0  0  0  0  0  0  0  0  0
    0.1902   -0.4518   11.9607 H   0  0  0  0  0  0  0  0  0  0  0  0
   -1.0991   -1.6856   12.2672 H   0  0  0  0  0  0  0  0  0  0  0  0
   -0.7756   -0.3921   13.4852 H   0  0  0  0  0  0  0  0  0  0  0  0
    1.2516    0.7379   -2.1617 H   0  0  0  0  0  0  0  0  0  0  0  0
   -0.4956    0.9658   -1.8324 H   0  0  0  0  0  0  0  0  0  0  0  0
   -0.1164   -1.0352   -3.2596 H   0  0  0  0  0  0  0  0  0  0  0  0
    0.9566   -1.7589   -2.0025 H   0  0  0  0  0  0  0  0  0  0  0  0
   -0.8065   -1.5211   -1.6667 H   0  0  0  0  0  0  0  0  0  0  0  0
   -0.5438    2.6856    2.8196 H   0  0  0  0  0  0  0  0  0  0  0  0
   -4.1776    4.2391    4.2544 H   0  0  0  0  0  0  0  0  0  0  0  0
  -10.2013    4.0399    3.4666 H   0  0  0  0  0  0  0  0  0  0  0  0
  -10.0310    5.7522    3.9831 H   0  0  0  0  0  0  0  0  0  0  0  0
   -8.9129    3.3038    5.5017 H   0  0  0  0  0  0  0  0  0  0  0  0
   -8.7802    5.0374    6.0244 H   0  0  0  0  0  0  0  0  0  0  0  0
  -10.3939    4.2371    5.9332 H   0  0  0  0  0  0  0  0  0  0  0  0
    2.3280    6.5726   -2.0106 H   0  0  0  0  0  0  0  0  0  0  0  0
    3.2501    7.9317   -1.2918 H   0  0  0  0  0  0  0  0  0  0  0  0
    3.9427    6.4504    0.6168 H   0  0  0  0  0  0  0  0  0  0  0  0
    4.4244    5.7555   -0.9734 H   0  0  0  0  0  0  0  0  0  0  0  0
    2.9941    5.0847   -0.1050 H   0  0  0  0  0  0  0  0  0  0  0  0
   -2.3799    8.1279   -1.2324 H   0  0  0  0  0  0  0  0  0  0  0  0
   -5.7855    5.4001   -2.6685 H   0  0  0  0  0  0  0  0  0  0  0  0
   -7.2375    1.3517   -0.4690 H   0  0  0  0  0  0  0  0  0  0  0  0
   -8.7012    1.0862   -1.4749 H   0  0  0  0  0  0  0  0  0  0  0  0
   -7.7364   -1.0761   -0.7093 H   0  0  0  0  0  0  0  0  0  0  0  0
   -7.6120   -0.9439   -2.5014 H   0  0  0  0  0  0  0  0  0  0  0  0
   -6.1503   -0.6639   -1.4678 H   0  0  0  0  0  0  0  0  0  0  0  0
    3.2872    6.6222   -6.0982 H   0  0  0  0  0  0  0  0  0  0  0  0
    3.0424    8.1148   -7.0546 H   0  0  0  0  0  0  0  0  0  0  0  0
    2.5160    9.3839   -4.9427 H   0  0  0  0  0  0  0  0  0  0  0  0
    4.1450    8.5972   -4.8668 H   0  0  0  0  0  0  0  0  0  0  0  0
    2.7544    7.8622   -3.9900 H   0  0  0  0  0  0  0  0  0  0  0  0
   -0.4592    3.8241   -6.9974 H   0  0  0  0  0  0  0  0  0  0  0  0
    1.7201    2.9830   -6.8855 H   0  0  0  0  0  0  0  0  0  0  0  0
    0.9326    2.8090   -5.2574 H   0  0  0  0  0  0  0  0  0  0  0  0
    2.6924    1.3932   -4.4261 H   0  0  0  0  0  0  0  0  0  0  0  0
    3.8670    1.5229   -7.2860 H   0  0  0  0  0  0  0  0  0  0  0  0
    4.7185    0.8348   -5.8586 H   0  0  0  0  0  0  0  0  0  0  0  0
    3.1137   -0.9302   -5.5945 H   0  0  0  0  0  0  0  0  0  0  0  0
    3.4834   -0.8387   -7.3546 H   0  0  0  0  0  0  0  0  0  0  0  0
    2.5505   -2.4497   -8.8299 H   0  0  0  0  0  0  0  0  0  0  0  0
    7.2689   -2.6562  -12.3509 H   0  0  0  0  0  0  0  0  0  0  0  0
    7.6382   -2.2945  -10.6313 H   0  0  0  0  0  0  0  0  0  0  0  0
    7.0514   -0.2208  -11.8593 H   0  0  0  0  0  0  0  0  0  0  0  0
    5.8076   -0.5658  -10.5996 H   0  0  0  0  0  0  0  0  0  0  0  0
    5.4598   -0.9179  -12.3449 H   0  0  0  0  0  0  0  0  0  0  0  0
   -3.0092   -8.5827   -4.0377 H   0  0  0  0  0  0  0  0  0  0  0  0
   -2.1387   -8.8425   -2.4912 H   0  0  0  0  0  0  0  0  0  0  0  0
   -3.2727   -6.1624   -3.5337 H   0  0  0  0  0  0  0  0  0  0  0  0
   -3.9178   -7.1662   -2.1797 H   0  0  0  0  0  0  0  0  0  0  0  0
   -2.3184   -6.3562   -2.0060 H   0  0  0  0  0  0  0  0  0  0  0  0
    2.2290   -9.1601   -6.4523 H   0  0  0  0  0  0  0  0  0  0  0  0
    4.1096  -10.0318   -8.0273 H   0  0  0  0  0  0  0  0  0  0  0  0
  1  2  2  0
  2  3  1  0
  3  4  2  0
  4  5  1  0
  5  6  1  0
  6  7  1  0
  7  8  1  0
  8  9  1  0
  7 10  2  0
 10 11  1  0
 10 12  1  0
 12 13  1  0
  4 14  1  0
 14 15  2  0
 15 16  1  0
 16 17  1  0
 17 18  1  0
 18 19  1  0
 19 20  1  0
 20 21  1  0
 19 22  2  0
 22 23  1  0
 23 24  1  0
 22 25  1  0
 16 26  2  0
 26 27  1  0
 15 28  1  0
 28 29  2  0
 29 30  1  0
 29 31  1  0
 31 32  2  0
 32 33  1  0
 33 34  2  0
 34 35  1  0
 35 36  1  0
 36 37  1  0
 37 38  1  0
 38 39  1  0
 37 40  2  0
 40 41  1  0
 40 42  1  0
 42 43  1  0
 34 44  1  0
 44 45  2  0
 45 46  1  0
 46 47  1  0
 47 48  1  0
 48 49  1  0
 49 50  1  0
 50 51  1  0
 49 52  2  0
 52 53  1  0
 53 54  1  0
 52 55  1  0
 46 56  2  0
 56 57  1  0
 45 58  1  0
 58 59  2  0
 59 60  1  0
 59 61  1  0
 61 62  2  0
 62 63  1  0
 63 64  2  0
 64 65  1  0
 65 66  1  0
 66 67  1  0
 67 68  1  0
 68 69  1  0
 67 70  2  0
 70 71  1  0
 70 72  1  0
 72 73  1  0
 64 74  1  0
 74 75  2  0
 75 76  1  0
 76 77  1  0
 77 78  1  0
 78 79  1  0
 79 80  1  0
 80 81  1  0
 79 82  2  0
 82 83  1  0
 83 84  1  0
 82 85  1  0
 76 86  2  0
 86 87  1  0
 75 88  1  0
 88 89  2  0
 89 90  1  0
 89 91  1  0
 91 92  2  0
 92 93  1  0
 93 94  2  0
 94 95  1  0
 95 96  1  0
 96 97  1  0
 97 98  1  0
 98 99  1  0
 97100  2  0
100101  1  0
100102  1  0
102103  1  0
 94104  1  0
104105  2  0
105106  1  0
106107  1  0
107108  1  0
108109  1  0
109110  1  0
110111  1  0
109112  2  0
112113  1  0
113114  1  0
112115  1  0
106116  2  0
116117  1  0
105118  1  0
118119  2  0
119120  1  0
119121  1  0
121122  1  0
122123  1  0
123124  2  0
124125  1  0
125126  1  0
126127  1  0
127128  1  0
128129  2  0
128130  1  0
130131  1  0
130132  1  0
130133  1  0
127134  1  0
134135  1  0
123136  1  0
136137  2  0
137138  1  0
138139  2  0
139140  1  0
140141  1  0
141142  1  0
142143  1  0
143144  1  0
142145  2  0
145146  1  0
145147  1  0
147148  1  0
139149  1  0
149150  2  0
150151  1  0
151152  1  0
152153  1  0
153154  1  0
154155  1  0
155156  1  0
154157  2  0
157158  1  0
158159  1  0
157160  1  0
151161  2  0
161162  1  0
150163  1  0
163164  2  0
164165  1  0
 27  1  1  0
 57 31  1  0
 87 61  1  0
117 91  1  0
125121  2  0
162136  1  0
 26  3  1  0
 56 33  1  0
 86 63  1  0
116 93  1  0
135124  1  0
161138  1  0
 12  5  2  0
 30 14  1  0
 42 35  2  0
 60 44  1  0
 72 65  2  0
 90 74  1  0
102 95  2  0
120104  1  0
147140  2  0
165149  1  0
 23 17  2  0
 53 47  2  0
 83 77  2  0
113107  2  0
158152  2  0
  1166  1  0
  2167  1  0
  8168  1  0
  8169  1  0
  9170  1  0
  9171  1  0
  9172  1  0
 20173  1  0
 20174  1  0
 21175  1  0
 21176  1  0
 21177  1  0
 28178  1  0
 32179  1  0
 38180  1  0
 38181  1  0
 39182  1  0
 39183  1  0
 39184  1  0
 50185  1  0
 50186  1  0
 51187  1  0
 51188  1  0
 51189  1  0
 58190  1  0
 62191  1  0
 68192  1  0
 68193  1  0
 69194  1  0
 69195  1  0
 69196  1  0
 80197  1  0
 80198  1  0
 81199  1  0
 81200  1  0
 81201  1  0
 88202  1  0
 92203  1  0
 98204  1  0
 98205  1  0
 99206  1  0
 99207  1  0
 99208  1  0
110209  1  0
110210  1  0
111211  1  0
111212  1  0
111213  1  0
118214  1  0
126215  1  0
126216  1  0
127217  1  1
134218  1  0
134219  1  0
135220  1  0
135221  1  0
137222  1  0
143223  1  0
143224  1  0
144225  1  0
144226  1  0
144227  1  0
155228  1  0
155229  1  0
156230  1  0
156231  1  0
156232  1  0
163233  1  0
164234  1  0
M  END

