
     RDKit          3D

236259  0  0  0  0  0  0  0  0999 V2000
    2.5962   -0.9375    9.0974 C   0  0  0  0  0  0  0  0  0  0  0  0
    2.2412   -0.1543    8.0041 C   0  0  0  0  0  0  0  0  0  0  0  0
    1.5681   -0.8709    6.9946 C   0  0  0  0  0  0  0  0  0  0  0  0
    1.0417   -0.3459    5.7894 C   0  0  0  0  0  0  0  0  0  0  0  0
    1.1004    1.1032    5.4894 C   0  0  0  0  0  0  0  0  0  0  0  0
   -0.0863    1.8359    5.3464 C   0  0  0  0  0  0  0  0  0  0  0  0
   -0.0440    3.2254    5.2013 C   0  0  0  0  0  0  0  0  0  0  0  0
    1.1839    3.8946    5.1754 C   0  0  0  0  0  0  0  0  0  0  0  0
    1.2075    5.6874    5.0491 S   0  0  0  0  0  0  0  0  0  0  0  0
    1.2698    5.7379    3.2247 C   0  0  0  0  0  0  0  0  0  0  0  0
    2.7132    5.8006    2.7469 C   0  0  0  0  0  0  0  0  0  0  0  0
    2.3746    3.1681    5.3087 C   0  0  0  0  0  0  0  0  0  0  0  0
    3.5716    3.8062    5.3368 F   0  0  0  0  0  0  0  0  0  0  0  0
    2.3307    1.7781    5.4590 C   0  0  0  0  0  0  0  0  0  0  0  0
    0.3654   -1.2524    4.9428 C   0  0  0  0  0  0  0  0  0  0  0  0
    0.1784   -2.5932    5.2898 C   0  0  0  0  0  0  0  0  0  0  0  0
    0.6670   -3.1059    6.5087 C   0  0  0  0  0  0  0  0  0  0  0  0
    0.3332   -4.4719    6.9739 C   0  0  0  0  0  0  0  0  0  0  0  0
   -1.0105   -4.8503    7.1253 C   0  0  0  0  0  0  0  0  0  0  0  0
   -1.3376   -6.1281    7.5853 C   0  0  0  0  0  0  0  0  0  0  0  0
   -0.3262   -7.0405    7.9028 C   0  0  0  0  0  0  0  0  0  0  0  0
   -0.7649   -8.6730    8.5046 S   0  0  0  0  0  0  0  0  0  0  0  0
   -0.8720   -9.3936    6.8334 C   0  0  0  0  0  0  0  0  0  0  0  0
   -1.2859  -10.8540    6.9272 C   0  0  0  0  0  0  0  0  0  0  0  0
    1.0182   -6.6689    7.7608 C   0  0  0  0  0  0  0  0  0  0  0  0
    1.3475   -5.3895    7.2983 C   0  0  0  0  0  0  0  0  0  0  0  0
    2.0071   -7.5431    8.0749 F   0  0  0  0  0  0  0  0  0  0  0  0
    1.3872   -2.2178    7.3226 C   0  0  0  0  0  0  0  0  0  0  0  0
    2.0582   -2.5104    8.8379 S   0  0  0  0  0  0  0  0  0  0  0  0
   -0.5144   -3.3267    4.3194 C   0  0  0  0  0  0  0  0  0  0  0  0
   -0.8882   -2.5718    3.2106 C   0  0  0  0  0  0  0  0  0  0  0  0
   -0.3327   -0.9844    3.4219 S   0  0  0  0  0  0  0  0  0  0  0  0
   -1.6457   -3.1060    2.0594 C   0  0  0  0  0  0  0  0  0  0  0  0
   -1.5698   -2.5754    0.4606 S   0  0  0  0  0  0  0  0  0  0  0  0
   -2.6170   -3.7338   -0.1952 C   0  0  0  0  0  0  0  0  0  0  0  0
   -2.9959   -4.5938    0.8467 C   0  0  0  0  0  0  0  0  0  0  0  0
   -2.4936   -4.2089    2.0986 C   0  0  0  0  0  0  0  0  0  0  0  0
   -2.8795   -4.8292    3.2952 O   0  0  0  0  0  0  0  0  0  0  0  0
   -3.7144   -5.9851    3.3637 C   0  0  0  0  0  0  0  0  0  0  0  0
   -4.7453   -6.0080    2.2337 C   0  0  0  0  0  0  0  0  0  0  0  0
   -3.8715   -6.1538    0.6461 S   0  0  0  0  0  0  0  0  0  0  0  0
   -2.9580   -3.8375   -1.6352 C   0  0  0  0  0  0  0  0  0  0  0  0
   -4.1033   -4.3895   -2.0581 C   0  0  0  0  0  0  0  0  0  0  0  0
   -4.4429   -4.6150   -3.4758 C   0  0  0  0  0  0  0  0  0  0  0  0
   -3.6904   -3.9639   -4.8423 S   0  0  0  0  0  0  0  0  0  0  0  0
   -4.6614   -4.7511   -5.9865 C   0  0  0  0  0  0  0  0  0  0  0  0
   -5.5635   -5.5573   -5.3029 C   0  0  0  0  0  0  0  0  0  0  0  0
   -5.4304   -5.4948   -3.9098 C   0  0  0  0  0  0  0  0  0  0  0  0
   -6.1405   -6.3309   -3.0381 O   0  0  0  0  0  0  0  0  0  0  0  0
   -7.0470   -7.3465   -3.4849 C   0  0  0  0  0  0  0  0  0  0  0  0
   -6.6310   -7.9213   -4.8429 C   0  0  0  0  0  0  0  0  0  0  0  0
   -6.7748   -6.6133   -6.1060 S   0  0  0  0  0  0  0  0  0  0  0  0
   -4.5126   -4.7080   -7.4550 C   0  0  0  0  0  0  0  0  0  0  0  0
   -4.3144   -3.5999   -8.1836 C   0  0  0  0  0  0  0  0  0  0  0  0
   -4.3200   -2.2301   -7.6541 C   0  0  0  0  0  0  0  0  0  0  0  0
   -5.1251   -1.7217   -6.6330 C   0  0  0  0  0  0  0  0  0  0  0  0
   -4.7837   -0.4096   -6.2764 C   0  0  0  0  0  0  0  0  0  0  0  0
   -5.3047    0.3114   -5.1885 C   0  0  0  0  0  0  0  0  0  0  0  0
   -6.3061   -0.2736   -4.2819 C   0  0  0  0  0  0  0  0  0  0  0  0
   -7.6663    0.0154   -4.4615 C   0  0  0  0  0  0  0  0  0  0  0  0
   -8.6190   -0.5452   -3.6053 C   0  0  0  0  0  0  0  0  0  0  0  0
   -8.2188   -1.3954   -2.5679 C   0  0  0  0  0  0  0  0  0  0  0  0
   -9.4555   -2.1405   -1.5033 S   0  0  0  0  0  0  0  0  0  0  0  0
   -9.6782   -3.5859   -2.5919 C   0  0  0  0  0  0  0  0  0  0  0  0
  -10.7982   -4.4689   -2.0654 C   0  0  0  0  0  0  0  0  0  0  0  0
   -6.8573   -1.6689   -2.3724 C   0  0  0  0  0  0  0  0  0  0  0  0
   -6.4590   -2.4751   -1.3565 F   0  0  0  0  0  0  0  0  0  0  0  0
   -5.9040   -1.1128   -3.2317 C   0  0  0  0  0  0  0  0  0  0  0  0
   -4.7072    1.5473   -4.9005 C   0  0  0  0  0  0  0  0  0  0  0  0
   -3.6623    2.0750   -5.6648 C   0  0  0  0  0  0  0  0  0  0  0  0
   -3.1688    1.3735   -6.7852 C   0  0  0  0  0  0  0  0  0  0  0  0
   -1.9936    1.8457   -7.5496 C   0  0  0  0  0  0  0  0  0  0  0  0
   -0.8146    1.0840   -7.5773 C   0  0  0  0  0  0  0  0  0  0  0  0
    0.2793    1.5045   -8.3361 C   0  0  0  0  0  0  0  0  0  0  0  0
    0.2087    2.6922   -9.0728 C   0  0  0  0  0  0  0  0  0  0  0  0
    1.6048    3.1996  -10.0857 S   0  0  0  0  0  0  0  0  0  0  0  0
    0.9637    2.4527  -11.6276 C   0  0  0  0  0  0  0  0  0  0  0  0
    1.3399    0.9789  -11.7207 C   0  0  0  0  0  0  0  0  0  0  0  0
   -0.9499    3.4797   -9.0151 C   0  0  0  0  0  0  0  0  0  0  0  0
   -2.0502    3.0556   -8.2611 C   0  0  0  0  0  0  0  0  0  0  0  0
   -1.0233    4.6454   -9.7056 F   0  0  0  0  0  0  0  0  0  0  0  0
   -3.7507    0.1219   -7.0530 C   0  0  0  0  0  0  0  0  0  0  0  0
   -3.2621   -1.0299   -8.1774 S   0  0  0  0  0  0  0  0  0  0  0  0
   -3.0506    3.1846   -5.0664 C   0  0  0  0  0  0  0  0  0  0  0  0
   -3.5607    3.4857   -3.8000 C   0  0  0  0  0  0  0  0  0  0  0  0
   -4.8380    2.4273   -3.4764 S   0  0  0  0  0  0  0  0  0  0  0  0
   -2.7257    4.0822   -2.7427 C   0  0  0  0  0  0  0  0  0  0  0  0
   -2.6727    3.5510   -1.4516 C   0  0  0  0  0  0  0  0  0  0  0  0
   -1.4120    3.6792   -0.8457 C   0  0  0  0  0  0  0  0  0  0  0  0
   -0.9863    3.0178    0.3263 C   0  0  0  0  0  0  0  0  0  0  0  0
   -1.9090    2.2255    1.1645 C   0  0  0  0  0  0  0  0  0  0  0  0
   -2.1859    2.6448    2.4718 C   0  0  0  0  0  0  0  0  0  0  0  0
   -3.0698    1.9168    3.2720 C   0  0  0  0  0  0  0  0  0  0  0  0
   -3.6915    0.7697    2.7669 C   0  0  0  0  0  0  0  0  0  0  0  0
   -4.8653   -0.1283    3.7843 S   0  0  0  0  0  0  0  0  0  0  0  0
   -6.2941    0.8003    3.1345 C   0  0  0  0  0  0  0  0  0  0  0  0
   -7.5721    0.3426    3.8190 C   0  0  0  0  0  0  0  0  0  0  0  0
   -3.4189    0.3450    1.4604 C   0  0  0  0  0  0  0  0  0  0  0  0
   -4.0535   -0.7393    0.9487 F   0  0  0  0  0  0  0  0  0  0  0  0
   -2.5158    1.0614    0.6661 C   0  0  0  0  0  0  0  0  0  0  0  0
    0.3887    3.0543    0.6093 C   0  0  0  0  0  0  0  0  0  0  0  0
    1.3011    3.7387   -0.2004 C   0  0  0  0  0  0  0  0  0  0  0  0
    0.8654    4.4734   -1.3187 C   0  0  0  0  0  0  0  0  0  0  0  0
    1.8261    5.1794   -2.1953 C   0  0  0  0  0  0  0  0  0  0  0  0
    2.0285    4.7646   -3.5217 C   0  0  0  0  0  0  0  0  0  0  0  0
    2.9750    5.4095   -4.3229 C   0  0  0  0  0  0  0  0  0  0  0  0
    3.7390    6.4610   -3.8037 C   0  0  0  0  0  0  0  0  0  0  0  0
    4.9812    7.2597   -4.8252 S   0  0  0  0  0  0  0  0  0  0  0  0
    3.8310    8.5351   -5.4377 C   0  0  0  0  0  0  0  0  0  0  0  0
    4.6047    9.6154   -6.1767 C   0  0  0  0  0  0  0  0  0  0  0  0
    3.5460    6.8739   -2.4781 C   0  0  0  0  0  0  0  0  0  0  0  0
    2.5886    6.2387   -1.6805 C   0  0  0  0  0  0  0  0  0  0  0  0
    4.2877    7.8845   -1.9592 F   0  0  0  0  0  0  0  0  0  0  0  0
   -0.5020    4.3962   -1.6284 C   0  0  0  0  0  0  0  0  0  0  0  0
   -1.2488    4.8340   -3.0668 S   0  0  0  0  0  0  0  0  0  0  0  0
    2.6354    3.4505    0.1113 C   0  0  0  0  0  0  0  0  0  0  0  0
    2.7677    2.5411    1.1544 C   0  0  0  0  0  0  0  0  0  0  0  0
    1.2378    2.1023    1.7119 S   0  0  0  0  0  0  0  0  0  0  0  0
    3.9973    1.7940    1.4248 C   0  0  0  0  0  0  0  0  0  0  0  0
    4.9069    1.4153    0.4444 C   0  0  0  0  0  0  0  0  0  0  0  0
    5.9237    0.5875    0.9324 C   0  0  0  0  0  0  0  0  0  0  0  0
    6.9561    0.0204    0.1664 C   0  0  0  0  0  0  0  0  0  0  0  0
    6.9668    0.1424   -1.3055 C   0  0  0  0  0  0  0  0  0  0  0  0
    7.9208    0.9403   -1.9541 C   0  0  0  0  0  0  0  0  0  0  0  0
    7.8318    1.1574   -3.3347 C   0  0  0  0  0  0  0  0  0  0  0  0
    6.7949    0.5721   -4.0741 C   0  0  0  0  0  0  0  0  0  0  0  0
    6.6556    0.8942   -5.8353 S   0  0  0  0  0  0  0  0  0  0  0  0
    5.4909    2.2845   -5.6243 C   0  0  0  0  0  0  0  0  0  0  0  0
    4.9855    2.7463   -6.9837 C   0  0  0  0  0  0  0  0  0  0  0  0
    5.8645   -0.2564   -3.4355 C   0  0  0  0  0  0  0  0  0  0  0  0
    4.8574   -0.8334   -4.1402 F   0  0  0  0  0  0  0  0  0  0  0  0
    5.9471   -0.4655   -2.0559 C   0  0  0  0  0  0  0  0  0  0  0  0
    7.9075   -0.7461    0.8567 C   0  0  0  0  0  0  0  0  0  0  0  0
    7.8287   -0.9857    2.2332 C   0  0  0  0  0  0  0  0  0  0  0  0
    6.7641   -0.4499    2.9968 C   0  0  0  0  0  0  0  0  0  0  0  0
    6.6277   -0.6955    4.4511 C   0  0  0  0  0  0  0  0  0  0  0  0
    5.4576   -1.2784    4.9677 C   0  0  0  0  0  0  0  0  0  0  0  0
    5.3337   -1.5145    6.3395 C   0  0  0  0  0  0  0  0  0  0  0  0
    6.3783   -1.1780    7.2096 C   0  0  0  0  0  0  0  0  0  0  0  0
    6.2105   -1.4920    8.9702 S   0  0  0  0  0  0  0  0  0  0  0  0
    6.7861   -3.2249    8.8949 C   0  0  0  0  0  0  0  0  0  0  0  0
    8.3046   -3.3038    8.7962 C   0  0  0  0  0  0  0  0  0  0  0  0
    7.5391   -0.5764    6.7031 C   0  0  0  0  0  0  0  0  0  0  0  0
    7.6631   -0.3375    5.3314 C   0  0  0  0  0  0  0  0  0  0  0  0
    8.5491   -0.2230    7.5374 F   0  0  0  0  0  0  0  0  0  0  0  0
    5.8246    0.3366    2.3031 C   0  0  0  0  0  0  0  0  0  0  0  0
    4.4487    1.1095    2.8974 S   0  0  0  0  0  0  0  0  0  0  0  0
    8.8559   -1.8266    2.6979 C   0  0  0  0  0  0  0  0  0  0  0  0
    9.7348   -2.2273    1.6956 C   0  0  0  0  0  0  0  0  0  0  0  0
    9.2364   -1.5615    0.2278 S   0  0  0  0  0  0  0  0  0  0  0  0
    3.1202   -0.5867    9.9768 H   0  0  0  0  0  0  0  0  0  0  0  0
    2.4556    0.9044    7.9670 H   0  0  0  0  0  0  0  0  0  0  0  0
   -1.0466    1.3371    5.3987 H   0  0  0  0  0  0  0  0  0  0  0  0
   -0.9694    3.7831    5.1344 H   0  0  0  0  0  0  0  0  0  0  0  0
    0.7578    4.8603    2.7845 H   0  0  0  0  0  0  0  0  0  0  0  0
    0.7353    6.6481    2.8809 H   0  0  0  0  0  0  0  0  0  0  0  0
    3.2564    4.8742    3.0199 H   0  0  0  0  0  0  0  0  0  0  0  0
    2.7350    5.9114    1.6442 H   0  0  0  0  0  0  0  0  0  0  0  0
    3.2261    6.6751    3.1959 H   0  0  0  0  0  0  0  0  0  0  0  0
    3.2553    1.2306    5.5920 H   0  0  0  0  0  0  0  0  0  0  0  0
   -1.8062   -4.1512    6.8941 H   0  0  0  0  0  0  0  0  0  0  0  0
   -2.3785   -6.4066    7.6947 H   0  0  0  0  0  0  0  0  0  0  0  0
    0.1183   -9.3227    6.3348 H   0  0  0  0  0  0  0  0  0  0  0  0
   -1.6244   -8.8384    6.2325 H   0  0  0  0  0  0  0  0  0  0  0  0
   -2.2865  -10.9389    7.4028 H   0  0  0  0  0  0  0  0  0  0  0  0
   -1.3369  -11.2924    5.9071 H   0  0  0  0  0  0  0  0  0  0  0  0
   -0.5435  -11.4255    7.5256 H   0  0  0  0  0  0  0  0  0  0  0  0
    2.3892   -5.1112    7.1923 H   0  0  0  0  0  0  0  0  0  0  0  0
   -0.7060   -4.3863    4.4054 H   0  0  0  0  0  0  0  0  0  0  0  0
   -4.2422   -5.9825    4.3417 H   0  0  0  0  0  0  0  0  0  0  0  0
   -3.0819   -6.8982    3.3167 H   0  0  0  0  0  0  0  0  0  0  0  0
   -5.4119   -6.8867    2.3586 H   0  0  0  0  0  0  0  0  0  0  0  0
   -5.3617   -5.0834    2.2506 H   0  0  0  0  0  0  0  0  0  0  0  0
   -2.2487   -3.4455   -2.3528 H   0  0  0  0  0  0  0  0  0  0  0  0
   -4.8430   -4.7041   -1.3364 H   0  0  0  0  0  0  0  0  0  0  0  0
   -7.0679   -8.1612   -2.7305 H   0  0  0  0  0  0  0  0  0  0  0  0
   -8.0735   -6.9216   -3.5548 H   0  0  0  0  0  0  0  0  0  0  0  0
   -7.3050   -8.7624   -5.1134 H   0  0  0  0  0  0  0  0  0  0  0  0
   -5.5833   -8.2988   -4.8012 H   0  0  0  0  0  0  0  0  0  0  0  0
   -4.5630   -5.6518   -7.9810 H   0  0  0  0  0  0  0  0  0  0  0  0
   -4.1082   -3.7195   -9.2389 H   0  0  0  0  0  0  0  0  0  0  0  0
   -5.8966   -2.2956   -6.1377 H   0  0  0  0  0  0  0  0  0  0  0  0
   -7.9863    0.6670   -5.2645 H   0  0  0  0  0  0  0  0  0  0  0  0
   -9.6700   -0.3301   -3.7590 H   0  0  0  0  0  0  0  0  0  0  0  0
   -9.9386   -3.2447   -3.6168 H   0  0  0  0  0  0  0  0  0  0  0  0
   -8.7331   -4.1696   -2.6322 H   0  0  0  0  0  0  0  0  0  0  0  0
  -10.9339   -5.3368   -2.7443 H   0  0  0  0  0  0  0  0  0  0  0  0
  -11.7490   -3.8947   -2.0222 H   0  0  0  0  0  0  0  0  0  0  0  0
  -10.5450   -4.8450   -1.0518 H   0  0  0  0  0  0  0  0  0  0  0  0
   -4.8540   -1.3331   -3.0791 H   0  0  0  0  0  0  0  0  0  0  0  0
   -0.7439    0.1629   -7.0096 H   0  0  0  0  0  0  0  0  0  0  0  0
    1.1771    0.9007   -8.3592 H   0  0  0  0  0  0  0  0  0  0  0  0
    1.4133    2.9969  -12.4840 H   0  0  0  0  0  0  0  0  0  0  0  0
   -0.1385    2.5623  -11.6956 H   0  0  0  0  0  0  0  0  0  0  0  0
    1.0118    0.5796  -12.7051 H   0  0  0  0  0  0  0  0  0  0  0  0
    0.8415    0.3996  -10.9165 H   0  0  0  0  0  0  0  0  0  0  0  0
    2.4410    0.8581  -11.6354 H   0  0  0  0  0  0  0  0  0  0  0  0
   -2.9492    3.6603   -8.2390 H   0  0  0  0  0  0  0  0  0  0  0  0
   -2.1453    3.6299   -5.4563 H   0  0  0  0  0  0  0  0  0  0  0  0
   -3.4628    2.9383   -1.0420 H   0  0  0  0  0  0  0  0  0  0  0  0
   -1.7312    3.5483    2.8593 H   0  0  0  0  0  0  0  0  0  0  0  0
   -3.2846    2.2562    4.2775 H   0  0  0  0  0  0  0  0  0  0  0  0
   -6.1499    1.8858    3.3159 H   0  0  0  0  0  0  0  0  0  0  0  0
   -6.3816    0.6250    2.0411 H   0  0  0  0  0  0  0  0  0  0  0  0
   -7.5230    0.5624    4.9068 H   0  0  0  0  0  0  0  0  0  0  0  0
   -8.4405    0.8819    3.3827 H   0  0  0  0  0  0  0  0  0  0  0  0
   -7.7179   -0.7477    3.6688 H   0  0  0  0  0  0  0  0  0  0  0  0
   -2.3039    0.7187   -0.3406 H   0  0  0  0  0  0  0  0  0  0  0  0
    1.4669    3.9331   -3.9308 H   0  0  0  0  0  0  0  0  0  0  0  0
    3.1165    5.0896   -5.3460 H   0  0  0  0  0  0  0  0  0  0  0  0
    3.2879    8.9983   -4.5862 H   0  0  0  0  0  0  0  0  0  0  0  0
    3.0963    8.0648   -6.1246 H   0  0  0  0  0  0  0  0  0  0  0  0
    3.9050   10.4043   -6.5247 H   0  0  0  0  0  0  0  0  0  0  0  0
    5.3505   10.0813   -5.4991 H   0  0  0  0  0  0  0  0  0  0  0  0
    5.1266    9.1847   -7.0566 H   0  0  0  0  0  0  0  0  0  0  0  0
    2.4443    6.5691   -0.6593 H   0  0  0  0  0  0  0  0  0  0  0  0
    3.4766    3.8083   -0.4678 H   0  0  0  0  0  0  0  0  0  0  0  0
    4.8113    1.7041   -0.5954 H   0  0  0  0  0  0  0  0  0  0  0  0
    8.7083    1.4223   -1.3863 H   0  0  0  0  0  0  0  0  0  0  0  0
    8.5572    1.7935   -3.8242 H   0  0  0  0  0  0  0  0  0  0  0  0
    6.0069    3.1282   -5.1157 H   0  0  0  0  0  0  0  0  0  0  0  0
    4.6257    1.9673   -5.0047 H   0  0  0  0  0  0  0  0  0  0  0  0
    5.8331    3.0928   -7.6112 H   0  0  0  0  0  0  0  0  0  0  0  0
    4.2704    3.5842   -6.8543 H   0  0  0  0  0  0  0  0  0  0  0  0
    4.4611    1.9110   -7.4970 H   0  0  0  0  0  0  0  0  0  0  0  0
    5.1987   -1.0779   -1.5628 H   0  0  0  0  0  0  0  0  0  0  0  0
    4.6446   -1.5591    4.3078 H   0  0  0  0  0  0  0  0  0  0  0  0
    4.4308   -1.9702    6.7231 H   0  0  0  0  0  0  0  0  0  0  0  0
    6.3209   -3.7553    8.0367 H   0  0  0  0  0  0  0  0  0  0  0  0
    6.4614   -3.7353    9.8251 H   0  0  0  0  0  0  0  0  0  0  0  0
    8.6483   -2.9531    7.8024 H   0  0  0  0  0  0  0  0  0  0  0  0
    8.7775   -2.6866    9.5896 H   0  0  0  0  0  0  0  0  0  0  0  0
    8.6304   -4.3565    8.9267 H   0  0  0  0  0  0  0  0  0  0  0  0
    8.5644    0.1296    4.9534 H   0  0  0  0  0  0  0  0  0  0  0  0
    8.9583   -2.1539    3.7245 H   0  0  0  0  0  0  0  0  0  0  0  0
   10.5887   -2.8756    1.8349 H   0  0  0  0  0  0  0  0  0  0  0  0
  1  2  2  0
  2  3  1  0
  3  4  2  0
  4  5  1  0
  5  6  2  0
  6  7  1  0
  7  8  2  0
  8  9  1  0
  9 10  1  0
 10 11  1  0
  8 12  1  0
 12 13  1  0
 12 14  2  0
  4 15  1  0
 15 16  2  0
 16 17  1  0
 17 18  1  0
 18 19  2  0
 19 20  1  0
 20 21  2  0
 21 22  1  0
 22 23  1  0
 23 24  1  0
 21 25  1  0
 25 26  2  0
 25 27  1  0
 17 28  2  0
 28 29  1  0
 16 30  1  0
 30 31  2  0
 31 32  1  0
 31 33  1  0
 33 34  1  0
 34 35  1  0
 35 36  2  0
 36 37  1  0
 37 38  1  0
 38 39  1  0
 39 40  1  0
 40 41  1  0
 35 42  1  0
 42 43  2  3
 43 44  1  0
 44 45  1  0
 45 46  1  0
 46 47  2  0
 47 48  1  0
 48 49  1  0
 49 50  1  0
 50 51  1  0
 51 52  1  0
 46 53  1  0
 53 54  2  3
 54 55  1  0
 55 56  2  0
 56 57  1  0
 57 58  2  0
 58 59  1  0
 59 60  2  0
 60 61  1  0
 61 62  2  0
 62 63  1  0
 63 64  1  0
 64 65  1  0
 62 66  1  0
 66 67  1  0
 66 68  2  0
 58 69  1  0
 69 70  2  0
 70 71  1  0
 71 72  1  0
 72 73  2  0
 73 74  1  0
 74 75  2  0
 75 76  1  0
 76 77  1  0
 77 78  1  0
 75 79  1  0
 79 80  2  0
 79 81  1  0
 71 82  2  0
 82 83  1  0
 70 84  1  0
 84 85  2  0
 85 86  1  0
 85 87  1  0
 87 88  2  0
 88 89  1  0
 89 90  2  0
 90 91  1  0
 91 92  2  0
 92 93  1  0
 93 94  2  0
 94 95  1  0
 95 96  1  0
 96 97  1  0
 94 98  1  0
 98 99  1  0
 98100  2  0
 90101  1  0
101102  2  0
102103  1  0
103104  1  0
104105  2  0
105106  1  0
106107  2  0
107108  1  0
108109  1  0
109110  1  0
107111  1  0
111112  2  0
111113  1  0
103114  2  0
114115  1  0
102116  1  0
116117  2  0
117118  1  0
117119  1  0
119120  2  0
120121  1  0
121122  2  0
122123  1  0
123124  2  0
124125  1  0
125126  2  0
126127  1  0
127128  1  0
128129  1  0
126130  1  0
130131  1  0
130132  2  0
122133  1  0
133134  2  0
134135  1  0
135136  1  0
136137  2  0
137138  1  0
138139  2  0
139140  1  0
140141  1  0
141142  1  0
139143  1  0
143144  2  0
143145  1  0
135146  2  0
146147  1  0
134148  1  0
148149  2  0
149150  1  0
 29  1  1  0
 37 33  2  0
 48 44  2  0
 83 55  1  0
115 87  1  0
147119  1  0
 28  3  1  0
 41 36  1  0
 52 47  1  0
 82 57  1  0
114 89  1  0
146121  1  0
 14  5  1  0
 32 15  1  0
 68 59  1  0
 86 69  1  0
100 91  1  0
118101  1  0
132123  1  0
150133  1  0
 26 18  1  0
 80 72  1  0
112104  1  0
144136  1  0
  1151  1  0
  2152  1  0
  6153  1  0
  7154  1  0
 10155  1  0
 10156  1  0
 11157  1  0
 11158  1  0
 11159  1  0
 14160  1  0
 19161  1  0
 20162  1  0
 23163  1  0
 23164  1  0
 24165  1  0
 24166  1  0
 24167  1  0
 26168  1  0
 30169  1  0
 39170  1  0
 39171  1  0
 40172  1  0
 40173  1  0
 42174  1  0
 43175  1  0
 50176  1  0
 50177  1  0
 51178  1  0
 51179  1  0
 53180  1  0
 54181  1  0
 56182  1  0
 60183  1  0
 61184  1  0
 64185  1  0
 64186  1  0
 65187  1  0
 65188  1  0
 65189  1  0
 68190  1  0
 73191  1  0
 74192  1  0
 77193  1  0
 77194  1  0
 78195  1  0
 78196  1  0
 78197  1  0
 80198  1  0
 84199  1  0
 88200  1  0
 92201  1  0
 93202  1  0
 96203  1  0
 96204  1  0
 97205  1  0
 97206  1  0
 97207  1  0
100208  1  0
105209  1  0
106210  1  0
109211  1  0
109212  1  0
110213  1  0
110214  1  0
110215  1  0
112216  1  0
116217  1  0
120218  1  0
124219  1  0
125220  1  0
128221  1  0
128222  1  0
129223  1  0
129224  1  0
129225  1  0
132226  1  0
137227  1  0
138228  1  0
141229  1  0
141230  1  0
142231  1  0
142232  1  0
142233  1  0
144234  1  0
148235  1  0
149236  1  0
M  END

