
     RDKit          3D

203223  0  0  0  0  0  0  0  0999 V2000
    5.9462   -5.0098    3.9875 C   0  0  0  0  0  0  0  0  0  0  0  0
    5.7450   -3.6564    4.2405 C   0  0  0  0  0  0  0  0  0  0  0  0
    4.4740   -3.3750    4.7754 C   0  0  0  0  0  0  0  0  0  0  0  0
    3.9683   -2.1038    5.1438 C   0  0  0  0  0  0  0  0  0  0  0  0
    4.7724   -0.8624    5.0088 C   0  0  0  0  0  0  0  0  0  0  0  0
    5.3344   -0.5008    3.7740 C   0  0  0  0  0  0  0  0  0  0  0  0
    6.1359    0.6397    3.6667 C   0  0  0  0  0  0  0  0  0  0  0  0
    6.3674    1.4469    4.7877 C   0  0  0  0  0  0  0  0  0  0  0  0
    7.4591    2.8687    4.6608 S   0  0  0  0  0  0  0  0  0  0  0  0
    6.2028    4.0087    3.9807 C   0  0  0  0  0  0  0  0  0  0  0  0
    5.2209    4.4695    5.0514 C   0  0  0  0  0  0  0  0  0  0  0  0
    5.7968    1.0982    6.0219 C   0  0  0  0  0  0  0  0  0  0  0  0
    6.0271    1.8554    7.1227 F   0  0  0  0  0  0  0  0  0  0  0  0
    5.0071   -0.0504    6.1310 C   0  0  0  0  0  0  0  0  0  0  0  0
    2.6655   -2.0776    5.6832 C   0  0  0  0  0  0  0  0  0  0  0  0
    1.8959   -3.2347    5.8647 C   0  0  0  0  0  0  0  0  0  0  0  0
    2.4086   -4.4963    5.5073 C   0  0  0  0  0  0  0  0  0  0  0  0
    1.6282   -5.7333    5.6769 C   0  0  0  0  0  0  0  0  0  0  0  0
    1.8824   -6.5908    6.7554 C   0  0  0  0  0  0  0  0  0  0  0  0
    1.1465   -7.7702    6.9021 C   0  0  0  0  0  0  0  0  0  0  0  0
    0.1527   -8.0997    5.9714 C   0  0  0  0  0  0  0  0  0  0  0  0
   -0.7584   -9.6389    6.1538 S   0  0  0  0  0  0  0  0  0  0  0  0
   -2.0174   -8.9550    7.2908 C   0  0  0  0  0  0  0  0  0  0  0  0
   -3.1209   -8.2362    6.5224 C   0  0  0  0  0  0  0  0  0  0  0  0
   -0.0923   -7.2498    4.8837 C   0  0  0  0  0  0  0  0  0  0  0  0
    0.6357   -6.0635    4.7458 C   0  0  0  0  0  0  0  0  0  0  0  0
   -1.0236   -7.5733    3.9504 F   0  0  0  0  0  0  0  0  0  0  0  0
    3.6984   -4.5265    4.9592 C   0  0  0  0  0  0  0  0  0  0  0  0
    4.5673   -5.8703    4.4422 S   0  0  0  0  0  0  0  0  0  0  0  0
    0.6299   -2.9831    6.4211 C   0  0  0  0  0  0  0  0  0  0  0  0
    0.4070   -1.6341    6.6869 C   0  0  0  0  0  0  0  0  0  0  0  0
    1.7610   -0.7495    6.1856 S   0  0  0  0  0  0  0  0  0  0  0  0
   -0.8620   -1.0742    7.1869 C   0  0  0  0  0  0  0  0  0  0  0  0
   -2.3759   -1.6549    6.7156 S   0  0  0  0  0  0  0  0  0  0  0  0
   -3.3066   -0.5463    7.5706 C   0  0  0  0  0  0  0  0  0  0  0  0
   -2.4441    0.2891    8.2783 C   0  0  0  0  0  0  0  0  0  0  0  0
   -1.0734   -0.0040    8.0735 C   0  0  0  0  0  0  0  0  0  0  0  0
   -0.0958    0.7157    8.7852 C   0  0  0  0  0  0  0  0  0  0  0  0
    1.2178    0.3931    8.7245 F   0  0  0  0  0  0  0  0  0  0  0  0
   -0.4904    1.7579    9.6329 C   0  0  0  0  0  0  0  0  0  0  0  0
    0.4475    2.4652   10.3152 F   0  0  0  0  0  0  0  0  0  0  0  0
   -1.8492    2.0653    9.8058 C   0  0  0  0  0  0  0  0  0  0  0  0
   -2.2107    3.0682   10.6448 F   0  0  0  0  0  0  0  0  0  0  0  0
   -2.8343    1.3269    9.1374 C   0  0  0  0  0  0  0  0  0  0  0  0
   -4.1451    1.6248    9.3386 F   0  0  0  0  0  0  0  0  0  0  0  0
   -4.7761   -0.5381    7.6085 C   0  0  0  0  0  0  0  0  0  0  0  0
   -5.5651    0.0291    6.6800 C   0  0  0  0  0  0  0  0  0  0  0  0
   -5.1122    0.7522    5.4689 C   0  0  0  0  0  0  0  0  0  0  0  0
   -5.9545    1.1171    4.4177 C   0  0  0  0  0  0  0  0  0  0  0  0
   -5.2777    1.7470    3.3569 C   0  0  0  0  0  0  0  0  0  0  0  0
   -5.8343    2.1364    2.1179 C   0  0  0  0  0  0  0  0  0  0  0  0
   -7.2725    1.9846    1.8283 C   0  0  0  0  0  0  0  0  0  0  0  0
   -8.2129    2.7860    2.4943 C   0  0  0  0  0  0  0  0  0  0  0  0
   -9.5755    2.6467    2.2144 C   0  0  0  0  0  0  0  0  0  0  0  0
  -10.0080    1.6907    1.2876 C   0  0  0  0  0  0  0  0  0  0  0  0
  -11.7641    1.5131    0.9452 S   0  0  0  0  0  0  0  0  0  0  0  0
  -12.0303    0.1564    2.1418 C   0  0  0  0  0  0  0  0  0  0  0  0
  -12.1463    0.6893    3.5648 C   0  0  0  0  0  0  0  0  0  0  0  0
   -9.0699    0.8948    0.6153 C   0  0  0  0  0  0  0  0  0  0  0  0
   -9.4747   -0.0298   -0.2904 F   0  0  0  0  0  0  0  0  0  0  0  0
   -7.7075    1.0432    0.8825 C   0  0  0  0  0  0  0  0  0  0  0  0
   -4.9411    2.6205    1.1438 C   0  0  0  0  0  0  0  0  0  0  0  0
   -3.5701    2.7564    1.3850 C   0  0  0  0  0  0  0  0  0  0  0  0
   -3.0180    2.3764    2.6245 C   0  0  0  0  0  0  0  0  0  0  0  0
   -1.5569    2.3314    2.8378 C   0  0  0  0  0  0  0  0  0  0  0  0
   -0.7993    3.5136    2.8437 C   0  0  0  0  0  0  0  0  0  0  0  0
    0.5917    3.4538    2.9619 C   0  0  0  0  0  0  0  0  0  0  0  0
    1.2344    2.2129    3.0685 C   0  0  0  0  0  0  0  0  0  0  0  0
    3.0170    2.1453    3.2300 S   0  0  0  0  0  0  0  0  0  0  0  0
    3.3657    2.2374    1.4372 C   0  0  0  0  0  0  0  0  0  0  0  0
    3.0471    0.9243    0.7347 C   0  0  0  0  0  0  0  0  0  0  0  0
    0.4803    1.0328    3.0746 C   0  0  0  0  0  0  0  0  0  0  0  0
   -0.9094    1.0940    2.9595 C   0  0  0  0  0  0  0  0  0  0  0  0
    1.0914   -0.1737    3.1684 F   0  0  0  0  0  0  0  0  0  0  0  0
   -3.9056    1.8789    3.5856 C   0  0  0  0  0  0  0  0  0  0  0  0
   -3.5403    1.2449    5.0941 S   0  0  0  0  0  0  0  0  0  0  0  0
   -2.8449    3.1552    0.2537 C   0  0  0  0  0  0  0  0  0  0  0  0
   -3.6386    3.3061   -0.8808 C   0  0  0  0  0  0  0  0  0  0  0  0
   -5.2444    2.9661   -0.4785 S   0  0  0  0  0  0  0  0  0  0  0  0
   -3.0921    3.3948   -2.2410 C   0  0  0  0  0  0  0  0  0  0  0  0
   -3.6541    2.7933   -3.3682 C   0  0  0  0  0  0  0  0  0  0  0  0
   -2.7291    2.6182   -4.4156 C   0  0  0  0  0  0  0  0  0  0  0  0
   -2.9298    1.8789   -5.6038 C   0  0  0  0  0  0  0  0  0  0  0  0
   -4.2419    1.2937   -5.9508 C   0  0  0  0  0  0  0  0  0  0  0  0
   -4.8301    0.3111   -5.1329 C   0  0  0  0  0  0  0  0  0  0  0  0
   -6.1013   -0.1838   -5.4365 C   0  0  0  0  0  0  0  0  0  0  0  0
   -6.7837    0.2689   -6.5726 C   0  0  0  0  0  0  0  0  0  0  0  0
   -8.4373   -0.3373   -6.9311 S   0  0  0  0  0  0  0  0  0  0  0  0
   -7.8891   -1.8104   -7.8695 C   0  0  0  0  0  0  0  0  0  0  0  0
   -8.3020   -3.0769   -7.1299 C   0  0  0  0  0  0  0  0  0  0  0  0
   -6.1896    1.2306   -7.4048 C   0  0  0  0  0  0  0  0  0  0  0  0
   -6.8405    1.6777   -8.5072 F   0  0  0  0  0  0  0  0  0  0  0  0
   -4.9211    1.7316   -7.0966 C   0  0  0  0  0  0  0  0  0  0  0  0
   -1.7965    1.6536   -6.4098 C   0  0  0  0  0  0  0  0  0  0  0  0
   -0.5284    2.1428   -6.0758 C   0  0  0  0  0  0  0  0  0  0  0  0
   -0.3473    2.9406   -4.9320 C   0  0  0  0  0  0  0  0  0  0  0  0
    0.9792    3.4222   -4.5037 C   0  0  0  0  0  0  0  0  0  0  0  0
    1.3258    4.7714   -4.6710 C   0  0  0  0  0  0  0  0  0  0  0  0
    2.5448    5.2470   -4.1803 C   0  0  0  0  0  0  0  0  0  0  0  0
    3.4294    4.3760   -3.5294 C   0  0  0  0  0  0  0  0  0  0  0  0
    4.9884    4.9878   -2.8854 S   0  0  0  0  0  0  0  0  0  0  0  0
    4.3100    5.4330   -1.2458 C   0  0  0  0  0  0  0  0  0  0  0  0
    5.3789    5.2481   -0.1728 C   0  0  0  0  0  0  0  0  0  0  0  0
    3.0894    3.0246   -3.3771 C   0  0  0  0  0  0  0  0  0  0  0  0
    1.8670    2.5492   -3.8633 C   0  0  0  0  0  0  0  0  0  0  0  0
    3.9340    2.1689   -2.7503 F   0  0  0  0  0  0  0  0  0  0  0  0
   -1.4672    3.1456   -4.1187 C   0  0  0  0  0  0  0  0  0  0  0  0
   -1.4806    3.7827   -2.5669 S   0  0  0  0  0  0  0  0  0  0  0  0
    0.4962    1.6417   -6.8906 C   0  0  0  0  0  0  0  0  0  0  0  0
    0.0392    0.7531   -7.8611 C   0  0  0  0  0  0  0  0  0  0  0  0
   -1.6362    0.5875   -7.7075 S   0  0  0  0  0  0  0  0  0  0  0  0
    0.9092   -0.2190   -8.5350 C   0  0  0  0  0  0  0  0  0  0  0  0
    2.0904   -1.0879   -7.7156 S   0  0  0  0  0  0  0  0  0  0  0  0
    2.5478   -2.0879   -8.9813 C   0  0  0  0  0  0  0  0  0  0  0  0
    1.7516   -1.7718  -10.0922 C   0  0  0  0  0  0  0  0  0  0  0  0
    0.8365   -0.7202   -9.8384 C   0  0  0  0  0  0  0  0  0  0  0  0
   -0.0187   -0.2644  -10.8540 C   0  0  0  0  0  0  0  0  0  0  0  0
   -0.8665    0.7750  -10.6507 F   0  0  0  0  0  0  0  0  0  0  0  0
    0.0245   -0.8823  -12.1109 C   0  0  0  0  0  0  0  0  0  0  0  0
   -0.7889   -0.4410  -13.1043 F   0  0  0  0  0  0  0  0  0  0  0  0
    0.8983   -1.9545  -12.3502 C   0  0  0  0  0  0  0  0  0  0  0  0
    0.9162   -2.5501  -13.5706 F   0  0  0  0  0  0  0  0  0  0  0  0
    1.7564   -2.4153  -11.3420 C   0  0  0  0  0  0  0  0  0  0  0  0
    2.5476   -3.4911  -11.5886 F   0  0  0  0  0  0  0  0  0  0  0  0
    3.5690   -3.1288   -8.8060 C   0  0  0  0  0  0  0  0  0  0  0  0
    4.6136   -3.2756   -9.6250 C   0  0  0  0  0  0  0  0  0  0  0  0
    5.6963   -4.2042   -9.2660 C   0  0  0  0  0  0  0  0  0  0  0  0
    6.0904   -5.5757  -10.1593 S   0  0  0  0  0  0  0  0  0  0  0  0
    7.1507   -6.2528   -9.0399 C   0  0  0  0  0  0  0  0  0  0  0  0
    7.2415   -5.3853   -7.9410 C   0  0  0  0  0  0  0  0  0  0  0  0
    6.4232   -4.2411   -8.0696 C   0  0  0  0  0  0  0  0  0  0  0  0
    6.4251   -3.2504   -7.0716 C   0  0  0  0  0  0  0  0  0  0  0  0
    5.7043   -2.1069   -7.2037 F   0  0  0  0  0  0  0  0  0  0  0  0
    7.2365   -3.4179   -5.9438 C   0  0  0  0  0  0  0  0  0  0  0  0
    7.2564   -2.4650   -4.9787 F   0  0  0  0  0  0  0  0  0  0  0  0
    8.0562   -4.5502   -5.8159 C   0  0  0  0  0  0  0  0  0  0  0  0
    8.8563   -4.6806   -4.7291 F   0  0  0  0  0  0  0  0  0  0  0  0
    8.0752   -5.5331   -6.8168 C   0  0  0  0  0  0  0  0  0  0  0  0
    8.9438   -6.5691   -6.7024 F   0  0  0  0  0  0  0  0  0  0  0  0
    7.7839   -7.5680   -9.2325 C   0  0  0  0  0  0  0  0  0  0  0  0
    7.7211   -8.5271   -8.3107 C   0  0  0  0  0  0  0  0  0  0  0  0
    6.8502   -5.4415    3.5781 H   0  0  0  0  0  0  0  0  0  0  0  0
    6.5085   -2.9137    4.0532 H   0  0  0  0  0  0  0  0  0  0  0  0
    5.1543   -1.1094    2.8948 H   0  0  0  0  0  0  0  0  0  0  0  0
    6.5725    0.8959    2.7103 H   0  0  0  0  0  0  0  0  0  0  0  0
    6.7311    4.8964    3.5761 H   0  0  0  0  0  0  0  0  0  0  0  0
    5.6574    3.5310    3.1417 H   0  0  0  0  0  0  0  0  0  0  0  0
    5.7688    4.9090    5.9116 H   0  0  0  0  0  0  0  0  0  0  0  0
    4.6003    3.6215    5.4026 H   0  0  0  0  0  0  0  0  0  0  0  0
    4.5461    5.2439    4.6281 H   0  0  0  0  0  0  0  0  0  0  0  0
    4.5925   -0.3160    7.0976 H   0  0  0  0  0  0  0  0  0  0  0  0
    2.6515   -6.3477    7.4810 H   0  0  0  0  0  0  0  0  0  0  0  0
    1.3513   -8.4295    7.7366 H   0  0  0  0  0  0  0  0  0  0  0  0
   -1.5555   -8.2682    8.0331 H   0  0  0  0  0  0  0  0  0  0  0  0
   -2.4708   -9.7988    7.8521 H   0  0  0  0  0  0  0  0  0  0  0  0
   -3.9238   -7.9263    7.2253 H   0  0  0  0  0  0  0  0  0  0  0  0
   -3.5576   -8.9114    5.7557 H   0  0  0  0  0  0  0  0  0  0  0  0
   -2.7194   -7.3284    6.0275 H   0  0  0  0  0  0  0  0  0  0  0  0
    0.4411   -5.4100    3.9035 H   0  0  0  0  0  0  0  0  0  0  0  0
   -0.0993   -3.7557    6.6266 H   0  0  0  0  0  0  0  0  0  0  0  0
   -5.2459   -1.0147    8.4582 H   0  0  0  0  0  0  0  0  0  0  0  0
   -6.6343   -0.0563    6.8255 H   0  0  0  0  0  0  0  0  0  0  0  0
   -7.0141    0.8944    4.4061 H   0  0  0  0  0  0  0  0  0  0  0  0
   -7.8874    3.5169    3.2240 H   0  0  0  0  0  0  0  0  0  0  0  0
  -10.2942    3.2768    2.7241 H   0  0  0  0  0  0  0  0  0  0  0  0
  -12.9797   -0.3571    1.8772 H   0  0  0  0  0  0  0  0  0  0  0  0
  -11.2117   -0.5925    2.0802 H   0  0  0  0  0  0  0  0  0  0  0  0
  -12.4358   -0.1384    4.2477 H   0  0  0  0  0  0  0  0  0  0  0  0
  -11.1745    1.1017    3.9049 H   0  0  0  0  0  0  0  0  0  0  0  0
  -12.9220    1.4831    3.6151 H   0  0  0  0  0  0  0  0  0  0  0  0
   -6.9877    0.4194    0.3625 H   0  0  0  0  0  0  0  0  0  0  0  0
   -1.2861    4.4761    2.7428 H   0  0  0  0  0  0  0  0  0  0  0  0
    1.1700    4.3676    2.9562 H   0  0  0  0  0  0  0  0  0  0  0  0
    2.8005    3.0724    0.9700 H   0  0  0  0  0  0  0  0  0  0  0  0
    4.4467    2.4462    1.3102 H   0  0  0  0  0  0  0  0  0  0  0  0
    1.9502    0.7694    0.6818 H   0  0  0  0  0  0  0  0  0  0  0  0
    3.4515    0.9460   -0.3003 H   0  0  0  0  0  0  0  0  0  0  0  0
    3.5122    0.0769    1.2785 H   0  0  0  0  0  0  0  0  0  0  0  0
   -1.4822    0.1722    2.9402 H   0  0  0  0  0  0  0  0  0  0  0  0
   -1.7669    3.2298    0.2386 H   0  0  0  0  0  0  0  0  0  0  0  0
   -4.6559    2.3900   -3.3797 H   0  0  0  0  0  0  0  0  0  0  0  0
   -4.3112   -0.0494   -4.2526 H   0  0  0  0  0  0  0  0  0  0  0  0
   -6.5518   -0.9245   -4.7869 H   0  0  0  0  0  0  0  0  0  0  0  0
   -8.3845   -1.7935   -8.8624 H   0  0  0  0  0  0  0  0  0  0  0  0
   -6.7900   -1.8229   -8.0358 H   0  0  0  0  0  0  0  0  0  0  0  0
   -9.4024   -3.0921   -6.9764 H   0  0  0  0  0  0  0  0  0  0  0  0
   -8.0138   -3.9696   -7.7269 H   0  0  0  0  0  0  0  0  0  0  0  0
   -7.7930   -3.1266   -6.1433 H   0  0  0  0  0  0  0  0  0  0  0  0
   -4.4782    2.4880   -7.7349 H   0  0  0  0  0  0  0  0  0  0  0  0
    0.6392    5.4527   -5.1621 H   0  0  0  0  0  0  0  0  0  0  0  0
    2.7978    6.2944   -4.2996 H   0  0  0  0  0  0  0  0  0  0  0  0
    3.9853    6.4942   -1.2695 H   0  0  0  0  0  0  0  0  0  0  0  0
    3.4342    4.7994   -0.9778 H   0  0  0  0  0  0  0  0  0  0  0  0
    5.6874    4.1822   -0.1248 H   0  0  0  0  0  0  0  0  0  0  0  0
    6.2704    5.8736   -0.3977 H   0  0  0  0  0  0  0  0  0  0  0  0
    4.9713    5.5474    0.8173 H   0  0  0  0  0  0  0  0  0  0  0  0
    1.5984    1.5078   -3.7105 H   0  0  0  0  0  0  0  0  0  0  0  0
    1.5481    1.8303   -6.7150 H   0  0  0  0  0  0  0  0  0  0  0  0
    3.5518   -3.6789   -7.8752 H   0  0  0  0  0  0  0  0  0  0  0  0
    4.6836   -2.7116  -10.5489 H   0  0  0  0  0  0  0  0  0  0  0  0
    8.2030   -7.8078  -10.2038 H   0  0  0  0  0  0  0  0  0  0  0  0
    8.1467   -9.5011   -8.5120 H   0  0  0  0  0  0  0  0  0  0  0  0
    7.2261   -8.3610   -7.3624 H   0  0  0  0  0  0  0  0  0  0  0  0
  1  2  2  0
  2  3  1  0
  3  4  2  0
  4  5  1  0
  5  6  2  0
  6  7  1  0
  7  8  2  0
  8  9  1  0
  9 10  1  0
 10 11  1  0
  8 12  1  0
 12 13  1  0
 12 14  2  0
  4 15  1  0
 15 16  2  0
 16 17  1  0
 17 18  1  0
 18 19  2  0
 19 20  1  0
 20 21  2  0
 21 22  1  0
 22 23  1  0
 23 24  1  0
 21 25  1  0
 25 26  2  0
 25 27  1  0
 17 28  2  0
 28 29  1  0
 16 30  1  0
 30 31  2  0
 31 32  1  0
 31 33  1  0
 33 34  1  0
 34 35  1  0
 35 36  2  0
 36 37  1  0
 37 38  1  0
 38 39  1  0
 38 40  2  0
 40 41  1  0
 40 42  1  0
 42 43  1  0
 42 44  2  0
 44 45  1  0
 35 46  1  0
 46 47  2  3
 47 48  1  0
 48 49  2  0
 49 50  1  0
 50 51  2  0
 51 52  1  0
 52 53  2  0
 53 54  1  0
 54 55  2  0
 55 56  1  0
 56 57  1  0
 57 58  1  0
 55 59  1  0
 59 60  1  0
 59 61  2  0
 51 62  1  0
 62 63  2  0
 63 64  1  0
 64 65  1  0
 65 66  2  0
 66 67  1  0
 67 68  2  0
 68 69  1  0
 69 70  1  0
 70 71  1  0
 68 72  1  0
 72 73  2  0
 72 74  1  0
 64 75  2  0
 75 76  1  0
 63 77  1  0
 77 78  2  0
 78 79  1  0
 78 80  1  0
 80 81  2  0
 81 82  1  0
 82 83  2  0
 83 84  1  0
 84 85  2  0
 85 86  1  0
 86 87  2  0
 87 88  1  0
 88 89  1  0
 89 90  1  0
 87 91  1  0
 91 92  1  0
 91 93  2  0
 83 94  1  0
 94 95  2  0
 95 96  1  0
 96 97  1  0
 97 98  2  0
 98 99  1  0
 99100  2  0
100101  1  0
101102  1  0
102103  1  0
100104  1  0
104105  2  0
104106  1  0
 96107  2  0
107108  1  0
 95109  1  0
109110  2  0
110111  1  0
110112  1  0
112113  1  0
113114  1  0
114115  2  0
115116  1  0
116117  1  0
117118  1  0
117119  2  0
119120  1  0
119121  1  0
121122  1  0
121123  2  0
123124  1  0
114125  1  0
125126  2  3
126127  1  0
127128  1  0
128129  1  0
129130  2  0
130131  1  0
131132  1  0
132133  1  0
132134  2  0
134135  1  0
134136  1  0
136137  1  0
136138  2  0
138139  1  0
129140  1  0
140141  2  3
 29  1  1  0
 37 33  2  0
 76 48  1  0
108 80  1  0
116112  2  0
131127  2  0
 28  3  1  0
 44 36  1  0
 75 50  1  0
107 82  1  0
123115  1  0
138130  1  0
 14  5  1  0
 32 15  1  0
 61 52  1  0
 79 62  1  0
 93 84  1  0
111 94  1  0
 26 18  1  0
 73 65  1  0
105 97  1  0
  1142  1  0
  2143  1  0
  6144  1  0
  7145  1  0
 10146  1  0
 10147  1  0
 11148  1  0
 11149  1  0
 11150  1  0
 14151  1  0
 19152  1  0
 20153  1  0
 23154  1  0
 23155  1  0
 24156  1  0
 24157  1  0
 24158  1  0
 26159  1  0
 30160  1  0
 46161  1  0
 47162  1  0
 49163  1  0
 53164  1  0
 54165  1  0
 57166  1  0
 57167  1  0
 58168  1  0
 58169  1  0
 58170  1  0
 61171  1  0
 66172  1  0
 67173  1  0
 70174  1  0
 70175  1  0
 71176  1  0
 71177  1  0
 71178  1  0
 73179  1  0
 77180  1  0
 81181  1  0
 85182  1  0
 86183  1  0
 89184  1  0
 89185  1  0
 90186  1  0
 90187  1  0
 90188  1  0
 93189  1  0
 98190  1  0
 99191  1  0
102192  1  0
102193  1  0
103194  1  0
103195  1  0
103196  1  0
105197  1  0
109198  1  0
125199  1  0
126200  1  0
140201  1  0
141202  1  0
141203  1  0
M  END

