
     RDKit          3D

212235  0  0  0  0  0  0  0  0999 V2000
    3.9163   -6.1836   11.2154 C   0  0  0  0  0  0  0  0  0  0  0  0
    3.7549   -4.9241   10.6469 C   0  0  0  0  0  0  0  0  0  0  0  0
    2.8619   -4.9222    9.5614 C   0  0  0  0  0  0  0  0  0  0  0  0
    2.4979   -3.8081    8.7800 C   0  0  0  0  0  0  0  0  0  0  0  0
    2.9866   -2.4482    9.0705 C   0  0  0  0  0  0  0  0  0  0  0  0
    2.0452   -1.2307    9.7456 S   0  0  0  0  0  0  0  0  0  0  0  0
    3.2427   -0.0497    9.7153 C   0  0  0  0  0  0  0  0  0  0  0  0
    3.0464    1.3619   10.1789 C   0  0  0  0  0  0  0  0  0  0  0  0
    2.3753    2.2041    9.1022 C   0  0  0  0  0  0  0  0  0  0  0  0
    4.3911   -0.5910    9.1338 C   0  0  0  0  0  0  0  0  0  0  0  0
    5.8543    0.3347    8.8305 Cl  0  0  0  0  0  0  0  0  0  0  0  0
    4.2482   -1.9412    8.7805 C   0  0  0  0  0  0  0  0  0  0  0  0
    5.5128   -2.8845    8.0051 Cl  0  0  0  0  0  0  0  0  0  0  0  0
    1.5859   -4.0317    7.7373 C   0  0  0  0  0  0  0  0  0  0  0  0
    1.0417   -5.2904    7.4707 C   0  0  0  0  0  0  0  0  0  0  0  0
    1.3991   -6.4048    8.2535 C   0  0  0  0  0  0  0  0  0  0  0  0
    0.8235   -7.7378    8.0087 C   0  0  0  0  0  0  0  0  0  0  0  0
    1.0935   -8.6759    6.6366 S   0  0  0  0  0  0  0  0  0  0  0  0
    0.0599   -9.9325    7.0703 C   0  0  0  0  0  0  0  0  0  0  0  0
   -0.2358  -11.1285    6.2147 C   0  0  0  0  0  0  0  0  0  0  0  0
   -1.1835  -10.7628    5.0793 C   0  0  0  0  0  0  0  0  0  0  0  0
   -0.5330   -9.6154    8.2953 C   0  0  0  0  0  0  0  0  0  0  0  0
   -0.0992   -8.3889    8.8225 C   0  0  0  0  0  0  0  0  0  0  0  0
   -0.7185   -7.7112   10.3221 Cl  0  0  0  0  0  0  0  0  0  0  0  0
   -1.7257  -10.6336    9.0899 Cl  0  0  0  0  0  0  0  0  0  0  0  0
    2.3189   -6.1814    9.2927 C   0  0  0  0  0  0  0  0  0  0  0  0
    2.9507   -7.2918   10.3862 S   0  0  0  0  0  0  0  0  0  0  0  0
    0.1305   -5.2770    6.4028 C   0  0  0  0  0  0  0  0  0  0  0  0
   -0.0326   -4.0115    5.8461 C   0  0  0  0  0  0  0  0  0  0  0  0
    0.9810   -2.9156    6.6325 S   0  0  0  0  0  0  0  0  0  0  0  0
   -0.8594   -3.7263    4.6649 C   0  0  0  0  0  0  0  0  0  0  0  0
   -0.7998   -4.6954    3.2879 S   0  0  0  0  0  0  0  0  0  0  0  0
   -1.8069   -3.7550    2.3356 C   0  0  0  0  0  0  0  0  0  0  0  0
   -2.2113   -2.6418    3.0791 C   0  0  0  0  0  0  0  0  0  0  0  0
   -1.7144   -2.6350    4.4077 C   0  0  0  0  0  0  0  0  0  0  0  0
   -2.1293   -1.6179    5.3070 C   0  0  0  0  0  0  0  0  0  0  0  0
   -1.9053   -1.6748    6.7630 C   0  0  0  0  0  0  0  0  0  0  0  0
   -1.5785   -0.6318    7.3941 O   0  0  0  0  0  0  0  0  0  0  0  0
   -2.1190   -2.8602    7.4580 O   0  0  0  0  0  0  0  0  0  0  0  0
   -2.9195   -0.5628    4.8102 C   0  0  0  0  0  0  0  0  0  0  0  0
   -3.3528   -0.5479    3.4810 C   0  0  0  0  0  0  0  0  0  0  0  0
   -3.0216   -1.5920    2.6103 C   0  0  0  0  0  0  0  0  0  0  0  0
   -3.4777   -1.5675    1.2917 O   0  0  0  0  0  0  0  0  0  0  0  0
   -2.3009   -4.1787    1.0223 C   0  0  0  0  0  0  0  0  0  0  0  0
   -3.5679   -4.5716    0.8795 C   0  0  0  0  0  0  0  0  0  0  0  0
   -4.1364   -4.9525   -0.4269 C   0  0  0  0  0  0  0  0  0  0  0  0
   -3.7035   -4.1763   -1.8497 S   0  0  0  0  0  0  0  0  0  0  0  0
   -5.0123   -4.6531   -2.7896 C   0  0  0  0  0  0  0  0  0  0  0  0
   -5.8381   -5.4539   -1.9892 C   0  0  0  0  0  0  0  0  0  0  0  0
   -5.3426   -5.6381   -0.6664 C   0  0  0  0  0  0  0  0  0  0  0  0
   -6.0804   -6.4113    0.2674 C   0  0  0  0  0  0  0  0  0  0  0  0
   -5.5399   -6.8495    1.5747 C   0  0  0  0  0  0  0  0  0  0  0  0
   -4.3339   -7.2054    1.6814 O   0  0  0  0  0  0  0  0  0  0  0  0
   -6.3782   -6.9283    2.6856 O   0  0  0  0  0  0  0  0  0  0  0  0
   -7.3473   -6.8843   -0.1089 C   0  0  0  0  0  0  0  0  0  0  0  0
   -7.8313   -6.6930   -1.4047 C   0  0  0  0  0  0  0  0  0  0  0  0
   -7.0697   -6.0299   -2.3693 C   0  0  0  0  0  0  0  0  0  0  0  0
   -7.5497   -6.0091   -3.6815 O   0  0  0  0  0  0  0  0  0  0  0  0
   -5.3919   -3.8991   -3.9969 C   0  0  0  0  0  0  0  0  0  0  0  0
   -4.4635   -3.4931   -4.8654 C   0  0  0  0  0  0  0  0  0  0  0  0
   -4.6452   -2.3299   -5.7505 C   0  0  0  0  0  0  0  0  0  0  0  0
   -5.5347   -1.2705   -5.5269 C   0  0  0  0  0  0  0  0  0  0  0  0
   -5.1449   -0.0751   -6.1558 C   0  0  0  0  0  0  0  0  0  0  0  0
   -5.6865    1.2041   -5.8947 C   0  0  0  0  0  0  0  0  0  0  0  0
   -6.9610    1.3709   -5.1565 C   0  0  0  0  0  0  0  0  0  0  0  0
   -7.1876    2.3167   -3.7799 S   0  0  0  0  0  0  0  0  0  0  0  0
   -8.8366    2.0207   -3.6197 C   0  0  0  0  0  0  0  0  0  0  0  0
   -9.7293    2.6936   -2.6181 C   0  0  0  0  0  0  0  0  0  0  0  0
  -10.3119    3.9783   -3.1992 C   0  0  0  0  0  0  0  0  0  0  0  0
   -9.2402    1.1855   -4.6597 C   0  0  0  0  0  0  0  0  0  0  0  0
  -10.9063    0.6762   -4.9027 Cl  0  0  0  0  0  0  0  0  0  0  0  0
   -8.1917    0.8134   -5.5139 C   0  0  0  0  0  0  0  0  0  0  0  0
   -8.4306   -0.1897   -6.9399 Cl  0  0  0  0  0  0  0  0  0  0  0  0
   -4.9068    2.3087   -6.2940 C   0  0  0  0  0  0  0  0  0  0  0  0
   -3.7190    2.1691   -7.0192 C   0  0  0  0  0  0  0  0  0  0  0  0
   -3.2449    0.8911   -7.3814 C   0  0  0  0  0  0  0  0  0  0  0  0
   -1.9312    0.6935   -8.0273 C   0  0  0  0  0  0  0  0  0  0  0  0
   -0.4481    1.1082   -7.3464 S   0  0  0  0  0  0  0  0  0  0  0  0
    0.5009    0.4864   -8.5867 C   0  0  0  0  0  0  0  0  0  0  0  0
    1.9931    0.5992   -8.6529 C   0  0  0  0  0  0  0  0  0  0  0  0
    2.4083    1.8496   -9.4166 C   0  0  0  0  0  0  0  0  0  0  0  0
   -0.3364   -0.0593   -9.5584 C   0  0  0  0  0  0  0  0  0  0  0  0
   -1.6998    0.0437   -9.2389 C   0  0  0  0  0  0  0  0  0  0  0  0
   -2.9870   -0.5585  -10.2757 Cl  0  0  0  0  0  0  0  0  0  0  0  0
    0.2506   -0.8026  -11.0390 Cl  0  0  0  0  0  0  0  0  0  0  0  0
   -3.9683   -0.2100   -6.9009 C   0  0  0  0  0  0  0  0  0  0  0  0
   -3.4106   -1.7885   -6.7597 S   0  0  0  0  0  0  0  0  0  0  0  0
   -2.9993    3.3679   -7.1407 C   0  0  0  0  0  0  0  0  0  0  0  0
   -3.5414    4.4249   -6.4068 C   0  0  0  0  0  0  0  0  0  0  0  0
   -5.0059    3.8965   -5.7485 S   0  0  0  0  0  0  0  0  0  0  0  0
   -2.6643    5.3951   -5.7290 C   0  0  0  0  0  0  0  0  0  0  0  0
   -2.5868    5.4367   -4.3324 C   0  0  0  0  0  0  0  0  0  0  0  0
   -1.2906    5.6905   -3.8482 C   0  0  0  0  0  0  0  0  0  0  0  0
   -0.8536    5.4338   -2.5302 C   0  0  0  0  0  0  0  0  0  0  0  0
   -1.8073    5.0819   -1.4613 C   0  0  0  0  0  0  0  0  0  0  0  0
   -1.9326    3.5691   -0.7353 S   0  0  0  0  0  0  0  0  0  0  0  0
   -3.2440    3.9490    0.2481 C   0  0  0  0  0  0  0  0  0  0  0  0
   -3.8452    3.0241    1.2627 C   0  0  0  0  0  0  0  0  0  0  0  0
   -3.2129    3.2468    2.6310 C   0  0  0  0  0  0  0  0  0  0  0  0
   -3.5947    5.2803    0.0269 C   0  0  0  0  0  0  0  0  0  0  0  0
   -4.8962    6.0953    0.8848 Cl  0  0  0  0  0  0  0  0  0  0  0  0
   -2.7990    5.9107   -0.9425 C   0  0  0  0  0  0  0  0  0  0  0  0
   -3.0111    7.5895   -1.4272 Cl  0  0  0  0  0  0  0  0  0  0  0  0
    0.5351    5.3428   -2.3290 C   0  0  0  0  0  0  0  0  0  0  0  0
    1.4570    5.5611   -3.3580 C   0  0  0  0  0  0  0  0  0  0  0  0
    1.0207    5.9134   -4.6510 C   0  0  0  0  0  0  0  0  0  0  0  0
    1.9597    6.0209   -5.7831 C   0  0  0  0  0  0  0  0  0  0  0  0
    2.8298    4.7392   -6.4396 S   0  0  0  0  0  0  0  0  0  0  0  0
    3.6141    5.6480   -7.6204 C   0  0  0  0  0  0  0  0  0  0  0  0
    4.6803    5.1153   -8.5323 C   0  0  0  0  0  0  0  0  0  0  0  0
    6.0246    5.0868   -7.8162 C   0  0  0  0  0  0  0  0  0  0  0  0
    3.2107    6.9776   -7.5031 C   0  0  0  0  0  0  0  0  0  0  0  0
    2.2683    7.1831   -6.4839 C   0  0  0  0  0  0  0  0  0  0  0  0
    1.5869    8.7570   -6.0980 Cl  0  0  0  0  0  0  0  0  0  0  0  0
    3.8349    8.2752   -8.5107 Cl  0  0  0  0  0  0  0  0  0  0  0  0
   -0.3668    5.9468   -4.8665 C   0  0  0  0  0  0  0  0  0  0  0  0
   -1.1472    5.8121   -6.3478 S   0  0  0  0  0  0  0  0  0  0  0  0
    2.7699    5.2196   -3.0034 C   0  0  0  0  0  0  0  0  0  0  0  0
    2.8723    4.6806   -1.7195 C   0  0  0  0  0  0  0  0  0  0  0  0
    1.3455    4.7061   -0.9967 S   0  0  0  0  0  0  0  0  0  0  0  0
    3.9706    3.7981   -1.2949 C   0  0  0  0  0  0  0  0  0  0  0  0
    4.0789    3.1374   -0.0674 C   0  0  0  0  0  0  0  0  0  0  0  0
    5.0453    2.1127   -0.0778 C   0  0  0  0  0  0  0  0  0  0  0  0
    5.3494    1.2233    0.9770 C   0  0  0  0  0  0  0  0  0  0  0  0
    4.7025    1.3113    2.3001 C   0  0  0  0  0  0  0  0  0  0  0  0
    3.8646    0.0519    3.0423 S   0  0  0  0  0  0  0  0  0  0  0  0
    3.6124    0.8325    4.5081 C   0  0  0  0  0  0  0  0  0  0  0  0
    2.9501    0.2078    5.6987 C   0  0  0  0  0  0  0  0  0  0  0  0
    1.5044    0.6709    5.8400 C   0  0  0  0  0  0  0  0  0  0  0  0
    4.1773    2.1064    4.4350 C   0  0  0  0  0  0  0  0  0  0  0  0
    4.1780    3.2501    5.7679 Cl  0  0  0  0  0  0  0  0  0  0  0  0
    4.7913    2.3722    3.1992 C   0  0  0  0  0  0  0  0  0  0  0  0
    5.6707    3.8596    2.8631 Cl  0  0  0  0  0  0  0  0  0  0  0  0
    6.2760    0.1971    0.6965 C   0  0  0  0  0  0  0  0  0  0  0  0
    6.8420    0.0121   -0.5694 C   0  0  0  0  0  0  0  0  0  0  0  0
    6.5314    0.8962   -1.6230 C   0  0  0  0  0  0  0  0  0  0  0  0
    6.9385    0.6331   -3.0165 C   0  0  0  0  0  0  0  0  0  0  0  0
    5.8514    0.3562   -4.2731 S   0  0  0  0  0  0  0  0  0  0  0  0
    7.0046    0.1803   -5.4800 C   0  0  0  0  0  0  0  0  0  0  0  0
    6.6832   -0.1429   -6.9085 C   0  0  0  0  0  0  0  0  0  0  0  0
    6.5584   -1.6483   -7.1069 C   0  0  0  0  0  0  0  0  0  0  0  0
    8.2696    0.3147   -4.9094 C   0  0  0  0  0  0  0  0  0  0  0  0
    8.2339    0.5797   -3.5302 C   0  0  0  0  0  0  0  0  0  0  0  0
    9.6771    0.8829   -2.5692 Cl  0  0  0  0  0  0  0  0  0  0  0  0
    9.7647    0.1618   -5.8198 Cl  0  0  0  0  0  0  0  0  0  0  0  0
    5.6545    1.9515   -1.3274 C   0  0  0  0  0  0  0  0  0  0  0  0
    5.0465    3.0978   -2.3904 S   0  0  0  0  0  0  0  0  0  0  0  0
    7.6635   -1.1267   -0.6418 C   0  0  0  0  0  0  0  0  0  0  0  0
    7.7702   -1.8043    0.5672 C   0  0  0  0  0  0  0  0  0  0  0  0
    6.8326   -1.0151    1.7238 S   0  0  0  0  0  0  0  0  0  0  0  0
    4.5593   -6.4133   12.0581 H   0  0  0  0  0  0  0  0  0  0  0  0
    4.2700   -4.0425   11.0067 H   0  0  0  0  0  0  0  0  0  0  0  0
    4.0209    1.8159   10.4573 H   0  0  0  0  0  0  0  0  0  0  0  0
    2.4024    1.3613   11.0852 H   0  0  0  0  0  0  0  0  0  0  0  0
    3.0086    2.2351    8.1952 H   0  0  0  0  0  0  0  0  0  0  0  0
    1.3805    1.7852    8.8417 H   0  0  0  0  0  0  0  0  0  0  0  0
    2.2398    3.2440    9.4705 H   0  0  0  0  0  0  0  0  0  0  0  0
    0.7142  -11.5193    5.7948 H   0  0  0  0  0  0  0  0  0  0  0  0
   -0.6882  -11.9383    6.8262 H   0  0  0  0  0  0  0  0  0  0  0  0
   -1.4992  -11.6820    4.5477 H   0  0  0  0  0  0  0  0  0  0  0  0
   -0.6707  -10.0928    4.3565 H   0  0  0  0  0  0  0  0  0  0  0  0
   -2.0892  -10.2585    5.4770 H   0  0  0  0  0  0  0  0  0  0  0  0
   -0.3998   -6.1480    6.0444 H   0  0  0  0  0  0  0  0  0  0  0  0
   -1.9674   -2.9074    8.4598 H   0  0  0  0  0  0  0  0  0  0  0  0
   -3.2481    0.2311    5.4721 H   0  0  0  0  0  0  0  0  0  0  0  0
   -3.9780    0.2616    3.1365 H   0  0  0  0  0  0  0  0  0  0  0  0
   -4.0548   -0.8109    0.9407 H   0  0  0  0  0  0  0  0  0  0  0  0
   -1.6046   -4.2237    0.1938 H   0  0  0  0  0  0  0  0  0  0  0  0
   -4.2204   -4.5571    1.7441 H   0  0  0  0  0  0  0  0  0  0  0  0
   -6.0208   -7.2398    3.5817 H   0  0  0  0  0  0  0  0  0  0  0  0
   -7.9426   -7.4667    0.5818 H   0  0  0  0  0  0  0  0  0  0  0  0
   -8.7858   -7.1216   -1.6828 H   0  0  0  0  0  0  0  0  0  0  0  0
   -6.9610   -5.8179   -4.4776 H   0  0  0  0  0  0  0  0  0  0  0  0
   -6.4035   -3.5130   -4.0536 H   0  0  0  0  0  0  0  0  0  0  0  0
   -3.4639   -3.8998   -4.7964 H   0  0  0  0  0  0  0  0  0  0  0  0
   -6.3368   -1.3160   -4.8045 H   0  0  0  0  0  0  0  0  0  0  0  0
   -9.1471    2.9369   -1.7037 H   0  0  0  0  0  0  0  0  0  0  0  0
  -10.5518    2.0064   -2.3286 H   0  0  0  0  0  0  0  0  0  0  0  0
   -9.4961    4.6880   -3.4524 H   0  0  0  0  0  0  0  0  0  0  0  0
  -10.9037    3.7563   -4.1128 H   0  0  0  0  0  0  0  0  0  0  0  0
  -10.9804    4.4559   -2.4509 H   0  0  0  0  0  0  0  0  0  0  0  0
    2.4071    0.6447   -7.6204 H   0  0  0  0  0  0  0  0  0  0  0  0
    2.4164   -0.3009   -9.1489 H   0  0  0  0  0  0  0  0  0  0  0  0
    2.0333    2.7556   -8.8937 H   0  0  0  0  0  0  0  0  0  0  0  0
    1.9953    1.8283  -10.4495 H   0  0  0  0  0  0  0  0  0  0  0  0
    3.5172    1.8985   -9.4755 H   0  0  0  0  0  0  0  0  0  0  0  0
   -2.0194    3.4185   -7.5921 H   0  0  0  0  0  0  0  0  0  0  0  0
   -3.3811    5.0647   -3.6950 H   0  0  0  0  0  0  0  0  0  0  0  0
   -3.6795    1.9692    0.9521 H   0  0  0  0  0  0  0  0  0  0  0  0
   -4.9423    3.1916    1.3238 H   0  0  0  0  0  0  0  0  0  0  0  0
   -3.7230    2.6113    3.3822 H   0  0  0  0  0  0  0  0  0  0  0  0
   -3.3209    4.3087    2.9401 H   0  0  0  0  0  0  0  0  0  0  0  0
   -2.1352    2.9783    2.6033 H   0  0  0  0  0  0  0  0  0  0  0  0
    4.7548    5.7408   -9.4452 H   0  0  0  0  0  0  0  0  0  0  0  0
    4.4095    4.0863   -8.8437 H   0  0  0  0  0  0  0  0  0  0  0  0
    5.9710    4.4226   -6.9276 H   0  0  0  0  0  0  0  0  0  0  0  0
    6.3081    6.1108   -7.4890 H   0  0  0  0  0  0  0  0  0  0  0  0
    6.8084    4.7017   -8.5033 H   0  0  0  0  0  0  0  0  0  0  0  0
    3.5992    5.2466   -3.6947 H   0  0  0  0  0  0  0  0  0  0  0  0
    3.4372    3.3475    0.7764 H   0  0  0  0  0  0  0  0  0  0  0  0
    2.9699   -0.8973    5.5927 H   0  0  0  0  0  0  0  0  0  0  0  0
    3.5190    0.4640    6.6141 H   0  0  0  0  0  0  0  0  0  0  0  0
    1.0539    0.1984    6.7362 H   0  0  0  0  0  0  0  0  0  0  0  0
    1.4609    1.7713    5.9607 H   0  0  0  0  0  0  0  0  0  0  0  0
    0.9159    0.3732    4.9473 H   0  0  0  0  0  0  0  0  0  0  0  0
    7.4713    0.2609   -7.5801 H   0  0  0  0  0  0  0  0  0  0  0  0
    5.7228    0.3453   -7.1846 H   0  0  0  0  0  0  0  0  0  0  0  0
    5.7869   -2.0631   -6.4246 H   0  0  0  0  0  0  0  0  0  0  0  0
    6.2549   -1.8641   -8.1528 H   0  0  0  0  0  0  0  0  0  0  0  0
    7.5307   -2.1458   -6.9073 H   0  0  0  0  0  0  0  0  0  0  0  0
    8.1596   -1.4587   -1.5461 H   0  0  0  0  0  0  0  0  0  0  0  0
    8.3475   -2.7040    0.7329 H   0  0  0  0  0  0  0  0  0  0  0  0
  1  2  2  0
  2  3  1  0
  3  4  2  0
  4  5  1  0
  5  6  1  0
  6  7  1  0
  7  8  1  0
  8  9  1  0
  7 10  2  0
 10 11  1  0
 10 12  1  0
 12 13  1  0
  4 14  1  0
 14 15  2  0
 15 16  1  0
 16 17  1  0
 17 18  1  0
 18 19  1  0
 19 20  1  0
 20 21  1  0
 19 22  2  0
 22 23  1  0
 23 24  1  0
 22 25  1  0
 16 26  2  0
 26 27  1  0
 15 28  1  0
 28 29  2  0
 29 30  1  0
 29 31  1  0
 31 32  1  0
 32 33  1  0
 33 34  2  0
 34 35  1  0
 35 36  1  0
 36 37  1  0
 37 38  2  0
 37 39  1  0
 36 40  2  0
 40 41  1  0
 41 42  2  0
 42 43  1  0
 33 44  1  0
 44 45  2  3
 45 46  1  0
 46 47  1  0
 47 48  1  0
 48 49  2  0
 49 50  1  0
 50 51  1  0
 51 52  1  0
 52 53  2  0
 52 54  1  0
 51 55  2  0
 55 56  1  0
 56 57  2  0
 57 58  1  0
 48 59  1  0
 59 60  2  3
 60 61  1  0
 61 62  2  0
 62 63  1  0
 63 64  2  0
 64 65  1  0
 65 66  1  0
 66 67  1  0
 67 68  1  0
 68 69  1  0
 67 70  2  0
 70 71  1  0
 70 72  1  0
 72 73  1  0
 64 74  1  0
 74 75  2  0
 75 76  1  0
 76 77  1  0
 77 78  1  0
 78 79  1  0
 79 80  1  0
 80 81  1  0
 79 82  2  0
 82 83  1  0
 83 84  1  0
 82 85  1  0
 76 86  2  0
 86 87  1  0
 75 88  1  0
 88 89  2  0
 89 90  1  0
 89 91  1  0
 91 92  2  0
 92 93  1  0
 93 94  2  0
 94 95  1  0
 95 96  1  0
 96 97  1  0
 97 98  1  0
 98 99  1  0
 97100  2  0
100101  1  0
100102  1  0
102103  1  0
 94104  1  0
104105  2  0
105106  1  0
106107  1  0
107108  1  0
108109  1  0
109110  1  0
110111  1  0
109112  2  0
112113  1  0
113114  1  0
112115  1  0
106116  2  0
116117  1  0
105118  1  0
118119  2  0
119120  1  0
119121  1  0
121122  2  0
122123  1  0
123124  2  0
124125  1  0
125126  1  0
126127  1  0
127128  1  0
128129  1  0
127130  2  0
130131  1  0
130132  1  0
132133  1  0
124134  1  0
134135  2  0
135136  1  0
136137  1  0
137138  1  0
138139  1  0
139140  1  0
140141  1  0
139142  2  0
142143  1  0
143144  1  0
142145  1  0
136146  2  0
146147  1  0
135148  1  0
148149  2  0
149150  1  0
 27  1  1  0
 35 31  2  0
 50 46  2  0
 87 61  1  0
117 91  1  0
147121  1  0
 26  3  1  0
 42 34  1  0
 57 49  1  0
 86 63  1  0
116 93  1  0
146123  1  0
 12  5  2  0
 30 14  1  0
 72 65  2  0
 90 74  1  0
102 95  2  0
120104  1  0
132125  2  0
150134  1  0
 23 17  2  0
 83 77  2  0
113107  2  0
143137  2  0
  1151  1  0
  2152  1  0
  8153  1  0
  8154  1  0
  9155  1  0
  9156  1  0
  9157  1  0
 20158  1  0
 20159  1  0
 21160  1  0
 21161  1  0
 21162  1  0
 28163  1  0
 39164  1  0
 40165  1  0
 41166  1  0
 43167  1  0
 44168  1  0
 45169  1  0
 54170  1  0
 55171  1  0
 56172  1  0
 58173  1  0
 59174  1  0
 60175  1  0
 62176  1  0
 68177  1  0
 68178  1  0
 69179  1  0
 69180  1  0
 69181  1  0
 80182  1  0
 80183  1  0
 81184  1  0
 81185  1  0
 81186  1  0
 88187  1  0
 92188  1  0
 98189  1  0
 98190  1  0
 99191  1  0
 99192  1  0
 99193  1  0
110194  1  0
110195  1  0
111196  1  0
111197  1  0
111198  1  0
118199  1  0
122200  1  0
128201  1  0
128202  1  0
129203  1  0
129204  1  0
129205  1  0
140206  1  0
140207  1  0
141208  1  0
141209  1  0
141210  1  0
148211  1  0
149212  1  0
M  END

