
     RDKit          3D

194211  0  0  0  0  0  0  0  0999 V2000
    8.8699   -5.1438    6.1285 C   0  0  0  0  0  0  0  0  0  0  0  0
    8.2787   -5.7261    7.5935 S   0  0  0  0  0  0  0  0  0  0  0  0
    7.1954   -4.4736    7.9004 C   0  0  0  0  0  0  0  0  0  0  0  0
    7.3101   -3.5502    6.8564 C   0  0  0  0  0  0  0  0  0  0  0  0
    8.2229   -3.9440    5.8664 C   0  0  0  0  0  0  0  0  0  0  0  0
    8.4158   -3.1705    4.7237 C   0  0  0  0  0  0  0  0  0  0  0  0
    7.6800   -1.9811    4.5569 C   0  0  0  0  0  0  0  0  0  0  0  0
    7.8652   -1.1747    3.2980 C   0  0  0  0  0  0  0  0  0  0  0  0
    6.7700   -1.5656    5.5681 C   0  0  0  0  0  0  0  0  0  0  0  0
    5.9638   -0.3050    5.4166 C   0  0  0  0  0  0  0  0  0  0  0  0
    6.6068   -2.3482    6.7281 C   0  0  0  0  0  0  0  0  0  0  0  0
    6.2761   -4.4521    9.0544 C   0  0  0  0  0  0  0  0  0  0  0  0
    4.9420   -4.2976    8.9868 C   0  0  0  0  0  0  0  0  0  0  0  0
    4.1425   -4.1955    7.7477 C   0  0  0  0  0  0  0  0  0  0  0  0
    4.4540   -4.7235    6.4950 C   0  0  0  0  0  0  0  0  0  0  0  0
    3.5498   -4.3400    5.4948 C   0  0  0  0  0  0  0  0  0  0  0  0
    3.6960   -4.5750    4.1116 C   0  0  0  0  0  0  0  0  0  0  0  0
    4.8925   -5.2468    3.5606 C   0  0  0  0  0  0  0  0  0  0  0  0
    5.1830   -6.5758    3.9036 C   0  0  0  0  0  0  0  0  0  0  0  0
    6.3560   -7.1796    3.4459 C   0  0  0  0  0  0  0  0  0  0  0  0
    7.2444   -6.4668    2.6319 C   0  0  0  0  0  0  0  0  0  0  0  0
    8.7722   -7.2404    2.0895 S   0  0  0  0  0  0  0  0  0  0  0  0
    8.0305   -8.1042    0.6595 C   0  0  0  0  0  0  0  0  0  0  0  0
    7.8604   -7.1615   -0.5245 C   0  0  0  0  0  0  0  0  0  0  0  0
    6.9535   -5.1413    2.2793 C   0  0  0  0  0  0  0  0  0  0  0  0
    7.8167   -4.4287    1.5119 F   0  0  0  0  0  0  0  0  0  0  0  0
    5.7827   -4.5346    2.7433 C   0  0  0  0  0  0  0  0  0  0  0  0
    2.7097   -4.0319    3.2718 C   0  0  0  0  0  0  0  0  0  0  0  0
    1.6250   -3.2945    3.7601 C   0  0  0  0  0  0  0  0  0  0  0  0
    1.4916   -3.0383    5.1415 C   0  0  0  0  0  0  0  0  0  0  0  0
    0.4019   -2.1944    5.6760 C   0  0  0  0  0  0  0  0  0  0  0  0
   -0.5494   -2.7350    6.5524 C   0  0  0  0  0  0  0  0  0  0  0  0
   -1.5992   -1.9428    7.0287 C   0  0  0  0  0  0  0  0  0  0  0  0
   -1.7003   -0.6007    6.6420 C   0  0  0  0  0  0  0  0  0  0  0  0
   -3.0726    0.3995    7.2313 S   0  0  0  0  0  0  0  0  0  0  0  0
   -2.1652    1.1392    8.6320 C   0  0  0  0  0  0  0  0  0  0  0  0
   -2.0993    0.1790    9.8120 C   0  0  0  0  0  0  0  0  0  0  0  0
   -0.7521   -0.0562    5.7646 C   0  0  0  0  0  0  0  0  0  0  0  0
    0.2983   -0.8477    5.2904 C   0  0  0  0  0  0  0  0  0  0  0  0
   -0.8456    1.2388    5.3704 F   0  0  0  0  0  0  0  0  0  0  0  0
    2.4824   -3.5772    5.9816 C   0  0  0  0  0  0  0  0  0  0  0  0
    2.6941   -3.3356    7.6346 S   0  0  0  0  0  0  0  0  0  0  0  0
    0.7630   -2.8478    2.7472 C   0  0  0  0  0  0  0  0  0  0  0  0
    1.1882   -3.2132    1.4705 C   0  0  0  0  0  0  0  0  0  0  0  0
    2.6163   -4.1054    1.5918 S   0  0  0  0  0  0  0  0  0  0  0  0
    0.5507   -2.8123    0.2071 C   0  0  0  0  0  0  0  0  0  0  0  0
   -0.6781   -2.1620    0.0844 C   0  0  0  0  0  0  0  0  0  0  0  0
   -0.9856   -1.8251   -1.2424 C   0  0  0  0  0  0  0  0  0  0  0  0
   -2.1421   -1.1505   -1.6886 C   0  0  0  0  0  0  0  0  0  0  0  0
   -3.1540   -0.6149   -0.7508 C   0  0  0  0  0  0  0  0  0  0  0  0
   -2.7916    0.3562    0.1975 C   0  0  0  0  0  0  0  0  0  0  0  0
   -3.7520    0.8904    1.0592 C   0  0  0  0  0  0  0  0  0  0  0  0
   -5.0807    0.4539    0.9889 C   0  0  0  0  0  0  0  0  0  0  0  0
   -6.3076    1.1371    2.1068 S   0  0  0  0  0  0  0  0  0  0  0  0
   -6.1843   -0.2105    3.3356 C   0  0  0  0  0  0  0  0  0  0  0  0
   -4.9935   -0.0011    4.2608 C   0  0  0  0  0  0  0  0  0  0  0  0
   -5.4503   -0.4989    0.0302 C   0  0  0  0  0  0  0  0  0  0  0  0
   -6.7368   -0.9161   -0.0610 F   0  0  0  0  0  0  0  0  0  0  0  0
   -4.4905   -1.0316   -0.8345 C   0  0  0  0  0  0  0  0  0  0  0  0
   -2.2428   -0.9190   -3.0717 C   0  0  0  0  0  0  0  0  0  0  0  0
   -1.2394   -1.2783   -3.9752 C   0  0  0  0  0  0  0  0  0  0  0  0
   -0.0863   -1.9515   -3.5266 C   0  0  0  0  0  0  0  0  0  0  0  0
    1.0064   -2.3165   -4.4444 C   0  0  0  0  0  0  0  0  0  0  0  0
    2.0968   -1.4532   -4.6119 C   0  0  0  0  0  0  0  0  0  0  0  0
    3.1307   -1.7923   -5.4893 C   0  0  0  0  0  0  0  0  0  0  0  0
    3.0871   -2.9999   -6.1957 C   0  0  0  0  0  0  0  0  0  0  0  0
    4.4147   -3.4187   -7.3326 S   0  0  0  0  0  0  0  0  0  0  0  0
    5.3645   -4.4152   -6.1300 C   0  0  0  0  0  0  0  0  0  0  0  0
    6.2220   -3.5268   -5.2360 C   0  0  0  0  0  0  0  0  0  0  0  0
    1.9909   -3.8616   -6.0350 C   0  0  0  0  0  0  0  0  0  0  0  0
    0.9554   -3.5216   -5.1595 C   0  0  0  0  0  0  0  0  0  0  0  0
    1.9311   -5.0286   -6.7229 F   0  0  0  0  0  0  0  0  0  0  0  0
    0.0005   -2.2201   -2.1522 C   0  0  0  0  0  0  0  0  0  0  0  0
    1.2509   -2.9774   -1.3213 S   0  0  0  0  0  0  0  0  0  0  0  0
   -1.4834   -0.8332   -5.2863 C   0  0  0  0  0  0  0  0  0  0  0  0
   -2.7017   -0.1592   -5.4161 C   0  0  0  0  0  0  0  0  0  0  0  0
   -3.4328   -0.0739   -3.8948 S   0  0  0  0  0  0  0  0  0  0  0  0
   -3.2014    0.5929   -6.5859 C   0  0  0  0  0  0  0  0  0  0  0  0
   -4.2679    1.8805   -6.4315 S   0  0  0  0  0  0  0  0  0  0  0  0
   -4.2680    2.3901   -8.0336 C   0  0  0  0  0  0  0  0  0  0  0  0
   -3.4460    1.5090   -8.7415 C   0  0  0  0  0  0  0  0  0  0  0  0
   -2.8592    0.5019   -7.9446 C   0  0  0  0  0  0  0  0  0  0  0  0
   -2.0703   -0.4882   -8.5425 C   0  0  0  0  0  0  0  0  0  0  0  0
   -1.7868   -0.4263   -9.9198 C   0  0  0  0  0  0  0  0  0  0  0  0
   -0.9190   -1.4928  -10.5342 C   0  0  0  0  0  0  0  0  0  0  0  0
   -2.3534    0.6070  -10.7128 C   0  0  0  0  0  0  0  0  0  0  0  0
   -2.0579    0.7124  -12.1864 C   0  0  0  0  0  0  0  0  0  0  0  0
   -3.1831    1.5727  -10.1129 C   0  0  0  0  0  0  0  0  0  0  0  0
   -5.0915    3.4893   -8.5910 C   0  0  0  0  0  0  0  0  0  0  0  0
   -5.4640    4.5801   -7.9036 C   0  0  0  0  0  0  0  0  0  0  0  0
   -4.9452    4.9192   -6.5674 C   0  0  0  0  0  0  0  0  0  0  0  0
   -5.8602    4.9042   -5.1560 S   0  0  0  0  0  0  0  0  0  0  0  0
   -4.5809    5.1437   -4.0744 C   0  0  0  0  0  0  0  0  0  0  0  0
   -3.4058    5.2541   -4.8296 C   0  0  0  0  0  0  0  0  0  0  0  0
   -3.6123    5.1277   -6.2139 C   0  0  0  0  0  0  0  0  0  0  0  0
   -2.5385    5.1971   -7.1054 C   0  0  0  0  0  0  0  0  0  0  0  0
   -1.2333    5.3847   -6.6145 C   0  0  0  0  0  0  0  0  0  0  0  0
   -0.0898    5.4697   -7.5907 C   0  0  0  0  0  0  0  0  0  0  0  0
   -1.0192    5.5168   -5.2162 C   0  0  0  0  0  0  0  0  0  0  0  0
    0.3643    5.7319   -4.6597 C   0  0  0  0  0  0  0  0  0  0  0  0
   -2.1117    5.4417   -4.3282 C   0  0  0  0  0  0  0  0  0  0  0  0
   -4.6828    5.1427   -2.5978 C   0  0  0  0  0  0  0  0  0  0  0  0
   -5.8291    4.8879   -1.9552 C   0  0  0  0  0  0  0  0  0  0  0  0
   -5.9141    4.8375   -0.4777 C   0  0  0  0  0  0  0  0  0  0  0  0
   -4.6275    5.0681    0.5919 S   0  0  0  0  0  0  0  0  0  0  0  0
   -5.4858    4.8483    2.0267 C   0  0  0  0  0  0  0  0  0  0  0  0
   -6.8158    4.5846    1.6804 C   0  0  0  0  0  0  0  0  0  0  0  0
   -7.0528    4.5717    0.2913 C   0  0  0  0  0  0  0  0  0  0  0  0
   -8.3332    4.3008   -0.2037 C   0  0  0  0  0  0  0  0  0  0  0  0
   -9.3882    4.0339    0.6896 C   0  0  0  0  0  0  0  0  0  0  0  0
  -10.7573    3.7325    0.1401 C   0  0  0  0  0  0  0  0  0  0  0  0
   -9.1516    4.0539    2.0896 C   0  0  0  0  0  0  0  0  0  0  0  0
  -10.2587    3.7647    3.0681 C   0  0  0  0  0  0  0  0  0  0  0  0
   -7.8607    4.3311    2.5773 C   0  0  0  0  0  0  0  0  0  0  0  0
   -4.9186    4.9057    3.3904 C   0  0  0  0  0  0  0  0  0  0  0  0
   -3.6274    5.1396    3.6199 C   0  0  0  0  0  0  0  0  0  0  0  0
    9.6060   -5.6265    5.4987 H   0  0  0  0  0  0  0  0  0  0  0  0
    9.1145   -3.4997    3.9639 H   0  0  0  0  0  0  0  0  0  0  0  0
    6.9048   -1.1183    2.7449 H   0  0  0  0  0  0  0  0  0  0  0  0
    8.2030   -0.1487    3.5517 H   0  0  0  0  0  0  0  0  0  0  0  0
    8.6229   -1.6309    2.6276 H   0  0  0  0  0  0  0  0  0  0  0  0
    5.3226   -0.3736    4.5129 H   0  0  0  0  0  0  0  0  0  0  0  0
    6.6425    0.5681    5.3229 H   0  0  0  0  0  0  0  0  0  0  0  0
    5.3022   -0.1334    6.2917 H   0  0  0  0  0  0  0  0  0  0  0  0
    5.9252   -2.0314    7.5082 H   0  0  0  0  0  0  0  0  0  0  0  0
    6.7170   -4.6116   10.0307 H   0  0  0  0  0  0  0  0  0  0  0  0
    4.3988   -4.2283    9.9210 H   0  0  0  0  0  0  0  0  0  0  0  0
    5.3172   -5.3429    6.3072 H   0  0  0  0  0  0  0  0  0  0  0  0
    4.5094   -7.1386    4.5387 H   0  0  0  0  0  0  0  0  0  0  0  0
    6.5788   -8.2012    3.7276 H   0  0  0  0  0  0  0  0  0  0  0  0
    8.7140   -8.9283    0.3650 H   0  0  0  0  0  0  0  0  0  0  0  0
    7.0530   -8.5542    0.9338 H   0  0  0  0  0  0  0  0  0  0  0  0
    7.5206   -7.7368   -1.4113 H   0  0  0  0  0  0  0  0  0  0  0  0
    8.8276   -6.6714   -0.7655 H   0  0  0  0  0  0  0  0  0  0  0  0
    7.1009   -6.3869   -0.2952 H   0  0  0  0  0  0  0  0  0  0  0  0
    5.5816   -3.5020    2.4874 H   0  0  0  0  0  0  0  0  0  0  0  0
   -0.4896   -3.7732    6.8521 H   0  0  0  0  0  0  0  0  0  0  0  0
   -2.3364   -2.3738    7.6929 H   0  0  0  0  0  0  0  0  0  0  0  0
   -2.7091    2.0541    8.9458 H   0  0  0  0  0  0  0  0  0  0  0  0
   -1.1412    1.4379    8.3231 H   0  0  0  0  0  0  0  0  0  0  0  0
   -3.1186   -0.1690   10.0829 H   0  0  0  0  0  0  0  0  0  0  0  0
   -1.4637   -0.6949    9.5656 H   0  0  0  0  0  0  0  0  0  0  0  0
   -1.6547    0.6996   10.6863 H   0  0  0  0  0  0  0  0  0  0  0  0
    1.0270   -0.4145    4.6165 H   0  0  0  0  0  0  0  0  0  0  0  0
   -0.1255   -2.2602    2.9327 H   0  0  0  0  0  0  0  0  0  0  0  0
   -1.3246   -1.9429    0.9237 H   0  0  0  0  0  0  0  0  0  0  0  0
   -1.7680    0.7041    0.2642 H   0  0  0  0  0  0  0  0  0  0  0  0
   -3.4648    1.6437    1.7826 H   0  0  0  0  0  0  0  0  0  0  0  0
   -6.1079   -1.1993    2.8346 H   0  0  0  0  0  0  0  0  0  0  0  0
   -7.1128   -0.2082    3.9447 H   0  0  0  0  0  0  0  0  0  0  0  0
   -4.9910   -0.7869    5.0448 H   0  0  0  0  0  0  0  0  0  0  0  0
   -5.0599    0.9927    4.7516 H   0  0  0  0  0  0  0  0  0  0  0  0
   -4.0410   -0.0705    3.6957 H   0  0  0  0  0  0  0  0  0  0  0  0
   -4.7857   -1.7704   -1.5691 H   0  0  0  0  0  0  0  0  0  0  0  0
    2.1424   -0.5170   -4.0678 H   0  0  0  0  0  0  0  0  0  0  0  0
    3.9642   -1.1150   -5.6176 H   0  0  0  0  0  0  0  0  0  0  0  0
    4.6865   -5.0399   -5.5105 H   0  0  0  0  0  0  0  0  0  0  0  0
    6.0308   -5.0955   -6.7001 H   0  0  0  0  0  0  0  0  0  0  0  0
    6.8768   -2.8774   -5.8551 H   0  0  0  0  0  0  0  0  0  0  0  0
    5.5814   -2.8942   -4.5874 H   0  0  0  0  0  0  0  0  0  0  0  0
    6.8612   -4.1603   -4.5858 H   0  0  0  0  0  0  0  0  0  0  0  0
    0.1156   -4.1949   -5.0355 H   0  0  0  0  0  0  0  0  0  0  0  0
   -0.7514   -0.9263   -6.0731 H   0  0  0  0  0  0  0  0  0  0  0  0
   -1.7089   -1.3265   -7.9680 H   0  0  0  0  0  0  0  0  0  0  0  0
   -0.1457   -1.0335  -11.1852 H   0  0  0  0  0  0  0  0  0  0  0  0
   -1.5465   -2.1824  -11.1360 H   0  0  0  0  0  0  0  0  0  0  0  0
   -0.3914   -2.0850   -9.7573 H   0  0  0  0  0  0  0  0  0  0  0  0
   -1.0122    1.0554  -12.3333 H   0  0  0  0  0  0  0  0  0  0  0  0
   -2.7370    1.4345  -12.6882 H   0  0  0  0  0  0  0  0  0  0  0  0
   -2.1951   -0.2718  -12.6802 H   0  0  0  0  0  0  0  0  0  0  0  0
   -3.6112    2.3663  -10.7124 H   0  0  0  0  0  0  0  0  0  0  0  0
   -5.4504    3.3865   -9.6067 H   0  0  0  0  0  0  0  0  0  0  0  0
   -6.1639    5.2696   -8.3581 H   0  0  0  0  0  0  0  0  0  0  0  0
   -2.7128    5.1088   -8.1707 H   0  0  0  0  0  0  0  0  0  0  0  0
    0.6974    4.7335   -7.3239 H   0  0  0  0  0  0  0  0  0  0  0  0
   -0.4193    5.2513   -8.6289 H   0  0  0  0  0  0  0  0  0  0  0  0
    0.3422    6.4925   -7.5724 H   0  0  0  0  0  0  0  0  0  0  0  0
    0.3464    5.8706   -3.5575 H   0  0  0  0  0  0  0  0  0  0  0  0
    1.0019    4.8524   -4.8866 H   0  0  0  0  0  0  0  0  0  0  0  0
    0.8133    6.6413   -5.1095 H   0  0  0  0  0  0  0  0  0  0  0  0
   -1.9440    5.5357   -3.2631 H   0  0  0  0  0  0  0  0  0  0  0  0
   -3.7872    5.3254   -2.0228 H   0  0  0  0  0  0  0  0  0  0  0  0
   -6.7228    4.6980   -2.5300 H   0  0  0  0  0  0  0  0  0  0  0  0
   -8.5208    4.2900   -1.2679 H   0  0  0  0  0  0  0  0  0  0  0  0
  -11.0936    2.7313    0.4867 H   0  0  0  0  0  0  0  0  0  0  0  0
  -10.7626    3.7265   -0.9711 H   0  0  0  0  0  0  0  0  0  0  0  0
  -11.4817    4.5027    0.4835 H   0  0  0  0  0  0  0  0  0  0  0  0
  -11.0880    4.4876    2.9225 H   0  0  0  0  0  0  0  0  0  0  0  0
  -10.6345    2.7316    2.9141 H   0  0  0  0  0  0  0  0  0  0  0  0
   -9.9126    3.8505    4.1208 H   0  0  0  0  0  0  0  0  0  0  0  0
   -7.6824    4.3394    3.6432 H   0  0  0  0  0  0  0  0  0  0  0  0
   -5.5624    4.7523    4.2436 H   0  0  0  0  0  0  0  0  0  0  0  0
   -2.9242    5.3021    2.8141 H   0  0  0  0  0  0  0  0  0  0  0  0
   -3.2615    5.1699    4.6374 H   0  0  0  0  0  0  0  0  0  0  0  0
  1  2  1  0
  2  3  1  0
  3  4  2  0
  4  5  1  0
  5  6  1  0
  6  7  2  0
  7  8  1  0
  7  9  1  0
  9 10  1  0
  9 11  2  0
  3 12  1  0
 12 13  2  3
 13 14  1  0
 14 15  2  0
 15 16  1  0
 16 17  2  0
 17 18  1  0
 18 19  2  0
 19 20  1  0
 20 21  2  0
 21 22  1  0
 22 23  1  0
 23 24  1  0
 21 25  1  0
 25 26  1  0
 25 27  2  0
 17 28  1  0
 28 29  2  0
 29 30  1  0
 30 31  1  0
 31 32  2  0
 32 33  1  0
 33 34  2  0
 34 35  1  0
 35 36  1  0
 36 37  1  0
 34 38  1  0
 38 39  2  0
 38 40  1  0
 30 41  2  0
 41 42  1  0
 29 43  1  0
 43 44  2  0
 44 45  1  0
 44 46  1  0
 46 47  2  0
 47 48  1  0
 48 49  2  0
 49 50  1  0
 50 51  2  0
 51 52  1  0
 52 53  2  0
 53 54  1  0
 54 55  1  0
 55 56  1  0
 53 57  1  0
 57 58  1  0
 57 59  2  0
 49 60  1  0
 60 61  2  0
 61 62  1  0
 62 63  1  0
 63 64  2  0
 64 65  1  0
 65 66  2  0
 66 67  1  0
 67 68  1  0
 68 69  1  0
 66 70  1  0
 70 71  2  0
 70 72  1  0
 62 73  2  0
 73 74  1  0
 61 75  1  0
 75 76  2  0
 76 77  1  0
 76 78  1  0
 78 79  1  0
 79 80  1  0
 80 81  2  0
 81 82  1  0
 82 83  1  0
 83 84  2  0
 84 85  1  0
 84 86  1  0
 86 87  1  0
 86 88  2  0
 80 89  1  0
 89 90  2  3
 90 91  1  0
 91 92  1  0
 92 93  1  0
 93 94  2  0
 94 95  1  0
 95 96  1  0
 96 97  2  0
 97 98  1  0
 97 99  1  0
 99100  1  0
 99101  2  0
 93102  1  0
102103  2  3
103104  1  0
104105  1  0
105106  1  0
106107  2  0
107108  1  0
108109  1  0
109110  2  0
110111  1  0
110112  1  0
112113  1  0
112114  2  0
106115  1  0
115116  2  3
  5  1  2  0
 42 14  1  0
 74 46  1  0
 82 78  2  0
 95 91  2  0
108104  2  0
 11  4  1  0
 41 16  1  0
 73 48  1  0
 88 81  1  0
101 94  1  0
114107  1  0
 27 18  1  0
 45 28  1  0
 59 50  1  0
 77 60  1  0
 39 31  1  0
 71 63  1  0
  1117  1  0
  6118  1  0
  8119  1  0
  8120  1  0
  8121  1  0
 10122  1  0
 10123  1  0
 10124  1  0
 11125  1  0
 12126  1  0
 13127  1  0
 15128  1  0
 19129  1  0
 20130  1  0
 23131  1  0
 23132  1  0
 24133  1  0
 24134  1  0
 24135  1  0
 27136  1  0
 32137  1  0
 33138  1  0
 36139  1  0
 36140  1  0
 37141  1  0
 37142  1  0
 37143  1  0
 39144  1  0
 43145  1  0
 47146  1  0
 51147  1  0
 52148  1  0
 55149  1  0
 55150  1  0
 56151  1  0
 56152  1  0
 56153  1  0
 59154  1  0
 64155  1  0
 65156  1  0
 68157  1  0
 68158  1  0
 69159  1  0
 69160  1  0
 69161  1  0
 71162  1  0
 75163  1  0
 83164  1  0
 85165  1  0
 85166  1  0
 85167  1  0
 87168  1  0
 87169  1  0
 87170  1  0
 88171  1  0
 89172  1  0
 90173  1  0
 96174  1  0
 98175  1  0
 98176  1  0
 98177  1  0
100178  1  0
100179  1  0
100180  1  0
101181  1  0
102182  1  0
103183  1  0
109184  1  0
111185  1  0
111186  1  0
111187  1  0
113188  1  0
113189  1  0
113190  1  0
114191  1  0
115192  1  0
116193  1  0
116194  1  0
M  END

