
     RDKit          3D

275301  0  0  0  0  0  0  0  0999 V2000
   -5.7696   -2.9633   11.6539 C   0  0  0  0  0  0  0  0  0  0  0  0
   -4.8811   -2.4599   10.7080 C   0  0  0  0  0  0  0  0  0  0  0  0
   -5.0927   -2.9788    9.4186 C   0  0  0  0  0  0  0  0  0  0  0  0
   -4.3876   -2.6265    8.2500 C   0  0  0  0  0  0  0  0  0  0  0  0
   -3.3039   -1.6235    8.2571 C   0  0  0  0  0  0  0  0  0  0  0  0
   -2.1114   -1.8736    8.9499 C   0  0  0  0  0  0  0  0  0  0  0  0
   -1.0798   -0.9298    8.9357 C   0  0  0  0  0  0  0  0  0  0  0  0
   -1.2289    0.2691    8.2245 C   0  0  0  0  0  0  0  0  0  0  0  0
    0.0980    1.4815    8.2299 S   0  0  0  0  0  0  0  0  0  0  0  0
    0.8996    0.8895    6.6944 C   0  0  0  0  0  0  0  0  0  0  0  0
    2.3211    0.4332    6.9929 C   0  0  0  0  0  0  0  0  0  0  0  0
   -2.4220    0.5220    7.5301 C   0  0  0  0  0  0  0  0  0  0  0  0
   -2.5820    1.6792    6.8397 F   0  0  0  0  0  0  0  0  0  0  0  0
   -3.4541   -0.4210    7.5444 C   0  0  0  0  0  0  0  0  0  0  0  0
   -4.8032   -3.2323    7.0537 C   0  0  0  0  0  0  0  0  0  0  0  0
   -5.8798   -4.1249    6.9906 C   0  0  0  0  0  0  0  0  0  0  0  0
   -6.5772   -4.4881    8.1634 C   0  0  0  0  0  0  0  0  0  0  0  0
   -7.6944   -5.4612    8.1429 C   0  0  0  0  0  0  0  0  0  0  0  0
   -7.6123   -6.6487    8.8840 C   0  0  0  0  0  0  0  0  0  0  0  0
   -8.6374   -7.6012    8.8168 C   0  0  0  0  0  0  0  0  0  0  0  0
   -9.7527   -7.3716    8.0065 C   0  0  0  0  0  0  0  0  0  0  0  0
  -11.0141   -8.6397    7.8225 S   0  0  0  0  0  0  0  0  0  0  0  0
  -11.9772   -8.1365    9.2887 C   0  0  0  0  0  0  0  0  0  0  0  0
  -13.4332   -8.5453    9.1120 C   0  0  0  0  0  0  0  0  0  0  0  0
   -9.8546   -6.1750    7.2856 C   0  0  0  0  0  0  0  0  0  0  0  0
   -8.8346   -5.2205    7.3588 C   0  0  0  0  0  0  0  0  0  0  0  0
  -10.9319   -5.9405    6.4994 F   0  0  0  0  0  0  0  0  0  0  0  0
   -6.1505   -3.8910    9.3643 C   0  0  0  0  0  0  0  0  0  0  0  0
   -6.8179   -4.0447   10.9003 S   0  0  0  0  0  0  0  0  0  0  0  0
   -6.1501   -4.5652    5.6818 C   0  0  0  0  0  0  0  0  0  0  0  0
   -5.2741   -4.0372    4.7391 C   0  0  0  0  0  0  0  0  0  0  0  0
   -4.1684   -3.0215    5.5085 S   0  0  0  0  0  0  0  0  0  0  0  0
   -5.4055   -4.1752    3.2869 C   0  0  0  0  0  0  0  0  0  0  0  0
   -4.3595   -4.0988    2.3730 C   0  0  0  0  0  0  0  0  0  0  0  0
   -4.8002   -4.0994    1.0398 C   0  0  0  0  0  0  0  0  0  0  0  0
   -3.9885   -4.0213   -0.1088 C   0  0  0  0  0  0  0  0  0  0  0  0
   -2.5082   -3.9524   -0.0283 C   0  0  0  0  0  0  0  0  0  0  0  0
   -1.8803   -2.8984    0.6573 C   0  0  0  0  0  0  0  0  0  0  0  0
   -0.4885   -2.8543    0.7628 C   0  0  0  0  0  0  0  0  0  0  0  0
    0.2959   -3.8544    0.1713 C   0  0  0  0  0  0  0  0  0  0  0  0
    2.0833   -3.8045    0.3321 S   0  0  0  0  0  0  0  0  0  0  0  0
    2.1625   -5.0244    1.6915 C   0  0  0  0  0  0  0  0  0  0  0  0
    1.8350   -4.3868    3.0360 C   0  0  0  0  0  0  0  0  0  0  0  0
   -0.3253   -4.8843   -0.5518 C   0  0  0  0  0  0  0  0  0  0  0  0
    0.4219   -5.8472   -1.1490 F   0  0  0  0  0  0  0  0  0  0  0  0
   -1.7191   -4.9395   -0.6429 C   0  0  0  0  0  0  0  0  0  0  0  0
   -4.6509   -3.9704   -1.3438 C   0  0  0  0  0  0  0  0  0  0  0  0
   -6.0472   -3.9553   -1.4651 C   0  0  0  0  0  0  0  0  0  0  0  0
   -6.8610   -4.0644   -0.3166 C   0  0  0  0  0  0  0  0  0  0  0  0
   -8.3406   -4.0267   -0.3903 C   0  0  0  0  0  0  0  0  0  0  0  0
   -8.9965   -2.9161   -0.9487 C   0  0  0  0  0  0  0  0  0  0  0  0
  -10.3895   -2.8893   -1.0270 C   0  0  0  0  0  0  0  0  0  0  0  0
  -11.1438   -3.9621   -0.5336 C   0  0  0  0  0  0  0  0  0  0  0  0
  -12.9328   -3.9264   -0.6599 S   0  0  0  0  0  0  0  0  0  0  0  0
  -13.0062   -4.9218   -2.1943 C   0  0  0  0  0  0  0  0  0  0  0  0
  -12.7165   -4.0765   -3.4266 C   0  0  0  0  0  0  0  0  0  0  0  0
  -10.4970   -5.0550    0.0589 C   0  0  0  0  0  0  0  0  0  0  0  0
   -9.1011   -5.0918    0.1219 C   0  0  0  0  0  0  0  0  0  0  0  0
  -11.2171   -6.0958    0.5537 F   0  0  0  0  0  0  0  0  0  0  0  0
   -6.1954   -4.1567    0.9217 C   0  0  0  0  0  0  0  0  0  0  0  0
   -6.8720   -4.2278    2.4605 S   0  0  0  0  0  0  0  0  0  0  0  0
   -6.4827   -3.7477   -2.7901 C   0  0  0  0  0  0  0  0  0  0  0  0
   -5.4285   -3.6124   -3.6914 C   0  0  0  0  0  0  0  0  0  0  0  0
   -3.9688   -3.7299   -2.8549 S   0  0  0  0  0  0  0  0  0  0  0  0
   -5.4938   -2.9726   -5.0093 C   0  0  0  0  0  0  0  0  0  0  0  0
   -4.5300   -3.2820   -5.9606 C   0  0  0  0  0  0  0  0  0  0  0  0
   -3.9844   -2.1562   -6.6006 C   0  0  0  0  0  0  0  0  0  0  0  0
   -2.7415   -2.1426   -7.2520 C   0  0  0  0  0  0  0  0  0  0  0  0
   -1.9820   -3.3950   -7.4460 C   0  0  0  0  0  0  0  0  0  0  0  0
   -1.0228   -3.7737   -6.4965 C   0  0  0  0  0  0  0  0  0  0  0  0
   -0.3128   -4.9632   -6.6504 C   0  0  0  0  0  0  0  0  0  0  0  0
   -0.5379   -5.7784   -7.7644 C   0  0  0  0  0  0  0  0  0  0  0  0
    0.4102   -7.2889   -7.9604 S   0  0  0  0  0  0  0  0  0  0  0  0
    1.7767   -6.5071   -8.8965 C   0  0  0  0  0  0  0  0  0  0  0  0
    2.7791   -5.8321   -7.9632 C   0  0  0  0  0  0  0  0  0  0  0  0
   -1.5222   -5.4234   -8.6973 C   0  0  0  0  0  0  0  0  0  0  0  0
   -1.7797   -6.2260   -9.7581 F   0  0  0  0  0  0  0  0  0  0  0  0
   -2.2469   -4.2338   -8.5366 C   0  0  0  0  0  0  0  0  0  0  0  0
   -2.1056   -0.9011   -7.3780 C   0  0  0  0  0  0  0  0  0  0  0  0
   -2.6839    0.3022   -6.9391 C   0  0  0  0  0  0  0  0  0  0  0  0
   -4.0101    0.3018   -6.4412 C   0  0  0  0  0  0  0  0  0  0  0  0
   -4.7288    1.5289   -6.0374 C   0  0  0  0  0  0  0  0  0  0  0  0
   -4.2449    2.3676   -5.0197 C   0  0  0  0  0  0  0  0  0  0  0  0
   -4.9633    3.5115   -4.6487 C   0  0  0  0  0  0  0  0  0  0  0  0
   -6.1870    3.8058   -5.2619 C   0  0  0  0  0  0  0  0  0  0  0  0
   -7.1010    5.2775   -4.7738 S   0  0  0  0  0  0  0  0  0  0  0  0
   -6.5754    6.3157   -6.1892 C   0  0  0  0  0  0  0  0  0  0  0  0
   -7.7690    6.5933   -7.0937 C   0  0  0  0  0  0  0  0  0  0  0  0
   -6.7027    2.9377   -6.2331 C   0  0  0  0  0  0  0  0  0  0  0  0
   -5.9677    1.8189   -6.6328 C   0  0  0  0  0  0  0  0  0  0  0  0
   -7.9095    3.1737   -6.8017 F   0  0  0  0  0  0  0  0  0  0  0  0
   -4.6097   -0.9605   -6.2420 C   0  0  0  0  0  0  0  0  0  0  0  0
   -5.7940   -1.3144   -5.1004 S   0  0  0  0  0  0  0  0  0  0  0  0
   -1.7396    1.3518   -6.8408 C   0  0  0  0  0  0  0  0  0  0  0  0
   -0.4341    0.9461   -7.1387 C   0  0  0  0  0  0  0  0  0  0  0  0
   -0.4738   -0.6604   -7.6370 S   0  0  0  0  0  0  0  0  0  0  0  0
    0.7761    1.4911   -6.5051 C   0  0  0  0  0  0  0  0  0  0  0  0
    1.1195    2.8297   -6.2889 C   0  0  0  0  0  0  0  0  0  0  0  0
    2.2898    2.9645   -5.5077 C   0  0  0  0  0  0  0  0  0  0  0  0
    2.9300    4.1668   -5.1276 C   0  0  0  0  0  0  0  0  0  0  0  0
    2.4299    5.4787   -5.5694 C   0  0  0  0  0  0  0  0  0  0  0  0
    3.1301    6.2038   -6.5448 C   0  0  0  0  0  0  0  0  0  0  0  0
    2.6210    7.4171   -7.0141 C   0  0  0  0  0  0  0  0  0  0  0  0
    1.4221    7.9228   -6.5024 C   0  0  0  0  0  0  0  0  0  0  0  0
    0.7574    9.4682   -7.1281 S   0  0  0  0  0  0  0  0  0  0  0  0
    1.9311   10.5200   -6.2118 C   0  0  0  0  0  0  0  0  0  0  0  0
    1.4326   11.9568   -6.2052 C   0  0  0  0  0  0  0  0  0  0  0  0
    0.7286    7.2071   -5.5159 C   0  0  0  0  0  0  0  0  0  0  0  0
   -0.4420    7.6765   -5.0178 F   0  0  0  0  0  0  0  0  0  0  0  0
    1.2235    5.9792   -5.0651 C   0  0  0  0  0  0  0  0  0  0  0  0
    4.0949    4.0505   -4.3373 C   0  0  0  0  0  0  0  0  0  0  0  0
    4.5823    2.8154   -3.9011 C   0  0  0  0  0  0  0  0  0  0  0  0
    3.9525    1.6205   -4.2884 C   0  0  0  0  0  0  0  0  0  0  0  0
    4.4307    0.2962   -3.8479 C   0  0  0  0  0  0  0  0  0  0  0  0
    5.0190   -0.5898   -4.7649 C   0  0  0  0  0  0  0  0  0  0  0  0
    5.3896   -1.8757   -4.3623 C   0  0  0  0  0  0  0  0  0  0  0  0
    5.1570   -2.2951   -3.0459 C   0  0  0  0  0  0  0  0  0  0  0  0
    5.5778   -3.9698   -2.5490 S   0  0  0  0  0  0  0  0  0  0  0  0
    3.9203   -4.6660   -2.9022 C   0  0  0  0  0  0  0  0  0  0  0  0
    3.7961   -5.0693   -4.3663 C   0  0  0  0  0  0  0  0  0  0  0  0
    4.5964   -1.4034   -2.1220 C   0  0  0  0  0  0  0  0  0  0  0  0
    4.2224   -0.1195   -2.5264 C   0  0  0  0  0  0  0  0  0  0  0  0
    4.3931   -1.7833   -0.8360 F   0  0  0  0  0  0  0  0  0  0  0  0
    2.8241    1.7366   -5.1069 C   0  0  0  0  0  0  0  0  0  0  0  0
    1.8925    0.4946   -5.7204 S   0  0  0  0  0  0  0  0  0  0  0  0
    5.7149    2.9159   -3.0873 C   0  0  0  0  0  0  0  0  0  0  0  0
    6.1616    4.2262   -2.9252 C   0  0  0  0  0  0  0  0  0  0  0  0
    5.0959    5.2665   -3.7326 S   0  0  0  0  0  0  0  0  0  0  0  0
    7.3244    4.6434   -2.1136 C   0  0  0  0  0  0  0  0  0  0  0  0
    7.4068    6.0907   -1.2423 S   0  0  0  0  0  0  0  0  0  0  0  0
    8.8171    5.7441   -0.3870 C   0  0  0  0  0  0  0  0  0  0  0  0
    9.2519    4.4785   -0.7815 C   0  0  0  0  0  0  0  0  0  0  0  0
    8.4449    3.8766   -1.7594 C   0  0  0  0  0  0  0  0  0  0  0  0
    8.8182    2.6405   -2.2997 C   0  0  0  0  0  0  0  0  0  0  0  0
    9.9309    1.9507   -1.7877 C   0  0  0  0  0  0  0  0  0  0  0  0
   10.2876    0.6061   -2.3646 C   0  0  0  0  0  0  0  0  0  0  0  0
   10.7190    2.5442   -0.7706 C   0  0  0  0  0  0  0  0  0  0  0  0
   11.9105    1.8321   -0.1857 C   0  0  0  0  0  0  0  0  0  0  0  0
   10.3773    3.8169   -0.2834 C   0  0  0  0  0  0  0  0  0  0  0  0
    9.3588    6.5454    0.7269 C   0  0  0  0  0  0  0  0  0  0  0  0
    9.3688    6.0959    1.9924 C   0  0  0  0  0  0  0  0  0  0  0  0
    8.6185    4.8973    2.4190 C   0  0  0  0  0  0  0  0  0  0  0  0
    7.3185    4.5904    2.0273 C   0  0  0  0  0  0  0  0  0  0  0  0
    6.8659    3.3630    2.5253 C   0  0  0  0  0  0  0  0  0  0  0  0
    5.6134    2.7671    2.2598 C   0  0  0  0  0  0  0  0  0  0  0  0
    4.5870    3.4487    1.4374 C   0  0  0  0  0  0  0  0  0  0  0  0
    4.1599    4.7480    1.7706 C   0  0  0  0  0  0  0  0  0  0  0  0
    3.2802    5.4399    0.9384 C   0  0  0  0  0  0  0  0  0  0  0  0
    2.7748    4.8305   -0.2134 C   0  0  0  0  0  0  0  0  0  0  0  0
    1.7027    5.7562   -1.3160 S   0  0  0  0  0  0  0  0  0  0  0  0
    0.1696    5.2714   -0.4575 C   0  0  0  0  0  0  0  0  0  0  0  0
   -1.0197    5.9789   -1.0894 C   0  0  0  0  0  0  0  0  0  0  0  0
    3.1423    3.5157   -0.5227 C   0  0  0  0  0  0  0  0  0  0  0  0
    2.6201    2.8995   -1.6099 F   0  0  0  0  0  0  0  0  0  0  0  0
    4.0617    2.8347    0.2893 C   0  0  0  0  0  0  0  0  0  0  0  0
    5.3951    1.4873    2.8086 C   0  0  0  0  0  0  0  0  0  0  0  0
    6.3537    0.8336    3.5918 C   0  0  0  0  0  0  0  0  0  0  0  0
    7.5947    1.4433    3.8663 C   0  0  0  0  0  0  0  0  0  0  0  0
    8.6361    0.7629    4.6558 C   0  0  0  0  0  0  0  0  0  0  0  0
    9.4828   -0.1676    4.0369 C   0  0  0  0  0  0  0  0  0  0  0  0
   10.4580   -0.8300    4.7852 C   0  0  0  0  0  0  0  0  0  0  0  0
   10.5701   -0.5993    6.1606 C   0  0  0  0  0  0  0  0  0  0  0  0
   11.7930   -1.5001    7.1175 S   0  0  0  0  0  0  0  0  0  0  0  0
   10.7800   -3.0113    7.3033 C   0  0  0  0  0  0  0  0  0  0  0  0
    9.8181   -2.8911    8.4785 C   0  0  0  0  0  0  0  0  0  0  0  0
    9.7303    0.3396    6.7814 C   0  0  0  0  0  0  0  0  0  0  0  0
    8.7693    1.0229    6.0280 C   0  0  0  0  0  0  0  0  0  0  0  0
    9.8398    0.5881    8.1101 F   0  0  0  0  0  0  0  0  0  0  0  0
    7.8208    2.7125    3.3138 C   0  0  0  0  0  0  0  0  0  0  0  0
    9.2100    3.6665    3.4068 S   0  0  0  0  0  0  0  0  0  0  0  0
    5.9278   -0.4255    4.0465 C   0  0  0  0  0  0  0  0  0  0  0  0
    4.6451   -0.7556    3.6222 C   0  0  0  0  0  0  0  0  0  0  0  0
    4.0312    0.5086    2.6911 S   0  0  0  0  0  0  0  0  0  0  0  0
   -5.7944   -2.6858   12.6983 H   0  0  0  0  0  0  0  0  0  0  0  0
   -4.1205   -1.7290   10.9493 H   0  0  0  0  0  0  0  0  0  0  0  0
   -1.9779   -2.8016    9.4929 H   0  0  0  0  0  0  0  0  0  0  0  0
   -0.1684   -1.1302    9.4828 H   0  0  0  0  0  0  0  0  0  0  0  0
    0.9364    1.7279    5.9667 H   0  0  0  0  0  0  0  0  0  0  0  0
    0.3444    0.0495    6.2209 H   0  0  0  0  0  0  0  0  0  0  0  0
    2.3101   -0.4032    7.7222 H   0  0  0  0  0  0  0  0  0  0  0  0
    2.8020    0.0879    6.0555 H   0  0  0  0  0  0  0  0  0  0  0  0
    2.9135    1.2773    7.4060 H   0  0  0  0  0  0  0  0  0  0  0  0
   -4.3690   -0.2188    7.0036 H   0  0  0  0  0  0  0  0  0  0  0  0
   -6.7413   -6.8536    9.4940 H   0  0  0  0  0  0  0  0  0  0  0  0
   -8.5520   -8.5181    9.3811 H   0  0  0  0  0  0  0  0  0  0  0  0
  -11.9311   -7.0316    9.4351 H   0  0  0  0  0  0  0  0  0  0  0  0
  -11.5503   -8.6334   10.1868 H   0  0  0  0  0  0  0  0  0  0  0  0
  -13.8881   -7.9797    8.2683 H   0  0  0  0  0  0  0  0  0  0  0  0
  -13.5113   -9.6388    8.9000 H   0  0  0  0  0  0  0  0  0  0  0  0
  -13.9911   -8.3236   10.0452 H   0  0  0  0  0  0  0  0  0  0  0  0
   -8.9271   -4.3029    6.7910 H   0  0  0  0  0  0  0  0  0  0  0  0
   -6.9591   -5.2325    5.4194 H   0  0  0  0  0  0  0  0  0  0  0  0
   -3.3255   -4.0385    2.6781 H   0  0  0  0  0  0  0  0  0  0  0  0
   -2.4740   -2.1180    1.1202 H   0  0  0  0  0  0  0  0  0  0  0  0
   -0.0198   -2.0510    1.3151 H   0  0  0  0  0  0  0  0  0  0  0  0
    1.4791   -5.8775    1.4912 H   0  0  0  0  0  0  0  0  0  0  0  0
    3.1961   -5.4267    1.7307 H   0  0  0  0  0  0  0  0  0  0  0  0
    1.9128   -5.1452    3.8440 H   0  0  0  0  0  0  0  0  0  0  0  0
    0.8043   -3.9769    3.0400 H   0  0  0  0  0  0  0  0  0  0  0  0
    2.5561   -3.5706    3.2510 H   0  0  0  0  0  0  0  0  0  0  0  0
   -2.1863   -5.7505   -1.1877 H   0  0  0  0  0  0  0  0  0  0  0  0
   -8.4282   -2.0743   -1.3224 H   0  0  0  0  0  0  0  0  0  0  0  0
  -10.8860   -2.0363   -1.4743 H   0  0  0  0  0  0  0  0  0  0  0  0
  -14.0283   -5.3437   -2.2820 H   0  0  0  0  0  0  0  0  0  0  0  0
  -12.2986   -5.7767   -2.1442 H   0  0  0  0  0  0  0  0  0  0  0  0
  -11.6699   -3.7055   -3.4104 H   0  0  0  0  0  0  0  0  0  0  0  0
  -12.8587   -4.6940   -4.3409 H   0  0  0  0  0  0  0  0  0  0  0  0
  -13.4149   -3.2141   -3.4692 H   0  0  0  0  0  0  0  0  0  0  0  0
   -8.6083   -5.9546    0.5571 H   0  0  0  0  0  0  0  0  0  0  0  0
   -7.5161   -3.6333   -3.0832 H   0  0  0  0  0  0  0  0  0  0  0  0
   -4.0566   -4.2562   -5.9902 H   0  0  0  0  0  0  0  0  0  0  0  0
   -0.8304   -3.1488   -5.6346 H   0  0  0  0  0  0  0  0  0  0  0  0
    0.4221   -5.2420   -5.9081 H   0  0  0  0  0  0  0  0  0  0  0  0
    1.3802   -5.7729   -9.6332 H   0  0  0  0  0  0  0  0  0  0  0  0
    2.3013   -7.3041   -9.4644 H   0  0  0  0  0  0  0  0  0  0  0  0
    3.6729   -5.5137   -8.5416 H   0  0  0  0  0  0  0  0  0  0  0  0
    2.3249   -4.9357   -7.4956 H   0  0  0  0  0  0  0  0  0  0  0  0
    3.0941   -6.5409   -7.1639 H   0  0  0  0  0  0  0  0  0  0  0  0
   -3.0060   -3.9637   -9.2617 H   0  0  0  0  0  0  0  0  0  0  0  0
   -3.3292    2.1237   -4.4946 H   0  0  0  0  0  0  0  0  0  0  0  0
   -4.5753    4.1591   -3.8743 H   0  0  0  0  0  0  0  0  0  0  0  0
   -6.1791    7.2775   -5.7981 H   0  0  0  0  0  0  0  0  0  0  0  0
   -5.7668    5.8320   -6.7833 H   0  0  0  0  0  0  0  0  0  0  0  0
   -8.5592    7.1399   -6.5292 H   0  0  0  0  0  0  0  0  0  0  0  0
   -7.4449    7.2169   -7.9522 H   0  0  0  0  0  0  0  0  0  0  0  0
   -8.1881    5.6391   -7.4795 H   0  0  0  0  0  0  0  0  0  0  0  0
   -6.3727    1.1668   -7.4017 H   0  0  0  0  0  0  0  0  0  0  0  0
   -1.9560    2.3172   -6.4039 H   0  0  0  0  0  0  0  0  0  0  0  0
    0.5413    3.6604   -6.6711 H   0  0  0  0  0  0  0  0  0  0  0  0
    4.0561    5.8194   -6.9534 H   0  0  0  0  0  0  0  0  0  0  0  0
    3.1634    7.9644   -7.7753 H   0  0  0  0  0  0  0  0  0  0  0  0
    2.9275   10.4721   -6.7038 H   0  0  0  0  0  0  0  0  0  0  0  0
    2.0319   10.1647   -5.1608 H   0  0  0  0  0  0  0  0  0  0  0  0
    1.2832   12.3202   -7.2466 H   0  0  0  0  0  0  0  0  0  0  0  0
    0.4664   12.0178   -5.6577 H   0  0  0  0  0  0  0  0  0  0  0  0
    2.1856   12.6021   -5.7098 H   0  0  0  0  0  0  0  0  0  0  0  0
    0.6714    5.4245   -4.3163 H   0  0  0  0  0  0  0  0  0  0  0  0
    5.1735   -0.2898   -5.7940 H   0  0  0  0  0  0  0  0  0  0  0  0
    5.8347   -2.5535   -5.0764 H   0  0  0  0  0  0  0  0  0  0  0  0
    3.1180   -3.9418   -2.6378 H   0  0  0  0  0  0  0  0  0  0  0  0
    3.7825   -5.5679   -2.2683 H   0  0  0  0  0  0  0  0  0  0  0  0
    3.8339   -4.1773   -5.0207 H   0  0  0  0  0  0  0  0  0  0  0  0
    4.6198   -5.7626   -4.6438 H   0  0  0  0  0  0  0  0  0  0  0  0
    2.8263   -5.5859   -4.5286 H   0  0  0  0  0  0  0  0  0  0  0  0
    3.7489    0.5422   -1.8199 H   0  0  0  0  0  0  0  0  0  0  0  0
    6.1581    2.0648   -2.5973 H   0  0  0  0  0  0  0  0  0  0  0  0
    8.2827    2.2192   -3.1361 H   0  0  0  0  0  0  0  0  0  0  0  0
   10.4307   -0.1296   -1.5486 H   0  0  0  0  0  0  0  0  0  0  0  0
   11.2233    0.6908   -2.9580 H   0  0  0  0  0  0  0  0  0  0  0  0
    9.4829    0.2210   -3.0278 H   0  0  0  0  0  0  0  0  0  0  0  0
   12.5890    1.5017   -0.9993 H   0  0  0  0  0  0  0  0  0  0  0  0
   12.4919    2.4950    0.4866 H   0  0  0  0  0  0  0  0  0  0  0  0
   11.5706    0.9495    0.3972 H   0  0  0  0  0  0  0  0  0  0  0  0
   10.9829    4.2857    0.4825 H   0  0  0  0  0  0  0  0  0  0  0  0
    9.8491    7.4814    0.4967 H   0  0  0  0  0  0  0  0  0  0  0  0
    9.9355    6.6401    2.7370 H   0  0  0  0  0  0  0  0  0  0  0  0
    6.7316    5.2364    1.3969 H   0  0  0  0  0  0  0  0  0  0  0  0
    4.5424    5.2347    2.6570 H   0  0  0  0  0  0  0  0  0  0  0  0
    2.9971    6.4542    1.1873 H   0  0  0  0  0  0  0  0  0  0  0  0
    0.2387    5.5480    0.6183 H   0  0  0  0  0  0  0  0  0  0  0  0
    0.0330    4.1704   -0.5433 H   0  0  0  0  0  0  0  0  0  0  0  0
   -1.9523    5.6739   -0.5715 H   0  0  0  0  0  0  0  0  0  0  0  0
   -0.9067    7.0812   -0.9968 H   0  0  0  0  0  0  0  0  0  0  0  0
   -1.1037    5.7083   -2.1644 H   0  0  0  0  0  0  0  0  0  0  0  0
    4.3840    1.8419    0.0120 H   0  0  0  0  0  0  0  0  0  0  0  0
    9.3810   -0.3777    2.9789 H   0  0  0  0  0  0  0  0  0  0  0  0
   11.1145   -1.5396    4.2975 H   0  0  0  0  0  0  0  0  0  0  0  0
   11.4622   -3.8654    7.4848 H   0  0  0  0  0  0  0  0  0  0  0  0
   10.2177   -3.2253    6.3687 H   0  0  0  0  0  0  0  0  0  0  0  0
   10.3815   -2.7069    9.4201 H   0  0  0  0  0  0  0  0  0  0  0  0
    9.0976   -2.0651    8.3086 H   0  0  0  0  0  0  0  0  0  0  0  0
    9.2480   -3.8399    8.5876 H   0  0  0  0  0  0  0  0  0  0  0  0
    8.1237    1.7484    6.5114 H   0  0  0  0  0  0  0  0  0  0  0  0
    6.5280   -1.0782    4.6662 H   0  0  0  0  0  0  0  0  0  0  0  0
    4.1225   -1.6727    3.8603 H   0  0  0  0  0  0  0  0  0  0  0  0
  1  2  2  0
  2  3  1  0
  3  4  2  0
  4  5  1  0
  5  6  2  0
  6  7  1  0
  7  8  2  0
  8  9  1  0
  9 10  1  0
 10 11  1  0
  8 12  1  0
 12 13  1  0
 12 14  2  0
  4 15  1  0
 15 16  2  0
 16 17  1  0
 17 18  1  0
 18 19  2  0
 19 20  1  0
 20 21  2  0
 21 22  1  0
 22 23  1  0
 23 24  1  0
 21 25  1  0
 25 26  2  0
 25 27  1  0
 17 28  2  0
 28 29  1  0
 16 30  1  0
 30 31  2  0
 31 32  1  0
 31 33  1  0
 33 34  2  0
 34 35  1  0
 35 36  2  0
 36 37  1  0
 37 38  2  0
 38 39  1  0
 39 40  2  0
 40 41  1  0
 41 42  1  0
 42 43  1  0
 40 44  1  0
 44 45  1  0
 44 46  2  0
 36 47  1  0
 47 48  2  0
 48 49  1  0
 49 50  1  0
 50 51  2  0
 51 52  1  0
 52 53  2  0
 53 54  1  0
 54 55  1  0
 55 56  1  0
 53 57  1  0
 57 58  2  0
 57 59  1  0
 49 60  2  0
 60 61  1  0
 48 62  1  0
 62 63  2  0
 63 64  1  0
 63 65  1  0
 65 66  2  0
 66 67  1  0
 67 68  2  0
 68 69  1  0
 69 70  2  0
 70 71  1  0
 71 72  2  0
 72 73  1  0
 73 74  1  0
 74 75  1  0
 72 76  1  0
 76 77  1  0
 76 78  2  0
 68 79  1  0
 79 80  2  0
 80 81  1  0
 81 82  1  0
 82 83  2  0
 83 84  1  0
 84 85  2  0
 85 86  1  0
 86 87  1  0
 87 88  1  0
 85 89  1  0
 89 90  2  0
 89 91  1  0
 81 92  2  0
 92 93  1  0
 80 94  1  0
 94 95  2  0
 95 96  1  0
 95 97  1  0
 97 98  2  0
 98 99  1  0
 99100  2  0
100101  1  0
101102  2  0
102103  1  0
103104  2  0
104105  1  0
105106  1  0
106107  1  0
104108  1  0
108109  1  0
108110  2  0
100111  1  0
111112  2  0
112113  1  0
113114  1  0
114115  2  0
115116  1  0
116117  2  0
117118  1  0
118119  1  0
119120  1  0
117121  1  0
121122  2  0
121123  1  0
113124  2  0
124125  1  0
112126  1  0
126127  2  0
127128  1  0
127129  1  0
129130  1  0
130131  1  0
131132  2  0
132133  1  0
133134  1  0
134135  2  0
135136  1  0
135137  1  0
137138  1  0
137139  2  0
131140  1  0
140141  2  3
141142  1  0
142143  2  0
143144  1  0
144145  2  0
145146  1  0
146147  2  0
147148  1  0
148149  2  0
149150  1  0
150151  1  0
151152  1  0
149153  1  0
153154  1  0
153155  2  0
145156  1  0
156157  2  0
157158  1  0
158159  1  0
159160  2  0
160161  1  0
161162  2  0
162163  1  0
163164  1  0
164165  1  0
162166  1  0
166167  2  0
166168  1  0
158169  2  0
169170  1  0
157171  1  0
171172  2  0
172173  1  0
 29  1  1  0
 61 33  1  0
 93 65  1  0
125 97  1  0
133129  2  0
170142  1  0
 28  3  1  0
 60 35  1  0
 92 67  1  0
124 99  1  0
139132  1  0
169144  1  0
 14  5  1  0
 32 15  1  0
 46 37  1  0
 64 47  1  0
 78 69  1  0
 96 79  1  0
110101  1  0
128111  1  0
155146  1  0
173156  1  0
 26 18  1  0
 58 50  1  0
 90 82  1  0
122114  1  0
167159  1  0
  1174  1  0
  2175  1  0
  6176  1  0
  7177  1  0
 10178  1  0
 10179  1  0
 11180  1  0
 11181  1  0
 11182  1  0
 14183  1  0
 19184  1  0
 20185  1  0
 23186  1  0
 23187  1  0
 24188  1  0
 24189  1  0
 24190  1  0
 26191  1  0
 30192  1  0
 34193  1  0
 38194  1  0
 39195  1  0
 42196  1  0
 42197  1  0
 43198  1  0
 43199  1  0
 43200  1  0
 46201  1  0
 51202  1  0
 52203  1  0
 55204  1  0
 55205  1  0
 56206  1  0
 56207  1  0
 56208  1  0
 58209  1  0
 62210  1  0
 66211  1  0
 70212  1  0
 71213  1  0
 74214  1  0
 74215  1  0
 75216  1  0
 75217  1  0
 75218  1  0
 78219  1  0
 83220  1  0
 84221  1  0
 87222  1  0
 87223  1  0
 88224  1  0
 88225  1  0
 88226  1  0
 90227  1  0
 94228  1  0
 98229  1  0
102230  1  0
103231  1  0
106232  1  0
106233  1  0
107234  1  0
107235  1  0
107236  1  0
110237  1  0
115238  1  0
116239  1  0
119240  1  0
119241  1  0
120242  1  0
120243  1  0
120244  1  0
122245  1  0
126246  1  0
134247  1  0
136248  1  0
136249  1  0
136250  1  0
138251  1  0
138252  1  0
138253  1  0
139254  1  0
140255  1  0
141256  1  0
143257  1  0
147258  1  0
148259  1  0
151260  1  0
151261  1  0
152262  1  0
152263  1  0
152264  1  0
155265  1  0
160266  1  0
161267  1  0
164268  1  0
164269  1  0
165270  1  0
165271  1  0
165272  1  0
167273  1  0
171274  1  0
172275  1  0
M  END

