
     RDKit          3D

275301  0  0  0  0  0  0  0  0999 V2000
    6.7027   -5.3280    5.3661 C   0  0  0  0  0  0  0  0  0  0  0  0
    5.5912   -6.3539    4.6308 S   0  0  0  0  0  0  0  0  0  0  0  0
    4.2074   -5.7965    5.4265 C   0  0  0  0  0  0  0  0  0  0  0  0
    4.6150   -4.7740    6.2908 C   0  0  0  0  0  0  0  0  0  0  0  0
    5.9979   -4.5203    6.2455 C   0  0  0  0  0  0  0  0  0  0  0  0
    6.5696   -3.5188    7.0304 C   0  0  0  0  0  0  0  0  0  0  0  0
    5.7534   -2.7553    7.8877 C   0  0  0  0  0  0  0  0  0  0  0  0
    6.3838   -1.6692    8.7193 C   0  0  0  0  0  0  0  0  0  0  0  0
    4.3536   -3.0036    7.9372 C   0  0  0  0  0  0  0  0  0  0  0  0
    3.4618   -2.2272    8.8686 C   0  0  0  0  0  0  0  0  0  0  0  0
    3.7905   -4.0192    7.1362 C   0  0  0  0  0  0  0  0  0  0  0  0
    2.8241   -6.2669    5.2023 C   0  0  0  0  0  0  0  0  0  0  0  0
    2.5008   -7.0842    4.1913 C   0  0  0  0  0  0  0  0  0  0  0  0
    1.1041   -7.4366    3.8759 C   0  0  0  0  0  0  0  0  0  0  0  0
   -0.0167   -7.2718    4.6932 C   0  0  0  0  0  0  0  0  0  0  0  0
   -1.2235   -7.5596    4.0324 C   0  0  0  0  0  0  0  0  0  0  0  0
   -2.5231   -7.3955    4.5551 C   0  0  0  0  0  0  0  0  0  0  0  0
   -2.7758   -6.8258    5.9012 C   0  0  0  0  0  0  0  0  0  0  0  0
   -3.5843   -7.5137    6.8217 C   0  0  0  0  0  0  0  0  0  0  0  0
   -3.8808   -6.9443    8.0630 C   0  0  0  0  0  0  0  0  0  0  0  0
   -3.3806   -5.6785    8.3944 C   0  0  0  0  0  0  0  0  0  0  0  0
   -3.7566   -4.9637   10.0022 S   0  0  0  0  0  0  0  0  0  0  0  0
   -5.3797   -4.2814    9.5157 C   0  0  0  0  0  0  0  0  0  0  0  0
   -5.2225   -3.0173    8.6766 C   0  0  0  0  0  0  0  0  0  0  0  0
   -2.5622   -4.9918    7.4866 C   0  0  0  0  0  0  0  0  0  0  0  0
   -2.0565   -3.7703    7.7998 F   0  0  0  0  0  0  0  0  0  0  0  0
   -2.2724   -5.5577    6.2401 C   0  0  0  0  0  0  0  0  0  0  0  0
   -3.5907   -7.6679    3.6796 C   0  0  0  0  0  0  0  0  0  0  0  0
   -3.4089   -8.0439    2.3431 C   0  0  0  0  0  0  0  0  0  0  0  0
   -2.1055   -8.2419    1.8345 C   0  0  0  0  0  0  0  0  0  0  0  0
   -1.8489   -8.6302    0.4301 C   0  0  0  0  0  0  0  0  0  0  0  0
   -2.2209   -7.7843   -0.6261 C   0  0  0  0  0  0  0  0  0  0  0  0
   -1.9359   -8.1411   -1.9467 C   0  0  0  0  0  0  0  0  0  0  0  0
   -1.2655   -9.3380   -2.2236 C   0  0  0  0  0  0  0  0  0  0  0  0
   -0.8907   -9.7853   -3.9242 S   0  0  0  0  0  0  0  0  0  0  0  0
    0.7577   -9.0090   -3.8907 C   0  0  0  0  0  0  0  0  0  0  0  0
    1.4535   -9.2155   -5.2269 C   0  0  0  0  0  0  0  0  0  0  0  0
   -0.8877  -10.1834   -1.1724 C   0  0  0  0  0  0  0  0  0  0  0  0
   -1.1735   -9.8278    0.1484 C   0  0  0  0  0  0  0  0  0  0  0  0
   -0.2368  -11.3457   -1.4236 F   0  0  0  0  0  0  0  0  0  0  0  0
   -1.0368   -7.9896    2.7141 C   0  0  0  0  0  0  0  0  0  0  0  0
    0.6112   -7.9743    2.3586 S   0  0  0  0  0  0  0  0  0  0  0  0
   -4.6104   -8.0606    1.6001 C   0  0  0  0  0  0  0  0  0  0  0  0
   -5.7250   -7.6634    2.3454 C   0  0  0  0  0  0  0  0  0  0  0  0
   -5.2127   -7.3369    3.9239 S   0  0  0  0  0  0  0  0  0  0  0  0
   -6.9457   -7.0513    1.7840 C   0  0  0  0  0  0  0  0  0  0  0  0
   -7.8630   -6.3903    2.6057 C   0  0  0  0  0  0  0  0  0  0  0  0
   -8.3798   -5.2121    2.0388 C   0  0  0  0  0  0  0  0  0  0  0  0
   -8.9460   -4.1463    2.7749 C   0  0  0  0  0  0  0  0  0  0  0  0
   -9.1043   -4.2268    4.2442 C   0  0  0  0  0  0  0  0  0  0  0  0
   -7.9691   -4.3493    5.0610 C   0  0  0  0  0  0  0  0  0  0  0  0
   -8.1081   -4.4521    6.4420 C   0  0  0  0  0  0  0  0  0  0  0  0
   -9.3792   -4.4254    7.0284 C   0  0  0  0  0  0  0  0  0  0  0  0
   -9.5424   -4.5875    8.8091 S   0  0  0  0  0  0  0  0  0  0  0  0
   -9.7088   -6.4097    8.7922 C   0  0  0  0  0  0  0  0  0  0  0  0
   -8.3435   -7.0903    8.7660 C   0  0  0  0  0  0  0  0  0  0  0  0
  -10.5129   -4.2581    6.2191 C   0  0  0  0  0  0  0  0  0  0  0  0
  -11.7490   -4.1955    6.7768 F   0  0  0  0  0  0  0  0  0  0  0  0
  -10.3769   -4.1544    4.8319 C   0  0  0  0  0  0  0  0  0  0  0  0
   -9.0179   -2.9014    2.1291 C   0  0  0  0  0  0  0  0  0  0  0  0
   -8.6187   -2.7172    0.8007 C   0  0  0  0  0  0  0  0  0  0  0  0
   -8.1404   -3.8044    0.0398 C   0  0  0  0  0  0  0  0  0  0  0  0
   -7.5233   -3.6087   -1.2857 C   0  0  0  0  0  0  0  0  0  0  0  0
   -6.2520   -3.0222   -1.3922 C   0  0  0  0  0  0  0  0  0  0  0  0
   -5.6575   -2.8609   -2.6456 C   0  0  0  0  0  0  0  0  0  0  0  0
   -6.3269   -3.2765   -3.8022 C   0  0  0  0  0  0  0  0  0  0  0  0
   -5.5379   -3.0968   -5.4106 S   0  0  0  0  0  0  0  0  0  0  0  0
   -6.0198   -1.3513   -5.6490 C   0  0  0  0  0  0  0  0  0  0  0  0
   -7.4847   -1.2200   -6.0481 C   0  0  0  0  0  0  0  0  0  0  0  0
   -7.5918   -3.8775   -3.6959 C   0  0  0  0  0  0  0  0  0  0  0  0
   -8.1857   -4.0431   -2.4410 C   0  0  0  0  0  0  0  0  0  0  0  0
   -8.2470   -4.3041   -4.8059 F   0  0  0  0  0  0  0  0  0  0  0  0
   -7.9987   -5.0349    0.7051 C   0  0  0  0  0  0  0  0  0  0  0  0
   -6.9454   -6.2765    0.2812 S   0  0  0  0  0  0  0  0  0  0  0  0
   -8.4526   -1.3673    0.4576 C   0  0  0  0  0  0  0  0  0  0  0  0
   -8.5933   -0.4930    1.5403 C   0  0  0  0  0  0  0  0  0  0  0  0
   -9.0763   -1.3973    2.8809 S   0  0  0  0  0  0  0  0  0  0  0  0
   -7.7233    0.6863    1.6631 C   0  0  0  0  0  0  0  0  0  0  0  0
   -7.2661    1.4151    0.5606 C   0  0  0  0  0  0  0  0  0  0  0  0
   -5.9661    1.9236    0.7254 C   0  0  0  0  0  0  0  0  0  0  0  0
   -5.1758    2.5187   -0.2762 C   0  0  0  0  0  0  0  0  0  0  0  0
   -5.6945    2.8271   -1.6270 C   0  0  0  0  0  0  0  0  0  0  0  0
   -6.1122    1.8018   -2.4911 C   0  0  0  0  0  0  0  0  0  0  0  0
   -6.5537    2.1118   -3.7803 C   0  0  0  0  0  0  0  0  0  0  0  0
   -6.5555    3.4367   -4.2261 C   0  0  0  0  0  0  0  0  0  0  0  0
   -7.1229    3.8143   -5.8849 S   0  0  0  0  0  0  0  0  0  0  0  0
   -8.8332    4.1271   -5.3388 C   0  0  0  0  0  0  0  0  0  0  0  0
   -9.7192    4.3843   -6.5473 C   0  0  0  0  0  0  0  0  0  0  0  0
   -6.1184    4.4594   -3.3764 C   0  0  0  0  0  0  0  0  0  0  0  0
   -6.1038    5.7496   -3.8003 F   0  0  0  0  0  0  0  0  0  0  0  0
   -5.6911    4.1576   -2.0815 C   0  0  0  0  0  0  0  0  0  0  0  0
   -3.8178    2.7076    0.0217 C   0  0  0  0  0  0  0  0  0  0  0  0
   -3.2490    2.3699    1.2557 C   0  0  0  0  0  0  0  0  0  0  0  0
   -4.0601    1.8630    2.2919 C   0  0  0  0  0  0  0  0  0  0  0  0
   -3.5050    1.4619    3.6017 C   0  0  0  0  0  0  0  0  0  0  0  0
   -3.4597    0.1069    3.9688 C   0  0  0  0  0  0  0  0  0  0  0  0
   -3.0059   -0.2591    5.2401 C   0  0  0  0  0  0  0  0  0  0  0  0
   -2.6051    0.7248    6.1521 C   0  0  0  0  0  0  0  0  0  0  0  0
   -2.0781    0.2530    7.8029 S   0  0  0  0  0  0  0  0  0  0  0  0
   -0.3124    0.2062    7.3509 C   0  0  0  0  0  0  0  0  0  0  0  0
    0.5381    0.0030    8.5965 C   0  0  0  0  0  0  0  0  0  0  0  0
   -2.6390    2.0780    5.7816 C   0  0  0  0  0  0  0  0  0  0  0  0
   -3.0769    2.4441    4.5043 C   0  0  0  0  0  0  0  0  0  0  0  0
   -2.2513    3.0373    6.6557 F   0  0  0  0  0  0  0  0  0  0  0  0
   -5.4190    1.6448    1.9828 C   0  0  0  0  0  0  0  0  0  0  0  0
   -6.5431    0.7675    2.8700 S   0  0  0  0  0  0  0  0  0  0  0  0
   -1.8362    2.4191    1.2476 C   0  0  0  0  0  0  0  0  0  0  0  0
   -1.3248    2.7518   -0.0084 C   0  0  0  0  0  0  0  0  0  0  0  0
   -2.5988    3.0302   -1.0743 S   0  0  0  0  0  0  0  0  0  0  0  0
    0.0436    2.5287   -0.4837 C   0  0  0  0  0  0  0  0  0  0  0  0
    1.2319    2.9924    0.0870 C   0  0  0  0  0  0  0  0  0  0  0  0
    2.3478    2.7843   -0.7559 C   0  0  0  0  0  0  0  0  0  0  0  0
    3.6652    3.2669   -0.5595 C   0  0  0  0  0  0  0  0  0  0  0  0
    4.0712    3.9493    0.6865 C   0  0  0  0  0  0  0  0  0  0  0  0
    4.5264    5.2792    0.6615 C   0  0  0  0  0  0  0  0  0  0  0  0
    4.9529    5.8983    1.8397 C   0  0  0  0  0  0  0  0  0  0  0  0
    4.9399    5.1940    3.0479 C   0  0  0  0  0  0  0  0  0  0  0  0
    5.5105    5.9957    4.5515 S   0  0  0  0  0  0  0  0  0  0  0  0
    7.1877    5.2651    4.5068 C   0  0  0  0  0  0  0  0  0  0  0  0
    8.0636    5.9445    3.4624 C   0  0  0  0  0  0  0  0  0  0  0  0
    4.4443    3.8845    3.0874 C   0  0  0  0  0  0  0  0  0  0  0  0
    4.3911    3.2063    4.2599 F   0  0  0  0  0  0  0  0  0  0  0  0
    4.0206    3.2621    1.9092 C   0  0  0  0  0  0  0  0  0  0  0  0
    4.5637    3.1170   -1.6404 C   0  0  0  0  0  0  0  0  0  0  0  0
    4.2102    2.4539   -2.8188 C   0  0  0  0  0  0  0  0  0  0  0  0
    2.9240    1.9234   -2.9860 C   0  0  0  0  0  0  0  0  0  0  0  0
    2.5072    1.2984   -4.2541 C   0  0  0  0  0  0  0  0  0  0  0  0
    2.8082   -0.0456   -4.5086 C   0  0  0  0  0  0  0  0  0  0  0  0
    2.4308   -0.6278   -5.7228 C   0  0  0  0  0  0  0  0  0  0  0  0
    1.7431    0.1265   -6.6825 C   0  0  0  0  0  0  0  0  0  0  0  0
    1.2468   -0.6304   -8.2371 S   0  0  0  0  0  0  0  0  0  0  0  0
   -0.4401   -1.0691   -7.6772 C   0  0  0  0  0  0  0  0  0  0  0  0
   -0.4324   -2.3603   -6.8656 C   0  0  0  0  0  0  0  0  0  0  0  0
    1.4724    1.4815   -6.4383 C   0  0  0  0  0  0  0  0  0  0  0  0
    1.8449    2.0622   -5.2240 C   0  0  0  0  0  0  0  0  0  0  0  0
    0.8287    2.2322   -7.3691 F   0  0  0  0  0  0  0  0  0  0  0  0
    2.0111    2.1328   -1.9484 C   0  0  0  0  0  0  0  0  0  0  0  0
    0.3660    1.8412   -1.9880 S   0  0  0  0  0  0  0  0  0  0  0  0
    5.1802    2.5249   -3.8210 C   0  0  0  0  0  0  0  0  0  0  0  0
    6.2859    3.2845   -3.4551 C   0  0  0  0  0  0  0  0  0  0  0  0
    6.0927    3.8068   -1.8574 S   0  0  0  0  0  0  0  0  0  0  0  0
    7.2051    3.8771   -4.4373 C   0  0  0  0  0  0  0  0  0  0  0  0
    6.8693    4.0803   -5.7732 C   0  0  0  0  0  0  0  0  0  0  0  0
    7.8017    4.8539   -6.4718 C   0  0  0  0  0  0  0  0  0  0  0  0
    7.6885    5.2789   -7.8119 C   0  0  0  0  0  0  0  0  0  0  0  0
    6.4933    4.9681   -8.6314 C   0  0  0  0  0  0  0  0  0  0  0  0
    5.2224    5.4086   -8.2230 C   0  0  0  0  0  0  0  0  0  0  0  0
    4.0858    5.0651   -8.9591 C   0  0  0  0  0  0  0  0  0  0  0  0
    4.2073    4.3031  -10.1254 C   0  0  0  0  0  0  0  0  0  0  0  0
    2.7384    3.8561  -11.0609 S   0  0  0  0  0  0  0  0  0  0  0  0
    2.8281    5.2838  -12.1956 C   0  0  0  0  0  0  0  0  0  0  0  0
    2.1036    6.4860  -11.6084 C   0  0  0  0  0  0  0  0  0  0  0  0
    5.4726    3.8639  -10.5432 C   0  0  0  0  0  0  0  0  0  0  0  0
    5.5985    3.0997  -11.6573 F   0  0  0  0  0  0  0  0  0  0  0  0
    6.6115    4.2000   -9.8010 C   0  0  0  0  0  0  0  0  0  0  0  0
    8.7450    6.0543   -8.3173 C   0  0  0  0  0  0  0  0  0  0  0  0
    9.8616    6.3961   -7.5494 C   0  0  0  0  0  0  0  0  0  0  0  0
    9.9672    5.9735   -6.2054 C   0  0  0  0  0  0  0  0  0  0  0  0
   11.1506    6.2876   -5.3807 C   0  0  0  0  0  0  0  0  0  0  0  0
   12.3765    5.6672   -5.6598 C   0  0  0  0  0  0  0  0  0  0  0  0
   13.5084    5.9770   -4.9031 C   0  0  0  0  0  0  0  0  0  0  0  0
   13.4275    6.9210   -3.8700 C   0  0  0  0  0  0  0  0  0  0  0  0
   14.8936    7.3243   -2.9146 S   0  0  0  0  0  0  0  0  0  0  0  0
   15.6072    8.4656   -4.1499 C   0  0  0  0  0  0  0  0  0  0  0  0
   14.8879    9.8080   -4.1541 C   0  0  0  0  0  0  0  0  0  0  0  0
   12.2004    7.5371   -3.5811 C   0  0  0  0  0  0  0  0  0  0  0  0
   11.0641    7.2180   -4.3340 C   0  0  0  0  0  0  0  0  0  0  0  0
   12.1075    8.4491   -2.5814 F   0  0  0  0  0  0  0  0  0  0  0  0
    8.9034    5.2140   -5.6916 C   0  0  0  0  0  0  0  0  0  0  0  0
    8.6856    4.6271   -4.1214 S   0  0  0  0  0  0  0  0  0  0  0  0
   10.7670    7.2199   -8.2350 C   0  0  0  0  0  0  0  0  0  0  0  0
   10.3647    7.5146   -9.5360 C   0  0  0  0  0  0  0  0  0  0  0  0
    8.8841    6.7638   -9.8394 S   0  0  0  0  0  0  0  0  0  0  0  0
    7.7705   -5.2970    5.1755 H   0  0  0  0  0  0  0  0  0  0  0  0
    7.6363   -3.3349    6.9782 H   0  0  0  0  0  0  0  0  0  0  0  0
    6.0029   -0.6813    8.3853 H   0  0  0  0  0  0  0  0  0  0  0  0
    6.1375   -1.8193    9.7911 H   0  0  0  0  0  0  0  0  0  0  0  0
    7.4900   -1.6601    8.6204 H   0  0  0  0  0  0  0  0  0  0  0  0
    2.3895   -2.4074    8.6405 H   0  0  0  0  0  0  0  0  0  0  0  0
    3.6583   -1.1375    8.7768 H   0  0  0  0  0  0  0  0  0  0  0  0
    3.6541   -2.5433    9.9156 H   0  0  0  0  0  0  0  0  0  0  0  0
    2.7263   -4.2079    7.1805 H   0  0  0  0  0  0  0  0  0  0  0  0
    2.0490   -5.8738    5.8424 H   0  0  0  0  0  0  0  0  0  0  0  0
    3.2692   -7.4322    3.5116 H   0  0  0  0  0  0  0  0  0  0  0  0
    0.0394   -6.9360    5.7178 H   0  0  0  0  0  0  0  0  0  0  0  0
   -3.9925   -8.4884    6.5755 H   0  0  0  0  0  0  0  0  0  0  0  0
   -4.5116   -7.4823    8.7642 H   0  0  0  0  0  0  0  0  0  0  0  0
   -5.9394   -4.0327   10.4420 H   0  0  0  0  0  0  0  0  0  0  0  0
   -5.9644   -5.0451    8.9625 H   0  0  0  0  0  0  0  0  0  0  0  0
   -4.6080   -2.2693    9.2210 H   0  0  0  0  0  0  0  0  0  0  0  0
   -4.7467   -3.2474    7.7017 H   0  0  0  0  0  0  0  0  0  0  0  0
   -6.2212   -2.5789    8.4741 H   0  0  0  0  0  0  0  0  0  0  0  0
   -1.6677   -5.0026    5.5316 H   0  0  0  0  0  0  0  0  0  0  0  0
   -2.7295   -6.8462   -0.4295 H   0  0  0  0  0  0  0  0  0  0  0  0
   -2.2313   -7.4849   -2.7555 H   0  0  0  0  0  0  0  0  0  0  0  0
    1.3729   -9.4713   -3.0884 H   0  0  0  0  0  0  0  0  0  0  0  0
    0.6488   -7.9218   -3.6871 H   0  0  0  0  0  0  0  0  0  0  0  0
    1.5881  -10.3013   -5.4254 H   0  0  0  0  0  0  0  0  0  0  0  0
    0.8516   -8.7680   -6.0452 H   0  0  0  0  0  0  0  0  0  0  0  0
    2.4497   -8.7272   -5.2017 H   0  0  0  0  0  0  0  0  0  0  0  0
   -0.8717  -10.4854    0.9571 H   0  0  0  0  0  0  0  0  0  0  0  0
   -4.6604   -8.2438    0.5345 H   0  0  0  0  0  0  0  0  0  0  0  0
   -7.9711   -6.6317    3.6588 H   0  0  0  0  0  0  0  0  0  0  0  0
   -6.9767   -4.3729    4.6237 H   0  0  0  0  0  0  0  0  0  0  0  0
   -7.2282   -4.5620    7.0561 H   0  0  0  0  0  0  0  0  0  0  0  0
  -10.3193   -6.7437    7.9260 H   0  0  0  0  0  0  0  0  0  0  0  0
  -10.2426   -6.7150    9.7176 H   0  0  0  0  0  0  0  0  0  0  0  0
   -8.4772   -8.1883    8.8550 H   0  0  0  0  0  0  0  0  0  0  0  0
   -7.8212   -6.8823    7.8089 H   0  0  0  0  0  0  0  0  0  0  0  0
   -7.7187   -6.7379    9.6127 H   0  0  0  0  0  0  0  0  0  0  0  0
  -11.2561   -4.0237    4.2114 H   0  0  0  0  0  0  0  0  0  0  0  0
   -5.7235   -2.6922   -0.5050 H   0  0  0  0  0  0  0  0  0  0  0  0
   -4.6780   -2.4031   -2.7159 H   0  0  0  0  0  0  0  0  0  0  0  0
   -5.3892   -0.9283   -6.4580 H   0  0  0  0  0  0  0  0  0  0  0  0
   -5.8232   -0.7723   -4.7222 H   0  0  0  0  0  0  0  0  0  0  0  0
   -7.7001   -0.1690   -6.3348 H   0  0  0  0  0  0  0  0  0  0  0  0
   -7.7095   -1.8717   -6.9200 H   0  0  0  0  0  0  0  0  0  0  0  0
   -8.1462   -1.4910   -5.1993 H   0  0  0  0  0  0  0  0  0  0  0  0
   -9.1616   -4.5097   -2.3670 H   0  0  0  0  0  0  0  0  0  0  0  0
   -8.0191   -1.0545   -0.4868 H   0  0  0  0  0  0  0  0  0  0  0  0
   -7.7920    1.4271   -0.3840 H   0  0  0  0  0  0  0  0  0  0  0  0
   -6.0810    0.7660   -2.1713 H   0  0  0  0  0  0  0  0  0  0  0  0
   -6.8892    1.3243   -4.4363 H   0  0  0  0  0  0  0  0  0  0  0  0
   -8.8507    5.0136   -4.6652 H   0  0  0  0  0  0  0  0  0  0  0  0
   -9.2195    3.2456   -4.7831 H   0  0  0  0  0  0  0  0  0  0  0  0
   -9.7173    3.4946   -7.2146 H   0  0  0  0  0  0  0  0  0  0  0  0
  -10.7589    4.5853   -6.2124 H   0  0  0  0  0  0  0  0  0  0  0  0
   -9.3508    5.2677   -7.1118 H   0  0  0  0  0  0  0  0  0  0  0  0
   -5.3514    4.9576   -1.4292 H   0  0  0  0  0  0  0  0  0  0  0  0
   -3.7869   -0.6619    3.2813 H   0  0  0  0  0  0  0  0  0  0  0  0
   -2.9810   -1.3044    5.5207 H   0  0  0  0  0  0  0  0  0  0  0  0
   -0.0217    1.1655    6.8683 H   0  0  0  0  0  0  0  0  0  0  0  0
   -0.1372   -0.6312    6.6393 H   0  0  0  0  0  0  0  0  0  0  0  0
    0.2980    0.7763    9.3605 H   0  0  0  0  0  0  0  0  0  0  0  0
    0.3518   -1.0042    9.0276 H   0  0  0  0  0  0  0  0  0  0  0  0
    1.6128    0.0938    8.3273 H   0  0  0  0  0  0  0  0  0  0  0  0
   -3.1102    3.4914    4.2296 H   0  0  0  0  0  0  0  0  0  0  0  0
   -1.2175    2.0955    2.0745 H   0  0  0  0  0  0  0  0  0  0  0  0
    1.2774    3.5240    1.0284 H   0  0  0  0  0  0  0  0  0  0  0  0
    4.5451    5.8406   -0.2670 H   0  0  0  0  0  0  0  0  0  0  0  0
    5.3024    6.9270    1.8131 H   0  0  0  0  0  0  0  0  0  0  0  0
    7.1365    4.1727    4.3100 H   0  0  0  0  0  0  0  0  0  0  0  0
    7.6553    5.4083    5.5029 H   0  0  0  0  0  0  0  0  0  0  0  0
    7.6986    5.7219    2.4398 H   0  0  0  0  0  0  0  0  0  0  0  0
    9.1050    5.5703    3.5484 H   0  0  0  0  0  0  0  0  0  0  0  0
    8.0654    7.0424    3.6182 H   0  0  0  0  0  0  0  0  0  0  0  0
    3.6559    2.2436    1.9486 H   0  0  0  0  0  0  0  0  0  0  0  0
    3.3268   -0.6402   -3.7671 H   0  0  0  0  0  0  0  0  0  0  0  0
    2.6644   -1.6697   -5.9115 H   0  0  0  0  0  0  0  0  0  0  0  0
   -0.8795   -0.2423   -7.0770 H   0  0  0  0  0  0  0  0  0  0  0  0
   -1.0794   -1.2196   -8.5741 H   0  0  0  0  0  0  0  0  0  0  0  0
    0.0438   -3.1777   -7.4504 H   0  0  0  0  0  0  0  0  0  0  0  0
    0.1198   -2.2182   -5.9122 H   0  0  0  0  0  0  0  0  0  0  0  0
   -1.4775   -2.6524   -6.6195 H   0  0  0  0  0  0  0  0  0  0  0  0
    1.6216    3.1084   -5.0362 H   0  0  0  0  0  0  0  0  0  0  0  0
    5.0389    2.1220   -4.8170 H   0  0  0  0  0  0  0  0  0  0  0  0
    5.9458    3.7257   -6.2073 H   0  0  0  0  0  0  0  0  0  0  0  0
    5.1116    6.0079   -7.3270 H   0  0  0  0  0  0  0  0  0  0  0  0
    3.1101    5.3912   -8.6223 H   0  0  0  0  0  0  0  0  0  0  0  0
    2.3402    5.0014  -13.1503 H   0  0  0  0  0  0  0  0  0  0  0  0
    3.8842    5.5424  -12.4202 H   0  0  0  0  0  0  0  0  0  0  0  0
    2.5652    6.7879  -10.6478 H   0  0  0  0  0  0  0  0  0  0  0  0
    1.0335    6.2452  -11.4380 H   0  0  0  0  0  0  0  0  0  0  0  0
    2.1685    7.3353  -12.3192 H   0  0  0  0  0  0  0  0  0  0  0  0
    7.5843    3.8403  -10.1201 H   0  0  0  0  0  0  0  0  0  0  0  0
   12.4501    4.9440   -6.4616 H   0  0  0  0  0  0  0  0  0  0  0  0
   14.4513    5.4994   -5.1308 H   0  0  0  0  0  0  0  0  0  0  0  0
   15.5708    8.0116   -5.1621 H   0  0  0  0  0  0  0  0  0  0  0  0
   16.6726    8.6289   -3.8858 H   0  0  0  0  0  0  0  0  0  0  0  0
   13.8434    9.6885   -4.5077 H   0  0  0  0  0  0  0  0  0  0  0  0
   14.8829   10.2497   -3.1358 H   0  0  0  0  0  0  0  0  0  0  0  0
   15.4128   10.5016   -4.8441 H   0  0  0  0  0  0  0  0  0  0  0  0
   10.1202    7.7013   -4.1093 H   0  0  0  0  0  0  0  0  0  0  0  0
   11.6742    7.6165   -7.7997 H   0  0  0  0  0  0  0  0  0  0  0  0
   10.9069    8.1448  -10.2266 H   0  0  0  0  0  0  0  0  0  0  0  0
  1  2  1  0
  2  3  1  0
  3  4  2  0
  4  5  1  0
  5  6  1  0
  6  7  2  0
  7  8  1  0
  7  9  1  0
  9 10  1  0
  9 11  2  0
  3 12  1  0
 12 13  2  3
 13 14  1  0
 14 15  2  0
 15 16  1  0
 16 17  2  0
 17 18  1  0
 18 19  2  0
 19 20  1  0
 20 21  2  0
 21 22  1  0
 22 23  1  0
 23 24  1  0
 21 25  1  0
 25 26  1  0
 25 27  2  0
 17 28  1  0
 28 29  2  0
 29 30  1  0
 30 31  1  0
 31 32  2  0
 32 33  1  0
 33 34  2  0
 34 35  1  0
 35 36  1  0
 36 37  1  0
 34 38  1  0
 38 39  2  0
 38 40  1  0
 30 41  2  0
 41 42  1  0
 29 43  1  0
 43 44  2  0
 44 45  1  0
 44 46  1  0
 46 47  2  0
 47 48  1  0
 48 49  2  0
 49 50  1  0
 50 51  2  0
 51 52  1  0
 52 53  2  0
 53 54  1  0
 54 55  1  0
 55 56  1  0
 53 57  1  0
 57 58  1  0
 57 59  2  0
 49 60  1  0
 60 61  2  0
 61 62  1  0
 62 63  1  0
 63 64  2  0
 64 65  1  0
 65 66  2  0
 66 67  1  0
 67 68  1  0
 68 69  1  0
 66 70  1  0
 70 71  2  0
 70 72  1  0
 62 73  2  0
 73 74  1  0
 61 75  1  0
 75 76  2  0
 76 77  1  0
 76 78  1  0
 78 79  2  0
 79 80  1  0
 80 81  2  0
 81 82  1  0
 82 83  2  0
 83 84  1  0
 84 85  2  0
 85 86  1  0
 86 87  1  0
 87 88  1  0
 85 89  1  0
 89 90  1  0
 89 91  2  0
 81 92  1  0
 92 93  2  0
 93 94  1  0
 94 95  1  0
 95 96  2  0
 96 97  1  0
 97 98  2  0
 98 99  1  0
 99100  1  0
100101  1  0
 98102  1  0
102103  2  0
102104  1  0
 94105  2  0
105106  1  0
 93107  1  0
107108  2  0
108109  1  0
108110  1  0
110111  2  0
111112  1  0
112113  2  0
113114  1  0
114115  2  0
115116  1  0
116117  2  0
117118  1  0
118119  1  0
119120  1  0
117121  1  0
121122  1  0
121123  2  0
113124  1  0
124125  2  0
125126  1  0
126127  1  0
127128  2  0
128129  1  0
129130  2  0
130131  1  0
131132  1  0
132133  1  0
130134  1  0
134135  2  0
134136  1  0
126137  2  0
137138  1  0
125139  1  0
139140  2  0
140141  1  0
140142  1  0
142143  2  0
143144  1  0
144145  2  0
145146  1  0
146147  2  0
147148  1  0
148149  2  0
149150  1  0
150151  1  0
151152  1  0
149153  1  0
153154  1  0
153155  2  0
145156  1  0
156157  2  0
157158  1  0
158159  1  0
159160  2  0
160161  1  0
161162  2  0
162163  1  0
163164  1  0
164165  1  0
162166  1  0
166167  2  0
166168  1  0
158169  2  0
169170  1  0
157171  1  0
171172  2  0
172173  1  0
  5  1  2  0
 42 14  1  0
 74 46  1  0
106 78  1  0
138110  1  0
170142  1  0
 11  4  1  0
 41 16  1  0
 73 48  1  0
105 80  1  0
137112  1  0
169144  1  0
 27 18  1  0
 45 28  1  0
 59 50  1  0
 77 60  1  0
 91 82  1  0
109 92  1  0
123114  1  0
141124  1  0
155146  1  0
173156  1  0
 39 31  1  0
 71 63  1  0
103 95  1  0
135127  1  0
167159  1  0
  1174  1  0
  6175  1  0
  8176  1  0
  8177  1  0
  8178  1  0
 10179  1  0
 10180  1  0
 10181  1  0
 11182  1  0
 12183  1  0
 13184  1  0
 15185  1  0
 19186  1  0
 20187  1  0
 23188  1  0
 23189  1  0
 24190  1  0
 24191  1  0
 24192  1  0
 27193  1  0
 32194  1  0
 33195  1  0
 36196  1  0
 36197  1  0
 37198  1  0
 37199  1  0
 37200  1  0
 39201  1  0
 43202  1  0
 47203  1  0
 51204  1  0
 52205  1  0
 55206  1  0
 55207  1  0
 56208  1  0
 56209  1  0
 56210  1  0
 59211  1  0
 64212  1  0
 65213  1  0
 68214  1  0
 68215  1  0
 69216  1  0
 69217  1  0
 69218  1  0
 71219  1  0
 75220  1  0
 79221  1  0
 83222  1  0
 84223  1  0
 87224  1  0
 87225  1  0
 88226  1  0
 88227  1  0
 88228  1  0
 91229  1  0
 96230  1  0
 97231  1  0
100232  1  0
100233  1  0
101234  1  0
101235  1  0
101236  1  0
103237  1  0
107238  1  0
111239  1  0
115240  1  0
116241  1  0
119242  1  0
119243  1  0
120244  1  0
120245  1  0
120246  1  0
123247  1  0
128248  1  0
129249  1  0
132250  1  0
132251  1  0
133252  1  0
133253  1  0
133254  1  0
135255  1  0
139256  1  0
143257  1  0
147258  1  0
148259  1  0
151260  1  0
151261  1  0
152262  1  0
152263  1  0
152264  1  0
155265  1  0
160266  1  0
161267  1  0
164268  1  0
164269  1  0
165270  1  0
165271  1  0
165272  1  0
167273  1  0
171274  1  0
172275  1  0
M  END

