
     RDKit          3D

140151  0  0  0  0  0  0  0  0999 V2000
    2.6587    1.0614    6.8866 C   0  0  0  0  0  0  0  0  0  0  0  0
    3.2922    2.3714    6.0563 S   0  0  0  0  0  0  0  0  0  0  0  0
    2.1078    2.4595    4.8678 C   0  0  0  0  0  0  0  0  0  0  0  0
    1.1456    1.4771    5.1378 C   0  0  0  0  0  0  0  0  0  0  0  0
    1.4731    0.6860    6.2621 C   0  0  0  0  0  0  0  0  0  0  0  0
    0.6730   -0.5176    6.6884 C   0  0  2  0  0  0  0  0  0  0  0  0
    1.3748   -1.7482    6.2784 C   0  0  0  0  0  0  0  0  0  0  0  0
    1.9390   -2.7165    5.9753 N   0  0  0  0  0  0  0  0  0  0  0  0
   -0.7589   -0.4924    6.1242 C   0  0  0  0  0  0  0  0  0  0  0  0
   -0.8072   -0.0359    4.6587 C   0  0  0  0  0  0  0  0  0  0  0  0
   -0.2064    1.3726    4.4718 C   0  0  1  0  0  0  0  0  0  0  0  0
   -1.1076    2.3941    5.0207 C   0  0  0  0  0  0  0  0  0  0  0  0
   -1.8275    3.1988    5.4397 N   0  0  0  0  0  0  0  0  0  0  0  0
    2.1668    3.4304    3.7578 C   0  0  0  0  0  0  0  0  0  0  0  0
    2.1264    3.1341    2.4501 C   0  0  0  0  0  0  0  0  0  0  0  0
    1.9458    1.7889    1.8744 C   0  0  0  0  0  0  0  0  0  0  0  0
    0.8409    1.4704    0.6395 S   0  0  0  0  0  0  0  0  0  0  0  0
    0.9980   -0.2070    0.6458 C   0  0  0  0  0  0  0  0  0  0  0  0
    2.0164   -0.5311    1.5437 C   0  0  0  0  0  0  0  0  0  0  0  0
    2.5496    0.5778    2.2252 C   0  0  0  0  0  0  0  0  0  0  0  0
    3.6431    0.4174    3.0778 C   0  0  0  0  0  0  0  0  0  0  0  0
    4.1513   -0.8703    3.3304 C   0  0  0  0  0  0  0  0  0  0  0  0
    5.2932   -1.0267    4.2992 C   0  0  0  0  0  0  0  0  0  0  0  0
    3.6009   -1.9936    2.6541 C   0  0  0  0  0  0  0  0  0  0  0  0
    4.1528   -3.3802    2.8721 C   0  0  0  0  0  0  0  0  0  0  0  0
    2.5342   -1.8138    1.7559 C   0  0  0  0  0  0  0  0  0  0  0  0
    0.4068   -1.1180   -0.3431 C   0  0  0  0  0  0  0  0  0  0  0  0
   -0.8588   -1.5623   -0.3565 C   0  0  0  0  0  0  0  0  0  0  0  0
   -1.9610   -1.1669    0.5570 C   0  0  0  0  0  0  0  0  0  0  0  0
   -2.0567    0.2442    1.4674 S   0  0  0  0  0  0  0  0  0  0  0  0
   -3.6725    0.1321    1.9209 C   0  0  0  0  0  0  0  0  0  0  0  0
   -4.1550   -1.0685    1.4128 C   0  0  0  0  0  0  0  0  0  0  0  0
   -3.2181   -1.7824    0.6392 C   0  0  0  0  0  0  0  0  0  0  0  0
   -3.5892   -2.9757    0.0160 C   0  0  0  0  0  0  0  0  0  0  0  0
   -4.8957   -3.4765    0.1883 C   0  0  0  0  0  0  0  0  0  0  0  0
   -5.2849   -4.7465   -0.5161 C   0  0  0  0  0  0  0  0  0  0  0  0
   -5.8312   -2.7612    0.9834 C   0  0  0  0  0  0  0  0  0  0  0  0
   -7.2283   -3.2824    1.1952 C   0  0  0  0  0  0  0  0  0  0  0  0
   -5.4560   -1.5482    1.5856 C   0  0  0  0  0  0  0  0  0  0  0  0
   -4.4601    1.1576    2.6477 C   0  0  0  0  0  0  0  0  0  0  0  0
   -4.4528    2.4714    2.3756 C   0  0  0  0  0  0  0  0  0  0  0  0
   -3.6763    3.1029    1.2834 C   0  0  0  0  0  0  0  0  0  0  0  0
   -3.5046    2.5031   -0.2747 S   0  0  0  0  0  0  0  0  0  0  0  0
   -2.3191    3.5883   -0.7725 C   0  0  0  0  0  0  0  0  0  0  0  0
   -2.0570    4.4809    0.2787 C   0  0  0  0  0  0  0  0  0  0  0  0
   -2.8894    4.2540    1.3968 C   0  0  0  0  0  0  0  0  0  0  0  0
   -3.0029    5.2184    2.5504 C   0  0  2  0  0  0  0  0  0  0  0  0
   -4.3018    5.9102    2.4554 C   0  0  0  0  0  0  0  0  0  0  0  0
   -5.3156    6.4667    2.3681 N   0  0  0  0  0  0  0  0  0  0  0  0
   -1.8628    6.2683    2.6025 C   0  0  0  0  0  0  0  0  0  0  0  0
   -0.6354    5.9067    1.7550 C   0  0  0  0  0  0  0  0  0  0  0  0
   -1.0028    5.5713    0.2983 C   0  0  1  0  0  0  0  0  0  0  0  0
    0.2347    5.1610   -0.3741 C   0  0  0  0  0  0  0  0  0  0  0  0
    1.2313    4.8578   -0.8945 N   0  0  0  0  0  0  0  0  0  0  0  0
   -1.6232    3.4686   -2.0595 C   0  0  0  0  0  0  0  0  0  0  0  0
   -1.1543    2.2724   -2.4276 C   0  0  0  0  0  0  0  0  0  0  0  0
   -0.5370    1.9365   -3.7260 C   0  0  0  0  0  0  0  0  0  0  0  0
   -0.5944    0.3660   -4.3008 S   0  0  0  0  0  0  0  0  0  0  0  0
    0.2704    0.6116   -5.7124 C   0  0  0  0  0  0  0  0  0  0  0  0
    0.6555    1.9610   -5.7619 C   0  0  0  0  0  0  0  0  0  0  0  0
    0.1942    2.7058   -4.6478 C   0  0  0  0  0  0  0  0  0  0  0  0
    0.5109    4.1709   -4.5346 C   0  0  2  0  0  0  0  0  0  0  0  0
   -0.4719    4.9539   -5.2989 C   0  0  0  0  0  0  0  0  0  0  0  0
   -1.2508    5.5677   -5.8943 N   0  0  0  0  0  0  0  0  0  0  0  0
    1.9334    4.4246   -5.0381 C   0  0  0  0  0  0  0  0  0  0  0  0
    2.2164    3.8852   -6.4606 C   0  0  0  0  0  0  0  0  0  0  0  0
    1.3771    2.6463   -6.9109 C   0  0  1  0  0  0  0  0  0  0  0  0
    2.2483    1.7297   -7.6652 C   0  0  0  0  0  0  0  0  0  0  0  0
    2.9404    1.0045   -8.2503 N   0  0  0  0  0  0  0  0  0  0  0  0
    0.3938   -0.4081   -6.7617 C   0  0  0  0  0  0  0  0  0  0  0  0
    0.7005   -1.6881   -6.5074 C   0  0  0  0  0  0  0  0  0  0  0  0
    1.1884   -2.1646   -5.1943 C   0  0  0  0  0  0  0  0  0  0  0  0
    2.5283   -1.5421   -4.4077 S   0  0  0  0  0  0  0  0  0  0  0  0
    2.5428   -2.6335   -3.1271 C   0  0  0  0  0  0  0  0  0  0  0  0
    1.4893   -3.5494   -3.3200 C   0  0  0  0  0  0  0  0  0  0  0  0
    0.6882   -3.2424   -4.4476 C   0  0  0  0  0  0  0  0  0  0  0  0
   -0.5679   -4.0228   -4.7962 C   0  0  2  0  0  0  0  0  0  0  0  0
   -1.6618   -3.1250   -5.2106 C   0  0  0  0  0  0  0  0  0  0  0  0
   -2.5182   -2.4146   -5.5246 N   0  0  0  0  0  0  0  0  0  0  0  0
   -1.0548   -4.8575   -3.5978 C   0  0  0  0  0  0  0  0  0  0  0  0
    0.1007   -5.6438   -2.9853 C   0  0  0  0  0  0  0  0  0  0  0  0
    1.1476   -4.6927   -2.3740 C   0  0  1  0  0  0  0  0  0  0  0  0
    2.3425   -5.4784   -2.0296 C   0  0  0  0  0  0  0  0  0  0  0  0
    3.2773   -6.1024   -1.7473 N   0  0  0  0  0  0  0  0  0  0  0  0
    3.4536   -2.5567   -1.9588 C   0  0  0  0  0  0  0  0  0  0  0  0
    4.4108   -1.6374   -1.8554 C   0  0  0  0  0  0  0  0  0  0  0  0
    3.1060    0.5780    7.7466 H   0  0  0  0  0  0  0  0  0  0  0  0
    0.6101   -0.5282    7.7961 H   0  0  0  0  0  0  0  0  0  0  0  0
   -1.2321   -1.4919    6.2146 H   0  0  0  0  0  0  0  0  0  0  0  0
   -1.3751    0.2060    6.7369 H   0  0  0  0  0  0  0  0  0  0  0  0
   -1.8629   -0.0502    4.3177 H   0  0  0  0  0  0  0  0  0  0  0  0
   -0.2453   -0.7594    4.0300 H   0  0  0  0  0  0  0  0  0  0  0  0
   -0.1168    1.5626    3.3871 H   0  0  0  0  0  0  0  0  0  0  0  0
    2.3493    4.4657    4.0294 H   0  0  0  0  0  0  0  0  0  0  0  0
    2.1458    3.9650    1.7481 H   0  0  0  0  0  0  0  0  0  0  0  0
    4.1142    1.2796    3.5225 H   0  0  0  0  0  0  0  0  0  0  0  0
    5.0593   -1.8019    5.0553 H   0  0  0  0  0  0  0  0  0  0  0  0
    5.5042   -0.0775    4.8432 H   0  0  0  0  0  0  0  0  0  0  0  0
    6.2120   -1.3193    3.7426 H   0  0  0  0  0  0  0  0  0  0  0  0
    3.6880   -4.1227    2.1914 H   0  0  0  0  0  0  0  0  0  0  0  0
    5.2468   -3.3799    2.6722 H   0  0  0  0  0  0  0  0  0  0  0  0
    3.9692   -3.7000    3.9191 H   0  0  0  0  0  0  0  0  0  0  0  0
    2.1096   -2.6596    1.2299 H   0  0  0  0  0  0  0  0  0  0  0  0
    1.0830   -1.5410   -1.0704 H   0  0  0  0  0  0  0  0  0  0  0  0
   -1.0936   -2.2941   -1.1234 H   0  0  0  0  0  0  0  0  0  0  0  0
   -2.8789   -3.5298   -0.5819 H   0  0  0  0  0  0  0  0  0  0  0  0
   -4.4274   -5.1944   -1.0667 H   0  0  0  0  0  0  0  0  0  0  0  0
   -6.0965   -4.5518   -1.2457 H   0  0  0  0  0  0  0  0  0  0  0  0
   -5.6301   -5.4989    0.2271 H   0  0  0  0  0  0  0  0  0  0  0  0
   -7.1814   -4.2624    1.7131 H   0  0  0  0  0  0  0  0  0  0  0  0
   -7.8332   -2.5934    1.8233 H   0  0  0  0  0  0  0  0  0  0  0  0
   -7.7394   -3.3989    0.2193 H   0  0  0  0  0  0  0  0  0  0  0  0
   -6.1694   -0.9884    2.1778 H   0  0  0  0  0  0  0  0  0  0  0  0
   -5.1019    0.8109    3.4461 H   0  0  0  0  0  0  0  0  0  0  0  0
   -5.0282    3.1254    3.0171 H   0  0  0  0  0  0  0  0  0  0  0  0
   -3.0005    4.6452    3.5003 H   0  0  0  0  0  0  0  0  0  0  0  0
   -2.2051    7.2887    2.3016 H   0  0  0  0  0  0  0  0  0  0  0  0
   -1.5277    6.3557    3.6654 H   0  0  0  0  0  0  0  0  0  0  0  0
   -0.1280    5.0339    2.2325 H   0  0  0  0  0  0  0  0  0  0  0  0
    0.0769    6.7708    1.7775 H   0  0  0  0  0  0  0  0  0  0  0  0
   -1.4065    6.4727   -0.2057 H   0  0  0  0  0  0  0  0  0  0  0  0
   -1.5363    4.3425   -2.6842 H   0  0  0  0  0  0  0  0  0  0  0  0
   -1.3099    1.4347   -1.7609 H   0  0  0  0  0  0  0  0  0  0  0  0
    0.4867    4.4955   -3.4797 H   0  0  0  0  0  0  0  0  0  0  0  0
    2.6393    3.9370   -4.3287 H   0  0  0  0  0  0  0  0  0  0  0  0
    2.1608    5.5120   -5.0114 H   0  0  0  0  0  0  0  0  0  0  0  0
    3.3066    3.6463   -6.4935 H   0  0  0  0  0  0  0  0  0  0  0  0
    2.0587    4.7072   -7.2008 H   0  0  0  0  0  0  0  0  0  0  0  0
    0.5933    3.0023   -7.6102 H   0  0  0  0  0  0  0  0  0  0  0  0
    0.1615   -0.1288   -7.7766 H   0  0  0  0  0  0  0  0  0  0  0  0
    0.6396   -2.4174   -7.3083 H   0  0  0  0  0  0  0  0  0  0  0  0
   -0.3358   -4.7031   -5.6464 H   0  0  0  0  0  0  0  0  0  0  0  0
   -1.8367   -5.5710   -3.9348 H   0  0  0  0  0  0  0  0  0  0  0  0
   -1.5000   -4.2051   -2.8137 H   0  0  0  0  0  0  0  0  0  0  0  0
    0.5681   -6.2698   -3.7795 H   0  0  0  0  0  0  0  0  0  0  0  0
   -0.2928   -6.3238   -2.1938 H   0  0  0  0  0  0  0  0  0  0  0  0
    0.7314   -4.2481   -1.4461 H   0  0  0  0  0  0  0  0  0  0  0  0
    3.3207   -3.2365   -1.1294 H   0  0  0  0  0  0  0  0  0  0  0  0
    5.0365   -1.6199   -0.9724 H   0  0  0  0  0  0  0  0  0  0  0  0
    4.5908   -0.9078   -2.6372 H   0  0  0  0  0  0  0  0  0  0  0  0
  1  2  1  0
  2  3  1  0
  3  4  2  0
  4  5  1  0
  5  6  1  0
  6  7  1  0
  7  8  3  0
  6  9  1  0
  9 10  1  0
 10 11  1  0
 11 12  1  0
 12 13  3  0
  3 14  1  0
 14 15  2  3
 15 16  1  0
 16 17  1  0
 17 18  1  0
 18 19  2  0
 19 20  1  0
 20 21  1  0
 21 22  2  0
 22 23  1  0
 22 24  1  0
 24 25  1  0
 24 26  2  0
 18 27  1  0
 27 28  2  3
 28 29  1  0
 29 30  1  0
 30 31  1  0
 31 32  2  0
 32 33  1  0
 33 34  1  0
 34 35  2  0
 35 36  1  0
 35 37  1  0
 37 38  1  0
 37 39  2  0
 31 40  1  0
 40 41  2  3
 41 42  1  0
 42 43  1  0
 43 44  1  0
 44 45  2  0
 45 46  1  0
 46 47  1  0
 47 48  1  0
 48 49  3  0
 47 50  1  0
 50 51  1  0
 51 52  1  0
 52 53  1  0
 53 54  3  0
 44 55  1  0
 55 56  2  3
 56 57  1  0
 57 58  1  0
 58 59  1  0
 59 60  2  0
 60 61  1  0
 61 62  1  0
 62 63  1  0
 63 64  3  0
 62 65  1  0
 65 66  1  0
 66 67  1  0
 67 68  1  0
 68 69  3  0
 59 70  1  0
 70 71  2  3
 71 72  1  0
 72 73  1  0
 73 74  1  0
 74 75  2  0
 75 76  1  0
 76 77  1  0
 77 78  1  0
 78 79  3  0
 77 80  1  0
 80 81  1  0
 81 82  1  0
 82 83  1  0
 83 84  3  0
 74 85  1  0
 85 86  2  3
  5  1  2  0
 20 16  2  0
 33 29  2  0
 46 42  2  0
 61 57  2  0
 76 72  2  0
 11  4  1  0
 26 19  1  0
 39 32  1  0
 52 45  1  0
 67 60  1  0
 82 75  1  0
  1 87  1  0
  6 88  1  1
  9 89  1  0
  9 90  1  0
 10 91  1  0
 10 92  1  0
 11 93  1  6
 14 94  1  0
 15 95  1  0
 21 96  1  0
 23 97  1  0
 23 98  1  0
 23 99  1  0
 25100  1  0
 25101  1  0
 25102  1  0
 26103  1  0
 27104  1  0
 28105  1  0
 34106  1  0
 36107  1  0
 36108  1  0
 36109  1  0
 38110  1  0
 38111  1  0
 38112  1  0
 39113  1  0
 40114  1  0
 41115  1  0
 47116  1  1
 50117  1  0
 50118  1  0
 51119  1  0
 51120  1  0
 52121  1  6
 55122  1  0
 56123  1  0
 62124  1  1
 65125  1  0
 65126  1  0
 66127  1  0
 66128  1  0
 67129  1  6
 70130  1  0
 71131  1  0
 77132  1  6
 80133  1  0
 80134  1  0
 81135  1  0
 81136  1  0
 82137  1  1
 85138  1  0
 86139  1  0
 86140  1  0
M  END

