
     RDKit          3D

120131  0  0  0  0  0  0  0  0999 V2000
    9.7323    0.2302   -0.0460 C   0  0  0  0  0  0  0  0  0  0  0  0
    8.1533    0.5423   -0.5313 S   0  0  0  0  0  0  0  0  0  0  0  0
    7.6775   -1.0593   -0.6997 C   0  0  0  0  0  0  0  0  0  0  0  0
    8.7491   -1.8773   -0.3443 C   0  0  0  0  0  0  0  0  0  0  0  0
    9.9056   -1.1491   -0.0056 C   0  0  0  0  0  0  0  0  0  0  0  0
   11.1647   -1.8011    0.4966 C   0  0  0  0  0  0  0  0  0  0  0  0
   11.1856   -3.3086    0.1887 C   0  0  0  0  0  0  0  0  0  0  0  0
    9.8410   -3.9760    0.5308 C   0  0  1  0  0  0  0  0  0  0  0  0
    9.5565   -3.7922    1.8930 O   0  0  0  0  0  0  0  0  0  0  0  0
    8.7147   -3.3852   -0.3411 C   0  0  0  0  0  0  0  0  0  0  0  0
    6.3371   -1.4837   -1.1207 C   0  0  0  0  0  0  0  0  0  0  0  0
    4.9104   -1.0061   -0.3659 S   0  0  0  0  0  0  0  0  0  0  0  0
    3.8653   -1.7633   -1.4470 C   0  0  0  0  0  0  0  0  0  0  0  0
    4.6280   -2.3804   -2.4365 C   0  0  0  0  0  0  0  0  0  0  0  0
    6.0042   -2.2273   -2.2533 C   0  0  0  0  0  0  0  0  0  0  0  0
    6.9511   -2.7540   -3.2876 C   0  0  0  0  0  0  0  0  0  0  0  0
    6.3688   -2.4801   -4.6829 C   0  0  0  0  0  0  0  0  0  0  0  0
    4.9081   -2.9971   -4.8784 C   0  0  1  0  0  0  0  0  0  0  0  0
    4.9176   -4.1950   -5.6137 O   0  0  0  0  0  0  0  0  0  0  0  0
    4.1097   -3.2231   -3.5662 C   0  0  0  0  0  0  0  0  0  0  0  0
    2.4071   -1.6269   -1.4082 C   0  0  0  0  0  0  0  0  0  0  0  0
    1.4517   -2.1030   -0.1145 S   0  0  0  0  0  0  0  0  0  0  0  0
    0.0221   -1.4002   -0.6596 C   0  0  0  0  0  0  0  0  0  0  0  0
    0.2819   -0.7565   -1.8755 C   0  0  0  0  0  0  0  0  0  0  0  0
    1.6322   -0.8549   -2.2730 C   0  0  0  0  0  0  0  0  0  0  0  0
    2.1730   -0.1497   -3.4910 C   0  0  0  0  0  0  0  0  0  0  0  0
    1.2899    1.0416   -3.8856 C   0  0  0  0  0  0  0  0  0  0  0  0
   -0.1935    0.6472   -3.9380 C   0  0  1  0  0  0  0  0  0  0  0  0
   -0.3781   -0.3702   -4.8899 O   0  0  0  0  0  0  0  0  0  0  0  0
   -0.6856    0.1843   -2.5516 C   0  0  0  0  0  0  0  0  0  0  0  0
   -1.2269   -1.3345    0.1186 C   0  0  0  0  0  0  0  0  0  0  0  0
   -2.7582   -1.6387   -0.5058 S   0  0  0  0  0  0  0  0  0  0  0  0
   -3.6238   -1.1727    0.8535 C   0  0  0  0  0  0  0  0  0  0  0  0
   -2.7192   -0.7105    1.8136 C   0  0  0  0  0  0  0  0  0  0  0  0
   -1.3705   -0.8437    1.4200 C   0  0  0  0  0  0  0  0  0  0  0  0
   -0.2288   -0.2937    2.2420 C   0  0  0  0  0  0  0  0  0  0  0  0
   -0.6632    0.0950    3.6636 C   0  0  0  0  0  0  0  0  0  0  0  0
   -2.0071    0.8438    3.6671 C   0  0  1  0  0  0  0  0  0  0  0  0
   -1.9236    2.0121    2.8907 O   0  0  0  0  0  0  0  0  0  0  0  0
   -3.1186   -0.0618    3.1181 C   0  0  0  0  0  0  0  0  0  0  0  0
   -5.0840   -1.0283    0.8854 C   0  0  0  0  0  0  0  0  0  0  0  0
   -5.9609   -0.1621   -0.2526 S   0  0  0  0  0  0  0  0  0  0  0  0
   -7.4527   -0.2048    0.5427 C   0  0  0  0  0  0  0  0  0  0  0  0
   -7.2789   -0.9648    1.7054 C   0  0  0  0  0  0  0  0  0  0  0  0
   -5.9632   -1.4234    1.8911 C   0  0  0  0  0  0  0  0  0  0  0  0
   -5.6430   -2.2426    2.9757 C   0  0  0  0  0  0  0  0  0  0  0  0
   -6.6325   -2.5724    3.9196 C   0  0  0  0  0  0  0  0  0  0  0  0
   -6.2713   -3.4666    5.0761 C   0  0  0  0  0  0  0  0  0  0  0  0
   -7.9548   -2.0785    3.7569 C   0  0  0  0  0  0  0  0  0  0  0  0
   -9.0356   -2.4131    4.7505 C   0  0  0  0  0  0  0  0  0  0  0  0
   -8.2709   -1.2746    2.6428 C   0  0  0  0  0  0  0  0  0  0  0  0
   -8.7273    0.3781    0.0589 C   0  0  0  0  0  0  0  0  0  0  0  0
   -8.8425    1.4145   -0.7867 C   0  0  0  0  0  0  0  0  0  0  0  0
   -7.7212    2.2214   -1.2969 C   0  0  0  0  0  0  0  0  0  0  0  0
   -7.3822    2.4221   -2.9298 S   0  0  0  0  0  0  0  0  0  0  0  0
   -5.9935    3.3679   -2.7438 C   0  0  0  0  0  0  0  0  0  0  0  0
   -5.7915    3.5541   -1.3710 C   0  0  0  0  0  0  0  0  0  0  0  0
   -6.7631    2.9307   -0.5676 C   0  0  0  0  0  0  0  0  0  0  0  0
   -6.7072    3.0351    0.8258 C   0  0  0  0  0  0  0  0  0  0  0  0
   -5.6479    3.7351    1.4314 C   0  0  0  0  0  0  0  0  0  0  0  0
   -5.5894    3.8164    2.9343 C   0  0  0  0  0  0  0  0  0  0  0  0
   -4.6618    4.3618    0.6227 C   0  0  0  0  0  0  0  0  0  0  0  0
   -3.5127    5.1155    1.2405 C   0  0  0  0  0  0  0  0  0  0  0  0
   -4.7403    4.2644   -0.7806 C   0  0  0  0  0  0  0  0  0  0  0  0
   -5.1450    3.8784   -3.8424 C   0  0  0  0  0  0  0  0  0  0  0  0
   -5.3813    3.5941   -5.1216 C   0  0  0  0  0  0  0  0  0  0  0  0
   10.4759    0.9721    0.2121 H   0  0  0  0  0  0  0  0  0  0  0  0
   12.0499   -1.3172    0.0343 H   0  0  0  0  0  0  0  0  0  0  0  0
   11.2247   -1.6533    1.5959 H   0  0  0  0  0  0  0  0  0  0  0  0
   12.0016   -3.7913    0.7666 H   0  0  0  0  0  0  0  0  0  0  0  0
   11.4027   -3.4580   -0.8915 H   0  0  0  0  0  0  0  0  0  0  0  0
    9.9287   -5.0655    0.3122 H   0  0  0  0  0  0  0  0  0  0  0  0
    8.8350   -4.4299    2.1297 H   0  0  0  0  0  0  0  0  0  0  0  0
    7.7284   -3.7428    0.0242 H   0  0  0  0  0  0  0  0  0  0  0  0
    8.8485   -3.7444   -1.3827 H   0  0  0  0  0  0  0  0  0  0  0  0
    7.9423   -2.2602   -3.2036 H   0  0  0  0  0  0  0  0  0  0  0  0
    7.0800   -3.8473   -3.1437 H   0  0  0  0  0  0  0  0  0  0  0  0
    6.3806   -1.3797   -4.8475 H   0  0  0  0  0  0  0  0  0  0  0  0
    7.0445   -2.9216   -5.4486 H   0  0  0  0  0  0  0  0  0  0  0  0
    4.3557   -2.2212   -5.4608 H   0  0  0  0  0  0  0  0  0  0  0  0
    5.1239   -3.9544   -6.5547 H   0  0  0  0  0  0  0  0  0  0  0  0
    3.0304   -3.0358   -3.7458 H   0  0  0  0  0  0  0  0  0  0  0  0
    4.2067   -4.2860   -3.2530 H   0  0  0  0  0  0  0  0  0  0  0  0
    3.2041    0.2171   -3.2977 H   0  0  0  0  0  0  0  0  0  0  0  0
    2.2148   -0.8698   -4.3354 H   0  0  0  0  0  0  0  0  0  0  0  0
    1.4280    1.8639   -3.1484 H   0  0  0  0  0  0  0  0  0  0  0  0
    1.6105    1.4203   -4.8799 H   0  0  0  0  0  0  0  0  0  0  0  0
   -0.7774    1.5485   -4.2399 H   0  0  0  0  0  0  0  0  0  0  0  0
   -1.3480   -0.3948   -5.1002 H   0  0  0  0  0  0  0  0  0  0  0  0
   -0.8162    1.0748   -1.9006 H   0  0  0  0  0  0  0  0  0  0  0  0
   -1.6745   -0.3007   -2.6694 H   0  0  0  0  0  0  0  0  0  0  0  0
    0.5752   -1.0529    2.3226 H   0  0  0  0  0  0  0  0  0  0  0  0
    0.1813    0.6010    1.7265 H   0  0  0  0  0  0  0  0  0  0  0  0
   -0.7569   -0.8250    4.2834 H   0  0  0  0  0  0  0  0  0  0  0  0
    0.1219    0.7307    4.1271 H   0  0  0  0  0  0  0  0  0  0  0  0
   -2.2698    1.1127    4.7164 H   0  0  0  0  0  0  0  0  0  0  0  0
   -1.3889    2.6661    3.4130 H   0  0  0  0  0  0  0  0  0  0  0  0
   -3.3259   -0.8563    3.8637 H   0  0  0  0  0  0  0  0  0  0  0  0
   -4.0430    0.5409    2.9816 H   0  0  0  0  0  0  0  0  0  0  0  0
   -4.6422   -2.6437    3.0717 H   0  0  0  0  0  0  0  0  0  0  0  0
   -5.1905   -3.7223    5.0751 H   0  0  0  0  0  0  0  0  0  0  0  0
   -6.4971   -2.9547    6.0351 H   0  0  0  0  0  0  0  0  0  0  0  0
   -6.8504   -4.4107    5.0159 H   0  0  0  0  0  0  0  0  0  0  0  0
  -10.0022   -1.9363    4.4828 H   0  0  0  0  0  0  0  0  0  0  0  0
   -9.1907   -3.5131    4.7796 H   0  0  0  0  0  0  0  0  0  0  0  0
   -8.7452   -2.0547    5.7582 H   0  0  0  0  0  0  0  0  0  0  0  0
   -9.2795   -0.9022    2.5132 H   0  0  0  0  0  0  0  0  0  0  0  0
   -9.6460   -0.0884    0.3894 H   0  0  0  0  0  0  0  0  0  0  0  0
   -9.8317    1.6651   -1.1506 H   0  0  0  0  0  0  0  0  0  0  0  0
   -7.4701    2.5680    1.4351 H   0  0  0  0  0  0  0  0  0  0  0  0
   -5.7349    4.8677    3.2598 H   0  0  0  0  0  0  0  0  0  0  0  0
   -6.3769    3.1930    3.4100 H   0  0  0  0  0  0  0  0  0  0  0  0
   -4.6047    3.4511    3.2974 H   0  0  0  0  0  0  0  0  0  0  0  0
   -3.8976    5.8936    1.9321 H   0  0  0  0  0  0  0  0  0  0  0  0
   -2.8628    4.4124    1.8002 H   0  0  0  0  0  0  0  0  0  0  0  0
   -2.8931    5.6228    0.4709 H   0  0  0  0  0  0  0  0  0  0  0  0
   -3.9841    4.7351   -1.3934 H   0  0  0  0  0  0  0  0  0  0  0  0
   -4.2933    4.5026   -3.6139 H   0  0  0  0  0  0  0  0  0  0  0  0
   -4.7295    3.9870   -5.8903 H   0  0  0  0  0  0  0  0  0  0  0  0
   -6.2139    2.9721   -5.4237 H   0  0  0  0  0  0  0  0  0  0  0  0
  1  2  1  0
  2  3  1  0
  3  4  2  0
  4  5  1  0
  5  6  1  0
  6  7  1  0
  7  8  1  0
  8  9  1  0
  8 10  1  0
  3 11  1  0
 11 12  1  0
 12 13  1  0
 13 14  2  0
 14 15  1  0
 15 16  1  0
 16 17  1  0
 17 18  1  0
 18 19  1  0
 18 20  1  0
 13 21  1  0
 21 22  1  0
 22 23  1  0
 23 24  2  0
 24 25  1  0
 25 26  1  0
 26 27  1  0
 27 28  1  0
 28 29  1  0
 28 30  1  0
 23 31  1  0
 31 32  1  0
 32 33  1  0
 33 34  2  0
 34 35  1  0
 35 36  1  0
 36 37  1  0
 37 38  1  0
 38 39  1  0
 38 40  1  0
 33 41  1  0
 41 42  1  0
 42 43  1  0
 43 44  2  0
 44 45  1  0
 45 46  1  0
 46 47  2  0
 47 48  1  0
 47 49  1  0
 49 50  1  0
 49 51  2  0
 43 52  1  0
 52 53  2  3
 53 54  1  0
 54 55  1  0
 55 56  1  0
 56 57  2  0
 57 58  1  0
 58 59  1  0
 59 60  2  0
 60 61  1  0
 60 62  1  0
 62 63  1  0
 62 64  2  0
 56 65  1  0
 65 66  2  3
  5  1  2  0
 15 11  2  0
 25 21  2  0
 35 31  2  0
 45 41  2  0
 58 54  2  0
 10  4  1  0
 20 14  1  0
 30 24  1  0
 40 34  1  0
 51 44  1  0
 64 57  1  0
  1 67  1  0
  6 68  1  0
  6 69  1  0
  7 70  1  0
  7 71  1  0
  8 72  1  1
  9 73  1  0
 10 74  1  0
 10 75  1  0
 16 76  1  0
 16 77  1  0
 17 78  1  0
 17 79  1  0
 18 80  1  6
 19 81  1  0
 20 82  1  0
 20 83  1  0
 26 84  1  0
 26 85  1  0
 27 86  1  0
 27 87  1  0
 28 88  1  6
 29 89  1  0
 30 90  1  0
 30 91  1  0
 36 92  1  0
 36 93  1  0
 37 94  1  0
 37 95  1  0
 38 96  1  1
 39 97  1  0
 40 98  1  0
 40 99  1  0
 46100  1  0
 48101  1  0
 48102  1  0
 48103  1  0
 50104  1  0
 50105  1  0
 50106  1  0
 51107  1  0
 52108  1  0
 53109  1  0
 59110  1  0
 61111  1  0
 61112  1  0
 61113  1  0
 63114  1  0
 63115  1  0
 63116  1  0
 64117  1  0
 65118  1  0
 66119  1  0
 66120  1  0
M  END

