
     RDKit          3D

116127  0  0  0  0  0  0  0  0999 V2000
    7.3063   -2.4630    0.9135 C   0  0  0  0  0  0  0  0  0  0  0  0
    6.8581   -2.6771   -0.3866 C   0  0  0  0  0  0  0  0  0  0  0  0
    5.8504   -1.7619   -0.7048 C   0  0  0  0  0  0  0  0  0  0  0  0
    5.6457   -0.9727    0.4172 C   0  0  0  0  0  0  0  0  0  0  0  0
    6.5711   -1.4148    1.4137 C   0  0  0  0  0  0  0  0  0  0  0  0
    6.5949   -0.8711    2.6527 N   0  0  0  0  0  0  0  0  0  0  0  0
    5.7045    0.1258    2.9421 C   0  0  0  0  0  0  0  0  0  0  0  0
    4.7839    0.5403    2.0132 N   0  0  0  0  0  0  0  0  0  0  0  0
    4.7230    0.0096    0.7564 C   0  0  0  0  0  0  0  0  0  0  0  0
    5.1357   -1.7491   -1.9944 C   0  0  0  0  0  0  0  0  0  0  0  0
    4.6176   -0.6404   -2.5359 C   0  0  0  0  0  0  0  0  0  0  0  0
    3.9167   -0.6609   -3.8372 C   0  0  0  0  0  0  0  0  0  0  0  0
    3.9432   -1.9349   -4.9447 S   0  0  0  0  0  0  0  0  0  0  0  0
    2.8981   -1.2545   -6.0771 C   0  0  0  0  0  0  0  0  0  0  0  0
    2.5359    0.0087   -5.6154 C   0  0  0  0  0  0  0  0  0  0  0  0
    3.0950    0.3403   -4.3677 C   0  0  0  0  0  0  0  0  0  0  0  0
    2.7816    1.5609   -3.7582 C   0  0  0  0  0  0  0  0  0  0  0  0
    1.9090    2.4612   -4.4013 C   0  0  0  0  0  0  0  0  0  0  0  0
    1.5781    3.7693   -3.7302 C   0  0  0  0  0  0  0  0  0  0  0  0
    1.3429    2.1195   -5.6601 C   0  0  0  0  0  0  0  0  0  0  0  0
    0.3942    3.0543   -6.3664 C   0  0  0  0  0  0  0  0  0  0  0  0
    1.6658    0.8886   -6.2625 C   0  0  0  0  0  0  0  0  0  0  0  0
    2.4647   -1.8901   -7.3361 C   0  0  0  0  0  0  0  0  0  0  0  0
    2.0353   -3.1568   -7.4332 C   0  0  0  0  0  0  0  0  0  0  0  0
    1.7342   -4.0355   -6.2826 C   0  0  0  0  0  0  0  0  0  0  0  0
    1.2261   -3.6513   -5.0365 C   0  0  0  0  0  0  0  0  0  0  0  0
    1.0716   -4.7766   -4.2205 C   0  0  0  0  0  0  0  0  0  0  0  0
    1.4378   -5.8747   -4.9731 C   0  0  0  0  0  0  0  0  0  0  0  0
    1.8415   -5.4093   -6.2617 C   0  0  0  0  0  0  0  0  0  0  0  0
    2.2887   -6.2635   -7.2129 N   0  0  0  0  0  0  0  0  0  0  0  0
    2.3333   -7.5977   -6.9184 C   0  0  0  0  0  0  0  0  0  0  0  0
    1.9470   -8.0621   -5.6867 N   0  0  0  0  0  0  0  0  0  0  0  0
    1.5034   -7.2314   -4.6985 C   0  0  0  0  0  0  0  0  0  0  0  0
    0.6385   -4.8055   -2.8094 C   0  0  0  0  0  0  0  0  0  0  0  0
    0.5070   -3.6976   -2.0695 C   0  0  0  0  0  0  0  0  0  0  0  0
    0.0859   -3.7419   -0.6583 C   0  0  0  0  0  0  0  0  0  0  0  0
   -0.7392   -2.7950   -0.0512 C   0  0  0  0  0  0  0  0  0  0  0  0
   -0.9498   -3.1410    1.2901 C   0  0  0  0  0  0  0  0  0  0  0  0
   -0.2352   -4.3007    1.5262 C   0  0  0  0  0  0  0  0  0  0  0  0
    0.4214   -4.6696    0.3124 C   0  0  0  0  0  0  0  0  0  0  0  0
    1.2866   -5.7136    0.2706 N   0  0  0  0  0  0  0  0  0  0  0  0
    1.4655   -6.4576    1.4037 C   0  0  0  0  0  0  0  0  0  0  0  0
    0.8113   -6.1408    2.5668 N   0  0  0  0  0  0  0  0  0  0  0  0
   -0.0333   -5.0724    2.6608 C   0  0  0  0  0  0  0  0  0  0  0  0
   -1.7572   -2.4141    2.2935 C   0  0  0  0  0  0  0  0  0  0  0  0
   -2.5070   -1.3456    1.9940 C   0  0  0  0  0  0  0  0  0  0  0  0
   -3.3219   -0.6457    3.0124 C   0  0  0  0  0  0  0  0  0  0  0  0
   -3.2892   -0.9406    4.6756 S   0  0  0  0  0  0  0  0  0  0  0  0
   -4.4373    0.2013    5.1237 C   0  0  0  0  0  0  0  0  0  0  0  0
   -4.9100    0.8067    3.9551 C   0  0  0  0  0  0  0  0  0  0  0  0
   -4.2652    0.3639    2.7859 C   0  0  0  0  0  0  0  0  0  0  0  0
   -4.6029    0.9175    1.5435 C   0  0  0  0  0  0  0  0  0  0  0  0
   -5.5922    1.9177    1.4669 C   0  0  0  0  0  0  0  0  0  0  0  0
   -5.9194    2.5279    0.1288 C   0  0  0  0  0  0  0  0  0  0  0  0
   -6.2716    2.3289    2.6442 C   0  0  0  0  0  0  0  0  0  0  0  0
   -7.3390    3.3906    2.5992 C   0  0  0  0  0  0  0  0  0  0  0  0
   -5.9502    1.7368    3.8771 C   0  0  0  0  0  0  0  0  0  0  0  0
   -4.8104    0.4777    6.5261 C   0  0  0  0  0  0  0  0  0  0  0  0
   -4.8927    1.7008    7.0749 C   0  0  0  0  0  0  0  0  0  0  0  0
   -4.5562    2.9565    6.3772 C   0  0  0  0  0  0  0  0  0  0  0  0
   -5.4078    4.0562    6.2656 C   0  0  0  0  0  0  0  0  0  0  0  0
   -4.8274    5.0168    5.4260 C   0  0  0  0  0  0  0  0  0  0  0  0
   -3.5935    4.5291    5.0432 C   0  0  0  0  0  0  0  0  0  0  0  0
   -3.4217    3.2456    5.6453 C   0  0  0  0  0  0  0  0  0  0  0  0
   -2.2842    2.5311    5.4769 N   0  0  0  0  0  0  0  0  0  0  0  0
   -1.3044    3.0510    4.6775 C   0  0  0  0  0  0  0  0  0  0  0  0
   -1.4631    4.2706    4.0688 N   0  0  0  0  0  0  0  0  0  0  0  0
   -2.5871    5.0282    4.2298 C   0  0  0  0  0  0  0  0  0  0  0  0
   -5.4162    6.2993    4.9886 C   0  0  0  0  0  0  0  0  0  0  0  0
   -6.6628    6.6636    5.2826 C   0  0  0  0  0  0  0  0  0  0  0  0
    8.0711   -3.0252    1.4337 H   0  0  0  0  0  0  0  0  0  0  0  0
    7.2337   -3.4468   -1.0484 H   0  0  0  0  0  0  0  0  0  0  0  0
    7.2718   -1.2069    3.3746 H   0  0  0  0  0  0  0  0  0  0  0  0
    5.7080    0.5771    3.9260 H   0  0  0  0  0  0  0  0  0  0  0  0
    3.9539    0.3377    0.0735 H   0  0  0  0  0  0  0  0  0  0  0  0
    5.0896   -2.6846   -2.5372 H   0  0  0  0  0  0  0  0  0  0  0  0
    4.7280    0.3046   -2.0271 H   0  0  0  0  0  0  0  0  0  0  0  0
    3.1999    1.8118   -2.7929 H   0  0  0  0  0  0  0  0  0  0  0  0
    1.8548    4.6151   -4.3936 H   0  0  0  0  0  0  0  0  0  0  0  0
    2.1287    3.8905   -2.7736 H   0  0  0  0  0  0  0  0  0  0  0  0
    0.4908    3.8150   -3.5105 H   0  0  0  0  0  0  0  0  0  0  0  0
    0.0217    2.6185   -7.3190 H   0  0  0  0  0  0  0  0  0  0  0  0
    0.9122    4.0076   -6.6049 H   0  0  0  0  0  0  0  0  0  0  0  0
   -0.4842    3.2633   -5.7192 H   0  0  0  0  0  0  0  0  0  0  0  0
    1.2282    0.6165   -7.2160 H   0  0  0  0  0  0  0  0  0  0  0  0
    2.5255   -1.2988   -8.2411 H   0  0  0  0  0  0  0  0  0  0  0  0
    1.8602   -3.5559   -8.4244 H   0  0  0  0  0  0  0  0  0  0  0  0
    0.9810   -2.6371   -4.7550 H   0  0  0  0  0  0  0  0  0  0  0  0
    2.5988   -5.9183   -8.1473 H   0  0  0  0  0  0  0  0  0  0  0  0
    2.6829   -8.2989   -7.6652 H   0  0  0  0  0  0  0  0  0  0  0  0
    1.2156   -7.6312   -3.7361 H   0  0  0  0  0  0  0  0  0  0  0  0
    0.4223   -5.7701   -2.3679 H   0  0  0  0  0  0  0  0  0  0  0  0
    0.6485   -2.7205   -2.5142 H   0  0  0  0  0  0  0  0  0  0  0  0
   -1.1525   -1.9324   -0.5569 H   0  0  0  0  0  0  0  0  0  0  0  0
    1.8298   -5.9430   -0.5901 H   0  0  0  0  0  0  0  0  0  0  0  0
    2.1426   -7.3024    1.3877 H   0  0  0  0  0  0  0  0  0  0  0  0
   -0.5179   -4.8404    3.5990 H   0  0  0  0  0  0  0  0  0  0  0  0
   -1.7481   -2.7914    3.3074 H   0  0  0  0  0  0  0  0  0  0  0  0
   -2.5381   -0.9874    0.9771 H   0  0  0  0  0  0  0  0  0  0  0  0
   -4.1038    0.5890    0.6425 H   0  0  0  0  0  0  0  0  0  0  0  0
   -5.3179    2.0752   -0.6886 H   0  0  0  0  0  0  0  0  0  0  0  0
   -5.7046    3.6159    0.1504 H   0  0  0  0  0  0  0  0  0  0  0  0
   -6.9934    2.3708   -0.1064 H   0  0  0  0  0  0  0  0  0  0  0  0
   -6.9290    4.3190    2.1509 H   0  0  0  0  0  0  0  0  0  0  0  0
   -7.7077    3.6468    3.6148 H   0  0  0  0  0  0  0  0  0  0  0  0
   -8.1993    3.0344    1.9944 H   0  0  0  0  0  0  0  0  0  0  0  0
   -6.5102    1.9982    4.7631 H   0  0  0  0  0  0  0  0  0  0  0  0
   -4.9936   -0.3764    7.1649 H   0  0  0  0  0  0  0  0  0  0  0  0
   -5.2671    1.7814    8.0884 H   0  0  0  0  0  0  0  0  0  0  0  0
   -6.3879    4.1182    6.7178 H   0  0  0  0  0  0  0  0  0  0  0  0
   -2.1440    1.6119    5.9506 H   0  0  0  0  0  0  0  0  0  0  0  0
   -0.3875    2.4976    4.5236 H   0  0  0  0  0  0  0  0  0  0  0  0
   -2.6775    5.9879    3.7396 H   0  0  0  0  0  0  0  0  0  0  0  0
   -4.8144    6.9677    4.3854 H   0  0  0  0  0  0  0  0  0  0  0  0
   -7.0444    7.6107    4.9218 H   0  0  0  0  0  0  0  0  0  0  0  0
   -7.3231    6.0377    5.8652 H   0  0  0  0  0  0  0  0  0  0  0  0
  1  2  1  0
  2  3  2  0
  3  4  1  0
  4  5  1  0
  5  6  1  0
  6  7  1  0
  7  8  2  0
  8  9  1  0
  3 10  1  0
 10 11  2  3
 11 12  1  0
 12 13  1  0
 13 14  1  0
 14 15  2  0
 15 16  1  0
 16 17  1  0
 17 18  2  0
 18 19  1  0
 18 20  1  0
 20 21  1  0
 20 22  2  0
 14 23  1  0
 23 24  2  3
 24 25  1  0
 25 26  1  0
 26 27  2  0
 27 28  1  0
 28 29  1  0
 29 30  1  0
 30 31  1  0
 31 32  2  0
 32 33  1  0
 27 34  1  0
 34 35  2  3
 35 36  1  0
 36 37  1  0
 37 38  2  0
 38 39  1  0
 39 40  1  0
 40 41  1  0
 41 42  1  0
 42 43  2  0
 43 44  1  0
 38 45  1  0
 45 46  2  3
 46 47  1  0
 47 48  1  0
 48 49  1  0
 49 50  2  0
 50 51  1  0
 51 52  1  0
 52 53  2  0
 53 54  1  0
 53 55  1  0
 55 56  1  0
 55 57  2  0
 49 58  1  0
 58 59  2  3
 59 60  1  0
 60 61  1  0
 61 62  2  0
 62 63  1  0
 63 64  1  0
 64 65  1  0
 65 66  1  0
 66 67  2  0
 67 68  1  0
 62 69  1  0
 69 70  2  3
  5  1  2  0
 16 12  2  0
 29 25  2  0
 40 36  2  0
 51 47  2  0
 64 60  2  0
  9  4  2  0
 22 15  1  0
 33 28  2  0
 44 39  2  0
 57 50  1  0
 68 63  2  0
  1 71  1  0
  2 72  1  0
  6 73  1  0
  7 74  1  0
  9 75  1  0
 10 76  1  0
 11 77  1  0
 17 78  1  0
 19 79  1  0
 19 80  1  0
 19 81  1  0
 21 82  1  0
 21 83  1  0
 21 84  1  0
 22 85  1  0
 23 86  1  0
 24 87  1  0
 26 88  1  0
 30 89  1  0
 31 90  1  0
 33 91  1  0
 34 92  1  0
 35 93  1  0
 37 94  1  0
 41 95  1  0
 42 96  1  0
 44 97  1  0
 45 98  1  0
 46 99  1  0
 52100  1  0
 54101  1  0
 54102  1  0
 54103  1  0
 56104  1  0
 56105  1  0
 56106  1  0
 57107  1  0
 58108  1  0
 59109  1  0
 61110  1  0
 65111  1  0
 66112  1  0
 68113  1  0
 69114  1  0
 70115  1  0
 70116  1  0
M  END

