
     RDKit          3D

116123  0  0  0  0  0  0  0  0999 V2000
    9.1405   -4.8623   -2.6759 C   0  0  0  0  0  0  0  0  0  0  0  0
    9.8481   -4.8369   -1.5497 C   0  0  0  0  0  0  0  0  0  0  0  0
    9.3311   -4.1951   -0.3294 C   0  0  0  0  0  0  0  0  0  0  0  0
    8.1549   -3.6057   -0.2445 O   0  0  0  0  0  0  0  0  0  0  0  0
    7.9973   -3.1298    0.9744 C   0  0  0  0  0  0  0  0  0  0  0  0
    9.1215   -3.4123    1.7206 C   0  0  0  0  0  0  0  0  0  0  0  0
    9.9780   -4.0967    0.8904 C   0  0  0  0  0  0  0  0  0  0  0  0
   11.2416   -4.5746    1.2303 O   0  0  0  0  0  0  0  0  0  0  0  0
    9.3426   -3.0641    3.0502 O   0  0  0  0  0  0  0  0  0  0  0  0
    6.8256   -2.3647    1.4409 C   0  0  0  0  0  0  0  0  0  0  0  0
    5.6505   -2.3059    0.8011 C   0  0  0  0  0  0  0  0  0  0  0  0
    5.2665   -3.1685   -0.3325 C   0  0  0  0  0  0  0  0  0  0  0  0
    5.3648   -4.8546   -0.3496 S   0  0  0  0  0  0  0  0  0  0  0  0
    4.5228   -5.0936   -1.7873 C   0  0  0  0  0  0  0  0  0  0  0  0
    4.1564   -3.8389   -2.2857 C   0  0  0  0  0  0  0  0  0  0  0  0
    4.5462   -2.7721   -1.4592 C   0  0  0  0  0  0  0  0  0  0  0  0
    4.2179   -1.4561   -1.7955 C   0  0  0  0  0  0  0  0  0  0  0  0
    3.4733   -1.1996   -2.9627 C   0  0  0  0  0  0  0  0  0  0  0  0
    3.0924    0.2201   -3.2898 C   0  0  0  0  0  0  0  0  0  0  0  0
    3.0955   -2.2767   -3.8103 C   0  0  0  0  0  0  0  0  0  0  0  0
    2.2892   -2.0388   -5.0598 C   0  0  0  0  0  0  0  0  0  0  0  0
    3.4611   -3.5939   -3.4739 C   0  0  0  0  0  0  0  0  0  0  0  0
    4.2083   -6.4238   -2.3442 C   0  0  0  0  0  0  0  0  0  0  0  0
    2.9747   -6.8343   -2.6771 C   0  0  0  0  0  0  0  0  0  0  0  0
    1.7397   -6.0687   -2.4070 C   0  0  0  0  0  0  0  0  0  0  0  0
    1.4024   -5.2005   -1.0014 S   0  0  0  0  0  0  0  0  0  0  0  0
   -0.0788   -4.5618   -1.4960 C   0  0  0  0  0  0  0  0  0  0  0  0
   -0.3624   -5.0868   -2.7587 C   0  0  0  0  0  0  0  0  0  0  0  0
    0.6518   -5.9182   -3.2677 C   0  0  0  0  0  0  0  0  0  0  0  0
    0.5417   -6.4694   -4.5465 C   0  0  0  0  0  0  0  0  0  0  0  0
   -0.6048   -6.2084   -5.3226 C   0  0  0  0  0  0  0  0  0  0  0  0
   -0.7087   -6.8107   -6.7003 C   0  0  0  0  0  0  0  0  0  0  0  0
   -1.6451   -5.3939   -4.7964 C   0  0  0  0  0  0  0  0  0  0  0  0
   -2.8913   -5.1100   -5.5964 C   0  0  0  0  0  0  0  0  0  0  0  0
   -1.5071   -4.8220   -3.5164 C   0  0  0  0  0  0  0  0  0  0  0  0
   -0.9368   -3.6505   -0.7051 C   0  0  0  0  0  0  0  0  0  0  0  0
   -0.4931   -2.5643   -0.0486 C   0  0  0  0  0  0  0  0  0  0  0  0
    0.8988   -2.0665   -0.1531 C   0  0  0  0  0  0  0  0  0  0  0  0
    1.4534   -1.1136    0.6073 C   0  0  0  0  0  0  0  0  0  0  0  0
    0.7804   -0.2768    1.6188 C   0  0  0  0  0  0  0  0  0  0  0  0
   -0.5180   -0.0567    1.7179 O   0  0  0  0  0  0  0  0  0  0  0  0
   -0.7257    0.8326    2.6715 C   0  0  0  0  0  0  0  0  0  0  0  0
    0.4875    1.1988    3.2307 C   0  0  0  0  0  0  0  0  0  0  0  0
    1.4451    0.4916    2.5526 C   0  0  0  0  0  0  0  0  0  0  0  0
    2.8225    0.5510    2.7519 O   0  0  0  0  0  0  0  0  0  0  0  0
    0.7170    2.1078    4.2614 O   0  0  0  0  0  0  0  0  0  0  0  0
   -2.0374    1.4006    3.0223 C   0  0  0  0  0  0  0  0  0  0  0  0
   -3.1831    0.8927    2.5622 C   0  0  0  0  0  0  0  0  0  0  0  0
   -4.4598    1.5706    2.8448 C   0  0  0  0  0  0  0  0  0  0  0  0
   -5.6333    0.9992    2.5680 C   0  0  0  0  0  0  0  0  0  0  0  0
   -6.8991    1.7083    2.8251 C   0  0  0  0  0  0  0  0  0  0  0  0
   -6.9921    3.0086    3.0310 O   0  0  0  0  0  0  0  0  0  0  0  0
   -8.2567    3.3259    3.2216 C   0  0  0  0  0  0  0  0  0  0  0  0
   -9.0272    2.1843    3.1324 C   0  0  0  0  0  0  0  0  0  0  0  0
   -8.1629    1.1471    2.8791 C   0  0  0  0  0  0  0  0  0  0  0  0
   -8.5113   -0.1935    2.7278 O   0  0  0  0  0  0  0  0  0  0  0  0
  -10.4086    2.1030    3.2768 O   0  0  0  0  0  0  0  0  0  0  0  0
   -8.7821    4.6876    3.4638 C   0  0  0  0  0  0  0  0  0  0  0  0
   -8.0496    5.7985    3.6382 C   0  0  0  0  0  0  0  0  0  0  0  0
   -6.5737    5.8236    3.7456 C   0  0  0  0  0  0  0  0  0  0  0  0
   -5.7956    6.8776    3.4481 C   0  0  0  0  0  0  0  0  0  0  0  0
   -6.2629    8.2004    2.9794 C   0  0  0  0  0  0  0  0  0  0  0  0
   -7.4658    8.7020    3.1797 O   0  0  0  0  0  0  0  0  0  0  0  0
   -7.5284    9.9170    2.6758 C   0  0  0  0  0  0  0  0  0  0  0  0
   -6.3041   10.2297    2.1035 C   0  0  0  0  0  0  0  0  0  0  0  0
   -5.4962    9.1349    2.3030 C   0  0  0  0  0  0  0  0  0  0  0  0
   -4.1739    9.0096    1.8795 O   0  0  0  0  0  0  0  0  0  0  0  0
   -5.9561   11.3988    1.4335 O   0  0  0  0  0  0  0  0  0  0  0  0
   -8.7541   10.7364    2.7483 C   0  0  0  0  0  0  0  0  0  0  0  0
   -8.7981   12.0408    2.4793 C   0  0  0  0  0  0  0  0  0  0  0  0
    8.1562   -4.4148   -2.7327 H   0  0  0  0  0  0  0  0  0  0  0  0
    9.5479   -5.3379   -3.5584 H   0  0  0  0  0  0  0  0  0  0  0  0
   10.8289   -5.2958   -1.5404 H   0  0  0  0  0  0  0  0  0  0  0  0
   11.8305   -5.0401    0.5532 H   0  0  0  0  0  0  0  0  0  0  0  0
   10.2071   -3.3170    3.5164 H   0  0  0  0  0  0  0  0  0  0  0  0
    6.9518   -1.7490    2.3242 H   0  0  0  0  0  0  0  0  0  0  0  0
    4.9123   -1.5979    1.1585 H   0  0  0  0  0  0  0  0  0  0  0  0
    4.5258   -0.6405   -1.1522 H   0  0  0  0  0  0  0  0  0  0  0  0
    3.5511    0.5201   -4.2563 H   0  0  0  0  0  0  0  0  0  0  0  0
    3.4407    0.9311   -2.5089 H   0  0  0  0  0  0  0  0  0  0  0  0
    1.9874    0.3100   -3.3595 H   0  0  0  0  0  0  0  0  0  0  0  0
    2.1359   -2.9762   -5.6358 H   0  0  0  0  0  0  0  0  0  0  0  0
    2.8127   -1.3174   -5.7207 H   0  0  0  0  0  0  0  0  0  0  0  0
    1.2905   -1.6365   -4.7904 H   0  0  0  0  0  0  0  0  0  0  0  0
    3.1906   -4.4149   -4.1249 H   0  0  0  0  0  0  0  0  0  0  0  0
    5.0333   -7.1135   -2.4814 H   0  0  0  0  0  0  0  0  0  0  0  0
    2.8717   -7.7958   -3.1616 H   0  0  0  0  0  0  0  0  0  0  0  0
    1.3396   -7.0872   -4.9403 H   0  0  0  0  0  0  0  0  0  0  0  0
    0.2215   -7.3469   -6.9869 H   0  0  0  0  0  0  0  0  0  0  0  0
   -1.5485   -7.5373   -6.7305 H   0  0  0  0  0  0  0  0  0  0  0  0
   -0.8860   -6.0119   -7.4505 H   0  0  0  0  0  0  0  0  0  0  0  0
   -2.6363   -4.5046   -6.4923 H   0  0  0  0  0  0  0  0  0  0  0  0
   -3.6398   -4.5475   -4.9987 H   0  0  0  0  0  0  0  0  0  0  0  0
   -3.3635   -6.0632   -5.9151 H   0  0  0  0  0  0  0  0  0  0  0  0
   -2.2842   -4.1807   -3.1186 H   0  0  0  0  0  0  0  0  0  0  0  0
   -1.9964   -3.8709   -0.6658 H   0  0  0  0  0  0  0  0  0  0  0  0
   -1.2159   -2.0176    0.5380 H   0  0  0  0  0  0  0  0  0  0  0  0
    1.5474   -2.5052   -0.8958 H   0  0  0  0  0  0  0  0  0  0  0  0
    2.5105   -0.9215    0.4586 H   0  0  0  0  0  0  0  0  0  0  0  0
    3.2180    1.1654    3.4543 H   0  0  0  0  0  0  0  0  0  0  0  0
   -0.0449    2.5795    4.7333 H   0  0  0  0  0  0  0  0  0  0  0  0
   -2.0654    2.2854    3.6475 H   0  0  0  0  0  0  0  0  0  0  0  0
   -3.1767   -0.0087    1.9592 H   0  0  0  0  0  0  0  0  0  0  0  0
   -4.4386    2.5549    3.3005 H   0  0  0  0  0  0  0  0  0  0  0  0
   -5.6606   -0.0052    2.1621 H   0  0  0  0  0  0  0  0  0  0  0  0
   -7.8089   -0.9029    2.5590 H   0  0  0  0  0  0  0  0  0  0  0  0
  -10.8883    1.2104    3.2222 H   0  0  0  0  0  0  0  0  0  0  0  0
   -9.8594    4.8012    3.4596 H   0  0  0  0  0  0  0  0  0  0  0  0
   -8.6010    6.7199    3.7496 H   0  0  0  0  0  0  0  0  0  0  0  0
   -6.0668    4.9318    4.0812 H   0  0  0  0  0  0  0  0  0  0  0  0
   -4.7252    6.7367    3.5361 H   0  0  0  0  0  0  0  0  0  0  0  0
   -3.6506    8.1542    2.0233 H   0  0  0  0  0  0  0  0  0  0  0  0
   -5.0302   11.5191    1.0406 H   0  0  0  0  0  0  0  0  0  0  0  0
   -9.6666   10.2499    3.0711 H   0  0  0  0  0  0  0  0  0  0  0  0
   -7.9218   12.6054    2.2003 H   0  0  0  0  0  0  0  0  0  0  0  0
   -9.7355   12.5736    2.5704 H   0  0  0  0  0  0  0  0  0  0  0  0
  1  2  2  3
  2  3  1  0
  3  4  1  0
  4  5  1  0
  5  6  2  0
  6  7  1  0
  7  8  1  0
  6  9  1  0
  5 10  1  0
 10 11  2  3
 11 12  1  0
 12 13  1  0
 13 14  1  0
 14 15  2  0
 15 16  1  0
 16 17  1  0
 17 18  2  0
 18 19  1  0
 18 20  1  0
 20 21  1  0
 20 22  2  0
 14 23  1  0
 23 24  2  3
 24 25  1  0
 25 26  1  0
 26 27  1  0
 27 28  2  0
 28 29  1  0
 29 30  1  0
 30 31  2  0
 31 32  1  0
 31 33  1  0
 33 34  1  0
 33 35  2  0
 27 36  1  0
 36 37  2  3
 37 38  1  0
 38 39  2  3
 39 40  1  0
 40 41  1  0
 41 42  1  0
 42 43  2  0
 43 44  1  0
 44 45  1  0
 43 46  1  0
 42 47  1  0
 47 48  2  3
 48 49  1  0
 49 50  2  3
 50 51  1  0
 51 52  1  0
 52 53  1  0
 53 54  2  0
 54 55  1  0
 55 56  1  0
 54 57  1  0
 53 58  1  0
 58 59  2  3
 59 60  1  0
 60 61  2  3
 61 62  1  0
 62 63  1  0
 63 64  1  0
 64 65  2  0
 65 66  1  0
 66 67  1  0
 65 68  1  0
 64 69  1  0
 69 70  2  3
  7  3  2  0
 16 12  2  0
 29 25  2  0
 44 40  2  0
 55 51  2  0
 66 62  2  0
 22 15  1  0
 35 28  1  0
  1 71  1  0
  1 72  1  0
  2 73  1  0
  8 74  1  0
  9 75  1  0
 10 76  1  0
 11 77  1  0
 17 78  1  0
 19 79  1  0
 19 80  1  0
 19 81  1  0
 21 82  1  0
 21 83  1  0
 21 84  1  0
 22 85  1  0
 23 86  1  0
 24 87  1  0
 30 88  1  0
 32 89  1  0
 32 90  1  0
 32 91  1  0
 34 92  1  0
 34 93  1  0
 34 94  1  0
 35 95  1  0
 36 96  1  0
 37 97  1  0
 38 98  1  0
 39 99  1  0
 45100  1  0
 46101  1  0
 47102  1  0
 48103  1  0
 49104  1  0
 50105  1  0
 56106  1  0
 57107  1  0
 58108  1  0
 59109  1  0
 60110  1  0
 61111  1  0
 67112  1  0
 68113  1  0
 69114  1  0
 70115  1  0
 70116  1  0
M  END

