
     RDKit          3D

221241  0  0  0  0  0  0  0  0999 V2000
    0.9024    2.1194    8.4258 C   0  0  0  0  0  0  0  0  0  0  0  0
    1.7434    1.8828    7.3413 C   0  0  0  0  0  0  0  0  0  0  0  0
    1.2563    0.8915    6.4707 C   0  0  0  0  0  0  0  0  0  0  0  0
    1.8729    0.4463    5.2829 C   0  0  0  0  0  0  0  0  0  0  0  0
    3.1080    1.0720    4.7826 C   0  0  0  0  0  0  0  0  0  0  0  0
    4.3381    0.4085    4.9082 C   0  0  0  0  0  0  0  0  0  0  0  0
    5.5132    1.0414    4.4896 C   0  0  0  0  0  0  0  0  0  0  0  0
    5.4656    2.3232    3.9269 C   0  0  0  0  0  0  0  0  0  0  0  0
    6.9922    3.1312    3.4332 S   0  0  0  0  0  0  0  0  0  0  0  0
    6.9449    2.4818    1.7285 C   0  0  0  0  0  0  0  0  0  0  0  0
    8.3093    2.6647    1.0712 C   0  0  0  0  0  0  0  0  0  0  0  0
    4.2326    2.9745    3.7819 C   0  0  0  0  0  0  0  0  0  0  0  0
    4.1720    4.2174    3.2399 F   0  0  0  0  0  0  0  0  0  0  0  0
    3.0574    2.3501    4.2061 C   0  0  0  0  0  0  0  0  0  0  0  0
    1.2312   -0.5826    4.5764 C   0  0  0  0  0  0  0  0  0  0  0  0
    0.0124   -1.1248    4.9898 C   0  0  0  0  0  0  0  0  0  0  0  0
   -0.6288   -0.6536    6.1552 C   0  0  0  0  0  0  0  0  0  0  0  0
   -1.9793   -1.1167    6.5436 C   0  0  0  0  0  0  0  0  0  0  0  0
   -2.1918   -1.7481    7.7795 C   0  0  0  0  0  0  0  0  0  0  0  0
   -3.4714   -2.1899    8.1281 C   0  0  0  0  0  0  0  0  0  0  0  0
   -4.5452   -2.0117    7.2441 C   0  0  0  0  0  0  0  0  0  0  0  0
   -6.1782   -2.6173    7.6800 S   0  0  0  0  0  0  0  0  0  0  0  0
   -6.0351   -4.1802    6.7362 C   0  0  0  0  0  0  0  0  0  0  0  0
   -5.2345   -5.2177    7.5111 C   0  0  0  0  0  0  0  0  0  0  0  0
   -4.3398   -1.3554    6.0228 C   0  0  0  0  0  0  0  0  0  0  0  0
   -3.0621   -0.9100    5.6753 C   0  0  0  0  0  0  0  0  0  0  0  0
   -5.3741   -1.1594    5.1632 F   0  0  0  0  0  0  0  0  0  0  0  0
    0.0403    0.3439    6.8863 C   0  0  0  0  0  0  0  0  0  0  0  0
   -0.4375    1.1044    8.3073 S   0  0  0  0  0  0  0  0  0  0  0  0
   -0.4574   -2.1388    4.1407 C   0  0  0  0  0  0  0  0  0  0  0  0
    0.3891   -2.3884    3.0584 C   0  0  0  0  0  0  0  0  0  0  0  0
    1.7089   -1.3288    3.1448 S   0  0  0  0  0  0  0  0  0  0  0  0
    0.0765   -3.3252    1.9629 C   0  0  0  0  0  0  0  0  0  0  0  0
   -1.4939   -3.7875    1.5781 S   0  0  0  0  0  0  0  0  0  0  0  0
   -1.1350   -4.7465    0.2444 C   0  0  0  0  0  0  0  0  0  0  0  0
    0.2500   -4.7255    0.0753 C   0  0  0  0  0  0  0  0  0  0  0  0
    0.9303   -3.9476    1.0386 C   0  0  0  0  0  0  0  0  0  0  0  0
    2.3315   -3.8995    1.0343 C   0  0  0  0  0  0  0  0  0  0  0  0
    3.0573   -4.6041    0.0526 C   0  0  0  0  0  0  0  0  0  0  0  0
    4.5626   -4.5402    0.0673 C   0  0  0  0  0  0  0  0  0  0  0  0
    2.3633   -5.3556   -0.9363 C   0  0  0  0  0  0  0  0  0  0  0  0
    3.1121   -6.1164   -2.0001 C   0  0  0  0  0  0  0  0  0  0  0  0
    0.9589   -5.4199   -0.9095 C   0  0  0  0  0  0  0  0  0  0  0  0
   -2.1347   -5.4172   -0.6121 C   0  0  0  0  0  0  0  0  0  0  0  0
   -3.3736   -5.6568   -0.1737 C   0  0  0  0  0  0  0  0  0  0  0  0
   -4.4488   -6.1614   -1.0445 C   0  0  0  0  0  0  0  0  0  0  0  0
   -5.9994   -5.5144   -1.0069 S   0  0  0  0  0  0  0  0  0  0  0  0
   -6.6406   -6.4351   -2.2614 C   0  0  0  0  0  0  0  0  0  0  0  0
   -5.6471   -7.3067   -2.7059 C   0  0  0  0  0  0  0  0  0  0  0  0
   -4.4187   -7.1542   -2.0357 C   0  0  0  0  0  0  0  0  0  0  0  0
   -3.3335   -7.9747   -2.3574 C   0  0  0  0  0  0  0  0  0  0  0  0
   -3.4645   -8.9314   -3.3872 C   0  0  0  0  0  0  0  0  0  0  0  0
   -2.2846   -9.8048   -3.7323 C   0  0  0  0  0  0  0  0  0  0  0  0
   -4.7042   -9.0705   -4.0737 C   0  0  0  0  0  0  0  0  0  0  0  0
   -4.8758  -10.0974   -5.1606 C   0  0  0  0  0  0  0  0  0  0  0  0
   -5.7914   -8.2464   -3.7271 C   0  0  0  0  0  0  0  0  0  0  0  0
   -7.9880   -6.2580   -2.8393 C   0  0  0  0  0  0  0  0  0  0  0  0
   -8.4562   -5.0613   -3.2244 C   0  0  0  0  0  0  0  0  0  0  0  0
   -7.6028   -3.8642   -3.2888 C   0  0  0  0  0  0  0  0  0  0  0  0
   -6.3586   -3.8143   -3.9128 C   0  0  0  0  0  0  0  0  0  0  0  0
   -5.6311   -2.6629   -3.5819 C   0  0  0  0  0  0  0  0  0  0  0  0
   -4.3029   -2.3915   -3.9609 C   0  0  0  0  0  0  0  0  0  0  0  0
   -3.5617   -3.2851   -4.8788 C   0  0  0  0  0  0  0  0  0  0  0  0
   -2.3867   -3.9313   -4.4559 C   0  0  0  0  0  0  0  0  0  0  0  0
   -1.7012   -4.7812   -5.3287 C   0  0  0  0  0  0  0  0  0  0  0  0
   -2.1898   -4.9967   -6.6299 C   0  0  0  0  0  0  0  0  0  0  0  0
   -1.3005   -6.0928   -7.7436 S   0  0  0  0  0  0  0  0  0  0  0  0
   -0.4870   -4.7541   -8.6890 C   0  0  0  0  0  0  0  0  0  0  0  0
    0.6417   -4.1068   -7.8956 C   0  0  0  0  0  0  0  0  0  0  0  0
   -3.3720   -4.3727   -7.0416 C   0  0  0  0  0  0  0  0  0  0  0  0
   -3.8619   -4.5829   -8.2910 F   0  0  0  0  0  0  0  0  0  0  0  0
   -4.0483   -3.5104   -6.1730 C   0  0  0  0  0  0  0  0  0  0  0  0
   -3.7077   -1.2477   -3.3984 C   0  0  0  0  0  0  0  0  0  0  0  0
   -4.3824   -0.3998   -2.5163 C   0  0  0  0  0  0  0  0  0  0  0  0
   -5.7235   -0.6650   -2.1521 C   0  0  0  0  0  0  0  0  0  0  0  0
   -6.4476    0.1554   -1.1544 C   0  0  0  0  0  0  0  0  0  0  0  0
   -7.6720    0.7523   -1.4890 C   0  0  0  0  0  0  0  0  0  0  0  0
   -8.3896    1.4723   -0.5277 C   0  0  0  0  0  0  0  0  0  0  0  0
   -7.8889    1.6003    0.7739 C   0  0  0  0  0  0  0  0  0  0  0  0
   -8.8145    2.5384    2.0000 S   0  0  0  0  0  0  0  0  0  0  0  0
   -9.5898    1.0741    2.7720 C   0  0  0  0  0  0  0  0  0  0  0  0
  -10.8321    0.6385    2.0032 C   0  0  0  0  0  0  0  0  0  0  0  0
   -6.6531    1.0331    1.1035 C   0  0  0  0  0  0  0  0  0  0  0  0
   -5.9425    0.2985    0.1507 C   0  0  0  0  0  0  0  0  0  0  0  0
   -6.1499    1.1608    2.3617 F   0  0  0  0  0  0  0  0  0  0  0  0
   -6.3198   -1.8053   -2.7159 C   0  0  0  0  0  0  0  0  0  0  0  0
   -7.8175   -2.4866   -2.3473 S   0  0  0  0  0  0  0  0  0  0  0  0
   -3.5856    0.6620   -2.0552 C   0  0  0  0  0  0  0  0  0  0  0  0
   -2.2833    0.6270   -2.5597 C   0  0  0  0  0  0  0  0  0  0  0  0
   -2.1325   -0.6926   -3.6030 S   0  0  0  0  0  0  0  0  0  0  0  0
   -1.1785    1.5146   -2.1576 C   0  0  0  0  0  0  0  0  0  0  0  0
    0.1326    1.4289   -2.6184 C   0  0  0  0  0  0  0  0  0  0  0  0
    1.0046    2.3232   -1.9742 C   0  0  0  0  0  0  0  0  0  0  0  0
    2.3892    2.4694   -2.2186 C   0  0  0  0  0  0  0  0  0  0  0  0
    3.1086    1.6705   -3.2376 C   0  0  0  0  0  0  0  0  0  0  0  0
    3.0863    0.2642   -3.2028 C   0  0  0  0  0  0  0  0  0  0  0  0
    3.7808   -0.4791   -4.1609 C   0  0  0  0  0  0  0  0  0  0  0  0
    4.5323    0.1744   -5.1490 C   0  0  0  0  0  0  0  0  0  0  0  0
    5.4841   -0.7919   -6.3378 S   0  0  0  0  0  0  0  0  0  0  0  0
    4.3122   -0.5813   -7.7254 C   0  0  0  0  0  0  0  0  0  0  0  0
    3.0748   -1.4530   -7.5482 C   0  0  0  0  0  0  0  0  0  0  0  0
    4.5856    1.5733   -5.1728 C   0  0  0  0  0  0  0  0  0  0  0  0
    5.3382    2.2192   -6.0989 F   0  0  0  0  0  0  0  0  0  0  0  0
    3.8666    2.3160   -4.2291 C   0  0  0  0  0  0  0  0  0  0  0  0
    3.0665    3.4378   -1.4516 C   0  0  0  0  0  0  0  0  0  0  0  0
    2.4194    4.2504   -0.5148 C   0  0  0  0  0  0  0  0  0  0  0  0
    1.0327    4.1160   -0.2863 C   0  0  0  0  0  0  0  0  0  0  0  0
    0.3221    4.9785    0.6766 C   0  0  0  0  0  0  0  0  0  0  0  0
    0.2615    6.3643    0.4706 C   0  0  0  0  0  0  0  0  0  0  0  0
   -0.3923    7.1870    1.3940 C   0  0  0  0  0  0  0  0  0  0  0  0
   -0.9876    6.6256    2.5294 C   0  0  0  0  0  0  0  0  0  0  0  0
   -1.8128    7.6990    3.7153 S   0  0  0  0  0  0  0  0  0  0  0  0
   -3.4266    7.6955    2.8537 C   0  0  0  0  0  0  0  0  0  0  0  0
   -4.2569    6.4787    3.2500 C   0  0  0  0  0  0  0  0  0  0  0  0
   -0.9198    5.2411    2.7482 C   0  0  0  0  0  0  0  0  0  0  0  0
   -0.2735    4.4218    1.8196 C   0  0  0  0  0  0  0  0  0  0  0  0
   -1.4654    4.6914    3.8658 F   0  0  0  0  0  0  0  0  0  0  0  0
    0.3622    3.1282   -1.0270 C   0  0  0  0  0  0  0  0  0  0  0  0
   -1.2695    2.7168   -0.9735 S   0  0  0  0  0  0  0  0  0  0  0  0
    3.2927    5.1301    0.1538 C   0  0  0  0  0  0  0  0  0  0  0  0
    4.6260    5.0146   -0.2505 C   0  0  0  0  0  0  0  0  0  0  0  0
    4.7063    3.8002   -1.4256 S   0  0  0  0  0  0  0  0  0  0  0  0
    5.7472    5.7889    0.3378 C   0  0  0  0  0  0  0  0  0  0  0  0
    5.5652    6.7649    1.7020 S   0  0  0  0  0  0  0  0  0  0  0  0
    7.1579    7.2785    1.8485 C   0  0  0  0  0  0  0  0  0  0  0  0
    7.8795    6.6866    0.8105 C   0  0  0  0  0  0  0  0  0  0  0  0
    7.1015    5.8608   -0.0360 C   0  0  0  0  0  0  0  0  0  0  0  0
    7.7134    5.2066   -1.1137 C   0  0  0  0  0  0  0  0  0  0  0  0
    9.0969    5.3363   -1.3292 C   0  0  0  0  0  0  0  0  0  0  0  0
    9.7461    4.5515   -2.4416 C   0  0  0  0  0  0  0  0  0  0  0  0
    9.8674    6.1783   -0.4880 C   0  0  0  0  0  0  0  0  0  0  0  0
   11.3421    6.3764   -0.7238 C   0  0  0  0  0  0  0  0  0  0  0  0
    9.2516    6.8516    0.5785 C   0  0  0  0  0  0  0  0  0  0  0  0
    7.6860    8.1628    2.9091 C   0  0  0  0  0  0  0  0  0  0  0  0
    6.8989    8.7278    3.8267 C   0  0  0  0  0  0  0  0  0  0  0  0
    1.0886    2.8262    9.2209 H   0  0  0  0  0  0  0  0  0  0  0  0
    2.6770    2.4062    7.1988 H   0  0  0  0  0  0  0  0  0  0  0  0
    4.3887   -0.5782    5.3504 H   0  0  0  0  0  0  0  0  0  0  0  0
    6.4642    0.5330    4.6053 H   0  0  0  0  0  0  0  0  0  0  0  0
    6.6803    1.4027    1.7265 H   0  0  0  0  0  0  0  0  0  0  0  0
    6.1765    3.0348    1.1577 H   0  0  0  0  0  0  0  0  0  0  0  0
    8.6497    3.7174    1.1737 H   0  0  0  0  0  0  0  0  0  0  0  0
    8.2458    2.4124   -0.0074 H   0  0  0  0  0  0  0  0  0  0  0  0
    9.0600    1.9992    1.5514 H   0  0  0  0  0  0  0  0  0  0  0  0
    2.1080    2.8620    4.0980 H   0  0  0  0  0  0  0  0  0  0  0  0
   -1.3691   -1.9029    8.4654 H   0  0  0  0  0  0  0  0  0  0  0  0
   -3.6292   -2.6787    9.0808 H   0  0  0  0  0  0  0  0  0  0  0  0
   -5.5586   -3.9992    5.7474 H   0  0  0  0  0  0  0  0  0  0  0  0
   -7.0560   -4.5762    6.5577 H   0  0  0  0  0  0  0  0  0  0  0  0
   -5.7048   -5.4054    8.5007 H   0  0  0  0  0  0  0  0  0  0  0  0
   -4.1952   -4.8706    7.6662 H   0  0  0  0  0  0  0  0  0  0  0  0
   -5.2083   -6.1689    6.9360 H   0  0  0  0  0  0  0  0  0  0  0  0
   -2.9107   -0.4070    4.7248 H   0  0  0  0  0  0  0  0  0  0  0  0
   -1.3768   -2.6794    4.3038 H   0  0  0  0  0  0  0  0  0  0  0  0
    2.8635   -3.3550    1.7945 H   0  0  0  0  0  0  0  0  0  0  0  0
    4.9265   -3.9749   -0.8186 H   0  0  0  0  0  0  0  0  0  0  0  0
    4.9402   -4.0296    0.9759 H   0  0  0  0  0  0  0  0  0  0  0  0
    4.9900   -5.5658    0.0487 H   0  0  0  0  0  0  0  0  0  0  0  0
    3.6821   -6.9495   -1.5325 H   0  0  0  0  0  0  0  0  0  0  0  0
    2.4270   -6.5438   -2.7582 H   0  0  0  0  0  0  0  0  0  0  0  0
    3.8174   -5.4385   -2.5251 H   0  0  0  0  0  0  0  0  0  0  0  0
    0.4309   -6.0222   -1.6399 H   0  0  0  0  0  0  0  0  0  0  0  0
   -1.8629   -5.6686   -1.6283 H   0  0  0  0  0  0  0  0  0  0  0  0
   -3.6568   -5.3630    0.8281 H   0  0  0  0  0  0  0  0  0  0  0  0
   -2.4009   -7.8948   -1.8104 H   0  0  0  0  0  0  0  0  0  0  0  0
   -2.5242  -10.8681   -3.5243 H   0  0  0  0  0  0  0  0  0  0  0  0
   -2.0319   -9.6858   -4.8066 H   0  0  0  0  0  0  0  0  0  0  0  0
   -1.3890   -9.5288   -3.1371 H   0  0  0  0  0  0  0  0  0  0  0  0
   -4.6504  -11.1099   -4.7657 H   0  0  0  0  0  0  0  0  0  0  0  0
   -4.1922   -9.8759   -6.0077 H   0  0  0  0  0  0  0  0  0  0  0  0
   -5.9166  -10.1093   -5.5522 H   0  0  0  0  0  0  0  0  0  0  0  0
   -6.7405   -8.3488   -4.2347 H   0  0  0  0  0  0  0  0  0  0  0  0
   -8.6291   -7.1225   -2.9224 H   0  0  0  0  0  0  0  0  0  0  0  0
   -9.4914   -4.9636   -3.5233 H   0  0  0  0  0  0  0  0  0  0  0  0
   -5.9673   -4.6324   -4.5055 H   0  0  0  0  0  0  0  0  0  0  0  0
   -2.0027   -3.7810   -3.4530 H   0  0  0  0  0  0  0  0  0  0  0  0
   -0.7955   -5.2772   -5.0023 H   0  0  0  0  0  0  0  0  0  0  0  0
   -0.0643   -5.2016   -9.6114 H   0  0  0  0  0  0  0  0  0  0  0  0
   -1.2289   -3.9833   -8.9924 H   0  0  0  0  0  0  0  0  0  0  0  0
    1.3634   -4.8785   -7.5504 H   0  0  0  0  0  0  0  0  0  0  0  0
    1.1722   -3.3868   -8.5535 H   0  0  0  0  0  0  0  0  0  0  0  0
    0.2450   -3.5541   -7.0188 H   0  0  0  0  0  0  0  0  0  0  0  0
   -4.9489   -3.0156   -6.5095 H   0  0  0  0  0  0  0  0  0  0  0  0
   -8.0717    0.6604   -2.4911 H   0  0  0  0  0  0  0  0  0  0  0  0
   -9.3383    1.9249   -0.7955 H   0  0  0  0  0  0  0  0  0  0  0  0
   -8.8742    0.2251    2.8365 H   0  0  0  0  0  0  0  0  0  0  0  0
   -9.8830    1.3500    3.8055 H   0  0  0  0  0  0  0  0  0  0  0  0
  -11.5632    1.4750    1.9468 H   0  0  0  0  0  0  0  0  0  0  0  0
  -11.3058   -0.2182    2.5303 H   0  0  0  0  0  0  0  0  0  0  0  0
  -10.5530    0.3139    0.9775 H   0  0  0  0  0  0  0  0  0  0  0  0
   -5.0025   -0.1644    0.4277 H   0  0  0  0  0  0  0  0  0  0  0  0
   -3.9262    1.4162   -1.3591 H   0  0  0  0  0  0  0  0  0  0  0  0
    0.4368    0.7357   -3.3886 H   0  0  0  0  0  0  0  0  0  0  0  0
    2.5202   -0.2526   -2.4358 H   0  0  0  0  0  0  0  0  0  0  0  0
    3.7530   -1.5619   -4.1240 H   0  0  0  0  0  0  0  0  0  0  0  0
    4.0163    0.4853   -7.8190 H   0  0  0  0  0  0  0  0  0  0  0  0
    4.8206   -0.8705   -8.6682 H   0  0  0  0  0  0  0  0  0  0  0  0
    3.3671   -2.5176   -7.3994 H   0  0  0  0  0  0  0  0  0  0  0  0
    2.4689   -1.1089   -6.6785 H   0  0  0  0  0  0  0  0  0  0  0  0
    2.4516   -1.3760   -8.4651 H   0  0  0  0  0  0  0  0  0  0  0  0
    3.8982    3.3976   -4.2718 H   0  0  0  0  0  0  0  0  0  0  0  0
    0.7252    6.8114   -0.4003 H   0  0  0  0  0  0  0  0  0  0  0  0
   -0.4346    8.2565    1.2271 H   0  0  0  0  0  0  0  0  0  0  0  0
   -3.9724    8.6150    3.1494 H   0  0  0  0  0  0  0  0  0  0  0  0
   -3.2904    7.7201    1.7515 H   0  0  0  0  0  0  0  0  0  0  0  0
   -3.7871    5.5499    2.8647 H   0  0  0  0  0  0  0  0  0  0  0  0
   -4.3449    6.4205    4.3576 H   0  0  0  0  0  0  0  0  0  0  0  0
   -5.2746    6.5686    2.8127 H   0  0  0  0  0  0  0  0  0  0  0  0
   -0.2185    3.3546    1.9944 H   0  0  0  0  0  0  0  0  0  0  0  0
    2.9719    5.8168    0.9279 H   0  0  0  0  0  0  0  0  0  0  0  0
    7.1527    4.5811   -1.7793 H   0  0  0  0  0  0  0  0  0  0  0  0
   10.5394    3.8970   -2.0224 H   0  0  0  0  0  0  0  0  0  0  0  0
   10.1908    5.2436   -3.1868 H   0  0  0  0  0  0  0  0  0  0  0  0
    9.0153    3.9012   -2.9641 H   0  0  0  0  0  0  0  0  0  0  0  0
   11.8715    5.4003   -0.6725 H   0  0  0  0  0  0  0  0  0  0  0  0
   11.5006    6.8265   -1.7243 H   0  0  0  0  0  0  0  0  0  0  0  0
   11.7951    7.0505    0.0345 H   0  0  0  0  0  0  0  0  0  0  0  0
    9.8388    7.4898    1.2228 H   0  0  0  0  0  0  0  0  0  0  0  0
    8.7449    8.3709    2.9634 H   0  0  0  0  0  0  0  0  0  0  0  0
    7.3285    9.3624    4.5891 H   0  0  0  0  0  0  0  0  0  0  0  0
    5.8280    8.5700    3.8316 H   0  0  0  0  0  0  0  0  0  0  0  0
  1  2  2  0
  2  3  1  0
  3  4  2  0
  4  5  1  0
  5  6  2  0
  6  7  1  0
  7  8  2  0
  8  9  1  0
  9 10  1  0
 10 11  1  0
  8 12  1  0
 12 13  1  0
 12 14  2  0
  4 15  1  0
 15 16  2  0
 16 17  1  0
 17 18  1  0
 18 19  2  0
 19 20  1  0
 20 21  2  0
 21 22  1  0
 22 23  1  0
 23 24  1  0
 21 25  1  0
 25 26  2  0
 25 27  1  0
 17 28  2  0
 28 29  1  0
 16 30  1  0
 30 31  2  0
 31 32  1  0
 31 33  1  0
 33 34  1  0
 34 35  1  0
 35 36  2  0
 36 37  1  0
 37 38  1  0
 38 39  2  0
 39 40  1  0
 39 41  1  0
 41 42  1  0
 41 43  2  0
 35 44  1  0
 44 45  2  3
 45 46  1  0
 46 47  1  0
 47 48  1  0
 48 49  2  0
 49 50  1  0
 50 51  1  0
 51 52  2  0
 52 53  1  0
 52 54  1  0
 54 55  1  0
 54 56  2  0
 48 57  1  0
 57 58  2  3
 58 59  1  0
 59 60  2  0
 60 61  1  0
 61 62  2  0
 62 63  1  0
 63 64  2  0
 64 65  1  0
 65 66  2  0
 66 67  1  0
 67 68  1  0
 68 69  1  0
 66 70  1  0
 70 71  1  0
 70 72  2  0
 62 73  1  0
 73 74  2  0
 74 75  1  0
 75 76  1  0
 76 77  2  0
 77 78  1  0
 78 79  2  0
 79 80  1  0
 80 81  1  0
 81 82  1  0
 79 83  1  0
 83 84  2  0
 83 85  1  0
 75 86  2  0
 86 87  1  0
 74 88  1  0
 88 89  2  0
 89 90  1  0
 89 91  1  0
 91 92  2  0
 92 93  1  0
 93 94  2  0
 94 95  1  0
 95 96  2  0
 96 97  1  0
 97 98  2  0
 98 99  1  0
 99100  1  0
100101  1  0
 98102  1  0
102103  1  0
102104  2  0
 94105  1  0
105106  2  0
106107  1  0
107108  1  0
108109  2  0
109110  1  0
110111  2  0
111112  1  0
112113  1  0
113114  1  0
111115  1  0
115116  2  0
115117  1  0
107118  2  0
118119  1  0
106120  1  0
120121  2  0
121122  1  0
121123  1  0
123124  1  0
124125  1  0
125126  2  0
126127  1  0
127128  1  0
128129  2  0
129130  1  0
129131  1  0
131132  1  0
131133  2  0
125134  1  0
134135  2  3
 29  1  1  0
 37 33  2  0
 50 46  2  0
 87 59  1  0
119 91  1  0
127123  2  0
 28  3  1  0
 43 36  1  0
 56 49  1  0
 86 61  1  0
118 93  1  0
133126  1  0
 14  5  1  0
 32 15  1  0
 72 63  1  0
 90 73  1  0
104 95  1  0
122105  1  0
 26 18  1  0
 84 76  1  0
116108  1  0
  1136  1  0
  2137  1  0
  6138  1  0
  7139  1  0
 10140  1  0
 10141  1  0
 11142  1  0
 11143  1  0
 11144  1  0
 14145  1  0
 19146  1  0
 20147  1  0
 23148  1  0
 23149  1  0
 24150  1  0
 24151  1  0
 24152  1  0
 26153  1  0
 30154  1  0
 38155  1  0
 40156  1  0
 40157  1  0
 40158  1  0
 42159  1  0
 42160  1  0
 42161  1  0
 43162  1  0
 44163  1  0
 45164  1  0
 51165  1  0
 53166  1  0
 53167  1  0
 53168  1  0
 55169  1  0
 55170  1  0
 55171  1  0
 56172  1  0
 57173  1  0
 58174  1  0
 60175  1  0
 64176  1  0
 65177  1  0
 68178  1  0
 68179  1  0
 69180  1  0
 69181  1  0
 69182  1  0
 72183  1  0
 77184  1  0
 78185  1  0
 81186  1  0
 81187  1  0
 82188  1  0
 82189  1  0
 82190  1  0
 84191  1  0
 88192  1  0
 92193  1  0
 96194  1  0
 97195  1  0
100196  1  0
100197  1  0
101198  1  0
101199  1  0
101200  1  0
104201  1  0
109202  1  0
110203  1  0
113204  1  0
113205  1  0
114206  1  0
114207  1  0
114208  1  0
116209  1  0
120210  1  0
128211  1  0
130212  1  0
130213  1  0
130214  1  0
132215  1  0
132216  1  0
132217  1  0
133218  1  0
134219  1  0
135220  1  0
135221  1  0
M  END

