
     RDKit          3D

180195  0  0  0  0  0  0  0  0999 V2000
   -3.6556    6.0851   11.6991 C   0  0  0  0  0  0  0  0  0  0  0  0
   -2.8705    4.9313   11.5804 C   0  0  0  0  0  0  0  0  0  0  0  0
   -2.9629    4.1724   10.4128 C   0  0  0  0  0  0  0  0  0  0  0  0
   -2.0227    2.6534   10.0047 Si  0  0  0  0  0  4  0  0  0  0  0  0
   -2.4459    1.1814   11.0887 C   0  0  0  0  0  0  0  0  0  0  0  0
   -1.8452    1.3204   12.4799 C   0  0  0  0  0  0  0  0  0  0  0  0
   -0.1851    3.0115    9.8570 C   0  0  0  0  0  0  0  0  0  0  0  0
    0.5909    1.7875    9.3968 C   0  0  0  0  0  0  0  0  0  0  0  0
   -2.8727    2.5689    8.3865 C   0  0  0  0  0  0  0  0  0  0  0  0
   -3.7471    3.6366    8.2064 C   0  0  0  0  0  0  0  0  0  0  0  0
   -3.8010    4.5514    9.3656 C   0  0  0  0  0  0  0  0  0  0  0  0
   -4.5876    5.7051    9.4810 C   0  0  0  0  0  0  0  0  0  0  0  0
   -4.5110    6.4706   10.6536 C   0  0  0  0  0  0  0  0  0  0  0  0
   -4.4723    3.7547    7.0131 C   0  0  0  0  0  0  0  0  0  0  0  0
   -4.3063    2.7873    6.0093 C   0  0  0  0  0  0  0  0  0  0  0  0
   -3.4356    1.6940    6.2049 C   0  0  0  0  0  0  0  0  0  0  0  0
   -2.7177    1.5862    7.4119 C   0  0  0  0  0  0  0  0  0  0  0  0
   -3.2426    0.6798    5.1477 C   0  0  0  0  0  0  0  0  0  0  0  0
   -3.2806   -0.6893    5.4734 C   0  0  0  0  0  0  0  0  0  0  0  0
   -2.9370   -1.6259    4.5028 C   0  0  0  0  0  0  0  0  0  0  0  0
   -2.7869   -3.4313    4.7387 Si  0  0  0  0  0  4  0  0  0  0  0  0
   -4.4459   -4.2989    4.8836 C   0  0  0  0  0  0  0  0  0  0  0  0
   -5.4623   -3.7358    3.8981 C   0  0  0  0  0  0  0  0  0  0  0  0
   -1.5985   -3.8266    6.1341 C   0  0  0  0  0  0  0  0  0  0  0  0
   -1.3555   -5.3245    6.2617 C   0  0  0  0  0  0  0  0  0  0  0  0
   -2.0493   -3.5804    3.0687 C   0  0  0  0  0  0  0  0  0  0  0  0
   -1.9981   -2.3491    2.4194 C   0  0  0  0  0  0  0  0  0  0  0  0
   -2.5302   -1.2365    3.2303 C   0  0  0  0  0  0  0  0  0  0  0  0
   -2.5436    0.1177    2.8756 C   0  0  0  0  0  0  0  0  0  0  0  0
   -2.9089    1.0734    3.8349 C   0  0  0  0  0  0  0  0  0  0  0  0
   -1.3645   -2.2404    1.1755 C   0  0  0  0  0  0  0  0  0  0  0  0
   -0.7515   -3.3728    0.6187 C   0  0  0  0  0  0  0  0  0  0  0  0
   -0.7828   -4.6078    1.2959 C   0  0  0  0  0  0  0  0  0  0  0  0
   -1.4735   -4.7204    2.5113 C   0  0  0  0  0  0  0  0  0  0  0  0
   -0.0315   -5.7630    0.7796 C   0  0  0  0  0  0  0  0  0  0  0  0
   -0.6869   -7.2936    0.5104 S   0  0  0  0  0  0  0  0  0  0  0  0
    0.7443   -8.0354    0.0234 C   0  0  0  0  0  0  0  0  0  0  0  0
    1.7771   -7.1015    0.1292 C   0  0  0  0  0  0  0  0  0  0  0  0
    1.3419   -5.8290    0.5311 C   0  0  0  0  0  0  0  0  0  0  0  0
    2.2582   -4.7840    0.6860 C   0  0  0  0  0  0  0  0  0  0  0  0
    3.6218   -5.0037    0.4123 C   0  0  0  0  0  0  0  0  0  0  0  0
    4.5935   -3.8644    0.5790 C   0  0  0  0  0  0  0  0  0  0  0  0
    4.0618   -6.2939    0.0072 C   0  0  0  0  0  0  0  0  0  0  0  0
    5.5146   -6.5594   -0.2854 C   0  0  0  0  0  0  0  0  0  0  0  0
    3.1297   -7.3422   -0.1268 C   0  0  0  0  0  0  0  0  0  0  0  0
    0.8467   -9.4470   -0.3747 C   0  0  0  0  0  0  0  0  0  0  0  0
    1.1645   -9.8914   -1.6035 C   0  0  0  0  0  0  0  0  0  0  0  0
    1.4148   -9.0635   -2.8171 C   0  0  0  0  0  0  0  0  0  0  0  0
    1.2600   -7.3931   -2.9545 S   0  0  0  0  0  0  0  0  0  0  0  0
    1.6896   -7.2304   -4.5713 C   0  0  0  0  0  0  0  0  0  0  0  0
    1.9279   -8.5169   -5.0600 C   0  0  0  0  0  0  0  0  0  0  0  0
    1.7833   -9.5323   -4.0889 C   0  0  0  0  0  0  0  0  0  0  0  0
    2.0000  -10.8718   -4.4386 C   0  0  0  0  0  0  0  0  0  0  0  0
    2.3531  -11.2071   -5.7594 C   0  0  0  0  0  0  0  0  0  0  0  0
    2.5533  -12.6586   -6.1168 C   0  0  0  0  0  0  0  0  0  0  0  0
    2.4824  -10.1843   -6.7366 C   0  0  0  0  0  0  0  0  0  0  0  0
    2.8373  -10.5152   -8.1634 C   0  0  0  0  0  0  0  0  0  0  0  0
    2.2816   -8.8385   -6.3731 C   0  0  0  0  0  0  0  0  0  0  0  0
    1.7579   -5.9475   -5.3050 C   0  0  0  0  0  0  0  0  0  0  0  0
    1.8610   -4.7815   -4.6491 C   0  0  0  0  0  0  0  0  0  0  0  0
    1.8247   -3.4424   -5.2869 C   0  0  0  0  0  0  0  0  0  0  0  0
    2.1897   -2.3287   -4.5050 C   0  0  0  0  0  0  0  0  0  0  0  0
    2.0365   -1.0451   -5.0236 C   0  0  0  0  0  0  0  0  0  0  0  0
    2.2950    0.5323   -4.1317 Si  0  0  0  0  0  4  0  0  0  0  0  0
    4.1061    0.9325   -3.8576 C   0  0  0  0  0  0  0  0  0  0  0  0
    4.8221   -0.1980   -3.1344 C   0  0  0  0  0  0  0  0  0  0  0  0
    1.2349    0.5957   -2.5855 C   0  0  0  0  0  0  0  0  0  0  0  0
    1.2539    1.9750   -1.9445 C   0  0  0  0  0  0  0  0  0  0  0  0
    1.5973    1.4469   -5.5582 C   0  0  0  0  0  0  0  0  0  0  0  0
    1.2728    0.5863   -6.6043 C   0  0  0  0  0  0  0  0  0  0  0  0
    1.5160   -0.8368   -6.2963 C   0  0  0  0  0  0  0  0  0  0  0  0
    1.1805   -1.9321   -7.1023 C   0  0  0  0  0  0  0  0  0  0  0  0
    1.3344   -3.2315   -6.5987 C   0  0  0  0  0  0  0  0  0  0  0  0
    0.7077    1.0929   -7.7784 C   0  0  0  0  0  0  0  0  0  0  0  0
    0.4558    2.4669   -7.8797 C   0  0  0  0  0  0  0  0  0  0  0  0
    0.7643    3.3408   -6.8132 C   0  0  0  0  0  0  0  0  0  0  0  0
    1.3602    2.8187   -5.6467 C   0  0  0  0  0  0  0  0  0  0  0  0
    0.3969    4.7768   -6.8969 C   0  0  0  0  0  0  0  0  0  0  0  0
   -0.1842    5.4257   -5.7868 C   0  0  0  0  0  0  0  0  0  0  0  0
   -0.6069    6.7471   -5.9159 C   0  0  0  0  0  0  0  0  0  0  0  0
   -1.4070    7.7725   -4.6304 Si  0  0  0  0  0  4  0  0  0  0  0  0
   -0.2237    8.1664   -3.2297 C   0  0  0  0  0  0  0  0  0  0  0  0
    0.9589    8.9911   -3.7184 C   0  0  0  0  0  0  0  0  0  0  0  0
   -3.0435    7.0662   -4.0431 C   0  0  0  0  0  0  0  0  0  0  0  0
   -4.0874    7.0696   -5.1546 C   0  0  0  0  0  0  0  0  0  0  0  0
   -1.5792    9.1430   -5.8332 C   0  0  0  0  0  0  0  0  0  0  0  0
   -1.0199    8.8118   -7.0647 C   0  0  0  0  0  0  0  0  0  0  0  0
   -0.4634    7.4439   -7.1108 C   0  0  0  0  0  0  0  0  0  0  0  0
    0.1394    6.8256   -8.2131 C   0  0  0  0  0  0  0  0  0  0  0  0
    0.5677    5.4939   -8.1033 C   0  0  0  0  0  0  0  0  0  0  0  0
   -1.0560    9.7329   -8.1201 C   0  0  0  0  0  0  0  0  0  0  0  0
   -1.6663   10.9816   -7.9182 C   0  0  0  0  0  0  0  0  0  0  0  0
   -2.2269   11.3034   -6.6718 C   0  0  0  0  0  0  0  0  0  0  0  0
   -2.1875   10.3798   -5.6193 C   0  0  0  0  0  0  0  0  0  0  0  0
   -3.6004    6.6837   12.5984 H   0  0  0  0  0  0  0  0  0  0  0  0
   -2.2016    4.6396   12.3789 H   0  0  0  0  0  0  0  0  0  0  0  0
   -3.5491    1.0954   11.1654 H   0  0  0  0  0  0  0  0  0  0  0  0
   -2.0498    0.2624   10.6093 H   0  0  0  0  0  0  0  0  0  0  0  0
   -2.1139    0.4335   13.0920 H   0  0  0  0  0  0  0  0  0  0  0  0
   -0.7371    1.3844   12.4181 H   0  0  0  0  0  0  0  0  0  0  0  0
   -2.2396    2.2282   12.9848 H   0  0  0  0  0  0  0  0  0  0  0  0
   -0.0401    3.8382    9.1303 H   0  0  0  0  0  0  0  0  0  0  0  0
    0.1913    3.3388   10.8493 H   0  0  0  0  0  0  0  0  0  0  0  0
    1.6756    2.0259    9.3611 H   0  0  0  0  0  0  0  0  0  0  0  0
    0.4429    0.9428   10.1043 H   0  0  0  0  0  0  0  0  0  0  0  0
    0.2630    1.4835    8.3799 H   0  0  0  0  0  0  0  0  0  0  0  0
   -5.2437    6.0188    8.6816 H   0  0  0  0  0  0  0  0  0  0  0  0
   -5.1126    7.3651   10.7547 H   0  0  0  0  0  0  0  0  0  0  0  0
   -5.1511    4.5792    6.8511 H   0  0  0  0  0  0  0  0  0  0  0  0
   -4.8646    2.8815    5.0870 H   0  0  0  0  0  0  0  0  0  0  0  0
   -2.0312    0.7653    7.5785 H   0  0  0  0  0  0  0  0  0  0  0  0
   -3.5333   -1.0187    6.4734 H   0  0  0  0  0  0  0  0  0  0  0  0
   -4.8245   -4.1731    5.9183 H   0  0  0  0  0  0  0  0  0  0  0  0
   -4.2959   -5.3806    4.6862 H   0  0  0  0  0  0  0  0  0  0  0  0
   -5.0775   -3.8017    2.8601 H   0  0  0  0  0  0  0  0  0  0  0  0
   -6.4024   -4.3210    3.9636 H   0  0  0  0  0  0  0  0  0  0  0  0
   -5.6866   -2.6784    4.1453 H   0  0  0  0  0  0  0  0  0  0  0  0
   -0.6372   -3.3044    5.9475 H   0  0  0  0  0  0  0  0  0  0  0  0
   -2.0347   -3.4457    7.0800 H   0  0  0  0  0  0  0  0  0  0  0  0
   -2.3147   -5.8520    6.4608 H   0  0  0  0  0  0  0  0  0  0  0  0
   -0.6666   -5.5160    7.1132 H   0  0  0  0  0  0  0  0  0  0  0  0
   -0.8938   -5.7309    5.3365 H   0  0  0  0  0  0  0  0  0  0  0  0
   -2.2393    0.4413    1.8899 H   0  0  0  0  0  0  0  0  0  0  0  0
   -2.8763    2.1229    3.5724 H   0  0  0  0  0  0  0  0  0  0  0  0
   -1.2954   -1.2907    0.6607 H   0  0  0  0  0  0  0  0  0  0  0  0
   -0.2324   -3.2813   -0.3290 H   0  0  0  0  0  0  0  0  0  0  0  0
   -1.5046   -5.6613    3.0433 H   0  0  0  0  0  0  0  0  0  0  0  0
    1.9219   -3.8108    1.0216 H   0  0  0  0  0  0  0  0  0  0  0  0
    5.1488   -3.6977   -0.3679 H   0  0  0  0  0  0  0  0  0  0  0  0
    4.0760   -2.9166    0.8392 H   0  0  0  0  0  0  0  0  0  0  0  0
    5.3126   -4.1009    1.3908 H   0  0  0  0  0  0  0  0  0  0  0  0
    5.6888   -7.6231   -0.5541 H   0  0  0  0  0  0  0  0  0  0  0  0
    5.8481   -5.9292   -1.1355 H   0  0  0  0  0  0  0  0  0  0  0  0
    6.1293   -6.3272    0.6094 H   0  0  0  0  0  0  0  0  0  0  0  0
    3.4553   -8.3275   -0.4336 H   0  0  0  0  0  0  0  0  0  0  0  0
    0.5942  -10.1823    0.3789 H   0  0  0  0  0  0  0  0  0  0  0  0
    1.1968  -10.9663   -1.7175 H   0  0  0  0  0  0  0  0  0  0  0  0
    1.8971  -11.6556   -3.7020 H   0  0  0  0  0  0  0  0  0  0  0  0
    2.5230  -13.3113   -5.2200 H   0  0  0  0  0  0  0  0  0  0  0  0
    3.5399  -12.7996   -6.6049 H   0  0  0  0  0  0  0  0  0  0  0  0
    1.7493  -12.9834   -6.8109 H   0  0  0  0  0  0  0  0  0  0  0  0
    3.8580  -10.9502   -8.2089 H   0  0  0  0  0  0  0  0  0  0  0  0
    2.1054  -11.2412   -8.5734 H   0  0  0  0  0  0  0  0  0  0  0  0
    2.8191   -9.6125   -8.8112 H   0  0  0  0  0  0  0  0  0  0  0  0
    2.3935   -8.0575   -7.1141 H   0  0  0  0  0  0  0  0  0  0  0  0
    1.7315   -5.9709   -6.3828 H   0  0  0  0  0  0  0  0  0  0  0  0
    1.9742   -4.8011   -3.5710 H   0  0  0  0  0  0  0  0  0  0  0  0
    2.5420   -2.4568   -3.4884 H   0  0  0  0  0  0  0  0  0  0  0  0
    4.1815    1.8648   -3.2611 H   0  0  0  0  0  0  0  0  0  0  0  0
    4.5903    1.1020   -4.8431 H   0  0  0  0  0  0  0  0  0  0  0  0
    4.8192   -1.1181   -3.7572 H   0  0  0  0  0  0  0  0  0  0  0  0
    5.8793    0.0892   -2.9477 H   0  0  0  0  0  0  0  0  0  0  0  0
    4.3359   -0.4089   -2.1593 H   0  0  0  0  0  0  0  0  0  0  0  0
    0.1937    0.3271   -2.8596 H   0  0  0  0  0  0  0  0  0  0  0  0
    1.6169   -0.1574   -1.8626 H   0  0  0  0  0  0  0  0  0  0  0  0
    0.6140    1.9671   -1.0368 H   0  0  0  0  0  0  0  0  0  0  0  0
    0.8538    2.7364   -2.6455 H   0  0  0  0  0  0  0  0  0  0  0  0
    2.2875    2.2492   -1.6450 H   0  0  0  0  0  0  0  0  0  0  0  0
    0.7617   -1.7925   -8.0887 H   0  0  0  0  0  0  0  0  0  0  0  0
    1.0122   -4.0559   -7.2186 H   0  0  0  0  0  0  0  0  0  0  0  0
    0.4387    0.4406   -8.5981 H   0  0  0  0  0  0  0  0  0  0  0  0
   -0.0198    2.8419   -8.7768 H   0  0  0  0  0  0  0  0  0  0  0  0
    1.6281    3.4652   -4.8211 H   0  0  0  0  0  0  0  0  0  0  0  0
   -0.3398    4.9038   -4.8507 H   0  0  0  0  0  0  0  0  0  0  0  0
   -0.7694    8.7281   -2.4441 H   0  0  0  0  0  0  0  0  0  0  0  0
    0.1409    7.2087   -2.7962 H   0  0  0  0  0  0  0  0  0  0  0  0
    1.4964    8.4633   -4.5344 H   0  0  0  0  0  0  0  0  0  0  0  0
    1.6655    9.1624   -2.8794 H   0  0  0  0  0  0  0  0  0  0  0  0
    0.6115    9.9797   -4.0878 H   0  0  0  0  0  0  0  0  0  0  0  0
   -2.8788    6.0275   -3.6885 H   0  0  0  0  0  0  0  0  0  0  0  0
   -3.4115    7.6784   -3.1935 H   0  0  0  0  0  0  0  0  0  0  0  0
   -5.0202    6.5879   -4.7854 H   0  0  0  0  0  0  0  0  0  0  0  0
   -3.7218    6.4999   -6.0337 H   0  0  0  0  0  0  0  0  0  0  0  0
   -4.3261    8.1116   -5.4581 H   0  0  0  0  0  0  0  0  0  0  0  0
    0.2743    7.3516   -9.1476 H   0  0  0  0  0  0  0  0  0  0  0  0
    1.0354    5.0218   -8.9591 H   0  0  0  0  0  0  0  0  0  0  0  0
   -0.6335    9.4965   -9.0881 H   0  0  0  0  0  0  0  0  0  0  0  0
   -1.7050   11.6988   -8.7277 H   0  0  0  0  0  0  0  0  0  0  0  0
   -2.6994   12.2670   -6.5267 H   0  0  0  0  0  0  0  0  0  0  0  0
   -2.6268   10.6220   -4.6598 H   0  0  0  0  0  0  0  0  0  0  0  0
  1  2  2  0
  2  3  1  0
  3  4  1  0
  4  5  1  0
  5  6  1  0
  4  7  1  0
  7  8  1  0
  4  9  1  0
  9 10  2  0
 10 11  1  0
 11 12  1  0
 12 13  2  0
 10 14  1  0
 14 15  2  0
 15 16  1  0
 16 17  2  0
 16 18  1  0
 18 19  2  0
 19 20  1  0
 20 21  1  0
 21 22  1  0
 22 23  1  0
 21 24  1  0
 24 25  1  0
 21 26  1  0
 26 27  2  0
 27 28  1  0
 28 29  1  0
 29 30  2  0
 27 31  1  0
 31 32  2  0
 32 33  1  0
 33 34  2  0
 33 35  1  0
 35 36  1  0
 36 37  1  0
 37 38  2  0
 38 39  1  0
 39 40  1  0
 40 41  2  0
 41 42  1  0
 41 43  1  0
 43 44  1  0
 43 45  2  0
 37 46  1  0
 46 47  2  3
 47 48  1  0
 48 49  1  0
 49 50  1  0
 50 51  2  0
 51 52  1  0
 52 53  1  0
 53 54  2  0
 54 55  1  0
 54 56  1  0
 56 57  1  0
 56 58  2  0
 50 59  1  0
 59 60  2  3
 60 61  1  0
 61 62  2  0
 62 63  1  0
 63 64  1  0
 64 65  1  0
 65 66  1  0
 64 67  1  0
 67 68  1  0
 64 69  1  0
 69 70  2  0
 70 71  1  0
 71 72  1  0
 72 73  2  0
 70 74  1  0
 74 75  2  0
 75 76  1  0
 76 77  2  0
 76 78  1  0
 78 79  2  0
 79 80  1  0
 80 81  1  0
 81 82  1  0
 82 83  1  0
 81 84  1  0
 84 85  1  0
 81 86  1  0
 86 87  2  0
 87 88  1  0
 88 89  1  0
 89 90  2  0
 87 91  1  0
 91 92  2  0
 92 93  1  0
 93 94  2  0
 13  1  1  0
 30 18  1  0
 39 35  2  0
 52 48  2  0
 73 61  1  0
 90 78  1  0
 11  3  2  0
 28 20  2  0
 45 38  1  0
 58 51  1  0
 71 63  2  0
 88 80  2  0
 17  9  1  0
 34 26  1  0
 77 69  1  0
 94 86  1  0
  1 95  1  0
  2 96  1  0
  5 97  1  0
  5 98  1  0
  6 99  1  0
  6100  1  0
  6101  1  0
  7102  1  0
  7103  1  0
  8104  1  0
  8105  1  0
  8106  1  0
 12107  1  0
 13108  1  0
 14109  1  0
 15110  1  0
 17111  1  0
 19112  1  0
 22113  1  0
 22114  1  0
 23115  1  0
 23116  1  0
 23117  1  0
 24118  1  0
 24119  1  0
 25120  1  0
 25121  1  0
 25122  1  0
 29123  1  0
 30124  1  0
 31125  1  0
 32126  1  0
 34127  1  0
 40128  1  0
 42129  1  0
 42130  1  0
 42131  1  0
 44132  1  0
 44133  1  0
 44134  1  0
 45135  1  0
 46136  1  0
 47137  1  0
 53138  1  0
 55139  1  0
 55140  1  0
 55141  1  0
 57142  1  0
 57143  1  0
 57144  1  0
 58145  1  0
 59146  1  0
 60147  1  0
 62148  1  0
 65149  1  0
 65150  1  0
 66151  1  0
 66152  1  0
 66153  1  0
 67154  1  0
 67155  1  0
 68156  1  0
 68157  1  0
 68158  1  0
 72159  1  0
 73160  1  0
 74161  1  0
 75162  1  0
 77163  1  0
 79164  1  0
 82165  1  0
 82166  1  0
 83167  1  0
 83168  1  0
 83169  1  0
 84170  1  0
 84171  1  0
 85172  1  0
 85173  1  0
 85174  1  0
 89175  1  0
 90176  1  0
 91177  1  0
 92178  1  0
 93179  1  0
 94180  1  0
M  END

