
     RDKit          3D

100107  0  0  0  0  0  0  0  0999 V2000
    1.3430    0.4419    2.7175 C   0  0  0  0  0  0  0  0  0  0  0  0
    0.2973    1.5781    3.3850 S   0  0  0  0  0  0  0  0  0  0  0  0
    1.4149    2.8345    3.5558 C   0  0  0  0  0  0  0  0  0  0  0  0
    2.6459    2.3568    3.1049 C   0  0  0  0  0  0  0  0  0  0  0  0
    2.5960    1.0345    2.6372 C   0  0  0  0  0  0  0  0  0  0  0  0
    3.7364    0.4095    2.1419 C   0  0  0  0  0  0  0  0  0  0  0  0
    4.9540    1.1165    2.0999 C   0  0  0  0  0  0  0  0  0  0  0  0
    6.1786    0.4362    1.5399 C   0  0  0  0  0  0  0  0  0  0  0  0
    5.0126    2.4524    2.5865 C   0  0  0  0  0  0  0  0  0  0  0  0
    6.2956    3.2391    2.5502 C   0  0  0  0  0  0  0  0  0  0  0  0
    3.8458    3.0708    3.0768 C   0  0  0  0  0  0  0  0  0  0  0  0
    1.1556    4.1531    4.1711 C   0  0  0  0  0  0  0  0  0  0  0  0
    0.0210    4.8542    4.0190 C   0  0  0  0  0  0  0  0  0  0  0  0
   -1.0743    4.4747    3.1095 C   0  0  0  0  0  0  0  0  0  0  0  0
   -2.6802    4.3249    3.5805 S   0  0  0  0  0  0  0  0  0  0  0  0
   -3.2976    3.8573    2.0775 C   0  0  0  0  0  0  0  0  0  0  0  0
   -2.2387    3.8600    1.1681 C   0  0  0  0  0  0  0  0  0  0  0  0
   -1.0040    4.2132    1.7392 C   0  0  0  0  0  0  0  0  0  0  0  0
    0.1395    4.3204    0.9451 C   0  0  0  0  0  0  0  0  0  0  0  0
    0.0651    4.0261   -0.4291 C   0  0  0  0  0  0  0  0  0  0  0  0
    1.3123    4.1458   -1.2664 C   0  0  0  0  0  0  0  0  0  0  0  0
   -1.1738    3.6201   -0.9981 C   0  0  0  0  0  0  0  0  0  0  0  0
   -1.2860    3.2876   -2.4618 C   0  0  0  0  0  0  0  0  0  0  0  0
   -2.3282    3.5579   -0.1931 C   0  0  0  0  0  0  0  0  0  0  0  0
   -4.7255    3.6642    1.7465 C   0  0  0  0  0  0  0  0  0  0  0  0
   -5.6491    3.1899    2.5925 C   0  0  0  0  0  0  0  0  0  0  0  0
   -5.3543    2.6237    3.9194 C   0  0  0  0  0  0  0  0  0  0  0  0
   -6.1536    3.0810    5.3265 S   0  0  0  0  0  0  0  0  0  0  0  0
   -5.3727    1.9965    6.3448 C   0  0  0  0  0  0  0  0  0  0  0  0
   -4.4930    1.2333    5.5892 C   0  0  0  0  0  0  0  0  0  0  0  0
   -4.4813    1.5746    4.2225 C   0  0  0  0  0  0  0  0  0  0  0  0
   -3.7539    0.8484    3.2175 N   0  0  0  0  0  0  0  0  0  0  0  0
   -2.7769   -0.1589    3.5215 C   0  0  0  0  0  0  0  0  0  0  0  0
   -2.3588   -1.0008    2.5730 C   0  0  0  0  0  0  0  0  0  0  0  0
   -1.4327   -2.1153    2.8513 C   0  0  0  0  0  0  0  0  0  0  0  0
   -0.6765   -2.4351    4.3240 S   0  0  0  0  0  0  0  0  0  0  0  0
    0.0692   -3.8688    3.8607 C   0  0  0  0  0  0  0  0  0  0  0  0
   -0.2786   -4.1341    2.5446 C   0  0  0  0  0  0  0  0  0  0  0  0
   -1.1106   -3.1547    1.9773 C   0  0  0  0  0  0  0  0  0  0  0  0
   -1.5643   -3.2121    0.6191 N   0  0  0  0  0  0  0  0  0  0  0  0
   -1.8906   -4.4555   -0.0144 C   0  0  0  0  0  0  0  0  0  0  0  0
   -2.0704   -4.5161   -1.3358 C   0  0  0  0  0  0  0  0  0  0  0  0
   -2.4419   -5.7681   -2.0228 C   0  0  0  0  0  0  0  0  0  0  0  0
   -3.0536   -7.1594   -1.2930 S   0  0  0  0  0  0  0  0  0  0  0  0
   -3.1957   -8.0779   -2.6906 C   0  0  0  0  0  0  0  0  0  0  0  0
   -2.7662   -7.3045   -3.7627 C   0  0  0  0  0  0  0  0  0  0  0  0
   -2.3398   -6.0174   -3.3922 C   0  0  0  0  0  0  0  0  0  0  0  0
   -1.8700   -5.0428   -4.3396 N   0  0  0  0  0  0  0  0  0  0  0  0
   -1.0275   -5.3483   -5.4607 C   0  0  0  0  0  0  0  0  0  0  0  0
   -0.1971   -6.3984   -5.4640 C   0  0  0  0  0  0  0  0  0  0  0  0
    0.6750   -6.7215   -6.6055 C   0  0  0  0  0  0  0  0  0  0  0  0
    1.0034   -8.2941   -7.1029 S   0  0  0  0  0  0  0  0  0  0  0  0
    2.0030   -7.8901   -8.3906 C   0  0  0  0  0  0  0  0  0  0  0  0
    2.1074   -6.5069   -8.4428 C   0  0  0  0  0  0  0  0  0  0  0  0
    1.3712   -5.8426   -7.4413 C   0  0  0  0  0  0  0  0  0  0  0  0
    1.4270   -4.4228   -7.2261 N   0  0  0  0  0  0  0  0  0  0  0  0
    1.7405   -3.4972   -8.2748 C   0  0  0  0  0  0  0  0  0  0  0  0
    1.7284   -2.1877   -8.0519 C   0  0  0  0  0  0  0  0  0  0  0  0
    1.0907   -0.5638    2.4109 H   0  0  0  0  0  0  0  0  0  0  0  0
    3.6742   -0.6103    1.7837 H   0  0  0  0  0  0  0  0  0  0  0  0
    6.9234    0.2770    2.3480 H   0  0  0  0  0  0  0  0  0  0  0  0
    6.6316    1.0597    0.7377 H   0  0  0  0  0  0  0  0  0  0  0  0
    5.9351   -0.5538    1.1001 H   0  0  0  0  0  0  0  0  0  0  0  0
    6.5548    3.4798    1.4966 H   0  0  0  0  0  0  0  0  0  0  0  0
    7.1168    2.6518    3.0143 H   0  0  0  0  0  0  0  0  0  0  0  0
    6.2080    4.1965    3.1122 H   0  0  0  0  0  0  0  0  0  0  0  0
    3.8774    4.0932    3.4288 H   0  0  0  0  0  0  0  0  0  0  0  0
    1.9258    4.5789    4.7992 H   0  0  0  0  0  0  0  0  0  0  0  0
   -0.1012    5.7657    4.5962 H   0  0  0  0  0  0  0  0  0  0  0  0
    1.0775    4.6411    1.3841 H   0  0  0  0  0  0  0  0  0  0  0  0
    1.1265    4.8345   -2.1179 H   0  0  0  0  0  0  0  0  0  0  0  0
    2.1661    4.5499   -0.6769 H   0  0  0  0  0  0  0  0  0  0  0  0
    1.6002    3.1447   -1.6515 H   0  0  0  0  0  0  0  0  0  0  0  0
   -2.2908    2.8818   -2.7149 H   0  0  0  0  0  0  0  0  0  0  0  0
   -1.1165    4.2021   -3.0701 H   0  0  0  0  0  0  0  0  0  0  0  0
   -0.5326    2.5167   -2.7354 H   0  0  0  0  0  0  0  0  0  0  0  0
   -3.2796    3.2814   -0.6293 H   0  0  0  0  0  0  0  0  0  0  0  0
   -5.0541    3.9664    0.7596 H   0  0  0  0  0  0  0  0  0  0  0  0
   -6.6856    3.2283    2.2886 H   0  0  0  0  0  0  0  0  0  0  0  0
   -5.5553    1.8808    7.4061 H   0  0  0  0  0  0  0  0  0  0  0  0
   -3.9148    0.4304    6.0257 H   0  0  0  0  0  0  0  0  0  0  0  0
   -3.9946    1.0111    2.2162 H   0  0  0  0  0  0  0  0  0  0  0  0
   -2.3936   -0.2510    4.5275 H   0  0  0  0  0  0  0  0  0  0  0  0
   -2.7557   -0.8953    1.5716 H   0  0  0  0  0  0  0  0  0  0  0  0
    0.7158   -4.4777    4.4762 H   0  0  0  0  0  0  0  0  0  0  0  0
    0.0811   -5.0022    2.0074 H   0  0  0  0  0  0  0  0  0  0  0  0
   -1.6529   -2.3232    0.0832 H   0  0  0  0  0  0  0  0  0  0  0  0
   -1.9922   -5.3484    0.5944 H   0  0  0  0  0  0  0  0  0  0  0  0
   -1.9086   -3.6261   -1.9323 H   0  0  0  0  0  0  0  0  0  0  0  0
   -3.5712   -9.0907   -2.7535 H   0  0  0  0  0  0  0  0  0  0  0  0
   -2.7635   -7.6654   -4.7819 H   0  0  0  0  0  0  0  0  0  0  0  0
   -2.1873   -4.0532   -4.2323 H   0  0  0  0  0  0  0  0  0  0  0  0
   -1.0477   -4.6740   -6.3061 H   0  0  0  0  0  0  0  0  0  0  0  0
   -0.1900   -7.0829   -4.6293 H   0  0  0  0  0  0  0  0  0  0  0  0
    2.4968   -8.5885   -9.0535 H   0  0  0  0  0  0  0  0  0  0  0  0
    2.7340   -6.0113   -9.1661 H   0  0  0  0  0  0  0  0  0  0  0  0
    1.2241   -4.0525   -6.2686 H   0  0  0  0  0  0  0  0  0  0  0  0
    1.9634   -3.8504   -9.2728 H   0  0  0  0  0  0  0  0  0  0  0  0
    1.9449   -1.4970   -8.8552 H   0  0  0  0  0  0  0  0  0  0  0  0
    1.4845   -1.7882   -7.0758 H   0  0  0  0  0  0  0  0  0  0  0  0
  1  2  1  0
  2  3  1  0
  3  4  2  0
  4  5  1  0
  5  6  1  0
  6  7  2  0
  7  8  1  0
  7  9  1  0
  9 10  1  0
  9 11  2  0
  3 12  1  0
 12 13  2  3
 13 14  1  0
 14 15  1  0
 15 16  1  0
 16 17  2  0
 17 18  1  0
 18 19  1  0
 19 20  2  0
 20 21  1  0
 20 22  1  0
 22 23  1  0
 22 24  2  0
 16 25  1  0
 25 26  2  3
 26 27  1  0
 27 28  1  0
 28 29  1  0
 29 30  2  0
 30 31  1  0
 31 32  1  0
 32 33  1  0
 33 34  2  3
 34 35  1  0
 35 36  1  0
 36 37  1  0
 37 38  2  0
 38 39  1  0
 39 40  1  0
 40 41  1  0
 41 42  2  3
 42 43  1  0
 43 44  1  0
 44 45  1  0
 45 46  2  0
 46 47  1  0
 47 48  1  0
 48 49  1  0
 49 50  2  3
 50 51  1  0
 51 52  1  0
 52 53  1  0
 53 54  2  0
 54 55  1  0
 55 56  1  0
 56 57  1  0
 57 58  2  3
  5  1  2  0
 18 14  2  0
 31 27  2  0
 39 35  2  0
 47 43  2  0
 55 51  2  0
 11  4  1  0
 24 17  1  0
  1 59  1  0
  6 60  1  0
  8 61  1  0
  8 62  1  0
  8 63  1  0
 10 64  1  0
 10 65  1  0
 10 66  1  0
 11 67  1  0
 12 68  1  0
 13 69  1  0
 19 70  1  0
 21 71  1  0
 21 72  1  0
 21 73  1  0
 23 74  1  0
 23 75  1  0
 23 76  1  0
 24 77  1  0
 25 78  1  0
 26 79  1  0
 29 80  1  0
 30 81  1  0
 32 82  1  0
 33 83  1  0
 34 84  1  0
 37 85  1  0
 38 86  1  0
 40 87  1  0
 41 88  1  0
 42 89  1  0
 45 90  1  0
 46 91  1  0
 48 92  1  0
 49 93  1  0
 50 94  1  0
 53 95  1  0
 54 96  1  0
 56 97  1  0
 57 98  1  0
 58 99  1  0
 58100  1  0
M  END

