
     RDKit          3D

 88 95  0  0  0  0  0  0  0  0999 V2000
    3.9579    7.5023    3.1358 C   0  0  0  0  0  0  0  0  0  0  0  0
    2.9980    6.7390    2.6704 O   0  0  0  0  0  0  0  0  0  0  0  0
    3.4586    5.5167    2.5198 C   0  0  0  0  0  0  0  0  0  0  0  0
    4.7852    5.4641    2.9034 C   0  0  0  0  0  0  0  0  0  0  0  0
    5.1054    6.7471    3.2880 C   0  0  0  0  0  0  0  0  0  0  0  0
    6.4251    7.2061    3.8176 C   0  0  0  0  0  0  0  0  0  0  0  0
    7.4444    6.6716    3.0462 F   0  0  0  0  0  0  0  0  0  0  0  0
    6.5686    6.7784    5.1246 F   0  0  0  0  0  0  0  0  0  0  0  0
    6.5103    8.5882    3.7783 F   0  0  0  0  0  0  0  0  0  0  0  0
    2.6794    4.3809    1.9896 C   0  0  0  0  0  0  0  0  0  0  0  0
    3.3477    2.8919    1.5708 S   0  0  0  0  0  0  0  0  0  0  0  0
    1.9368    2.1632    1.0028 C   0  0  0  0  0  0  0  0  0  0  0  0
    0.9040    3.0972    1.1335 C   0  0  0  0  0  0  0  0  0  0  0  0
    1.3135    4.3293    1.6841 C   0  0  0  0  0  0  0  0  0  0  0  0
    0.3818    5.3588    1.8802 C   0  0  0  0  0  0  0  0  0  0  0  0
   -0.9644    5.1673    1.5172 C   0  0  0  0  0  0  0  0  0  0  0  0
   -1.9502    6.2863    1.7399 C   0  0  0  0  0  0  0  0  0  0  0  0
   -1.3681    3.9376    0.9314 C   0  0  0  0  0  0  0  0  0  0  0  0
   -2.7895    3.7157    0.4902 C   0  0  0  0  0  0  0  0  0  0  0  0
   -0.4283    2.9042    0.7496 C   0  0  0  0  0  0  0  0  0  0  0  0
    1.8294    0.7945    0.4566 C   0  0  0  0  0  0  0  0  0  0  0  0
    2.8970    0.0203    0.2477 C   0  0  0  0  0  0  0  0  0  0  0  0
    2.7822   -1.3494   -0.2778 C   0  0  0  0  0  0  0  0  0  0  0  0
    3.6957   -2.6337    0.3069 S   0  0  0  0  0  0  0  0  0  0  0  0
    3.0357   -3.8228   -0.6778 C   0  0  0  0  0  0  0  0  0  0  0  0
    2.0919   -3.2207   -1.5088 C   0  0  0  0  0  0  0  0  0  0  0  0
    1.9491   -1.8382   -1.2937 C   0  0  0  0  0  0  0  0  0  0  0  0
    1.0794   -1.0868   -2.0982 C   0  0  0  0  0  0  0  0  0  0  0  0
    0.3096   -1.7328   -3.0829 C   0  0  0  0  0  0  0  0  0  0  0  0
   -0.6130   -0.9092   -3.9453 C   0  0  0  0  0  0  0  0  0  0  0  0
    0.4368   -3.1370   -3.2775 C   0  0  0  0  0  0  0  0  0  0  0  0
   -0.3791   -3.8546   -4.3247 C   0  0  0  0  0  0  0  0  0  0  0  0
    1.3509   -3.8694   -2.4996 C   0  0  0  0  0  0  0  0  0  0  0  0
    3.3434   -5.2572   -0.5486 C   0  0  0  0  0  0  0  0  0  0  0  0
    2.5122   -6.1179    0.0508 C   0  0  0  0  0  0  0  0  0  0  0  0
    1.1795   -5.7174    0.5309 C   0  0  0  0  0  0  0  0  0  0  0  0
    0.2128   -5.3261   -0.2633 O   0  0  0  0  0  0  0  0  0  0  0  0
   -0.7930   -4.9113    0.4676 C   0  0  0  0  0  0  0  0  0  0  0  0
   -0.4952   -5.0588    1.8100 C   0  0  0  0  0  0  0  0  0  0  0  0
    0.7715   -5.6131    1.8509 C   0  0  0  0  0  0  0  0  0  0  0  0
    1.5977   -5.8429    3.0798 C   0  0  0  0  0  0  0  0  0  0  0  0
    2.3839   -6.9696    2.9233 F   0  0  0  0  0  0  0  0  0  0  0  0
    2.4095   -4.7448    3.2984 F   0  0  0  0  0  0  0  0  0  0  0  0
    0.7747   -6.0250    4.1753 F   0  0  0  0  0  0  0  0  0  0  0  0
   -2.0357   -4.3863   -0.1114 C   0  0  0  0  0  0  0  0  0  0  0  0
   -2.5483   -4.8675   -1.2189 O   0  0  0  0  0  0  0  0  0  0  0  0
   -3.6650   -4.2314   -1.4840 C   0  0  0  0  0  0  0  0  0  0  0  0
   -3.8943   -3.2655   -0.5206 C   0  0  0  0  0  0  0  0  0  0  0  0
   -2.8329   -3.3520    0.3598 C   0  0  0  0  0  0  0  0  0  0  0  0
   -2.5997   -2.4624    1.5478 C   0  0  0  0  0  0  0  0  0  0  0  0
   -3.0545   -3.0927    2.6910 F   0  0  0  0  0  0  0  0  0  0  0  0
   -1.2521   -2.1798    1.6775 F   0  0  0  0  0  0  0  0  0  0  0  0
   -3.2802   -1.2689    1.3928 F   0  0  0  0  0  0  0  0  0  0  0  0
   -4.4938   -4.5412   -2.6616 C   0  0  0  0  0  0  0  0  0  0  0  0
   -3.9917   -5.1032   -3.7373 O   0  0  0  0  0  0  0  0  0  0  0  0
   -4.9494   -5.2771   -4.6178 C   0  0  0  0  0  0  0  0  0  0  0  0
   -6.1451   -4.8171   -4.1064 C   0  0  0  0  0  0  0  0  0  0  0  0
   -5.8629   -4.3510   -2.8369 C   0  0  0  0  0  0  0  0  0  0  0  0
   -6.8732   -3.7986   -1.8715 C   0  0  0  0  0  0  0  0  0  0  0  0
   -6.6551   -4.3096   -0.6068 F   0  0  0  0  0  0  0  0  0  0  0  0
   -8.1500   -4.1512   -2.2664 F   0  0  0  0  0  0  0  0  0  0  0  0
   -6.7830   -2.4196   -1.8396 F   0  0  0  0  0  0  0  0  0  0  0  0
    3.8446    8.5573    3.3518 H   0  0  0  0  0  0  0  0  0  0  0  0
    5.4423    4.6020    2.8849 H   0  0  0  0  0  0  0  0  0  0  0  0
    0.6827    6.2982    2.3197 H   0  0  0  0  0  0  0  0  0  0  0  0
   -2.8099    5.9271    2.3453 H   0  0  0  0  0  0  0  0  0  0  0  0
   -2.3211    6.6594    0.7642 H   0  0  0  0  0  0  0  0  0  0  0  0
   -1.4846    7.1393    2.2744 H   0  0  0  0  0  0  0  0  0  0  0  0
   -3.0610    4.4622   -0.2846 H   0  0  0  0  0  0  0  0  0  0  0  0
   -2.9306    2.7057    0.0487 H   0  0  0  0  0  0  0  0  0  0  0  0
   -3.4745    3.8102    1.3577 H   0  0  0  0  0  0  0  0  0  0  0  0
   -0.7405    1.9668    0.3047 H   0  0  0  0  0  0  0  0  0  0  0  0
    0.8457    0.3991    0.2460 H   0  0  0  0  0  0  0  0  0  0  0  0
    3.8827    0.3585    0.5436 H   0  0  0  0  0  0  0  0  0  0  0  0
    1.0168   -0.0102   -1.9887 H   0  0  0  0  0  0  0  0  0  0  0  0
   -1.6494   -1.3048   -3.8915 H   0  0  0  0  0  0  0  0  0  0  0  0
   -0.6505    0.1473   -3.6084 H   0  0  0  0  0  0  0  0  0  0  0  0
   -0.2583   -0.9305   -4.9980 H   0  0  0  0  0  0  0  0  0  0  0  0
   -1.4612   -3.6871   -4.1466 H   0  0  0  0  0  0  0  0  0  0  0  0
   -0.1998   -4.9484   -4.3003 H   0  0  0  0  0  0  0  0  0  0  0  0
   -0.1086   -3.4816   -5.3340 H   0  0  0  0  0  0  0  0  0  0  0  0
    1.4796   -4.9346   -2.6607 H   0  0  0  0  0  0  0  0  0  0  0  0
    4.3439   -5.5906   -0.7976 H   0  0  0  0  0  0  0  0  0  0  0  0
    2.8616   -7.1232    0.2662 H   0  0  0  0  0  0  0  0  0  0  0  0
   -1.1215   -4.8025    2.6540 H   0  0  0  0  0  0  0  0  0  0  0  0
   -4.7015   -2.5511   -0.4798 H   0  0  0  0  0  0  0  0  0  0  0  0
   -4.8029   -5.7154   -5.5944 H   0  0  0  0  0  0  0  0  0  0  0  0
   -7.1118   -4.8417   -4.5951 H   0  0  0  0  0  0  0  0  0  0  0  0
  1  2  1  0
  2  3  1  0
  3  4  2  0
  4  5  1  0
  5  6  1  0
  6  7  1  0
  6  8  1  0
  6  9  1  0
  3 10  1  0
 10 11  1  0
 11 12  1  0
 12 13  2  0
 13 14  1  0
 14 15  1  0
 15 16  2  0
 16 17  1  0
 16 18  1  0
 18 19  1  0
 18 20  2  0
 12 21  1  0
 21 22  2  3
 22 23  1  0
 23 24  1  0
 24 25  1  0
 25 26  2  0
 26 27  1  0
 27 28  1  0
 28 29  2  0
 29 30  1  0
 29 31  1  0
 31 32  1  0
 31 33  2  0
 25 34  1  0
 34 35  2  3
 35 36  1  0
 36 37  1  0
 37 38  1  0
 38 39  2  0
 39 40  1  0
 40 41  1  0
 41 42  1  0
 41 43  1  0
 41 44  1  0
 38 45  1  0
 45 46  1  0
 46 47  1  0
 47 48  2  0
 48 49  1  0
 49 50  1  0
 50 51  1  0
 50 52  1  0
 50 53  1  0
 47 54  1  0
 54 55  1  0
 55 56  1  0
 56 57  2  0
 57 58  1  0
 58 59  1  0
 59 60  1  0
 59 61  1  0
 59 62  1  0
  5  1  2  0
 14 10  2  0
 27 23  2  0
 40 36  2  0
 49 45  2  0
 58 54  2  0
 20 13  1  0
 33 26  1  0
  1 63  1  0
  4 64  1  0
 15 65  1  0
 17 66  1  0
 17 67  1  0
 17 68  1  0
 19 69  1  0
 19 70  1  0
 19 71  1  0
 20 72  1  0
 21 73  1  0
 22 74  1  0
 28 75  1  0
 30 76  1  0
 30 77  1  0
 30 78  1  0
 32 79  1  0
 32 80  1  0
 32 81  1  0
 33 82  1  0
 34 83  1  0
 35 84  1  0
 39 85  1  0
 48 86  1  0
 56 87  1  0
 57 88  1  0
M  END

