
     RDKit          3D

152167  0  0  0  0  0  0  0  0999 V2000
    4.3999   -7.0272   -4.4769 N   0  0  0  0  0  0  0  0  0  0  0  0
    5.0495   -6.1476   -3.4978 C   0  0  2  0  0  0  0  0  0  0  0  0
    5.7381   -7.0059   -2.4133 C   0  0  0  0  0  0  0  0  0  0  0  0
    5.9005   -6.2394   -1.0902 C   0  0  2  0  0  0  0  0  0  0  0  0
    6.5476   -7.1138   -0.1079 N   0  0  0  0  0  0  0  0  0  0  0  0
    5.6361   -7.0253    1.4033 S   0  0  0  0  0  0  0  0  0  0  0  0
    4.1479   -6.6592    0.5398 N   0  0  0  0  0  0  0  0  0  0  0  0
    4.5444   -5.7556   -0.5290 C   0  0  2  0  0  0  0  0  0  0  0  0
    3.4294   -5.6772   -1.5891 C   0  0  0  0  0  0  0  0  0  0  0  0
    3.9934   -5.1717   -2.9299 C   0  0  2  0  0  0  0  0  0  0  0  0
    2.9453   -5.0668   -3.9315 N   0  0  0  0  0  0  0  0  0  0  0  0
    3.2253   -6.0486   -5.3661 S   0  0  0  0  0  0  0  0  0  0  0  0
    1.8278   -4.1723   -3.7707 C   0  0  0  0  0  0  0  0  0  0  0  0
    0.8495   -4.0663   -4.6790 C   0  0  0  0  0  0  0  0  0  0  0  0
   -0.3251   -3.2024   -4.4424 C   0  0  0  0  0  0  0  0  0  0  0  0
   -0.8170   -2.6243   -2.9379 S   0  0  0  0  0  0  0  0  0  0  0  0
   -2.1666   -1.7754   -3.4611 C   0  0  0  0  0  0  0  0  0  0  0  0
   -2.2714   -1.9477   -4.8457 C   0  0  0  0  0  0  0  0  0  0  0  0
   -1.2422   -2.7396   -5.3907 C   0  0  0  0  0  0  0  0  0  0  0  0
   -1.1931   -2.9813   -6.7681 C   0  0  0  0  0  0  0  0  0  0  0  0
   -2.1940   -2.4561   -7.6092 C   0  0  0  0  0  0  0  0  0  0  0  0
   -2.1068   -2.7016   -9.0933 C   0  0  0  0  0  0  0  0  0  0  0  0
   -3.2466   -1.6798   -7.0548 C   0  0  0  0  0  0  0  0  0  0  0  0
   -4.3415   -1.1176   -7.9241 C   0  0  0  0  0  0  0  0  0  0  0  0
   -3.2856   -1.4430   -5.6677 C   0  0  0  0  0  0  0  0  0  0  0  0
   -2.9450   -0.9095   -2.5616 C   0  0  0  0  0  0  0  0  0  0  0  0
   -3.2829    0.3374   -2.8949 C   0  0  0  0  0  0  0  0  0  0  0  0
   -3.7562    1.3129   -1.8910 C   0  0  0  0  0  0  0  0  0  0  0  0
   -3.5685    1.1543   -0.2210 S   0  0  0  0  0  0  0  0  0  0  0  0
   -4.0113    2.7243    0.1985 C   0  0  0  0  0  0  0  0  0  0  0  0
   -4.3119    3.4062   -0.9829 C   0  0  0  0  0  0  0  0  0  0  0  0
   -4.1785    2.6204   -2.1416 C   0  0  0  0  0  0  0  0  0  0  0  0
   -4.4445    3.1672   -3.4008 C   0  0  0  0  0  0  0  0  0  0  0  0
   -4.8477    4.5117   -3.5111 C   0  0  0  0  0  0  0  0  0  0  0  0
   -5.1521    5.0746   -4.8729 C   0  0  0  0  0  0  0  0  0  0  0  0
   -4.9799    5.3069   -2.3413 C   0  0  0  0  0  0  0  0  0  0  0  0
   -5.3779    6.7567   -2.4282 C   0  0  0  0  0  0  0  0  0  0  0  0
   -4.7001    4.7467   -1.0784 C   0  0  0  0  0  0  0  0  0  0  0  0
   -3.8562    3.3081    1.5420 C   0  0  0  0  0  0  0  0  0  0  0  0
   -3.9070    2.5581    2.6446 C   0  0  0  0  0  0  0  0  0  0  0  0
   -3.5273    3.1021    3.9112 N   0  0  0  0  0  0  0  0  0  0  0  0
   -4.1270    2.6040    5.1480 C   0  0  2  0  0  0  0  0  0  0  0  0
   -4.9031    3.7396    5.8343 C   0  0  0  0  0  0  0  0  0  0  0  0
   -5.3772    3.3178    7.2376 C   0  0  2  0  0  0  0  0  0  0  0  0
   -5.9553    4.4738    7.9173 N   0  0  0  0  0  0  0  0  0  0  0  0
   -4.7148    5.0987    9.0051 S   0  0  0  0  0  0  0  0  0  0  0  0
   -4.1397    3.4695    9.3558 N   0  0  0  0  0  0  0  0  0  0  0  0
   -4.2481    2.7119    8.1126 C   0  0  2  0  0  0  0  0  0  0  0  0
   -2.8781    2.6899    7.4102 C   0  0  0  0  0  0  0  0  0  0  0  0
   -2.9761    2.0313    6.0218 C   0  0  2  0  0  0  0  0  0  0  0  0
   -1.7243    2.2438    5.2878 N   0  0  0  0  0  0  0  0  0  0  0  0
   -1.8477    3.5674    4.1389 S   0  0  0  0  0  0  0  0  0  0  0  0
   -0.7532    1.2093    5.0552 C   0  0  0  0  0  0  0  0  0  0  0  0
   -0.6002    0.1641    5.8747 C   0  0  0  0  0  0  0  0  0  0  0  0
    0.3203   -0.8858    5.5594 N   0  0  0  0  0  0  0  0  0  0  0  0
    0.0347   -1.8402    4.4943 C   0  0  2  0  0  0  0  0  0  0  0  0
    0.2062   -3.2621    5.0675 C   0  0  0  0  0  0  0  0  0  0  0  0
    0.3566   -4.3579    3.9926 C   0  0  2  0  0  0  0  0  0  0  0  0
    0.7594   -5.6252    4.5968 N   0  0  0  0  0  0  0  0  0  0  0  0
    2.5357   -5.6117    4.7283 S   0  0  0  0  0  0  0  0  0  0  0  0
    2.7151   -4.1681    3.7069 N   0  0  0  0  0  0  0  0  0  0  0  0
    1.4517   -4.0250    3.0019 C   0  0  2  0  0  0  0  0  0  0  0  0
    1.2892   -2.6391    2.3739 C   0  0  0  0  0  0  0  0  0  0  0  0
    1.0379   -1.4936    3.3769 C   0  0  2  0  0  0  0  0  0  0  0  0
    2.2574   -0.9931    4.0261 N   0  0  0  0  0  0  0  0  0  0  0  0
    2.0555   -0.6257    5.7434 S   0  0  0  0  0  0  0  0  0  0  0  0
    3.3858   -0.4207    3.3416 C   0  0  0  0  0  0  0  0  0  0  0  0
    3.3295   -0.0027    2.0701 C   0  0  0  0  0  0  0  0  0  0  0  0
    4.4582    0.5819    1.4011 N   0  0  0  0  0  0  0  0  0  0  0  0
    4.2872    1.3633    0.1803 C   0  0  2  0  0  0  0  0  0  0  0  0
    4.4040    0.4444   -1.0456 C   0  0  0  0  0  0  0  0  0  0  0  0
    4.4085    1.2710   -2.3480 C   0  0  2  0  0  0  0  0  0  0  0  0
    4.6712    0.4234   -3.5087 N   0  0  0  0  0  0  0  0  0  0  0  0
    5.3467    1.4958   -4.7336 S   0  0  0  0  0  0  0  0  0  0  0  0
    6.2782    2.3644   -3.5147 N   0  0  0  0  0  0  0  0  0  0  0  0
    5.4196    2.4454   -2.3307 C   0  0  2  0  0  0  0  0  0  0  0  0
    6.2551    2.5148   -1.0351 C   0  0  0  0  0  0  0  0  0  0  0  0
    5.3419    2.5086    0.2052 C   0  0  2  0  0  0  0  0  0  0  0  0
    6.1461    2.3486    1.4208 N   0  0  0  0  0  0  0  0  0  0  0  0
    6.0597    0.7365    2.1163 S   0  0  0  0  0  0  0  0  0  0  0  0
    6.5828    3.4363    2.2533 C   0  0  0  0  0  0  0  0  0  0  0  0
    6.6863    4.6924    1.8159 C   0  0  0  0  0  0  0  0  0  0  0  0
    5.1196   -7.3494   -5.1636 H   0  0  0  0  0  0  0  0  0  0  0  0
    5.8288   -5.5380   -4.0170 H   0  0  0  0  0  0  0  0  0  0  0  0
    5.1375   -7.9244   -2.2222 H   0  0  0  0  0  0  0  0  0  0  0  0
    6.7334   -7.3329   -2.7808 H   0  0  0  0  0  0  0  0  0  0  0  0
    6.5425   -5.3490   -1.2861 H   0  0  0  0  0  0  0  0  0  0  0  0
    7.5094   -6.7546    0.0925 H   0  0  0  0  0  0  0  0  0  0  0  0
    3.5210   -6.1460    1.2011 H   0  0  0  0  0  0  0  0  0  0  0  0
    4.6949   -4.7339   -0.1053 H   0  0  0  0  0  0  0  0  0  0  0  0
    2.9694   -6.6788   -1.7401 H   0  0  0  0  0  0  0  0  0  0  0  0
    2.6328   -4.9978   -1.2170 H   0  0  0  0  0  0  0  0  0  0  0  0
    4.4529   -4.1679   -2.7788 H   0  0  0  0  0  0  0  0  0  0  0  0
    1.7844   -3.5705   -2.8714 H   0  0  0  0  0  0  0  0  0  0  0  0
    0.9008   -4.6283   -5.6012 H   0  0  0  0  0  0  0  0  0  0  0  0
   -0.3852   -3.5636   -7.1905 H   0  0  0  0  0  0  0  0  0  0  0  0
   -1.8619   -1.7514   -9.6121 H   0  0  0  0  0  0  0  0  0  0  0  0
   -1.3230   -3.4464   -9.3411 H   0  0  0  0  0  0  0  0  0  0  0  0
   -3.0725   -3.0901   -9.4771 H   0  0  0  0  0  0  0  0  0  0  0  0
   -4.9431   -1.9448   -8.3500 H   0  0  0  0  0  0  0  0  0  0  0  0
   -5.0251   -0.4578   -7.3489 H   0  0  0  0  0  0  0  0  0  0  0  0
   -3.9053   -0.5156   -8.7471 H   0  0  0  0  0  0  0  0  0  0  0  0
   -4.1085   -0.8914   -5.2371 H   0  0  0  0  0  0  0  0  0  0  0  0
   -3.0555   -1.2415   -1.5354 H   0  0  0  0  0  0  0  0  0  0  0  0
   -3.0811    0.6933   -3.8952 H   0  0  0  0  0  0  0  0  0  0  0  0
   -4.3571    2.5553   -4.2891 H   0  0  0  0  0  0  0  0  0  0  0  0
   -6.2293    5.3336   -4.9356 H   0  0  0  0  0  0  0  0  0  0  0  0
   -4.5433    5.9838   -5.0552 H   0  0  0  0  0  0  0  0  0  0  0  0
   -4.9252    4.3464   -5.6796 H   0  0  0  0  0  0  0  0  0  0  0  0
   -5.5537    7.1946   -1.4231 H   0  0  0  0  0  0  0  0  0  0  0  0
   -4.5698    7.3349   -2.9210 H   0  0  0  0  0  0  0  0  0  0  0  0
   -6.3154    6.8634   -3.0108 H   0  0  0  0  0  0  0  0  0  0  0  0
   -4.7982    5.3480   -0.1842 H   0  0  0  0  0  0  0  0  0  0  0  0
   -3.6345    4.3630    1.6326 H   0  0  0  0  0  0  0  0  0  0  0  0
   -4.1874    1.5135    2.5836 H   0  0  0  0  0  0  0  0  0  0  0  0
   -4.8457    1.7829    4.9199 H   0  0  0  0  0  0  0  0  0  0  0  0
   -5.7854    4.0085    5.2132 H   0  0  0  0  0  0  0  0  0  0  0  0
   -4.2593    4.6448    5.9098 H   0  0  0  0  0  0  0  0  0  0  0  0
   -6.1693    2.5453    7.0992 H   0  0  0  0  0  0  0  0  0  0  0  0
   -6.7404    4.1439    8.5256 H   0  0  0  0  0  0  0  0  0  0  0  0
   -4.8103    3.0633   10.0480 H   0  0  0  0  0  0  0  0  0  0  0  0
   -4.5125    1.6562    8.3536 H   0  0  0  0  0  0  0  0  0  0  0  0
   -2.1509    2.1269    8.0344 H   0  0  0  0  0  0  0  0  0  0  0  0
   -2.4927    3.7279    7.3059 H   0  0  0  0  0  0  0  0  0  0  0  0
   -3.1712    0.9448    6.1526 H   0  0  0  0  0  0  0  0  0  0  0  0
   -0.1181    1.2845    4.1833 H   0  0  0  0  0  0  0  0  0  0  0  0
   -1.1794    0.0789    6.7819 H   0  0  0  0  0  0  0  0  0  0  0  0
   -1.0071   -1.7251    4.1175 H   0  0  0  0  0  0  0  0  0  0  0  0
    1.0933   -3.2899    5.7396 H   0  0  0  0  0  0  0  0  0  0  0  0
   -0.6779   -3.4955    5.7001 H   0  0  0  0  0  0  0  0  0  0  0  0
   -0.6107   -4.4909    3.4591 H   0  0  0  0  0  0  0  0  0  0  0  0
    0.3566   -5.7290    5.5572 H   0  0  0  0  0  0  0  0  0  0  0  0
    3.4717   -4.3662    3.0110 H   0  0  0  0  0  0  0  0  0  0  0  0
    1.4140   -4.7746    2.1745 H   0  0  0  0  0  0  0  0  0  0  0  0
    0.4142   -2.6830    1.6884 H   0  0  0  0  0  0  0  0  0  0  0  0
    2.1730   -2.4278    1.7388 H   0  0  0  0  0  0  0  0  0  0  0  0
    0.5933   -0.6494    2.8059 H   0  0  0  0  0  0  0  0  0  0  0  0
    4.2913   -0.2706    3.9146 H   0  0  0  0  0  0  0  0  0  0  0  0
    2.4013   -0.0740    1.5205 H   0  0  0  0  0  0  0  0  0  0  0  0
    3.2738    1.8270    0.1811 H   0  0  0  0  0  0  0  0  0  0  0  0
    5.3371   -0.1570   -0.9664 H   0  0  0  0  0  0  0  0  0  0  0  0
    3.5474   -0.2628   -1.0606 H   0  0  0  0  0  0  0  0  0  0  0  0
    3.3871    1.6974   -2.4695 H   0  0  0  0  0  0  0  0  0  0  0  0
    5.4341   -0.2555   -3.2804 H   0  0  0  0  0  0  0  0  0  0  0  0
    7.1069    1.7577   -3.3111 H   0  0  0  0  0  0  0  0  0  0  0  0
    4.8455    3.3978   -2.4016 H   0  0  0  0  0  0  0  0  0  0  0  0
    6.9517    1.6485   -0.9827 H   0  0  0  0  0  0  0  0  0  0  0  0
    6.8705    3.4396   -1.0404 H   0  0  0  0  0  0  0  0  0  0  0  0
    4.7843    3.4722    0.2464 H   0  0  0  0  0  0  0  0  0  0  0  0
    6.8614    3.2282    3.2793 H   0  0  0  0  0  0  0  0  0  0  0  0
    7.0292    5.4663    2.4888 H   0  0  0  0  0  0  0  0  0  0  0  0
    6.4709    4.9605    0.7919 H   0  0  0  0  0  0  0  0  0  0  0  0
  1  2  1  0
  2  3  1  0
  3  4  1  0
  4  5  1  0
  5  6  1  0
  6  7  1  0
  7  8  1  0
  8  9  1  0
  9 10  1  0
 10 11  1  0
 11 12  1  0
 11 13  1  0
 13 14  2  3
 14 15  1  0
 15 16  1  0
 16 17  1  0
 17 18  2  0
 18 19  1  0
 19 20  1  0
 20 21  2  0
 21 22  1  0
 21 23  1  0
 23 24  1  0
 23 25  2  0
 17 26  1  0
 26 27  2  3
 27 28  1  0
 28 29  1  0
 29 30  1  0
 30 31  2  0
 31 32  1  0
 32 33  1  0
 33 34  2  0
 34 35  1  0
 34 36  1  0
 36 37  1  0
 36 38  2  0
 30 39  1  0
 39 40  2  3
 40 41  1  0
 41 42  1  0
 42 43  1  0
 43 44  1  0
 44 45  1  0
 45 46  1  0
 46 47  1  0
 47 48  1  0
 48 49  1  0
 49 50  1  0
 50 51  1  0
 51 52  1  0
 51 53  1  0
 53 54  2  3
 54 55  1  0
 55 56  1  0
 56 57  1  0
 57 58  1  0
 58 59  1  0
 59 60  1  0
 60 61  1  0
 61 62  1  0
 62 63  1  0
 63 64  1  0
 64 65  1  0
 65 66  1  0
 65 67  1  0
 67 68  2  3
 68 69  1  0
 69 70  1  0
 70 71  1  0
 71 72  1  0
 72 73  1  0
 73 74  1  0
 74 75  1  0
 75 76  1  0
 76 77  1  0
 77 78  1  0
 78 79  1  0
 79 80  1  0
 79 81  1  0
 81 82  2  3
 12  1  1  0
 19 15  2  0
 32 28  2  0
 52 41  1  0
 66 55  1  0
 80 69  1  0
 10  2  1  0
 25 18  1  0
 38 31  1  0
 50 42  1  0
 64 56  1  0
 78 70  1  0
  8  4  1  0
 48 44  1  0
 62 58  1  0
 76 72  1  0
  1 83  1  0
  2 84  1  6
  3 85  1  0
  3 86  1  0
  4 87  1  6
  5 88  1  0
  7 89  1  0
  8 90  1  1
  9 91  1  0
  9 92  1  0
 10 93  1  1
 13 94  1  0
 14 95  1  0
 20 96  1  0
 22 97  1  0
 22 98  1  0
 22 99  1  0
 24100  1  0
 24101  1  0
 24102  1  0
 25103  1  0
 26104  1  0
 27105  1  0
 33106  1  0
 35107  1  0
 35108  1  0
 35109  1  0
 37110  1  0
 37111  1  0
 37112  1  0
 38113  1  0
 39114  1  0
 40115  1  0
 42116  1  6
 43117  1  0
 43118  1  0
 44119  1  6
 45120  1  0
 47121  1  0
 48122  1  1
 49123  1  0
 49124  1  0
 50125  1  1
 53126  1  0
 54127  1  0
 56128  1  6
 57129  1  0
 57130  1  0
 58131  1  6
 59132  1  0
 61133  1  0
 62134  1  6
 63135  1  0
 63136  1  0
 64137  1  6
 67138  1  0
 68139  1  0
 70140  1  1
 71141  1  0
 71142  1  0
 72143  1  6
 73144  1  0
 75145  1  0
 76146  1  6
 77147  1  0
 77148  1  0
 78149  1  1
 81150  1  0
 82151  1  0
 82152  1  0
M  END

