
     RDKit          3D

248271  0  0  0  0  0  0  0  0999 V2000
    3.0541   -0.2765   11.6625 C   0  0  0  0  0  0  0  0  0  0  0  0
    2.6625    0.8378   10.9262 C   0  0  0  0  0  0  0  0  0  0  0  0
    1.3267    0.7786   10.5066 C   0  0  0  0  0  0  0  0  0  0  0  0
    0.6602    1.7329    9.7119 C   0  0  0  0  0  0  0  0  0  0  0  0
    1.3265    2.9482    9.2063 C   0  0  0  0  0  0  0  0  0  0  0  0
    1.6034    3.0787    7.8352 C   0  0  0  0  0  0  0  0  0  0  0  0
    2.1019    4.2821    7.3309 C   0  0  0  0  0  0  0  0  0  0  0  0
    2.3409    5.3621    8.1881 C   0  0  0  0  0  0  0  0  0  0  0  0
    2.7996    6.9603    7.5071 S   0  0  0  0  0  0  0  0  0  0  0  0
    4.5990    6.6600    7.5502 C   0  0  0  0  0  0  0  0  0  0  0  0
    5.3375    7.9182    7.1018 C   0  0  0  0  0  0  0  0  0  0  0  0
    2.1119    5.2180    9.5658 C   0  0  0  0  0  0  0  0  0  0  0  0
    2.3369    6.2526   10.4071 F   0  0  0  0  0  0  0  0  0  0  0  0
    1.6096    4.0147   10.0730 C   0  0  0  0  0  0  0  0  0  0  0  0
   -0.6781    1.4657    9.3987 C   0  0  0  0  0  0  0  0  0  0  0  0
   -1.3476    0.3139    9.8159 C   0  0  0  0  0  0  0  0  0  0  0  0
   -0.6704   -0.6641   10.5728 C   0  0  0  0  0  0  0  0  0  0  0  0
   -1.2955   -1.9579   10.9252 C   0  0  0  0  0  0  0  0  0  0  0  0
   -1.6522   -2.8577    9.9085 C   0  0  0  0  0  0  0  0  0  0  0  0
   -2.1841   -4.1080   10.2330 C   0  0  0  0  0  0  0  0  0  0  0  0
   -2.3406   -4.4797   11.5723 C   0  0  0  0  0  0  0  0  0  0  0  0
   -3.0389   -6.0900   11.9791 S   0  0  0  0  0  0  0  0  0  0  0  0
   -1.4353   -6.9513   12.1855 C   0  0  0  0  0  0  0  0  0  0  0  0
   -0.8110   -7.2866   10.8363 C   0  0  0  0  0  0  0  0  0  0  0  0
   -2.0030   -3.5786   12.5910 C   0  0  0  0  0  0  0  0  0  0  0  0
   -1.4760   -2.3241   12.2648 C   0  0  0  0  0  0  0  0  0  0  0  0
   -2.1724   -3.9151   13.8936 F   0  0  0  0  0  0  0  0  0  0  0  0
    0.6686   -0.3851   10.9185 C   0  0  0  0  0  0  0  0  0  0  0  0
    1.7448   -1.3407   11.7856 S   0  0  0  0  0  0  0  0  0  0  0  0
   -2.6915    0.2706    9.3848 C   0  0  0  0  0  0  0  0  0  0  0  0
   -3.0682    1.3809    8.6135 C   0  0  0  0  0  0  0  0  0  0  0  0
   -1.7262    2.3999    8.4860 S   0  0  0  0  0  0  0  0  0  0  0  0
   -4.3587    1.5163    7.8877 C   0  0  0  0  0  0  0  0  0  0  0  0
   -5.5735    0.3473    7.9305 S   0  0  0  0  0  0  0  0  0  0  0  0
   -6.5018    0.8984    6.6376 C   0  0  0  0  0  0  0  0  0  0  0  0
   -5.8169    2.0032    6.0910 C   0  0  0  0  0  0  0  0  0  0  0  0
   -4.6806    2.3926    6.8386 C   0  0  0  0  0  0  0  0  0  0  0  0
   -3.9713    3.5462    6.4743 C   0  0  0  0  0  0  0  0  0  0  0  0
   -4.2826    4.2320    5.2897 C   0  0  0  0  0  0  0  0  0  0  0  0
   -3.4937    5.4598    4.9174 C   0  0  0  0  0  0  0  0  0  0  0  0
   -5.3190    3.7528    4.4564 C   0  0  0  0  0  0  0  0  0  0  0  0
   -5.6243    4.4098    3.1347 C   0  0  0  0  0  0  0  0  0  0  0  0
   -6.0935    2.6535    4.8707 C   0  0  0  0  0  0  0  0  0  0  0  0
   -7.6469    0.1234    6.0981 C   0  0  0  0  0  0  0  0  0  0  0  0
   -8.4642    0.5979    5.1515 C   0  0  0  0  0  0  0  0  0  0  0  0
   -8.4573   -0.0300    3.8112 C   0  0  0  0  0  0  0  0  0  0  0  0
   -7.5210   -0.9940    3.4269 C   0  0  0  0  0  0  0  0  0  0  0  0
   -7.1708   -0.9321    2.0691 C   0  0  0  0  0  0  0  0  0  0  0  0
   -6.0595   -1.5727    1.4924 C   0  0  0  0  0  0  0  0  0  0  0  0
   -5.2580   -2.5484    2.2700 C   0  0  0  0  0  0  0  0  0  0  0  0
   -5.8457   -3.7503    2.6952 C   0  0  0  0  0  0  0  0  0  0  0  0
   -5.1409   -4.6314    3.5090 C   0  0  0  0  0  0  0  0  0  0  0  0
   -3.8337   -4.3273    3.9138 C   0  0  0  0  0  0  0  0  0  0  0  0
   -2.9751   -5.4195    5.0517 S   0  0  0  0  0  0  0  0  0  0  0  0
   -2.4806   -6.6496    3.7949 C   0  0  0  0  0  0  0  0  0  0  0  0
   -1.2403   -6.1956    3.0388 C   0  0  0  0  0  0  0  0  0  0  0  0
   -3.2371   -3.1351    3.4788 C   0  0  0  0  0  0  0  0  0  0  0  0
   -1.9827   -2.8142    3.8854 F   0  0  0  0  0  0  0  0  0  0  0  0
   -3.9444   -2.2458    2.6709 C   0  0  0  0  0  0  0  0  0  0  0  0
   -5.6738   -1.1320    0.2160 C   0  0  0  0  0  0  0  0  0  0  0  0
   -6.3753   -0.1520   -0.5055 C   0  0  0  0  0  0  0  0  0  0  0  0
   -7.5498    0.4187    0.0477 C   0  0  0  0  0  0  0  0  0  0  0  0
   -8.3559    1.4353   -0.6557 C   0  0  0  0  0  0  0  0  0  0  0  0
   -7.8042    2.6751   -1.0027 C   0  0  0  0  0  0  0  0  0  0  0  0
   -8.5936    3.6466   -1.6203 C   0  0  0  0  0  0  0  0  0  0  0  0
   -9.9532    3.4038   -1.8615 C   0  0  0  0  0  0  0  0  0  0  0  0
  -10.9851    4.6913   -2.5708 S   0  0  0  0  0  0  0  0  0  0  0  0
  -10.8980    4.0655   -4.2859 C   0  0  0  0  0  0  0  0  0  0  0  0
   -9.6013    4.4897   -4.9661 C   0  0  0  0  0  0  0  0  0  0  0  0
  -10.5128    2.1688   -1.4990 C   0  0  0  0  0  0  0  0  0  0  0  0
   -9.7167    1.1896   -0.9003 C   0  0  0  0  0  0  0  0  0  0  0  0
  -11.8312    1.9184   -1.7115 F   0  0  0  0  0  0  0  0  0  0  0  0
   -7.8933    0.0245    1.3539 C   0  0  0  0  0  0  0  0  0  0  0  0
   -8.9143    0.8267    2.4284 S   0  0  0  0  0  0  0  0  0  0  0  0
   -5.7052    0.2587   -1.6761 C   0  0  0  0  0  0  0  0  0  0  0  0
   -4.4703   -0.3732   -1.8347 C   0  0  0  0  0  0  0  0  0  0  0  0
   -4.2427   -1.4751   -0.5790 S   0  0  0  0  0  0  0  0  0  0  0  0
   -3.3314    0.1474   -2.6081 C   0  0  0  0  0  0  0  0  0  0  0  0
   -3.2499    0.3920   -3.9861 C   0  0  0  0  0  0  0  0  0  0  0  0
   -1.9264    0.6741   -4.4053 C   0  0  0  0  0  0  0  0  0  0  0  0
   -1.4338    0.8563   -5.7264 C   0  0  0  0  0  0  0  0  0  0  0  0
   -2.3022    1.0608   -6.9192 C   0  0  0  0  0  0  0  0  0  0  0  0
   -2.0245    2.1266   -7.7924 C   0  0  0  0  0  0  0  0  0  0  0  0
   -2.7358    2.2817   -8.9791 C   0  0  0  0  0  0  0  0  0  0  0  0
   -3.7758    1.4021   -9.2851 C   0  0  0  0  0  0  0  0  0  0  0  0
   -4.7301    1.6432  -10.7935 S   0  0  0  0  0  0  0  0  0  0  0  0
   -5.7688    2.9997  -10.1366 C   0  0  0  0  0  0  0  0  0  0  0  0
   -6.6695    2.5300   -8.9998 C   0  0  0  0  0  0  0  0  0  0  0  0
   -4.0860    0.3574   -8.4089 C   0  0  0  0  0  0  0  0  0  0  0  0
   -5.0925   -0.5060   -8.6988 F   0  0  0  0  0  0  0  0  0  0  0  0
   -3.3315    0.1658   -7.2435 C   0  0  0  0  0  0  0  0  0  0  0  0
   -0.0278    0.9316   -5.8713 C   0  0  0  0  0  0  0  0  0  0  0  0
    0.8444    0.9950   -4.7826 C   0  0  0  0  0  0  0  0  0  0  0  0
    0.3467    0.9567   -3.4699 C   0  0  0  0  0  0  0  0  0  0  0  0
    1.1866    1.2640   -2.2944 C   0  0  0  0  0  0  0  0  0  0  0  0
    2.3559    0.5390   -2.0199 C   0  0  0  0  0  0  0  0  0  0  0  0
    3.2000    0.9400   -0.9847 C   0  0  0  0  0  0  0  0  0  0  0  0
    2.8643    2.0326   -0.1749 C   0  0  0  0  0  0  0  0  0  0  0  0
    3.9562    2.5316    1.1613 S   0  0  0  0  0  0  0  0  0  0  0  0
    4.8857    3.7601    0.1704 C   0  0  0  0  0  0  0  0  0  0  0  0
    5.9465    3.0808   -0.6875 C   0  0  0  0  0  0  0  0  0  0  0  0
    1.6664    2.7234   -0.4063 C   0  0  0  0  0  0  0  0  0  0  0  0
    0.8417    2.3495   -1.4673 C   0  0  0  0  0  0  0  0  0  0  0  0
    1.3144    3.7714    0.3780 F   0  0  0  0  0  0  0  0  0  0  0  0
   -1.0261    0.7201   -3.3277 C   0  0  0  0  0  0  0  0  0  0  0  0
   -1.8221    0.3582   -1.9024 S   0  0  0  0  0  0  0  0  0  0  0  0
    2.1964    1.0434   -5.1534 C   0  0  0  0  0  0  0  0  0  0  0  0
    2.3945    0.9585   -6.5234 C   0  0  0  0  0  0  0  0  0  0  0  0
    0.8942    0.8734   -7.2923 S   0  0  0  0  0  0  0  0  0  0  0  0
    3.7063    0.7043   -7.1440 C   0  0  0  0  0  0  0  0  0  0  0  0
    4.9047   -0.2338   -6.4248 S   0  0  0  0  0  0  0  0  0  0  0  0
    6.0660   -0.0710   -7.6260 C   0  0  0  0  0  0  0  0  0  0  0  0
    5.5264    0.7669   -8.6096 C   0  0  0  0  0  0  0  0  0  0  0  0
    4.2078    1.1879   -8.3483 C   0  0  0  0  0  0  0  0  0  0  0  0
    3.5558    2.0710   -9.2176 C   0  0  0  0  0  0  0  0  0  0  0  0
    4.2248    2.5345  -10.3693 C   0  0  0  0  0  0  0  0  0  0  0  0
    3.5117    3.4894  -11.2914 C   0  0  0  0  0  0  0  0  0  0  0  0
    5.5408    2.0802  -10.6555 C   0  0  0  0  0  0  0  0  0  0  0  0
    6.2777    2.5499  -11.8837 C   0  0  0  0  0  0  0  0  0  0  0  0
    6.1898    1.2059   -9.7626 C   0  0  0  0  0  0  0  0  0  0  0  0
    7.4704   -0.5286   -7.5553 C   0  0  0  0  0  0  0  0  0  0  0  0
    7.8996   -1.6876   -7.0342 C   0  0  0  0  0  0  0  0  0  0  0  0
    7.0501   -2.7620   -6.4949 C   0  0  0  0  0  0  0  0  0  0  0  0
    6.5103   -2.8011   -5.2050 C   0  0  0  0  0  0  0  0  0  0  0  0
    6.0687   -4.0886   -4.8288 C   0  0  0  0  0  0  0  0  0  0  0  0
    5.5270   -4.4813   -3.5741 C   0  0  0  0  0  0  0  0  0  0  0  0
    5.3787   -3.5455   -2.4265 C   0  0  0  0  0  0  0  0  0  0  0  0
    6.4631   -2.7654   -1.9967 C   0  0  0  0  0  0  0  0  0  0  0  0
    6.3471   -1.9578   -0.8602 C   0  0  0  0  0  0  0  0  0  0  0  0
    5.1826   -1.9867   -0.0891 C   0  0  0  0  0  0  0  0  0  0  0  0
    5.0508   -0.9860    1.4025 S   0  0  0  0  0  0  0  0  0  0  0  0
    6.2581   -1.9278    2.4017 C   0  0  0  0  0  0  0  0  0  0  0  0
    7.4112   -1.0084    2.7857 C   0  0  0  0  0  0  0  0  0  0  0  0
    4.0940   -2.7680   -0.5071 C   0  0  0  0  0  0  0  0  0  0  0  0
    2.9494   -2.7888    0.2171 F   0  0  0  0  0  0  0  0  0  0  0  0
    4.1854   -3.5215   -1.6821 C   0  0  0  0  0  0  0  0  0  0  0  0
    5.2023   -5.8488   -3.4315 C   0  0  0  0  0  0  0  0  0  0  0  0
    5.4043   -6.7892   -4.4462 C   0  0  0  0  0  0  0  0  0  0  0  0
    5.9512   -6.3989   -5.6819 C   0  0  0  0  0  0  0  0  0  0  0  0
    6.2799   -7.3943   -6.7190 C   0  0  0  0  0  0  0  0  0  0  0  0
    5.2804   -7.8789   -7.5751 C   0  0  0  0  0  0  0  0  0  0  0  0
    5.5779   -8.8935   -8.4914 C   0  0  0  0  0  0  0  0  0  0  0  0
    6.8699   -9.4353   -8.5496 C   0  0  0  0  0  0  0  0  0  0  0  0
    7.2166  -10.8081   -9.6594 S   0  0  0  0  0  0  0  0  0  0  0  0
    7.8820   -9.7747  -11.0145 C   0  0  0  0  0  0  0  0  0  0  0  0
    6.7571   -9.1877  -11.8554 C   0  0  0  0  0  0  0  0  0  0  0  0
    7.8677   -8.9476   -7.6915 C   0  0  0  0  0  0  0  0  0  0  0  0
    7.5732   -7.9299   -6.7830 C   0  0  0  0  0  0  0  0  0  0  0  0
    9.1163   -9.4764   -7.7184 F   0  0  0  0  0  0  0  0  0  0  0  0
    6.2716   -5.0446   -5.8390 C   0  0  0  0  0  0  0  0  0  0  0  0
    7.0238   -4.3138   -7.1523 S   0  0  0  0  0  0  0  0  0  0  0  0
    5.0761   -8.1000   -4.0682 C   0  0  0  0  0  0  0  0  0  0  0  0
    4.6279   -8.1971   -2.7548 C   0  0  0  0  0  0  0  0  0  0  0  0
    4.6456   -6.6652   -2.0633 S   0  0  0  0  0  0  0  0  0  0  0  0
    4.0428   -0.4446   12.0731 H   0  0  0  0  0  0  0  0  0  0  0  0
    3.3384    1.6508   10.6976 H   0  0  0  0  0  0  0  0  0  0  0  0
    1.3968    2.2604    7.1608 H   0  0  0  0  0  0  0  0  0  0  0  0
    2.2789    4.3807    6.2679 H   0  0  0  0  0  0  0  0  0  0  0  0
    4.8481    5.8183    6.8641 H   0  0  0  0  0  0  0  0  0  0  0  0
    4.9148    6.3968    8.5823 H   0  0  0  0  0  0  0  0  0  0  0  0
    5.0404    8.7806    7.7342 H   0  0  0  0  0  0  0  0  0  0  0  0
    6.4350    7.7687    7.1926 H   0  0  0  0  0  0  0  0  0  0  0  0
    5.0929    8.1469    6.0415 H   0  0  0  0  0  0  0  0  0  0  0  0
    1.4002    3.9225   11.1304 H   0  0  0  0  0  0  0  0  0  0  0  0
   -1.5039   -2.5952    8.8685 H   0  0  0  0  0  0  0  0  0  0  0  0
   -2.4623   -4.7888    9.4379 H   0  0  0  0  0  0  0  0  0  0  0  0
   -0.7323   -6.3393   12.7925 H   0  0  0  0  0  0  0  0  0  0  0  0
   -1.6223   -7.8994   12.7350 H   0  0  0  0  0  0  0  0  0  0  0  0
   -0.4594   -6.3643   10.3331 H   0  0  0  0  0  0  0  0  0  0  0  0
    0.0584   -7.9631   10.9854 H   0  0  0  0  0  0  0  0  0  0  0  0
   -1.5520   -7.8075   10.1876 H   0  0  0  0  0  0  0  0  0  0  0  0
   -1.2046   -1.6369   13.0603 H   0  0  0  0  0  0  0  0  0  0  0  0
   -3.3591   -0.5516    9.5976 H   0  0  0  0  0  0  0  0  0  0  0  0
   -3.2166    3.9613    7.1122 H   0  0  0  0  0  0  0  0  0  0  0  0
   -2.7662    5.7390    5.7064 H   0  0  0  0  0  0  0  0  0  0  0  0
   -2.9355    5.2752    3.9781 H   0  0  0  0  0  0  0  0  0  0  0  0
   -4.1830    6.3207    4.7729 H   0  0  0  0  0  0  0  0  0  0  0  0
   -6.4261    3.8781    2.5736 H   0  0  0  0  0  0  0  0  0  0  0  0
   -4.7173    4.4144    2.4932 H   0  0  0  0  0  0  0  0  0  0  0  0
   -5.9651    5.4480    3.3044 H   0  0  0  0  0  0  0  0  0  0  0  0
   -6.8487    2.2974    4.1957 H   0  0  0  0  0  0  0  0  0  0  0  0
   -7.6580   -0.9413    6.2909 H   0  0  0  0  0  0  0  0  0  0  0  0
   -8.6545    1.6533    5.1455 H   0  0  0  0  0  0  0  0  0  0  0  0
   -6.9532   -1.5755    4.1438 H   0  0  0  0  0  0  0  0  0  0  0  0
   -6.8645   -3.9853    2.4069 H   0  0  0  0  0  0  0  0  0  0  0  0
   -5.6114   -5.5470    3.8391 H   0  0  0  0  0  0  0  0  0  0  0  0
   -2.2497   -7.5987    4.3211 H   0  0  0  0  0  0  0  0  0  0  0  0
   -3.3161   -6.8515    3.0891 H   0  0  0  0  0  0  0  0  0  0  0  0
   -0.9190   -7.0044    2.3471 H   0  0  0  0  0  0  0  0  0  0  0  0
   -1.4578   -5.2822    2.4463 H   0  0  0  0  0  0  0  0  0  0  0  0
   -0.4186   -5.9922    3.7569 H   0  0  0  0  0  0  0  0  0  0  0  0
   -3.4859   -1.3079    2.3814 H   0  0  0  0  0  0  0  0  0  0  0  0
   -6.7666    2.8929   -0.7796 H   0  0  0  0  0  0  0  0  0  0  0  0
   -8.1561    4.6032   -1.8819 H   0  0  0  0  0  0  0  0  0  0  0  0
  -11.7570    4.4982   -4.8486 H   0  0  0  0  0  0  0  0  0  0  0  0
  -10.9932    2.9601   -4.3069 H   0  0  0  0  0  0  0  0  0  0  0  0
   -9.6388    4.2048   -6.0392 H   0  0  0  0  0  0  0  0  0  0  0  0
   -9.4708    5.5924   -4.8974 H   0  0  0  0  0  0  0  0  0  0  0  0
   -8.7355    3.9791   -4.4975 H   0  0  0  0  0  0  0  0  0  0  0  0
  -10.1613    0.2396   -0.6183 H   0  0  0  0  0  0  0  0  0  0  0  0
   -6.0346    1.0693   -2.3141 H   0  0  0  0  0  0  0  0  0  0  0  0
   -4.0984    0.3049   -4.6410 H   0  0  0  0  0  0  0  0  0  0  0  0
   -1.2333    2.8317   -7.5632 H   0  0  0  0  0  0  0  0  0  0  0  0
   -2.4801    3.0857   -9.6523 H   0  0  0  0  0  0  0  0  0  0  0  0
   -6.4020    3.3780  -10.9678 H   0  0  0  0  0  0  0  0  0  0  0  0
   -5.1275    3.8390   -9.7918 H   0  0  0  0  0  0  0  0  0  0  0  0
   -7.1854    1.5855   -9.2799 H   0  0  0  0  0  0  0  0  0  0  0  0
   -6.0686    2.3677   -8.0792 H   0  0  0  0  0  0  0  0  0  0  0  0
   -7.4326    3.3083   -8.7839 H   0  0  0  0  0  0  0  0  0  0  0  0
   -3.5323   -0.6960   -6.6227 H   0  0  0  0  0  0  0  0  0  0  0  0
    2.6313   -0.3107   -2.6252 H   0  0  0  0  0  0  0  0  0  0  0  0
    4.1262    0.4152   -0.8300 H   0  0  0  0  0  0  0  0  0  0  0  0
    5.3917    4.4525    0.8740 H   0  0  0  0  0  0  0  0  0  0  0  0
    4.2044    4.3637   -0.4705 H   0  0  0  0  0  0  0  0  0  0  0  0
    6.5576    2.3902   -0.0672 H   0  0  0  0  0  0  0  0  0  0  0  0
    6.6179    3.8481   -1.1272 H   0  0  0  0  0  0  0  0  0  0  0  0
    5.4762    2.5140   -1.5151 H   0  0  0  0  0  0  0  0  0  0  0  0
   -0.0593    2.9176   -1.6629 H   0  0  0  0  0  0  0  0  0  0  0  0
    3.0258    1.0990   -4.4631 H   0  0  0  0  0  0  0  0  0  0  0  0
    2.5589    2.4197   -8.9952 H   0  0  0  0  0  0  0  0  0  0  0  0
    4.1683    4.3516  -11.5363 H   0  0  0  0  0  0  0  0  0  0  0  0
    2.5873    3.8900  -10.8262 H   0  0  0  0  0  0  0  0  0  0  0  0
    3.2314    2.9607  -12.2291 H   0  0  0  0  0  0  0  0  0  0  0  0
    7.2316    1.9992  -12.0247 H   0  0  0  0  0  0  0  0  0  0  0  0
    6.5096    3.6322  -11.7806 H   0  0  0  0  0  0  0  0  0  0  0  0
    5.6539    2.3885  -12.7874 H   0  0  0  0  0  0  0  0  0  0  0  0
    7.2024    0.8735   -9.9707 H   0  0  0  0  0  0  0  0  0  0  0  0
    8.2187    0.0960   -8.0216 H   0  0  0  0  0  0  0  0  0  0  0  0
    8.9573   -1.9191   -7.1292 H   0  0  0  0  0  0  0  0  0  0  0  0
    6.4876   -1.9373   -4.5565 H   0  0  0  0  0  0  0  0  0  0  0  0
    7.4024   -2.7967   -2.5247 H   0  0  0  0  0  0  0  0  0  0  0  0
    7.1862   -1.3521   -0.5523 H   0  0  0  0  0  0  0  0  0  0  0  0
    5.7520   -2.2865    3.3205 H   0  0  0  0  0  0  0  0  0  0  0  0
    6.6571   -2.8100    1.8576 H   0  0  0  0  0  0  0  0  0  0  0  0
    7.9255   -0.6344    1.8759 H   0  0  0  0  0  0  0  0  0  0  0  0
    7.0312   -0.1401    3.3694 H   0  0  0  0  0  0  0  0  0  0  0  0
    8.1492   -1.5593    3.4072 H   0  0  0  0  0  0  0  0  0  0  0  0
    3.3299   -4.1091   -1.9956 H   0  0  0  0  0  0  0  0  0  0  0  0
    4.2736   -7.4845   -7.5212 H   0  0  0  0  0  0  0  0  0  0  0  0
    4.7968   -9.2764   -9.1353 H   0  0  0  0  0  0  0  0  0  0  0  0
    8.5274   -8.9632  -10.6197 H   0  0  0  0  0  0  0  0  0  0  0  0
    8.5063  -10.4258  -11.6671 H   0  0  0  0  0  0  0  0  0  0  0  0
    6.1591   -8.4697  -11.2599 H   0  0  0  0  0  0  0  0  0  0  0  0
    7.1831   -8.6506  -12.7279 H   0  0  0  0  0  0  0  0  0  0  0  0
    6.0933   -9.9966  -12.2277 H   0  0  0  0  0  0  0  0  0  0  0  0
    8.3447   -7.5729   -6.1110 H   0  0  0  0  0  0  0  0  0  0  0  0
    5.1696   -8.9599   -4.7178 H   0  0  0  0  0  0  0  0  0  0  0  0
    4.3313   -9.1120   -2.2551 H   0  0  0  0  0  0  0  0  0  0  0  0
  1  2  2  0
  2  3  1  0
  3  4  2  0
  4  5  1  0
  5  6  2  0
  6  7  1  0
  7  8  2  0
  8  9  1  0
  9 10  1  0
 10 11  1  0
  8 12  1  0
 12 13  1  0
 12 14  2  0
  4 15  1  0
 15 16  2  0
 16 17  1  0
 17 18  1  0
 18 19  2  0
 19 20  1  0
 20 21  2  0
 21 22  1  0
 22 23  1  0
 23 24  1  0
 21 25  1  0
 25 26  2  0
 25 27  1  0
 17 28  2  0
 28 29  1  0
 16 30  1  0
 30 31  2  0
 31 32  1  0
 31 33  1  0
 33 34  1  0
 34 35  1  0
 35 36  2  0
 36 37  1  0
 37 38  1  0
 38 39  2  0
 39 40  1  0
 39 41  1  0
 41 42  1  0
 41 43  2  0
 35 44  1  0
 44 45  2  3
 45 46  1  0
 46 47  2  0
 47 48  1  0
 48 49  2  0
 49 50  1  0
 50 51  2  0
 51 52  1  0
 52 53  2  0
 53 54  1  0
 54 55  1  0
 55 56  1  0
 53 57  1  0
 57 58  1  0
 57 59  2  0
 49 60  1  0
 60 61  2  0
 61 62  1  0
 62 63  1  0
 63 64  2  0
 64 65  1  0
 65 66  2  0
 66 67  1  0
 67 68  1  0
 68 69  1  0
 66 70  1  0
 70 71  2  0
 70 72  1  0
 62 73  2  0
 73 74  1  0
 61 75  1  0
 75 76  2  0
 76 77  1  0
 76 78  1  0
 78 79  2  0
 79 80  1  0
 80 81  2  0
 81 82  1  0
 82 83  2  0
 83 84  1  0
 84 85  2  0
 85 86  1  0
 86 87  1  0
 87 88  1  0
 85 89  1  0
 89 90  1  0
 89 91  2  0
 81 92  1  0
 92 93  2  0
 93 94  1  0
 94 95  1  0
 95 96  2  0
 96 97  1  0
 97 98  2  0
 98 99  1  0
 99100  1  0
100101  1  0
 98102  1  0
102103  2  0
102104  1  0
 94105  2  0
105106  1  0
 93107  1  0
107108  2  0
108109  1  0
108110  1  0
110111  1  0
111112  1  0
112113  2  0
113114  1  0
114115  1  0
115116  2  0
116117  1  0
116118  1  0
118119  1  0
118120  2  0
112121  1  0
121122  2  3
122123  1  0
123124  2  0
124125  1  0
125126  2  0
126127  1  0
127128  2  0
128129  1  0
129130  2  0
130131  1  0
131132  1  0
132133  1  0
130134  1  0
134135  1  0
134136  2  0
126137  1  0
137138  2  0
138139  1  0
139140  1  0
140141  2  0
141142  1  0
142143  2  0
143144  1  0
144145  1  0
145146  1  0
143147  1  0
147148  2  0
147149  1  0
139150  2  0
150151  1  0
138152  1  0
152153  2  0
153154  1  0
 29  1  1  0
 37 33  2  0
 74 46  1  0
106 78  1  0
114110  2  0
151123  1  0
 28  3  1  0
 43 36  1  0
 73 48  1  0
105 80  1  0
120113  1  0
150125  1  0
 14  5  1  0
 32 15  1  0
 59 50  1  0
 77 60  1  0
 91 82  1  0
109 92  1  0
136127  1  0
154137  1  0
 26 18  1  0
 71 63  1  0
103 95  1  0
148140  1  0
  1155  1  0
  2156  1  0
  6157  1  0
  7158  1  0
 10159  1  0
 10160  1  0
 11161  1  0
 11162  1  0
 11163  1  0
 14164  1  0
 19165  1  0
 20166  1  0
 23167  1  0
 23168  1  0
 24169  1  0
 24170  1  0
 24171  1  0
 26172  1  0
 30173  1  0
 38174  1  0
 40175  1  0
 40176  1  0
 40177  1  0
 42178  1  0
 42179  1  0
 42180  1  0
 43181  1  0
 44182  1  0
 45183  1  0
 47184  1  0
 51185  1  0
 52186  1  0
 55187  1  0
 55188  1  0
 56189  1  0
 56190  1  0
 56191  1  0
 59192  1  0
 64193  1  0
 65194  1  0
 68195  1  0
 68196  1  0
 69197  1  0
 69198  1  0
 69199  1  0
 71200  1  0
 75201  1  0
 79202  1  0
 83203  1  0
 84204  1  0
 87205  1  0
 87206  1  0
 88207  1  0
 88208  1  0
 88209  1  0
 91210  1  0
 96211  1  0
 97212  1  0
100213  1  0
100214  1  0
101215  1  0
101216  1  0
101217  1  0
103218  1  0
107219  1  0
115220  1  0
117221  1  0
117222  1  0
117223  1  0
119224  1  0
119225  1  0
119226  1  0
120227  1  0
121228  1  0
122229  1  0
124230  1  0
128231  1  0
129232  1  0
132233  1  0
132234  1  0
133235  1  0
133236  1  0
133237  1  0
136238  1  0
141239  1  0
142240  1  0
145241  1  0
145242  1  0
146243  1  0
146244  1  0
146245  1  0
148246  1  0
152247  1  0
153248  1  0
M  END

