
     RDKit          3D

248271  0  0  0  0  0  0  0  0999 V2000
    2.3315    0.8717   11.3185 C   0  0  0  0  0  0  0  0  0  0  0  0
    2.6876    1.1794   10.0075 C   0  0  0  0  0  0  0  0  0  0  0  0
    1.6484    0.9543    9.0910 C   0  0  0  0  0  0  0  0  0  0  0  0
    1.7067    1.1682    7.7028 C   0  0  0  0  0  0  0  0  0  0  0  0
    2.8974    1.7066    7.0174 C   0  0  0  0  0  0  0  0  0  0  0  0
    3.9349    0.8438    6.6323 C   0  0  0  0  0  0  0  0  0  0  0  0
    4.9530    1.3055    5.7938 C   0  0  0  0  0  0  0  0  0  0  0  0
    4.9369    2.6281    5.3289 C   0  0  0  0  0  0  0  0  0  0  0  0
    6.2158    3.1955    4.1988 S   0  0  0  0  0  0  0  0  0  0  0  0
    5.2248    2.9703    2.6742 C   0  0  0  0  0  0  0  0  0  0  0  0
    5.1353    1.4981    2.2829 C   0  0  0  0  0  0  0  0  0  0  0  0
    3.9250    3.5033    5.7484 C   0  0  0  0  0  0  0  0  0  0  0  0
    3.9053    4.7904    5.3190 F   0  0  0  0  0  0  0  0  0  0  0  0
    2.9042    3.0410    6.5822 C   0  0  0  0  0  0  0  0  0  0  0  0
    0.5583    0.8589    6.9639 C   0  0  0  0  0  0  0  0  0  0  0  0
   -0.6103    0.3480    7.5422 C   0  0  0  0  0  0  0  0  0  0  0  0
   -0.6838    0.1612    8.9432 C   0  0  0  0  0  0  0  0  0  0  0  0
   -1.9167   -0.3207    9.6022 C   0  0  0  0  0  0  0  0  0  0  0  0
   -2.4492   -1.5753    9.2753 C   0  0  0  0  0  0  0  0  0  0  0  0
   -3.6229   -2.0243    9.8901 C   0  0  0  0  0  0  0  0  0  0  0  0
   -4.2816   -1.2178   10.8261 C   0  0  0  0  0  0  0  0  0  0  0  0
   -5.7945   -1.7984   11.6025 S   0  0  0  0  0  0  0  0  0  0  0  0
   -6.9193   -1.0343   10.3794 C   0  0  0  0  0  0  0  0  0  0  0  0
   -7.1187   -1.9478    9.1776 C   0  0  0  0  0  0  0  0  0  0  0  0
   -3.7423    0.0313   11.1711 C   0  0  0  0  0  0  0  0  0  0  0  0
   -2.5661    0.4790   10.5579 C   0  0  0  0  0  0  0  0  0  0  0  0
   -4.3582    0.8161   12.0893 F   0  0  0  0  0  0  0  0  0  0  0  0
    0.4768    0.4727    9.6848 C   0  0  0  0  0  0  0  0  0  0  0  0
    0.7363    0.3253   11.3450 S   0  0  0  0  0  0  0  0  0  0  0  0
   -1.6342    0.1284    6.6004 C   0  0  0  0  0  0  0  0  0  0  0  0
   -1.2521    0.4740    5.3050 C   0  0  0  0  0  0  0  0  0  0  0  0
    0.3298    1.0482    5.3149 S   0  0  0  0  0  0  0  0  0  0  0  0
   -2.0891    0.4647    4.1020 C   0  0  0  0  0  0  0  0  0  0  0  0
   -1.9763    1.3970    3.0836 C   0  0  0  0  0  0  0  0  0  0  0  0
   -2.7858    1.1086    1.9850 C   0  0  0  0  0  0  0  0  0  0  0  0
   -2.8771    1.8883    0.8261 C   0  0  0  0  0  0  0  0  0  0  0  0
   -2.0269    3.0805    0.6203 C   0  0  0  0  0  0  0  0  0  0  0  0
   -0.6473    2.9234    0.4208 C   0  0  0  0  0  0  0  0  0  0  0  0
    0.1663    4.0432    0.2399 C   0  0  0  0  0  0  0  0  0  0  0  0
   -0.3860    5.3308    0.2780 C   0  0  0  0  0  0  0  0  0  0  0  0
    0.6789    6.7603    0.0560 S   0  0  0  0  0  0  0  0  0  0  0  0
    1.0053    7.0170    1.8376 C   0  0  0  0  0  0  0  0  0  0  0  0
    2.0428    6.0243    2.3568 C   0  0  0  0  0  0  0  0  0  0  0  0
   -1.7657    5.4910    0.4620 C   0  0  0  0  0  0  0  0  0  0  0  0
   -2.3152    6.7327    0.4890 F   0  0  0  0  0  0  0  0  0  0  0  0
   -2.5856    4.3688    0.6223 C   0  0  0  0  0  0  0  0  0  0  0  0
   -3.7405    1.4260   -0.1733 C   0  0  0  0  0  0  0  0  0  0  0  0
   -4.4492    0.2233   -0.0849 C   0  0  0  0  0  0  0  0  0  0  0  0
   -4.3539   -0.5661    1.0913 C   0  0  0  0  0  0  0  0  0  0  0  0
   -5.0328   -1.8762    1.2236 C   0  0  0  0  0  0  0  0  0  0  0  0
   -4.2819   -3.0294    1.5036 C   0  0  0  0  0  0  0  0  0  0  0  0
   -4.9186   -4.2570    1.6893 C   0  0  0  0  0  0  0  0  0  0  0  0
   -6.3083   -4.3572    1.5729 C   0  0  0  0  0  0  0  0  0  0  0  0
   -7.1014   -5.9399    1.8872 S   0  0  0  0  0  0  0  0  0  0  0  0
   -7.0010   -6.5253    0.1575 C   0  0  0  0  0  0  0  0  0  0  0  0
   -6.9482   -8.0467    0.1368 C   0  0  0  0  0  0  0  0  0  0  0  0
   -7.0657   -3.2134    1.2796 C   0  0  0  0  0  0  0  0  0  0  0  0
   -6.4290   -1.9788    1.1040 C   0  0  0  0  0  0  0  0  0  0  0  0
   -8.4161   -3.2900    1.1797 F   0  0  0  0  0  0  0  0  0  0  0  0
   -3.5243   -0.0692    2.1226 C   0  0  0  0  0  0  0  0  0  0  0  0
   -3.1933   -0.7322    3.6469 S   0  0  0  0  0  0  0  0  0  0  0  0
   -5.1419   -0.0920   -1.2772 C   0  0  0  0  0  0  0  0  0  0  0  0
   -4.9957    0.8862   -2.2781 C   0  0  0  0  0  0  0  0  0  0  0  0
   -3.9937    2.1063   -1.6696 S   0  0  0  0  0  0  0  0  0  0  0  0
   -5.4169    0.9032   -3.7039 C   0  0  0  0  0  0  0  0  0  0  0  0
   -4.9158    2.1599   -4.7041 S   0  0  0  0  0  0  0  0  0  0  0  0
   -5.3306    1.5199   -6.1842 C   0  0  0  0  0  0  0  0  0  0  0  0
   -5.8991    0.2731   -5.9290 C   0  0  0  0  0  0  0  0  0  0  0  0
   -5.9732   -0.0734   -4.5554 C   0  0  0  0  0  0  0  0  0  0  0  0
   -6.5462   -1.2982   -4.1921 C   0  0  0  0  0  0  0  0  0  0  0  0
   -7.0772   -2.1567   -5.1815 C   0  0  0  0  0  0  0  0  0  0  0  0
   -7.7066   -3.4598   -4.7530 C   0  0  0  0  0  0  0  0  0  0  0  0
   -6.9765   -1.8059   -6.5530 C   0  0  0  0  0  0  0  0  0  0  0  0
   -7.5988   -2.6531   -7.6314 C   0  0  0  0  0  0  0  0  0  0  0  0
   -6.3712   -0.5911   -6.9154 C   0  0  0  0  0  0  0  0  0  0  0  0
   -4.5642    1.9021   -7.3720 C   0  0  0  0  0  0  0  0  0  0  0  0
   -3.3019    1.4774   -7.4439 C   0  0  0  0  0  0  0  0  0  0  0  0
   -2.2469    2.2290   -8.1317 C   0  0  0  0  0  0  0  0  0  0  0  0
   -0.8160    2.6760   -7.3767 S   0  0  0  0  0  0  0  0  0  0  0  0
   -0.0325    3.3102   -8.7261 C   0  0  0  0  0  0  0  0  0  0  0  0
   -0.9515    3.2555   -9.7861 C   0  0  0  0  0  0  0  0  0  0  0  0
   -2.1797    2.6500   -9.4555 C   0  0  0  0  0  0  0  0  0  0  0  0
   -3.1868    2.5109  -10.4146 C   0  0  0  0  0  0  0  0  0  0  0  0
   -2.9845    3.0136  -11.7169 C   0  0  0  0  0  0  0  0  0  0  0  0
   -4.0976    2.9091  -12.7253 C   0  0  0  0  0  0  0  0  0  0  0  0
   -1.7518    3.6408  -12.0477 C   0  0  0  0  0  0  0  0  0  0  0  0
   -1.5000    4.1772  -13.4326 C   0  0  0  0  0  0  0  0  0  0  0  0
   -0.7311    3.7368  -11.0809 C   0  0  0  0  0  0  0  0  0  0  0  0
    1.2924    3.9808   -8.7557 C   0  0  0  0  0  0  0  0  0  0  0  0
    2.3689    3.7363   -7.9840 C   0  0  0  0  0  0  0  0  0  0  0  0
    2.5624    2.6601   -6.9851 C   0  0  0  0  0  0  0  0  0  0  0  0
    3.4590    2.7538   -5.9187 C   0  0  0  0  0  0  0  0  0  0  0  0
    3.4638    1.6152   -5.0964 C   0  0  0  0  0  0  0  0  0  0  0  0
    4.1844    1.4458   -3.8934 C   0  0  0  0  0  0  0  0  0  0  0  0
    5.1032    2.4779   -3.3739 C   0  0  0  0  0  0  0  0  0  0  0  0
    4.7542    3.2125   -2.2318 C   0  0  0  0  0  0  0  0  0  0  0  0
    5.6277    4.1759   -1.7216 C   0  0  0  0  0  0  0  0  0  0  0  0
    6.8706    4.3899   -2.3310 C   0  0  0  0  0  0  0  0  0  0  0  0
    7.9831    5.6453   -1.6768 S   0  0  0  0  0  0  0  0  0  0  0  0
    8.6089    4.6296   -0.2901 C   0  0  0  0  0  0  0  0  0  0  0  0
    9.6086    3.5849   -0.7700 C   0  0  0  0  0  0  0  0  0  0  0  0
    7.2266    3.6454   -3.4660 C   0  0  0  0  0  0  0  0  0  0  0  0
    8.4265    3.8448   -4.0711 F   0  0  0  0  0  0  0  0  0  0  0  0
    6.3417    2.6966   -3.9910 C   0  0  0  0  0  0  0  0  0  0  0  0
    3.9380    0.2706   -3.1633 C   0  0  0  0  0  0  0  0  0  0  0  0
    2.9949   -0.6764   -3.5689 C   0  0  0  0  0  0  0  0  0  0  0  0
    2.2822   -0.5140   -4.7705 C   0  0  0  0  0  0  0  0  0  0  0  0
    1.1182   -1.3550   -5.0847 C   0  0  0  0  0  0  0  0  0  0  0  0
    1.2286   -2.4335   -5.9730 C   0  0  0  0  0  0  0  0  0  0  0  0
    0.1128   -3.2341   -6.2392 C   0  0  0  0  0  0  0  0  0  0  0  0
   -1.1137   -2.9640   -5.6171 C   0  0  0  0  0  0  0  0  0  0  0  0
   -2.5354   -3.9965   -5.9708 S   0  0  0  0  0  0  0  0  0  0  0  0
   -3.1758   -2.8747   -7.2589 C   0  0  0  0  0  0  0  0  0  0  0  0
   -4.2218   -3.6029   -8.0873 C   0  0  0  0  0  0  0  0  0  0  0  0
   -1.2263   -1.8882   -4.7276 C   0  0  0  0  0  0  0  0  0  0  0  0
   -0.1137   -1.0845   -4.4672 C   0  0  0  0  0  0  0  0  0  0  0  0
   -2.4090   -1.6184   -4.1163 F   0  0  0  0  0  0  0  0  0  0  0  0
    2.5774    0.6257   -5.5318 C   0  0  0  0  0  0  0  0  0  0  0  0
    1.8555    1.1238   -6.9642 S   0  0  0  0  0  0  0  0  0  0  0  0
    2.8297   -1.7185   -2.6487 C   0  0  0  0  0  0  0  0  0  0  0  0
    3.6481   -1.5964   -1.5335 C   0  0  0  0  0  0  0  0  0  0  0  0
    4.5809   -0.1961   -1.6769 S   0  0  0  0  0  0  0  0  0  0  0  0
    3.6052   -2.4920   -0.3708 C   0  0  0  0  0  0  0  0  0  0  0  0
    4.5471   -2.5797    0.6548 C   0  0  0  0  0  0  0  0  0  0  0  0
    4.1875   -3.5223    1.6382 C   0  0  0  0  0  0  0  0  0  0  0  0
    4.9249   -3.8666    2.7920 C   0  0  0  0  0  0  0  0  0  0  0  0
    6.2383   -3.2595    3.0931 C   0  0  0  0  0  0  0  0  0  0  0  0
    6.3346   -1.8886    3.3714 C   0  0  0  0  0  0  0  0  0  0  0  0
    7.5776   -1.3130    3.6553 C   0  0  0  0  0  0  0  0  0  0  0  0
    8.7360   -2.0993    3.6597 C   0  0  0  0  0  0  0  0  0  0  0  0
   10.3251   -1.3464    4.0439 S   0  0  0  0  0  0  0  0  0  0  0  0
   10.7831   -1.0071    2.3080 C   0  0  0  0  0  0  0  0  0  0  0  0
   10.1555    0.2902    1.8133 C   0  0  0  0  0  0  0  0  0  0  0  0
    8.6408   -3.4746    3.4095 C   0  0  0  0  0  0  0  0  0  0  0  0
    9.7504   -4.2584    3.4465 F   0  0  0  0  0  0  0  0  0  0  0  0
    7.3977   -4.0509    3.1182 C   0  0  0  0  0  0  0  0  0  0  0  0
    4.3550   -4.8312    3.6444 C   0  0  0  0  0  0  0  0  0  0  0  0
    3.1233   -5.4454    3.3824 C   0  0  0  0  0  0  0  0  0  0  0  0
    2.4001   -5.1243    2.2156 C   0  0  0  0  0  0  0  0  0  0  0  0
    1.1058   -5.7562    1.8720 C   0  0  0  0  0  0  0  0  0  0  0  0
   -0.0138   -5.5951    2.7046 C   0  0  0  0  0  0  0  0  0  0  0  0
   -1.2635   -6.0811    2.3041 C   0  0  0  0  0  0  0  0  0  0  0  0
   -1.4071   -6.7253    1.0684 C   0  0  0  0  0  0  0  0  0  0  0  0
   -3.0263   -7.2837    0.5217 S   0  0  0  0  0  0  0  0  0  0  0  0
   -2.7807   -9.0218    1.0187 C   0  0  0  0  0  0  0  0  0  0  0  0
   -2.9631   -9.1912    2.5197 C   0  0  0  0  0  0  0  0  0  0  0  0
   -0.2934   -6.8886    0.2345 C   0  0  0  0  0  0  0  0  0  0  0  0
    0.9574   -6.4216    0.6425 C   0  0  0  0  0  0  0  0  0  0  0  0
   -0.4208   -7.4870   -0.9765 F   0  0  0  0  0  0  0  0  0  0  0  0
    2.9686   -4.1558    1.3686 C   0  0  0  0  0  0  0  0  0  0  0  0
    2.3410   -3.5576   -0.0650 S   0  0  0  0  0  0  0  0  0  0  0  0
    2.7526   -6.3744    4.3689 C   0  0  0  0  0  0  0  0  0  0  0  0
    3.6758   -6.4701    5.4060 C   0  0  0  0  0  0  0  0  0  0  0  0
    4.9600   -5.4214    5.0983 S   0  0  0  0  0  0  0  0  0  0  0  0
    2.9735    0.9605   12.1800 H   0  0  0  0  0  0  0  0  0  0  0  0
    3.6655    1.5509    9.7341 H   0  0  0  0  0  0  0  0  0  0  0  0
    3.9248   -0.1926    6.9424 H   0  0  0  0  0  0  0  0  0  0  0  0
    5.7389    0.6296    5.4841 H   0  0  0  0  0  0  0  0  0  0  0  0
    5.7268    3.5252    1.8534 H   0  0  0  0  0  0  0  0  0  0  0  0
    4.2049    3.3928    2.8017 H   0  0  0  0  0  0  0  0  0  0  0  0
    4.5097    0.9477    3.0142 H   0  0  0  0  0  0  0  0  0  0  0  0
    6.1516    1.0494    2.2449 H   0  0  0  0  0  0  0  0  0  0  0  0
    4.6660    1.4062    1.2798 H   0  0  0  0  0  0  0  0  0  0  0  0
    2.0945    3.7065    6.8585 H   0  0  0  0  0  0  0  0  0  0  0  0
   -1.9576   -2.2096    8.5467 H   0  0  0  0  0  0  0  0  0  0  0  0
   -4.0222   -2.9979    9.6355 H   0  0  0  0  0  0  0  0  0  0  0  0
   -6.5350   -0.0467   10.0472 H   0  0  0  0  0  0  0  0  0  0  0  0
   -7.9031   -0.8716   10.8668 H   0  0  0  0  0  0  0  0  0  0  0  0
   -6.1590   -2.1205    8.6545 H   0  0  0  0  0  0  0  0  0  0  0  0
   -7.8259   -1.4778    8.4624 H   0  0  0  0  0  0  0  0  0  0  0  0
   -7.5349   -2.9247    9.5029 H   0  0  0  0  0  0  0  0  0  0  0  0
   -2.1653    1.4500   10.8194 H   0  0  0  0  0  0  0  0  0  0  0  0
   -2.6291   -0.2197    6.8500 H   0  0  0  0  0  0  0  0  0  0  0  0
   -1.3235    2.2592    3.1405 H   0  0  0  0  0  0  0  0  0  0  0  0
   -0.2038    1.9358    0.4101 H   0  0  0  0  0  0  0  0  0  0  0  0
    1.2265    3.9111    0.0762 H   0  0  0  0  0  0  0  0  0  0  0  0
    1.4020    8.0479    1.9664 H   0  0  0  0  0  0  0  0  0  0  0  0
    0.0662    6.9319    2.4282 H   0  0  0  0  0  0  0  0  0  0  0  0
    1.6160    5.0009    2.3985 H   0  0  0  0  0  0  0  0  0  0  0  0
    2.9398    6.0232    1.6991 H   0  0  0  0  0  0  0  0  0  0  0  0
    2.3536    6.3127    3.3828 H   0  0  0  0  0  0  0  0  0  0  0  0
   -3.6516    4.4979    0.7699 H   0  0  0  0  0  0  0  0  0  0  0  0
   -3.2020   -2.9755    1.5913 H   0  0  0  0  0  0  0  0  0  0  0  0
   -4.3279   -5.1291    1.9343 H   0  0  0  0  0  0  0  0  0  0  0  0
   -6.0983   -6.1236   -0.3588 H   0  0  0  0  0  0  0  0  0  0  0  0
   -7.9045   -6.1810   -0.3923 H   0  0  0  0  0  0  0  0  0  0  0  0
   -7.0121   -8.4141   -0.9105 H   0  0  0  0  0  0  0  0  0  0  0  0
   -5.9898   -8.3944    0.5801 H   0  0  0  0  0  0  0  0  0  0  0  0
   -7.7925   -8.4810    0.7209 H   0  0  0  0  0  0  0  0  0  0  0  0
   -7.0243   -1.0979    0.8968 H   0  0  0  0  0  0  0  0  0  0  0  0
   -5.6882   -1.0132   -1.3899 H   0  0  0  0  0  0  0  0  0  0  0  0
   -6.6430   -1.5816   -3.1611 H   0  0  0  0  0  0  0  0  0  0  0  0
   -8.6370   -3.6576   -5.3212 H   0  0  0  0  0  0  0  0  0  0  0  0
   -7.9759   -3.4492   -3.6776 H   0  0  0  0  0  0  0  0  0  0  0  0
   -6.9914   -4.2912   -4.9299 H   0  0  0  0  0  0  0  0  0  0  0  0
   -7.4061   -3.7323   -7.4525 H   0  0  0  0  0  0  0  0  0  0  0  0
   -8.6943   -2.4814   -7.6492 H   0  0  0  0  0  0  0  0  0  0  0  0
   -7.1868   -2.4057   -8.6326 H   0  0  0  0  0  0  0  0  0  0  0  0
   -6.3092   -0.3008   -7.9583 H   0  0  0  0  0  0  0  0  0  0  0  0
   -4.8785    2.7723   -7.9285 H   0  0  0  0  0  0  0  0  0  0  0  0
   -2.9675    0.7242   -6.7361 H   0  0  0  0  0  0  0  0  0  0  0  0
   -4.1210    2.0332  -10.1558 H   0  0  0  0  0  0  0  0  0  0  0  0
   -3.7223    2.4451  -13.6631 H   0  0  0  0  0  0  0  0  0  0  0  0
   -4.9382    2.2861  -12.3487 H   0  0  0  0  0  0  0  0  0  0  0  0
   -4.4916    3.9236  -12.9517 H   0  0  0  0  0  0  0  0  0  0  0  0
   -1.4421    3.3375  -14.1552 H   0  0  0  0  0  0  0  0  0  0  0  0
   -0.5467    4.7469  -13.4831 H   0  0  0  0  0  0  0  0  0  0  0  0
   -2.3177    4.8633  -13.7303 H   0  0  0  0  0  0  0  0  0  0  0  0
    0.2194    4.1870  -11.3404 H   0  0  0  0  0  0  0  0  0  0  0  0
    1.3937    4.7952   -9.4651 H   0  0  0  0  0  0  0  0  0  0  0  0
    3.2021    4.4179   -8.0983 H   0  0  0  0  0  0  0  0  0  0  0  0
    4.0575    3.6363   -5.7306 H   0  0  0  0  0  0  0  0  0  0  0  0
    3.8055    3.0407   -1.7359 H   0  0  0  0  0  0  0  0  0  0  0  0
    5.3418    4.7495   -0.8462 H   0  0  0  0  0  0  0  0  0  0  0  0
    7.7679    4.1382    0.2457 H   0  0  0  0  0  0  0  0  0  0  0  0
    9.1175    5.3101    0.4271 H   0  0  0  0  0  0  0  0  0  0  0  0
   10.4326    4.0708   -1.3386 H   0  0  0  0  0  0  0  0  0  0  0  0
   10.0407    3.0605    0.1101 H   0  0  0  0  0  0  0  0  0  0  0  0
    9.1058    2.8330   -1.4174 H   0  0  0  0  0  0  0  0  0  0  0  0
    6.6281    2.1215   -4.8638 H   0  0  0  0  0  0  0  0  0  0  0  0
    2.1775   -2.6580   -6.4491 H   0  0  0  0  0  0  0  0  0  0  0  0
    0.2034   -4.0722   -6.9207 H   0  0  0  0  0  0  0  0  0  0  0  0
   -2.3551   -2.5371   -7.9296 H   0  0  0  0  0  0  0  0  0  0  0  0
   -3.6359   -1.9874   -6.7745 H   0  0  0  0  0  0  0  0  0  0  0  0
   -5.0245   -3.9862   -7.4243 H   0  0  0  0  0  0  0  0  0  0  0  0
   -3.7522   -4.4580   -8.6205 H   0  0  0  0  0  0  0  0  0  0  0  0
   -4.6594   -2.9051   -8.8333 H   0  0  0  0  0  0  0  0  0  0  0  0
   -0.2062   -0.2517   -3.7799 H   0  0  0  0  0  0  0  0  0  0  0  0
    2.1288   -2.5316   -2.7866 H   0  0  0  0  0  0  0  0  0  0  0  0
    5.4533   -1.9848    0.6771 H   0  0  0  0  0  0  0  0  0  0  0  0
    5.4441   -1.2730    3.3847 H   0  0  0  0  0  0  0  0  0  0  0  0
    7.6400   -0.2540    3.8726 H   0  0  0  0  0  0  0  0  0  0  0  0
   11.8865   -0.9057    2.2595 H   0  0  0  0  0  0  0  0  0  0  0  0
   10.4866   -1.8529    1.6499 H   0  0  0  0  0  0  0  0  0  0  0  0
    9.0490    0.2103    1.7996 H   0  0  0  0  0  0  0  0  0  0  0  0
   10.4607    1.1358    2.4657 H   0  0  0  0  0  0  0  0  0  0  0  0
   10.5042    0.4991    0.7805 H   0  0  0  0  0  0  0  0  0  0  0  0
    7.3376   -5.1133    2.9189 H   0  0  0  0  0  0  0  0  0  0  0  0
    0.0765   -5.0663    3.6465 H   0  0  0  0  0  0  0  0  0  0  0  0
   -2.1232   -5.9411    2.9459 H   0  0  0  0  0  0  0  0  0  0  0  0
   -1.7731   -9.3803    0.7131 H   0  0  0  0  0  0  0  0  0  0  0  0
   -3.5373   -9.6388    0.4898 H   0  0  0  0  0  0  0  0  0  0  0  0
   -2.1726   -8.6428    3.0721 H   0  0  0  0  0  0  0  0  0  0  0  0
   -2.8874  -10.2667    2.7783 H   0  0  0  0  0  0  0  0  0  0  0  0
   -3.9653   -8.8208    2.8315 H   0  0  0  0  0  0  0  0  0  0  0  0
    1.8093   -6.5468   -0.0157 H   0  0  0  0  0  0  0  0  0  0  0  0
    1.8414   -6.9580    4.3408 H   0  0  0  0  0  0  0  0  0  0  0  0
    3.5805   -7.1134    6.2695 H   0  0  0  0  0  0  0  0  0  0  0  0
  1  2  2  0
  2  3  1  0
  3  4  2  0
  4  5  1  0
  5  6  2  0
  6  7  1  0
  7  8  2  0
  8  9  1  0
  9 10  1  0
 10 11  1  0
  8 12  1  0
 12 13  1  0
 12 14  2  0
  4 15  1  0
 15 16  2  0
 16 17  1  0
 17 18  1  0
 18 19  2  0
 19 20  1  0
 20 21  2  0
 21 22  1  0
 22 23  1  0
 23 24  1  0
 21 25  1  0
 25 26  2  0
 25 27  1  0
 17 28  2  0
 28 29  1  0
 16 30  1  0
 30 31  2  0
 31 32  1  0
 31 33  1  0
 33 34  2  0
 34 35  1  0
 35 36  2  0
 36 37  1  0
 37 38  2  0
 38 39  1  0
 39 40  2  0
 40 41  1  0
 41 42  1  0
 42 43  1  0
 40 44  1  0
 44 45  1  0
 44 46  2  0
 36 47  1  0
 47 48  2  0
 48 49  1  0
 49 50  1  0
 50 51  2  0
 51 52  1  0
 52 53  2  0
 53 54  1  0
 54 55  1  0
 55 56  1  0
 53 57  1  0
 57 58  2  0
 57 59  1  0
 49 60  2  0
 60 61  1  0
 48 62  1  0
 62 63  2  0
 63 64  1  0
 63 65  1  0
 65 66  1  0
 66 67  1  0
 67 68  2  0
 68 69  1  0
 69 70  1  0
 70 71  2  0
 71 72  1  0
 71 73  1  0
 73 74  1  0
 73 75  2  0
 67 76  1  0
 76 77  2  3
 77 78  1  0
 78 79  1  0
 79 80  1  0
 80 81  2  0
 81 82  1  0
 82 83  1  0
 83 84  2  0
 84 85  1  0
 84 86  1  0
 86 87  1  0
 86 88  2  0
 80 89  1  0
 89 90  2  3
 90 91  1  0
 91 92  2  0
 92 93  1  0
 93 94  2  0
 94 95  1  0
 95 96  2  0
 96 97  1  0
 97 98  2  0
 98 99  1  0
 99100  1  0
100101  1  0
 98102  1  0
102103  1  0
102104  2  0
 94105  1  0
105106  2  0
106107  1  0
107108  1  0
108109  2  0
109110  1  0
110111  2  0
111112  1  0
112113  1  0
113114  1  0
111115  1  0
115116  2  0
115117  1  0
107118  2  0
118119  1  0
106120  1  0
120121  2  0
121122  1  0
121123  1  0
123124  2  0
124125  1  0
125126  2  0
126127  1  0
127128  2  0
128129  1  0
129130  2  0
130131  1  0
131132  1  0
132133  1  0
130134  1  0
134135  1  0
134136  2  0
126137  1  0
137138  2  0
138139  1  0
139140  1  0
140141  2  0
141142  1  0
142143  2  0
143144  1  0
144145  1  0
145146  1  0
143147  1  0
147148  2  0
147149  1  0
139150  2  0
150151  1  0
138152  1  0
152153  2  0
153154  1  0
 29  1  1  0
 61 33  1  0
 69 65  2  0
 82 78  2  0
119 91  1  0
151123  1  0
 28  3  1  0
 60 35  1  0
 75 68  1  0
 88 81  1  0
118 93  1  0
150125  1  0
 14  5  1  0
 32 15  1  0
 46 37  1  0
 64 47  1  0
104 95  1  0
122105  1  0
136127  1  0
154137  1  0
 26 18  1  0
 58 50  1  0
116108  1  0
148140  1  0
  1155  1  0
  2156  1  0
  6157  1  0
  7158  1  0
 10159  1  0
 10160  1  0
 11161  1  0
 11162  1  0
 11163  1  0
 14164  1  0
 19165  1  0
 20166  1  0
 23167  1  0
 23168  1  0
 24169  1  0
 24170  1  0
 24171  1  0
 26172  1  0
 30173  1  0
 34174  1  0
 38175  1  0
 39176  1  0
 42177  1  0
 42178  1  0
 43179  1  0
 43180  1  0
 43181  1  0
 46182  1  0
 51183  1  0
 52184  1  0
 55185  1  0
 55186  1  0
 56187  1  0
 56188  1  0
 56189  1  0
 58190  1  0
 62191  1  0
 70192  1  0
 72193  1  0
 72194  1  0
 72195  1  0
 74196  1  0
 74197  1  0
 74198  1  0
 75199  1  0
 76200  1  0
 77201  1  0
 83202  1  0
 85203  1  0
 85204  1  0
 85205  1  0
 87206  1  0
 87207  1  0
 87208  1  0
 88209  1  0
 89210  1  0
 90211  1  0
 92212  1  0
 96213  1  0
 97214  1  0
100215  1  0
100216  1  0
101217  1  0
101218  1  0
101219  1  0
104220  1  0
109221  1  0
110222  1  0
113223  1  0
113224  1  0
114225  1  0
114226  1  0
114227  1  0
116228  1  0
120229  1  0
124230  1  0
128231  1  0
129232  1  0
132233  1  0
132234  1  0
133235  1  0
133236  1  0
133237  1  0
136238  1  0
141239  1  0
142240  1  0
145241  1  0
145242  1  0
146243  1  0
146244  1  0
146245  1  0
148246  1  0
152247  1  0
153248  1  0
M  END

