
     RDKit          3D

132143  0  0  0  0  0  0  0  0999 V2000
    4.5076    5.5781   -1.0637 C   0  0  0  0  0  0  0  0  0  0  0  0
    3.8461    5.9807    0.0986 C   0  0  0  0  0  0  0  0  0  0  0  0
    3.7630    7.2974    0.4103 F   0  0  0  0  0  0  0  0  0  0  0  0
    3.2541    5.0295    0.9372 C   0  0  0  0  0  0  0  0  0  0  0  0
    3.3351    3.6616    0.6310 C   0  0  0  0  0  0  0  0  0  0  0  0
    3.9995    3.2536   -0.5408 C   0  0  0  0  0  0  0  0  0  0  0  0
    4.0690    1.9403   -0.8928 N   0  0  0  0  0  0  0  0  0  0  0  0
    4.6846    1.5466   -2.0381 C   0  0  0  0  0  0  0  0  0  0  0  0
    5.2523    2.5034   -2.8837 C   0  0  0  0  0  0  0  0  0  0  0  0
    5.8714    2.1011   -4.0722 O   0  0  0  0  0  0  0  0  0  0  0  0
    6.3412    3.0165   -5.0610 C   0  0  0  0  0  0  0  0  0  0  0  0
    5.1750    3.5585   -5.8804 C   0  0  0  0  0  0  0  0  0  0  0  0
    5.1889    3.8198   -2.5363 N   0  0  0  0  0  0  0  0  0  0  0  0
    4.5795    4.2204   -1.3897 C   0  0  0  0  0  0  0  0  0  0  0  0
    2.6619    2.6869    1.5032 C   0  0  0  0  0  0  0  0  0  0  0  0
    0.9985    2.6202    1.7335 S   0  0  0  0  0  0  0  0  0  0  0  0
    0.9909    1.2741    2.7510 C   0  0  0  0  0  0  0  0  0  0  0  0
    2.3137    0.8671    2.9336 C   0  0  0  0  0  0  0  0  0  0  0  0
    3.2453    1.6552    2.2383 C   0  0  0  0  0  0  0  0  0  0  0  0
    4.6149    1.4009    2.3507 C   0  0  0  0  0  0  0  0  0  0  0  0
    5.0642    0.3522    3.1770 C   0  0  0  0  0  0  0  0  0  0  0  0
    6.5459    0.1119    3.3211 C   0  0  0  0  0  0  0  0  0  0  0  0
    4.1206   -0.4459    3.8809 C   0  0  0  0  0  0  0  0  0  0  0  0
    4.5696   -1.5538    4.7982 C   0  0  0  0  0  0  0  0  0  0  0  0
    2.7433   -0.1790    3.7540 C   0  0  0  0  0  0  0  0  0  0  0  0
   -0.2187    0.5973    3.2457 C   0  0  0  0  0  0  0  0  0  0  0  0
   -1.3619    1.2624    3.4243 C   0  0  0  0  0  0  0  0  0  0  0  0
   -2.6141    0.5681    3.7608 C   0  0  0  0  0  0  0  0  0  0  0  0
   -3.0502   -0.9603    3.1990 S   0  0  0  0  0  0  0  0  0  0  0  0
   -4.6309   -0.9512    3.7911 C   0  0  0  0  0  0  0  0  0  0  0  0
   -4.8272    0.2514    4.4711 C   0  0  0  0  0  0  0  0  0  0  0  0
   -3.7123    1.1060    4.4350 C   0  0  0  0  0  0  0  0  0  0  0  0
   -3.7631    2.3630    5.0446 C   0  0  0  0  0  0  0  0  0  0  0  0
   -4.9383    2.7735    5.7026 C   0  0  0  0  0  0  0  0  0  0  0  0
   -4.9706    4.1251    6.3683 C   0  0  0  0  0  0  0  0  0  0  0  0
   -6.0646    1.9057    5.7436 C   0  0  0  0  0  0  0  0  0  0  0  0
   -7.3258    2.3037    6.4632 C   0  0  0  0  0  0  0  0  0  0  0  0
   -6.0018    0.6455    5.1167 C   0  0  0  0  0  0  0  0  0  0  0  0
   -5.6258   -2.0257    3.5926 C   0  0  0  0  0  0  0  0  0  0  0  0
   -5.7946   -2.6810    2.4342 C   0  0  0  0  0  0  0  0  0  0  0  0
   -5.1309   -2.2990    1.1656 C   0  0  0  0  0  0  0  0  0  0  0  0
   -5.2845   -1.0020    0.6427 C   0  0  0  0  0  0  0  0  0  0  0  0
   -6.0735   -0.0934    1.2717 F   0  0  0  0  0  0  0  0  0  0  0  0
   -4.6215   -0.6270   -0.5275 C   0  0  0  0  0  0  0  0  0  0  0  0
   -3.8047   -1.5373   -1.2150 C   0  0  0  0  0  0  0  0  0  0  0  0
   -3.6884   -2.8550   -0.7293 C   0  0  0  0  0  0  0  0  0  0  0  0
   -2.9409   -3.7804   -1.3915 N   0  0  0  0  0  0  0  0  0  0  0  0
   -2.8061   -5.0494   -0.9266 C   0  0  0  0  0  0  0  0  0  0  0  0
   -3.4464   -5.4234    0.2560 C   0  0  0  0  0  0  0  0  0  0  0  0
   -3.2991   -6.7252    0.7432 O   0  0  0  0  0  0  0  0  0  0  0  0
   -3.9018   -7.1622    1.9569 C   0  0  0  0  0  0  0  0  0  0  0  0
   -3.5287   -8.6123    2.2151 C   0  0  0  0  0  0  0  0  0  0  0  0
   -4.2048   -4.5080    0.9201 N   0  0  0  0  0  0  0  0  0  0  0  0
   -4.3521   -3.2347    0.4603 C   0  0  0  0  0  0  0  0  0  0  0  0
   -3.0578   -1.0798   -2.4130 C   0  0  0  0  0  0  0  0  0  0  0  0
   -3.7529   -0.5794   -3.5258 C   0  0  0  0  0  0  0  0  0  0  0  0
   -5.1105   -0.5621   -3.5366 F   0  0  0  0  0  0  0  0  0  0  0  0
   -3.0581   -0.1233   -4.6488 C   0  0  0  0  0  0  0  0  0  0  0  0
   -1.6546   -0.1426   -4.6843 C   0  0  0  0  0  0  0  0  0  0  0  0
   -0.9471   -0.6179   -3.5610 C   0  0  0  0  0  0  0  0  0  0  0  0
    0.4155   -0.6142   -3.5363 N   0  0  0  0  0  0  0  0  0  0  0  0
    1.1096   -1.0807   -2.4664 C   0  0  0  0  0  0  0  0  0  0  0  0
    0.4165   -1.5767   -1.3618 C   0  0  0  0  0  0  0  0  0  0  0  0
    1.1203   -2.0918   -0.2714 O   0  0  0  0  0  0  0  0  0  0  0  0
    0.4698   -2.6195    0.8799 C   0  0  0  0  0  0  0  0  0  0  0  0
    1.5105   -3.1502    1.8543 C   0  0  0  0  0  0  0  0  0  0  0  0
   -0.9434   -1.5588   -1.3681 N   0  0  0  0  0  0  0  0  0  0  0  0
   -1.6498   -1.0957   -2.4331 C   0  0  0  0  0  0  0  0  0  0  0  0
   -0.9552    0.2796   -5.9263 C   0  0  0  0  0  0  0  0  0  0  0  0
   -1.1473    1.5753   -6.4428 C   0  0  0  0  0  0  0  0  0  0  0  0
   -1.9312    2.4700   -5.7877 F   0  0  0  0  0  0  0  0  0  0  0  0
   -0.5288    1.9590   -7.6380 C   0  0  0  0  0  0  0  0  0  0  0  0
    0.2899    1.0633   -8.3312 C   0  0  0  0  0  0  0  0  0  0  0  0
    0.4922   -0.2259   -7.8309 C   0  0  0  0  0  0  0  0  0  0  0  0
    1.2770   -1.1131   -8.4999 N   0  0  0  0  0  0  0  0  0  0  0  0
    1.4807   -2.3718   -8.0273 C   0  0  0  0  0  0  0  0  0  0  0  0
    0.8736   -2.7664   -6.8311 C   0  0  0  0  0  0  0  0  0  0  0  0
    1.1002   -4.0457   -6.3183 O   0  0  0  0  0  0  0  0  0  0  0  0
    0.5760   -4.4618   -5.0600 C   0  0  0  0  0  0  0  0  0  0  0  0
    1.0637   -5.8643   -4.7375 C   0  0  0  0  0  0  0  0  0  0  0  0
    0.0762   -1.8853   -6.1704 N   0  0  0  0  0  0  0  0  0  0  0  0
   -0.1298   -0.6222   -6.6286 C   0  0  0  0  0  0  0  0  0  0  0  0
    4.9494    6.3210   -1.7158 H   0  0  0  0  0  0  0  0  0  0  0  0
    2.7290    5.3579    1.8275 H   0  0  0  0  0  0  0  0  0  0  0  0
    4.7229    0.4963   -2.2950 H   0  0  0  0  0  0  0  0  0  0  0  0
    6.9007    3.8523   -4.5880 H   0  0  0  0  0  0  0  0  0  0  0  0
    7.0349    2.4792   -5.7410 H   0  0  0  0  0  0  0  0  0  0  0  0
    5.5520    4.2723   -6.6424 H   0  0  0  0  0  0  0  0  0  0  0  0
    4.6538    2.7234   -6.3957 H   0  0  0  0  0  0  0  0  0  0  0  0
    4.4506    4.0847   -5.2252 H   0  0  0  0  0  0  0  0  0  0  0  0
    5.3257    2.0243    1.8207 H   0  0  0  0  0  0  0  0  0  0  0  0
    7.1375    0.8242    2.7075 H   0  0  0  0  0  0  0  0  0  0  0  0
    6.8447    0.2395    4.3830 H   0  0  0  0  0  0  0  0  0  0  0  0
    6.7956   -0.9170    2.9883 H   0  0  0  0  0  0  0  0  0  0  0  0
    3.7061   -2.1057    5.2293 H   0  0  0  0  0  0  0  0  0  0  0  0
    5.1958   -2.2824    4.2391 H   0  0  0  0  0  0  0  0  0  0  0  0
    5.1587   -1.1276    5.6392 H   0  0  0  0  0  0  0  0  0  0  0  0
    2.0222   -0.7714    4.3048 H   0  0  0  0  0  0  0  0  0  0  0  0
   -0.1742   -0.4652    3.4503 H   0  0  0  0  0  0  0  0  0  0  0  0
   -1.3868    2.3379    3.3056 H   0  0  0  0  0  0  0  0  0  0  0  0
   -2.8961    3.0124    5.0229 H   0  0  0  0  0  0  0  0  0  0  0  0
   -4.0359    4.6952    6.1849 H   0  0  0  0  0  0  0  0  0  0  0  0
   -5.0940    3.9997    7.4636 H   0  0  0  0  0  0  0  0  0  0  0  0
   -5.8137    4.7248    5.9668 H   0  0  0  0  0  0  0  0  0  0  0  0
   -7.1053    2.4677    7.5399 H   0  0  0  0  0  0  0  0  0  0  0  0
   -7.7363    3.2380    6.0248 H   0  0  0  0  0  0  0  0  0  0  0  0
   -8.1076    1.5189    6.3881 H   0  0  0  0  0  0  0  0  0  0  0  0
   -6.8570   -0.0172    5.1339 H   0  0  0  0  0  0  0  0  0  0  0  0
   -6.2452   -2.3042    4.4337 H   0  0  0  0  0  0  0  0  0  0  0  0
   -6.4756   -3.5230    2.4131 H   0  0  0  0  0  0  0  0  0  0  0  0
   -4.7285    0.3886   -0.8891 H   0  0  0  0  0  0  0  0  0  0  0  0
   -2.2012   -5.7614   -1.4726 H   0  0  0  0  0  0  0  0  0  0  0  0
   -3.5441   -6.5350    2.8021 H   0  0  0  0  0  0  0  0  0  0  0  0
   -5.0074   -7.0771    1.8792 H   0  0  0  0  0  0  0  0  0  0  0  0
   -3.8962   -9.2536    1.3859 H   0  0  0  0  0  0  0  0  0  0  0  0
   -3.9868   -8.9553    3.1667 H   0  0  0  0  0  0  0  0  0  0  0  0
   -2.4249   -8.7138    2.2903 H   0  0  0  0  0  0  0  0  0  0  0  0
   -3.6175    0.2304   -5.5037 H   0  0  0  0  0  0  0  0  0  0  0  0
    2.1928   -1.0743   -2.4803 H   0  0  0  0  0  0  0  0  0  0  0  0
   -0.2103   -3.4479    0.5862 H   0  0  0  0  0  0  0  0  0  0  0  0
   -0.1254   -1.8183    1.3705 H   0  0  0  0  0  0  0  0  0  0  0  0
    2.2654   -2.3666    2.0692 H   0  0  0  0  0  0  0  0  0  0  0  0
    2.0233   -4.0354    1.4174 H   0  0  0  0  0  0  0  0  0  0  0  0
    1.0231   -3.4459    2.8066 H   0  0  0  0  0  0  0  0  0  0  0  0
   -0.6840    2.9568   -8.0296 H   0  0  0  0  0  0  0  0  0  0  0  0
    0.7587    1.3709   -9.2577 H   0  0  0  0  0  0  0  0  0  0  0  0
    2.1138   -3.0572   -8.5739 H   0  0  0  0  0  0  0  0  0  0  0  0
   -0.5355   -4.4560   -5.0943 H   0  0  0  0  0  0  0  0  0  0  0  0
    0.9164   -3.7679   -4.2616 H   0  0  0  0  0  0  0  0  0  0  0  0
    0.6882   -6.5813   -5.4974 H   0  0  0  0  0  0  0  0  0  0  0  0
    2.1740   -5.8855   -4.7272 H   0  0  0  0  0  0  0  0  0  0  0  0
    0.6901   -6.1663   -3.7373 H   0  0  0  0  0  0  0  0  0  0  0  0
  1  2  2  0
  2  3  1  0
  2  4  1  0
  4  5  2  0
  5  6  1  0
  6  7  2  0
  7  8  1  0
  8  9  2  0
  9 10  1  0
 10 11  1  0
 11 12  1  0
  9 13  1  0
 13 14  2  0
  5 15  1  0
 15 16  1  0
 16 17  1  0
 17 18  2  0
 18 19  1  0
 19 20  1  0
 20 21  2  0
 21 22  1  0
 21 23  1  0
 23 24  1  0
 23 25  2  0
 17 26  1  0
 26 27  2  3
 27 28  1  0
 28 29  1  0
 29 30  1  0
 30 31  2  0
 31 32  1  0
 32 33  1  0
 33 34  2  0
 34 35  1  0
 34 36  1  0
 36 37  1  0
 36 38  2  0
 30 39  1  0
 39 40  2  3
 40 41  1  0
 41 42  2  0
 42 43  1  0
 42 44  1  0
 44 45  2  0
 45 46  1  0
 46 47  2  0
 47 48  1  0
 48 49  2  0
 49 50  1  0
 50 51  1  0
 51 52  1  0
 49 53  1  0
 53 54  2  0
 45 55  1  0
 55 56  2  0
 56 57  1  0
 56 58  1  0
 58 59  2  0
 59 60  1  0
 60 61  2  0
 61 62  1  0
 62 63  2  0
 63 64  1  0
 64 65  1  0
 65 66  1  0
 63 67  1  0
 67 68  2  0
 59 69  1  0
 69 70  2  0
 70 71  1  0
 70 72  1  0
 72 73  2  0
 73 74  1  0
 74 75  2  0
 75 76  1  0
 76 77  2  0
 77 78  1  0
 78 79  1  0
 79 80  1  0
 77 81  1  0
 81 82  2  0
 14  1  1  0
 19 15  2  0
 32 28  2  0
 54 41  1  0
 68 55  1  0
 82 69  1  0
 14  6  1  0
 25 18  1  0
 38 31  1  0
 54 46  1  0
 68 60  1  0
 82 74  1  0
  1 83  1  0
  4 84  1  0
  8 85  1  0
 11 86  1  0
 11 87  1  0
 12 88  1  0
 12 89  1  0
 12 90  1  0
 20 91  1  0
 22 92  1  0
 22 93  1  0
 22 94  1  0
 24 95  1  0
 24 96  1  0
 24 97  1  0
 25 98  1  0
 26 99  1  0
 27100  1  0
 33101  1  0
 35102  1  0
 35103  1  0
 35104  1  0
 37105  1  0
 37106  1  0
 37107  1  0
 38108  1  0
 39109  1  0
 40110  1  0
 44111  1  0
 48112  1  0
 51113  1  0
 51114  1  0
 52115  1  0
 52116  1  0
 52117  1  0
 58118  1  0
 62119  1  0
 65120  1  0
 65121  1  0
 66122  1  0
 66123  1  0
 66124  1  0
 72125  1  0
 73126  1  0
 76127  1  0
 79128  1  0
 79129  1  0
 80130  1  0
 80131  1  0
 80132  1  0
M  END

