
     RDKit          3D

194211  0  0  0  0  0  0  0  0999 V2000
    9.7788    3.3227    6.1005 C   0  0  0  0  0  0  0  0  0  0  0  0
    8.2486    2.9638    6.7054 S   0  0  0  0  0  0  0  0  0  0  0  0
    8.0004    1.5565    5.8171 C   0  0  0  0  0  0  0  0  0  0  0  0
    9.1136    1.3615    4.9987 C   0  0  0  0  0  0  0  0  0  0  0  0
   10.1019    2.3371    5.1760 C   0  0  0  0  0  0  0  0  0  0  0  0
   11.2908    2.2874    4.4565 C   0  0  0  0  0  0  0  0  0  0  0  0
   11.4921    1.2647    3.5158 C   0  0  0  0  0  0  0  0  0  0  0  0
   12.7979    1.2087    2.7683 C   0  0  0  0  0  0  0  0  0  0  0  0
   10.4658    0.3053    3.2845 C   0  0  0  0  0  0  0  0  0  0  0  0
   10.6194   -0.7519    2.2221 C   0  0  0  0  0  0  0  0  0  0  0  0
    9.2781    0.3503    4.0463 C   0  0  0  0  0  0  0  0  0  0  0  0
    6.8152    0.7081    5.9849 C   0  0  0  0  0  0  0  0  0  0  0  0
    6.9205   -0.5741    6.3496 C   0  0  0  0  0  0  0  0  0  0  0  0
    5.7718   -1.2496    6.9766 C   0  0  0  0  0  0  0  0  0  0  0  0
    5.7977   -1.8259    8.5539 S   0  0  0  0  0  0  0  0  0  0  0  0
    4.1326   -1.9717    8.7622 C   0  0  0  0  0  0  0  0  0  0  0  0
    3.5127   -1.5234    7.5905 C   0  0  0  0  0  0  0  0  0  0  0  0
    4.4363   -1.1707    6.5870 C   0  0  0  0  0  0  0  0  0  0  0  0
    3.9897   -0.7917    5.3160 C   0  0  0  0  0  0  0  0  0  0  0  0
    2.6097   -0.7119    5.0587 C   0  0  0  0  0  0  0  0  0  0  0  0
    2.1526   -0.4346    3.6493 C   0  0  0  0  0  0  0  0  0  0  0  0
    1.6844   -0.9213    6.1154 C   0  0  0  0  0  0  0  0  0  0  0  0
    0.2055   -0.7398    5.8992 C   0  0  0  0  0  0  0  0  0  0  0  0
    2.1486   -1.3219    7.3856 C   0  0  0  0  0  0  0  0  0  0  0  0
    3.5385   -2.3957   10.0372 C   0  0  0  0  0  0  0  0  0  0  0  0
    2.5119   -3.2375   10.2118 C   0  0  0  0  0  0  0  0  0  0  0  0
    1.7312   -3.8992    9.1449 C   0  0  0  0  0  0  0  0  0  0  0  0
    0.0593   -3.9915    9.1643 S   0  0  0  0  0  0  0  0  0  0  0  0
   -0.1405   -4.8852    7.7550 C   0  0  0  0  0  0  0  0  0  0  0  0
    1.1374   -5.1805    7.2666 C   0  0  0  0  0  0  0  0  0  0  0  0
    2.1788   -4.6378    8.0430 C   0  0  0  0  0  0  0  0  0  0  0  0
    3.5089   -4.9499    7.7460 C   0  0  0  0  0  0  0  0  0  0  0  0
    3.8108   -5.7293    6.6199 C   0  0  0  0  0  0  0  0  0  0  0  0
    5.2580   -6.0069    6.2951 C   0  0  0  0  0  0  0  0  0  0  0  0
    2.7583   -6.2738    5.8372 C   0  0  0  0  0  0  0  0  0  0  0  0
    3.0479   -7.1327    4.6337 C   0  0  0  0  0  0  0  0  0  0  0  0
    1.4212   -6.0022    6.1725 C   0  0  0  0  0  0  0  0  0  0  0  0
   -1.3987   -5.5692    7.4292 C   0  0  0  0  0  0  0  0  0  0  0  0
   -2.2884   -5.1326    6.5347 C   0  0  0  0  0  0  0  0  0  0  0  0
   -2.0210   -4.0714    5.5514 C   0  0  0  0  0  0  0  0  0  0  0  0
   -0.9004   -4.2244    4.3048 S   0  0  0  0  0  0  0  0  0  0  0  0
   -1.4326   -2.9295    3.3805 C   0  0  0  0  0  0  0  0  0  0  0  0
   -2.5456   -2.3718    4.0200 C   0  0  0  0  0  0  0  0  0  0  0  0
   -2.8719   -3.0140    5.2251 C   0  0  0  0  0  0  0  0  0  0  0  0
   -3.9739   -2.5951    5.9754 C   0  0  0  0  0  0  0  0  0  0  0  0
   -4.7565   -1.5118    5.5285 C   0  0  0  0  0  0  0  0  0  0  0  0
   -5.9122   -1.0474    6.3701 C   0  0  0  0  0  0  0  0  0  0  0  0
   -4.4538   -0.8909    4.2823 C   0  0  0  0  0  0  0  0  0  0  0  0
   -5.2879    0.2419    3.7501 C   0  0  0  0  0  0  0  0  0  0  0  0
   -3.3400   -1.3242    3.5346 C   0  0  0  0  0  0  0  0  0  0  0  0
   -0.8829   -2.5955    2.0679 C   0  0  0  0  0  0  0  0  0  0  0  0
   -0.5960   -1.3313    1.7120 C   0  0  0  0  0  0  0  0  0  0  0  0
   -0.2366   -0.9614    0.3291 C   0  0  0  0  0  0  0  0  0  0  0  0
   -0.0565   -1.8467   -0.7346 C   0  0  0  0  0  0  0  0  0  0  0  0
   -0.2217   -1.2375   -1.9822 C   0  0  0  0  0  0  0  0  0  0  0  0
   -0.3786   -1.9082   -3.2106 C   0  0  0  0  0  0  0  0  0  0  0  0
   -0.1534   -3.3690   -3.3212 C   0  0  0  0  0  0  0  0  0  0  0  0
    0.9501   -3.8473   -4.0463 C   0  0  0  0  0  0  0  0  0  0  0  0
    1.2615   -5.2159   -4.0268 C   0  0  0  0  0  0  0  0  0  0  0  0
    0.4766   -6.1080   -3.2935 C   0  0  0  0  0  0  0  0  0  0  0  0
    0.8757   -7.8570   -3.2858 S   0  0  0  0  0  0  0  0  0  0  0  0
    1.8612   -7.8175   -1.7460 C   0  0  0  0  0  0  0  0  0  0  0  0
    3.3137   -7.4797   -2.0351 C   0  0  0  0  0  0  0  0  0  0  0  0
   -0.6473   -5.6360   -2.5990 C   0  0  0  0  0  0  0  0  0  0  0  0
   -1.4118   -6.4898   -1.8703 F   0  0  0  0  0  0  0  0  0  0  0  0
   -0.9689   -4.2770   -2.6247 C   0  0  0  0  0  0  0  0  0  0  0  0
   -0.8184   -1.1424   -4.3018 C   0  0  0  0  0  0  0  0  0  0  0  0
   -0.9847    0.2431   -4.2292 C   0  0  0  0  0  0  0  0  0  0  0  0
   -0.7320    0.9355   -3.0240 C   0  0  0  0  0  0  0  0  0  0  0  0
   -0.8538    2.4049   -2.9165 C   0  0  0  0  0  0  0  0  0  0  0  0
    0.2786    3.1678   -2.5987 C   0  0  0  0  0  0  0  0  0  0  0  0
    0.2122    4.5598   -2.6056 C   0  0  0  0  0  0  0  0  0  0  0  0
   -0.9760    5.2102   -2.9657 C   0  0  0  0  0  0  0  0  0  0  0  0
   -1.0133    6.9988   -3.0801 S   0  0  0  0  0  0  0  0  0  0  0  0
   -0.5372    7.0864   -4.8482 C   0  0  0  0  0  0  0  0  0  0  0  0
    0.9449    6.7551   -5.0520 C   0  0  0  0  0  0  0  0  0  0  0  0
   -2.1235    4.4487   -3.2302 C   0  0  0  0  0  0  0  0  0  0  0  0
   -2.0732    3.0514   -3.1767 C   0  0  0  0  0  0  0  0  0  0  0  0
   -3.2927    5.0595   -3.5421 F   0  0  0  0  0  0  0  0  0  0  0  0
   -0.4006    0.1500   -1.9065 C   0  0  0  0  0  0  0  0  0  0  0  0
   -0.4491    0.5929   -0.2833 S   0  0  0  0  0  0  0  0  0  0  0  0
   -1.6061    0.7797   -5.3756 C   0  0  0  0  0  0  0  0  0  0  0  0
   -2.0387   -0.1874   -6.2782 C   0  0  0  0  0  0  0  0  0  0  0  0
   -1.5540   -1.7080   -5.7087 S   0  0  0  0  0  0  0  0  0  0  0  0
   -3.2670    0.0243   -7.0402 C   0  0  0  0  0  0  0  0  0  0  0  0
   -3.4777    1.0860   -7.9192 C   0  0  0  0  0  0  0  0  0  0  0  0
   -4.8393    1.4184   -8.0723 C   0  0  0  0  0  0  0  0  0  0  0  0
   -5.3430    2.5201   -8.7831 C   0  0  0  0  0  0  0  0  0  0  0  0
   -4.4648    3.3804   -9.5927 C   0  0  0  0  0  0  0  0  0  0  0  0
   -4.1952    3.0610  -10.9332 C   0  0  0  0  0  0  0  0  0  0  0  0
   -3.3044    3.8451  -11.6751 C   0  0  0  0  0  0  0  0  0  0  0  0
   -2.6974    4.9679  -11.0914 C   0  0  0  0  0  0  0  0  0  0  0  0
   -1.4955    5.9178  -12.0315 S   0  0  0  0  0  0  0  0  0  0  0  0
   -2.6947    7.1408  -12.6711 C   0  0  0  0  0  0  0  0  0  0  0  0
   -2.1169    8.5435  -12.5178 C   0  0  0  0  0  0  0  0  0  0  0  0
   -2.9854    5.2985   -9.7613 C   0  0  0  0  0  0  0  0  0  0  0  0
   -2.4080    6.3846   -9.1777 F   0  0  0  0  0  0  0  0  0  0  0  0
   -3.8736    4.5176   -9.0190 C   0  0  0  0  0  0  0  0  0  0  0  0
   -6.7023    2.8176   -8.6222 C   0  0  0  0  0  0  0  0  0  0  0  0
   -7.5501    2.0640   -7.8031 C   0  0  0  0  0  0  0  0  0  0  0  0
   -7.0564    0.9411   -7.1019 C   0  0  0  0  0  0  0  0  0  0  0  0
   -7.8368    0.2658   -6.0358 C   0  0  0  0  0  0  0  0  0  0  0  0
   -7.9002   -1.1371   -5.9690 C   0  0  0  0  0  0  0  0  0  0  0  0
   -8.4398   -1.7665   -4.8397 C   0  0  0  0  0  0  0  0  0  0  0  0
   -8.9337   -1.0016   -3.7768 C   0  0  0  0  0  0  0  0  0  0  0  0
   -9.5024   -1.8027   -2.2723 S   0  0  0  0  0  0  0  0  0  0  0  0
   -7.9003   -1.6338   -1.3943 C   0  0  0  0  0  0  0  0  0  0  0  0
   -8.1227   -1.0126   -0.0232 C   0  0  0  0  0  0  0  0  0  0  0  0
   -8.9529    0.3908   -3.8734 C   0  0  0  0  0  0  0  0  0  0  0  0
   -8.3877    1.0218   -4.9851 C   0  0  0  0  0  0  0  0  0  0  0  0
   -9.4190    1.1520   -2.8496 F   0  0  0  0  0  0  0  0  0  0  0  0
   -5.6926    0.6364   -7.2876 C   0  0  0  0  0  0  0  0  0  0  0  0
   -4.7590   -0.4671   -6.4280 S   0  0  0  0  0  0  0  0  0  0  0  0
   -8.8563    2.5801   -7.7498 C   0  0  0  0  0  0  0  0  0  0  0  0
   -9.0209    3.7357   -8.5033 C   0  0  0  0  0  0  0  0  0  0  0  0
   -7.5569    4.1190   -9.2546 S   0  0  0  0  0  0  0  0  0  0  0  0
   10.3979    4.1646    6.3723 H   0  0  0  0  0  0  0  0  0  0  0  0
   12.0485    3.0460    4.6351 H   0  0  0  0  0  0  0  0  0  0  0  0
   12.6148    1.2143    1.6738 H   0  0  0  0  0  0  0  0  0  0  0  0
   13.4487    2.0826    3.0072 H   0  0  0  0  0  0  0  0  0  0  0  0
   13.3445    0.2833    3.0426 H   0  0  0  0  0  0  0  0  0  0  0  0
    9.7103   -1.3873    2.1492 H   0  0  0  0  0  0  0  0  0  0  0  0
   11.4918   -1.3960    2.4602 H   0  0  0  0  0  0  0  0  0  0  0  0
   10.7748   -0.2670    1.2351 H   0  0  0  0  0  0  0  0  0  0  0  0
    8.4903   -0.3741    3.8849 H   0  0  0  0  0  0  0  0  0  0  0  0
    5.8636    1.2163    6.0970 H   0  0  0  0  0  0  0  0  0  0  0  0
    7.8918   -1.0381    6.4285 H   0  0  0  0  0  0  0  0  0  0  0  0
    4.7051   -0.6020    4.5279 H   0  0  0  0  0  0  0  0  0  0  0  0
    1.4549    0.4292    3.6249 H   0  0  0  0  0  0  0  0  0  0  0  0
    3.0024   -0.2153    2.9711 H   0  0  0  0  0  0  0  0  0  0  0  0
    1.6372   -1.3352    3.2605 H   0  0  0  0  0  0  0  0  0  0  0  0
   -0.0213    0.3365    5.7220 H   0  0  0  0  0  0  0  0  0  0  0  0
   -0.1016   -1.3142    5.0042 H   0  0  0  0  0  0  0  0  0  0  0  0
   -0.3938   -1.0971    6.7662 H   0  0  0  0  0  0  0  0  0  0  0  0
    1.4409   -1.4600    8.1932 H   0  0  0  0  0  0  0  0  0  0  0  0
    4.0497   -2.0309   10.9180 H   0  0  0  0  0  0  0  0  0  0  0  0
    2.1717   -3.3933   11.2295 H   0  0  0  0  0  0  0  0  0  0  0  0
    4.3092   -4.6056    8.3879 H   0  0  0  0  0  0  0  0  0  0  0  0
    5.4846   -7.0791    6.4773 H   0  0  0  0  0  0  0  0  0  0  0  0
    5.9394   -5.3964    6.9279 H   0  0  0  0  0  0  0  0  0  0  0  0
    5.4626   -5.7550    5.2337 H   0  0  0  0  0  0  0  0  0  0  0  0
    3.5454   -6.5248    3.8448 H   0  0  0  0  0  0  0  0  0  0  0  0
    3.7037   -7.9846    4.9202 H   0  0  0  0  0  0  0  0  0  0  0  0
    2.1117   -7.5572    4.2120 H   0  0  0  0  0  0  0  0  0  0  0  0
    0.6127   -6.4345    5.5915 H   0  0  0  0  0  0  0  0  0  0  0  0
   -1.6972   -6.3755    8.0861 H   0  0  0  0  0  0  0  0  0  0  0  0
   -3.2537   -5.6166    6.4869 H   0  0  0  0  0  0  0  0  0  0  0  0
   -4.2059   -3.0975    6.9045 H   0  0  0  0  0  0  0  0  0  0  0  0
   -6.8714   -1.3015    5.8695 H   0  0  0  0  0  0  0  0  0  0  0  0
   -5.9032   -1.5274    7.3740 H   0  0  0  0  0  0  0  0  0  0  0  0
   -5.8576    0.0524    6.5230 H   0  0  0  0  0  0  0  0  0  0  0  0
   -5.0184    0.4870    2.7028 H   0  0  0  0  0  0  0  0  0  0  0  0
   -5.1342    1.1498    4.3726 H   0  0  0  0  0  0  0  0  0  0  0  0
   -6.3635   -0.0395    3.7628 H   0  0  0  0  0  0  0  0  0  0  0  0
   -3.1243   -0.8572    2.5864 H   0  0  0  0  0  0  0  0  0  0  0  0
   -0.7253   -3.4195    1.3897 H   0  0  0  0  0  0  0  0  0  0  0  0
   -0.7492   -0.5318    2.4241 H   0  0  0  0  0  0  0  0  0  0  0  0
    0.0766   -2.9070   -0.6053 H   0  0  0  0  0  0  0  0  0  0  0  0
    1.5912   -3.1680   -4.5840 H   0  0  0  0  0  0  0  0  0  0  0  0
    2.1201   -5.5705   -4.5775 H   0  0  0  0  0  0  0  0  0  0  0  0
    1.4346   -7.0936   -1.0152 H   0  0  0  0  0  0  0  0  0  0  0  0
    1.8099   -8.8253   -1.2852 H   0  0  0  0  0  0  0  0  0  0  0  0
    3.4010   -6.4720   -2.4822 H   0  0  0  0  0  0  0  0  0  0  0  0
    3.7484   -8.2254   -2.7352 H   0  0  0  0  0  0  0  0  0  0  0  0
    3.8992   -7.4982   -1.0943 H   0  0  0  0  0  0  0  0  0  0  0  0
   -1.8280   -3.9232   -2.0632 H   0  0  0  0  0  0  0  0  0  0  0  0
    1.2168    2.6818   -2.3691 H   0  0  0  0  0  0  0  0  0  0  0  0
    1.0877    5.1377   -2.3515 H   0  0  0  0  0  0  0  0  0  0  0  0
   -0.7070    8.1275   -5.1892 H   0  0  0  0  0  0  0  0  0  0  0  0
   -1.1753    6.4111   -5.4561 H   0  0  0  0  0  0  0  0  0  0  0  0
    1.1066    5.6611   -5.0049 H   0  0  0  0  0  0  0  0  0  0  0  0
    1.5696    7.2764   -4.2948 H   0  0  0  0  0  0  0  0  0  0  0  0
    1.2610    7.0891   -6.0641 H   0  0  0  0  0  0  0  0  0  0  0  0
   -2.9626    2.4750   -3.3916 H   0  0  0  0  0  0  0  0  0  0  0  0
   -1.8969    1.8148   -5.4708 H   0  0  0  0  0  0  0  0  0  0  0  0
   -2.6697    1.6730   -8.3429 H   0  0  0  0  0  0  0  0  0  0  0  0
   -4.6400    2.1883  -11.3873 H   0  0  0  0  0  0  0  0  0  0  0  0
   -3.0874    3.5834  -12.7009 H   0  0  0  0  0  0  0  0  0  0  0  0
   -3.6674    7.0978  -12.1338 H   0  0  0  0  0  0  0  0  0  0  0  0
   -2.8747    6.9316  -13.7465 H   0  0  0  0  0  0  0  0  0  0  0  0
   -1.9822    8.7938  -11.4477 H   0  0  0  0  0  0  0  0  0  0  0  0
   -2.8095    9.2819  -12.9798 H   0  0  0  0  0  0  0  0  0  0  0  0
   -1.1337    8.6082  -13.0332 H   0  0  0  0  0  0  0  0  0  0  0  0
   -4.0805    4.7675   -7.9855 H   0  0  0  0  0  0  0  0  0  0  0  0
   -7.4937   -1.7494   -6.7706 H   0  0  0  0  0  0  0  0  0  0  0  0
   -8.4283   -2.8517   -4.7743 H   0  0  0  0  0  0  0  0  0  0  0  0
   -7.1766   -1.0006   -1.9536 H   0  0  0  0  0  0  0  0  0  0  0  0
   -7.4576   -2.6455   -1.2753 H   0  0  0  0  0  0  0  0  0  0  0  0
   -7.1504   -0.9355    0.5128 H   0  0  0  0  0  0  0  0  0  0  0  0
   -8.5480    0.0068   -0.1328 H   0  0  0  0  0  0  0  0  0  0  0  0
   -8.8137   -1.6459    0.5752 H   0  0  0  0  0  0  0  0  0  0  0  0
   -8.3343    2.1040   -5.0048 H   0  0  0  0  0  0  0  0  0  0  0  0
   -9.6569    2.1359   -7.1794 H   0  0  0  0  0  0  0  0  0  0  0  0
   -9.9415    4.3019   -8.5868 H   0  0  0  0  0  0  0  0  0  0  0  0
  1  2  1  0
  2  3  1  0
  3  4  2  0
  4  5  1  0
  5  6  1  0
  6  7  2  0
  7  8  1  0
  7  9  1  0
  9 10  1  0
  9 11  2  0
  3 12  1  0
 12 13  2  3
 13 14  1  0
 14 15  1  0
 15 16  1  0
 16 17  2  0
 17 18  1  0
 18 19  1  0
 19 20  2  0
 20 21  1  0
 20 22  1  0
 22 23  1  0
 22 24  2  0
 16 25  1  0
 25 26  2  3
 26 27  1  0
 27 28  1  0
 28 29  1  0
 29 30  2  0
 30 31  1  0
 31 32  1  0
 32 33  2  0
 33 34  1  0
 33 35  1  0
 35 36  1  0
 35 37  2  0
 29 38  1  0
 38 39  2  3
 39 40  1  0
 40 41  1  0
 41 42  1  0
 42 43  2  0
 43 44  1  0
 44 45  1  0
 45 46  2  0
 46 47  1  0
 46 48  1  0
 48 49  1  0
 48 50  2  0
 42 51  1  0
 51 52  2  3
 52 53  1  0
 53 54  2  0
 54 55  1  0
 55 56  2  0
 56 57  1  0
 57 58  2  0
 58 59  1  0
 59 60  2  0
 60 61  1  0
 61 62  1  0
 62 63  1  0
 60 64  1  0
 64 65  1  0
 64 66  2  0
 56 67  1  0
 67 68  2  0
 68 69  1  0
 69 70  1  0
 70 71  2  0
 71 72  1  0
 72 73  2  0
 73 74  1  0
 74 75  1  0
 75 76  1  0
 73 77  1  0
 77 78  2  0
 77 79  1  0
 69 80  2  0
 80 81  1  0
 68 82  1  0
 82 83  2  0
 83 84  1  0
 83 85  1  0
 85 86  2  0
 86 87  1  0
 87 88  2  0
 88 89  1  0
 89 90  2  0
 90 91  1  0
 91 92  2  0
 92 93  1  0
 93 94  1  0
 94 95  1  0
 92 96  1  0
 96 97  1  0
 96 98  2  0
 88 99  1  0
 99100  2  0
100101  1  0
101102  1  0
102103  2  0
103104  1  0
104105  2  0
105106  1  0
106107  1  0
107108  1  0
105109  1  0
109110  2  0
109111  1  0
101112  2  0
112113  1  0
100114  1  0
114115  2  0
115116  1  0
  5  1  2  0
 18 14  2  0
 31 27  2  0
 44 40  2  0
 81 53  1  0
113 85  1  0
 11  4  1  0
 24 17  1  0
 37 30  1  0
 50 43  1  0
 80 55  1  0
112 87  1  0
 66 57  1  0
 84 67  1  0
 98 89  1  0
116 99  1  0
 78 70  1  0
110102  1  0
  1117  1  0
  6118  1  0
  8119  1  0
  8120  1  0
  8121  1  0
 10122  1  0
 10123  1  0
 10124  1  0
 11125  1  0
 12126  1  0
 13127  1  0
 19128  1  0
 21129  1  0
 21130  1  0
 21131  1  0
 23132  1  0
 23133  1  0
 23134  1  0
 24135  1  0
 25136  1  0
 26137  1  0
 32138  1  0
 34139  1  0
 34140  1  0
 34141  1  0
 36142  1  0
 36143  1  0
 36144  1  0
 37145  1  0
 38146  1  0
 39147  1  0
 45148  1  0
 47149  1  0
 47150  1  0
 47151  1  0
 49152  1  0
 49153  1  0
 49154  1  0
 50155  1  0
 51156  1  0
 52157  1  0
 54158  1  0
 58159  1  0
 59160  1  0
 62161  1  0
 62162  1  0
 63163  1  0
 63164  1  0
 63165  1  0
 66166  1  0
 71167  1  0
 72168  1  0
 75169  1  0
 75170  1  0
 76171  1  0
 76172  1  0
 76173  1  0
 78174  1  0
 82175  1  0
 86176  1  0
 90177  1  0
 91178  1  0
 94179  1  0
 94180  1  0
 95181  1  0
 95182  1  0
 95183  1  0
 98184  1  0
103185  1  0
104186  1  0
107187  1  0
107188  1  0
108189  1  0
108190  1  0
108191  1  0
110192  1  0
114193  1  0
115194  1  0
M  END

