
     RDKit          3D

266291  0  0  0  0  0  0  0  0999 V2000
   -1.9693   12.0938    5.6459 C   0  0  0  0  0  0  0  0  0  0  0  0
   -1.0351   11.3553    6.3672 C   0  0  0  0  0  0  0  0  0  0  0  0
   -1.3182    9.9775    6.3985 C   0  0  0  0  0  0  0  0  0  0  0  0
   -0.5754    8.9797    7.0683 C   0  0  0  0  0  0  0  0  0  0  0  0
    0.6165    9.3068    7.8755 C   0  0  0  0  0  0  0  0  0  0  0  0
    0.5917    9.1101    9.2638 C   0  0  0  0  0  0  0  0  0  0  0  0
    1.6803    9.4963   10.0494 C   0  0  0  0  0  0  0  0  0  0  0  0
    2.8105   10.0706    9.4534 C   0  0  0  0  0  0  0  0  0  0  0  0
    4.1586   10.6572   10.4879 S   0  0  0  0  0  0  0  0  0  0  0  0
    4.9645    9.0279   10.6820 C   0  0  0  0  0  0  0  0  0  0  0  0
    5.7897    8.6729    9.4520 C   0  0  0  0  0  0  0  0  0  0  0  0
    2.8505   10.2440    8.0620 C   0  0  0  0  0  0  0  0  0  0  0  0
    3.9331   10.8083    7.4702 F   0  0  0  0  0  0  0  0  0  0  0  0
    1.7578    9.8637    7.2760 C   0  0  0  0  0  0  0  0  0  0  0  0
   -1.0616    7.6627    6.9831 C   0  0  0  0  0  0  0  0  0  0  0  0
   -2.2331    7.3385    6.2919 C   0  0  0  0  0  0  0  0  0  0  0  0
   -2.9860    8.3376    5.6397 C   0  0  0  0  0  0  0  0  0  0  0  0
   -4.2446    8.0171    4.9318 C   0  0  0  0  0  0  0  0  0  0  0  0
   -4.3573    8.2282    3.5497 C   0  0  0  0  0  0  0  0  0  0  0  0
   -5.5044    7.8153    2.8676 C   0  0  0  0  0  0  0  0  0  0  0  0
   -6.5475    7.1875    3.5602 C   0  0  0  0  0  0  0  0  0  0  0  0
   -7.9554    6.5460    2.6524 S   0  0  0  0  0  0  0  0  0  0  0  0
   -7.1782    4.9136    2.3893 C   0  0  0  0  0  0  0  0  0  0  0  0
   -8.0917    4.0274    1.5562 C   0  0  0  0  0  0  0  0  0  0  0  0
   -6.4604    7.0204    4.9485 C   0  0  0  0  0  0  0  0  0  0  0  0
   -5.3181    7.4418    5.6316 C   0  0  0  0  0  0  0  0  0  0  0  0
   -7.4709    6.4234    5.6348 F   0  0  0  0  0  0  0  0  0  0  0  0
   -2.4858    9.6484    5.7016 C   0  0  0  0  0  0  0  0  0  0  0  0
   -3.1547   11.0527    5.0573 S   0  0  0  0  0  0  0  0  0  0  0  0
   -2.5127    5.9627    6.2956 C   0  0  0  0  0  0  0  0  0  0  0  0
   -1.5647    5.2131    6.9880 C   0  0  0  0  0  0  0  0  0  0  0  0
   -0.3732    6.2498    7.5918 S   0  0  0  0  0  0  0  0  0  0  0  0
   -1.5719    3.7447    7.0975 C   0  0  0  0  0  0  0  0  0  0  0  0
   -0.5133    2.9486    7.5341 C   0  0  0  0  0  0  0  0  0  0  0  0
   -0.7770    1.5713    7.4083 C   0  0  0  0  0  0  0  0  0  0  0  0
    0.1306    0.5243    7.6701 C   0  0  0  0  0  0  0  0  0  0  0  0
    1.5087    0.7879    8.1188 C   0  0  0  0  0  0  0  0  0  0  0  0
    1.7557    1.1653    9.4454 C   0  0  0  0  0  0  0  0  0  0  0  0
    3.0626    1.4270    9.8675 C   0  0  0  0  0  0  0  0  0  0  0  0
    4.1290    1.3230    8.9676 C   0  0  0  0  0  0  0  0  0  0  0  0
    5.7962    1.7277    9.5086 S   0  0  0  0  0  0  0  0  0  0  0  0
    6.2011    0.0523   10.1221 C   0  0  0  0  0  0  0  0  0  0  0  0
    6.6882   -0.8404    8.9885 C   0  0  0  0  0  0  0  0  0  0  0  0
    3.8810    0.9571    7.6331 C   0  0  0  0  0  0  0  0  0  0  0  0
    4.8959    0.8917    6.7365 F   0  0  0  0  0  0  0  0  0  0  0  0
    2.5754    0.6802    7.2162 C   0  0  0  0  0  0  0  0  0  0  0  0
   -0.3020   -0.7792    7.3778 C   0  0  0  0  0  0  0  0  0  0  0  0
   -1.5685   -1.0564    6.8536 C   0  0  0  0  0  0  0  0  0  0  0  0
   -2.4804   -0.0100    6.5887 C   0  0  0  0  0  0  0  0  0  0  0  0
   -3.7796   -0.2555    5.9150 C   0  0  0  0  0  0  0  0  0  0  0  0
   -4.0358    0.3079    4.6540 C   0  0  0  0  0  0  0  0  0  0  0  0
   -5.2437    0.0550    4.0017 C   0  0  0  0  0  0  0  0  0  0  0  0
   -6.1940   -0.7940    4.5818 C   0  0  0  0  0  0  0  0  0  0  0  0
   -7.7284   -1.1447    3.7168 S   0  0  0  0  0  0  0  0  0  0  0  0
   -7.0838   -2.5980    2.8104 C   0  0  0  0  0  0  0  0  0  0  0  0
   -6.3600   -2.1576    1.5430 C   0  0  0  0  0  0  0  0  0  0  0  0
   -5.9487   -1.3539    5.8437 C   0  0  0  0  0  0  0  0  0  0  0  0
   -4.7490   -1.0840    6.5086 C   0  0  0  0  0  0  0  0  0  0  0  0
   -6.8759   -2.1554    6.4281 F   0  0  0  0  0  0  0  0  0  0  0  0
   -2.0420    1.2965    6.8806 C   0  0  0  0  0  0  0  0  0  0  0  0
   -2.8322    2.7488    6.5734 S   0  0  0  0  0  0  0  0  0  0  0  0
   -1.7337   -2.4051    6.5016 C   0  0  0  0  0  0  0  0  0  0  0  0
   -0.5952   -3.1818    6.7284 C   0  0  0  0  0  0  0  0  0  0  0  0
    0.6079   -2.1965    7.3899 S   0  0  0  0  0  0  0  0  0  0  0  0
   -0.3508   -4.4919    6.0990 C   0  0  0  0  0  0  0  0  0  0  0  0
    0.9189   -4.9745    5.7658 C   0  0  0  0  0  0  0  0  0  0  0  0
    0.8943   -5.9060    4.7110 C   0  0  0  0  0  0  0  0  0  0  0  0
    2.0129   -6.3699    3.9923 C   0  0  0  0  0  0  0  0  0  0  0  0
    3.3958   -6.0031    4.3613 C   0  0  0  0  0  0  0  0  0  0  0  0
    3.8406   -4.6830    4.2066 C   0  0  0  0  0  0  0  0  0  0  0  0
    5.1716   -4.3535    4.4751 C   0  0  0  0  0  0  0  0  0  0  0  0
    6.0728   -5.3453    4.8911 C   0  0  0  0  0  0  0  0  0  0  0  0
    7.7922   -4.9136    5.1803 S   0  0  0  0  0  0  0  0  0  0  0  0
    8.3213   -5.3484    3.4872 C   0  0  0  0  0  0  0  0  0  0  0  0
    9.6944   -4.7529    3.2069 C   0  0  0  0  0  0  0  0  0  0  0  0
    5.6272   -6.6639    5.0541 C   0  0  0  0  0  0  0  0  0  0  0  0
    6.4863   -7.6329    5.4652 F   0  0  0  0  0  0  0  0  0  0  0  0
    4.2957   -6.9960    4.7803 C   0  0  0  0  0  0  0  0  0  0  0  0
    1.7605   -7.0127    2.7669 C   0  0  0  0  0  0  0  0  0  0  0  0
    0.4669   -7.2439    2.2879 C   0  0  0  0  0  0  0  0  0  0  0  0
   -0.6530   -6.9027    3.0750 C   0  0  0  0  0  0  0  0  0  0  0  0
   -2.0347   -7.1327    2.6094 C   0  0  0  0  0  0  0  0  0  0  0  0
   -2.5761   -8.4263    2.6525 C   0  0  0  0  0  0  0  0  0  0  0  0
   -3.9240   -8.6333    2.3467 C   0  0  0  0  0  0  0  0  0  0  0  0
   -4.7384   -7.5501    1.9923 C   0  0  0  0  0  0  0  0  0  0  0  0
   -6.4906   -7.8125    1.6882 S   0  0  0  0  0  0  0  0  0  0  0  0
   -7.0244   -7.3401    3.3753 C   0  0  0  0  0  0  0  0  0  0  0  0
   -6.7981   -8.4756    4.3678 C   0  0  0  0  0  0  0  0  0  0  0  0
   -4.1874   -6.2662    1.8981 C   0  0  0  0  0  0  0  0  0  0  0  0
   -2.8398   -6.0566    2.2089 C   0  0  0  0  0  0  0  0  0  0  0  0
   -4.9647   -5.2110    1.5492 F   0  0  0  0  0  0  0  0  0  0  0  0
   -0.4002   -6.1992    4.2661 C   0  0  0  0  0  0  0  0  0  0  0  0
   -1.4993   -5.3005    5.1622 S   0  0  0  0  0  0  0  0  0  0  0  0
    0.4298   -7.5484    0.9140 C   0  0  0  0  0  0  0  0  0  0  0  0
    1.6851   -7.4904    0.3011 C   0  0  0  0  0  0  0  0  0  0  0  0
    2.8374   -7.1588    1.4907 S   0  0  0  0  0  0  0  0  0  0  0  0
    1.8573   -6.9760   -1.0614 C   0  0  0  0  0  0  0  0  0  0  0  0
    1.3051   -7.4842   -2.2416 C   0  0  0  0  0  0  0  0  0  0  0  0
    1.4416   -6.5970   -3.3324 C   0  0  0  0  0  0  0  0  0  0  0  0
    0.9741   -6.7853   -4.6567 C   0  0  0  0  0  0  0  0  0  0  0  0
    0.3991   -8.0716   -5.1180 C   0  0  0  0  0  0  0  0  0  0  0  0
   -0.8501   -8.1068   -5.7623 C   0  0  0  0  0  0  0  0  0  0  0  0
   -1.3438   -9.3071   -6.2801 C   0  0  0  0  0  0  0  0  0  0  0  0
   -0.6052  -10.4876   -6.1466 C   0  0  0  0  0  0  0  0  0  0  0  0
   -1.2122  -12.0119   -6.8830 S   0  0  0  0  0  0  0  0  0  0  0  0
   -2.0692  -12.6069   -5.3833 C   0  0  0  0  0  0  0  0  0  0  0  0
   -3.4813  -12.0432   -5.3086 C   0  0  0  0  0  0  0  0  0  0  0  0
    0.6306  -10.4654   -5.4872 C   0  0  0  0  0  0  0  0  0  0  0  0
    1.3606  -11.6020   -5.3561 F   0  0  0  0  0  0  0  0  0  0  0  0
    1.1291   -9.2622   -4.9738 C   0  0  0  0  0  0  0  0  0  0  0  0
    1.1192   -5.6903   -5.5411 C   0  0  0  0  0  0  0  0  0  0  0  0
    1.6818   -4.4756   -5.1431 C   0  0  0  0  0  0  0  0  0  0  0  0
    2.1567   -4.2967   -3.8368 C   0  0  0  0  0  0  0  0  0  0  0  0
    2.6080   -2.9789   -3.3557 C   0  0  0  0  0  0  0  0  0  0  0  0
    1.6717   -2.0810   -2.8214 C   0  0  0  0  0  0  0  0  0  0  0  0
    2.0833   -0.8221   -2.3798 C   0  0  0  0  0  0  0  0  0  0  0  0
    3.4303   -0.4497   -2.4721 C   0  0  0  0  0  0  0  0  0  0  0  0
    3.9477    1.1682   -1.8939 S   0  0  0  0  0  0  0  0  0  0  0  0
    4.2153    0.5978   -0.1832 C   0  0  0  0  0  0  0  0  0  0  0  0
    4.7808    1.7268    0.6649 C   0  0  0  0  0  0  0  0  0  0  0  0
    4.3662   -1.3455   -3.0120 C   0  0  0  0  0  0  0  0  0  0  0  0
    3.9530   -2.6070   -3.4579 C   0  0  0  0  0  0  0  0  0  0  0  0
    5.6741   -0.9952   -3.1094 F   0  0  0  0  0  0  0  0  0  0  0  0
    2.0414   -5.3831   -2.9644 C   0  0  0  0  0  0  0  0  0  0  0  0
    2.4563   -5.4256   -1.3454 S   0  0  0  0  0  0  0  0  0  0  0  0
    1.6970   -3.5034   -6.1474 C   0  0  0  0  0  0  0  0  0  0  0  0
    1.1521   -3.9466   -7.3474 C   0  0  0  0  0  0  0  0  0  0  0  0
    0.6568   -5.5529   -7.1627 S   0  0  0  0  0  0  0  0  0  0  0  0
    1.0057   -3.0626   -8.5168 C   0  0  0  0  0  0  0  0  0  0  0  0
    1.3769   -1.8046   -8.4531 O   0  0  0  0  0  0  0  0  0  0  0  0
    1.1408   -1.2089   -9.5942 C   0  0  0  0  0  0  0  0  0  0  0  0
    0.6186   -2.1353  -10.4858 C   0  0  0  0  0  0  0  0  0  0  0  0
    0.5004   -3.3322   -9.7888 C   0  0  0  0  0  0  0  0  0  0  0  0
   -0.0203   -4.6393  -10.3236 C   0  0  0  0  0  0  0  0  0  0  0  0
   -0.3782   -4.5276  -11.6554 F   0  0  0  0  0  0  0  0  0  0  0  0
   -1.1349   -5.0248   -9.5997 F   0  0  0  0  0  0  0  0  0  0  0  0
    0.9585   -5.6093  -10.2165 F   0  0  0  0  0  0  0  0  0  0  0  0
    0.3131   -1.9644  -11.8395 O   0  0  0  0  0  0  0  0  0  0  0  0
    1.1481   -1.2514  -12.7460 C   0  0  0  0  0  0  0  0  0  0  0  0
    1.3598    0.2340   -9.7574 C   0  0  0  0  0  0  0  0  0  0  0  0
    2.2898    0.9562   -9.0109 C   0  0  0  0  0  0  0  0  0  0  0  0
    2.1064    2.3441   -9.0948 C   0  0  0  0  0  0  0  0  0  0  0  0
    2.8358    3.3216   -8.3897 C   0  0  0  0  0  0  0  0  0  0  0  0
    3.9589    2.9671   -7.5032 C   0  0  0  0  0  0  0  0  0  0  0  0
    3.8649    3.1997   -6.1229 C   0  0  0  0  0  0  0  0  0  0  0  0
    4.9305    2.8736   -5.2816 C   0  0  0  0  0  0  0  0  0  0  0  0
    6.1002    2.3151   -5.8107 C   0  0  0  0  0  0  0  0  0  0  0  0
    7.4807    1.9533   -4.7208 S   0  0  0  0  0  0  0  0  0  0  0  0
    8.1881    3.6288   -4.8700 C   0  0  0  0  0  0  0  0  0  0  0  0
    9.4532    3.7411   -4.0300 C   0  0  0  0  0  0  0  0  0  0  0  0
    6.1966    2.0680   -7.1873 C   0  0  0  0  0  0  0  0  0  0  0  0
    7.3205    1.5170   -7.7115 F   0  0  0  0  0  0  0  0  0  0  0  0
    5.1280    2.3932   -8.0300 C   0  0  0  0  0  0  0  0  0  0  0  0
    2.4176    4.6571   -8.5430 C   0  0  0  0  0  0  0  0  0  0  0  0
    1.3362    5.0216   -9.3498 C   0  0  0  0  0  0  0  0  0  0  0  0
    0.6034    4.0396  -10.0490 C   0  0  0  0  0  0  0  0  0  0  0  0
   -0.5780    4.3726  -10.8669 C   0  0  0  0  0  0  0  0  0  0  0  0
   -1.7419    4.8708  -10.2598 C   0  0  0  0  0  0  0  0  0  0  0  0
   -2.8855    5.1095  -11.0256 C   0  0  0  0  0  0  0  0  0  0  0  0
   -2.8773    4.8524  -12.4040 C   0  0  0  0  0  0  0  0  0  0  0  0
   -4.3575    5.1512  -13.3785 S   0  0  0  0  0  0  0  0  0  0  0  0
   -4.9312    3.4146  -13.3677 C   0  0  0  0  0  0  0  0  0  0  0  0
   -5.6121    3.0591  -12.0515 C   0  0  0  0  0  0  0  0  0  0  0  0
   -1.7084    4.3774  -13.0166 C   0  0  0  0  0  0  0  0  0  0  0  0
   -0.5665    4.1287  -12.2479 C   0  0  0  0  0  0  0  0  0  0  0  0
   -1.6820    4.1354  -14.3516 F   0  0  0  0  0  0  0  0  0  0  0  0
    1.0191    2.7063   -9.8970 C   0  0  0  0  0  0  0  0  0  0  0  0
    0.2726    1.3115  -10.4766 S   0  0  0  0  0  0  0  0  0  0  0  0
    1.1034    6.4057   -9.3676 C   0  0  0  0  0  0  0  0  0  0  0  0
    2.0002    7.1222   -8.5790 C   0  0  0  0  0  0  0  0  0  0  0  0
    3.0795    6.0461   -7.8600 S   0  0  0  0  0  0  0  0  0  0  0  0
   -1.9423   13.1638    5.5012 H   0  0  0  0  0  0  0  0  0  0  0  0
   -0.1893   11.8135    6.8624 H   0  0  0  0  0  0  0  0  0  0  0  0
   -0.2835    8.6848    9.7399 H   0  0  0  0  0  0  0  0  0  0  0  0
    1.6385    9.3646   11.1234 H   0  0  0  0  0  0  0  0  0  0  0  0
    5.6432    9.0839   11.5605 H   0  0  0  0  0  0  0  0  0  0  0  0
    4.2077    8.2396   10.8849 H   0  0  0  0  0  0  0  0  0  0  0  0
    5.1295    8.5050    8.5764 H   0  0  0  0  0  0  0  0  0  0  0  0
    6.5086    9.4897    9.2237 H   0  0  0  0  0  0  0  0  0  0  0  0
    6.3607    7.7386    9.6452 H   0  0  0  0  0  0  0  0  0  0  0  0
    1.7916   10.0167    6.2044 H   0  0  0  0  0  0  0  0  0  0  0  0
   -3.5390    8.6712    2.9947 H   0  0  0  0  0  0  0  0  0  0  0  0
   -5.5696    7.9564    1.7944 H   0  0  0  0  0  0  0  0  0  0  0  0
   -6.9891    4.4258    3.3705 H   0  0  0  0  0  0  0  0  0  0  0  0
   -6.2110    5.0418    1.8544 H   0  0  0  0  0  0  0  0  0  0  0  0
   -7.6161    3.0326    1.4115 H   0  0  0  0  0  0  0  0  0  0  0  0
   -9.0629    3.8862    2.0753 H   0  0  0  0  0  0  0  0  0  0  0  0
   -8.2705    4.4884    0.5613 H   0  0  0  0  0  0  0  0  0  0  0  0
   -5.2514    7.2885    6.7030 H   0  0  0  0  0  0  0  0  0  0  0  0
   -3.3535    5.5172    5.7819 H   0  0  0  0  0  0  0  0  0  0  0  0
    0.4296    3.3521    7.8840 H   0  0  0  0  0  0  0  0  0  0  0  0
    0.9388    1.2537   10.1500 H   0  0  0  0  0  0  0  0  0  0  0  0
    3.2433    1.7254   10.8930 H   0  0  0  0  0  0  0  0  0  0  0  0
    5.3230   -0.4074   10.6233 H   0  0  0  0  0  0  0  0  0  0  0  0
    7.0128    0.1458   10.8759 H   0  0  0  0  0  0  0  0  0  0  0  0
    7.0564   -1.8037    9.4025 H   0  0  0  0  0  0  0  0  0  0  0  0
    7.5226   -0.3477    8.4448 H   0  0  0  0  0  0  0  0  0  0  0  0
    5.8587   -1.0554    8.2823 H   0  0  0  0  0  0  0  0  0  0  0  0
    2.3910    0.4003    6.1848 H   0  0  0  0  0  0  0  0  0  0  0  0
   -3.2974    0.9371    4.1745 H   0  0  0  0  0  0  0  0  0  0  0  0
   -5.4316    0.5044    3.0349 H   0  0  0  0  0  0  0  0  0  0  0  0
   -6.4115   -3.2091    3.4509 H   0  0  0  0  0  0  0  0  0  0  0  0
   -7.9459   -3.2316    2.5184 H   0  0  0  0  0  0  0  0  0  0  0  0
   -5.4158   -1.6348    1.7916 H   0  0  0  0  0  0  0  0  0  0  0  0
   -7.0093   -1.4813    0.9482 H   0  0  0  0  0  0  0  0  0  0  0  0
   -6.1114   -3.0396    0.9179 H   0  0  0  0  0  0  0  0  0  0  0  0
   -4.5662   -1.5277    7.4769 H   0  0  0  0  0  0  0  0  0  0  0  0
   -2.6140   -2.7850    5.9939 H   0  0  0  0  0  0  0  0  0  0  0  0
    1.8333   -4.5528    6.1643 H   0  0  0  0  0  0  0  0  0  0  0  0
    3.1608   -3.9142    3.8587 H   0  0  0  0  0  0  0  0  0  0  0  0
    5.5065   -3.3335    4.3430 H   0  0  0  0  0  0  0  0  0  0  0  0
    8.3747   -6.4548    3.3978 H   0  0  0  0  0  0  0  0  0  0  0  0
    7.5946   -4.9572    2.7415 H   0  0  0  0  0  0  0  0  0  0  0  0
    9.6443   -3.6436    3.2392 H   0  0  0  0  0  0  0  0  0  0  0  0
   10.0332   -5.0634    2.1953 H   0  0  0  0  0  0  0  0  0  0  0  0
   10.4323   -5.1127    3.9557 H   0  0  0  0  0  0  0  0  0  0  0  0
    3.9636   -8.0225    4.8862 H   0  0  0  0  0  0  0  0  0  0  0  0
   -1.9650   -9.2663    2.9610 H   0  0  0  0  0  0  0  0  0  0  0  0
   -4.3428   -9.6306    2.4164 H   0  0  0  0  0  0  0  0  0  0  0  0
   -6.4914   -6.4249    3.7104 H   0  0  0  0  0  0  0  0  0  0  0  0
   -8.1103   -7.1093    3.3429 H   0  0  0  0  0  0  0  0  0  0  0  0
   -5.7124   -8.6541    4.5125 H   0  0  0  0  0  0  0  0  0  0  0  0
   -7.2405   -8.2021    5.3509 H   0  0  0  0  0  0  0  0  0  0  0  0
   -7.2832   -9.4064    4.0028 H   0  0  0  0  0  0  0  0  0  0  0  0
   -2.4310   -5.0556    2.1683 H   0  0  0  0  0  0  0  0  0  0  0  0
   -0.4938   -7.5867    0.3425 H   0  0  0  0  0  0  0  0  0  0  0  0
    0.7872   -8.4326   -2.2897 H   0  0  0  0  0  0  0  0  0  0  0  0
   -1.4315   -7.2016   -5.8794 H   0  0  0  0  0  0  0  0  0  0  0  0
   -2.2935   -9.3125   -6.7985 H   0  0  0  0  0  0  0  0  0  0  0  0
   -1.4975  -12.3425   -4.4678 H   0  0  0  0  0  0  0  0  0  0  0  0
   -2.1333  -13.7134   -5.4407 H   0  0  0  0  0  0  0  0  0  0  0  0
   -4.0419  -12.2858   -6.2360 H   0  0  0  0  0  0  0  0  0  0  0  0
   -3.4551  -10.9422   -5.1759 H   0  0  0  0  0  0  0  0  0  0  0  0
   -4.0151  -12.4882   -4.4427 H   0  0  0  0  0  0  0  0  0  0  0  0
    2.0982   -9.2540   -4.4917 H   0  0  0  0  0  0  0  0  0  0  0  0
    0.6269   -2.3583   -2.7505 H   0  0  0  0  0  0  0  0  0  0  0  0
    1.3544   -0.1397   -1.9606 H   0  0  0  0  0  0  0  0  0  0  0  0
    3.2513    0.2579    0.2498 H   0  0  0  0  0  0  0  0  0  0  0  0
    4.9309   -0.2516   -0.1801 H   0  0  0  0  0  0  0  0  0  0  0  0
    4.8668    1.3914    1.7197 H   0  0  0  0  0  0  0  0  0  0  0  0
    4.1145    2.6131    0.6241 H   0  0  0  0  0  0  0  0  0  0  0  0
    5.7891    2.0066    0.2955 H   0  0  0  0  0  0  0  0  0  0  0  0
    4.6797   -3.2952   -3.8698 H   0  0  0  0  0  0  0  0  0  0  0  0
    2.0858   -2.5042   -6.0067 H   0  0  0  0  0  0  0  0  0  0  0  0
    0.8482   -1.5054  -13.7826 H   0  0  0  0  0  0  0  0  0  0  0  0
    2.2090   -1.5495  -12.6017 H   0  0  0  0  0  0  0  0  0  0  0  0
    1.0408   -0.1590  -12.6153 H   0  0  0  0  0  0  0  0  0  0  0  0
    3.0314    0.4833   -8.3788 H   0  0  0  0  0  0  0  0  0  0  0  0
    2.9645    3.6271   -5.7011 H   0  0  0  0  0  0  0  0  0  0  0  0
    4.8510    3.0642   -4.2191 H   0  0  0  0  0  0  0  0  0  0  0  0
    7.4470    4.3792   -4.5203 H   0  0  0  0  0  0  0  0  0  0  0  0
    8.4329    3.8353   -5.9344 H   0  0  0  0  0  0  0  0  0  0  0  0
    9.2216    3.5343   -2.9637 H   0  0  0  0  0  0  0  0  0  0  0  0
    9.8672    4.7688   -4.1152 H   0  0  0  0  0  0  0  0  0  0  0  0
   10.2144    3.0169   -4.3891 H   0  0  0  0  0  0  0  0  0  0  0  0
    5.2134    2.2047   -9.0939 H   0  0  0  0  0  0  0  0  0  0  0  0
   -1.7658    5.0594   -9.1945 H   0  0  0  0  0  0  0  0  0  0  0  0
   -3.7817    5.4876  -10.5476 H   0  0  0  0  0  0  0  0  0  0  0  0
   -4.0866    2.7198  -13.5626 H   0  0  0  0  0  0  0  0  0  0  0  0
   -5.6662    3.2960  -14.1906 H   0  0  0  0  0  0  0  0  0  0  0  0
   -4.8750    3.0608  -11.2220 H   0  0  0  0  0  0  0  0  0  0  0  0
   -6.0519    2.0406  -12.1283 H   0  0  0  0  0  0  0  0  0  0  0  0
   -6.4240    3.7859  -11.8296 H   0  0  0  0  0  0  0  0  0  0  0  0
    0.3258    3.7442  -12.7259 H   0  0  0  0  0  0  0  0  0  0  0  0
    0.3183    6.8842   -9.9402 H   0  0  0  0  0  0  0  0  0  0  0  0
    2.0072    8.1961   -8.4546 H   0  0  0  0  0  0  0  0  0  0  0  0
  1  2  2  0
  2  3  1  0
  3  4  2  0
  4  5  1  0
  5  6  2  0
  6  7  1  0
  7  8  2  0
  8  9  1  0
  9 10  1  0
 10 11  1  0
  8 12  1  0
 12 13  1  0
 12 14  2  0
  4 15  1  0
 15 16  2  0
 16 17  1  0
 17 18  1  0
 18 19  2  0
 19 20  1  0
 20 21  2  0
 21 22  1  0
 22 23  1  0
 23 24  1  0
 21 25  1  0
 25 26  2  0
 25 27  1  0
 17 28  2  0
 28 29  1  0
 16 30  1  0
 30 31  2  0
 31 32  1  0
 31 33  1  0
 33 34  2  0
 34 35  1  0
 35 36  2  0
 36 37  1  0
 37 38  2  0
 38 39  1  0
 39 40  2  0
 40 41  1  0
 41 42  1  0
 42 43  1  0
 40 44  1  0
 44 45  1  0
 44 46  2  0
 36 47  1  0
 47 48  2  0
 48 49  1  0
 49 50  1  0
 50 51  2  0
 51 52  1  0
 52 53  2  0
 53 54  1  0
 54 55  1  0
 55 56  1  0
 53 57  1  0
 57 58  2  0
 57 59  1  0
 49 60  2  0
 60 61  1  0
 48 62  1  0
 62 63  2  0
 63 64  1  0
 63 65  1  0
 65 66  2  0
 66 67  1  0
 67 68  2  0
 68 69  1  0
 69 70  2  0
 70 71  1  0
 71 72  2  0
 72 73  1  0
 73 74  1  0
 74 75  1  0
 72 76  1  0
 76 77  1  0
 76 78  2  0
 68 79  1  0
 79 80  2  0
 80 81  1  0
 81 82  1  0
 82 83  2  0
 83 84  1  0
 84 85  2  0
 85 86  1  0
 86 87  1  0
 87 88  1  0
 85 89  1  0
 89 90  2  0
 89 91  1  0
 81 92  2  0
 92 93  1  0
 80 94  1  0
 94 95  2  0
 95 96  1  0
 95 97  1  0
 97 98  2  0
 98 99  1  0
 99100  2  0
100101  1  0
101102  2  0
102103  1  0
103104  2  0
104105  1  0
105106  1  0
106107  1  0
104108  1  0
108109  1  0
108110  2  0
100111  1  0
111112  2  0
112113  1  0
113114  1  0
114115  2  0
115116  1  0
116117  2  0
117118  1  0
118119  1  0
119120  1  0
117121  1  0
121122  2  0
121123  1  0
113124  2  0
124125  1  0
112126  1  0
126127  2  0
127128  1  0
127129  1  0
129130  1  0
130131  1  0
131132  2  0
132133  1  0
133134  1  0
134135  1  0
134136  1  0
134137  1  0
132138  1  0
138139  1  0
131140  1  0
140141  2  0
141142  1  0
142143  2  0
143144  1  0
144145  2  0
145146  1  0
146147  2  0
147148  1  0
148149  1  0
149150  1  0
147151  1  0
151152  1  0
151153  2  0
143154  1  0
154155  2  0
155156  1  0
156157  1  0
157158  2  0
158159  1  0
159160  2  0
160161  1  0
161162  1  0
162163  1  0
160164  1  0
164165  2  0
164166  1  0
156167  2  0
167168  1  0
155169  1  0
169170  2  0
170171  1  0
 29  1  1  0
 61 33  1  0
 93 65  1  0
125 97  1  0
133129  2  0
168140  1  0
 28  3  1  0
 60 35  1  0
 92 67  1  0
124 99  1  0
167142  1  0
 14  5  1  0
 32 15  1  0
 46 37  1  0
 64 47  1  0
 78 69  1  0
 96 79  1  0
110101  1  0
128111  1  0
153144  1  0
171154  1  0
 26 18  1  0
 58 50  1  0
 90 82  1  0
122114  1  0
165157  1  0
  1172  1  0
  2173  1  0
  6174  1  0
  7175  1  0
 10176  1  0
 10177  1  0
 11178  1  0
 11179  1  0
 11180  1  0
 14181  1  0
 19182  1  0
 20183  1  0
 23184  1  0
 23185  1  0
 24186  1  0
 24187  1  0
 24188  1  0
 26189  1  0
 30190  1  0
 34191  1  0
 38192  1  0
 39193  1  0
 42194  1  0
 42195  1  0
 43196  1  0
 43197  1  0
 43198  1  0
 46199  1  0
 51200  1  0
 52201  1  0
 55202  1  0
 55203  1  0
 56204  1  0
 56205  1  0
 56206  1  0
 58207  1  0
 62208  1  0
 66209  1  0
 70210  1  0
 71211  1  0
 74212  1  0
 74213  1  0
 75214  1  0
 75215  1  0
 75216  1  0
 78217  1  0
 83218  1  0
 84219  1  0
 87220  1  0
 87221  1  0
 88222  1  0
 88223  1  0
 88224  1  0
 90225  1  0
 94226  1  0
 98227  1  0
102228  1  0
103229  1  0
106230  1  0
106231  1  0
107232  1  0
107233  1  0
107234  1  0
110235  1  0
115236  1  0
116237  1  0
119238  1  0
119239  1  0
120240  1  0
120241  1  0
120242  1  0
122243  1  0
126244  1  0
139245  1  0
139246  1  0
139247  1  0
141248  1  0
145249  1  0
146250  1  0
149251  1  0
149252  1  0
150253  1  0
150254  1  0
150255  1  0
153256  1  0
158257  1  0
159258  1  0
162259  1  0
162260  1  0
163261  1  0
163262  1  0
163263  1  0
165264  1  0
169265  1  0
170266  1  0
M  END

