
     RDKit          3D

236263  0  0  0  0  0  0  0  0999 V2000
    0.7589    5.0923  -13.5066 C   0  0  0  0  0  0  0  0  0  0  0  0
    1.8260    4.3292  -13.0428 C   0  0  0  0  0  0  0  0  0  0  0  0
    2.1913    4.6396  -11.7217 C   0  0  0  0  0  0  0  0  0  0  0  0
    3.2357    4.0474  -10.9859 C   0  0  0  0  0  0  0  0  0  0  0  0
    3.9969    2.8982  -11.5016 C   0  0  0  0  0  0  0  0  0  0  0  0
    5.6276    2.9233  -11.9066 S   0  0  0  0  0  0  0  0  0  0  0  0
    5.7125    1.3116  -12.3898 C   0  0  0  0  0  0  0  0  0  0  0  0
    6.9170    0.6749  -13.0137 C   0  0  0  0  0  0  0  0  0  0  0  0
    6.8829    0.8471  -14.5275 C   0  0  0  0  0  0  0  0  0  0  0  0
    4.4499    0.7348  -12.2485 C   0  0  0  0  0  0  0  0  0  0  0  0
    4.0905   -0.9310  -12.6802 Cl  0  0  0  0  0  0  0  0  0  0  0  0
    3.4912    1.6222  -11.7398 C   0  0  0  0  0  0  0  0  0  0  0  0
    1.8236    1.1660  -11.4195 Cl  0  0  0  0  0  0  0  0  0  0  0  0
    3.4604    4.5429   -9.6913 C   0  0  0  0  0  0  0  0  0  0  0  0
    2.6588    5.5323   -9.1143 C   0  0  0  0  0  0  0  0  0  0  0  0
    1.6025    6.1139   -9.8458 C   0  0  0  0  0  0  0  0  0  0  0  0
    0.7249    7.1411   -9.2623 C   0  0  0  0  0  0  0  0  0  0  0  0
   -0.9133    6.9303   -8.9395 S   0  0  0  0  0  0  0  0  0  0  0  0
   -1.1599    8.4627   -8.2860 C   0  0  0  0  0  0  0  0  0  0  0  0
   -2.4546    8.9377   -7.6982 C   0  0  0  0  0  0  0  0  0  0  0  0
   -2.4876    8.6808   -6.1967 C   0  0  0  0  0  0  0  0  0  0  0  0
    0.0489    9.1557   -8.2992 C   0  0  0  0  0  0  0  0  0  0  0  0
    1.1039    8.4153   -8.8523 C   0  0  0  0  0  0  0  0  0  0  0  0
    2.7368    9.0429   -9.0294 Cl  0  0  0  0  0  0  0  0  0  0  0  0
    0.2395   10.7861   -7.6754 Cl  0  0  0  0  0  0  0  0  0  0  0  0
    1.4043    5.6458  -11.1544 C   0  0  0  0  0  0  0  0  0  0  0  0
    0.2670    6.1515  -12.2872 S   0  0  0  0  0  0  0  0  0  0  0  0
    2.9781    5.7848   -7.7675 C   0  0  0  0  0  0  0  0  0  0  0  0
    4.0389    5.0086   -7.3068 C   0  0  0  0  0  0  0  0  0  0  0  0
    4.5705    3.9963   -8.5535 S   0  0  0  0  0  0  0  0  0  0  0  0
    4.4759    4.8917   -5.9108 C   0  0  0  0  0  0  0  0  0  0  0  0
    5.5531    4.1190   -5.4786 C   0  0  0  0  0  0  0  0  0  0  0  0
    5.5546    3.9024   -4.0908 C   0  0  0  0  0  0  0  0  0  0  0  0
    6.4038    3.0132   -3.3993 C   0  0  0  0  0  0  0  0  0  0  0  0
    7.5416    2.3487   -4.0709 C   0  0  0  0  0  0  0  0  0  0  0  0
    7.7031    0.6856   -4.2769 S   0  0  0  0  0  0  0  0  0  0  0  0
    9.1596    0.7482   -5.1147 C   0  0  0  0  0  0  0  0  0  0  0  0
    9.8760   -0.4466   -5.6705 C   0  0  0  0  0  0  0  0  0  0  0  0
    9.3895   -0.7580   -7.0815 C   0  0  0  0  0  0  0  0  0  0  0  0
    9.5311    2.0840   -5.2672 C   0  0  0  0  0  0  0  0  0  0  0  0
   10.9781    2.5938   -6.1199 Cl  0  0  0  0  0  0  0  0  0  0  0  0
    8.6274    2.9805   -4.6753 C   0  0  0  0  0  0  0  0  0  0  0  0
    8.8597    4.7257   -4.6720 Cl  0  0  0  0  0  0  0  0  0  0  0  0
    6.0423    2.6970   -2.0792 C   0  0  0  0  0  0  0  0  0  0  0  0
    4.9352    3.2699   -1.4452 C   0  0  0  0  0  0  0  0  0  0  0  0
    4.1552    4.2418   -2.1017 C   0  0  0  0  0  0  0  0  0  0  0  0
    2.9697    4.8548   -1.4731 C   0  0  0  0  0  0  0  0  0  0  0  0
    1.5873    4.0285   -0.9852 S   0  0  0  0  0  0  0  0  0  0  0  0
    0.7692    5.3744   -0.3957 C   0  0  0  0  0  0  0  0  0  0  0  0
   -0.5575    5.3232    0.3079 C   0  0  0  0  0  0  0  0  0  0  0  0
   -0.3846    4.8784    1.7554 C   0  0  0  0  0  0  0  0  0  0  0  0
    1.5784    6.4976   -0.5706 C   0  0  0  0  0  0  0  0  0  0  0  0
    2.8039    6.2083   -1.1864 C   0  0  0  0  0  0  0  0  0  0  0  0
    4.0325    7.4243   -1.5091 Cl  0  0  0  0  0  0  0  0  0  0  0  0
    1.1284    8.1149   -0.0432 Cl  0  0  0  0  0  0  0  0  0  0  0  0
    4.4819    4.5168   -3.4391 C   0  0  0  0  0  0  0  0  0  0  0  0
    3.5392    5.3309   -4.5762 S   0  0  0  0  0  0  0  0  0  0  0  0
    4.6443    2.6746   -0.2102 C   0  0  0  0  0  0  0  0  0  0  0  0
    5.4885    1.6105    0.1031 C   0  0  0  0  0  0  0  0  0  0  0  0
    6.6455    1.4546   -1.1145 S   0  0  0  0  0  0  0  0  0  0  0  0
    5.0898    0.4965    0.9666 C   0  0  0  0  0  0  0  0  0  0  0  0
    5.9258   -0.5211    1.4360 C   0  0  0  0  0  0  0  0  0  0  0  0
    5.2125   -1.6368    1.9174 C   0  0  0  0  0  0  0  0  0  0  0  0
    5.7583   -2.8332    2.4414 C   0  0  0  0  0  0  0  0  0  0  0  0
    7.1996   -2.9627    2.7235 C   0  0  0  0  0  0  0  0  0  0  0  0
    8.2322   -4.0768    1.9985 S   0  0  0  0  0  0  0  0  0  0  0  0
    9.6339   -3.5408    2.7620 C   0  0  0  0  0  0  0  0  0  0  0  0
   11.0085   -4.0884    2.5134 C   0  0  0  0  0  0  0  0  0  0  0  0
   11.7699   -3.2128    1.5237 C   0  0  0  0  0  0  0  0  0  0  0  0
    9.3096   -2.4677    3.5909 C   0  0  0  0  0  0  0  0  0  0  0  0
   10.4910   -1.5904    4.5543 Cl  0  0  0  0  0  0  0  0  0  0  0  0
    7.9447   -2.1486    3.5743 C   0  0  0  0  0  0  0  0  0  0  0  0
    7.2401   -0.8713    4.5629 Cl  0  0  0  0  0  0  0  0  0  0  0  0
    4.8567   -3.8808    2.7112 C   0  0  0  0  0  0  0  0  0  0  0  0
    3.4848   -3.7454    2.4800 C   0  0  0  0  0  0  0  0  0  0  0  0
    2.9327   -2.5303    2.0427 C   0  0  0  0  0  0  0  0  0  0  0  0
    1.4764   -2.3626    1.8726 C   0  0  0  0  0  0  0  0  0  0  0  0
    0.6876   -2.2718    0.3892 S   0  0  0  0  0  0  0  0  0  0  0  0
   -0.8767   -2.3493    1.0186 C   0  0  0  0  0  0  0  0  0  0  0  0
   -2.1323   -2.2882    0.2025 C   0  0  0  0  0  0  0  0  0  0  0  0
   -2.5098   -0.8446   -0.0862 C   0  0  0  0  0  0  0  0  0  0  0  0
   -0.7945   -2.4360    2.4068 C   0  0  0  0  0  0  0  0  0  0  0  0
    0.5213   -2.4546    2.8845 C   0  0  0  0  0  0  0  0  0  0  0  0
    0.9224   -2.5983    4.5925 Cl  0  0  0  0  0  0  0  0  0  0  0  0
   -2.1963   -2.5656    3.4538 Cl  0  0  0  0  0  0  0  0  0  0  0  0
    3.8297   -1.4962    1.7653 C   0  0  0  0  0  0  0  0  0  0  0  0
    3.4818    0.0102    1.1178 S   0  0  0  0  0  0  0  0  0  0  0  0
    2.7568   -4.8933    2.7671 C   0  0  0  0  0  0  0  0  0  0  0  0
    3.5277   -5.9239    3.2874 C   0  0  0  0  0  0  0  0  0  0  0  0
    5.1418   -5.4130    3.3827 S   0  0  0  0  0  0  0  0  0  0  0  0
    2.8981   -7.0972    3.8998 C   0  0  0  0  0  0  0  0  0  0  0  0
    2.6126   -7.0711    5.2690 C   0  0  0  0  0  0  0  0  0  0  0  0
    1.2836   -7.4252    5.5753 C   0  0  0  0  0  0  0  0  0  0  0  0
    0.6289   -7.1639    6.7946 C   0  0  0  0  0  0  0  0  0  0  0  0
    1.3699   -6.8040    8.0128 C   0  0  0  0  0  0  0  0  0  0  0  0
    2.0404   -5.2971    8.3399 S   0  0  0  0  0  0  0  0  0  0  0  0
    2.7061   -5.7331    9.8246 C   0  0  0  0  0  0  0  0  0  0  0  0
    3.4809   -4.8058   10.7149 C   0  0  0  0  0  0  0  0  0  0  0  0
    2.5816   -4.2138   11.7931 C   0  0  0  0  0  0  0  0  0  0  0  0
    2.3879   -7.0627   10.0904 C   0  0  0  0  0  0  0  0  0  0  0  0
    2.8927   -7.9117   11.5435 Cl  0  0  0  0  0  0  0  0  0  0  0  0
    1.6403   -7.6653    9.0699 C   0  0  0  0  0  0  0  0  0  0  0  0
    1.1100   -9.3412    9.1116 Cl  0  0  0  0  0  0  0  0  0  0  0  0
   -0.7731   -7.1695    6.7761 C   0  0  0  0  0  0  0  0  0  0  0  0
   -1.5110   -7.4714    5.6302 C   0  0  0  0  0  0  0  0  0  0  0  0
   -0.8560   -7.8563    4.4423 C   0  0  0  0  0  0  0  0  0  0  0  0
   -1.5740   -7.9607    3.1589 C   0  0  0  0  0  0  0  0  0  0  0  0
   -2.2921   -6.6558    2.3753 S   0  0  0  0  0  0  0  0  0  0  0  0
   -2.5857   -7.4545    0.9225 C   0  0  0  0  0  0  0  0  0  0  0  0
   -3.1176   -6.7927   -0.3126 C   0  0  0  0  0  0  0  0  0  0  0  0
   -1.9744   -6.3400   -1.2119 C   0  0  0  0  0  0  0  0  0  0  0  0
   -2.0835   -8.7518    1.0192 C   0  0  0  0  0  0  0  0  0  0  0  0
   -1.5197   -9.0361    2.2721 C   0  0  0  0  0  0  0  0  0  0  0  0
   -0.7589  -10.5747    2.6609 Cl  0  0  0  0  0  0  0  0  0  0  0  0
   -2.1086   -9.9007   -0.3130 Cl  0  0  0  0  0  0  0  0  0  0  0  0
    0.5485   -7.8267    4.4588 C   0  0  0  0  0  0  0  0  0  0  0  0
    1.5494   -7.7493    3.1196 S   0  0  0  0  0  0  0  0  0  0  0  0
   -2.8827   -7.1994    5.7680 C   0  0  0  0  0  0  0  0  0  0  0  0
   -3.2160   -6.6326    7.0056 C   0  0  0  0  0  0  0  0  0  0  0  0
   -1.8086   -6.5445    7.9414 S   0  0  0  0  0  0  0  0  0  0  0  0
   -4.4892   -5.9435    7.3410 C   0  0  0  0  0  0  0  0  0  0  0  0
   -4.6816   -5.3991    8.6386 C   0  0  0  0  0  0  0  0  0  0  0  0
   -5.7761   -4.5640    8.9189 C   0  0  0  0  0  0  0  0  0  0  0  0
   -6.6845   -4.2990    7.9004 C   0  0  0  0  0  0  0  0  0  0  0  0
   -6.5410   -4.8680    6.6497 C   0  0  0  0  0  0  0  0  0  0  0  0
   -5.4564   -5.6849    6.3376 C   0  0  0  0  0  0  0  0  0  0  0  0
   -7.5575   -4.2984    5.7680 C   0  0  0  0  0  0  0  0  0  0  0  0
   -7.7232   -4.5516    4.5450 O   0  0  0  0  0  0  0  0  0  0  0  0
   -8.2916   -3.3179    6.5604 C   0  0  0  0  0  0  0  0  0  0  0  0
   -7.7805   -3.3273    7.8471 C   0  0  0  0  0  0  0  0  0  0  0  0
   -8.2247   -2.4201    8.8090 C   0  0  0  0  0  0  0  0  0  0  0  0
   -9.2001   -1.4793    8.4320 C   0  0  0  0  0  0  0  0  0  0  0  0
   -9.6849   -1.4327    7.1056 C   0  0  0  0  0  0  0  0  0  0  0  0
   -9.2417   -2.3805    6.1593 C   0  0  0  0  0  0  0  0  0  0  0  0
  -10.6569   -0.3938    6.7207 C   0  0  0  0  0  0  0  0  0  0  0  0
  -10.4798    0.4729    5.7111 C   0  0  0  0  0  0  0  0  0  0  0  0
   -9.2196    0.6661    4.9609 C   0  0  0  0  0  0  0  0  0  0  0  0
   -9.1447    1.2268    3.6869 C   0  0  0  0  0  0  0  0  0  0  0  0
   -7.8229    1.4117    3.2445 C   0  0  0  0  0  0  0  0  0  0  0  0
   -7.4273    1.9812    2.0174 C   0  0  0  0  0  0  0  0  0  0  0  0
   -8.4067    2.4277    1.0134 C   0  0  0  0  0  0  0  0  0  0  0  0
   -9.2740    1.4038   -0.0017 S   0  0  0  0  0  0  0  0  0  0  0  0
  -10.0696    2.6287   -0.8419 C   0  0  0  0  0  0  0  0  0  0  0  0
  -11.0927    2.3999   -1.9136 C   0  0  0  0  0  0  0  0  0  0  0  0
  -12.4952    2.3737   -1.3165 C   0  0  0  0  0  0  0  0  0  0  0  0
   -9.6833    3.8590   -0.3145 C   0  0  0  0  0  0  0  0  0  0  0  0
  -10.3200    5.3969   -0.8729 Cl  0  0  0  0  0  0  0  0  0  0  0  0
   -8.7398    3.7460    0.7206 C   0  0  0  0  0  0  0  0  0  0  0  0
   -8.0713    5.1254    1.5800 Cl  0  0  0  0  0  0  0  0  0  0  0  0
   -6.0477    2.1211    1.7937 C   0  0  0  0  0  0  0  0  0  0  0  0
   -5.0877    1.7156    2.7242 C   0  0  0  0  0  0  0  0  0  0  0  0
   -5.4807    1.1397    3.9515 C   0  0  0  0  0  0  0  0  0  0  0  0
   -4.4957    0.7239    4.9687 C   0  0  0  0  0  0  0  0  0  0  0  0
   -3.3900    1.7491    5.7130 S   0  0  0  0  0  0  0  0  0  0  0  0
   -2.6918    0.5806    6.7030 C   0  0  0  0  0  0  0  0  0  0  0  0
   -1.5391    0.8294    7.6276 C   0  0  0  0  0  0  0  0  0  0  0  0
   -0.2220    0.8001    6.8643 C   0  0  0  0  0  0  0  0  0  0  0  0
   -3.3095   -0.6445    6.4463 C   0  0  0  0  0  0  0  0  0  0  0  0
   -4.3279   -0.5609    5.4851 C   0  0  0  0  0  0  0  0  0  0  0  0
   -5.2452   -1.9557    4.9330 Cl  0  0  0  0  0  0  0  0  0  0  0  0
   -2.8433   -2.1515    7.2230 Cl  0  0  0  0  0  0  0  0  0  0  0  0
   -6.8630    1.0089    4.1768 C   0  0  0  0  0  0  0  0  0  0  0  0
   -7.6506    0.4539    5.5551 S   0  0  0  0  0  0  0  0  0  0  0  0
   -3.7712    1.9274    2.2805 C   0  0  0  0  0  0  0  0  0  0  0  0
   -3.7045    2.5060    1.0165 C   0  0  0  0  0  0  0  0  0  0  0  0
   -5.2698    2.7431    0.4390 S   0  0  0  0  0  0  0  0  0  0  0  0
    0.3250    5.0208  -14.4953 H   0  0  0  0  0  0  0  0  0  0  0  0
    2.3192    3.5784  -13.6478 H   0  0  0  0  0  0  0  0  0  0  0  0
    6.9511   -0.4062  -12.7624 H   0  0  0  0  0  0  0  0  0  0  0  0
    7.8369    1.1496  -12.6102 H   0  0  0  0  0  0  0  0  0  0  0  0
    6.8698    1.9277  -14.7905 H   0  0  0  0  0  0  0  0  0  0  0  0
    5.9804    0.3581  -14.9549 H   0  0  0  0  0  0  0  0  0  0  0  0
    7.7861    0.3841  -14.9770 H   0  0  0  0  0  0  0  0  0  0  0  0
   -3.2989    8.4021   -8.1824 H   0  0  0  0  0  0  0  0  0  0  0  0
   -2.5796   10.0241   -7.8940 H   0  0  0  0  0  0  0  0  0  0  0  0
   -1.6676    9.2347   -5.6901 H   0  0  0  0  0  0  0  0  0  0  0  0
   -2.3844    7.5930   -5.9877 H   0  0  0  0  0  0  0  0  0  0  0  0
   -3.4575    9.0314   -5.7819 H   0  0  0  0  0  0  0  0  0  0  0  0
    2.4294    6.4742   -7.1359 H   0  0  0  0  0  0  0  0  0  0  0  0
    6.2471    3.6453   -6.1590 H   0  0  0  0  0  0  0  0  0  0  0  0
   10.9703   -0.2622   -5.6876 H   0  0  0  0  0  0  0  0  0  0  0  0
    9.6868   -1.3229   -5.0155 H   0  0  0  0  0  0  0  0  0  0  0  0
    9.9195   -1.6533   -7.4667 H   0  0  0  0  0  0  0  0  0  0  0  0
    8.2976   -0.9685   -7.0762 H   0  0  0  0  0  0  0  0  0  0  0  0
    9.5910    0.0977   -7.7576 H   0  0  0  0  0  0  0  0  0  0  0  0
   -1.2187    4.6065   -0.2199 H   0  0  0  0  0  0  0  0  0  0  0  0
   -1.0452    6.3174    0.2822 H   0  0  0  0  0  0  0  0  0  0  0  0
    0.0531    3.8579    1.7987 H   0  0  0  0  0  0  0  0  0  0  0  0
   -1.3756    4.8563    2.2593 H   0  0  0  0  0  0  0  0  0  0  0  0
    0.2765    5.5858    2.3034 H   0  0  0  0  0  0  0  0  0  0  0  0
    3.7755    2.9166    0.3891 H   0  0  0  0  0  0  0  0  0  0  0  0
    7.0059   -0.4809    1.3750 H   0  0  0  0  0  0  0  0  0  0  0  0
   10.9314   -5.1188    2.1067 H   0  0  0  0  0  0  0  0  0  0  0  0
   11.5692   -4.1428    3.4703 H   0  0  0  0  0  0  0  0  0  0  0  0
   11.2358   -3.1776    0.5507 H   0  0  0  0  0  0  0  0  0  0  0  0
   12.7850   -3.6372    1.3611 H   0  0  0  0  0  0  0  0  0  0  0  0
   11.8791   -2.1818    1.9191 H   0  0  0  0  0  0  0  0  0  0  0  0
   -2.9655   -2.7806    0.7444 H   0  0  0  0  0  0  0  0  0  0  0  0
   -1.9792   -2.8337   -0.7533 H   0  0  0  0  0  0  0  0  0  0  0  0
   -3.4545   -0.8111   -0.6740 H   0  0  0  0  0  0  0  0  0  0  0  0
   -2.6657   -0.2940    0.8665 H   0  0  0  0  0  0  0  0  0  0  0  0
   -1.7075   -0.3432   -0.6700 H   0  0  0  0  0  0  0  0  0  0  0  0
    1.6807   -4.9577    2.6622 H   0  0  0  0  0  0  0  0  0  0  0  0
    3.2553   -6.5626    5.9751 H   0  0  0  0  0  0  0  0  0  0  0  0
    4.3192   -5.3596   11.1895 H   0  0  0  0  0  0  0  0  0  0  0  0
    3.9228   -3.9869   10.1055 H   0  0  0  0  0  0  0  0  0  0  0  0
    3.1863   -3.5568   12.4562 H   0  0  0  0  0  0  0  0  0  0  0  0
    1.7743   -3.6115   11.3269 H   0  0  0  0  0  0  0  0  0  0  0  0
    2.1311   -5.0209   12.4079 H   0  0  0  0  0  0  0  0  0  0  0  0
   -3.7749   -7.4969   -0.8653 H   0  0  0  0  0  0  0  0  0  0  0  0
   -3.7276   -5.9084   -0.0256 H   0  0  0  0  0  0  0  0  0  0  0  0
   -2.3892   -5.8526   -2.1210 H   0  0  0  0  0  0  0  0  0  0  0  0
   -1.3297   -5.6086   -0.6779 H   0  0  0  0  0  0  0  0  0  0  0  0
   -1.3591   -7.2073   -1.5263 H   0  0  0  0  0  0  0  0  0  0  0  0
   -3.5880   -7.3391    4.9640 H   0  0  0  0  0  0  0  0  0  0  0  0
   -3.9607   -5.5759    9.4239 H   0  0  0  0  0  0  0  0  0  0  0  0
   -5.8807   -4.1030    9.8913 H   0  0  0  0  0  0  0  0  0  0  0  0
   -5.3452   -6.0349    5.3219 H   0  0  0  0  0  0  0  0  0  0  0  0
   -7.8094   -2.4200    9.8092 H   0  0  0  0  0  0  0  0  0  0  0  0
   -9.5453   -0.7612    9.1653 H   0  0  0  0  0  0  0  0  0  0  0  0
   -9.5953   -2.3598    5.1361 H   0  0  0  0  0  0  0  0  0  0  0  0
  -11.5826   -0.3530    7.2778 H   0  0  0  0  0  0  0  0  0  0  0  0
  -11.3169    1.1080    5.4453 H   0  0  0  0  0  0  0  0  0  0  0  0
  -10.0185    1.5092    3.1107 H   0  0  0  0  0  0  0  0  0  0  0  0
  -10.8951    1.4334   -2.4250 H   0  0  0  0  0  0  0  0  0  0  0  0
  -11.0300    3.2038   -2.6779 H   0  0  0  0  0  0  0  0  0  0  0  0
  -12.7118    3.3326   -0.7971 H   0  0  0  0  0  0  0  0  0  0  0  0
  -13.2433    2.2267   -2.1226 H   0  0  0  0  0  0  0  0  0  0  0  0
  -12.5825    1.5371   -0.5877 H   0  0  0  0  0  0  0  0  0  0  0  0
   -1.6608    1.8236    8.1074 H   0  0  0  0  0  0  0  0  0  0  0  0
   -1.5183    0.0654    8.4326 H   0  0  0  0  0  0  0  0  0  0  0  0
    0.6208    0.9617    7.5694 H   0  0  0  0  0  0  0  0  0  0  0  0
   -0.2008    1.6083    6.0996 H   0  0  0  0  0  0  0  0  0  0  0  0
   -0.0821   -0.1798    6.3606 H   0  0  0  0  0  0  0  0  0  0  0  0
   -2.8879    1.6633    2.8421 H   0  0  0  0  0  0  0  0  0  0  0  0
   -2.7937    2.7486    0.4841 H   0  0  0  0  0  0  0  0  0  0  0  0
  1  2  2  0
  2  3  1  0
  3  4  2  0
  4  5  1  0
  5  6  1  0
  6  7  1  0
  7  8  1  0
  8  9  1  0
  7 10  2  0
 10 11  1  0
 10 12  1  0
 12 13  1  0
  4 14  1  0
 14 15  2  0
 15 16  1  0
 16 17  1  0
 17 18  1  0
 18 19  1  0
 19 20  1  0
 20 21  1  0
 19 22  2  0
 22 23  1  0
 23 24  1  0
 22 25  1  0
 16 26  2  0
 26 27  1  0
 15 28  1  0
 28 29  2  0
 29 30  1  0
 29 31  1  0
 31 32  2  0
 32 33  1  0
 33 34  2  0
 34 35  1  0
 35 36  1  0
 36 37  1  0
 37 38  1  0
 38 39  1  0
 37 40  2  0
 40 41  1  0
 40 42  1  0
 42 43  1  0
 34 44  1  0
 44 45  2  0
 45 46  1  0
 46 47  1  0
 47 48  1  0
 48 49  1  0
 49 50  1  0
 50 51  1  0
 49 52  2  0
 52 53  1  0
 53 54  1  0
 52 55  1  0
 46 56  2  0
 56 57  1  0
 45 58  1  0
 58 59  2  0
 59 60  1  0
 59 61  1  0
 61 62  2  0
 62 63  1  0
 63 64  2  0
 64 65  1  0
 65 66  1  0
 66 67  1  0
 67 68  1  0
 68 69  1  0
 67 70  2  0
 70 71  1  0
 70 72  1  0
 72 73  1  0
 64 74  1  0
 74 75  2  0
 75 76  1  0
 76 77  1  0
 77 78  1  0
 78 79  1  0
 79 80  1  0
 80 81  1  0
 79 82  2  0
 82 83  1  0
 83 84  1  0
 82 85  1  0
 76 86  2  0
 86 87  1  0
 75 88  1  0
 88 89  2  0
 89 90  1  0
 89 91  1  0
 91 92  2  0
 92 93  1  0
 93 94  2  0
 94 95  1  0
 95 96  1  0
 96 97  1  0
 97 98  1  0
 98 99  1  0
 97100  2  0
100101  1  0
100102  1  0
102103  1  0
 94104  1  0
104105  2  0
105106  1  0
106107  1  0
107108  1  0
108109  1  0
109110  1  0
110111  1  0
109112  2  0
112113  1  0
113114  1  0
112115  1  0
106116  2  0
116117  1  0
105118  1  0
118119  2  0
119120  1  0
119121  1  0
121122  2  0
122123  1  0
123124  2  0
124125  1  0
125126  2  0
125127  1  0
127128  2  0
127129  1  0
129130  2  0
130131  1  0
131132  2  0
132133  1  0
133134  2  0
133135  1  0
135136  2  3
136137  1  0
137138  2  0
138139  1  0
139140  2  0
140141  1  0
141142  1  0
142143  1  0
143144  1  0
144145  1  0
143146  2  0
146147  1  0
146148  1  0
148149  1  0
140150  1  0
150151  2  0
151152  1  0
152153  1  0
153154  1  0
154155  1  0
155156  1  0
156157  1  0
155158  2  0
158159  1  0
159160  1  0
158161  1  0
152162  2  0
162163  1  0
151164  1  0
164165  2  0
165166  1  0
 27  1  1  0
 57 31  1  0
 87 61  1  0
117 91  1  0
126121  1  0
134129  1  0
163137  1  0
 26  3  1  0
 56 33  1  0
 86 63  1  0
116 93  1  0
130124  1  0
162139  1  0
 12  5  2  0
 30 14  1  0
 42 35  2  0
 60 44  1  0
 72 65  2  0
 90 74  1  0
102 95  2  0
120104  1  0
148141  2  0
166150  1  0
 23 17  2  0
 53 47  2  0
 83 77  2  0
113107  2  0
159153  2  0
  1167  1  0
  2168  1  0
  8169  1  0
  8170  1  0
  9171  1  0
  9172  1  0
  9173  1  0
 20174  1  0
 20175  1  0
 21176  1  0
 21177  1  0
 21178  1  0
 28179  1  0
 32180  1  0
 38181  1  0
 38182  1  0
 39183  1  0
 39184  1  0
 39185  1  0
 50186  1  0
 50187  1  0
 51188  1  0
 51189  1  0
 51190  1  0
 58191  1  0
 62192  1  0
 68193  1  0
 68194  1  0
 69195  1  0
 69196  1  0
 69197  1  0
 80198  1  0
 80199  1  0
 81200  1  0
 81201  1  0
 81202  1  0
 88203  1  0
 92204  1  0
 98205  1  0
 98206  1  0
 99207  1  0
 99208  1  0
 99209  1  0
110210  1  0
110211  1  0
111212  1  0
111213  1  0
111214  1  0
118215  1  0
122216  1  0
123217  1  0
126218  1  0
131219  1  0
132220  1  0
134221  1  0
135222  1  0
136223  1  0
138224  1  0
144225  1  0
144226  1  0
145227  1  0
145228  1  0
145229  1  0
156230  1  0
156231  1  0
157232  1  0
157233  1  0
157234  1  0
164235  1  0
165236  1  0
M  END

