
     RDKit          3D

242269  0  0  0  0  0  0  0  0999 V2000
    8.1595    5.0132    5.0886 C   0  0  0  0  0  0  0  0  0  0  0  0
    8.8949    4.3653    4.1005 C   0  0  0  0  0  0  0  0  0  0  0  0
    8.1795    4.1935    2.9027 C   0  0  0  0  0  0  0  0  0  0  0  0
    8.6552    3.5846    1.7215 C   0  0  0  0  0  0  0  0  0  0  0  0
   10.0245    3.0564    1.6204 C   0  0  0  0  0  0  0  0  0  0  0  0
   11.4158    3.9976    1.6392 S   0  0  0  0  0  0  0  0  0  0  0  0
   12.4981    2.7143    1.5213 C   0  0  0  0  0  0  0  0  0  0  0  0
   13.9882    2.8613    1.5740 C   0  0  0  0  0  0  0  0  0  0  0  0
   14.4615    3.0034    3.0160 C   0  0  0  0  0  0  0  0  0  0  0  0
   11.7743    1.5214    1.4821 C   0  0  0  0  0  0  0  0  0  0  0  0
   12.5201   -0.0696    1.4282 Cl  0  0  0  0  0  0  0  0  0  0  0  0
   10.3855    1.7143    1.5242 C   0  0  0  0  0  0  0  0  0  0  0  0
    9.2210    0.4000    1.5383 Cl  0  0  0  0  0  0  0  0  0  0  0  0
    7.7695    3.5288    0.6320 C   0  0  0  0  0  0  0  0  0  0  0  0
    6.4721    4.0461    0.6992 C   0  0  0  0  0  0  0  0  0  0  0  0
    5.9865    4.6323    1.8834 C   0  0  0  0  0  0  0  0  0  0  0  0
    4.6160    5.1721    1.9769 C   0  0  0  0  0  0  0  0  0  0  0  0
    4.0184    6.4530    1.0626 S   0  0  0  0  0  0  0  0  0  0  0  0
    2.4503    6.3926    1.6624 C   0  0  0  0  0  0  0  0  0  0  0  0
    1.3535    7.3397    1.2811 C   0  0  0  0  0  0  0  0  0  0  0  0
    1.2766    8.5016    2.2661 C   0  0  0  0  0  0  0  0  0  0  0  0
    2.3774    5.3756    2.6134 C   0  0  0  0  0  0  0  0  0  0  0  0
    3.5885    4.6857    2.7840 C   0  0  0  0  0  0  0  0  0  0  0  0
    3.7645    3.3009    3.8514 Cl  0  0  0  0  0  0  0  0  0  0  0  0
    0.9096    4.9770    3.4952 Cl  0  0  0  0  0  0  0  0  0  0  0  0
    6.8765    4.6965    2.9670 C   0  0  0  0  0  0  0  0  0  0  0  0
    6.6264    5.3718    4.4856 S   0  0  0  0  0  0  0  0  0  0  0  0
    5.7631    3.9031   -0.4962 C   0  0  0  0  0  0  0  0  0  0  0  0
    6.5080    3.2939   -1.4954 C   0  0  0  0  0  0  0  0  0  0  0  0
    8.0436    2.9063   -0.9155 S   0  0  0  0  0  0  0  0  0  0  0  0
    5.9788    3.0414   -2.8392 C   0  0  0  0  0  0  0  0  0  0  0  0
    5.3569    1.8211   -3.1678 C   0  0  0  0  0  0  0  0  0  0  0  0
    5.5199    0.6137   -2.4699 C   0  0  0  0  0  0  0  0  0  0  0  0
    4.7360   -0.4156   -2.9789 C   0  0  0  0  0  0  0  0  0  0  0  0
    4.7381   -1.7955   -2.4846 C   0  0  0  0  0  0  0  0  0  0  0  0
    3.9592   -2.6460   -2.9903 O   0  0  0  0  0  0  0  0  0  0  0  0
    5.6270   -2.1567   -1.4639 O   0  0  0  0  0  0  0  0  0  0  0  0
    5.6705   -3.4520   -0.8755 C   0  0  0  0  0  0  0  0  0  0  0  0
    4.5090   -3.6436    0.0934 C   0  0  0  0  0  0  0  0  0  0  0  0
    3.8162    0.1757   -4.2623 S   0  0  0  0  0  0  0  0  0  0  0  0
    4.4248    1.7502   -4.2252 C   0  0  0  0  0  0  0  0  0  0  0  0
    4.0669    2.8874   -5.0027 C   0  0  0  0  0  0  0  0  0  0  0  0
    4.8422    4.0344   -4.7409 C   0  0  0  0  0  0  0  0  0  0  0  0
    5.7320    4.1093   -3.7004 C   0  0  0  0  0  0  0  0  0  0  0  0
    6.2048    5.3637   -3.6203 N   0  0  0  0  0  0  0  0  0  0  0  0
    5.6152    6.0113   -4.6197 N   0  0  0  0  0  0  0  0  0  0  0  0
    5.8971    7.4032   -4.9492 C   0  0  0  0  0  0  0  0  0  0  0  0
    7.1063    7.4818   -5.8715 C   0  0  0  0  0  0  0  0  0  0  0  0
    4.7859    5.2452   -5.3232 N   0  0  0  0  0  0  0  0  0  0  0  0
    2.8050    2.9815   -5.7994 C   0  0  0  0  0  0  0  0  0  0  0  0
    2.0484    4.1539   -5.9297 C   0  0  0  0  0  0  0  0  0  0  0  0
    0.7277    3.9383   -6.3452 C   0  0  0  0  0  0  0  0  0  0  0  0
   -0.2948    4.9076   -6.3350 C   0  0  0  0  0  0  0  0  0  0  0  0
   -0.0131    6.3190   -6.0293 C   0  0  0  0  0  0  0  0  0  0  0  0
    0.5082    7.4492   -7.1532 S   0  0  0  0  0  0  0  0  0  0  0  0
    0.6863    8.7230   -6.0632 C   0  0  0  0  0  0  0  0  0  0  0  0
    1.2072   10.0880   -6.4190 C   0  0  0  0  0  0  0  0  0  0  0  0
    0.3607   10.7346   -7.5119 C   0  0  0  0  0  0  0  0  0  0  0  0
    0.3647    8.2588   -4.7858 C   0  0  0  0  0  0  0  0  0  0  0  0
    0.4971    9.2296   -3.3265 Cl  0  0  0  0  0  0  0  0  0  0  0  0
   -0.0307    6.9096   -4.7698 C   0  0  0  0  0  0  0  0  0  0  0  0
   -0.4354    6.0335   -3.3006 Cl  0  0  0  0  0  0  0  0  0  0  0  0
   -1.6097    4.4463   -6.4836 C   0  0  0  0  0  0  0  0  0  0  0  0
   -1.9110    3.0967   -6.6886 C   0  0  0  0  0  0  0  0  0  0  0  0
   -0.8812    2.1340   -6.7694 C   0  0  0  0  0  0  0  0  0  0  0  0
   -1.1675    0.6882   -6.8136 C   0  0  0  0  0  0  0  0  0  0  0  0
   -1.8181   -0.2039   -5.5426 S   0  0  0  0  0  0  0  0  0  0  0  0
   -1.6596   -1.7060   -6.2802 C   0  0  0  0  0  0  0  0  0  0  0  0
   -2.0667   -3.0142   -5.6643 C   0  0  0  0  0  0  0  0  0  0  0  0
   -3.5253   -3.3357   -5.9662 C   0  0  0  0  0  0  0  0  0  0  0  0
   -1.0993   -1.5287   -7.5441 C   0  0  0  0  0  0  0  0  0  0  0  0
   -0.8061   -0.1869   -7.8356 C   0  0  0  0  0  0  0  0  0  0  0  0
   -0.0593    0.3455   -9.3348 Cl  0  0  0  0  0  0  0  0  0  0  0  0
   -0.7819   -2.8497   -8.6619 Cl  0  0  0  0  0  0  0  0  0  0  0  0
    0.4338    2.5973   -6.5857 C   0  0  0  0  0  0  0  0  0  0  0  0
    1.8131    1.6903   -6.2638 S   0  0  0  0  0  0  0  0  0  0  0  0
   -3.2817    2.8247   -6.6012 C   0  0  0  0  0  0  0  0  0  0  0  0
   -4.0511    3.9399   -6.2518 C   0  0  0  0  0  0  0  0  0  0  0  0
   -3.0277    5.2797   -6.1306 S   0  0  0  0  0  0  0  0  0  0  0  0
   -5.3016    3.8005   -5.4934 C   0  0  0  0  0  0  0  0  0  0  0  0
   -6.1466    2.7034   -5.6541 C   0  0  0  0  0  0  0  0  0  0  0  0
   -6.7279    2.2670   -4.4540 C   0  0  0  0  0  0  0  0  0  0  0  0
   -7.3801    1.0348   -4.2757 C   0  0  0  0  0  0  0  0  0  0  0  0
   -7.6362    0.1217   -5.4005 C   0  0  0  0  0  0  0  0  0  0  0  0
   -6.4615   -0.8108   -6.1573 S   0  0  0  0  0  0  0  0  0  0  0  0
   -7.5262   -1.6837   -7.1225 C   0  0  0  0  0  0  0  0  0  0  0  0
   -7.1231   -2.8112   -8.0236 C   0  0  0  0  0  0  0  0  0  0  0  0
   -7.3091   -4.1527   -7.3243 C   0  0  0  0  0  0  0  0  0  0  0  0
   -8.8268   -1.2730   -6.8382 C   0  0  0  0  0  0  0  0  0  0  0  0
  -10.2564   -1.9832   -7.5785 Cl  0  0  0  0  0  0  0  0  0  0  0  0
   -8.8880   -0.2641   -5.8665 C   0  0  0  0  0  0  0  0  0  0  0  0
  -10.3940    0.4268   -5.2780 Cl  0  0  0  0  0  0  0  0  0  0  0  0
   -7.5339    0.5881   -2.9579 C   0  0  0  0  0  0  0  0  0  0  0  0
   -7.1387    1.3458   -1.8510 C   0  0  0  0  0  0  0  0  0  0  0  0
   -6.6326    2.6531   -2.0222 C   0  0  0  0  0  0  0  0  0  0  0  0
   -6.2345    3.4834   -0.8634 C   0  0  0  0  0  0  0  0  0  0  0  0
   -4.7044    4.1387   -0.6016 S   0  0  0  0  0  0  0  0  0  0  0  0
   -5.0777    4.9139    0.8441 C   0  0  0  0  0  0  0  0  0  0  0  0
   -4.1420    5.8092    1.6037 C   0  0  0  0  0  0  0  0  0  0  0  0
   -4.2931    7.2571    1.1499 C   0  0  0  0  0  0  0  0  0  0  0  0
   -6.4214    4.6816    1.1367 C   0  0  0  0  0  0  0  0  0  0  0  0
   -7.0646    3.8705    0.1876 C   0  0  0  0  0  0  0  0  0  0  0  0
   -8.7670    3.4420    0.2873 Cl  0  0  0  0  0  0  0  0  0  0  0  0
   -7.2417    5.3588    2.5389 Cl  0  0  0  0  0  0  0  0  0  0  0  0
   -6.3981    3.0624   -3.3496 C   0  0  0  0  0  0  0  0  0  0  0  0
   -5.3849    4.2957   -3.8805 S   0  0  0  0  0  0  0  0  0  0  0  0
   -7.0306    0.5805   -0.6737 C   0  0  0  0  0  0  0  0  0  0  0  0
   -7.2836   -0.7779   -0.8735 C   0  0  0  0  0  0  0  0  0  0  0  0
   -7.7238   -1.0082   -2.4853 S   0  0  0  0  0  0  0  0  0  0  0  0
   -6.5637   -1.8188   -0.1364 C   0  0  0  0  0  0  0  0  0  0  0  0
   -6.5529   -2.0189    1.2420 C   0  0  0  0  0  0  0  0  0  0  0  0
   -5.5622   -2.9376    1.6409 C   0  0  0  0  0  0  0  0  0  0  0  0
   -5.2929   -3.3665    2.9557 C   0  0  0  0  0  0  0  0  0  0  0  0
   -6.1298   -2.9610    4.0955 C   0  0  0  0  0  0  0  0  0  0  0  0
   -6.0794   -1.4588    4.8435 S   0  0  0  0  0  0  0  0  0  0  0  0
   -7.2346   -1.8133    6.0173 C   0  0  0  0  0  0  0  0  0  0  0  0
   -7.7246   -0.8391    7.0467 C   0  0  0  0  0  0  0  0  0  0  0  0
   -8.8797   -0.0084    6.4993 C   0  0  0  0  0  0  0  0  0  0  0  0
   -7.6934   -3.1149    5.8199 C   0  0  0  0  0  0  0  0  0  0  0  0
   -8.9421   -3.8679    6.7993 Cl  0  0  0  0  0  0  0  0  0  0  0  0
   -7.0624   -3.7635    4.7474 C   0  0  0  0  0  0  0  0  0  0  0  0
   -7.4469   -5.4043    4.2467 Cl  0  0  0  0  0  0  0  0  0  0  0  0
   -4.2074   -4.2462    3.1298 C   0  0  0  0  0  0  0  0  0  0  0  0
   -3.4267   -4.6986    2.0618 C   0  0  0  0  0  0  0  0  0  0  0  0
   -3.6957   -4.2761    0.7488 C   0  0  0  0  0  0  0  0  0  0  0  0
   -2.8264   -4.6465   -0.3863 C   0  0  0  0  0  0  0  0  0  0  0  0
   -3.3100   -5.5511   -1.7213 S   0  0  0  0  0  0  0  0  0  0  0  0
   -1.8290   -5.4978   -2.5187 C   0  0  0  0  0  0  0  0  0  0  0  0
   -1.5304   -6.2039   -3.8051 C   0  0  0  0  0  0  0  0  0  0  0  0
   -0.9488   -7.5876   -3.5379 C   0  0  0  0  0  0  0  0  0  0  0  0
   -0.9260   -4.7751   -1.7382 C   0  0  0  0  0  0  0  0  0  0  0  0
   -1.4894   -4.2900   -0.5483 C   0  0  0  0  0  0  0  0  0  0  0  0
   -0.5989   -3.2982    0.6012 Cl  0  0  0  0  0  0  0  0  0  0  0  0
    0.7480   -4.4942   -2.2014 Cl  0  0  0  0  0  0  0  0  0  0  0  0
   -4.7907   -3.4167    0.5741 C   0  0  0  0  0  0  0  0  0  0  0  0
   -5.3361   -2.7305   -0.8503 S   0  0  0  0  0  0  0  0  0  0  0  0
   -2.4187   -5.5919    2.4513 C   0  0  0  0  0  0  0  0  0  0  0  0
   -2.3913   -5.8155    3.8241 C   0  0  0  0  0  0  0  0  0  0  0  0
   -3.6241   -4.9223    4.5594 S   0  0  0  0  0  0  0  0  0  0  0  0
   -1.4906   -6.7537    4.5070 C   0  0  0  0  0  0  0  0  0  0  0  0
   -1.2397   -6.8065    5.8785 C   0  0  0  0  0  0  0  0  0  0  0  0
   -0.3895   -7.8659    6.2314 C   0  0  0  0  0  0  0  0  0  0  0  0
    0.0318   -8.2064    7.5324 C   0  0  0  0  0  0  0  0  0  0  0  0
   -0.3887   -7.4386    8.7107 C   0  0  0  0  0  0  0  0  0  0  0  0
   -1.7246   -7.8021    9.6589 S   0  0  0  0  0  0  0  0  0  0  0  0
   -1.4649   -6.5947   10.8027 C   0  0  0  0  0  0  0  0  0  0  0  0
   -2.2865   -6.4151   12.0416 C   0  0  0  0  0  0  0  0  0  0  0  0
   -1.6594   -7.1586   13.2162 C   0  0  0  0  0  0  0  0  0  0  0  0
   -0.2979   -5.9096   10.4708 C   0  0  0  0  0  0  0  0  0  0  0  0
    0.3768   -4.6089   11.4424 Cl  0  0  0  0  0  0  0  0  0  0  0  0
    0.3060   -6.3823    9.2948 C   0  0  0  0  0  0  0  0  0  0  0  0
    1.7933   -5.7238    8.6331 Cl  0  0  0  0  0  0  0  0  0  0  0  0
    0.8401   -9.3477    7.6657 C   0  0  0  0  0  0  0  0  0  0  0  0
    1.2218  -10.1320    6.5742 C   0  0  0  0  0  0  0  0  0  0  0  0
    0.8150   -9.7865    5.2707 C   0  0  0  0  0  0  0  0  0  0  0  0
    1.1422  -10.6239    4.1054 C   0  0  0  0  0  0  0  0  0  0  0  0
    0.5169  -12.1608    3.8331 S   0  0  0  0  0  0  0  0  0  0  0  0
    1.2586  -12.3904    2.3416 C   0  0  0  0  0  0  0  0  0  0  0  0
    1.0528  -13.5908    1.4678 C   0  0  0  0  0  0  0  0  0  0  0  0
   -0.1076  -13.3669    0.5029 C   0  0  0  0  0  0  0  0  0  0  0  0
    1.9940  -11.2486    2.0262 C   0  0  0  0  0  0  0  0  0  0  0  0
    1.9322  -10.2584    3.0194 C   0  0  0  0  0  0  0  0  0  0  0  0
    2.7860   -8.7256    2.9146 Cl  0  0  0  0  0  0  0  0  0  0  0  0
    2.9092  -11.0591    0.5387 Cl  0  0  0  0  0  0  0  0  0  0  0  0
    0.0152   -8.6374    5.1358 C   0  0  0  0  0  0  0  0  0  0  0  0
   -0.6674   -8.0097    3.7385 S   0  0  0  0  0  0  0  0  0  0  0  0
    2.0190  -11.2282    6.9353 C   0  0  0  0  0  0  0  0  0  0  0  0
    2.2594  -11.3050    8.3045 C   0  0  0  0  0  0  0  0  0  0  0  0
    1.4857  -10.0149    9.0688 S   0  0  0  0  0  0  0  0  0  0  0  0
    8.5154    5.2464    6.0820 H   0  0  0  0  0  0  0  0  0  0  0  0
    9.9139    4.0314    4.2521 H   0  0  0  0  0  0  0  0  0  0  0  0
   14.2882    3.7636    0.9973 H   0  0  0  0  0  0  0  0  0  0  0  0
   14.4794    1.9812    1.1091 H   0  0  0  0  0  0  0  0  0  0  0  0
   14.0186    3.9124    3.4757 H   0  0  0  0  0  0  0  0  0  0  0  0
   15.5674    3.1013    3.0345 H   0  0  0  0  0  0  0  0  0  0  0  0
   14.1708    2.1116    3.6103 H   0  0  0  0  0  0  0  0  0  0  0  0
    0.3812    6.8040    1.2584 H   0  0  0  0  0  0  0  0  0  0  0  0
    1.5441    7.7358    0.2599 H   0  0  0  0  0  0  0  0  0  0  0  0
    1.0359    8.1271    3.2848 H   0  0  0  0  0  0  0  0  0  0  0  0
    2.2442    9.0469    2.2912 H   0  0  0  0  0  0  0  0  0  0  0  0
    0.4782    9.2060    1.9530 H   0  0  0  0  0  0  0  0  0  0  0  0
    4.7412    4.2213   -0.6373 H   0  0  0  0  0  0  0  0  0  0  0  0
    6.1954    0.4911   -1.6323 H   0  0  0  0  0  0  0  0  0  0  0  0
    6.6235   -3.5478   -0.3104 H   0  0  0  0  0  0  0  0  0  0  0  0
    5.6576   -4.2399   -1.6624 H   0  0  0  0  0  0  0  0  0  0  0  0
    4.6248   -4.6086    0.6267 H   0  0  0  0  0  0  0  0  0  0  0  0
    4.5032   -2.8187    0.8369 H   0  0  0  0  0  0  0  0  0  0  0  0
    3.5449   -3.6473   -0.4555 H   0  0  0  0  0  0  0  0  0  0  0  0
    5.0130    7.8547   -5.4522 H   0  0  0  0  0  0  0  0  0  0  0  0
    6.0984    7.9757   -4.0187 H   0  0  0  0  0  0  0  0  0  0  0  0
    7.9973    7.0540   -5.3646 H   0  0  0  0  0  0  0  0  0  0  0  0
    7.3094    8.5434   -6.1257 H   0  0  0  0  0  0  0  0  0  0  0  0
    6.9130    6.9153   -6.8072 H   0  0  0  0  0  0  0  0  0  0  0  0
    2.3780    5.1242   -5.5919 H   0  0  0  0  0  0  0  0  0  0  0  0
    1.2038   10.7556   -5.5308 H   0  0  0  0  0  0  0  0  0  0  0  0
    2.2585    9.9943   -6.7673 H   0  0  0  0  0  0  0  0  0  0  0  0
    0.7114   11.7730   -7.6861 H   0  0  0  0  0  0  0  0  0  0  0  0
   -0.7064   10.7683   -7.2064 H   0  0  0  0  0  0  0  0  0  0  0  0
    0.4565   10.1639   -8.4597 H   0  0  0  0  0  0  0  0  0  0  0  0
   -1.4212   -3.8294   -6.0545 H   0  0  0  0  0  0  0  0  0  0  0  0
   -1.9207   -2.9638   -4.5654 H   0  0  0  0  0  0  0  0  0  0  0  0
   -3.7780   -4.3372   -5.5566 H   0  0  0  0  0  0  0  0  0  0  0  0
   -4.1895   -2.5841   -5.4933 H   0  0  0  0  0  0  0  0  0  0  0  0
   -3.7050   -3.3434   -7.0620 H   0  0  0  0  0  0  0  0  0  0  0  0
   -3.6817    1.8199   -6.6180 H   0  0  0  0  0  0  0  0  0  0  0  0
   -6.1775    2.1281   -6.5702 H   0  0  0  0  0  0  0  0  0  0  0  0
   -7.7263   -2.7862   -8.9550 H   0  0  0  0  0  0  0  0  0  0  0  0
   -6.0540   -2.6938   -8.2990 H   0  0  0  0  0  0  0  0  0  0  0  0
   -8.3828   -4.3200   -7.0937 H   0  0  0  0  0  0  0  0  0  0  0  0
   -6.9598   -4.9716   -7.9892 H   0  0  0  0  0  0  0  0  0  0  0  0
   -6.7261   -4.1827   -6.3793 H   0  0  0  0  0  0  0  0  0  0  0  0
   -3.0953    5.4797    1.4342 H   0  0  0  0  0  0  0  0  0  0  0  0
   -4.3482    5.7370    2.6916 H   0  0  0  0  0  0  0  0  0  0  0  0
   -3.6239    7.9060    1.7530 H   0  0  0  0  0  0  0  0  0  0  0  0
   -4.0163    7.3542    0.0787 H   0  0  0  0  0  0  0  0  0  0  0  0
   -5.3397    7.6030    1.2889 H   0  0  0  0  0  0  0  0  0  0  0  0
   -6.5735    0.9542    0.2327 H   0  0  0  0  0  0  0  0  0  0  0  0
   -7.2166   -1.5032    1.9238 H   0  0  0  0  0  0  0  0  0  0  0  0
   -6.8918   -0.1628    7.3370 H   0  0  0  0  0  0  0  0  0  0  0  0
   -8.0572   -1.3795    7.9580 H   0  0  0  0  0  0  0  0  0  0  0  0
   -9.7318   -0.6659    6.2274 H   0  0  0  0  0  0  0  0  0  0  0  0
   -8.5525    0.5620    5.6046 H   0  0  0  0  0  0  0  0  0  0  0  0
   -9.2174    0.7124    7.2748 H   0  0  0  0  0  0  0  0  0  0  0  0
   -0.8084   -5.6093   -4.4055 H   0  0  0  0  0  0  0  0  0  0  0  0
   -2.4684   -6.3081   -4.3910 H   0  0  0  0  0  0  0  0  0  0  0  0
   -1.6571   -8.1945   -2.9348 H   0  0  0  0  0  0  0  0  0  0  0  0
    0.0151   -7.4996   -2.9932 H   0  0  0  0  0  0  0  0  0  0  0  0
   -0.7649   -8.1056   -4.5024 H   0  0  0  0  0  0  0  0  0  0  0  0
   -1.7366   -6.0656    1.7586 H   0  0  0  0  0  0  0  0  0  0  0  0
   -1.6631   -6.1096    6.5910 H   0  0  0  0  0  0  0  0  0  0  0  0
   -3.3079   -6.8106   11.8654 H   0  0  0  0  0  0  0  0  0  0  0  0
   -2.3768   -5.3363   12.2837 H   0  0  0  0  0  0  0  0  0  0  0  0
   -1.5508   -8.2377   12.9705 H   0  0  0  0  0  0  0  0  0  0  0  0
   -2.3106   -7.0600   14.1092 H   0  0  0  0  0  0  0  0  0  0  0  0
   -0.6619   -6.7322   13.4545 H   0  0  0  0  0  0  0  0  0  0  0  0
    0.8310  -14.4744    2.1028 H   0  0  0  0  0  0  0  0  0  0  0  0
    1.9783  -13.8103    0.8935 H   0  0  0  0  0  0  0  0  0  0  0  0
    0.1125  -12.5169   -0.1777 H   0  0  0  0  0  0  0  0  0  0  0  0
   -0.2605  -14.2799   -0.1114 H   0  0  0  0  0  0  0  0  0  0  0  0
   -1.0426  -13.1585    1.0668 H   0  0  0  0  0  0  0  0  0  0  0  0
    2.4198  -11.9456    6.2312 H   0  0  0  0  0  0  0  0  0  0  0  0
    2.8536  -12.0667    8.7936 H   0  0  0  0  0  0  0  0  0  0  0  0
  1  2  2  0
  2  3  1  0
  3  4  2  0
  4  5  1  0
  5  6  1  0
  6  7  1  0
  7  8  1  0
  8  9  1  0
  7 10  2  0
 10 11  1  0
 10 12  1  0
 12 13  1  0
  4 14  1  0
 14 15  2  0
 15 16  1  0
 16 17  1  0
 17 18  1  0
 18 19  1  0
 19 20  1  0
 20 21  1  0
 19 22  2  0
 22 23  1  0
 23 24  1  0
 22 25  1  0
 16 26  2  0
 26 27  1  0
 15 28  1  0
 28 29  2  0
 29 30  1  0
 29 31  1  0
 31 32  2  0
 32 33  1  0
 33 34  2  0
 34 35  1  0
 35 36  2  0
 35 37  1  0
 37 38  1  0
 38 39  1  0
 34 40  1  0
 40 41  1  0
 41 42  2  0
 42 43  1  0
 43 44  1  0
 44 45  2  0
 45 46  1  0
 46 47  1  0
 47 48  1  0
 46 49  1  0
 42 50  1  0
 50 51  2  0
 51 52  1  0
 52 53  2  0
 53 54  1  0
 54 55  1  0
 55 56  1  0
 56 57  1  0
 57 58  1  0
 56 59  2  0
 59 60  1  0
 59 61  1  0
 61 62  1  0
 53 63  1  0
 63 64  2  0
 64 65  1  0
 65 66  1  0
 66 67  1  0
 67 68  1  0
 68 69  1  0
 69 70  1  0
 68 71  2  0
 71 72  1  0
 72 73  1  0
 71 74  1  0
 65 75  2  0
 75 76  1  0
 64 77  1  0
 77 78  2  0
 78 79  1  0
 78 80  1  0
 80 81  2  0
 81 82  1  0
 82 83  2  0
 83 84  1  0
 84 85  1  0
 85 86  1  0
 86 87  1  0
 87 88  1  0
 86 89  2  0
 89 90  1  0
 89 91  1  0
 91 92  1  0
 83 93  1  0
 93 94  2  0
 94 95  1  0
 95 96  1  0
 96 97  1  0
 97 98  1  0
 98 99  1  0
 99100  1  0
 98101  2  0
101102  1  0
102103  1  0
101104  1  0
 95105  2  0
105106  1  0
 94107  1  0
107108  2  0
108109  1  0
108110  1  0
110111  2  0
111112  1  0
112113  2  0
113114  1  0
114115  1  0
115116  1  0
116117  1  0
117118  1  0
116119  2  0
119120  1  0
119121  1  0
121122  1  0
113123  1  0
123124  2  0
124125  1  0
125126  1  0
126127  1  0
127128  1  0
128129  1  0
129130  1  0
128131  2  0
131132  1  0
132133  1  0
131134  1  0
125135  2  0
135136  1  0
124137  1  0
137138  2  0
138139  1  0
138140  1  0
140141  2  0
141142  1  0
142143  2  0
143144  1  0
144145  1  0
145146  1  0
146147  1  0
147148  1  0
146149  2  0
149150  1  0
149151  1  0
151152  1  0
143153  1  0
153154  2  0
154155  1  0
155156  1  0
156157  1  0
157158  1  0
158159  1  0
159160  1  0
158161  2  0
161162  1  0
162163  1  0
161164  1  0
155165  2  0
165166  1  0
154167  1  0
167168  2  0
168169  1  0
 27  1  1  0
 44 31  1  0
 76 50  1  0
106 80  1  0
136110  1  0
166140  1  0
 26  3  1  0
 41 32  1  0
 49 43  2  0
 75 52  1  0
105 82  1  0
135112  1  0
165142  1  0
 12  5  2  0
 30 14  1  0
 61 54  2  0
 79 63  1  0
 91 84  2  0
109 93  1  0
121114  2  0
139123  1  0
151144  2  0
169153  1  0
 23 17  2  0
 72 66  2  0
102 96  2  0
132126  2  0
162156  2  0
  1170  1  0
  2171  1  0
  8172  1  0
  8173  1  0
  9174  1  0
  9175  1  0
  9176  1  0
 20177  1  0
 20178  1  0
 21179  1  0
 21180  1  0
 21181  1  0
 28182  1  0
 33183  1  0
 38184  1  0
 38185  1  0
 39186  1  0
 39187  1  0
 39188  1  0
 47189  1  0
 47190  1  0
 48191  1  0
 48192  1  0
 48193  1  0
 51194  1  0
 57195  1  0
 57196  1  0
 58197  1  0
 58198  1  0
 58199  1  0
 69200  1  0
 69201  1  0
 70202  1  0
 70203  1  0
 70204  1  0
 77205  1  0
 81206  1  0
 87207  1  0
 87208  1  0
 88209  1  0
 88210  1  0
 88211  1  0
 99212  1  0
 99213  1  0
100214  1  0
100215  1  0
100216  1  0
107217  1  0
111218  1  0
117219  1  0
117220  1  0
118221  1  0
118222  1  0
118223  1  0
129224  1  0
129225  1  0
130226  1  0
130227  1  0
130228  1  0
137229  1  0
141230  1  0
147231  1  0
147232  1  0
148233  1  0
148234  1  0
148235  1  0
159236  1  0
159237  1  0
160238  1  0
160239  1  0
160240  1  0
167241  1  0
168242  1  0
M  END

