
     RDKit          3D

238261  0  0  0  0  0  0  0  0999 V2000
    1.1678   -2.0688    8.2239 C   0  0  0  0  0  0  0  0  0  0  0  0
    1.2199   -1.1285    7.2011 C   0  0  0  0  0  0  0  0  0  0  0  0
    1.6486   -1.6625    5.9716 C   0  0  0  0  0  0  0  0  0  0  0  0
    1.7879   -0.9631    4.7517 C   0  0  0  0  0  0  0  0  0  0  0  0
    1.5449    0.4987    4.6322 C   0  0  0  0  0  0  0  0  0  0  0  0
    2.5616    1.3465    4.1573 C   0  0  0  0  0  0  0  0  0  0  0  0
    2.3539    2.7254    4.0733 C   0  0  0  0  0  0  0  0  0  0  0  0
    1.1345    3.2778    4.4815 C   0  0  0  0  0  0  0  0  0  0  0  0
    0.9191    5.0643    4.4957 S   0  0  0  0  0  0  0  0  0  0  0  0
    0.1402    5.1756    2.8474 C   0  0  0  0  0  0  0  0  0  0  0  0
    1.1962    5.2159    1.7479 C   0  0  0  0  0  0  0  0  0  0  0  0
    0.1178    2.4399    4.9531 C   0  0  0  0  0  0  0  0  0  0  0  0
   -1.0503    2.9657    5.3915 F   0  0  0  0  0  0  0  0  0  0  0  0
    0.3131    1.0569    5.0114 C   0  0  0  0  0  0  0  0  0  0  0  0
    2.2217   -1.7182    3.6467 C   0  0  0  0  0  0  0  0  0  0  0  0
    2.5670   -3.0711    3.7312 C   0  0  0  0  0  0  0  0  0  0  0  0
    2.4565   -3.7623    4.9568 C   0  0  0  0  0  0  0  0  0  0  0  0
    2.8155   -5.1966    5.0831 C   0  0  0  0  0  0  0  0  0  0  0  0
    2.2305   -6.1522    4.2403 C   0  0  0  0  0  0  0  0  0  0  0  0
    2.5676   -7.5022    4.3517 C   0  0  0  0  0  0  0  0  0  0  0  0
    3.5079   -7.9141    5.3014 C   0  0  0  0  0  0  0  0  0  0  0  0
    3.9248   -9.6580    5.4393 S   0  0  0  0  0  0  0  0  0  0  0  0
    5.1725   -9.6424    4.1025 C   0  0  0  0  0  0  0  0  0  0  0  0
    6.5137   -9.1346    4.6148 C   0  0  0  0  0  0  0  0  0  0  0  0
    4.0924   -6.9701    6.1573 C   0  0  0  0  0  0  0  0  0  0  0  0
    3.7520   -5.6173    6.0446 C   0  0  0  0  0  0  0  0  0  0  0  0
    4.9920   -7.3599    7.0943 F   0  0  0  0  0  0  0  0  0  0  0  0
    1.9708   -3.0223    6.0532 C   0  0  0  0  0  0  0  0  0  0  0  0
    1.6778   -3.5567    7.6221 S   0  0  0  0  0  0  0  0  0  0  0  0
    3.0644   -3.5895    2.5196 C   0  0  0  0  0  0  0  0  0  0  0  0
    3.0617   -2.6639    1.4762 C   0  0  0  0  0  0  0  0  0  0  0  0
    2.5041   -1.1931    2.0816 S   0  0  0  0  0  0  0  0  0  0  0  0
    3.8847   -2.7793    0.2636 C   0  0  0  0  0  0  0  0  0  0  0  0
    5.5001   -3.2412    0.3692 S   0  0  0  0  0  0  0  0  0  0  0  0
    6.0359   -2.5401   -1.0543 C   0  0  0  0  0  0  0  0  0  0  0  0
    4.9492   -1.8947   -1.6356 C   0  0  0  0  0  0  0  0  0  0  0  0
    3.7274   -2.0728   -0.9408 C   0  0  0  0  0  0  0  0  0  0  0  0
    2.5246   -1.5905   -1.5082 C   0  0  0  0  0  0  0  0  0  0  0  0
    2.6004   -0.7789   -2.6532 C   0  0  0  0  0  0  0  0  0  0  0  0
    3.8348   -0.4832   -3.2382 C   0  0  0  0  0  0  0  0  0  0  0  0
    5.0098   -1.0738   -2.7740 C   0  0  0  0  0  0  0  0  0  0  0  0
    6.2011   -0.8178   -3.4549 O   0  0  0  0  0  0  0  0  0  0  0  0
    1.1914   -1.9775   -1.0119 C   0  0  0  0  0  0  0  0  0  0  0  0
    0.3971   -2.7913   -1.7245 C   0  0  0  0  0  0  0  0  0  0  0  0
   -0.9475   -3.2041   -1.2498 C   0  0  0  0  0  0  0  0  0  0  0  0
   -1.5847   -2.7748    0.2564 S   0  0  0  0  0  0  0  0  0  0  0  0
   -2.8981   -3.8123    0.2557 C   0  0  0  0  0  0  0  0  0  0  0  0
   -2.8512   -4.5422   -0.9246 C   0  0  0  0  0  0  0  0  0  0  0  0
   -1.8107   -4.1725   -1.8103 C   0  0  0  0  0  0  0  0  0  0  0  0
   -1.7562   -4.7586   -3.1053 C   0  0  0  0  0  0  0  0  0  0  0  0
   -2.6254   -5.8381   -3.3809 C   0  0  0  0  0  0  0  0  0  0  0  0
   -3.5804   -6.2590   -2.4465 C   0  0  0  0  0  0  0  0  0  0  0  0
   -3.7271   -5.5880   -1.2290 C   0  0  0  0  0  0  0  0  0  0  0  0
   -4.7210   -5.9677   -0.3257 O   0  0  0  0  0  0  0  0  0  0  0  0
   -1.0799   -4.0665   -4.2310 C   0  0  0  0  0  0  0  0  0  0  0  0
   -0.7820   -4.6229   -5.4179 C   0  0  0  0  0  0  0  0  0  0  0  0
   -0.3687   -3.7478   -6.5215 C   0  0  0  0  0  0  0  0  0  0  0  0
    0.9415   -3.2925   -6.6474 C   0  0  0  0  0  0  0  0  0  0  0  0
    1.0325   -1.9562   -7.0853 C   0  0  0  0  0  0  0  0  0  0  0  0
    2.1669   -1.1115   -6.9812 C   0  0  0  0  0  0  0  0  0  0  0  0
    3.5448   -1.6134   -6.7501 C   0  0  0  0  0  0  0  0  0  0  0  0
    3.8573   -2.4562   -5.6712 C   0  0  0  0  0  0  0  0  0  0  0  0
    5.1584   -2.9358   -5.5014 C   0  0  0  0  0  0  0  0  0  0  0  0
    6.1732   -2.5451   -6.3800 C   0  0  0  0  0  0  0  0  0  0  0  0
    7.8565   -3.1169   -6.1128 S   0  0  0  0  0  0  0  0  0  0  0  0
    7.7617   -4.4954   -7.3095 C   0  0  0  0  0  0  0  0  0  0  0  0
    7.0437   -5.6981   -6.7084 C   0  0  0  0  0  0  0  0  0  0  0  0
    5.8818   -1.6704   -7.4335 C   0  0  0  0  0  0  0  0  0  0  0  0
    6.8606   -1.2663   -8.2808 F   0  0  0  0  0  0  0  0  0  0  0  0
    4.5735   -1.2158   -7.6223 C   0  0  0  0  0  0  0  0  0  0  0  0
    1.9195    0.2764   -7.0410 C   0  0  0  0  0  0  0  0  0  0  0  0
    0.6648    0.8068   -7.3474 C   0  0  0  0  0  0  0  0  0  0  0  0
   -0.4226   -0.0443   -7.6273 C   0  0  0  0  0  0  0  0  0  0  0  0
   -1.7882    0.4779   -7.8419 C   0  0  0  0  0  0  0  0  0  0  0  0
   -2.3787    0.3820   -9.1101 C   0  0  0  0  0  0  0  0  0  0  0  0
   -3.6678    0.8783   -9.3214 C   0  0  0  0  0  0  0  0  0  0  0  0
   -4.3708    1.4835   -8.2740 C   0  0  0  0  0  0  0  0  0  0  0  0
   -6.0304    2.1176   -8.5552 S   0  0  0  0  0  0  0  0  0  0  0  0
   -5.5030    3.8295   -8.9218 C   0  0  0  0  0  0  0  0  0  0  0  0
   -5.0045    3.9533  -10.3568 C   0  0  0  0  0  0  0  0  0  0  0  0
   -3.7934    1.5555   -6.9982 C   0  0  0  0  0  0  0  0  0  0  0  0
   -2.5085    1.0510   -6.7823 C   0  0  0  0  0  0  0  0  0  0  0  0
   -4.4714    2.1228   -5.9722 F   0  0  0  0  0  0  0  0  0  0  0  0
   -0.2155   -1.4159   -7.4219 C   0  0  0  0  0  0  0  0  0  0  0  0
   -1.4065   -2.5490   -7.0910 S   0  0  0  0  0  0  0  0  0  0  0  0
    0.5383    2.1656   -7.0230 C   0  0  0  0  0  0  0  0  0  0  0  0
    1.5765    2.6484   -6.2220 C   0  0  0  0  0  0  0  0  0  0  0  0
    2.7906    1.4699   -6.2374 S   0  0  0  0  0  0  0  0  0  0  0  0
    1.2491    3.4206   -4.9936 C   0  0  0  0  0  0  0  0  0  0  0  0
    1.8584    3.1807   -3.7505 C   0  0  0  0  0  0  0  0  0  0  0  0
    0.9801    3.3091   -2.6534 C   0  0  0  0  0  0  0  0  0  0  0  0
    1.2354    2.8538   -1.3418 C   0  0  0  0  0  0  0  0  0  0  0  0
    2.6159    2.7060   -0.8225 C   0  0  0  0  0  0  0  0  0  0  0  0
    3.0328    1.5247   -0.1959 C   0  0  0  0  0  0  0  0  0  0  0  0
    4.2990    1.4397    0.3899 C   0  0  0  0  0  0  0  0  0  0  0  0
    5.1519    2.5489    0.3825 C   0  0  0  0  0  0  0  0  0  0  0  0
    6.7308    2.4680    1.2433 S   0  0  0  0  0  0  0  0  0  0  0  0
    7.7378    2.1732   -0.2527 C   0  0  0  0  0  0  0  0  0  0  0  0
    7.5919    0.7395   -0.7404 C   0  0  0  0  0  0  0  0  0  0  0  0
    4.7422    3.7340   -0.2414 C   0  0  0  0  0  0  0  0  0  0  0  0
    5.5497    4.8238   -0.2385 F   0  0  0  0  0  0  0  0  0  0  0  0
    3.4882    3.8066   -0.8522 C   0  0  0  0  0  0  0  0  0  0  0  0
    0.1112    2.6650   -0.5128 C   0  0  0  0  0  0  0  0  0  0  0  0
   -1.1808    3.0574   -0.8893 C   0  0  0  0  0  0  0  0  0  0  0  0
   -1.4168    3.6194   -2.1637 C   0  0  0  0  0  0  0  0  0  0  0  0
   -2.7801    3.9174   -2.6696 C   0  0  0  0  0  0  0  0  0  0  0  0
   -3.0623    5.1688   -3.2437 C   0  0  0  0  0  0  0  0  0  0  0  0
   -4.3179    5.4191   -3.8060 C   0  0  0  0  0  0  0  0  0  0  0  0
   -5.3115    4.4349   -3.7758 C   0  0  0  0  0  0  0  0  0  0  0  0
   -6.9119    4.7464   -4.5336 S   0  0  0  0  0  0  0  0  0  0  0  0
   -7.6838    5.4313   -3.0255 C   0  0  0  0  0  0  0  0  0  0  0  0
   -7.5916    6.9516   -3.0254 C   0  0  0  0  0  0  0  0  0  0  0  0
   -5.0363    3.1860   -3.1990 C   0  0  0  0  0  0  0  0  0  0  0  0
   -3.7751    2.9264   -2.6611 C   0  0  0  0  0  0  0  0  0  0  0  0
   -5.9820    2.2134   -3.1873 F   0  0  0  0  0  0  0  0  0  0  0  0
   -0.3063    3.7131   -3.0215 C   0  0  0  0  0  0  0  0  0  0  0  0
   -0.3372    3.9194   -4.6814 S   0  0  0  0  0  0  0  0  0  0  0  0
   -2.1481    2.7852    0.0943 C   0  0  0  0  0  0  0  0  0  0  0  0
   -1.6220    2.1092    1.1909 C   0  0  0  0  0  0  0  0  0  0  0  0
    0.0360    1.9082    0.9918 S   0  0  0  0  0  0  0  0  0  0  0  0
   -2.3922    1.6191    2.3320 C   0  0  0  0  0  0  0  0  0  0  0  0
   -2.3914    0.3086    2.8006 C   0  0  0  0  0  0  0  0  0  0  0  0
   -3.1842    0.1427    3.9483 C   0  0  0  0  0  0  0  0  0  0  0  0
   -3.4261   -1.0660    4.6449 C   0  0  0  0  0  0  0  0  0  0  0  0
   -2.9091   -2.3816    4.1912 C   0  0  0  0  0  0  0  0  0  0  0  0
   -1.5327   -2.5988    4.0339 C   0  0  0  0  0  0  0  0  0  0  0  0
   -1.0485   -3.8791    3.7458 C   0  0  0  0  0  0  0  0  0  0  0  0
   -1.9293   -4.9624    3.6386 C   0  0  0  0  0  0  0  0  0  0  0  0
   -1.2813   -6.6385    3.5123 S   0  0  0  0  0  0  0  0  0  0  0  0
   -1.4002   -6.7673    1.6979 C   0  0  0  0  0  0  0  0  0  0  0  0
   -0.1678   -6.1787    1.0218 C   0  0  0  0  0  0  0  0  0  0  0  0
   -3.3073   -4.7453    3.7582 C   0  0  0  0  0  0  0  0  0  0  0  0
   -4.1764   -5.7802    3.6507 F   0  0  0  0  0  0  0  0  0  0  0  0
   -3.7943   -3.4606    4.0165 C   0  0  0  0  0  0  0  0  0  0  0  0
   -4.2220   -0.9711    5.8040 C   0  0  0  0  0  0  0  0  0  0  0  0
   -4.7877    0.2298    6.2429 C   0  0  0  0  0  0  0  0  0  0  0  0
   -4.5883    1.4217    5.5208 C   0  0  0  0  0  0  0  0  0  0  0  0
   -5.1654    2.7070    5.9701 C   0  0  0  0  0  0  0  0  0  0  0  0
   -4.3288    3.7271    6.4471 C   0  0  0  0  0  0  0  0  0  0  0  0
   -4.8771    4.9207    6.9239 C   0  0  0  0  0  0  0  0  0  0  0  0
   -6.2637    5.1033    6.9351 C   0  0  0  0  0  0  0  0  0  0  0  0
   -6.9590    6.6333    7.5742 S   0  0  0  0  0  0  0  0  0  0  0  0
   -7.3028    5.9789    9.2461 C   0  0  0  0  0  0  0  0  0  0  0  0
   -6.0456    5.9776   10.1079 C   0  0  0  0  0  0  0  0  0  0  0  0
   -7.1031    4.0957    6.4382 C   0  0  0  0  0  0  0  0  0  0  0  0
   -6.5548    2.9002    5.9632 C   0  0  0  0  0  0  0  0  0  0  0  0
   -8.4475    4.2656    6.4323 F   0  0  0  0  0  0  0  0  0  0  0  0
   -3.7795    1.3402    4.3740 C   0  0  0  0  0  0  0  0  0  0  0  0
   -3.3745    2.5778    3.3085 S   0  0  0  0  0  0  0  0  0  0  0  0
   -5.5068    0.0978    7.4435 C   0  0  0  0  0  0  0  0  0  0  0  0
   -5.5030   -1.1984    7.9466 C   0  0  0  0  0  0  0  0  0  0  0  0
   -4.6068   -2.1795    6.9138 S   0  0  0  0  0  0  0  0  0  0  0  0
    0.8587   -1.8729    9.2422 H   0  0  0  0  0  0  0  0  0  0  0  0
    0.9536   -0.0930    7.3600 H   0  0  0  0  0  0  0  0  0  0  0  0
    3.5267    0.9442    3.8749 H   0  0  0  0  0  0  0  0  0  0  0  0
    3.1526    3.3666    3.7220 H   0  0  0  0  0  0  0  0  0  0  0  0
   -0.4494    6.1169    2.8071 H   0  0  0  0  0  0  0  0  0  0  0  0
   -0.5595    4.3301    2.6851 H   0  0  0  0  0  0  0  0  0  0  0  0
    1.7850    4.2755    1.7395 H   0  0  0  0  0  0  0  0  0  0  0  0
    0.7009    5.3339    0.7605 H   0  0  0  0  0  0  0  0  0  0  0  0
    1.8829    6.0741    1.9088 H   0  0  0  0  0  0  0  0  0  0  0  0
   -0.4857    0.4242    5.3771 H   0  0  0  0  0  0  0  0  0  0  0  0
    1.5181   -5.8495    3.4866 H   0  0  0  0  0  0  0  0  0  0  0  0
    2.1073   -8.2225    3.6880 H   0  0  0  0  0  0  0  0  0  0  0  0
    4.8305   -9.0210    3.2469 H   0  0  0  0  0  0  0  0  0  0  0  0
    5.3009  -10.6833    3.7385 H   0  0  0  0  0  0  0  0  0  0  0  0
    6.4394   -8.0662    4.9005 H   0  0  0  0  0  0  0  0  0  0  0  0
    7.2764   -9.2282    3.8133 H   0  0  0  0  0  0  0  0  0  0  0  0
    6.8408   -9.7324    5.4930 H   0  0  0  0  0  0  0  0  0  0  0  0
    4.2277   -4.8970    6.6994 H   0  0  0  0  0  0  0  0  0  0  0  0
    3.4859   -4.5809    2.4145 H   0  0  0  0  0  0  0  0  0  0  0  0
    7.0590   -2.5502   -1.4010 H   0  0  0  0  0  0  0  0  0  0  0  0
    1.6989   -0.3692   -3.0933 H   0  0  0  0  0  0  0  0  0  0  0  0
    3.8773    0.1616   -4.0989 H   0  0  0  0  0  0  0  0  0  0  0  0
    7.0874   -1.2288   -3.1914 H   0  0  0  0  0  0  0  0  0  0  0  0
    0.8535   -1.5660   -0.0733 H   0  0  0  0  0  0  0  0  0  0  0  0
    0.7947   -3.2184   -2.6348 H   0  0  0  0  0  0  0  0  0  0  0  0
   -3.6221   -3.9193    1.0505 H   0  0  0  0  0  0  0  0  0  0  0  0
   -2.6337   -6.3144   -4.3503 H   0  0  0  0  0  0  0  0  0  0  0  0
   -4.2476   -7.0752   -2.6985 H   0  0  0  0  0  0  0  0  0  0  0  0
   -5.3581   -6.7314   -0.5265 H   0  0  0  0  0  0  0  0  0  0  0  0
   -0.9363   -2.9971   -4.1250 H   0  0  0  0  0  0  0  0  0  0  0  0
   -0.8734   -5.6854   -5.5921 H   0  0  0  0  0  0  0  0  0  0  0  0
    1.7667   -3.8704   -6.2642 H   0  0  0  0  0  0  0  0  0  0  0  0
    3.1073   -2.7170   -4.9369 H   0  0  0  0  0  0  0  0  0  0  0  0
    5.3826   -3.5828   -4.6623 H   0  0  0  0  0  0  0  0  0  0  0  0
    7.2497   -4.1708   -8.2411 H   0  0  0  0  0  0  0  0  0  0  0  0
    8.7988   -4.7937   -7.5721 H   0  0  0  0  0  0  0  0  0  0  0  0
    7.5328   -6.0014   -5.7579 H   0  0  0  0  0  0  0  0  0  0  0  0
    5.9782   -5.4584   -6.5154 H   0  0  0  0  0  0  0  0  0  0  0  0
    7.0880   -6.5486   -7.4212 H   0  0  0  0  0  0  0  0  0  0  0  0
    4.3613   -0.5535   -8.4521 H   0  0  0  0  0  0  0  0  0  0  0  0
   -1.8392   -0.0738   -9.9308 H   0  0  0  0  0  0  0  0  0  0  0  0
   -4.1121    0.8026  -10.3058 H   0  0  0  0  0  0  0  0  0  0  0  0
   -4.7142    4.1603   -8.2129 H   0  0  0  0  0  0  0  0  0  0  0  0
   -6.3832    4.4940   -8.7921 H   0  0  0  0  0  0  0  0  0  0  0  0
   -4.8344    5.0222  -10.6010 H   0  0  0  0  0  0  0  0  0  0  0  0
   -4.0444    3.4115  -10.4811 H   0  0  0  0  0  0  0  0  0  0  0  0
   -5.7552    3.5394  -11.0639 H   0  0  0  0  0  0  0  0  0  0  0  0
   -2.0702    1.1142   -5.7920 H   0  0  0  0  0  0  0  0  0  0  0  0
   -0.4010    2.6928   -7.1258 H   0  0  0  0  0  0  0  0  0  0  0  0
    2.8358    2.7274   -3.6537 H   0  0  0  0  0  0  0  0  0  0  0  0
    2.3668    0.6792   -0.1416 H   0  0  0  0  0  0  0  0  0  0  0  0
    4.6065    0.5224    0.8752 H   0  0  0  0  0  0  0  0  0  0  0  0
    8.8005    2.3578    0.0053 H   0  0  0  0  0  0  0  0  0  0  0  0
    7.4529    2.8829   -1.0585 H   0  0  0  0  0  0  0  0  0  0  0  0
    6.5508    0.5521   -1.0629 H   0  0  0  0  0  0  0  0  0  0  0  0
    8.2665    0.5709   -1.6060 H   0  0  0  0  0  0  0  0  0  0  0  0
    7.8586    0.0280    0.0696 H   0  0  0  0  0  0  0  0  0  0  0  0
    3.1734    4.7389   -1.3038 H   0  0  0  0  0  0  0  0  0  0  0  0
   -2.3016    5.9389   -3.2780 H   0  0  0  0  0  0  0  0  0  0  0  0
   -4.5130    6.3773   -4.2706 H   0  0  0  0  0  0  0  0  0  0  0  0
   -7.2156    5.0222   -2.1046 H   0  0  0  0  0  0  0  0  0  0  0  0
   -8.7552    5.1396   -3.0201 H   0  0  0  0  0  0  0  0  0  0  0  0
   -8.0708    7.3560   -2.1076 H   0  0  0  0  0  0  0  0  0  0  0  0
   -6.5292    7.2776   -3.0474 H   0  0  0  0  0  0  0  0  0  0  0  0
   -8.1186    7.3644   -3.9138 H   0  0  0  0  0  0  0  0  0  0  0  0
   -3.5630    1.9402   -2.2629 H   0  0  0  0  0  0  0  0  0  0  0  0
   -3.1963    3.0299    0.0046 H   0  0  0  0  0  0  0  0  0  0  0  0
   -1.8410   -0.4873    2.3150 H   0  0  0  0  0  0  0  0  0  0  0  0
   -0.8308   -1.7871    4.1695 H   0  0  0  0  0  0  0  0  0  0  0  0
    0.0118   -4.0350    3.6491 H   0  0  0  0  0  0  0  0  0  0  0  0
   -1.4681   -7.8451    1.4357 H   0  0  0  0  0  0  0  0  0  0  0  0
   -2.3221   -6.2729    1.3342 H   0  0  0  0  0  0  0  0  0  0  0  0
   -0.2766   -6.2521   -0.0823 H   0  0  0  0  0  0  0  0  0  0  0  0
   -0.0408   -5.1115    1.2959 H   0  0  0  0  0  0  0  0  0  0  0  0
    0.7383   -6.7449    1.3237 H   0  0  0  0  0  0  0  0  0  0  0  0
   -4.8619   -3.3117    4.1189 H   0  0  0  0  0  0  0  0  0  0  0  0
   -3.2564    3.5910    6.4720 H   0  0  0  0  0  0  0  0  0  0  0  0
   -4.2225    5.6984    7.2947 H   0  0  0  0  0  0  0  0  0  0  0  0
   -7.7253    4.9540    9.1855 H   0  0  0  0  0  0  0  0  0  0  0  0
   -8.0627    6.6322    9.7230 H   0  0  0  0  0  0  0  0  0  0  0  0
   -5.2908    5.2773    9.6962 H   0  0  0  0  0  0  0  0  0  0  0  0
   -5.6138    6.9994   10.1574 H   0  0  0  0  0  0  0  0  0  0  0  0
   -6.3030    5.6490   11.1361 H   0  0  0  0  0  0  0  0  0  0  0  0
   -7.2134    2.1222    5.5968 H   0  0  0  0  0  0  0  0  0  0  0  0
   -6.0069    0.9139    7.9449 H   0  0  0  0  0  0  0  0  0  0  0  0
   -5.9886   -1.5192    8.8591 H   0  0  0  0  0  0  0  0  0  0  0  0
  1  2  2  0
  2  3  1  0
  3  4  2  0
  4  5  1  0
  5  6  2  0
  6  7  1  0
  7  8  2  0
  8  9  1  0
  9 10  1  0
 10 11  1  0
  8 12  1  0
 12 13  1  0
 12 14  2  0
  4 15  1  0
 15 16  2  0
 16 17  1  0
 17 18  1  0
 18 19  2  0
 19 20  1  0
 20 21  2  0
 21 22  1  0
 22 23  1  0
 23 24  1  0
 21 25  1  0
 25 26  2  0
 25 27  1  0
 17 28  2  0
 28 29  1  0
 16 30  1  0
 30 31  2  0
 31 32  1  0
 31 33  1  0
 33 34  1  0
 34 35  1  0
 35 36  2  0
 36 37  1  0
 37 38  1  0
 38 39  2  0
 39 40  1  0
 40 41  2  0
 41 42  1  0
 38 43  1  0
 43 44  2  3
 44 45  1  0
 45 46  1  0
 46 47  1  0
 47 48  2  0
 48 49  1  0
 49 50  1  0
 50 51  2  0
 51 52  1  0
 52 53  2  0
 53 54  1  0
 50 55  1  0
 55 56  2  3
 56 57  1  0
 57 58  2  0
 58 59  1  0
 59 60  2  0
 60 61  1  0
 61 62  2  0
 62 63  1  0
 63 64  2  0
 64 65  1  0
 65 66  1  0
 66 67  1  0
 64 68  1  0
 68 69  1  0
 68 70  2  0
 60 71  1  0
 71 72  2  0
 72 73  1  0
 73 74  1  0
 74 75  2  0
 75 76  1  0
 76 77  2  0
 77 78  1  0
 78 79  1  0
 79 80  1  0
 77 81  1  0
 81 82  2  0
 81 83  1  0
 73 84  2  0
 84 85  1  0
 72 86  1  0
 86 87  2  0
 87 88  1  0
 87 89  1  0
 89 90  2  0
 90 91  1  0
 91 92  2  0
 92 93  1  0
 93 94  2  0
 94 95  1  0
 95 96  2  0
 96 97  1  0
 97 98  1  0
 98 99  1  0
 96100  1  0
100101  1  0
100102  2  0
 92103  1  0
103104  2  0
104105  1  0
105106  1  0
106107  2  0
107108  1  0
108109  2  0
109110  1  0
110111  1  0
111112  1  0
109113  1  0
113114  2  0
113115  1  0
105116  2  0
116117  1  0
104118  1  0
118119  2  0
119120  1  0
119121  1  0
121122  2  0
122123  1  0
123124  2  0
124125  1  0
125126  2  0
126127  1  0
127128  2  0
128129  1  0
129130  1  0
130131  1  0
128132  1  0
132133  1  0
132134  2  0
124135  1  0
135136  2  0
136137  1  0
137138  1  0
138139  2  0
139140  1  0
140141  2  0
141142  1  0
142143  1  0
143144  1  0
141145  1  0
145146  2  0
145147  1  0
137148  2  0
148149  1  0
136150  1  0
150151  2  0
151152  1  0
 29  1  1  0
 37 33  2  0
 49 45  2  0
 85 57  1  0
117 89  1  0
149121  1  0
 28  3  1  0
 41 36  1  0
 53 48  1  0
 84 59  1  0
116 91  1  0
148123  1  0
 14  5  1  0
 32 15  1  0
 70 61  1  0
 88 71  1  0
102 93  1  0
120103  1  0
134125  1  0
152135  1  0
 26 18  1  0
 82 74  1  0
114106  1  0
146138  1  0
  1153  1  0
  2154  1  0
  6155  1  0
  7156  1  0
 10157  1  0
 10158  1  0
 11159  1  0
 11160  1  0
 11161  1  0
 14162  1  0
 19163  1  0
 20164  1  0
 23165  1  0
 23166  1  0
 24167  1  0
 24168  1  0
 24169  1  0
 26170  1  0
 30171  1  0
 35172  1  0
 39173  1  0
 40174  1  0
 42175  1  0
 43176  1  0
 44177  1  0
 47178  1  0
 51179  1  0
 52180  1  0
 54181  1  0
 55182  1  0
 56183  1  0
 58184  1  0
 62185  1  0
 63186  1  0
 66187  1  0
 66188  1  0
 67189  1  0
 67190  1  0
 67191  1  0
 70192  1  0
 75193  1  0
 76194  1  0
 79195  1  0
 79196  1  0
 80197  1  0
 80198  1  0
 80199  1  0
 82200  1  0
 86201  1  0
 90202  1  0
 94203  1  0
 95204  1  0
 98205  1  0
 98206  1  0
 99207  1  0
 99208  1  0
 99209  1  0
102210  1  0
107211  1  0
108212  1  0
111213  1  0
111214  1  0
112215  1  0
112216  1  0
112217  1  0
114218  1  0
118219  1  0
122220  1  0
126221  1  0
127222  1  0
130223  1  0
130224  1  0
131225  1  0
131226  1  0
131227  1  0
134228  1  0
139229  1  0
140230  1  0
143231  1  0
143232  1  0
144233  1  0
144234  1  0
144235  1  0
146236  1  0
150237  1  0
151238  1  0
M  END

