
     RDKit          3D

239265  0  0  0  0  0  0  0  0999 V2000
    1.4064  -11.3386    4.5498 C   0  0  0  0  0  0  0  0  0  0  0  0
    1.2215  -11.2619    3.1717 C   0  0  0  0  0  0  0  0  0  0  0  0
    0.3452  -10.2347    2.7879 C   0  0  0  0  0  0  0  0  0  0  0  0
   -0.0472   -9.9180    1.4711 C   0  0  0  0  0  0  0  0  0  0  0  0
    0.5161  -10.6080    0.2962 C   0  0  0  0  0  0  0  0  0  0  0  0
   -0.3851  -11.4358   -0.8592 S   0  0  0  0  0  0  0  0  0  0  0  0
    0.9028  -11.7694   -1.8871 C   0  0  0  0  0  0  0  0  0  0  0  0
    0.7626  -12.4138   -3.2340 C   0  0  0  0  0  0  0  0  0  0  0  0
    0.4948  -11.3651   -4.3086 C   0  0  0  0  0  0  0  0  0  0  0  0
    2.0591  -11.2052   -1.3526 C   0  0  0  0  0  0  0  0  0  0  0  0
    3.6217  -11.2435   -2.1587 Cl  0  0  0  0  0  0  0  0  0  0  0  0
    1.8429  -10.5571   -0.1258 C   0  0  0  0  0  0  0  0  0  0  0  0
    3.1011   -9.6756    0.7307 Cl  0  0  0  0  0  0  0  0  0  0  0  0
   -0.9685   -8.8683    1.3206 C   0  0  0  0  0  0  0  0  0  0  0  0
   -1.4679   -8.1350    2.4010 C   0  0  0  0  0  0  0  0  0  0  0  0
   -1.0722   -8.4502    3.7181 C   0  0  0  0  0  0  0  0  0  0  0  0
   -1.5737   -7.7045    4.8860 C   0  0  0  0  0  0  0  0  0  0  0  0
   -0.6178   -6.7997    5.9332 S   0  0  0  0  0  0  0  0  0  0  0  0
   -1.8712   -6.3223    6.9496 C   0  0  0  0  0  0  0  0  0  0  0  0
   -1.6887   -5.5136    8.1996 C   0  0  0  0  0  0  0  0  0  0  0  0
   -1.4844   -6.4230    9.4060 C   0  0  0  0  0  0  0  0  0  0  0  0
   -3.0579   -6.8955    6.4954 C   0  0  0  0  0  0  0  0  0  0  0  0
   -2.8914   -7.6650    5.3331 C   0  0  0  0  0  0  0  0  0  0  0  0
   -4.2028   -8.5512    4.5649 Cl  0  0  0  0  0  0  0  0  0  0  0  0
   -4.6049   -6.7043    7.3111 Cl  0  0  0  0  0  0  0  0  0  0  0  0
   -0.1588   -9.5082    3.8713 C   0  0  0  0  0  0  0  0  0  0  0  0
    0.4819  -10.1406    5.2939 S   0  0  0  0  0  0  0  0  0  0  0  0
   -2.3120   -7.0780    2.0099 C   0  0  0  0  0  0  0  0  0  0  0  0
   -2.4735   -6.9977    0.6244 C   0  0  0  0  0  0  0  0  0  0  0  0
   -1.5696   -8.2203   -0.1079 S   0  0  0  0  0  0  0  0  0  0  0  0
   -3.2175   -5.9680   -0.1183 C   0  0  0  0  0  0  0  0  0  0  0  0
   -3.7745   -4.8044    0.4118 C   0  0  0  0  0  0  0  0  0  0  0  0
   -4.2897   -3.9445   -0.5760 C   0  0  0  0  0  0  0  0  0  0  0  0
   -4.8615   -2.6668   -0.3746 C   0  0  0  0  0  0  0  0  0  0  0  0
   -5.0760   -2.1127    0.9751 C   0  0  0  0  0  0  0  0  0  0  0  0
   -6.5835   -1.7237    1.6146 S   0  0  0  0  0  0  0  0  0  0  0  0
   -6.0240   -1.2413    3.1260 C   0  0  0  0  0  0  0  0  0  0  0  0
   -6.8838   -0.6466    4.2000 C   0  0  0  0  0  0  0  0  0  0  0  0
   -6.9584    0.8692    4.0533 C   0  0  0  0  0  0  0  0  0  0  0  0
   -4.6373   -1.3594    3.1437 C   0  0  0  0  0  0  0  0  0  0  0  0
   -3.6399   -0.8890    4.5150 Cl  0  0  0  0  0  0  0  0  0  0  0  0
   -4.1038   -1.8485    1.9412 C   0  0  0  0  0  0  0  0  0  0  0  0
   -2.3779   -1.9967    1.6539 Cl  0  0  0  0  0  0  0  0  0  0  0  0
   -5.2685   -1.9647   -1.5267 C   0  0  0  0  0  0  0  0  0  0  0  0
   -5.1546   -2.4999   -2.8133 C   0  0  0  0  0  0  0  0  0  0  0  0
   -4.6269   -3.7896   -3.0075 C   0  0  0  0  0  0  0  0  0  0  0  0
   -4.5992   -4.4344   -4.3313 C   0  0  0  0  0  0  0  0  0  0  0  0
   -5.5863   -5.7243   -4.7683 S   0  0  0  0  0  0  0  0  0  0  0  0
   -5.0323   -5.8422   -6.3495 C   0  0  0  0  0  0  0  0  0  0  0  0
   -5.5891   -6.7860   -7.3703 C   0  0  0  0  0  0  0  0  0  0  0  0
   -6.7441   -6.1372   -8.1236 C   0  0  0  0  0  0  0  0  0  0  0  0
   -4.0735   -4.8514   -6.5642 C   0  0  0  0  0  0  0  0  0  0  0  0
   -3.8245   -4.0680   -5.4268 C   0  0  0  0  0  0  0  0  0  0  0  0
   -2.6311   -2.7799   -5.3864 Cl  0  0  0  0  0  0  0  0  0  0  0  0
   -3.2739   -4.5926   -8.1092 Cl  0  0  0  0  0  0  0  0  0  0  0  0
   -4.1838   -4.4720   -1.8664 C   0  0  0  0  0  0  0  0  0  0  0  0
   -3.4098   -5.9624   -1.7952 S   0  0  0  0  0  0  0  0  0  0  0  0
   -5.5874   -1.6247   -3.8213 C   0  0  0  0  0  0  0  0  0  0  0  0
   -5.9727   -0.3769   -3.3345 C   0  0  0  0  0  0  0  0  0  0  0  0
   -5.8735   -0.3930   -1.6472 S   0  0  0  0  0  0  0  0  0  0  0  0
   -6.3021    0.8070   -4.1533 C   0  0  0  0  0  0  0  0  0  0  0  0
   -7.4589    1.9690   -3.7497 S   0  0  0  0  0  0  0  0  0  0  0  0
   -7.2625    2.9297   -5.1210 C   0  0  0  0  0  0  0  0  0  0  0  0
   -6.2668    2.3527   -5.9112 C   0  0  0  0  0  0  0  0  0  0  0  0
   -5.7265    1.1825   -5.3751 C   0  0  0  0  0  0  0  0  0  0  0  0
   -4.6579    0.4486   -6.1375 C   0  0  0  0  0  0  0  0  0  0  0  0
   -3.6502    1.4191   -6.8184 C   0  0  2  0  0  0  0  0  0  0  0  0
   -2.5013    1.7725   -5.8430 C   0  0  0  0  0  0  0  0  0  0  0  0
   -1.8457    0.6244   -5.4275 F   0  0  0  0  0  0  0  0  0  0  0  0
   -1.5770    2.5929   -6.4611 F   0  0  0  0  0  0  0  0  0  0  0  0
   -3.0069    2.4228   -4.7367 F   0  0  0  0  0  0  0  0  0  0  0  0
   -4.3051    2.7248   -7.4228 C   0  0  1  0  0  0  0  0  0  0  0  0
   -3.8928    2.9463   -8.8927 C   0  0  0  0  0  0  0  0  0  0  0  0
   -4.4024    4.1476   -9.3550 F   0  0  0  0  0  0  0  0  0  0  0  0
   -2.5148    2.9908   -9.0016 F   0  0  0  0  0  0  0  0  0  0  0  0
   -4.3706    1.9200   -9.6882 F   0  0  0  0  0  0  0  0  0  0  0  0
   -5.8473    2.7950   -7.2820 C   0  0  0  0  0  0  0  0  0  0  0  0
   -8.0102    4.1689   -5.4111 C   0  0  0  0  0  0  0  0  0  0  0  0
   -7.4228    5.3736   -5.5015 C   0  0  0  0  0  0  0  0  0  0  0  0
   -6.0304    5.6027   -5.0886 C   0  0  0  0  0  0  0  0  0  0  0  0
   -5.4843    5.1542   -3.8920 C   0  0  0  0  0  0  0  0  0  0  0  0
   -4.0922    5.2535   -3.8566 C   0  0  0  0  0  0  0  0  0  0  0  0
   -3.2700    4.7578   -2.8339 C   0  0  0  0  0  0  0  0  0  0  0  0
   -3.8276    4.2965   -1.5480 C   0  0  0  0  0  0  0  0  0  0  0  0
   -4.6719    5.2938   -0.4890 S   0  0  0  0  0  0  0  0  0  0  0  0
   -4.9142    4.1343    0.7017 C   0  0  0  0  0  0  0  0  0  0  0  0
   -5.7024    4.3569    1.9561 C   0  0  0  0  0  0  0  0  0  0  0  0
   -7.1832    4.0819    1.7167 C   0  0  0  0  0  0  0  0  0  0  0  0
   -4.3512    2.9333    0.2732 C   0  0  0  0  0  0  0  0  0  0  0  0
   -4.3984    1.4574    1.2159 Cl  0  0  0  0  0  0  0  0  0  0  0  0
   -3.7364    3.0224   -0.9862 C   0  0  0  0  0  0  0  0  0  0  0  0
   -2.9899    1.6439   -1.7854 Cl  0  0  0  0  0  0  0  0  0  0  0  0
   -1.8922    4.7567   -3.0833 C   0  0  0  0  0  0  0  0  0  0  0  0
   -1.3261    5.2632   -4.2604 C   0  0  0  0  0  0  0  0  0  0  0  0
   -2.1541    5.8375   -5.2544 C   0  0  0  0  0  0  0  0  0  0  0  0
   -1.6044    6.4153   -6.4948 C   0  0  0  0  0  0  0  0  0  0  0  0
   -0.6947    5.5778   -7.6352 S   0  0  0  0  0  0  0  0  0  0  0  0
   -0.4120    6.8963   -8.6443 C   0  0  0  0  0  0  0  0  0  0  0  0
    0.4896    6.8697   -9.8433 C   0  0  0  0  0  0  0  0  0  0  0  0
    1.9331    7.1381   -9.4324 C   0  0  0  0  0  0  0  0  0  0  0  0
   -1.0154    8.0200   -8.0854 C   0  0  0  0  0  0  0  0  0  0  0  0
   -1.6927    7.7508   -6.8868 C   0  0  0  0  0  0  0  0  0  0  0  0
   -2.4909    8.9925   -5.9315 Cl  0  0  0  0  0  0  0  0  0  0  0  0
   -0.9045    9.6303   -8.7860 Cl  0  0  0  0  0  0  0  0  0  0  0  0
   -3.5428    5.7992   -5.0221 C   0  0  0  0  0  0  0  0  0  0  0  0
   -4.7970    6.1804   -6.0886 S   0  0  0  0  0  0  0  0  0  0  0  0
    0.0751    5.0977   -4.3086 C   0  0  0  0  0  0  0  0  0  0  0  0
    0.5661    4.4365   -3.1841 C   0  0  0  0  0  0  0  0  0  0  0  0
   -0.6903    4.1125   -2.1163 S   0  0  0  0  0  0  0  0  0  0  0  0
    1.9259    3.9604   -2.9473 C   0  0  0  0  0  0  0  0  0  0  0  0
    2.1701    2.6393   -2.5768 C   0  0  0  0  0  0  0  0  0  0  0  0
    3.2853    2.4903   -1.7432 C   0  0  0  0  0  0  0  0  0  0  0  0
    3.6567    1.3146   -1.0575 C   0  0  0  0  0  0  0  0  0  0  0  0
    2.9553    0.0312   -1.2570 C   0  0  0  0  0  0  0  0  0  0  0  0
    1.3555   -0.2753   -0.8307 S   0  0  0  0  0  0  0  0  0  0  0  0
    1.3568   -1.8964   -1.2855 C   0  0  0  0  0  0  0  0  0  0  0  0
    0.1703   -2.8076   -1.1997 C   0  0  0  0  0  0  0  0  0  0  0  0
   -0.6738   -2.7330   -2.4679 C   0  0  0  0  0  0  0  0  0  0  0  0
    2.6161   -2.2181   -1.7889 C   0  0  0  0  0  0  0  0  0  0  0  0
    3.0455   -3.8177   -2.3838 Cl  0  0  0  0  0  0  0  0  0  0  0  0
    3.5140   -1.1403   -1.7636 C   0  0  0  0  0  0  0  0  0  0  0  0
    5.1721   -1.2492   -2.3390 Cl  0  0  0  0  0  0  0  0  0  0  0  0
    4.6540    1.4442   -0.0768 C   0  0  0  0  0  0  0  0  0  0  0  0
    5.2826    2.6629    0.2018 C   0  0  0  0  0  0  0  0  0  0  0  0
    4.9658    3.8186   -0.5420 C   0  0  0  0  0  0  0  0  0  0  0  0
    5.6127    5.1149   -0.2822 C   0  0  0  0  0  0  0  0  0  0  0  0
    6.6892    5.8607   -1.3352 S   0  0  0  0  0  0  0  0  0  0  0  0
    6.9971    7.1917   -0.3570 C   0  0  0  0  0  0  0  0  0  0  0  0
    7.9741    8.2789   -0.6887 C   0  0  0  0  0  0  0  0  0  0  0  0
    9.3662    7.9288   -0.1745 C   0  0  0  0  0  0  0  0  0  0  0  0
    6.2662    7.0618    0.8229 C   0  0  0  0  0  0  0  0  0  0  0  0
    5.4807    5.8993    0.8606 C   0  0  0  0  0  0  0  0  0  0  0  0
    4.4228    5.4862    2.2044 Cl  0  0  0  0  0  0  0  0  0  0  0  0
    6.3279    8.2271    2.1364 Cl  0  0  0  0  0  0  0  0  0  0  0  0
    3.9473    3.6982   -1.4996 C   0  0  0  0  0  0  0  0  0  0  0  0
    3.1204    4.9430   -2.2774 S   0  0  0  0  0  0  0  0  0  0  0  0
    6.1086    2.6110    1.3343 C   0  0  0  0  0  0  0  0  0  0  0  0
    6.0932    1.3661    1.9616 C   0  0  0  0  0  0  0  0  0  0  0  0
    5.1012    0.3161    1.0893 S   0  0  0  0  0  0  0  0  0  0  0  0
    6.5579    1.1081    3.3316 C   0  0  0  0  0  0  0  0  0  0  0  0
    6.6730    2.0804    4.3233 C   0  0  0  0  0  0  0  0  0  0  0  0
    6.8773    1.5370    5.6002 C   0  0  0  0  0  0  0  0  0  0  0  0
    6.9676    2.2572    6.8073 C   0  0  0  0  0  0  0  0  0  0  0  0
    6.7432    3.7137    6.8561 C   0  0  0  0  0  0  0  0  0  0  0  0
    5.2588    4.4524    6.5785 S   0  0  0  0  0  0  0  0  0  0  0  0
    5.7764    6.0190    6.9111 C   0  0  0  0  0  0  0  0  0  0  0  0
    4.9039    7.2342    6.8283 C   0  0  0  0  0  0  0  0  0  0  0  0
    5.0476    7.9121    5.4732 C   0  0  0  0  0  0  0  0  0  0  0  0
    7.1351    5.9836    7.2224 C   0  0  0  0  0  0  0  0  0  0  0  0
    8.0780    7.4148    7.6162 Cl  0  0  0  0  0  0  0  0  0  0  0  0
    7.6758    4.6881    7.2007 C   0  0  0  0  0  0  0  0  0  0  0  0
    9.3608    4.3342    7.5510 Cl  0  0  0  0  0  0  0  0  0  0  0  0
    7.1589    1.5113    7.9815 C   0  0  0  0  0  0  0  0  0  0  0  0
    7.2366    0.1165    7.9834 C   0  0  0  0  0  0  0  0  0  0  0  0
    7.1333   -0.6070    6.7771 C   0  0  0  0  0  0  0  0  0  0  0  0
    7.2037   -2.0783    6.7453 C   0  0  0  0  0  0  0  0  0  0  0  0
    8.5664   -2.9772    7.1540 S   0  0  0  0  0  0  0  0  0  0  0  0
    7.8742   -4.4846    6.8759 C   0  0  0  0  0  0  0  0  0  0  0  0
    8.5516   -5.7926    7.1508 C   0  0  0  0  0  0  0  0  0  0  0  0
    8.3373   -6.2138    8.6011 C   0  0  0  0  0  0  0  0  0  0  0  0
    6.5493   -4.3028    6.4771 C   0  0  0  0  0  0  0  0  0  0  0  0
    6.1760   -2.9535    6.3982 C   0  0  0  0  0  0  0  0  0  0  0  0
    4.5511   -2.4260    5.9800 Cl  0  0  0  0  0  0  0  0  0  0  0  0
    5.4483   -5.6295    6.1301 Cl  0  0  0  0  0  0  0  0  0  0  0  0
    6.9506    0.1398    5.5997 C   0  0  0  0  0  0  0  0  0  0  0  0
    6.7328   -0.4179    4.0257 S   0  0  0  0  0  0  0  0  0  0  0  0
    7.3529   -0.4247    9.2751 C   0  0  0  0  0  0  0  0  0  0  0  0
    7.3734    0.5447   10.2747 C   0  0  0  0  0  0  0  0  0  0  0  0
    7.2311    2.0682    9.5663 S   0  0  0  0  0  0  0  0  0  0  0  0
    2.0366  -12.0530    5.0588 H   0  0  0  0  0  0  0  0  0  0  0  0
    1.7045  -11.9375    2.4785 H   0  0  0  0  0  0  0  0  0  0  0  0
   -0.0818  -13.1344   -3.2094 H   0  0  0  0  0  0  0  0  0  0  0  0
    1.6848  -12.9788   -3.4834 H   0  0  0  0  0  0  0  0  0  0  0  0
    0.3653  -11.8670   -5.2908 H   0  0  0  0  0  0  0  0  0  0  0  0
    1.3488  -10.6576   -4.3827 H   0  0  0  0  0  0  0  0  0  0  0  0
   -0.4317  -10.7972   -4.0717 H   0  0  0  0  0  0  0  0  0  0  0  0
   -2.5771   -4.8696    8.3655 H   0  0  0  0  0  0  0  0  0  0  0  0
   -0.8031   -4.8519    8.0860 H   0  0  0  0  0  0  0  0  0  0  0  0
   -1.3374   -5.8021   10.3149 H   0  0  0  0  0  0  0  0  0  0  0  0
   -2.3737   -7.0699    9.5602 H   0  0  0  0  0  0  0  0  0  0  0  0
   -0.5873   -7.0624    9.2607 H   0  0  0  0  0  0  0  0  0  0  0  0
   -2.7653   -6.3835    2.7049 H   0  0  0  0  0  0  0  0  0  0  0  0
   -3.7757   -4.5782    1.4673 H   0  0  0  0  0  0  0  0  0  0  0  0
   -6.4758   -0.9048    5.2004 H   0  0  0  0  0  0  0  0  0  0  0  0
   -7.9077   -1.0709    4.1322 H   0  0  0  0  0  0  0  0  0  0  0  0
   -7.6048    1.2896    4.8514 H   0  0  0  0  0  0  0  0  0  0  0  0
   -5.9446    1.3170    4.1432 H   0  0  0  0  0  0  0  0  0  0  0  0
   -7.3938    1.1375    3.0665 H   0  0  0  0  0  0  0  0  0  0  0  0
   -5.9553   -7.7030   -6.8624 H   0  0  0  0  0  0  0  0  0  0  0  0
   -4.7951   -7.0870   -8.0849 H   0  0  0  0  0  0  0  0  0  0  0  0
   -7.5562   -5.8610   -7.4156 H   0  0  0  0  0  0  0  0  0  0  0  0
   -7.1525   -6.8536   -8.8684 H   0  0  0  0  0  0  0  0  0  0  0  0
   -6.3973   -5.2259   -8.6568 H   0  0  0  0  0  0  0  0  0  0  0  0
   -5.6040   -1.8835   -4.8713 H   0  0  0  0  0  0  0  0  0  0  0  0
   -4.1082   -0.2449   -5.4756 H   0  0  0  0  0  0  0  0  0  0  0  0
   -5.1545   -0.1650   -6.9205 H   0  0  0  0  0  0  0  0  0  0  0  0
   -3.1785    0.8354   -7.6422 H   0  0  0  0  0  0  0  0  0  0  0  0
   -3.9171    3.6007   -6.8604 H   0  0  0  0  0  0  0  0  0  0  0  0
   -6.3304    2.1170   -8.0198 H   0  0  0  0  0  0  0  0  0  0  0  0
   -6.1989    3.8256   -7.4898 H   0  0  0  0  0  0  0  0  0  0  0  0
   -9.0709    4.0853   -5.6240 H   0  0  0  0  0  0  0  0  0  0  0  0
   -7.9939    6.2158   -5.8689 H   0  0  0  0  0  0  0  0  0  0  0  0
   -6.0749    4.6919   -3.1130 H   0  0  0  0  0  0  0  0  0  0  0  0
   -5.5772    5.4111    2.2844 H   0  0  0  0  0  0  0  0  0  0  0  0
   -5.3264    3.7001    2.7682 H   0  0  0  0  0  0  0  0  0  0  0  0
   -7.7483    4.2608    2.6545 H   0  0  0  0  0  0  0  0  0  0  0  0
   -7.3334    3.0260    1.4051 H   0  0  0  0  0  0  0  0  0  0  0  0
   -7.5754    4.7552    0.9226 H   0  0  0  0  0  0  0  0  0  0  0  0
    0.1653    7.6301  -10.5827 H   0  0  0  0  0  0  0  0  0  0  0  0
    0.4238    5.8750  -10.3300 H   0  0  0  0  0  0  0  0  0  0  0  0
    2.0229    8.1422   -8.9638 H   0  0  0  0  0  0  0  0  0  0  0  0
    2.5880    7.1033  -10.3293 H   0  0  0  0  0  0  0  0  0  0  0  0
    2.2765    6.3676   -8.7096 H   0  0  0  0  0  0  0  0  0  0  0  0
    0.7007    5.4057   -5.1352 H   0  0  0  0  0  0  0  0  0  0  0  0
    1.4711    1.8401   -2.7858 H   0  0  0  0  0  0  0  0  0  0  0  0
    0.5031   -3.8545   -1.0345 H   0  0  0  0  0  0  0  0  0  0  0  0
   -0.4522   -2.5136   -0.3324 H   0  0  0  0  0  0  0  0  0  0  0  0
   -0.0682   -3.0132   -3.3568 H   0  0  0  0  0  0  0  0  0  0  0  0
   -1.5233   -3.4406   -2.3833 H   0  0  0  0  0  0  0  0  0  0  0  0
   -1.0771   -1.7060   -2.6032 H   0  0  0  0  0  0  0  0  0  0  0  0
    7.6411    9.2385   -0.2411 H   0  0  0  0  0  0  0  0  0  0  0  0
    8.0140    8.4125   -1.7909 H   0  0  0  0  0  0  0  0  0  0  0  0
    9.7183    6.9775   -0.6290 H   0  0  0  0  0  0  0  0  0  0  0  0
    9.3557    7.8244    0.9314 H   0  0  0  0  0  0  0  0  0  0  0  0
   10.0757    8.7401   -0.4459 H   0  0  0  0  0  0  0  0  0  0  0  0
    6.6322    3.4691    1.7363 H   0  0  0  0  0  0  0  0  0  0  0  0
    6.5525    3.1388    4.1381 H   0  0  0  0  0  0  0  0  0  0  0  0
    3.8441    6.9390    6.9778 H   0  0  0  0  0  0  0  0  0  0  0  0
    5.1760    7.9496    7.6325 H   0  0  0  0  0  0  0  0  0  0  0  0
    4.3646    8.7859    5.4205 H   0  0  0  0  0  0  0  0  0  0  0  0
    4.7831    7.2051    4.6565 H   0  0  0  0  0  0  0  0  0  0  0  0
    6.0893    8.2713    5.3331 H   0  0  0  0  0  0  0  0  0  0  0  0
    9.6394   -5.6928    6.9535 H   0  0  0  0  0  0  0  0  0  0  0  0
    8.1541   -6.5753    6.4740 H   0  0  0  0  0  0  0  0  0  0  0  0
    7.2520   -6.3204    8.8167 H   0  0  0  0  0  0  0  0  0  0  0  0
    8.8325   -7.1902    8.7797 H   0  0  0  0  0  0  0  0  0  0  0  0
    8.7756   -5.4578    9.2876 H   0  0  0  0  0  0  0  0  0  0  0  0
    7.3908   -1.4841    9.4901 H   0  0  0  0  0  0  0  0  0  0  0  0
    7.4423    0.3465   11.3373 H   0  0  0  0  0  0  0  0  0  0  0  0
  1  2  2  0
  2  3  1  0
  3  4  2  0
  4  5  1  0
  5  6  1  0
  6  7  1  0
  7  8  1  0
  8  9  1  0
  7 10  2  0
 10 11  1  0
 10 12  1  0
 12 13  1  0
  4 14  1  0
 14 15  2  0
 15 16  1  0
 16 17  1  0
 17 18  1  0
 18 19  1  0
 19 20  1  0
 20 21  1  0
 19 22  2  0
 22 23  1  0
 23 24  1  0
 22 25  1  0
 16 26  2  0
 26 27  1  0
 15 28  1  0
 28 29  2  0
 29 30  1  0
 29 31  1  0
 31 32  2  0
 32 33  1  0
 33 34  2  0
 34 35  1  0
 35 36  1  0
 36 37  1  0
 37 38  1  0
 38 39  1  0
 37 40  2  0
 40 41  1  0
 40 42  1  0
 42 43  1  0
 34 44  1  0
 44 45  2  0
 45 46  1  0
 46 47  1  0
 47 48  1  0
 48 49  1  0
 49 50  1  0
 50 51  1  0
 49 52  2  0
 52 53  1  0
 53 54  1  0
 52 55  1  0
 46 56  2  0
 56 57  1  0
 45 58  1  0
 58 59  2  0
 59 60  1  0
 59 61  1  0
 61 62  1  0
 62 63  1  0
 63 64  2  0
 64 65  1  0
 65 66  1  0
 66 67  1  0
 67 68  1  0
 68 69  1  0
 68 70  1  0
 68 71  1  0
 67 72  1  0
 72 73  1  0
 73 74  1  0
 73 75  1  0
 73 76  1  0
 72 77  1  0
 63 78  1  0
 78 79  2  3
 79 80  1  0
 80 81  2  0
 81 82  1  0
 82 83  2  0
 83 84  1  0
 84 85  1  0
 85 86  1  0
 86 87  1  0
 87 88  1  0
 86 89  2  0
 89 90  1  0
 89 91  1  0
 91 92  1  0
 83 93  1  0
 93 94  2  0
 94 95  1  0
 95 96  1  0
 96 97  1  0
 97 98  1  0
 98 99  1  0
 99100  1  0
 98101  2  0
101102  1  0
102103  1  0
101104  1  0
 95105  2  0
105106  1  0
 94107  1  0
107108  2  0
108109  1  0
108110  1  0
110111  2  0
111112  1  0
112113  2  0
113114  1  0
114115  1  0
115116  1  0
116117  1  0
117118  1  0
116119  2  0
119120  1  0
119121  1  0
121122  1  0
113123  1  0
123124  2  0
124125  1  0
125126  1  0
126127  1  0
127128  1  0
128129  1  0
129130  1  0
128131  2  0
131132  1  0
132133  1  0
131134  1  0
125135  2  0
135136  1  0
124137  1  0
137138  2  0
138139  1  0
138140  1  0
140141  2  0
141142  1  0
142143  2  0
143144  1  0
144145  1  0
145146  1  0
146147  1  0
147148  1  0
146149  2  0
149150  1  0
149151  1  0
151152  1  0
143153  1  0
153154  2  0
154155  1  0
155156  1  0
156157  1  0
157158  1  0
158159  1  0
159160  1  0
158161  2  0
161162  1  0
162163  1  0
161164  1  0
155165  2  0
165166  1  0
154167  1  0
167168  2  0
168169  1  0
 27  1  1  0
 57 31  1  0
 65 61  2  0
106 80  1  0
136110  1  0
166140  1  0
 26  3  1  0
 56 33  1  0
 77 64  1  0
105 82  1  0
135112  1  0
165142  1  0
 12  5  2  0
 30 14  1  0
 42 35  2  0
 60 44  1  0
 91 84  2  0
109 93  1  0
121114  2  0
139123  1  0
151144  2  0
169153  1  0
 23 17  2  0
 53 47  2  0
102 96  2  0
132126  2  0
162156  2  0
  1170  1  0
  2171  1  0
  8172  1  0
  8173  1  0
  9174  1  0
  9175  1  0
  9176  1  0
 20177  1  0
 20178  1  0
 21179  1  0
 21180  1  0
 21181  1  0
 28182  1  0
 32183  1  0
 38184  1  0
 38185  1  0
 39186  1  0
 39187  1  0
 39188  1  0
 50189  1  0
 50190  1  0
 51191  1  0
 51192  1  0
 51193  1  0
 58194  1  0
 66195  1  0
 66196  1  0
 67197  1  6
 72198  1  1
 77199  1  0
 77200  1  0
 78201  1  0
 79202  1  0
 81203  1  0
 87204  1  0
 87205  1  0
 88206  1  0
 88207  1  0
 88208  1  0
 99209  1  0
 99210  1  0
100211  1  0
100212  1  0
100213  1  0
107214  1  0
111215  1  0
117216  1  0
117217  1  0
118218  1  0
118219  1  0
118220  1  0
129221  1  0
129222  1  0
130223  1  0
130224  1  0
130225  1  0
137226  1  0
141227  1  0
147228  1  0
147229  1  0
148230  1  0
148231  1  0
148232  1  0
159233  1  0
159234  1  0
160235  1  0
160236  1  0
160237  1  0
167238  1  0
168239  1  0
M  END

