
     RDKit          3D

224247  0  0  0  0  0  0  0  0999 V2000
    4.9188   -0.5714   12.2415 C   0  0  0  0  0  0  0  0  0  0  0  0
    4.2576    0.3624   11.4502 C   0  0  0  0  0  0  0  0  0  0  0  0
    3.2589   -0.2049   10.6423 C   0  0  0  0  0  0  0  0  0  0  0  0
    2.4190    0.4849    9.7478 C   0  0  0  0  0  0  0  0  0  0  0  0
    2.5737    1.9282    9.4747 C   0  0  0  0  0  0  0  0  0  0  0  0
    1.3644    3.0853    9.6675 S   0  0  0  0  0  0  0  0  0  0  0  0
    2.2477    4.3811    9.0585 C   0  0  0  0  0  0  0  0  0  0  0  0
    1.7044    5.7659    8.8628 C   0  0  0  0  0  0  0  0  0  0  0  0
    1.0427    5.8998    7.4952 C   0  0  0  0  0  0  0  0  0  0  0  0
    3.5015    3.9153    8.6598 C   0  0  0  0  0  0  0  0  0  0  0  0
    4.7128    4.9311    7.8925 Cl  0  0  0  0  0  0  0  0  0  0  0  0
    3.6847    2.5428    8.8943 C   0  0  0  0  0  0  0  0  0  0  0  0
    5.1331    1.6711    8.4057 Cl  0  0  0  0  0  0  0  0  0  0  0  0
    1.4626   -0.2798    9.0627 C   0  0  0  0  0  0  0  0  0  0  0  0
    1.3515   -1.6683    9.2050 C   0  0  0  0  0  0  0  0  0  0  0  0
    2.1815   -2.3570   10.1139 C   0  0  0  0  0  0  0  0  0  0  0  0
    2.0676   -3.8107   10.3314 C   0  0  0  0  0  0  0  0  0  0  0  0
    3.3078   -4.9243   10.0881 S   0  0  0  0  0  0  0  0  0  0  0  0
    2.4317   -6.2809   10.5573 C   0  0  0  0  0  0  0  0  0  0  0  0
    2.9541   -7.6842   10.5252 C   0  0  0  0  0  0  0  0  0  0  0  0
    2.5706   -8.3724    9.2209 C   0  0  0  0  0  0  0  0  0  0  0  0
    1.1404   -5.8813   10.9013 C   0  0  0  0  0  0  0  0  0  0  0  0
    0.9398   -4.4964   10.7857 C   0  0  0  0  0  0  0  0  0  0  0  0
   -0.5694   -3.7058   11.2282 Cl  0  0  0  0  0  0  0  0  0  0  0  0
   -0.1091   -6.9958   11.4389 Cl  0  0  0  0  0  0  0  0  0  0  0  0
    3.1331   -1.5889   10.8110 C   0  0  0  0  0  0  0  0  0  0  0  0
    4.2585   -2.0982   11.9545 S   0  0  0  0  0  0  0  0  0  0  0  0
    0.4128   -2.2426    8.3272 C   0  0  0  0  0  0  0  0  0  0  0  0
   -0.2272   -1.2946    7.5301 C   0  0  0  0  0  0  0  0  0  0  0  0
    0.3813    0.2378    7.8877 S   0  0  0  0  0  0  0  0  0  0  0  0
   -1.1778   -1.5479    6.4427 C   0  0  0  0  0  0  0  0  0  0  0  0
   -1.3111   -2.7294    5.7075 C   0  0  0  0  0  0  0  0  0  0  0  0
   -2.1227   -2.5714    4.5659 C   0  0  0  0  0  0  0  0  0  0  0  0
   -2.3562   -3.5265    3.5470 C   0  0  0  0  0  0  0  0  0  0  0  0
   -1.8363   -4.9040    3.6309 C   0  0  0  0  0  0  0  0  0  0  0  0
   -0.2111   -5.3293    3.7466 S   0  0  0  0  0  0  0  0  0  0  0  0
   -0.4631   -6.9910    3.8426 C   0  0  0  0  0  0  0  0  0  0  0  0
    0.6160   -8.0128    4.0286 C   0  0  0  0  0  0  0  0  0  0  0  0
    0.8029   -8.3478    5.5052 C   0  0  0  0  0  0  0  0  0  0  0  0
   -1.8359   -7.2366    3.7999 C   0  0  0  0  0  0  0  0  0  0  0  0
   -2.5382   -8.8422    3.9228 Cl  0  0  0  0  0  0  0  0  0  0  0  0
   -2.6038   -6.0690    3.6755 C   0  0  0  0  0  0  0  0  0  0  0  0
   -4.3631   -6.0716    3.6528 Cl  0  0  0  0  0  0  0  0  0  0  0  0
   -3.0965   -3.0921    2.4269 C   0  0  0  0  0  0  0  0  0  0  0  0
   -3.6340   -1.8068    2.3395 C   0  0  0  0  0  0  0  0  0  0  0  0
   -3.4382   -0.8707    3.3699 C   0  0  0  0  0  0  0  0  0  0  0  0
   -3.9253    0.5183    3.2739 C   0  0  0  0  0  0  0  0  0  0  0  0
   -3.4157    1.6388    2.1258 S   0  0  0  0  0  0  0  0  0  0  0  0
   -4.3338    2.9205    2.7094 C   0  0  0  0  0  0  0  0  0  0  0  0
   -4.4000    4.2747    2.0743 C   0  0  0  0  0  0  0  0  0  0  0  0
   -5.4729    4.3098    0.9901 C   0  0  0  0  0  0  0  0  0  0  0  0
   -5.0674    2.4813    3.8117 C   0  0  0  0  0  0  0  0  0  0  0  0
   -4.8292    1.1366    4.1359 C   0  0  0  0  0  0  0  0  0  0  0  0
   -5.6264    0.3016    5.4642 Cl  0  0  0  0  0  0  0  0  0  0  0  0
   -6.1888    3.5005    4.7038 Cl  0  0  0  0  0  0  0  0  0  0  0  0
   -2.6598   -1.2832    4.4577 C   0  0  0  0  0  0  0  0  0  0  0  0
   -2.0926   -0.3335    5.7171 S   0  0  0  0  0  0  0  0  0  0  0  0
   -4.2826   -1.5546    1.1259 C   0  0  0  0  0  0  0  0  0  0  0  0
   -4.2139   -2.6102    0.2185 C   0  0  0  0  0  0  0  0  0  0  0  0
   -3.3708   -3.8818    0.9590 S   0  0  0  0  0  0  0  0  0  0  0  0
   -4.5869   -2.4662   -1.2073 C   0  0  0  0  0  0  0  0  0  0  0  0
   -4.9355   -0.9636   -1.8910 S   0  0  0  0  0  0  0  0  0  0  0  0
   -5.1187   -1.4658   -3.4792 C   0  0  0  0  0  0  0  0  0  0  0  0
   -4.8935   -2.8405   -3.5073 C   0  0  0  0  0  0  0  0  0  0  0  0
   -4.6185   -3.4064   -2.2535 C   0  0  0  0  0  0  0  0  0  0  0  0
   -4.5357   -4.9054   -2.1550 C   0  0  0  0  0  0  0  0  0  0  0  0
   -3.6952   -5.5135   -3.3167 C   0  0  2  0  0  0  0  0  0  0  0  0
   -2.2017   -5.5727   -2.9213 C   0  0  0  0  0  0  0  0  0  0  0  0
   -2.0385   -6.3579   -1.7927 F   0  0  0  0  0  0  0  0  0  0  0  0
   -1.4521   -6.1345   -3.9389 F   0  0  0  0  0  0  0  0  0  0  0  0
   -1.7171   -4.3030   -2.6573 F   0  0  0  0  0  0  0  0  0  0  0  0
   -3.8922   -4.7861   -4.7103 C   0  0  1  0  0  0  0  0  0  0  0  0
   -4.1203   -5.7858   -5.8655 C   0  0  0  0  0  0  0  0  0  0  0  0
   -5.2878   -6.5026   -5.6641 F   0  0  0  0  0  0  0  0  0  0  0  0
   -4.2138   -5.1088   -7.0680 F   0  0  0  0  0  0  0  0  0  0  0  0
   -3.0626   -6.6704   -5.9575 F   0  0  0  0  0  0  0  0  0  0  0  0
   -5.0220   -3.7286   -4.7098 C   0  0  0  0  0  0  0  0  0  0  0  0
   -5.3249   -0.5633   -4.6298 C   0  0  0  0  0  0  0  0  0  0  0  0
   -5.8752    0.6451   -4.4783 C   0  0  0  0  0  0  0  0  0  0  0  0
   -5.9051    1.6280   -5.5744 C   0  0  0  0  0  0  0  0  0  0  0  0
   -4.7692    1.7317   -6.8140 S   0  0  0  0  0  0  0  0  0  0  0  0
   -5.3594    3.1411   -7.5284 C   0  0  0  0  0  0  0  0  0  0  0  0
   -6.4789    3.5404   -6.7934 C   0  0  0  0  0  0  0  0  0  0  0  0
   -6.7743    2.7121   -5.7084 C   0  0  0  0  0  0  0  0  0  0  0  0
   -8.0122    2.9718   -4.9011 C   0  0  0  0  0  0  0  0  0  0  0  0
   -8.1343    4.4824   -4.5717 C   0  0  2  0  0  0  0  0  0  0  0  0
   -9.5363    4.7896   -3.9992 C   0  0  0  0  0  0  0  0  0  0  0  0
   -9.6089    6.1124   -3.5996 F   0  0  0  0  0  0  0  0  0  0  0  0
  -10.5144    4.5553   -4.9524 F   0  0  0  0  0  0  0  0  0  0  0  0
   -9.7877    3.9898   -2.8969 F   0  0  0  0  0  0  0  0  0  0  0  0
   -7.7725    5.4473   -5.7744 C   0  0  1  0  0  0  0  0  0  0  0  0
   -6.6808    6.4639   -5.3607 C   0  0  0  0  0  0  0  0  0  0  0  0
   -7.0768    7.1570   -4.2315 F   0  0  0  0  0  0  0  0  0  0  0  0
   -6.4687    7.3813   -6.3742 F   0  0  0  0  0  0  0  0  0  0  0  0
   -5.4886    5.8129   -5.0900 F   0  0  0  0  0  0  0  0  0  0  0  0
   -7.3681    4.7128   -7.0862 C   0  0  0  0  0  0  0  0  0  0  0  0
   -4.8804    3.7472   -8.7902 C   0  0  0  0  0  0  0  0  0  0  0  0
   -3.6127    3.7119   -9.2245 C   0  0  0  0  0  0  0  0  0  0  0  0
   -2.4921    3.1970   -8.4305 C   0  0  0  0  0  0  0  0  0  0  0  0
   -1.8119    3.9089   -7.4452 C   0  0  0  0  0  0  0  0  0  0  0  0
   -0.7681    3.1701   -6.8648 C   0  0  0  0  0  0  0  0  0  0  0  0
    0.1210    3.6141   -5.8593 C   0  0  0  0  0  0  0  0  0  0  0  0
    0.0045    4.9533   -5.2544 C   0  0  0  0  0  0  0  0  0  0  0  0
   -1.3373    5.5049   -4.3988 S   0  0  0  0  0  0  0  0  0  0  0  0
   -0.7035    7.0188   -4.0304 C   0  0  0  0  0  0  0  0  0  0  0  0
   -1.4015    8.0432   -3.1878 C   0  0  0  0  0  0  0  0  0  0  0  0
   -1.3008    7.6856   -1.7081 C   0  0  0  0  0  0  0  0  0  0  0  0
    0.5848    7.1056   -4.5609 C   0  0  0  0  0  0  0  0  0  0  0  0
    1.6129    8.5210   -4.3948 Cl  0  0  0  0  0  0  0  0  0  0  0  0
    0.9758    5.9519   -5.2553 C   0  0  0  0  0  0  0  0  0  0  0  0
    2.5177    5.8053   -6.0923 Cl  0  0  0  0  0  0  0  0  0  0  0  0
    1.1027    2.6989   -5.4309 C   0  0  0  0  0  0  0  0  0  0  0  0
    1.1977    1.4071   -5.9554 C   0  0  0  0  0  0  0  0  0  0  0  0
    0.3205    0.9714   -6.9625 C   0  0  0  0  0  0  0  0  0  0  0  0
    0.3806   -0.3992   -7.4921 C   0  0  0  0  0  0  0  0  0  0  0  0
    1.6293   -1.0052   -8.4405 S   0  0  0  0  0  0  0  0  0  0  0  0
    1.0721   -2.5917   -8.4754 C   0  0  0  0  0  0  0  0  0  0  0  0
    1.7900   -3.7292   -9.1313 C   0  0  0  0  0  0  0  0  0  0  0  0
    2.7516   -4.3976   -8.1537 C   0  0  0  0  0  0  0  0  0  0  0  0
   -0.0923   -2.6743   -7.7081 C   0  0  0  0  0  0  0  0  0  0  0  0
   -0.4820   -1.4404   -7.1614 C   0  0  0  0  0  0  0  0  0  0  0  0
   -1.8644   -1.2472   -6.0899 Cl  0  0  0  0  0  0  0  0  0  0  0  0
   -0.9397   -4.1776   -7.3907 Cl  0  0  0  0  0  0  0  0  0  0  0  0
   -0.6446    1.8839   -7.4046 C   0  0  0  0  0  0  0  0  0  0  0  0
   -1.7979    1.6694   -8.6128 S   0  0  0  0  0  0  0  0  0  0  0  0
    2.1895    0.6307   -5.3432 C   0  0  0  0  0  0  0  0  0  0  0  0
    2.8784    1.3098   -4.3422 C   0  0  0  0  0  0  0  0  0  0  0  0
    2.2552    2.8758   -4.2079 S   0  0  0  0  0  0  0  0  0  0  0  0
    3.9186    0.7154   -3.4928 C   0  0  0  0  0  0  0  0  0  0  0  0
    4.1379   -0.6520   -3.3458 C   0  0  0  0  0  0  0  0  0  0  0  0
    5.1954   -0.9511   -2.4785 C   0  0  0  0  0  0  0  0  0  0  0  0
    5.6477   -2.2431   -2.1447 C   0  0  0  0  0  0  0  0  0  0  0  0
    4.9796   -3.4536   -2.6578 C   0  0  0  0  0  0  0  0  0  0  0  0
    5.6507   -4.5298   -3.7649 S   0  0  0  0  0  0  0  0  0  0  0  0
    4.2728   -5.4812   -3.9481 C   0  0  0  0  0  0  0  0  0  0  0  0
    4.1766   -6.6839   -4.8357 C   0  0  0  0  0  0  0  0  0  0  0  0
    4.4755   -7.9590   -4.0564 C   0  0  0  0  0  0  0  0  0  0  0  0
    3.2687   -4.9767   -3.1220 C   0  0  0  0  0  0  0  0  0  0  0  0
    1.6668   -5.6875   -2.9954 Cl  0  0  0  0  0  0  0  0  0  0  0  0
    3.6605   -3.8354   -2.4063 C   0  0  0  0  0  0  0  0  0  0  0  0
    2.5993   -2.9839   -1.2899 Cl  0  0  0  0  0  0  0  0  0  0  0  0
    6.7683   -2.3239   -1.3056 C   0  0  0  0  0  0  0  0  0  0  0  0
    7.4101   -1.1914   -0.7925 C   0  0  0  0  0  0  0  0  0  0  0  0
    6.9441    0.1030   -1.1096 C   0  0  0  0  0  0  0  0  0  0  0  0
    7.6122    1.3150   -0.5997 C   0  0  0  0  0  0  0  0  0  0  0  0
    9.2113    1.7341   -0.9114 S   0  0  0  0  0  0  0  0  0  0  0  0
    9.2186    3.1275    0.0324 C   0  0  0  0  0  0  0  0  0  0  0  0
   10.3918    4.0509    0.1764 C   0  0  0  0  0  0  0  0  0  0  0  0
   10.3707    5.1262   -0.9050 C   0  0  0  0  0  0  0  0  0  0  0  0
    7.9537    3.2927    0.5945 C   0  0  0  0  0  0  0  0  0  0  0  0
    7.0560    2.2707    0.2500 C   0  0  0  0  0  0  0  0  0  0  0  0
    5.4132    2.1784    0.8735 Cl  0  0  0  0  0  0  0  0  0  0  0  0
    7.5317    4.6255    1.6628 Cl  0  0  0  0  0  0  0  0  0  0  0  0
    5.8244    0.1831   -1.9591 C   0  0  0  0  0  0  0  0  0  0  0  0
    5.0512    1.5600   -2.5601 S   0  0  0  0  0  0  0  0  0  0  0  0
    8.4807   -1.5101    0.0581 C   0  0  0  0  0  0  0  0  0  0  0  0
    8.6803   -2.8804    0.2059 C   0  0  0  0  0  0  0  0  0  0  0  0
    7.5256   -3.7019   -0.7095 S   0  0  0  0  0  0  0  0  0  0  0  0
    5.7230   -0.3512   12.9326 H   0  0  0  0  0  0  0  0  0  0  0  0
    4.4952    1.4171   11.4709 H   0  0  0  0  0  0  0  0  0  0  0  0
    0.9576    5.9851    9.6535 H   0  0  0  0  0  0  0  0  0  0  0  0
    2.5230    6.5105    8.9503 H   0  0  0  0  0  0  0  0  0  0  0  0
    1.7808    5.7033    6.6880 H   0  0  0  0  0  0  0  0  0  0  0  0
    0.6524    6.9320    7.3713 H   0  0  0  0  0  0  0  0  0  0  0  0
    0.1980    5.1835    7.4003 H   0  0  0  0  0  0  0  0  0  0  0  0
    4.0590   -7.6687   10.6219 H   0  0  0  0  0  0  0  0  0  0  0  0
    2.5456   -8.2589   11.3835 H   0  0  0  0  0  0  0  0  0  0  0  0
    1.4677   -8.4760    9.1448 H   0  0  0  0  0  0  0  0  0  0  0  0
    3.0251   -9.3869    9.1899 H   0  0  0  0  0  0  0  0  0  0  0  0
    2.9435   -7.7911    8.3482 H   0  0  0  0  0  0  0  0  0  0  0  0
    0.2189   -3.3049    8.2526 H   0  0  0  0  0  0  0  0  0  0  0  0
   -0.7821   -3.6391    5.9554 H   0  0  0  0  0  0  0  0  0  0  0  0
    0.3604   -8.9373    3.4655 H   0  0  0  0  0  0  0  0  0  0  0  0
    1.5711   -7.6214    3.6182 H   0  0  0  0  0  0  0  0  0  0  0  0
   -0.1482   -8.7104    5.9480 H   0  0  0  0  0  0  0  0  0  0  0  0
    1.5695   -9.1437    5.6104 H   0  0  0  0  0  0  0  0  0  0  0  0
    1.1447   -7.4503    6.0619 H   0  0  0  0  0  0  0  0  0  0  0  0
   -3.4140    4.5217    1.6260 H   0  0  0  0  0  0  0  0  0  0  0  0
   -4.6233    5.0461    2.8423 H   0  0  0  0  0  0  0  0  0  0  0  0
   -5.5648    5.3428    0.5966 H   0  0  0  0  0  0  0  0  0  0  0  0
   -5.1945    3.6316    0.1544 H   0  0  0  0  0  0  0  0  0  0  0  0
   -6.4554    3.9969    1.4052 H   0  0  0  0  0  0  0  0  0  0  0  0
   -4.7448   -0.6059    0.8895 H   0  0  0  0  0  0  0  0  0  0  0  0
   -5.5735   -5.2980   -2.2270 H   0  0  0  0  0  0  0  0  0  0  0  0
   -4.1562   -5.2440   -1.1754 H   0  0  0  0  0  0  0  0  0  0  0  0
   -4.0342   -6.5689   -3.4142 H   0  0  0  0  0  0  0  0  0  0  0  0
   -2.9620   -4.2267   -4.9549 H   0  0  0  0  0  0  0  0  0  0  0  0
   -4.9708   -3.1367   -5.6450 H   0  0  0  0  0  0  0  0  0  0  0  0
   -6.0167   -4.2239   -4.6742 H   0  0  0  0  0  0  0  0  0  0  0  0
   -4.9855   -0.8756   -5.6060 H   0  0  0  0  0  0  0  0  0  0  0  0
   -6.2795    0.9382   -3.5186 H   0  0  0  0  0  0  0  0  0  0  0  0
   -8.0070    2.3829   -3.9615 H   0  0  0  0  0  0  0  0  0  0  0  0
   -8.8863    2.6360   -5.5025 H   0  0  0  0  0  0  0  0  0  0  0  0
   -7.4179    4.6593   -3.7398 H   0  0  0  0  0  0  0  0  0  0  0  0
   -8.6655    6.0541   -6.0369 H   0  0  0  0  0  0  0  0  0  0  0  0
   -6.8828    5.4138   -7.7968 H   0  0  0  0  0  0  0  0  0  0  0  0
   -8.2859    4.3288   -7.5820 H   0  0  0  0  0  0  0  0  0  0  0  0
   -5.6071    4.2484   -9.4156 H   0  0  0  0  0  0  0  0  0  0  0  0
   -3.3796    4.1553  -10.1838 H   0  0  0  0  0  0  0  0  0  0  0  0
   -2.0629    4.9256   -7.1739 H   0  0  0  0  0  0  0  0  0  0  0  0
   -2.4723    8.0886   -3.4844 H   0  0  0  0  0  0  0  0  0  0  0  0
   -0.9605    9.0501   -3.3538 H   0  0  0  0  0  0  0  0  0  0  0  0
   -1.8315    8.4466   -1.1020 H   0  0  0  0  0  0  0  0  0  0  0  0
   -1.7706    6.6963   -1.5167 H   0  0  0  0  0  0  0  0  0  0  0  0
   -0.2356    7.6521   -1.3926 H   0  0  0  0  0  0  0  0  0  0  0  0
    1.0583   -4.4772   -9.5078 H   0  0  0  0  0  0  0  0  0  0  0  0
    2.3661   -3.3454  -10.0021 H   0  0  0  0  0  0  0  0  0  0  0  0
    2.1982   -4.8043   -7.2807 H   0  0  0  0  0  0  0  0  0  0  0  0
    3.5088   -3.6660   -7.7946 H   0  0  0  0  0  0  0  0  0  0  0  0
    3.2770   -5.2305   -8.6656 H   0  0  0  0  0  0  0  0  0  0  0  0
    2.3922   -0.3969   -5.6125 H   0  0  0  0  0  0  0  0  0  0  0  0
    3.5460   -1.4067   -3.8474 H   0  0  0  0  0  0  0  0  0  0  0  0
    3.1590   -6.7446   -5.2740 H   0  0  0  0  0  0  0  0  0  0  0  0
    4.9034   -6.5853   -5.6702 H   0  0  0  0  0  0  0  0  0  0  0  0
    5.5037   -7.9262   -3.6417 H   0  0  0  0  0  0  0  0  0  0  0  0
    4.3955   -8.8357   -4.7358 H   0  0  0  0  0  0  0  0  0  0  0  0
    3.7506   -8.0894   -3.2267 H   0  0  0  0  0  0  0  0  0  0  0  0
   11.3353    3.4658    0.0970 H   0  0  0  0  0  0  0  0  0  0  0  0
   10.3792    4.5311    1.1763 H   0  0  0  0  0  0  0  0  0  0  0  0
    9.4192    5.6954   -0.8625 H   0  0  0  0  0  0  0  0  0  0  0  0
   11.2163    5.8295   -0.7474 H   0  0  0  0  0  0  0  0  0  0  0  0
   10.4769    4.6634   -1.9109 H   0  0  0  0  0  0  0  0  0  0  0  0
    9.0910   -0.7759    0.5683 H   0  0  0  0  0  0  0  0  0  0  0  0
    9.4410   -3.3418    0.8197 H   0  0  0  0  0  0  0  0  0  0  0  0
  1  2  2  0
  2  3  1  0
  3  4  2  0
  4  5  1  0
  5  6  1  0
  6  7  1  0
  7  8  1  0
  8  9  1  0
  7 10  2  0
 10 11  1  0
 10 12  1  0
 12 13  1  0
  4 14  1  0
 14 15  2  0
 15 16  1  0
 16 17  1  0
 17 18  1  0
 18 19  1  0
 19 20  1  0
 20 21  1  0
 19 22  2  0
 22 23  1  0
 23 24  1  0
 22 25  1  0
 16 26  2  0
 26 27  1  0
 15 28  1  0
 28 29  2  0
 29 30  1  0
 29 31  1  0
 31 32  2  0
 32 33  1  0
 33 34  2  0
 34 35  1  0
 35 36  1  0
 36 37  1  0
 37 38  1  0
 38 39  1  0
 37 40  2  0
 40 41  1  0
 40 42  1  0
 42 43  1  0
 34 44  1  0
 44 45  2  0
 45 46  1  0
 46 47  1  0
 47 48  1  0
 48 49  1  0
 49 50  1  0
 50 51  1  0
 49 52  2  0
 52 53  1  0
 53 54  1  0
 52 55  1  0
 46 56  2  0
 56 57  1  0
 45 58  1  0
 58 59  2  0
 59 60  1  0
 59 61  1  0
 61 62  1  0
 62 63  1  0
 63 64  2  0
 64 65  1  0
 65 66  1  0
 66 67  1  0
 67 68  1  0
 68 69  1  0
 68 70  1  0
 68 71  1  0
 67 72  1  0
 72 73  1  0
 73 74  1  0
 73 75  1  0
 73 76  1  0
 72 77  1  0
 63 78  1  0
 78 79  2  3
 79 80  1  0
 80 81  1  0
 81 82  1  0
 82 83  2  0
 83 84  1  0
 84 85  1  0
 85 86  1  0
 86 87  1  0
 87 88  1  0
 87 89  1  0
 87 90  1  0
 86 91  1  0
 91 92  1  0
 92 93  1  0
 92 94  1  0
 92 95  1  0
 91 96  1  0
 82 97  1  0
 97 98  2  3
 98 99  1  0
 99100  2  0
100101  1  0
101102  2  0
102103  1  0
103104  1  0
104105  1  0
105106  1  0
106107  1  0
105108  2  0
108109  1  0
108110  1  0
110111  1  0
102112  1  0
112113  2  0
113114  1  0
114115  1  0
115116  1  0
116117  1  0
117118  1  0
118119  1  0
117120  2  0
120121  1  0
121122  1  0
120123  1  0
114124  2  0
124125  1  0
113126  1  0
126127  2  0
127128  1  0
127129  1  0
129130  2  0
130131  1  0
131132  2  0
132133  1  0
133134  1  0
134135  1  0
135136  1  0
136137  1  0
135138  2  0
138139  1  0
138140  1  0
140141  1  0
132142  1  0
142143  2  0
143144  1  0
144145  1  0
145146  1  0
146147  1  0
147148  1  0
148149  1  0
147150  2  0
150151  1  0
151152  1  0
150153  1  0
144154  2  0
154155  1  0
143156  1  0
156157  2  0
157158  1  0
 27  1  1  0
 57 31  1  0
 65 61  2  0
 84 80  2  0
125 99  1  0
155129  1  0
 26  3  1  0
 56 33  1  0
 77 64  1  0
 96 83  1  0
124101  1  0
154131  1  0
 12  5  2  0
 30 14  1  0
 42 35  2  0
 60 44  1  0
110103  2  0
128112  1  0
140133  2  0
158142  1  0
 23 17  2  0
 53 47  2  0
121115  2  0
151145  2  0
  1159  1  0
  2160  1  0
  8161  1  0
  8162  1  0
  9163  1  0
  9164  1  0
  9165  1  0
 20166  1  0
 20167  1  0
 21168  1  0
 21169  1  0
 21170  1  0
 28171  1  0
 32172  1  0
 38173  1  0
 38174  1  0
 39175  1  0
 39176  1  0
 39177  1  0
 50178  1  0
 50179  1  0
 51180  1  0
 51181  1  0
 51182  1  0
 58183  1  0
 66184  1  0
 66185  1  0
 67186  1  6
 72187  1  6
 77188  1  0
 77189  1  0
 78190  1  0
 79191  1  0
 85192  1  0
 85193  1  0
 86194  1  1
 91195  1  6
 96196  1  0
 96197  1  0
 97198  1  0
 98199  1  0
100200  1  0
106201  1  0
106202  1  0
107203  1  0
107204  1  0
107205  1  0
118206  1  0
118207  1  0
119208  1  0
119209  1  0
119210  1  0
126211  1  0
130212  1  0
136213  1  0
136214  1  0
137215  1  0
137216  1  0
137217  1  0
148218  1  0
148219  1  0
149220  1  0
149221  1  0
149222  1  0
156223  1  0
157224  1  0
M  END

