
     RDKit          3D

232258  0  0  0  0  0  0  0  0999 V2000
    2.3552   -5.2677   10.1259 C   0  0  0  0  0  0  0  0  0  0  0  0
    2.6837   -3.9272    9.9478 C   0  0  0  0  0  0  0  0  0  0  0  0
    1.6015   -3.1439    9.5084 C   0  0  0  0  0  0  0  0  0  0  0  0
    1.6348   -1.7674    9.2062 C   0  0  0  0  0  0  0  0  0  0  0  0
    2.8865   -0.9907    9.2608 C   0  0  0  0  0  0  0  0  0  0  0  0
    3.1889    0.2811   10.3176 S   0  0  0  0  0  0  0  0  0  0  0  0
    4.7536    0.5928    9.7795 C   0  0  0  0  0  0  0  0  0  0  0  0
    5.6281    1.6947   10.2916 C   0  0  0  0  0  0  0  0  0  0  0  0
    5.4552    2.9517    9.4480 C   0  0  0  0  0  0  0  0  0  0  0  0
    5.0471   -0.2840    8.7354 C   0  0  0  0  0  0  0  0  0  0  0  0
    6.5633   -0.2576    7.8419 Cl  0  0  0  0  0  0  0  0  0  0  0  0
    4.0046   -1.1782    8.4517 C   0  0  0  0  0  0  0  0  0  0  0  0
    4.0805   -2.3735    7.1617 Cl  0  0  0  0  0  0  0  0  0  0  0  0
    0.4289   -1.1775    8.7927 C   0  0  0  0  0  0  0  0  0  0  0  0
   -0.7559   -1.9106    8.6439 C   0  0  0  0  0  0  0  0  0  0  0  0
   -0.7858   -3.2915    8.9283 C   0  0  0  0  0  0  0  0  0  0  0  0
   -2.0013   -4.1016    8.7315 C   0  0  0  0  0  0  0  0  0  0  0  0
   -2.7444   -4.3720    7.2469 S   0  0  0  0  0  0  0  0  0  0  0  0
   -3.9753   -5.3562    7.8306 C   0  0  0  0  0  0  0  0  0  0  0  0
   -5.0175   -6.0193    6.9795 C   0  0  0  0  0  0  0  0  0  0  0  0
   -4.5593   -7.4108    6.5574 C   0  0  0  0  0  0  0  0  0  0  0  0
   -3.8070   -5.5085    9.2060 C   0  0  0  0  0  0  0  0  0  0  0  0
   -2.7054   -4.7979    9.7116 C   0  0  0  0  0  0  0  0  0  0  0  0
   -2.2953   -4.7532   11.4202 Cl  0  0  0  0  0  0  0  0  0  0  0  0
   -4.8583   -6.4938   10.2119 Cl  0  0  0  0  0  0  0  0  0  0  0  0
    0.4176   -3.8722    9.3657 C   0  0  0  0  0  0  0  0  0  0  0  0
    0.7251   -5.4840    9.7448 S   0  0  0  0  0  0  0  0  0  0  0  0
   -1.8256   -1.1358    8.1708 C   0  0  0  0  0  0  0  0  0  0  0  0
   -1.4754    0.1894    7.9202 C   0  0  0  0  0  0  0  0  0  0  0  0
    0.1548    0.4131    8.3067 S   0  0  0  0  0  0  0  0  0  0  0  0
   -2.3323    1.1772    7.2441 C   0  0  0  0  0  0  0  0  0  0  0  0
   -1.9671    2.4828    6.9044 C   0  0  0  0  0  0  0  0  0  0  0  0
   -2.8981    3.1077    6.0509 C   0  0  0  0  0  0  0  0  0  0  0  0
   -2.7588    4.3762    5.4470 C   0  0  0  0  0  0  0  0  0  0  0  0
   -1.6237    5.2681    5.7643 C   0  0  0  0  0  0  0  0  0  0  0  0
   -0.4834    5.8114    4.6555 S   0  0  0  0  0  0  0  0  0  0  0  0
    0.3884    6.7597    5.7381 C   0  0  0  0  0  0  0  0  0  0  0  0
    1.5308    7.6482    5.3537 C   0  0  0  0  0  0  0  0  0  0  0  0
    1.0238    9.0288    4.9490 C   0  0  0  0  0  0  0  0  0  0  0  0
   -0.2229    6.6800    6.9896 C   0  0  0  0  0  0  0  0  0  0  0  0
    0.3301    7.5773    8.3964 Cl  0  0  0  0  0  0  0  0  0  0  0  0
   -1.3466    5.8367    7.0072 C   0  0  0  0  0  0  0  0  0  0  0  0
   -2.3534    5.6010    8.4309 Cl  0  0  0  0  0  0  0  0  0  0  0  0
   -3.7069    4.7196    4.4652 C   0  0  0  0  0  0  0  0  0  0  0  0
   -4.7746    3.8834    4.1242 C   0  0  0  0  0  0  0  0  0  0  0  0
   -4.9526    2.6466    4.7771 C   0  0  0  0  0  0  0  0  0  0  0  0
   -6.0400    1.7196    4.4082 C   0  0  0  0  0  0  0  0  0  0  0  0
   -5.8163    0.1853    3.7541 S   0  0  0  0  0  0  0  0  0  0  0  0
   -7.4493   -0.2030    3.6418 C   0  0  0  0  0  0  0  0  0  0  0  0
   -7.9723   -1.5308    3.1848 C   0  0  0  0  0  0  0  0  0  0  0  0
   -8.0078   -2.5249    4.3390 C   0  0  0  0  0  0  0  0  0  0  0  0
   -8.1982    0.8644    4.1366 C   0  0  0  0  0  0  0  0  0  0  0  0
   -7.4072    1.9478    4.5535 C   0  0  0  0  0  0  0  0  0  0  0  0
   -8.0738    3.4203    5.2455 Cl  0  0  0  0  0  0  0  0  0  0  0  0
   -9.9542    0.8529    4.2507 Cl  0  0  0  0  0  0  0  0  0  0  0  0
   -3.9807    2.2854    5.7249 C   0  0  0  0  0  0  0  0  0  0  0  0
   -3.8057    0.8088    6.5089 S   0  0  0  0  0  0  0  0  0  0  0  0
   -5.4936    4.3335    3.0066 C   0  0  0  0  0  0  0  0  0  0  0  0
   -5.0002    5.5224    2.4683 C   0  0  0  0  0  0  0  0  0  0  0  0
   -3.6749    6.0160    3.3916 S   0  0  0  0  0  0  0  0  0  0  0  0
   -5.2536    5.9534    1.0789 C   0  0  0  0  0  0  0  0  0  0  0  0
   -5.5569    4.8469   -0.1501 S   0  0  0  0  0  0  0  0  0  0  0  0
   -5.2663    5.8597   -1.4590 C   0  0  0  0  0  0  0  0  0  0  0  0
   -4.9371    7.1174   -0.9418 C   0  0  0  0  0  0  0  0  0  0  0  0
   -4.9214    7.1708    0.4659 C   0  0  0  0  0  0  0  0  0  0  0  0
   -4.5736    8.3578    1.1233 C   0  0  0  0  0  0  0  0  0  0  0  0
   -4.2066    9.4921    0.3679 C   0  0  0  0  0  0  0  0  0  0  0  0
   -3.8153   10.7800    1.0588 C   0  0  0  0  0  0  0  0  0  0  0  0
   -2.5697   11.1900    0.6115 F   0  0  0  0  0  0  0  0  0  0  0  0
   -4.7466   11.7635    0.7652 F   0  0  0  0  0  0  0  0  0  0  0  0
   -3.7511   10.6308    2.4370 F   0  0  0  0  0  0  0  0  0  0  0  0
   -4.2350    9.4392   -1.0481 C   0  0  0  0  0  0  0  0  0  0  0  0
   -3.8543   10.5759   -1.7766 O   0  0  0  0  0  0  0  0  0  0  0  0
   -3.7775   10.6437   -3.1998 C   0  0  0  0  0  0  0  0  0  0  0  0
   -4.6285    8.2519   -1.6962 C   0  0  0  0  0  0  0  0  0  0  0  0
   -4.9857    5.3347   -2.8097 C   0  0  0  0  0  0  0  0  0  0  0  0
   -3.9019    5.7168   -3.6023 C   0  0  0  0  0  0  0  0  0  0  0  0
   -3.5864    4.7874   -4.6053 C   0  0  0  0  0  0  0  0  0  0  0  0
   -2.4392    4.8219   -5.4259 C   0  0  0  0  0  0  0  0  0  0  0  0
   -1.5854    6.0304   -5.5092 C   0  0  0  0  0  0  0  0  0  0  0  0
    0.0663    6.0877   -5.1801 S   0  0  0  0  0  0  0  0  0  0  0  0
    0.2494    7.7394   -5.4424 C   0  0  0  0  0  0  0  0  0  0  0  0
    1.5514    8.4811   -5.3709 C   0  0  0  0  0  0  0  0  0  0  0  0
    2.2198    8.5403   -6.7394 C   0  0  0  0  0  0  0  0  0  0  0  0
   -0.9857    8.2718   -5.8116 C   0  0  0  0  0  0  0  0  0  0  0  0
   -1.2306    9.9658   -6.2178 Cl  0  0  0  0  0  0  0  0  0  0  0  0
   -2.0140    7.3177   -5.8434 C   0  0  0  0  0  0  0  0  0  0  0  0
   -3.6628    7.7045   -6.3262 Cl  0  0  0  0  0  0  0  0  0  0  0  0
   -2.1250    3.6381   -6.1174 C   0  0  0  0  0  0  0  0  0  0  0  0
   -2.9469    2.5050   -6.0791 C   0  0  0  0  0  0  0  0  0  0  0  0
   -4.1395    2.5096   -5.3300 C   0  0  0  0  0  0  0  0  0  0  0  0
   -4.9589    1.2951   -5.1648 C   0  0  0  0  0  0  0  0  0  0  0  0
   -4.4815   -0.0751   -4.3142 S   0  0  0  0  0  0  0  0  0  0  0  0
   -5.9266   -0.9146   -4.5030 C   0  0  0  0  0  0  0  0  0  0  0  0
   -6.2199   -2.2485   -3.8848 C   0  0  0  0  0  0  0  0  0  0  0  0
   -6.9106   -2.0752   -2.5362 C   0  0  0  0  0  0  0  0  0  0  0  0
   -6.8196   -0.1124   -5.2161 C   0  0  0  0  0  0  0  0  0  0  0  0
   -6.2762    1.1271   -5.5836 C   0  0  0  0  0  0  0  0  0  0  0  0
   -7.1682    2.3419   -6.4897 Cl  0  0  0  0  0  0  0  0  0  0  0  0
   -8.4686   -0.5957   -5.5958 Cl  0  0  0  0  0  0  0  0  0  0  0  0
   -4.4182    3.6664   -4.5901 C   0  0  0  0  0  0  0  0  0  0  0  0
   -5.5440    3.8382   -3.3567 S   0  0  0  0  0  0  0  0  0  0  0  0
   -2.3877    1.3895   -6.7179 C   0  0  0  0  0  0  0  0  0  0  0  0
   -1.1019    1.6223   -7.2022 C   0  0  0  0  0  0  0  0  0  0  0  0
   -0.6893    3.2352   -6.9019 S   0  0  0  0  0  0  0  0  0  0  0  0
   -0.1338    0.5451   -7.4524 C   0  0  0  0  0  0  0  0  0  0  0  0
    1.1688    0.5469   -6.9556 C   0  0  0  0  0  0  0  0  0  0  0  0
    1.7279   -0.7413   -6.8595 C   0  0  0  0  0  0  0  0  0  0  0  0
    2.9546   -1.0710   -6.2422 C   0  0  0  0  0  0  0  0  0  0  0  0
    3.8363   -0.0324   -5.6792 C   0  0  0  0  0  0  0  0  0  0  0  0
    4.1468    0.1645   -4.0389 S   0  0  0  0  0  0  0  0  0  0  0  0
    5.0784    1.5551   -4.1953 C   0  0  0  0  0  0  0  0  0  0  0  0
    5.7693    2.2452   -3.0588 C   0  0  0  0  0  0  0  0  0  0  0  0
    7.1417    1.6292   -2.8175 C   0  0  0  0  0  0  0  0  0  0  0  0
    5.1731    1.8791   -5.5472 C   0  0  0  0  0  0  0  0  0  0  0  0
    6.0853    3.2526   -6.1584 Cl  0  0  0  0  0  0  0  0  0  0  0  0
    4.4644    0.9954   -6.3782 C   0  0  0  0  0  0  0  0  0  0  0  0
    4.4069    1.1515   -8.1285 Cl  0  0  0  0  0  0  0  0  0  0  0  0
    3.2245   -2.4392   -6.0587 C   0  0  0  0  0  0  0  0  0  0  0  0
    2.3382   -3.4425   -6.4745 C   0  0  0  0  0  0  0  0  0  0  0  0
    1.1358   -3.1123   -7.1248 C   0  0  0  0  0  0  0  0  0  0  0  0
    0.1910   -4.1510   -7.5695 C   0  0  0  0  0  0  0  0  0  0  0  0
    0.4874   -5.2122   -8.8398 S   0  0  0  0  0  0  0  0  0  0  0  0
   -1.0128   -5.9727   -8.7877 C   0  0  0  0  0  0  0  0  0  0  0  0
   -1.4857   -6.9867   -9.7833 C   0  0  0  0  0  0  0  0  0  0  0  0
   -1.9973   -6.2938  -11.0441 C   0  0  0  0  0  0  0  0  0  0  0  0
   -1.7756   -5.3863   -7.7757 C   0  0  0  0  0  0  0  0  0  0  0  0
   -1.0954   -4.3752   -7.0836 C   0  0  0  0  0  0  0  0  0  0  0  0
   -1.7880   -3.5100   -5.7156 Cl  0  0  0  0  0  0  0  0  0  0  0  0
   -3.4361   -5.8405   -7.4193 Cl  0  0  0  0  0  0  0  0  0  0  0  0
    0.8615   -1.7461   -7.2982 C   0  0  0  0  0  0  0  0  0  0  0  0
   -0.5749   -1.0454   -7.8142 S   0  0  0  0  0  0  0  0  0  0  0  0
    2.7253   -4.7260   -6.0680 C   0  0  0  0  0  0  0  0  0  0  0  0
    3.9252   -4.7319   -5.3696 C   0  0  0  0  0  0  0  0  0  0  0  0
    4.5081   -3.1567   -5.2336 S   0  0  0  0  0  0  0  0  0  0  0  0
    4.4326   -5.8845   -4.6236 C   0  0  0  0  0  0  0  0  0  0  0  0
    5.7174   -6.4165   -4.6996 C   0  0  0  0  0  0  0  0  0  0  0  0
    5.8875   -7.5325   -3.8581 C   0  0  0  0  0  0  0  0  0  0  0  0
    7.0549   -8.3122   -3.7265 C   0  0  0  0  0  0  0  0  0  0  0  0
    8.2390   -8.0897   -4.5718 C   0  0  0  0  0  0  0  0  0  0  0  0
    9.7544   -7.6397   -4.0032 S   0  0  0  0  0  0  0  0  0  0  0  0
   10.5142   -7.6242   -5.5046 C   0  0  0  0  0  0  0  0  0  0  0  0
   11.9312   -7.1940   -5.7329 C   0  0  0  0  0  0  0  0  0  0  0  0
   11.9923   -5.7090   -6.0680 C   0  0  0  0  0  0  0  0  0  0  0  0
    9.5761   -7.9597   -6.4814 C   0  0  0  0  0  0  0  0  0  0  0  0
    9.9529   -8.0510   -8.1953 Cl  0  0  0  0  0  0  0  0  0  0  0  0
    8.3042   -8.2298   -5.9575 C   0  0  0  0  0  0  0  0  0  0  0  0
    6.9439   -8.7461   -6.9427 Cl  0  0  0  0  0  0  0  0  0  0  0  0
    7.0204   -9.3537   -2.7838 C   0  0  0  0  0  0  0  0  0  0  0  0
    5.8892   -9.6341   -2.0103 C   0  0  0  0  0  0  0  0  0  0  0  0
    4.7179   -8.8616   -2.1497 C   0  0  0  0  0  0  0  0  0  0  0  0
    3.5160   -9.1015   -1.3317 C   0  0  0  0  0  0  0  0  0  0  0  0
    2.0012   -9.4995   -1.9443 S   0  0  0  0  0  0  0  0  0  0  0  0
    1.2100   -9.5355   -0.4598 C   0  0  0  0  0  0  0  0  0  0  0  0
   -0.2590   -9.7656   -0.2856 C   0  0  0  0  0  0  0  0  0  0  0  0
   -1.0189   -8.4441   -0.3205 C   0  0  0  0  0  0  0  0  0  0  0  0
    2.1265   -9.2112    0.5402 C   0  0  0  0  0  0  0  0  0  0  0  0
    3.4195   -8.9704    0.0531 C   0  0  0  0  0  0  0  0  0  0  0  0
    4.7581   -8.4659    1.0746 Cl  0  0  0  0  0  0  0  0  0  0  0  0
    1.6994   -9.0791    2.2420 Cl  0  0  0  0  0  0  0  0  0  0  0  0
    4.7477   -7.8299   -3.1019 C   0  0  0  0  0  0  0  0  0  0  0  0
    3.5225   -6.7526   -3.5024 S   0  0  0  0  0  0  0  0  0  0  0  0
    6.0586  -10.7486   -1.1711 C   0  0  0  0  0  0  0  0  0  0  0  0
    7.3151  -11.3361   -1.2875 C   0  0  0  0  0  0  0  0  0  0  0  0
    8.2150  -10.4853   -2.4342 S   0  0  0  0  0  0  0  0  0  0  0  0
    3.0396   -6.0423   10.4525 H   0  0  0  0  0  0  0  0  0  0  0  0
    3.6813   -3.5385   10.1245 H   0  0  0  0  0  0  0  0  0  0  0  0
    5.3652    1.9173   11.3476 H   0  0  0  0  0  0  0  0  0  0  0  0
    6.6912    1.3777   10.2646 H   0  0  0  0  0  0  0  0  0  0  0  0
    4.3951    3.2879    9.4696 H   0  0  0  0  0  0  0  0  0  0  0  0
    6.0965    3.7654    9.8508 H   0  0  0  0  0  0  0  0  0  0  0  0
    5.7490    2.7535    8.3952 H   0  0  0  0  0  0  0  0  0  0  0  0
   -5.9728   -6.0964    7.5420 H   0  0  0  0  0  0  0  0  0  0  0  0
   -5.2034   -5.4012    6.0757 H   0  0  0  0  0  0  0  0  0  0  0  0
   -3.6145   -7.3457    5.9742 H   0  0  0  0  0  0  0  0  0  0  0  0
   -5.3412   -7.8829    5.9227 H   0  0  0  0  0  0  0  0  0  0  0  0
   -4.3941   -8.0510    7.4523 H   0  0  0  0  0  0  0  0  0  0  0  0
   -2.8125   -1.5290    7.9787 H   0  0  0  0  0  0  0  0  0  0  0  0
   -1.0326    2.9359    7.2073 H   0  0  0  0  0  0  0  0  0  0  0  0
    2.2414    7.7463    6.2018 H   0  0  0  0  0  0  0  0  0  0  0  0
    2.0772    7.1935    4.4988 H   0  0  0  0  0  0  0  0  0  0  0  0
    0.5186    9.5212    5.8073 H   0  0  0  0  0  0  0  0  0  0  0  0
    0.3117    8.9447    4.0999 H   0  0  0  0  0  0  0  0  0  0  0  0
    1.8805    9.6583    4.6299 H   0  0  0  0  0  0  0  0  0  0  0  0
   -7.3144   -1.9258    2.3803 H   0  0  0  0  0  0  0  0  0  0  0  0
   -8.9940   -1.4143    2.7626 H   0  0  0  0  0  0  0  0  0  0  0  0
   -6.9851   -2.6698    4.7537 H   0  0  0  0  0  0  0  0  0  0  0  0
   -8.3873   -3.5038    3.9774 H   0  0  0  0  0  0  0  0  0  0  0  0
   -8.6780   -2.1610    5.1455 H   0  0  0  0  0  0  0  0  0  0  0  0
   -6.2810    3.7573    2.5361 H   0  0  0  0  0  0  0  0  0  0  0  0
   -4.5957    8.3971    2.2051 H   0  0  0  0  0  0  0  0  0  0  0  0
   -3.3728   11.6311   -3.4966 H   0  0  0  0  0  0  0  0  0  0  0  0
   -4.7899   10.5228   -3.6384 H   0  0  0  0  0  0  0  0  0  0  0  0
   -3.0967    9.8565   -3.5845 H   0  0  0  0  0  0  0  0  0  0  0  0
   -4.7027    8.2143   -2.7723 H   0  0  0  0  0  0  0  0  0  0  0  0
   -3.2565    6.5498   -3.3638 H   0  0  0  0  0  0  0  0  0  0  0  0
    1.3801    9.5146   -4.9993 H   0  0  0  0  0  0  0  0  0  0  0  0
    2.2284    7.9727   -4.6523 H   0  0  0  0  0  0  0  0  0  0  0  0
    3.1641    9.1217   -6.6695 H   0  0  0  0  0  0  0  0  0  0  0  0
    2.4577    7.5140   -7.0961 H   0  0  0  0  0  0  0  0  0  0  0  0
    1.5538    9.0388   -7.4759 H   0  0  0  0  0  0  0  0  0  0  0  0
   -5.2671   -2.8046   -3.7414 H   0  0  0  0  0  0  0  0  0  0  0  0
   -6.8672   -2.8480   -4.5622 H   0  0  0  0  0  0  0  0  0  0  0  0
   -7.8997   -1.5894   -2.6706 H   0  0  0  0  0  0  0  0  0  0  0  0
   -6.2867   -1.4505   -1.8619 H   0  0  0  0  0  0  0  0  0  0  0  0
   -7.0629   -3.0671   -2.0614 H   0  0  0  0  0  0  0  0  0  0  0  0
   -2.8458    0.4103   -6.7119 H   0  0  0  0  0  0  0  0  0  0  0  0
    1.6411    1.4311   -6.5451 H   0  0  0  0  0  0  0  0  0  0  0  0
    5.8804    3.3285   -3.2782 H   0  0  0  0  0  0  0  0  0  0  0  0
    5.1537    2.1466   -2.1409 H   0  0  0  0  0  0  0  0  0  0  0  0
    7.0424    0.5376   -2.6220 H   0  0  0  0  0  0  0  0  0  0  0  0
    7.7914    1.7808   -3.7058 H   0  0  0  0  0  0  0  0  0  0  0  0
    7.6187    2.1082   -1.9352 H   0  0  0  0  0  0  0  0  0  0  0  0
   -2.2999   -7.6042   -9.3452 H   0  0  0  0  0  0  0  0  0  0  0  0
   -0.6465   -7.6671  -10.0473 H   0  0  0  0  0  0  0  0  0  0  0  0
   -1.1525   -5.8383  -11.5979 H   0  0  0  0  0  0  0  0  0  0  0  0
   -2.7312   -5.5015  -10.7810 H   0  0  0  0  0  0  0  0  0  0  0  0
   -2.5013   -7.0288  -11.7005 H   0  0  0  0  0  0  0  0  0  0  0  0
    2.1326   -5.6164   -6.2287 H   0  0  0  0  0  0  0  0  0  0  0  0
    6.4856   -6.0199   -5.3515 H   0  0  0  0  0  0  0  0  0  0  0  0
   12.5266   -7.3852   -4.8138 H   0  0  0  0  0  0  0  0  0  0  0  0
   12.3807   -7.7841   -6.5614 H   0  0  0  0  0  0  0  0  0  0  0  0
   11.5241   -5.1115   -5.2565 H   0  0  0  0  0  0  0  0  0  0  0  0
   11.4626   -5.5068   -7.0238 H   0  0  0  0  0  0  0  0  0  0  0  0
   13.0511   -5.3924   -6.1765 H   0  0  0  0  0  0  0  0  0  0  0  0
   -0.4492  -10.2790    0.6803 H   0  0  0  0  0  0  0  0  0  0  0  0
   -0.6302  -10.4229   -1.1018 H   0  0  0  0  0  0  0  0  0  0  0  0
   -0.8478   -7.9256   -1.2895 H   0  0  0  0  0  0  0  0  0  0  0  0
   -2.1054   -8.6374   -0.2076 H   0  0  0  0  0  0  0  0  0  0  0  0
   -0.6871   -7.7867    0.5099 H   0  0  0  0  0  0  0  0  0  0  0  0
    5.2944  -11.1314   -0.5108 H   0  0  0  0  0  0  0  0  0  0  0  0
    7.6477  -12.2126   -0.7441 H   0  0  0  0  0  0  0  0  0  0  0  0
  1  2  2  0
  2  3  1  0
  3  4  2  0
  4  5  1  0
  5  6  1  0
  6  7  1  0
  7  8  1  0
  8  9  1  0
  7 10  2  0
 10 11  1  0
 10 12  1  0
 12 13  1  0
  4 14  1  0
 14 15  2  0
 15 16  1  0
 16 17  1  0
 17 18  1  0
 18 19  1  0
 19 20  1  0
 20 21  1  0
 19 22  2  0
 22 23  1  0
 23 24  1  0
 22 25  1  0
 16 26  2  0
 26 27  1  0
 15 28  1  0
 28 29  2  0
 29 30  1  0
 29 31  1  0
 31 32  2  0
 32 33  1  0
 33 34  2  0
 34 35  1  0
 35 36  1  0
 36 37  1  0
 37 38  1  0
 38 39  1  0
 37 40  2  0
 40 41  1  0
 40 42  1  0
 42 43  1  0
 34 44  1  0
 44 45  2  0
 45 46  1  0
 46 47  1  0
 47 48  1  0
 48 49  1  0
 49 50  1  0
 50 51  1  0
 49 52  2  0
 52 53  1  0
 53 54  1  0
 52 55  1  0
 46 56  2  0
 56 57  1  0
 45 58  1  0
 58 59  2  0
 59 60  1  0
 59 61  1  0
 61 62  1  0
 62 63  1  0
 63 64  2  0
 64 65  1  0
 65 66  1  0
 66 67  2  0
 67 68  1  0
 68 69  1  0
 68 70  1  0
 68 71  1  0
 67 72  1  0
 72 73  1  0
 73 74  1  0
 72 75  2  0
 63 76  1  0
 76 77  2  0
 77 78  1  0
 78 79  2  0
 79 80  1  0
 80 81  1  0
 81 82  1  0
 82 83  1  0
 83 84  1  0
 82 85  2  0
 85 86  1  0
 85 87  1  0
 87 88  1  0
 79 89  1  0
 89 90  2  0
 90 91  1  0
 91 92  1  0
 92 93  1  0
 93 94  1  0
 94 95  1  0
 95 96  1  0
 94 97  2  0
 97 98  1  0
 98 99  1  0
 97100  1  0
 91101  2  0
101102  1  0
 90103  1  0
103104  2  0
104105  1  0
104106  1  0
106107  2  0
107108  1  0
108109  2  0
109110  1  0
110111  1  0
111112  1  0
112113  1  0
113114  1  0
112115  2  0
115116  1  0
115117  1  0
117118  1  0
109119  1  0
119120  2  0
120121  1  0
121122  1  0
122123  1  0
123124  1  0
124125  1  0
125126  1  0
124127  2  0
127128  1  0
128129  1  0
127130  1  0
121131  2  0
131132  1  0
120133  1  0
133134  2  0
134135  1  0
134136  1  0
136137  2  0
137138  1  0
138139  2  0
139140  1  0
140141  1  0
141142  1  0
142143  1  0
143144  1  0
142145  2  0
145146  1  0
145147  1  0
147148  1  0
139149  1  0
149150  2  0
150151  1  0
151152  1  0
152153  1  0
153154  1  0
154155  1  0
155156  1  0
154157  2  0
157158  1  0
158159  1  0
157160  1  0
151161  2  0
161162  1  0
150163  1  0
163164  2  0
164165  1  0
 27  1  1  0
 57 31  1  0
 65 61  2  0
102 76  1  0
132106  1  0
162136  1  0
 26  3  1  0
 56 33  1  0
 75 64  1  0
101 78  1  0
131108  1  0
161138  1  0
 12  5  2  0
 30 14  1  0
 42 35  2  0
 60 44  1  0
 87 80  2  0
105 89  1  0
117110  2  0
135119  1  0
147140  2  0
165149  1  0
 23 17  2  0
 53 47  2  0
 98 92  2  0
128122  2  0
158152  2  0
  1166  1  0
  2167  1  0
  8168  1  0
  8169  1  0
  9170  1  0
  9171  1  0
  9172  1  0
 20173  1  0
 20174  1  0
 21175  1  0
 21176  1  0
 21177  1  0
 28178  1  0
 32179  1  0
 38180  1  0
 38181  1  0
 39182  1  0
 39183  1  0
 39184  1  0
 50185  1  0
 50186  1  0
 51187  1  0
 51188  1  0
 51189  1  0
 58190  1  0
 66191  1  0
 74192  1  0
 74193  1  0
 74194  1  0
 75195  1  0
 77196  1  0
 83197  1  0
 83198  1  0
 84199  1  0
 84200  1  0
 84201  1  0
 95202  1  0
 95203  1  0
 96204  1  0
 96205  1  0
 96206  1  0
103207  1  0
107208  1  0
113209  1  0
113210  1  0
114211  1  0
114212  1  0
114213  1  0
125214  1  0
125215  1  0
126216  1  0
126217  1  0
126218  1  0
133219  1  0
137220  1  0
143221  1  0
143222  1  0
144223  1  0
144224  1  0
144225  1  0
155226  1  0
155227  1  0
156228  1  0
156229  1  0
156230  1  0
163231  1  0
164232  1  0
M  END

