
     RDKit          3D

236259  0  0  0  0  0  0  0  0999 V2000
    4.3309    4.5173   -6.8637 C   0  0  0  0  0  0  0  0  0  0  0  0
    4.9497    3.4041   -6.3050 C   0  0  0  0  0  0  0  0  0  0  0  0
    5.3244    3.5932   -4.9625 C   0  0  0  0  0  0  0  0  0  0  0  0
    5.9230    2.6333   -4.1209 C   0  0  0  0  0  0  0  0  0  0  0  0
    6.2891    1.2878   -4.6113 C   0  0  0  0  0  0  0  0  0  0  0  0
    5.6796    0.1454   -4.0707 C   0  0  0  0  0  0  0  0  0  0  0  0
    6.0039   -1.1197   -4.5599 C   0  0  0  0  0  0  0  0  0  0  0  0
    6.9364   -1.2607   -5.5941 C   0  0  0  0  0  0  0  0  0  0  0  0
    7.3552   -2.8969   -6.2020 S   0  0  0  0  0  0  0  0  0  0  0  0
    5.9349   -3.0271   -7.3454 C   0  0  0  0  0  0  0  0  0  0  0  0
    6.1638   -2.2166   -8.6165 C   0  0  0  0  0  0  0  0  0  0  0  0
    7.5647   -0.1241   -6.1241 C   0  0  0  0  0  0  0  0  0  0  0  0
    8.4893   -0.2505   -7.1090 F   0  0  0  0  0  0  0  0  0  0  0  0
    7.2393    1.1428   -5.6350 C   0  0  0  0  0  0  0  0  0  0  0  0
    6.1557    3.0172   -2.7884 C   0  0  0  0  0  0  0  0  0  0  0  0
    5.8326    4.2874   -2.2998 C   0  0  0  0  0  0  0  0  0  0  0  0
    5.2201    5.2442   -3.1384 C   0  0  0  0  0  0  0  0  0  0  0  0
    4.7654    6.5623   -2.6432 C   0  0  0  0  0  0  0  0  0  0  0  0
    5.2132    7.7435   -3.2562 C   0  0  0  0  0  0  0  0  0  0  0  0
    4.7067    8.9835   -2.8555 C   0  0  0  0  0  0  0  0  0  0  0  0
    3.7460    9.0553   -1.8393 C   0  0  0  0  0  0  0  0  0  0  0  0
    3.0601   10.6490   -1.3648 S   0  0  0  0  0  0  0  0  0  0  0  0
    1.5681   10.5063   -2.4180 C   0  0  0  0  0  0  0  0  0  0  0  0
    1.8694   10.9020   -3.8585 C   0  0  0  0  0  0  0  0  0  0  0  0
    3.3214    7.8844   -1.1976 C   0  0  0  0  0  0  0  0  0  0  0  0
    3.8191    6.6414   -1.6075 C   0  0  0  0  0  0  0  0  0  0  0  0
    2.4087    7.9419   -0.1970 F   0  0  0  0  0  0  0  0  0  0  0  0
    4.9899    4.8579   -4.4735 C   0  0  0  0  0  0  0  0  0  0  0  0
    4.2281    5.7272   -5.6976 S   0  0  0  0  0  0  0  0  0  0  0  0
    6.1709    4.4601   -0.9472 C   0  0  0  0  0  0  0  0  0  0  0  0
    6.7485    3.3213   -0.3837 C   0  0  0  0  0  0  0  0  0  0  0  0
    6.8238    2.1009   -1.5452 S   0  0  0  0  0  0  0  0  0  0  0  0
    7.0503    3.1292    1.0408 C   0  0  0  0  0  0  0  0  0  0  0  0
    6.5445    1.7940    1.9244 S   0  0  0  0  0  0  0  0  0  0  0  0
    6.9984    2.3558    3.4457 C   0  0  0  0  0  0  0  0  0  0  0  0
    7.5815    3.6121    3.2722 C   0  0  0  0  0  0  0  0  0  0  0  0
    7.6038    4.0476    1.9354 C   0  0  0  0  0  0  0  0  0  0  0  0
    8.1300    5.3016    1.6080 C   0  0  0  0  0  0  0  0  0  0  0  0
    8.6376    6.1393    2.6264 C   0  0  0  0  0  0  0  0  0  0  0  0
    9.1604    7.5203    2.2844 C   0  0  0  0  0  0  0  0  0  0  0  0
   10.4768    7.6389    2.6930 F   0  0  0  0  0  0  0  0  0  0  0  0
    8.3980    8.4773    2.9292 F   0  0  0  0  0  0  0  0  0  0  0  0
    9.1052    7.7686    0.9213 F   0  0  0  0  0  0  0  0  0  0  0  0
    8.6219    5.6815    3.9715 C   0  0  0  0  0  0  0  0  0  0  0  0
    9.1483    6.4884    5.0477 C   0  0  0  0  0  0  0  0  0  0  0  0
    9.5679    7.1296    5.9123 N   0  0  0  0  0  0  0  0  0  0  0  0
    8.0973    4.4177    4.2886 C   0  0  0  0  0  0  0  0  0  0  0  0
    6.5047    1.7432    4.6920 C   0  0  0  0  0  0  0  0  0  0  0  0
    6.5483    0.0912    4.9616 S   0  0  0  0  0  0  0  0  0  0  0  0
    5.3119   -0.0337    6.0987 C   0  0  0  0  0  0  0  0  0  0  0  0
    4.8084    1.2782    6.2711 C   0  0  0  0  0  0  0  0  0  0  0  0
    5.4727    2.2503    5.4854 C   0  0  0  0  0  0  0  0  0  0  0  0
    5.0080    3.5722    5.4380 C   0  0  0  0  0  0  0  0  0  0  0  0
    3.9073    3.9685    6.2179 C   0  0  0  0  0  0  0  0  0  0  0  0
    3.4102    5.4009    6.1649 C   0  0  0  0  0  0  0  0  0  0  0  0
    2.1504    5.4308    5.5937 F   0  0  0  0  0  0  0  0  0  0  0  0
    3.3384    5.9223    7.4461 F   0  0  0  0  0  0  0  0  0  0  0  0
    4.2507    6.2098    5.4182 F   0  0  0  0  0  0  0  0  0  0  0  0
    3.2423    2.9959    7.0060 C   0  0  0  0  0  0  0  0  0  0  0  0
    2.0746    3.3336    7.7809 C   0  0  0  0  0  0  0  0  0  0  0  0
    1.1335    3.6077    8.3990 N   0  0  0  0  0  0  0  0  0  0  0  0
    3.6869    1.6656    7.0225 C   0  0  0  0  0  0  0  0  0  0  0  0
    4.6424   -1.3388    6.3521 C   0  0  0  0  0  0  0  0  0  0  0  0
    3.5827   -1.6137    7.2246 C   0  0  0  0  0  0  0  0  0  0  0  0
    2.8127   -2.7241    6.8303 C   0  0  0  0  0  0  0  0  0  0  0  0
    1.4958   -3.0168    7.2600 C   0  0  0  0  0  0  0  0  0  0  0  0
    0.8541   -2.2984    8.3784 C   0  0  0  0  0  0  0  0  0  0  0  0
    0.5129   -3.0068    9.5410 C   0  0  0  0  0  0  0  0  0  0  0  0
    0.0003   -2.3316   10.6492 C   0  0  0  0  0  0  0  0  0  0  0  0
   -0.1691   -0.9428   10.6094 C   0  0  0  0  0  0  0  0  0  0  0  0
   -0.7284   -0.0731   12.0787 S   0  0  0  0  0  0  0  0  0  0  0  0
    0.9539    0.3547   12.6608 C   0  0  0  0  0  0  0  0  0  0  0  0
    1.6436   -0.8347   13.3207 C   0  0  0  0  0  0  0  0  0  0  0  0
    0.1075   -0.2417    9.4287 C   0  0  0  0  0  0  0  0  0  0  0  0
   -0.0921    1.0970    9.3640 F   0  0  0  0  0  0  0  0  0  0  0  0
    0.6169   -0.9173    8.3141 C   0  0  0  0  0  0  0  0  0  0  0  0
    0.7690   -3.9401    6.4885 C   0  0  0  0  0  0  0  0  0  0  0  0
    1.3627   -4.6858    5.4678 C   0  0  0  0  0  0  0  0  0  0  0  0
    2.7070   -4.4703    5.1060 C   0  0  0  0  0  0  0  0  0  0  0  0
    3.2643   -5.0880    3.8855 C   0  0  0  0  0  0  0  0  0  0  0  0
    2.9167   -4.5768    2.6248 C   0  0  0  0  0  0  0  0  0  0  0  0
    3.2938   -5.2573    1.4651 C   0  0  0  0  0  0  0  0  0  0  0  0
    4.0239   -6.4472    1.5523 C   0  0  0  0  0  0  0  0  0  0  0  0
    4.4554   -7.3367    0.0539 S   0  0  0  0  0  0  0  0  0  0  0  0
    2.8397   -8.1783   -0.0639 C   0  0  0  0  0  0  0  0  0  0  0  0
    2.8074   -9.0733   -1.2946 C   0  0  0  0  0  0  0  0  0  0  0  0
    4.3999   -6.9433    2.8090 C   0  0  0  0  0  0  0  0  0  0  0  0
    4.0204   -6.2653    3.9738 C   0  0  0  0  0  0  0  0  0  0  0  0
    5.1074   -8.0970    2.9068 F   0  0  0  0  0  0  0  0  0  0  0  0
    3.3783   -3.4314    5.7671 C   0  0  0  0  0  0  0  0  0  0  0  0
    4.7338   -2.6079    5.2347 S   0  0  0  0  0  0  0  0  0  0  0  0
    0.4365   -5.3523    4.6581 C   0  0  0  0  0  0  0  0  0  0  0  0
   -0.8770   -4.9281    4.8510 C   0  0  0  0  0  0  0  0  0  0  0  0
   -0.9028   -3.9477    6.2339 S   0  0  0  0  0  0  0  0  0  0  0  0
   -1.7148   -4.6558    3.6665 C   0  0  0  0  0  0  0  0  0  0  0  0
   -3.0504   -4.2368    3.6146 C   0  0  0  0  0  0  0  0  0  0  0  0
   -3.4347   -3.7846    2.3273 C   0  0  0  0  0  0  0  0  0  0  0  0
   -4.7024   -3.2915    1.9353 C   0  0  0  0  0  0  0  0  0  0  0  0
   -5.8896   -3.3883    2.8175 C   0  0  0  0  0  0  0  0  0  0  0  0
   -6.2623   -4.6333    3.3484 C   0  0  0  0  0  0  0  0  0  0  0  0
   -7.4111   -4.7499    4.1334 C   0  0  0  0  0  0  0  0  0  0  0  0
   -8.1984   -3.6241    4.3968 C   0  0  0  0  0  0  0  0  0  0  0  0
   -9.6892   -3.7978    5.3847 S   0  0  0  0  0  0  0  0  0  0  0  0
   -8.9316   -3.2308    6.9491 C   0  0  0  0  0  0  0  0  0  0  0  0
   -8.0598   -4.3127    7.5794 C   0  0  0  0  0  0  0  0  0  0  0  0
   -7.8440   -2.3817    3.8552 C   0  0  0  0  0  0  0  0  0  0  0  0
   -8.6123   -1.2862    4.0848 F   0  0  0  0  0  0  0  0  0  0  0  0
   -6.6868   -2.2605    3.0804 C   0  0  0  0  0  0  0  0  0  0  0  0
   -4.8088   -2.8032    0.6125 C   0  0  0  0  0  0  0  0  0  0  0  0
   -3.7325   -2.8126   -0.2845 C   0  0  0  0  0  0  0  0  0  0  0  0
   -2.4773   -3.3153    0.1008 C   0  0  0  0  0  0  0  0  0  0  0  0
   -1.2975   -3.2940   -0.8003 C   0  0  0  0  0  0  0  0  0  0  0  0
   -0.5851   -4.4749   -1.0725 C   0  0  0  0  0  0  0  0  0  0  0  0
    0.5756   -4.4371   -1.8503 C   0  0  0  0  0  0  0  0  0  0  0  0
    1.0305   -3.2215   -2.3759 C   0  0  0  0  0  0  0  0  0  0  0  0
    2.5388   -3.1741   -3.3525 S   0  0  0  0  0  0  0  0  0  0  0  0
    3.6672   -2.9874   -1.9238 C   0  0  0  0  0  0  0  0  0  0  0  0
    4.6766   -4.1273   -1.9115 C   0  0  0  0  0  0  0  0  0  0  0  0
    0.3149   -2.0426   -2.1251 C   0  0  0  0  0  0  0  0  0  0  0  0
   -0.8388   -2.0786   -1.3357 C   0  0  0  0  0  0  0  0  0  0  0  0
    0.7488   -0.8593   -2.6266 F   0  0  0  0  0  0  0  0  0  0  0  0
   -2.3808   -3.8073    1.4075 C   0  0  0  0  0  0  0  0  0  0  0  0
   -1.0187   -4.4057    2.1531 S   0  0  0  0  0  0  0  0  0  0  0  0
   -4.0641   -2.3587   -1.5669 C   0  0  0  0  0  0  0  0  0  0  0  0
   -5.3984   -1.9980   -1.6890 C   0  0  0  0  0  0  0  0  0  0  0  0
   -6.1760   -2.2363   -0.2050 S   0  0  0  0  0  0  0  0  0  0  0  0
   -6.0304   -1.6289   -2.9632 C   0  0  0  0  0  0  0  0  0  0  0  0
   -7.3299   -1.1631   -3.1526 C   0  0  0  0  0  0  0  0  0  0  0  0
   -7.6618   -1.0085   -4.5157 C   0  0  0  0  0  0  0  0  0  0  0  0
   -8.8883   -0.5399   -5.0414 C   0  0  0  0  0  0  0  0  0  0  0  0
  -10.0025   -0.1145   -4.1679 C   0  0  0  0  0  0  0  0  0  0  0  0
  -10.5065    1.1928   -4.2572 C   0  0  0  0  0  0  0  0  0  0  0  0
  -11.5256    1.6137   -3.4004 C   0  0  0  0  0  0  0  0  0  0  0  0
  -12.0315    0.7452   -2.4278 C   0  0  0  0  0  0  0  0  0  0  0  0
  -13.2958    1.3250   -1.2900 S   0  0  0  0  0  0  0  0  0  0  0  0
  -12.1300    2.2058   -0.1883 C   0  0  0  0  0  0  0  0  0  0  0  0
  -11.4400    1.2462    0.7744 C   0  0  0  0  0  0  0  0  0  0  0  0
  -11.5494   -0.5686   -2.3480 C   0  0  0  0  0  0  0  0  0  0  0  0
  -12.0338   -1.4242   -1.4141 F   0  0  0  0  0  0  0  0  0  0  0  0
  -10.5474   -0.9991   -3.2238 C   0  0  0  0  0  0  0  0  0  0  0  0
   -8.9871   -0.4635   -6.4426 C   0  0  0  0  0  0  0  0  0  0  0  0
   -7.9386   -0.8156   -7.2997 C   0  0  0  0  0  0  0  0  0  0  0  0
   -6.7060   -1.2612   -6.7774 C   0  0  0  0  0  0  0  0  0  0  0  0
   -5.5442   -1.5904   -7.6362 C   0  0  0  0  0  0  0  0  0  0  0  0
   -5.0044   -0.6263   -8.5004 C   0  0  0  0  0  0  0  0  0  0  0  0
   -3.8177   -0.8866   -9.1885 C   0  0  0  0  0  0  0  0  0  0  0  0
   -3.1472   -2.1024   -9.0036 C   0  0  0  0  0  0  0  0  0  0  0  0
   -1.5471   -2.3633   -9.7761 S   0  0  0  0  0  0  0  0  0  0  0  0
   -0.6024   -1.4721   -8.4824 C   0  0  0  0  0  0  0  0  0  0  0  0
   -0.2519   -2.3923   -7.3195 C   0  0  0  0  0  0  0  0  0  0  0  0
   -3.7112   -3.0881   -8.1859 C   0  0  0  0  0  0  0  0  0  0  0  0
   -4.9112   -2.8400   -7.5179 C   0  0  0  0  0  0  0  0  0  0  0  0
   -3.0838   -4.2793   -8.0105 F   0  0  0  0  0  0  0  0  0  0  0  0
   -6.6116   -1.3449   -5.3764 C   0  0  0  0  0  0  0  0  0  0  0  0
   -5.2877   -1.8150   -4.4635 S   0  0  0  0  0  0  0  0  0  0  0  0
   -8.2744   -0.7034   -8.6580 C   0  0  0  0  0  0  0  0  0  0  0  0
   -9.5764   -0.2584   -8.8678 C   0  0  0  0  0  0  0  0  0  0  0  0
  -10.3153   -0.0144   -7.3733 S   0  0  0  0  0  0  0  0  0  0  0  0
    3.9532    4.5860   -7.8769 H   0  0  0  0  0  0  0  0  0  0  0  0
    5.0894    2.4843   -6.8557 H   0  0  0  0  0  0  0  0  0  0  0  0
    4.9443    0.2405   -3.2814 H   0  0  0  0  0  0  0  0  0  0  0  0
    5.5218   -1.9951   -4.1465 H   0  0  0  0  0  0  0  0  0  0  0  0
    5.8191   -4.0953   -7.6207 H   0  0  0  0  0  0  0  0  0  0  0  0
    4.9966   -2.6978   -6.8463 H   0  0  0  0  0  0  0  0  0  0  0  0
    5.3524   -2.4276   -9.3448 H   0  0  0  0  0  0  0  0  0  0  0  0
    6.1583   -1.1284   -8.3900 H   0  0  0  0  0  0  0  0  0  0  0  0
    7.1376   -2.4921   -9.0757 H   0  0  0  0  0  0  0  0  0  0  0  0
    7.7285    2.0148   -6.0530 H   0  0  0  0  0  0  0  0  0  0  0  0
    5.9427    7.7039   -4.0544 H   0  0  0  0  0  0  0  0  0  0  0  0
    5.0471    9.8867   -3.3479 H   0  0  0  0  0  0  0  0  0  0  0  0
    0.7933   11.1926   -2.0153 H   0  0  0  0  0  0  0  0  0  0  0  0
    1.1552    9.4751   -2.3847 H   0  0  0  0  0  0  0  0  0  0  0  0
    2.2780   11.9355   -3.8929 H   0  0  0  0  0  0  0  0  0  0  0  0
    2.6010   10.2001   -4.3092 H   0  0  0  0  0  0  0  0  0  0  0  0
    0.9346   10.8651   -4.4613 H   0  0  0  0  0  0  0  0  0  0  0  0
    3.4547    5.7410   -1.1312 H   0  0  0  0  0  0  0  0  0  0  0  0
    5.9664    5.3597   -0.3843 H   0  0  0  0  0  0  0  0  0  0  0  0
    8.1535    5.6185    0.5757 H   0  0  0  0  0  0  0  0  0  0  0  0
    8.0869    4.0713    5.3160 H   0  0  0  0  0  0  0  0  0  0  0  0
    5.4826    4.2896    4.7889 H   0  0  0  0  0  0  0  0  0  0  0  0
    3.1348    0.9715    7.6190 H   0  0  0  0  0  0  0  0  0  0  0  0
    3.3372   -1.0172    8.0802 H   0  0  0  0  0  0  0  0  0  0  0  0
    0.6776   -4.0765    9.5955 H   0  0  0  0  0  0  0  0  0  0  0  0
   -0.2293   -2.8839   11.5506 H   0  0  0  0  0  0  0  0  0  0  0  0
    0.8596    1.1700   13.4077 H   0  0  0  0  0  0  0  0  0  0  0  0
    1.5757    0.7327   11.8189 H   0  0  0  0  0  0  0  0  0  0  0  0
    2.5998   -0.5031   13.7798 H   0  0  0  0  0  0  0  0  0  0  0  0
    1.8732   -1.6180   12.5689 H   0  0  0  0  0  0  0  0  0  0  0  0
    0.9952   -1.2660   14.1135 H   0  0  0  0  0  0  0  0  0  0  0  0
    0.8519   -0.3632    7.4144 H   0  0  0  0  0  0  0  0  0  0  0  0
    2.3098   -3.6835    2.5462 H   0  0  0  0  0  0  0  0  0  0  0  0
    2.9762   -4.8835    0.5019 H   0  0  0  0  0  0  0  0  0  0  0  0
    2.6711   -8.7933    0.8486 H   0  0  0  0  0  0  0  0  0  0  0  0
    2.0286   -7.4218   -0.1435 H   0  0  0  0  0  0  0  0  0  0  0  0
    3.6082   -9.8428   -1.2287 H   0  0  0  0  0  0  0  0  0  0  0  0
    1.8249   -9.5872   -1.3598 H   0  0  0  0  0  0  0  0  0  0  0  0
    2.9562   -8.4647   -2.2132 H   0  0  0  0  0  0  0  0  0  0  0  0
    4.2817   -6.6733    4.9418 H   0  0  0  0  0  0  0  0  0  0  0  0
    0.7307   -5.9106    3.7761 H   0  0  0  0  0  0  0  0  0  0  0  0
   -3.6965   -4.2136    4.4835 H   0  0  0  0  0  0  0  0  0  0  0  0
   -5.6740   -5.5183    3.1360 H   0  0  0  0  0  0  0  0  0  0  0  0
   -7.6901   -5.7151    4.5377 H   0  0  0  0  0  0  0  0  0  0  0  0
   -9.7525   -2.9784    7.6538 H   0  0  0  0  0  0  0  0  0  0  0  0
   -8.3301   -2.3111    6.7810 H   0  0  0  0  0  0  0  0  0  0  0  0
   -7.6824   -3.9467    8.5583 H   0  0  0  0  0  0  0  0  0  0  0  0
   -7.1889   -4.5380    6.9293 H   0  0  0  0  0  0  0  0  0  0  0  0
   -8.6525   -5.2395    7.7428 H   0  0  0  0  0  0  0  0  0  0  0  0
   -6.4133   -1.2915    2.6803 H   0  0  0  0  0  0  0  0  0  0  0  0
   -0.9204   -5.4213   -0.6680 H   0  0  0  0  0  0  0  0  0  0  0  0
    1.1297   -5.3496   -2.0282 H   0  0  0  0  0  0  0  0  0  0  0  0
    3.1176   -2.9765   -0.9593 H   0  0  0  0  0  0  0  0  0  0  0  0
    4.2062   -2.0233   -2.0180 H   0  0  0  0  0  0  0  0  0  0  0  0
    5.3420   -4.0652   -2.7978 H   0  0  0  0  0  0  0  0  0  0  0  0
    4.1480   -5.1020   -1.9260 H   0  0  0  0  0  0  0  0  0  0  0  0
    5.2958   -4.0723   -0.9895 H   0  0  0  0  0  0  0  0  0  0  0  0
   -1.3640   -1.1543   -1.1188 H   0  0  0  0  0  0  0  0  0  0  0  0
   -3.3709   -2.3457   -2.3971 H   0  0  0  0  0  0  0  0  0  0  0  0
   -8.0007   -0.9450   -2.3346 H   0  0  0  0  0  0  0  0  0  0  0  0
  -10.1017    1.8894   -4.9813 H   0  0  0  0  0  0  0  0  0  0  0  0
  -11.8961    2.6294   -3.4713 H   0  0  0  0  0  0  0  0  0  0  0  0
  -12.7055    2.9508    0.3993 H   0  0  0  0  0  0  0  0  0  0  0  0
  -11.3701    2.7568   -0.7836 H   0  0  0  0  0  0  0  0  0  0  0  0
  -10.8132    0.5198    0.2155 H   0  0  0  0  0  0  0  0  0  0  0  0
  -10.7792    1.8237    1.4562 H   0  0  0  0  0  0  0  0  0  0  0  0
  -12.1954    0.7002    1.3776 H   0  0  0  0  0  0  0  0  0  0  0  0
  -10.1852   -2.0179   -3.1579 H   0  0  0  0  0  0  0  0  0  0  0  0
   -5.4781    0.3457   -8.6020 H   0  0  0  0  0  0  0  0  0  0  0  0
   -3.3923   -0.1216   -9.8277 H   0  0  0  0  0  0  0  0  0  0  0  0
   -1.1712   -0.5923   -8.1072 H   0  0  0  0  0  0  0  0  0  0  0  0
    0.3396   -1.0944   -8.9352 H   0  0  0  0  0  0  0  0  0  0  0  0
   -1.1743   -2.7551   -6.8186 H   0  0  0  0  0  0  0  0  0  0  0  0
    0.3605   -1.8337   -6.5770 H   0  0  0  0  0  0  0  0  0  0  0  0
    0.3349   -3.2649   -7.6821 H   0  0  0  0  0  0  0  0  0  0  0  0
   -5.3224   -3.5984   -6.8631 H   0  0  0  0  0  0  0  0  0  0  0  0
   -7.6056   -0.9474   -9.4727 H   0  0  0  0  0  0  0  0  0  0  0  0
  -10.0378   -0.1064   -9.8357 H   0  0  0  0  0  0  0  0  0  0  0  0
  1  2  2  0
  2  3  1  0
  3  4  2  0
  4  5  1  0
  5  6  2  0
  6  7  1  0
  7  8  2  0
  8  9  1  0
  9 10  1  0
 10 11  1  0
  8 12  1  0
 12 13  1  0
 12 14  2  0
  4 15  1  0
 15 16  2  0
 16 17  1  0
 17 18  1  0
 18 19  2  0
 19 20  1  0
 20 21  2  0
 21 22  1  0
 22 23  1  0
 23 24  1  0
 21 25  1  0
 25 26  2  0
 25 27  1  0
 17 28  2  0
 28 29  1  0
 16 30  1  0
 30 31  2  0
 31 32  1  0
 31 33  1  0
 33 34  1  0
 34 35  1  0
 35 36  2  0
 36 37  1  0
 37 38  1  0
 38 39  2  0
 39 40  1  0
 40 41  1  0
 40 42  1  0
 40 43  1  0
 39 44  1  0
 44 45  1  0
 45 46  3  0
 44 47  2  0
 35 48  1  0
 48 49  1  0
 49 50  1  0
 50 51  2  0
 51 52  1  0
 52 53  1  0
 53 54  2  0
 54 55  1  0
 55 56  1  0
 55 57  1  0
 55 58  1  0
 54 59  1  0
 59 60  1  0
 60 61  3  0
 59 62  2  0
 50 63  1  0
 63 64  2  0
 64 65  1  0
 65 66  2  0
 66 67  1  0
 67 68  2  0
 68 69  1  0
 69 70  2  0
 70 71  1  0
 71 72  1  0
 72 73  1  0
 70 74  1  0
 74 75  1  0
 74 76  2  0
 66 77  1  0
 77 78  2  0
 78 79  1  0
 79 80  1  0
 80 81  2  0
 81 82  1  0
 82 83  2  0
 83 84  1  0
 84 85  1  0
 85 86  1  0
 83 87  1  0
 87 88  2  0
 87 89  1  0
 79 90  2  0
 90 91  1  0
 78 92  1  0
 92 93  2  0
 93 94  1  0
 93 95  1  0
 95 96  2  0
 96 97  1  0
 97 98  2  0
 98 99  1  0
 99100  2  0
100101  1  0
101102  2  0
102103  1  0
103104  1  0
104105  1  0
102106  1  0
106107  1  0
106108  2  0
 98109  1  0
109110  2  0
110111  1  0
111112  1  0
112113  2  0
113114  1  0
114115  2  0
115116  1  0
116117  1  0
117118  1  0
115119  1  0
119120  2  0
119121  1  0
111122  2  0
122123  1  0
110124  1  0
124125  2  0
125126  1  0
125127  1  0
127128  2  0
128129  1  0
129130  2  0
130131  1  0
131132  2  0
132133  1  0
133134  2  0
134135  1  0
135136  1  0
136137  1  0
134138  1  0
138139  1  0
138140  2  0
130141  1  0
141142  2  0
142143  1  0
143144  1  0
144145  2  0
145146  1  0
146147  2  0
147148  1  0
148149  1  0
149150  1  0
147151  1  0
151152  2  0
151153  1  0
143154  2  0
154155  1  0
142156  1  0
156157  2  0
157158  1  0
 29  1  1  0
 37 33  2  0
 52 48  2  0
 91 63  1  0
123 95  1  0
155127  1  0
 28  3  1  0
 47 36  1  0
 62 51  1  0
 90 65  1  0
122 97  1  0
154129  1  0
 14  5  1  0
 32 15  1  0
 76 67  1  0
 94 77  1  0
108 99  1  0
126109  1  0
140131  1  0
158141  1  0
 26 18  1  0
 88 80  1  0
120112  1  0
152144  1  0
  1159  1  0
  2160  1  0
  6161  1  0
  7162  1  0
 10163  1  0
 10164  1  0
 11165  1  0
 11166  1  0
 11167  1  0
 14168  1  0
 19169  1  0
 20170  1  0
 23171  1  0
 23172  1  0
 24173  1  0
 24174  1  0
 24175  1  0
 26176  1  0
 30177  1  0
 38178  1  0
 47179  1  0
 53180  1  0
 62181  1  0
 64182  1  0
 68183  1  0
 69184  1  0
 72185  1  0
 72186  1  0
 73187  1  0
 73188  1  0
 73189  1  0
 76190  1  0
 81191  1  0
 82192  1  0
 85193  1  0
 85194  1  0
 86195  1  0
 86196  1  0
 86197  1  0
 88198  1  0
 92199  1  0
 96200  1  0
100201  1  0
101202  1  0
104203  1  0
104204  1  0
105205  1  0
105206  1  0
105207  1  0
108208  1  0
113209  1  0
114210  1  0
117211  1  0
117212  1  0
118213  1  0
118214  1  0
118215  1  0
120216  1  0
124217  1  0
128218  1  0
132219  1  0
133220  1  0
136221  1  0
136222  1  0
137223  1  0
137224  1  0
137225  1  0
140226  1  0
145227  1  0
146228  1  0
149229  1  0
149230  1  0
150231  1  0
150232  1  0
150233  1  0
152234  1  0
156235  1  0
157236  1  0
M  END

