
     RDKit          3D

277303  0  0  0  0  0  0  0  0999 V2000
    0.0150    4.3243   10.7274 C   0  0  0  0  0  0  0  0  0  0  0  0
    0.8223    5.0088    9.8223 C   0  0  0  0  0  0  0  0  0  0  0  0
    0.4029    4.8662    8.4905 C   0  0  0  0  0  0  0  0  0  0  0  0
    1.0385    5.4054    7.3525 C   0  0  0  0  0  0  0  0  0  0  0  0
    2.2962    6.1650    7.4639 C   0  0  0  0  0  0  0  0  0  0  0  0
    3.4930    5.4960    7.7590 C   0  0  0  0  0  0  0  0  0  0  0  0
    4.6727    6.2187    7.9591 C   0  0  0  0  0  0  0  0  0  0  0  0
    4.6660    7.6146    7.8595 C   0  0  0  0  0  0  0  0  0  0  0  0
    6.1797    8.5326    8.1743 S   0  0  0  0  0  0  0  0  0  0  0  0
    6.8176    8.3898    6.4682 C   0  0  0  0  0  0  0  0  0  0  0  0
    6.2080    9.4556    5.5680 C   0  0  0  0  0  0  0  0  0  0  0  0
    3.4718    8.2879    7.5623 C   0  0  0  0  0  0  0  0  0  0  0  0
    3.4412    9.6426    7.5014 F   0  0  0  0  0  0  0  0  0  0  0  0
    2.2921    7.5626    7.3535 C   0  0  0  0  0  0  0  0  0  0  0  0
    0.4589    5.1178    6.1045 C   0  0  0  0  0  0  0  0  0  0  0  0
   -0.6799    4.3170    5.9766 C   0  0  0  0  0  0  0  0  0  0  0  0
   -1.3040    3.7563    7.1125 C   0  0  0  0  0  0  0  0  0  0  0  0
   -2.4325    2.8088    6.9829 C   0  0  0  0  0  0  0  0  0  0  0  0
   -3.7010    3.1349    7.4872 C   0  0  0  0  0  0  0  0  0  0  0  0
   -4.7820    2.2706    7.2798 C   0  0  0  0  0  0  0  0  0  0  0  0
   -4.6058    1.0772    6.5659 C   0  0  0  0  0  0  0  0  0  0  0  0
   -6.0150    0.0119    6.2369 S   0  0  0  0  0  0  0  0  0  0  0  0
   -5.6618   -1.1543    7.6009 C   0  0  0  0  0  0  0  0  0  0  0  0
   -6.2034   -0.6267    8.9232 C   0  0  0  0  0  0  0  0  0  0  0  0
   -3.3370    0.7446    6.0728 C   0  0  0  0  0  0  0  0  0  0  0  0
   -2.2541    1.5989    6.2926 C   0  0  0  0  0  0  0  0  0  0  0  0
   -3.1509   -0.4043    5.3745 F   0  0  0  0  0  0  0  0  0  0  0  0
   -0.7426    4.0710    8.3590 C   0  0  0  0  0  0  0  0  0  0  0  0
   -1.2155    3.5386    9.8815 S   0  0  0  0  0  0  0  0  0  0  0  0
   -1.0503    4.0978    4.6449 C   0  0  0  0  0  0  0  0  0  0  0  0
   -0.1673    4.6664    3.7341 C   0  0  0  0  0  0  0  0  0  0  0  0
    1.0316    5.5086    4.5681 S   0  0  0  0  0  0  0  0  0  0  0  0
   -0.1467    4.3470    2.3006 C   0  0  0  0  0  0  0  0  0  0  0  0
   -0.5039    5.4407    1.0733 S   0  0  0  0  0  0  0  0  0  0  0  0
   -0.5999    4.3106   -0.1715 C   0  0  0  0  0  0  0  0  0  0  0  0
   -0.3931    3.0311    0.3777 C   0  0  0  0  0  0  0  0  0  0  0  0
   -0.1341    3.0551    1.7621 C   0  0  0  0  0  0  0  0  0  0  0  0
    0.1608    1.8047    2.5755 C   0  0  2  0  0  0  0  0  0  0  0  0
    1.5300    1.8260    2.9436 O   0  0  0  0  0  0  0  0  0  0  0  0
    1.7040    1.3265    4.2532 C   0  0  0  0  0  0  0  0  0  0  0  0
   -0.1519    0.4980    1.8101 C   0  0  0  0  0  0  0  0  0  0  0  0
    0.1006    0.5994    0.3064 C   0  0  0  0  0  0  0  0  0  0  0  0
   -0.7335    1.7298   -0.3103 C   0  0  1  0  0  0  0  0  0  0  0  0
   -2.1188    1.4899   -0.1045 O   0  0  0  0  0  0  0  0  0  0  0  0
   -2.7013    0.8555   -1.2184 C   0  0  0  0  0  0  0  0  0  0  0  0
   -1.1810    4.5884   -1.4962 C   0  0  0  0  0  0  0  0  0  0  0  0
   -0.7843    3.9409   -2.6645 C   0  0  0  0  0  0  0  0  0  0  0  0
   -1.8332    3.7439   -3.5748 C   0  0  0  0  0  0  0  0  0  0  0  0
   -1.8215    2.8049   -4.6290 C   0  0  0  0  0  0  0  0  0  0  0  0
   -0.6233    1.9850   -4.9067 C   0  0  0  0  0  0  0  0  0  0  0  0
   -0.4829    0.7174   -4.3166 C   0  0  0  0  0  0  0  0  0  0  0  0
    0.6696   -0.0386   -4.5326 C   0  0  0  0  0  0  0  0  0  0  0  0
    1.6863    0.4530   -5.3607 C   0  0  0  0  0  0  0  0  0  0  0  0
    3.1692   -0.5256   -5.6168 S   0  0  0  0  0  0  0  0  0  0  0  0
    2.4352   -1.5138   -6.9604 C   0  0  0  0  0  0  0  0  0  0  0  0
    3.4657   -2.4913   -7.5050 C   0  0  0  0  0  0  0  0  0  0  0  0
    1.5472    1.7118   -5.9630 C   0  0  0  0  0  0  0  0  0  0  0  0
    2.5268    2.2013   -6.7675 F   0  0  0  0  0  0  0  0  0  0  0  0
    0.4005    2.4804   -5.7273 C   0  0  0  0  0  0  0  0  0  0  0  0
   -3.0698    2.4566   -5.1733 C   0  0  0  0  0  0  0  0  0  0  0  0
   -4.2679    3.0407   -4.7516 C   0  0  0  0  0  0  0  0  0  0  0  0
   -4.2635    4.0681   -3.7843 C   0  0  0  0  0  0  0  0  0  0  0  0
   -5.5247    4.7013   -3.3347 C   0  0  0  0  0  0  0  0  0  0  0  0
   -6.2676    5.4714   -4.2407 C   0  0  0  0  0  0  0  0  0  0  0  0
   -7.4849    6.0382   -3.8530 C   0  0  0  0  0  0  0  0  0  0  0  0
   -7.9754    5.8349   -2.5569 C   0  0  0  0  0  0  0  0  0  0  0  0
   -9.5885    6.4840   -2.0989 S   0  0  0  0  0  0  0  0  0  0  0  0
   -8.9620    8.0501   -1.3975 C   0  0  0  0  0  0  0  0  0  0  0  0
   -8.9616    9.1531   -2.4467 C   0  0  0  0  0  0  0  0  0  0  0  0
   -7.2346    5.0678   -1.6458 C   0  0  0  0  0  0  0  0  0  0  0  0
   -6.0161    4.5005   -2.0336 C   0  0  0  0  0  0  0  0  0  0  0  0
   -7.7067    4.8453   -0.3930 F   0  0  0  0  0  0  0  0  0  0  0  0
   -3.0299    4.3513   -3.1727 C   0  0  0  0  0  0  0  0  0  0  0  0
   -2.7896    5.0672   -1.6712 S   0  0  0  0  0  0  0  0  0  0  0  0
   -5.4054    2.3099   -5.1376 C   0  0  0  0  0  0  0  0  0  0  0  0
   -5.1081    1.1145   -5.7973 C   0  0  0  0  0  0  0  0  0  0  0  0
   -3.4319    1.0502   -6.0118 S   0  0  0  0  0  0  0  0  0  0  0  0
   -5.8529   -0.1258   -5.5162 C   0  0  0  0  0  0  0  0  0  0  0  0
   -5.4870   -1.3655   -6.0516 C   0  0  0  0  0  0  0  0  0  0  0  0
   -5.6244   -2.4333   -5.1412 C   0  0  0  0  0  0  0  0  0  0  0  0
   -5.0787   -3.7287   -5.2931 C   0  0  0  0  0  0  0  0  0  0  0  0
   -4.4648   -4.1969   -6.5546 C   0  0  0  0  0  0  0  0  0  0  0  0
   -3.2820   -3.6146   -7.0368 C   0  0  0  0  0  0  0  0  0  0  0  0
   -2.6851   -4.1027   -8.2034 C   0  0  0  0  0  0  0  0  0  0  0  0
   -3.2555   -5.1822   -8.8893 C   0  0  0  0  0  0  0  0  0  0  0  0
   -2.4821   -5.7994  -10.3884 S   0  0  0  0  0  0  0  0  0  0  0  0
   -3.5865   -4.8880  -11.5262 C   0  0  0  0  0  0  0  0  0  0  0  0
   -3.1544   -3.4345  -11.6733 C   0  0  0  0  0  0  0  0  0  0  0  0
   -4.4147   -5.7899   -8.3884 C   0  0  0  0  0  0  0  0  0  0  0  0
   -4.9613   -6.8591   -9.0235 F   0  0  0  0  0  0  0  0  0  0  0  0
   -5.0176   -5.2973   -7.2280 C   0  0  0  0  0  0  0  0  0  0  0  0
   -4.9716   -4.5070   -4.1270 C   0  0  0  0  0  0  0  0  0  0  0  0
   -5.3973   -4.0580   -2.8726 C   0  0  0  0  0  0  0  0  0  0  0  0
   -6.0691   -2.8256   -2.7504 C   0  0  0  0  0  0  0  0  0  0  0  0
   -6.4122   -2.2548   -1.4332 C   0  0  0  0  0  0  0  0  0  0  0  0
   -7.7555   -2.1219   -1.0535 C   0  0  0  0  0  0  0  0  0  0  0  0
   -8.0810   -1.5669    0.1870 C   0  0  0  0  0  0  0  0  0  0  0  0
   -7.0686   -1.1246    1.0493 C   0  0  0  0  0  0  0  0  0  0  0  0
   -7.4993   -0.4468    2.6573 S   0  0  0  0  0  0  0  0  0  0  0  0
   -7.4694    1.3004    2.1219 C   0  0  0  0  0  0  0  0  0  0  0  0
   -8.7355    1.6657    1.3566 C   0  0  0  0  0  0  0  0  0  0  0  0
   -5.7249   -1.2445    0.6670 C   0  0  0  0  0  0  0  0  0  0  0  0
   -5.3993   -1.8028   -0.5717 C   0  0  0  0  0  0  0  0  0  0  0  0
   -4.7326   -0.8225    1.4913 F   0  0  0  0  0  0  0  0  0  0  0  0
   -6.1616   -2.0372   -3.9099 C   0  0  0  0  0  0  0  0  0  0  0  0
   -6.4524   -0.3897   -3.9578 S   0  0  0  0  0  0  0  0  0  0  0  0
   -4.8785   -4.8164   -1.8047 C   0  0  0  0  0  0  0  0  0  0  0  0
   -3.9809   -5.8043   -2.2128 C   0  0  0  0  0  0  0  0  0  0  0  0
   -3.9496   -5.8159   -3.9030 S   0  0  0  0  0  0  0  0  0  0  0  0
   -2.8101   -6.2174   -1.4129 C   0  0  0  0  0  0  0  0  0  0  0  0
   -1.6288   -6.6592   -2.0090 C   0  0  0  0  0  0  0  0  0  0  0  0
   -0.4823   -6.3472   -1.2698 C   0  0  0  0  0  0  0  0  0  0  0  0
    0.8387   -6.4366   -1.7439 C   0  0  0  0  0  0  0  0  0  0  0  0
    1.1464   -6.9434   -3.0982 C   0  0  0  0  0  0  0  0  0  0  0  0
    0.7922   -6.1892   -4.2282 C   0  0  0  0  0  0  0  0  0  0  0  0
    1.0735   -6.6673   -5.5103 C   0  0  0  0  0  0  0  0  0  0  0  0
    1.6964   -7.9101   -5.6761 C   0  0  0  0  0  0  0  0  0  0  0  0
    2.0551   -8.5124   -7.3318 S   0  0  0  0  0  0  0  0  0  0  0  0
    0.3845   -9.1951   -7.6260 C   0  0  0  0  0  0  0  0  0  0  0  0
    0.2093  -10.5454   -6.9443 C   0  0  0  0  0  0  0  0  0  0  0  0
    2.0698   -8.6577   -4.5477 C   0  0  0  0  0  0  0  0  0  0  0  0
    2.6955   -9.8529   -4.6923 F   0  0  0  0  0  0  0  0  0  0  0  0
    1.7942   -8.1751   -3.2630 C   0  0  0  0  0  0  0  0  0  0  0  0
    1.8344   -5.8533   -0.9487 C   0  0  0  0  0  0  0  0  0  0  0  0
    1.5659   -5.2283    0.2769 C   0  0  0  0  0  0  0  0  0  0  0  0
    0.2502   -5.2239    0.7926 C   0  0  0  0  0  0  0  0  0  0  0  0
   -0.0768   -4.7151    2.1375 C   0  0  0  0  0  0  0  0  0  0  0  0
   -0.2207   -5.6228    3.2004 C   0  0  0  0  0  0  0  0  0  0  0  0
   -0.6533   -5.1812    4.4531 C   0  0  0  0  0  0  0  0  0  0  0  0
   -0.9525   -3.8286    4.6556 C   0  0  0  0  0  0  0  0  0  0  0  0
   -1.6341   -3.2902    6.2301 S   0  0  0  0  0  0  0  0  0  0  0  0
   -0.0201   -3.0337    7.0482 C   0  0  0  0  0  0  0  0  0  0  0  0
    0.6140   -1.7163    6.6182 C   0  0  0  0  0  0  0  0  0  0  0  0
   -0.8009   -2.9184    3.6005 C   0  0  0  0  0  0  0  0  0  0  0  0
   -0.3590   -3.3570    2.3458 C   0  0  0  0  0  0  0  0  0  0  0  0
   -1.1229   -1.6145    3.7827 F   0  0  0  0  0  0  0  0  0  0  0  0
   -0.7569   -5.7592   -0.0326 C   0  0  0  0  0  0  0  0  0  0  0  0
   -2.4215   -5.5552    0.1009 S   0  0  0  0  0  0  0  0  0  0  0  0
    2.6939   -4.5835    0.8236 C   0  0  0  0  0  0  0  0  0  0  0  0
    3.8260   -4.7114    0.0130 C   0  0  0  0  0  0  0  0  0  0  0  0
    3.4398   -5.6258   -1.3508 S   0  0  0  0  0  0  0  0  0  0  0  0
    5.1557   -4.1155    0.2102 C   0  0  0  0  0  0  0  0  0  0  0  0
    5.4851   -2.9824    0.9637 C   0  0  0  0  0  0  0  0  0  0  0  0
    6.8483   -2.6339    0.8480 C   0  0  0  0  0  0  0  0  0  0  0  0
    7.5088   -1.5214    1.4306 C   0  0  0  0  0  0  0  0  0  0  0  0
    6.8150   -0.4650    2.2081 C   0  0  0  0  0  0  0  0  0  0  0  0
    6.9788    0.8829    1.8410 C   0  0  0  0  0  0  0  0  0  0  0  0
    6.5942    1.9065    2.7091 C   0  0  0  0  0  0  0  0  0  0  0  0
    5.9981    1.6002    3.9359 C   0  0  0  0  0  0  0  0  0  0  0  0
    5.7645    2.9021    5.1596 S   0  0  0  0  0  0  0  0  0  0  0  0
    4.3319    3.7046    4.3634 C   0  0  0  0  0  0  0  0  0  0  0  0
    4.6374    5.1773    4.1387 C   0  0  0  0  0  0  0  0  0  0  0  0
    5.7231    0.2621    4.2581 C   0  0  0  0  0  0  0  0  0  0  0  0
    5.1456   -0.0507    5.4455 F   0  0  0  0  0  0  0  0  0  0  0  0
    6.1436   -0.7682    3.4033 C   0  0  0  0  0  0  0  0  0  0  0  0
    8.8973   -1.4141    1.1817 C   0  0  0  0  0  0  0  0  0  0  0  0
    9.5881   -2.2874    0.3375 C   0  0  0  0  0  0  0  0  0  0  0  0
    8.9142   -3.3364   -0.3051 C   0  0  0  0  0  0  0  0  0  0  0  0
    9.5687   -4.1619   -1.3365 C   0  0  0  0  0  0  0  0  0  0  0  0
    9.5823   -3.7216   -2.6678 C   0  0  0  0  0  0  0  0  0  0  0  0
   10.1841   -4.5010   -3.6584 C   0  0  0  0  0  0  0  0  0  0  0  0
   10.7697   -5.7299   -3.3291 C   0  0  0  0  0  0  0  0  0  0  0  0
   11.5433   -6.7207   -4.6152 S   0  0  0  0  0  0  0  0  0  0  0  0
   10.0620   -7.7368   -4.9588 C   0  0  0  0  0  0  0  0  0  0  0  0
    9.0917   -7.0051   -5.8774 C   0  0  0  0  0  0  0  0  0  0  0  0
   10.7694   -6.1664   -1.9965 C   0  0  0  0  0  0  0  0  0  0  0  0
   10.1653   -5.3856   -1.0033 C   0  0  0  0  0  0  0  0  0  0  0  0
   11.3477   -7.3495   -1.6626 F   0  0  0  0  0  0  0  0  0  0  0  0
    7.5587   -3.4985   -0.0006 C   0  0  0  0  0  0  0  0  0  0  0  0
    6.5238   -4.6662   -0.6056 S   0  0  0  0  0  0  0  0  0  0  0  0
   10.9559   -1.9940    0.2230 C   0  0  0  0  0  0  0  0  0  0  0  0
   11.3444   -0.9018    0.9904 C   0  0  0  0  0  0  0  0  0  0  0  0
    9.9958   -0.2963    1.7971 S   0  0  0  0  0  0  0  0  0  0  0  0
    0.1597    4.2942   11.7979 H   0  0  0  0  0  0  0  0  0  0  0  0
    1.6876    5.5819   10.1278 H   0  0  0  0  0  0  0  0  0  0  0  0
    3.5094    4.4173    7.8512 H   0  0  0  0  0  0  0  0  0  0  0  0
    5.5888    5.6929    8.1967 H   0  0  0  0  0  0  0  0  0  0  0  0
    6.6222    7.3788    6.0545 H   0  0  0  0  0  0  0  0  0  0  0  0
    7.9166    8.5354    6.5002 H   0  0  0  0  0  0  0  0  0  0  0  0
    5.1177    9.2941    5.4539 H   0  0  0  0  0  0  0  0  0  0  0  0
    6.3849   10.4664    5.9952 H   0  0  0  0  0  0  0  0  0  0  0  0
    6.6766    9.4071    4.5646 H   0  0  0  0  0  0  0  0  0  0  0  0
    1.3700    8.0894    7.1408 H   0  0  0  0  0  0  0  0  0  0  0  0
   -3.8563    4.0692    8.0148 H   0  0  0  0  0  0  0  0  0  0  0  0
   -5.7608    2.5431    7.6555 H   0  0  0  0  0  0  0  0  0  0  0  0
   -6.1579   -2.1184    7.3684 H   0  0  0  0  0  0  0  0  0  0  0  0
   -4.5685   -1.3481    7.6811 H   0  0  0  0  0  0  0  0  0  0  0  0
   -5.9938   -1.3619    9.7307 H   0  0  0  0  0  0  0  0  0  0  0  0
   -5.7228    0.3359    9.1846 H   0  0  0  0  0  0  0  0  0  0  0  0
   -7.3043   -0.4801    8.8536 H   0  0  0  0  0  0  0  0  0  0  0  0
   -1.2787    1.3297    5.9057 H   0  0  0  0  0  0  0  0  0  0  0  0
   -1.9006    3.4987    4.3425 H   0  0  0  0  0  0  0  0  0  0  0  0
   -0.5192    1.8156    3.4568 H   0  0  0  0  0  0  0  0  0  0  0  0
    2.7873    1.1978    4.4453 H   0  0  0  0  0  0  0  0  0  0  0  0
    1.3038    2.0447    5.0015 H   0  0  0  0  0  0  0  0  0  0  0  0
    1.2247    0.3323    4.3819 H   0  0  0  0  0  0  0  0  0  0  0  0
    0.4653   -0.3337    2.2129 H   0  0  0  0  0  0  0  0  0  0  0  0
   -1.2173    0.2259    1.9743 H   0  0  0  0  0  0  0  0  0  0  0  0
   -0.1630   -0.3681   -0.1735 H   0  0  0  0  0  0  0  0  0  0  0  0
    1.1838    0.7830    0.1196 H   0  0  0  0  0  0  0  0  0  0  0  0
   -0.4479    1.7783   -1.3787 H   0  0  0  0  0  0  0  0  0  0  0  0
   -2.6830    1.5184   -2.1068 H   0  0  0  0  0  0  0  0  0  0  0  0
   -2.2095   -0.1170   -1.4365 H   0  0  0  0  0  0  0  0  0  0  0  0
   -3.7675    0.6521   -0.9859 H   0  0  0  0  0  0  0  0  0  0  0  0
    0.1844    3.4670   -2.7614 H   0  0  0  0  0  0  0  0  0  0  0  0
   -1.2649    0.3175   -3.6868 H   0  0  0  0  0  0  0  0  0  0  0  0
    0.7704   -1.0067   -4.0616 H   0  0  0  0  0  0  0  0  0  0  0  0
    2.0969   -0.8422   -7.7792 H   0  0  0  0  0  0  0  0  0  0  0  0
    1.5638   -2.0823   -6.5710 H   0  0  0  0  0  0  0  0  0  0  0  0
    3.8055   -3.1772   -6.7007 H   0  0  0  0  0  0  0  0  0  0  0  0
    4.3385   -1.9364   -7.9093 H   0  0  0  0  0  0  0  0  0  0  0  0
    3.0159   -3.0930   -8.3226 H   0  0  0  0  0  0  0  0  0  0  0  0
    0.3064    3.4587   -6.1831 H   0  0  0  0  0  0  0  0  0  0  0  0
   -5.9079    5.6248   -5.2513 H   0  0  0  0  0  0  0  0  0  0  0  0
   -8.0549    6.6191   -4.5661 H   0  0  0  0  0  0  0  0  0  0  0  0
   -7.9425    7.9286   -0.9696 H   0  0  0  0  0  0  0  0  0  0  0  0
   -9.6401    8.3448   -0.5707 H   0  0  0  0  0  0  0  0  0  0  0  0
   -8.1797    8.9653   -3.2081 H   0  0  0  0  0  0  0  0  0  0  0  0
   -9.9539    9.2197   -2.9423 H   0  0  0  0  0  0  0  0  0  0  0  0
   -8.7526   10.1253   -1.9569 H   0  0  0  0  0  0  0  0  0  0  0  0
   -5.4675    3.8886   -1.3291 H   0  0  0  0  0  0  0  0  0  0  0  0
   -6.3933    2.5175   -4.7412 H   0  0  0  0  0  0  0  0  0  0  0  0
   -4.9532   -1.4511   -6.9895 H   0  0  0  0  0  0  0  0  0  0  0  0
   -2.8184   -2.7957   -6.5025 H   0  0  0  0  0  0  0  0  0  0  0  0
   -1.7724   -3.6471   -8.5693 H   0  0  0  0  0  0  0  0  0  0  0  0
   -4.6394   -4.9386  -11.1746 H   0  0  0  0  0  0  0  0  0  0  0  0
   -3.5410   -5.3768  -12.5209 H   0  0  0  0  0  0  0  0  0  0  0  0
   -3.2632   -2.8964  -10.7118 H   0  0  0  0  0  0  0  0  0  0  0  0
   -3.7967   -2.9356  -12.4282 H   0  0  0  0  0  0  0  0  0  0  0  0
   -2.0980   -3.3772  -12.0131 H   0  0  0  0  0  0  0  0  0  0  0  0
   -5.9101   -5.7787   -6.8476 H   0  0  0  0  0  0  0  0  0  0  0  0
   -8.5446   -2.4607   -1.7140 H   0  0  0  0  0  0  0  0  0  0  0  0
   -9.1201   -1.4845    0.4778 H   0  0  0  0  0  0  0  0  0  0  0  0
   -6.5716    1.5067    1.4990 H   0  0  0  0  0  0  0  0  0  0  0  0
   -7.4082    1.9318    3.0333 H   0  0  0  0  0  0  0  0  0  0  0  0
   -9.6339    1.3527    1.9285 H   0  0  0  0  0  0  0  0  0  0  0  0
   -8.7745    2.7641    1.2031 H   0  0  0  0  0  0  0  0  0  0  0  0
   -8.7409    1.1723    0.3623 H   0  0  0  0  0  0  0  0  0  0  0  0
   -4.3586   -1.8913   -0.8583 H   0  0  0  0  0  0  0  0  0  0  0  0
   -5.0005   -4.5361   -0.7674 H   0  0  0  0  0  0  0  0  0  0  0  0
   -1.5892   -7.0412   -3.0217 H   0  0  0  0  0  0  0  0  0  0  0  0
    0.2939   -5.2333   -4.1161 H   0  0  0  0  0  0  0  0  0  0  0  0
    0.7920   -6.0773   -6.3745 H   0  0  0  0  0  0  0  0  0  0  0  0
    0.2591   -9.3307   -8.7190 H   0  0  0  0  0  0  0  0  0  0  0  0
   -0.3973   -8.4860   -7.2811 H   0  0  0  0  0  0  0  0  0  0  0  0
    0.2164  -10.4272   -5.8422 H   0  0  0  0  0  0  0  0  0  0  0  0
   -0.7632  -10.9890   -7.2448 H   0  0  0  0  0  0  0  0  0  0  0  0
    1.0252  -11.2358   -7.2495 H   0  0  0  0  0  0  0  0  0  0  0  0
    2.0756   -8.7633   -2.3967 H   0  0  0  0  0  0  0  0  0  0  0  0
   -0.0255   -6.6774    3.0487 H   0  0  0  0  0  0  0  0  0  0  0  0
   -0.7832   -5.8949    5.2570 H   0  0  0  0  0  0  0  0  0  0  0  0
   -0.1924   -3.0057    8.1428 H   0  0  0  0  0  0  0  0  0  0  0  0
    0.6679   -3.8794    6.8280 H   0  0  0  0  0  0  0  0  0  0  0  0
    1.5107   -1.5149    7.2447 H   0  0  0  0  0  0  0  0  0  0  0  0
   -0.1045   -0.8772    6.7510 H   0  0  0  0  0  0  0  0  0  0  0  0
    0.9315   -1.7714    5.5592 H   0  0  0  0  0  0  0  0  0  0  0  0
   -0.2741   -2.6519    1.5285 H   0  0  0  0  0  0  0  0  0  0  0  0
    2.6794   -4.0152    1.7442 H   0  0  0  0  0  0  0  0  0  0  0  0
    4.7603   -2.4188    1.5378 H   0  0  0  0  0  0  0  0  0  0  0  0
    7.4772    1.1420    0.9141 H   0  0  0  0  0  0  0  0  0  0  0  0
    6.8075    2.9361    2.4469 H   0  0  0  0  0  0  0  0  0  0  0  0
    4.0705    3.2318    3.3907 H   0  0  0  0  0  0  0  0  0  0  0  0
    3.4595    3.6036    5.0397 H   0  0  0  0  0  0  0  0  0  0  0  0
    5.4720    5.3028    3.4227 H   0  0  0  0  0  0  0  0  0  0  0  0
    3.7460    5.6903    3.7287 H   0  0  0  0  0  0  0  0  0  0  0  0
    4.9041    5.6670    5.1001 H   0  0  0  0  0  0  0  0  0  0  0  0
    6.0140   -1.7999    3.7082 H   0  0  0  0  0  0  0  0  0  0  0  0
    9.1228   -2.7786   -2.9351 H   0  0  0  0  0  0  0  0  0  0  0  0
   10.1863   -4.1526   -4.6839 H   0  0  0  0  0  0  0  0  0  0  0  0
   10.3929   -8.6698   -5.4594 H   0  0  0  0  0  0  0  0  0  0  0  0
    9.5530   -8.0227   -4.0133 H   0  0  0  0  0  0  0  0  0  0  0  0
    9.6118   -6.6759   -6.8014 H   0  0  0  0  0  0  0  0  0  0  0  0
    8.2639   -7.6879   -6.1606 H   0  0  0  0  0  0  0  0  0  0  0  0
    8.6588   -6.1233   -5.3652 H   0  0  0  0  0  0  0  0  0  0  0  0
   10.1608   -5.7328    0.0213 H   0  0  0  0  0  0  0  0  0  0  0  0
   11.6493   -2.5618   -0.3858 H   0  0  0  0  0  0  0  0  0  0  0  0
   12.3475   -0.5087    1.0610 H   0  0  0  0  0  0  0  0  0  0  0  0
  1  2  2  0
  2  3  1  0
  3  4  2  0
  4  5  1  0
  5  6  2  0
  6  7  1  0
  7  8  2  0
  8  9  1  0
  9 10  1  0
 10 11  1  0
  8 12  1  0
 12 13  1  0
 12 14  2  0
  4 15  1  0
 15 16  2  0
 16 17  1  0
 17 18  1  0
 18 19  2  0
 19 20  1  0
 20 21  2  0
 21 22  1  0
 22 23  1  0
 23 24  1  0
 21 25  1  0
 25 26  2  0
 25 27  1  0
 17 28  2  0
 28 29  1  0
 16 30  1  0
 30 31  2  0
 31 32  1  0
 31 33  1  0
 33 34  1  0
 34 35  1  0
 35 36  2  0
 36 37  1  0
 37 38  1  0
 38 39  1  0
 39 40  1  0
 38 41  1  0
 41 42  1  0
 42 43  1  0
 43 44  1  0
 44 45  1  0
 35 46  1  0
 46 47  2  0
 47 48  1  0
 48 49  2  0
 49 50  1  0
 50 51  2  0
 51 52  1  0
 52 53  2  0
 53 54  1  0
 54 55  1  0
 55 56  1  0
 53 57  1  0
 57 58  1  0
 57 59  2  0
 49 60  1  0
 60 61  2  0
 61 62  1  0
 62 63  1  0
 63 64  2  0
 64 65  1  0
 65 66  2  0
 66 67  1  0
 67 68  1  0
 68 69  1  0
 66 70  1  0
 70 71  2  0
 70 72  1  0
 62 73  2  0
 73 74  1  0
 61 75  1  0
 75 76  2  0
 76 77  1  0
 76 78  1  0
 78 79  2  0
 79 80  1  0
 80 81  2  0
 81 82  1  0
 82 83  2  0
 83 84  1  0
 84 85  2  0
 85 86  1  0
 86 87  1  0
 87 88  1  0
 85 89  1  0
 89 90  1  0
 89 91  2  0
 81 92  1  0
 92 93  2  0
 93 94  1  0
 94 95  1  0
 95 96  2  0
 96 97  1  0
 97 98  2  0
 98 99  1  0
 99100  1  0
100101  1  0
 98102  1  0
102103  2  0
102104  1  0
 94105  2  0
105106  1  0
 93107  1  0
107108  2  0
108109  1  0
108110  1  0
110111  2  0
111112  1  0
112113  2  0
113114  1  0
114115  2  0
115116  1  0
116117  2  0
117118  1  0
118119  1  0
119120  1  0
117121  1  0
121122  1  0
121123  2  0
113124  1  0
124125  2  0
125126  1  0
126127  1  0
127128  2  0
128129  1  0
129130  2  0
130131  1  0
131132  1  0
132133  1  0
130134  1  0
134135  2  0
134136  1  0
126137  2  0
137138  1  0
125139  1  0
139140  2  0
140141  1  0
140142  1  0
142143  2  0
143144  1  0
144145  2  0
145146  1  0
146147  2  0
147148  1  0
148149  2  0
149150  1  0
150151  1  0
151152  1  0
149153  1  0
153154  1  0
153155  2  0
145156  1  0
156157  2  0
157158  1  0
158159  1  0
159160  2  0
160161  1  0
161162  2  0
162163  1  0
163164  1  0
164165  1  0
162166  1  0
166167  2  0
166168  1  0
158169  2  0
169170  1  0
157171  1  0
171172  2  0
172173  1  0
 29  1  1  0
 37 33  2  0
 74 46  1  0
106 78  1  0
138110  1  0
170142  1  0
 28  3  1  0
 43 36  1  0
 73 48  1  0
105 80  1  0
137112  1  0
169144  1  0
 14  5  1  0
 32 15  1  0
 59 50  1  0
 77 60  1  0
 91 82  1  0
109 92  1  0
123114  1  0
141124  1  0
155146  1  0
173156  1  0
 26 18  1  0
 71 63  1  0
103 95  1  0
135127  1  0
167159  1  0
  1174  1  0
  2175  1  0
  6176  1  0
  7177  1  0
 10178  1  0
 10179  1  0
 11180  1  0
 11181  1  0
 11182  1  0
 14183  1  0
 19184  1  0
 20185  1  0
 23186  1  0
 23187  1  0
 24188  1  0
 24189  1  0
 24190  1  0
 26191  1  0
 30192  1  0
 38193  1  1
 40194  1  0
 40195  1  0
 40196  1  0
 41197  1  0
 41198  1  0
 42199  1  0
 42200  1  0
 43201  1  6
 45202  1  0
 45203  1  0
 45204  1  0
 47205  1  0
 51206  1  0
 52207  1  0
 55208  1  0
 55209  1  0
 56210  1  0
 56211  1  0
 56212  1  0
 59213  1  0
 64214  1  0
 65215  1  0
 68216  1  0
 68217  1  0
 69218  1  0
 69219  1  0
 69220  1  0
 71221  1  0
 75222  1  0
 79223  1  0
 83224  1  0
 84225  1  0
 87226  1  0
 87227  1  0
 88228  1  0
 88229  1  0
 88230  1  0
 91231  1  0
 96232  1  0
 97233  1  0
100234  1  0
100235  1  0
101236  1  0
101237  1  0
101238  1  0
103239  1  0
107240  1  0
111241  1  0
115242  1  0
116243  1  0
119244  1  0
119245  1  0
120246  1  0
120247  1  0
120248  1  0
123249  1  0
128250  1  0
129251  1  0
132252  1  0
132253  1  0
133254  1  0
133255  1  0
133256  1  0
135257  1  0
139258  1  0
143259  1  0
147260  1  0
148261  1  0
151262  1  0
151263  1  0
152264  1  0
152265  1  0
152266  1  0
155267  1  0
160268  1  0
161269  1  0
164270  1  0
164271  1  0
165272  1  0
165273  1  0
165274  1  0
167275  1  0
171276  1  0
172277  1  0
M  END

