
     RDKit          3D

238261  0  0  0  0  0  0  0  0999 V2000
    5.2565   -7.1715    1.1932 C   0  0  0  0  0  0  0  0  0  0  0  0
    3.9179   -8.0933    1.6374 S   0  0  0  0  0  0  0  0  0  0  0  0
    2.9218   -7.6317    0.3634 C   0  0  0  0  0  0  0  0  0  0  0  0
    3.6234   -6.7220   -0.4225 C   0  0  0  0  0  0  0  0  0  0  0  0
    4.9273   -6.4537    0.0409 C   0  0  0  0  0  0  0  0  0  0  0  0
    5.7575   -5.5387   -0.6494 C   0  0  0  0  0  0  0  0  0  0  0  0
    7.1096   -5.1637   -0.1566 C   0  0  0  0  0  0  0  0  0  0  0  0
    7.3034   -5.0252    1.0816 O   0  0  0  0  0  0  0  0  0  0  0  0
    8.2366   -4.8529   -1.1031 C   0  0  0  0  0  0  0  0  0  0  0  0
    9.4533   -5.0601   -0.4762 F   0  0  0  0  0  0  0  0  0  0  0  0
    8.1696   -5.6742   -2.2169 F   0  0  0  0  0  0  0  0  0  0  0  0
    8.1599   -3.5315   -1.5025 F   0  0  0  0  0  0  0  0  0  0  0  0
    5.2537   -4.9432   -1.8254 C   0  0  0  0  0  0  0  0  0  0  0  0
    3.9608   -5.2292   -2.2841 C   0  0  0  0  0  0  0  0  0  0  0  0
    3.1398   -6.1139   -1.5838 C   0  0  0  0  0  0  0  0  0  0  0  0
    1.4976   -7.9613    0.2387 C   0  0  0  0  0  0  0  0  0  0  0  0
    0.2960   -6.8035    0.4224 S   0  0  0  0  0  0  0  0  0  0  0  0
   -1.0176   -7.8081    0.1364 C   0  0  0  0  0  0  0  0  0  0  0  0
   -0.5285   -9.0910   -0.1130 C   0  0  0  0  0  0  0  0  0  0  0  0
    0.8858   -9.1885   -0.0676 C   0  0  0  0  0  0  0  0  0  0  0  0
    1.5137  -10.4294   -0.3335 C   0  0  0  0  0  0  0  0  0  0  0  0
    2.9766  -10.5808   -0.4558 C   0  0  0  0  0  0  0  0  0  0  0  0
    3.5993   -9.8937   -1.3106 O   0  0  0  0  0  0  0  0  0  0  0  0
    3.7207  -11.6179    0.3323 C   0  0  0  0  0  0  0  0  0  0  0  0
    3.0815  -11.8562    1.5379 F   0  0  0  0  0  0  0  0  0  0  0  0
    3.7781  -12.7925   -0.3920 F   0  0  0  0  0  0  0  0  0  0  0  0
    5.0063  -11.1822    0.5902 F   0  0  0  0  0  0  0  0  0  0  0  0
    0.7011  -11.5554   -0.5649 C   0  0  0  0  0  0  0  0  0  0  0  0
   -0.6947  -11.4507   -0.5765 C   0  0  0  0  0  0  0  0  0  0  0  0
   -1.3151  -10.2173   -0.3666 C   0  0  0  0  0  0  0  0  0  0  0  0
   -2.3767   -7.2958   -0.0825 C   0  0  0  0  0  0  0  0  0  0  0  0
   -2.8878   -6.1751    0.5668 C   0  0  0  0  0  0  0  0  0  0  0  0
   -3.9554   -5.5719   -0.1202 C   0  0  0  0  0  0  0  0  0  0  0  0
   -4.5539   -4.3362    0.2011 C   0  0  0  0  0  0  0  0  0  0  0  0
   -4.1240   -3.5373    1.3696 C   0  0  0  0  0  0  0  0  0  0  0  0
   -2.8074   -3.0575    1.4479 C   0  0  0  0  0  0  0  0  0  0  0  0
   -2.3918   -2.3217    2.5584 C   0  0  0  0  0  0  0  0  0  0  0  0
   -3.2933   -2.0329    3.5897 C   0  0  0  0  0  0  0  0  0  0  0  0
   -2.7336   -1.1044    5.0203 S   0  0  0  0  0  0  0  0  0  0  0  0
   -3.0345    0.5192    4.2452 C   0  0  0  0  0  0  0  0  0  0  0  0
   -2.4881    1.6284    5.1338 C   0  0  0  0  0  0  0  0  0  0  0  0
   -4.6166   -2.4898    3.5077 C   0  0  0  0  0  0  0  0  0  0  0  0
   -5.4954   -2.2294    4.5092 F   0  0  0  0  0  0  0  0  0  0  0  0
   -5.0298   -3.2406    2.4010 C   0  0  0  0  0  0  0  0  0  0  0  0
   -5.4440   -3.7992   -0.7451 C   0  0  0  0  0  0  0  0  0  0  0  0
   -5.7307   -4.4339   -1.9591 C   0  0  0  0  0  0  0  0  0  0  0  0
   -5.1956   -5.7104   -2.2386 C   0  0  0  0  0  0  0  0  0  0  0  0
   -5.4594   -6.4186   -3.5054 C   0  0  0  0  0  0  0  0  0  0  0  0
   -6.1468   -7.6411   -3.4875 C   0  0  0  0  0  0  0  0  0  0  0  0
   -6.3916   -8.3259   -4.6812 C   0  0  0  0  0  0  0  0  0  0  0  0
   -5.9584   -7.7914   -5.9002 C   0  0  0  0  0  0  0  0  0  0  0  0
   -6.2930   -8.6752   -7.4289 S   0  0  0  0  0  0  0  0  0  0  0  0
   -7.8465   -7.7829   -7.8007 C   0  0  0  0  0  0  0  0  0  0  0  0
   -9.0217   -8.3908   -7.0457 C   0  0  0  0  0  0  0  0  0  0  0  0
   -5.2467   -6.5833   -5.9201 C   0  0  0  0  0  0  0  0  0  0  0  0
   -4.9955   -5.9011   -4.7250 C   0  0  0  0  0  0  0  0  0  0  0  0
   -4.8018   -6.0680   -7.0929 F   0  0  0  0  0  0  0  0  0  0  0  0
   -4.2998   -6.2447   -1.2955 C   0  0  0  0  0  0  0  0  0  0  0  0
   -3.2669   -7.5597   -1.4925 S   0  0  0  0  0  0  0  0  0  0  0  0
   -6.4249   -3.6068   -2.8631 C   0  0  0  0  0  0  0  0  0  0  0  0
   -6.6527   -2.3210   -2.3724 C   0  0  0  0  0  0  0  0  0  0  0  0
   -6.0417   -2.2342   -0.8001 S   0  0  0  0  0  0  0  0  0  0  0  0
   -6.7315   -1.1227   -3.2165 C   0  0  0  0  0  0  0  0  0  0  0  0
   -7.0559    0.1362   -2.7053 C   0  0  0  0  0  0  0  0  0  0  0  0
   -6.3712    1.1895   -3.3348 C   0  0  0  0  0  0  0  0  0  0  0  0
   -6.2894    2.5170   -2.8634 C   0  0  0  0  0  0  0  0  0  0  0  0
   -7.0673    3.0031   -1.7027 C   0  0  0  0  0  0  0  0  0  0  0  0
   -7.9454    4.0861   -1.8606 C   0  0  0  0  0  0  0  0  0  0  0  0
   -8.6132    4.6161   -0.7550 C   0  0  0  0  0  0  0  0  0  0  0  0
   -8.4164    4.0659    0.5170 C   0  0  0  0  0  0  0  0  0  0  0  0
   -9.2961    4.7477    1.9226 S   0  0  0  0  0  0  0  0  0  0  0  0
  -10.7623    3.6951    1.6577 C   0  0  0  0  0  0  0  0  0  0  0  0
  -11.8491    4.0549    2.6572 C   0  0  0  0  0  0  0  0  0  0  0  0
   -7.5299    2.9925    0.6821 C   0  0  0  0  0  0  0  0  0  0  0  0
   -7.3143    2.4631    1.9135 F   0  0  0  0  0  0  0  0  0  0  0  0
   -6.8511    2.4681   -0.4217 C   0  0  0  0  0  0  0  0  0  0  0  0
   -5.2692    3.3168   -3.4016 C   0  0  0  0  0  0  0  0  0  0  0  0
   -4.3777    2.8546   -4.3753 C   0  0  0  0  0  0  0  0  0  0  0  0
   -4.5545    1.5793   -4.9477 C   0  0  0  0  0  0  0  0  0  0  0  0
   -3.6269    1.0400   -5.9603 C   0  0  0  0  0  0  0  0  0  0  0  0
   -2.3283    0.6454   -5.6019 C   0  0  0  0  0  0  0  0  0  0  0  0
   -1.4618    0.1239   -6.5677 C   0  0  0  0  0  0  0  0  0  0  0  0
   -1.8881   -0.0197   -7.8942 C   0  0  0  0  0  0  0  0  0  0  0  0
   -0.7630   -0.6807   -9.1279 S   0  0  0  0  0  0  0  0  0  0  0  0
   -1.1432   -2.4367   -8.7876 C   0  0  0  0  0  0  0  0  0  0  0  0
   -2.4476   -2.8616   -9.4517 C   0  0  0  0  0  0  0  0  0  0  0  0
   -3.1809    0.3867   -8.2572 C   0  0  0  0  0  0  0  0  0  0  0  0
   -4.0494    0.9038   -7.2907 C   0  0  0  0  0  0  0  0  0  0  0  0
   -3.5986    0.2822   -9.5455 F   0  0  0  0  0  0  0  0  0  0  0  0
   -5.5513    0.7614   -4.3860 C   0  0  0  0  0  0  0  0  0  0  0  0
   -5.6661   -0.9091   -4.5094 S   0  0  0  0  0  0  0  0  0  0  0  0
   -3.2274    3.6598   -4.4982 C   0  0  0  0  0  0  0  0  0  0  0  0
   -3.1850    4.7093   -3.5756 C   0  0  0  0  0  0  0  0  0  0  0  0
   -4.6333    4.6995   -2.7059 S   0  0  0  0  0  0  0  0  0  0  0  0
   -1.9359    5.2243   -2.9817 C   0  0  0  0  0  0  0  0  0  0  0  0
   -1.8587    5.6356   -1.6494 C   0  0  0  0  0  0  0  0  0  0  0  0
   -0.5850    5.4898   -1.0853 C   0  0  0  0  0  0  0  0  0  0  0  0
   -0.2789    5.5979    0.2862 C   0  0  0  0  0  0  0  0  0  0  0  0
   -1.3250    5.8386    1.3065 C   0  0  0  0  0  0  0  0  0  0  0  0
   -1.2435    6.9503    2.1569 C   0  0  0  0  0  0  0  0  0  0  0  0
   -2.2445    7.1834    3.1039 C   0  0  0  0  0  0  0  0  0  0  0  0
   -3.3389    6.3154    3.2039 C   0  0  0  0  0  0  0  0  0  0  0  0
   -4.6467    6.6821    4.3815 S   0  0  0  0  0  0  0  0  0  0  0  0
   -4.1456    5.4456    5.6332 C   0  0  0  0  0  0  0  0  0  0  0  0
   -2.7944    5.7698    6.2661 C   0  0  0  0  0  0  0  0  0  0  0  0
   -3.4227    5.1995    2.3602 C   0  0  0  0  0  0  0  0  0  0  0  0
   -4.4801    4.3539    2.4392 F   0  0  0  0  0  0  0  0  0  0  0  0
   -2.4100    4.9505    1.4301 C   0  0  0  0  0  0  0  0  0  0  0  0
    1.0372    5.2932    0.6626 C   0  0  0  0  0  0  0  0  0  0  0  0
    2.0109    4.8775   -0.2525 C   0  0  0  0  0  0  0  0  0  0  0  0
    1.6979    4.7623   -1.6259 C   0  0  0  0  0  0  0  0  0  0  0  0
    2.6836    4.2697   -2.6095 C   0  0  0  0  0  0  0  0  0  0  0  0
    3.8262    5.0332   -2.8996 C   0  0  0  0  0  0  0  0  0  0  0  0
    4.7493    4.5829   -3.8494 C   0  0  0  0  0  0  0  0  0  0  0  0
    4.5397    3.3720   -4.5188 C   0  0  0  0  0  0  0  0  0  0  0  0
    5.7372    2.8080   -5.7386 S   0  0  0  0  0  0  0  0  0  0  0  0
    5.0581    3.7991   -7.1193 C   0  0  0  0  0  0  0  0  0  0  0  0
    3.7947    3.1659   -7.6890 C   0  0  0  0  0  0  0  0  0  0  0  0
    3.4112    2.5959   -4.2174 C   0  0  0  0  0  0  0  0  0  0  0  0
    2.4852    3.0455   -3.2687 C   0  0  0  0  0  0  0  0  0  0  0  0
    3.2078    1.4087   -4.8411 F   0  0  0  0  0  0  0  0  0  0  0  0
    0.3771    5.0660   -2.0035 C   0  0  0  0  0  0  0  0  0  0  0  0
   -0.3796    4.7890   -3.4848 S   0  0  0  0  0  0  0  0  0  0  0  0
    3.2084    4.4706    0.3637 C   0  0  0  0  0  0  0  0  0  0  0  0
    3.1601    4.5622    1.7580 C   0  0  0  0  0  0  0  0  0  0  0  0
    1.6485    5.1526    2.2199 S   0  0  0  0  0  0  0  0  0  0  0  0
    4.1822    4.0804    2.7038 C   0  0  0  0  0  0  0  0  0  0  0  0
    5.3653    3.4149    2.3793 C   0  0  0  0  0  0  0  0  0  0  0  0
    6.0848    2.9973    3.5146 C   0  0  0  0  0  0  0  0  0  0  0  0
    7.3051    2.2968    3.5138 C   0  0  0  0  0  0  0  0  0  0  0  0
    7.9662    1.8869    2.2632 C   0  0  0  0  0  0  0  0  0  0  0  0
    8.7346    2.8040    1.5332 C   0  0  0  0  0  0  0  0  0  0  0  0
    9.3667    2.4050    0.3523 C   0  0  0  0  0  0  0  0  0  0  0  0
    9.2250    1.0907   -0.1130 C   0  0  0  0  0  0  0  0  0  0  0  0
   10.0402    0.5832   -1.6307 S   0  0  0  0  0  0  0  0  0  0  0  0
   11.5200   -0.0476   -0.7688 C   0  0  0  0  0  0  0  0  0  0  0  0
   12.4806   -0.6675   -1.7717 C   0  0  0  0  0  0  0  0  0  0  0  0
    8.4428    0.1763    0.6069 C   0  0  0  0  0  0  0  0  0  0  0  0
    8.2913   -1.0973    0.1611 F   0  0  0  0  0  0  0  0  0  0  0  0
    7.8244    0.5711    1.7981 C   0  0  0  0  0  0  0  0  0  0  0  0
    7.8529    1.9690    4.7641 C   0  0  0  0  0  0  0  0  0  0  0  0
    7.2285    2.2964    5.9723 C   0  0  0  0  0  0  0  0  0  0  0  0
    5.9946    2.9836    5.9790 C   0  0  0  0  0  0  0  0  0  0  0  0
    5.2781    3.3145    7.2328 C   0  0  0  0  0  0  0  0  0  0  0  0
    5.8917    4.1062    8.2189 C   0  0  0  0  0  0  0  0  0  0  0  0
    5.2055    4.4210    9.3956 C   0  0  0  0  0  0  0  0  0  0  0  0
    3.9038    3.9453    9.6022 C   0  0  0  0  0  0  0  0  0  0  0  0
    3.0234    4.3671   11.1126 S   0  0  0  0  0  0  0  0  0  0  0  0
    3.4793    2.8387   12.0090 C   0  0  0  0  0  0  0  0  0  0  0  0
    4.8513    2.9774   12.6563 C   0  0  0  0  0  0  0  0  0  0  0  0
    3.2829    3.1688    8.6175 C   0  0  0  0  0  0  0  0  0  0  0  0
    3.9703    2.8497    7.4412 C   0  0  0  0  0  0  0  0  0  0  0  0
    2.0172    2.7127    8.7991 F   0  0  0  0  0  0  0  0  0  0  0  0
    5.4582    3.3256    4.7213 C   0  0  0  0  0  0  0  0  0  0  0  0
    4.0292    4.1439    4.3851 S   0  0  0  0  0  0  0  0  0  0  0  0
    7.9416    1.8435    7.0957 C   0  0  0  0  0  0  0  0  0  0  0  0
    9.1252    1.1875    6.7687 C   0  0  0  0  0  0  0  0  0  0  0  0
    9.2847    1.1482    5.0902 S   0  0  0  0  0  0  0  0  0  0  0  0
    6.1947   -7.1504    1.7266 H   0  0  0  0  0  0  0  0  0  0  0  0
    5.8517   -4.2341   -2.3835 H   0  0  0  0  0  0  0  0  0  0  0  0
    3.5947   -4.7550   -3.1850 H   0  0  0  0  0  0  0  0  0  0  0  0
    2.1445   -6.3291   -1.9527 H   0  0  0  0  0  0  0  0  0  0  0  0
    1.1486  -12.5203   -0.7732 H   0  0  0  0  0  0  0  0  0  0  0  0
   -1.2993  -12.3263   -0.7694 H   0  0  0  0  0  0  0  0  0  0  0  0
   -2.3945  -10.1524   -0.3783 H   0  0  0  0  0  0  0  0  0  0  0  0
   -2.4271   -5.7551    1.4507 H   0  0  0  0  0  0  0  0  0  0  0  0
   -2.1021   -3.2630    0.6511 H   0  0  0  0  0  0  0  0  0  0  0  0
   -1.3676   -1.9763    2.6182 H   0  0  0  0  0  0  0  0  0  0  0  0
   -4.1278    0.6624    4.0990 H   0  0  0  0  0  0  0  0  0  0  0  0
   -2.5259    0.5675    3.2589 H   0  0  0  0  0  0  0  0  0  0  0  0
   -2.6756    2.6102    4.6523 H   0  0  0  0  0  0  0  0  0  0  0  0
   -2.9852    1.6089    6.1272 H   0  0  0  0  0  0  0  0  0  0  0  0
   -1.3927    1.5034    5.2674 H   0  0  0  0  0  0  0  0  0  0  0  0
   -6.0504   -3.6033    2.3528 H   0  0  0  0  0  0  0  0  0  0  0  0
   -6.4950   -8.0614   -2.5513 H   0  0  0  0  0  0  0  0  0  0  0  0
   -6.9249   -9.2682   -4.6568 H   0  0  0  0  0  0  0  0  0  0  0  0
   -7.7490   -6.7049   -7.5509 H   0  0  0  0  0  0  0  0  0  0  0  0
   -8.0371   -7.8682   -8.8909 H   0  0  0  0  0  0  0  0  0  0  0  0
   -8.8997   -8.2544   -5.9526 H   0  0  0  0  0  0  0  0  0  0  0  0
   -9.9607   -7.8884   -7.3577 H   0  0  0  0  0  0  0  0  0  0  0  0
   -9.1061   -9.4736   -7.2761 H   0  0  0  0  0  0  0  0  0  0  0  0
   -4.4367   -4.9720   -4.7479 H   0  0  0  0  0  0  0  0  0  0  0  0
   -6.6296   -3.8795   -3.8889 H   0  0  0  0  0  0  0  0  0  0  0  0
   -7.6336    0.2572   -1.7996 H   0  0  0  0  0  0  0  0  0  0  0  0
   -8.0983    4.5267   -2.8398 H   0  0  0  0  0  0  0  0  0  0  0  0
   -9.2875    5.4515   -0.8884 H   0  0  0  0  0  0  0  0  0  0  0  0
  -10.4807    2.6278    1.7827 H   0  0  0  0  0  0  0  0  0  0  0  0
  -11.1526    3.8505    0.6288 H   0  0  0  0  0  0  0  0  0  0  0  0
  -11.4817    3.8991    3.6939 H   0  0  0  0  0  0  0  0  0  0  0  0
  -12.7363    3.4072    2.4900 H   0  0  0  0  0  0  0  0  0  0  0  0
  -12.1494    5.1161    2.5313 H   0  0  0  0  0  0  0  0  0  0  0  0
   -6.1459    1.6578   -0.2799 H   0  0  0  0  0  0  0  0  0  0  0  0
   -1.9901    0.7410   -4.5782 H   0  0  0  0  0  0  0  0  0  0  0  0
   -0.4618   -0.1743   -6.2829 H   0  0  0  0  0  0  0  0  0  0  0  0
   -1.1953   -2.6243   -7.6930 H   0  0  0  0  0  0  0  0  0  0  0  0
   -0.3168   -3.0520   -9.2029 H   0  0  0  0  0  0  0  0  0  0  0  0
   -2.5819   -3.9580   -9.3335 H   0  0  0  0  0  0  0  0  0  0  0  0
   -2.4250   -2.6195  -10.5360 H   0  0  0  0  0  0  0  0  0  0  0  0
   -3.3099   -2.3520   -8.9769 H   0  0  0  0  0  0  0  0  0  0  0  0
   -5.0503    1.2060   -7.5787 H   0  0  0  0  0  0  0  0  0  0  0  0
   -2.3724    3.3785   -5.0975 H   0  0  0  0  0  0  0  0  0  0  0  0
   -2.7321    5.9019   -1.0719 H   0  0  0  0  0  0  0  0  0  0  0  0
   -0.4126    7.6418    2.0774 H   0  0  0  0  0  0  0  0  0  0  0  0
   -2.1787    8.0492    3.7482 H   0  0  0  0  0  0  0  0  0  0  0  0
   -4.9209    5.4383    6.4284 H   0  0  0  0  0  0  0  0  0  0  0  0
   -4.1199    4.4362    5.1743 H   0  0  0  0  0  0  0  0  0  0  0  0
   -1.9778    5.6498    5.5255 H   0  0  0  0  0  0  0  0  0  0  0  0
   -2.7912    6.8083    6.6602 H   0  0  0  0  0  0  0  0  0  0  0  0
   -2.6065    5.0670    7.1062 H   0  0  0  0  0  0  0  0  0  0  0  0
   -2.4728    4.0736    0.7959 H   0  0  0  0  0  0  0  0  0  0  0  0
    3.9952    5.9793   -2.3998 H   0  0  0  0  0  0  0  0  0  0  0  0
    5.6219    5.1851   -4.0720 H   0  0  0  0  0  0  0  0  0  0  0  0
    4.8468    4.8366   -6.7849 H   0  0  0  0  0  0  0  0  0  0  0  0
    5.8269    3.8460   -7.9192 H   0  0  0  0  0  0  0  0  0  0  0  0
    3.9876    2.1093   -7.9741 H   0  0  0  0  0  0  0  0  0  0  0  0
    3.4738    3.7269   -8.5927 H   0  0  0  0  0  0  0  0  0  0  0  0
    2.9732    3.2070   -6.9459 H   0  0  0  0  0  0  0  0  0  0  0  0
    1.6170    2.4383   -3.0433 H   0  0  0  0  0  0  0  0  0  0  0  0
    4.0541    4.0690   -0.1752 H   0  0  0  0  0  0  0  0  0  0  0  0
    5.6870    3.2234    1.3645 H   0  0  0  0  0  0  0  0  0  0  0  0
    8.8511    3.8215    1.8859 H   0  0  0  0  0  0  0  0  0  0  0  0
    9.9670    3.1165   -0.1999 H   0  0  0  0  0  0  0  0  0  0  0  0
   11.2231   -0.8167   -0.0217 H   0  0  0  0  0  0  0  0  0  0  0  0
   12.0236    0.7895   -0.2394 H   0  0  0  0  0  0  0  0  0  0  0  0
   12.0131   -1.5551   -2.2468 H   0  0  0  0  0  0  0  0  0  0  0  0
   12.7459    0.0719   -2.5572 H   0  0  0  0  0  0  0  0  0  0  0  0
   13.4091   -0.9862   -1.2541 H   0  0  0  0  0  0  0  0  0  0  0  0
    7.2281   -0.1428    2.3558 H   0  0  0  0  0  0  0  0  0  0  0  0
    6.8972    4.4813    8.0743 H   0  0  0  0  0  0  0  0  0  0  0  0
    5.6845    5.0363   10.1464 H   0  0  0  0  0  0  0  0  0  0  0  0
    2.7228    2.6655   12.8043 H   0  0  0  0  0  0  0  0  0  0  0  0
    3.4664    1.9618   11.3257 H   0  0  0  0  0  0  0  0  0  0  0  0
    5.0753    2.0665   13.2498 H   0  0  0  0  0  0  0  0  0  0  0  0
    4.8678    3.8573   13.3350 H   0  0  0  0  0  0  0  0  0  0  0  0
    5.6365    3.0931   11.8817 H   0  0  0  0  0  0  0  0  0  0  0  0
    3.4833    2.2343    6.6936 H   0  0  0  0  0  0  0  0  0  0  0  0
    7.6174    1.9747    8.1180 H   0  0  0  0  0  0  0  0  0  0  0  0
    9.8275    0.7699    7.4800 H   0  0  0  0  0  0  0  0  0  0  0  0
  1  2  1  0
  2  3  1  0
  3  4  2  0
  4  5  1  0
  5  6  1  0
  6  7  1  0
  7  8  2  0
  7  9  1  0
  9 10  1  0
  9 11  1  0
  9 12  1  0
  6 13  2  0
 13 14  1  0
 14 15  2  0
  3 16  1  0
 16 17  1  0
 17 18  1  0
 18 19  2  0
 19 20  1  0
 20 21  1  0
 21 22  1  0
 22 23  2  0
 22 24  1  0
 24 25  1  0
 24 26  1  0
 24 27  1  0
 21 28  2  0
 28 29  1  0
 29 30  2  0
 18 31  1  0
 31 32  2  0
 32 33  1  0
 33 34  2  0
 34 35  1  0
 35 36  2  0
 36 37  1  0
 37 38  2  0
 38 39  1  0
 39 40  1  0
 40 41  1  0
 38 42  1  0
 42 43  1  0
 42 44  2  0
 34 45  1  0
 45 46  2  0
 46 47  1  0
 47 48  1  0
 48 49  2  0
 49 50  1  0
 50 51  2  0
 51 52  1  0
 52 53  1  0
 53 54  1  0
 51 55  1  0
 55 56  2  0
 55 57  1  0
 47 58  2  0
 58 59  1  0
 46 60  1  0
 60 61  2  0
 61 62  1  0
 61 63  1  0
 63 64  2  0
 64 65  1  0
 65 66  2  0
 66 67  1  0
 67 68  2  0
 68 69  1  0
 69 70  2  0
 70 71  1  0
 71 72  1  0
 72 73  1  0
 70 74  1  0
 74 75  1  0
 74 76  2  0
 66 77  1  0
 77 78  2  0
 78 79  1  0
 79 80  1  0
 80 81  2  0
 81 82  1  0
 82 83  2  0
 83 84  1  0
 84 85  1  0
 85 86  1  0
 83 87  1  0
 87 88  2  0
 87 89  1  0
 79 90  2  0
 90 91  1  0
 78 92  1  0
 92 93  2  0
 93 94  1  0
 93 95  1  0
 95 96  2  0
 96 97  1  0
 97 98  2  0
 98 99  1  0
 99100  2  0
100101  1  0
101102  2  0
102103  1  0
103104  1  0
104105  1  0
102106  1  0
106107  1  0
106108  2  0
 98109  1  0
109110  2  0
110111  1  0
111112  1  0
112113  2  0
113114  1  0
114115  2  0
115116  1  0
116117  1  0
117118  1  0
115119  1  0
119120  2  0
119121  1  0
111122  2  0
122123  1  0
110124  1  0
124125  2  0
125126  1  0
125127  1  0
127128  2  0
128129  1  0
129130  2  0
130131  1  0
131132  2  0
132133  1  0
133134  2  0
134135  1  0
135136  1  0
136137  1  0
134138  1  0
138139  1  0
138140  2  0
130141  1  0
141142  2  0
142143  1  0
143144  1  0
144145  2  0
145146  1  0
146147  2  0
147148  1  0
148149  1  0
149150  1  0
147151  1  0
151152  2  0
151153  1  0
143154  2  0
154155  1  0
142156  1  0
156157  2  0
157158  1  0
  5  1  2  0
 20 16  2  0
 59 31  1  0
 91 63  1  0
123 95  1  0
155127  1  0
 15  4  1  0
 30 19  1  0
 58 33  1  0
 90 65  1  0
122 97  1  0
154129  1  0
 44 35  1  0
 62 45  1  0
 76 67  1  0
 94 77  1  0
108 99  1  0
126109  1  0
140131  1  0
158141  1  0
 56 48  1  0
 88 80  1  0
120112  1  0
152144  1  0
  1159  1  0
 13160  1  0
 14161  1  0
 15162  1  0
 28163  1  0
 29164  1  0
 30165  1  0
 32166  1  0
 36167  1  0
 37168  1  0
 40169  1  0
 40170  1  0
 41171  1  0
 41172  1  0
 41173  1  0
 44174  1  0
 49175  1  0
 50176  1  0
 53177  1  0
 53178  1  0
 54179  1  0
 54180  1  0
 54181  1  0
 56182  1  0
 60183  1  0
 64184  1  0
 68185  1  0
 69186  1  0
 72187  1  0
 72188  1  0
 73189  1  0
 73190  1  0
 73191  1  0
 76192  1  0
 81193  1  0
 82194  1  0
 85195  1  0
 85196  1  0
 86197  1  0
 86198  1  0
 86199  1  0
 88200  1  0
 92201  1  0
 96202  1  0
100203  1  0
101204  1  0
104205  1  0
104206  1  0
105207  1  0
105208  1  0
105209  1  0
108210  1  0
113211  1  0
114212  1  0
117213  1  0
117214  1  0
118215  1  0
118216  1  0
118217  1  0
120218  1  0
124219  1  0
128220  1  0
132221  1  0
133222  1  0
136223  1  0
136224  1  0
137225  1  0
137226  1  0
137227  1  0
140228  1  0
145229  1  0
146230  1  0
149231  1  0
149232  1  0
150233  1  0
150234  1  0
150235  1  0
152236  1  0
156237  1  0
157238  1  0
M  END

