
     RDKit          3D

308337  0  0  0  0  0  0  0  0999 V2000
  -11.5787   -0.8137    9.2886 C   0  0  0  0  0  0  0  0  0  0  0  0
  -11.5727    0.5383    8.9648 C   0  0  0  0  0  0  0  0  0  0  0  0
  -10.3569    0.9727    8.4056 C   0  0  0  0  0  0  0  0  0  0  0  0
  -10.0376    2.2900    8.0013 C   0  0  0  0  0  0  0  0  0  0  0  0
  -11.0547    3.3649    7.9602 C   0  0  0  0  0  0  0  0  0  0  0  0
  -12.3152    3.2609    7.3818 C   0  0  0  0  0  0  0  0  0  0  0  0
  -13.0617    4.4512    7.4362 C   0  0  0  0  0  0  0  0  0  0  0  0
  -14.4437    4.5483    6.8485 C   0  0  0  0  0  0  0  0  0  0  0  0
  -14.3984    4.5902    5.3221 C   0  0  0  0  0  0  0  0  0  0  0  0
  -12.3780    5.5004    8.0600 C   0  0  0  0  0  0  0  0  0  0  0  0
  -12.8563    6.9086    8.2876 C   0  0  0  0  0  0  0  0  0  0  0  0
  -12.8229    7.7295    7.0016 C   0  0  0  0  0  0  0  0  0  0  0  0
  -10.8602    4.9381    8.5246 S   0  0  0  0  0  0  0  0  0  0  0  0
   -8.7215    2.5071    7.5479 C   0  0  0  0  0  0  0  0  0  0  0  0
   -7.7809    1.4714    7.4333 C   0  0  0  0  0  0  0  0  0  0  0  0
   -8.1144    0.1502    7.7995 C   0  0  0  0  0  0  0  0  0  0  0  0
   -7.1751   -0.9764    7.6272 C   0  0  0  0  0  0  0  0  0  0  0  0
   -7.4047   -2.1107    6.8554 C   0  0  0  0  0  0  0  0  0  0  0  0
   -6.3018   -2.9771    6.7984 C   0  0  0  0  0  0  0  0  0  0  0  0
   -6.3180   -4.2533    6.0015 C   0  0  0  0  0  0  0  0  0  0  0  0
   -6.7031   -5.4341    6.8863 C   0  0  0  0  0  0  0  0  0  0  0  0
   -5.2151   -2.5382    7.5653 C   0  0  0  0  0  0  0  0  0  0  0  0
   -5.6208   -1.0605    8.2608 S   0  0  0  0  0  0  0  0  0  0  0  0
   -3.8586   -3.1745    7.6670 C   0  0  0  0  0  0  0  0  0  0  0  0
   -2.9252   -2.6403    6.5842 C   0  0  0  0  0  0  0  0  0  0  0  0
   -9.4128   -0.0555    8.2979 C   0  0  0  0  0  0  0  0  0  0  0  0
  -10.0864   -1.4808    8.8893 S   0  0  0  0  0  0  0  0  0  0  0  0
   -6.5753    1.8838    6.8480 C   0  0  0  0  0  0  0  0  0  0  0  0
   -6.5630    3.2339    6.5195 C   0  0  0  0  0  0  0  0  0  0  0  0
   -8.0482    3.9207    6.9212 S   0  0  0  0  0  0  0  0  0  0  0  0
   -5.4989    3.8849    5.7450 C   0  0  0  0  0  0  0  0  0  0  0  0
   -5.4362    5.2320    5.3916 C   0  0  0  0  0  0  0  0  0  0  0  0
   -4.3459    5.3205    4.5445 C   0  0  0  0  0  0  0  0  0  0  0  0
   -3.8528    6.3898    3.7635 C   0  0  0  0  0  0  0  0  0  0  0  0
   -4.4432    7.7429    3.7912 C   0  0  0  0  0  0  0  0  0  0  0  0
   -3.6254    8.8618    4.0132 C   0  0  0  0  0  0  0  0  0  0  0  0
   -4.1792   10.1442    4.0563 C   0  0  0  0  0  0  0  0  0  0  0  0
   -5.5557   10.3289    3.8486 C   0  0  0  0  0  0  0  0  0  0  0  0
   -6.1623   11.7026    3.9339 C   0  0  0  0  0  0  0  0  0  0  0  0
   -6.7104   11.9637    5.3348 C   0  0  0  0  0  0  0  0  0  0  0  0
   -6.3722    9.2092    3.6231 C   0  0  0  0  0  0  0  0  0  0  0  0
   -5.8201    7.9268    3.5842 C   0  0  0  0  0  0  0  0  0  0  0  0
   -2.8199    6.0550    2.8677 C   0  0  0  0  0  0  0  0  0  0  0  0
   -2.2733    4.7788    2.8222 C   0  0  0  0  0  0  0  0  0  0  0  0
   -2.7375    3.7240    3.6272 C   0  0  0  0  0  0  0  0  0  0  0  0
   -2.2306    2.3365    3.5250 C   0  0  0  0  0  0  0  0  0  0  0  0
   -2.2185    1.6626    2.2917 C   0  0  0  0  0  0  0  0  0  0  0  0
   -1.7574    0.3457    2.2099 C   0  0  0  0  0  0  0  0  0  0  0  0
   -1.3140   -0.3216    3.3613 C   0  0  0  0  0  0  0  0  0  0  0  0
   -0.7787   -1.7275    3.2648 C   0  0  0  0  0  0  0  0  0  0  0  0
    0.6981   -1.7171    2.8865 C   0  0  0  0  0  0  0  0  0  0  0  0
   -1.3172    0.3519    4.5926 C   0  0  0  0  0  0  0  0  0  0  0  0
   -1.7887    1.6660    4.6765 C   0  0  0  0  0  0  0  0  0  0  0  0
   -3.8108    4.0453    4.4689 C   0  0  0  0  0  0  0  0  0  0  0  0
   -4.5063    3.2122    5.2005 O   0  0  0  0  0  0  0  0  0  0  0  0
   -1.4026    4.7674    1.7643 C   0  0  0  0  0  0  0  0  0  0  0  0
   -1.5157    6.0297    1.2000 C   0  0  0  0  0  0  0  0  0  0  0  0
   -2.3330    6.7969    1.8961 O   0  0  0  0  0  0  0  0  0  0  0  0
   -1.0196    6.3181   -0.1428 C   0  0  0  0  0  0  0  0  0  0  0  0
   -0.1180    7.2995   -0.5552 C   0  0  0  0  0  0  0  0  0  0  0  0
    0.1425    6.9875   -1.8894 C   0  0  0  0  0  0  0  0  0  0  0  0
    1.1414    7.4346   -2.7874 C   0  0  0  0  0  0  0  0  0  0  0  0
    2.0914    8.5137   -2.4466 C   0  0  0  0  0  0  0  0  0  0  0  0
    1.6145    9.7621   -2.0149 C   0  0  0  0  0  0  0  0  0  0  0  0
    2.5071   10.7971   -1.7247 C   0  0  0  0  0  0  0  0  0  0  0  0
    3.8931   10.5961   -1.8511 C   0  0  0  0  0  0  0  0  0  0  0  0
    4.8538   11.7140   -1.5386 C   0  0  0  0  0  0  0  0  0  0  0  0
    5.0989   11.8214   -0.0371 C   0  0  0  0  0  0  0  0  0  0  0  0
    4.3698    9.3435   -2.2631 C   0  0  0  0  0  0  0  0  0  0  0  0
    3.4773    8.3127   -2.5698 C   0  0  0  0  0  0  0  0  0  0  0  0
    1.2540    6.6880   -3.9843 C   0  0  0  0  0  0  0  0  0  0  0  0
    0.3854    5.6520   -4.2867 C   0  0  0  0  0  0  0  0  0  0  0  0
   -0.5838    5.1940   -3.3891 C   0  0  0  0  0  0  0  0  0  0  0  0
   -1.2741    3.8955   -3.5237 C   0  0  0  0  0  0  0  0  0  0  0  0
   -0.5279    2.7075   -3.5468 C   0  0  0  0  0  0  0  0  0  0  0  0
   -1.1585    1.4706   -3.3884 C   0  0  0  0  0  0  0  0  0  0  0  0
   -2.5533    1.4035   -3.2193 C   0  0  0  0  0  0  0  0  0  0  0  0
   -3.2256    0.0862   -2.9245 C   0  0  0  0  0  0  0  0  0  0  0  0
   -3.1619   -0.8522   -4.1240 C   0  0  0  0  0  0  0  0  0  0  0  0
   -3.3055    2.5901   -3.2636 C   0  0  0  0  0  0  0  0  0  0  0  0
   -2.6694    3.8267   -3.4010 C   0  0  0  0  0  0  0  0  0  0  0  0
   -0.6434    5.8823   -2.1796 C   0  0  0  0  0  0  0  0  0  0  0  0
   -1.3225    5.5132   -1.1340 O   0  0  0  0  0  0  0  0  0  0  0  0
    0.8215    5.0905   -5.4556 C   0  0  0  0  0  0  0  0  0  0  0  0
    1.9883    5.7803   -5.7663 C   0  0  0  0  0  0  0  0  0  0  0  0
    2.2040    6.7536   -4.8940 O   0  0  0  0  0  0  0  0  0  0  0  0
    2.9760    5.3021   -6.7477 C   0  0  0  0  0  0  0  0  0  0  0  0
    2.7110    4.1914   -7.5478 C   0  0  0  0  0  0  0  0  0  0  0  0
    3.8011    3.3188   -7.6719 C   0  0  0  0  0  0  0  0  0  0  0  0
    3.7019    1.9670   -8.0561 C   0  0  0  0  0  0  0  0  0  0  0  0
    2.4148    1.3776   -8.4637 C   0  0  0  0  0  0  0  0  0  0  0  0
    1.2982    1.2250   -7.6474 C   0  0  0  0  0  0  0  0  0  0  0  0
    0.2011    0.6591   -8.3154 C   0  0  0  0  0  0  0  0  0  0  0  0
   -1.1149    0.3980   -7.6335 C   0  0  0  0  0  0  0  0  0  0  0  0
   -1.2078   -1.0552   -7.1752 C   0  0  0  0  0  0  0  0  0  0  0  0
    0.4771    0.3361   -9.6514 C   0  0  0  0  0  0  0  0  0  0  0  0
   -0.4999   -0.1632  -10.6765 C   0  0  0  0  0  0  0  0  0  0  0  0
   -1.1943    1.0080  -11.3627 C   0  0  0  0  0  0  0  0  0  0  0  0
    2.0590    0.7929   -9.9986 S   0  0  0  0  0  0  0  0  0  0  0  0
    4.7785    1.1381   -7.7250 C   0  0  0  0  0  0  0  0  0  0  0  0
    5.9379    1.6246   -7.1116 C   0  0  0  0  0  0  0  0  0  0  0  0
    6.1269    3.0114   -6.9202 C   0  0  0  0  0  0  0  0  0  0  0  0
    7.4662    3.5649   -6.5879 C   0  0  0  0  0  0  0  0  0  0  0  0
    8.6693    3.0527   -7.0734 C   0  0  0  0  0  0  0  0  0  0  0  0
    9.7855    3.8647   -6.8149 C   0  0  0  0  0  0  0  0  0  0  0  0
   11.1629    3.5234   -7.3174 C   0  0  0  0  0  0  0  0  0  0  0  0
   11.9382    2.6978   -6.2933 C   0  0  0  0  0  0  0  0  0  0  0  0
    9.4684    5.0161   -6.0882 C   0  0  0  0  0  0  0  0  0  0  0  0
    7.8094    5.0363   -5.8382 S   0  0  0  0  0  0  0  0  0  0  0  0
   10.3801    6.1518   -5.7316 C   0  0  0  0  0  0  0  0  0  0  0  0
   10.4463    7.1710   -6.8647 C   0  0  0  0  0  0  0  0  0  0  0  0
    4.9859    3.8220   -7.1195 C   0  0  0  0  0  0  0  0  0  0  0  0
    4.6214    5.2948   -6.3853 S   0  0  0  0  0  0  0  0  0  0  0  0
    6.6816    0.6150   -6.4726 C   0  0  0  0  0  0  0  0  0  0  0  0
    6.1066   -0.6508   -6.5816 C   0  0  0  0  0  0  0  0  0  0  0  0
    4.7120   -0.5280   -7.5207 S   0  0  0  0  0  0  0  0  0  0  0  0
    6.1699   -1.6708   -5.5313 C   0  0  0  0  0  0  0  0  0  0  0  0
    6.2600   -1.3880   -4.1692 C   0  0  0  0  0  0  0  0  0  0  0  0
    5.9204   -2.5701   -3.5451 C   0  0  0  0  0  0  0  0  0  0  0  0
    5.5946   -2.8329   -2.1982 C   0  0  0  0  0  0  0  0  0  0  0  0
    5.6313   -1.7895   -1.1443 C   0  0  0  0  0  0  0  0  0  0  0  0
    6.7610   -0.9687   -0.9803 C   0  0  0  0  0  0  0  0  0  0  0  0
    6.7538    0.0644   -0.0372 C   0  0  0  0  0  0  0  0  0  0  0  0
    5.6226    0.2817    0.7644 C   0  0  0  0  0  0  0  0  0  0  0  0
    5.5788    1.4435    1.7238 C   0  0  0  0  0  0  0  0  0  0  0  0
    5.0624    2.6981    1.0244 C   0  0  0  0  0  0  0  0  0  0  0  0
    4.5012   -0.5446    0.6137 C   0  0  0  0  0  0  0  0  0  0  0  0
    4.5052   -1.5743   -0.3315 C   0  0  0  0  0  0  0  0  0  0  0  0
    5.0678   -4.1133   -1.9502 C   0  0  0  0  0  0  0  0  0  0  0  0
    4.8885   -5.0532   -2.9514 C   0  0  0  0  0  0  0  0  0  0  0  0
    5.2169   -4.7885   -4.2918 C   0  0  0  0  0  0  0  0  0  0  0  0
    5.0133   -5.7719   -5.3674 C   0  0  0  0  0  0  0  0  0  0  0  0
    6.1241   -6.3469   -6.0026 C   0  0  0  0  0  0  0  0  0  0  0  0
    5.9424   -7.3168   -6.9911 C   0  0  0  0  0  0  0  0  0  0  0  0
    4.6479   -7.7061   -7.3764 C   0  0  0  0  0  0  0  0  0  0  0  0
    4.4615   -8.7276   -8.4689 C   0  0  0  0  0  0  0  0  0  0  0  0
    4.7619   -8.1248   -9.8396 C   0  0  0  0  0  0  0  0  0  0  0  0
    3.5378   -7.1127   -6.7564 C   0  0  0  0  0  0  0  0  0  0  0  0
    3.7192   -6.1594   -5.7486 C   0  0  0  0  0  0  0  0  0  0  0  0
    5.7008   -3.4963   -4.5544 C   0  0  0  0  0  0  0  0  0  0  0  0
    5.8699   -2.9411   -5.7313 O   0  0  0  0  0  0  0  0  0  0  0  0
    4.3205   -6.1636   -2.3605 C   0  0  0  0  0  0  0  0  0  0  0  0
    4.1975   -5.8149   -1.0193 C   0  0  0  0  0  0  0  0  0  0  0  0
    4.6589   -4.5970   -0.8039 O   0  0  0  0  0  0  0  0  0  0  0  0
    3.6370   -6.6532    0.0416 C   0  0  0  0  0  0  0  0  0  0  0  0
    3.8426   -6.4479    1.4001 C   0  0  0  0  0  0  0  0  0  0  0  0
    3.1615   -7.3750    2.2026 C   0  0  0  0  0  0  0  0  0  0  0  0
    3.1596   -7.4078    3.6118 C   0  0  0  0  0  0  0  0  0  0  0  0
    3.9923   -6.4860    4.4054 C   0  0  0  0  0  0  0  0  0  0  0  0
    5.3663   -6.3200    4.2704 C   0  0  0  0  0  0  0  0  0  0  0  0
    5.8968   -5.3366    5.1166 C   0  0  0  0  0  0  0  0  0  0  0  0
    7.3556   -4.9667    5.0955 C   0  0  0  0  0  0  0  0  0  0  0  0
    7.6299   -3.9172    4.0204 C   0  0  0  0  0  0  0  0  0  0  0  0
    4.9214   -4.7051    5.8953 C   0  0  0  0  0  0  0  0  0  0  0  0
    5.1460   -3.6568    6.9465 C   0  0  0  0  0  0  0  0  0  0  0  0
    5.5047   -4.3002    8.2784 C   0  0  0  0  0  0  0  0  0  0  0  0
    3.4257   -5.4046    5.5619 S   0  0  0  0  0  0  0  0  0  0  0  0
    2.3413   -8.3716    4.2215 C   0  0  0  0  0  0  0  0  0  0  0  0
    1.5557   -9.2702    3.4867 C   0  0  0  0  0  0  0  0  0  0  0  0
    1.5524   -9.2355    2.0739 C   0  0  0  0  0  0  0  0  0  0  0  0
    0.6353  -10.0751    1.2735 C   0  0  0  0  0  0  0  0  0  0  0  0
    0.9737  -10.8310    0.1565 C   0  0  0  0  0  0  0  0  0  0  0  0
   -0.1377  -11.4061   -0.4844 C   0  0  0  0  0  0  0  0  0  0  0  0
   -0.0052  -12.2529   -1.7196 C   0  0  0  0  0  0  0  0  0  0  0  0
    0.0956  -13.7321   -1.3609 C   0  0  0  0  0  0  0  0  0  0  0  0
   -1.3506  -11.1267    0.1586 C   0  0  0  0  0  0  0  0  0  0  0  0
   -1.0366  -10.1225    1.4719 S   0  0  0  0  0  0  0  0  0  0  0  0
   -2.7300  -11.4986   -0.3014 C   0  0  0  0  0  0  0  0  0  0  0  0
   -3.2967  -10.4296   -1.2302 C   0  0  0  0  0  0  0  0  0  0  0  0
    2.3910   -8.2829    1.4646 C   0  0  0  0  0  0  0  0  0  0  0  0
    2.5796   -7.9520   -0.1795 S   0  0  0  0  0  0  0  0  0  0  0  0
    0.8509  -10.1746    4.3024 C   0  0  0  0  0  0  0  0  0  0  0  0
    1.0764   -9.9791    5.6620 C   0  0  0  0  0  0  0  0  0  0  0  0
    2.1550   -8.7003    5.8609 S   0  0  0  0  0  0  0  0  0  0  0  0
  -12.4057   -1.3445    9.7397 H   0  0  0  0  0  0  0  0  0  0  0  0
  -12.4164    1.1812    9.1580 H   0  0  0  0  0  0  0  0  0  0  0  0
  -12.6837    2.3558    6.9217 H   0  0  0  0  0  0  0  0  0  0  0  0
  -14.9719    5.4508    7.2193 H   0  0  0  0  0  0  0  0  0  0  0  0
  -15.0404    3.6655    7.1660 H   0  0  0  0  0  0  0  0  0  0  0  0
  -13.9801    3.6423    4.9255 H   0  0  0  0  0  0  0  0  0  0  0  0
  -13.7661    5.4332    4.9702 H   0  0  0  0  0  0  0  0  0  0  0  0
  -15.4253    4.7226    4.9233 H   0  0  0  0  0  0  0  0  0  0  0  0
  -12.2016    7.3986    9.0403 H   0  0  0  0  0  0  0  0  0  0  0  0
  -13.8858    6.8979    8.7044 H   0  0  0  0  0  0  0  0  0  0  0  0
  -13.6103    7.3832    6.3034 H   0  0  0  0  0  0  0  0  0  0  0  0
  -11.8275    7.6483    6.5142 H   0  0  0  0  0  0  0  0  0  0  0  0
  -13.0169    8.7945    7.2411 H   0  0  0  0  0  0  0  0  0  0  0  0
   -8.3303   -2.2876    6.3206 H   0  0  0  0  0  0  0  0  0  0  0  0
   -5.3216   -4.4336    5.5525 H   0  0  0  0  0  0  0  0  0  0  0  0
   -7.0481   -4.1739    5.1668 H   0  0  0  0  0  0  0  0  0  0  0  0
   -6.0357   -5.4984    7.7716 H   0  0  0  0  0  0  0  0  0  0  0  0
   -6.6107   -6.3756    6.3066 H   0  0  0  0  0  0  0  0  0  0  0  0
   -7.7515   -5.3272    7.2304 H   0  0  0  0  0  0  0  0  0  0  0  0
   -3.4231   -2.9514    8.6652 H   0  0  0  0  0  0  0  0  0  0  0  0
   -3.9427   -4.2776    7.5808 H   0  0  0  0  0  0  0  0  0  0  0  0
   -3.3803   -2.7498    5.5785 H   0  0  0  0  0  0  0  0  0  0  0  0
   -1.9735   -3.2052    6.6095 H   0  0  0  0  0  0  0  0  0  0  0  0
   -2.7117   -1.5652    6.7677 H   0  0  0  0  0  0  0  0  0  0  0  0
   -5.7557    1.2213    6.6127 H   0  0  0  0  0  0  0  0  0  0  0  0
   -6.1322    6.0166    5.6611 H   0  0  0  0  0  0  0  0  0  0  0  0
   -2.5611    8.7382    4.1724 H   0  0  0  0  0  0  0  0  0  0  0  0
   -3.5360   10.9935    4.2569 H   0  0  0  0  0  0  0  0  0  0  0  0
   -5.4014   12.4780    3.6915 H   0  0  0  0  0  0  0  0  0  0  0  0
   -6.9849   11.8027    3.1942 H   0  0  0  0  0  0  0  0  0  0  0  0
   -7.1728   12.9730    5.3710 H   0  0  0  0  0  0  0  0  0  0  0  0
   -7.4845   11.2103    5.5990 H   0  0  0  0  0  0  0  0  0  0  0  0
   -5.8919   11.9170    6.0845 H   0  0  0  0  0  0  0  0  0  0  0  0
   -7.4381    9.3330    3.4794 H   0  0  0  0  0  0  0  0  0  0  0  0
   -6.4644    7.0781    3.3862 H   0  0  0  0  0  0  0  0  0  0  0  0
   -2.5792    2.1495    1.3956 H   0  0  0  0  0  0  0  0  0  0  0  0
   -1.7443   -0.1530    1.2488 H   0  0  0  0  0  0  0  0  0  0  0  0
   -1.3533   -2.3010    2.5043 H   0  0  0  0  0  0  0  0  0  0  0  0
   -0.9037   -2.2560    4.2361 H   0  0  0  0  0  0  0  0  0  0  0  0
    0.8433   -1.2267    1.9013 H   0  0  0  0  0  0  0  0  0  0  0  0
    1.2864   -1.1714    3.6549 H   0  0  0  0  0  0  0  0  0  0  0  0
    1.0722   -2.7601    2.8254 H   0  0  0  0  0  0  0  0  0  0  0  0
   -0.9515   -0.1377    5.4871 H   0  0  0  0  0  0  0  0  0  0  0  0
   -1.7956    2.1647    5.6400 H   0  0  0  0  0  0  0  0  0  0  0  0
   -0.8598    3.9226    1.3598 H   0  0  0  0  0  0  0  0  0  0  0  0
    0.3655    8.0482    0.0624 H   0  0  0  0  0  0  0  0  0  0  0  0
    0.5485    9.9418   -1.9254 H   0  0  0  0  0  0  0  0  0  0  0  0
    2.1213   11.7587   -1.4062 H   0  0  0  0  0  0  0  0  0  0  0  0
    4.4486   12.6791   -1.9146 H   0  0  0  0  0  0  0  0  0  0  0  0
    5.8239   11.5394   -2.0544 H   0  0  0  0  0  0  0  0  0  0  0  0
    4.1585   12.0888    0.4872 H   0  0  0  0  0  0  0  0  0  0  0  0
    5.8525   12.6116    0.1587 H   0  0  0  0  0  0  0  0  0  0  0  0
    5.4773   10.8567    0.3610 H   0  0  0  0  0  0  0  0  0  0  0  0
    5.4326    9.1670   -2.3594 H   0  0  0  0  0  0  0  0  0  0  0  0
    3.8705    7.3589   -2.8957 H   0  0  0  0  0  0  0  0  0  0  0  0
    0.5543    2.7385   -3.6113 H   0  0  0  0  0  0  0  0  0  0  0  0
   -0.5603    0.5690   -3.3505 H   0  0  0  0  0  0  0  0  0  0  0  0
   -4.2927    0.2407   -2.6507 H   0  0  0  0  0  0  0  0  0  0  0  0
   -2.7265   -0.3906   -2.0545 H   0  0  0  0  0  0  0  0  0  0  0  0
   -3.6229   -0.3689   -5.0103 H   0  0  0  0  0  0  0  0  0  0  0  0
   -2.1076   -1.1166   -4.3457 H   0  0  0  0  0  0  0  0  0  0  0  0
   -3.7154   -1.7866   -3.8980 H   0  0  0  0  0  0  0  0  0  0  0  0
   -4.3817    2.5653   -3.1440 H   0  0  0  0  0  0  0  0  0  0  0  0
   -3.2556    4.7371   -3.3614 H   0  0  0  0  0  0  0  0  0  0  0  0
    0.4360    4.1917   -5.9173 H   0  0  0  0  0  0  0  0  0  0  0  0
    1.7070    3.9213   -7.8385 H   0  0  0  0  0  0  0  0  0  0  0  0
    1.2773    1.5214   -6.6074 H   0  0  0  0  0  0  0  0  0  0  0  0
   -1.9503    0.6245   -8.3268 H   0  0  0  0  0  0  0  0  0  0  0  0
   -1.2276    1.0661   -6.7522 H   0  0  0  0  0  0  0  0  0  0  0  0
   -2.2426   -1.2712   -6.8380 H   0  0  0  0  0  0  0  0  0  0  0  0
   -0.5079   -1.2382   -6.3332 H   0  0  0  0  0  0  0  0  0  0  0  0
   -0.9698   -1.7494   -8.0079 H   0  0  0  0  0  0  0  0  0  0  0  0
   -1.2604   -0.8114  -10.1970 H   0  0  0  0  0  0  0  0  0  0  0  0
    0.0348   -0.7763  -11.4344 H   0  0  0  0  0  0  0  0  0  0  0  0
   -0.4651    1.5801  -11.9718 H   0  0  0  0  0  0  0  0  0  0  0  0
   -1.9959    0.6249  -12.0291 H   0  0  0  0  0  0  0  0  0  0  0  0
   -1.6491    1.6894  -10.6139 H   0  0  0  0  0  0  0  0  0  0  0  0
    8.7334    2.1480   -7.6644 H   0  0  0  0  0  0  0  0  0  0  0  0
   11.7298    4.4506   -7.5530 H   0  0  0  0  0  0  0  0  0  0  0  0
   11.0845    2.9492   -8.2658 H   0  0  0  0  0  0  0  0  0  0  0  0
   13.0051    2.6491   -6.5945 H   0  0  0  0  0  0  0  0  0  0  0  0
   11.5302    1.6636   -6.2519 H   0  0  0  0  0  0  0  0  0  0  0  0
   11.8685    3.1565   -5.2855 H   0  0  0  0  0  0  0  0  0  0  0  0
   11.3969    5.7734   -5.4992 H   0  0  0  0  0  0  0  0  0  0  0  0
    9.9914    6.6520   -4.8196 H   0  0  0  0  0  0  0  0  0  0  0  0
   10.9427    6.7333   -7.7575 H   0  0  0  0  0  0  0  0  0  0  0  0
   11.0226    8.0570   -6.5300 H   0  0  0  0  0  0  0  0  0  0  0  0
    9.4241    7.5019   -7.1410 H   0  0  0  0  0  0  0  0  0  0  0  0
    7.4921    0.8237   -5.7857 H   0  0  0  0  0  0  0  0  0  0  0  0
    6.3671   -0.4143   -3.7107 H   0  0  0  0  0  0  0  0  0  0  0  0
    7.6452   -1.1230   -1.5869 H   0  0  0  0  0  0  0  0  0  0  0  0
    7.6219    0.7023    0.0569 H   0  0  0  0  0  0  0  0  0  0  0  0
    4.9173    1.2055    2.5848 H   0  0  0  0  0  0  0  0  0  0  0  0
    6.5930    1.6442    2.1280 H   0  0  0  0  0  0  0  0  0  0  0  0
    5.7614    3.0019    0.2150 H   0  0  0  0  0  0  0  0  0  0  0  0
    4.9836    3.5256    1.7608 H   0  0  0  0  0  0  0  0  0  0  0  0
    4.0565    2.5154    0.5857 H   0  0  0  0  0  0  0  0  0  0  0  0
    3.6148   -0.3771    1.2143 H   0  0  0  0  0  0  0  0  0  0  0  0
    3.6117   -2.1779   -0.4455 H   0  0  0  0  0  0  0  0  0  0  0  0
    7.1291   -6.0492   -5.7201 H   0  0  0  0  0  0  0  0  0  0  0  0
    6.8121   -7.7633   -7.4553 H   0  0  0  0  0  0  0  0  0  0  0  0
    5.1364   -9.5938   -8.2905 H   0  0  0  0  0  0  0  0  0  0  0  0
    3.4195   -9.1130   -8.4661 H   0  0  0  0  0  0  0  0  0  0  0  0
    5.8340   -7.8469   -9.9134 H   0  0  0  0  0  0  0  0  0  0  0  0
    4.5341   -8.8693  -10.6304 H   0  0  0  0  0  0  0  0  0  0  0  0
    4.1365   -7.2225  -10.0092 H   0  0  0  0  0  0  0  0  0  0  0  0
    2.5332   -7.3916   -7.0473 H   0  0  0  0  0  0  0  0  0  0  0  0
    2.8548   -5.7132   -5.2773 H   0  0  0  0  0  0  0  0  0  0  0  0
    4.0351   -7.0954   -2.8286 H   0  0  0  0  0  0  0  0  0  0  0  0
    4.4481   -5.6363    1.7835 H   0  0  0  0  0  0  0  0  0  0  0  0
    5.9723   -6.8949    3.5815 H   0  0  0  0  0  0  0  0  0  0  0  0
    7.9648   -5.8738    4.8863 H   0  0  0  0  0  0  0  0  0  0  0  0
    7.6754   -4.5821    6.0850 H   0  0  0  0  0  0  0  0  0  0  0  0
    8.7048   -3.6483    4.0369 H   0  0  0  0  0  0  0  0  0  0  0  0
    7.3809   -4.3238    3.0166 H   0  0  0  0  0  0  0  0  0  0  0  0
    7.0270   -3.0033    4.2088 H   0  0  0  0  0  0  0  0  0  0  0  0
    4.2213   -3.0530    7.0685 H   0  0  0  0  0  0  0  0  0  0  0  0
    5.9551   -2.9672    6.6288 H   0  0  0  0  0  0  0  0  0  0  0  0
    6.4709   -4.8399    8.1916 H   0  0  0  0  0  0  0  0  0  0  0  0
    4.7135   -5.0160    8.5908 H   0  0  0  0  0  0  0  0  0  0  0  0
    5.6068   -3.5121    9.0529 H   0  0  0  0  0  0  0  0  0  0  0  0
    1.9894  -10.9529   -0.2003 H   0  0  0  0  0  0  0  0  0  0  0  0
    0.9050  -11.9549   -2.2829 H   0  0  0  0  0  0  0  0  0  0  0  0
   -0.8749  -12.0941   -2.3937 H   0  0  0  0  0  0  0  0  0  0  0  0
    0.9502  -13.9044   -0.6710 H   0  0  0  0  0  0  0  0  0  0  0  0
    0.2577  -14.3273   -2.2858 H   0  0  0  0  0  0  0  0  0  0  0  0
   -0.8414  -14.0765   -0.8726 H   0  0  0  0  0  0  0  0  0  0  0  0
   -3.3978  -11.6118    0.5789 H   0  0  0  0  0  0  0  0  0  0  0  0
   -2.7012  -12.4747   -0.8295 H   0  0  0  0  0  0  0  0  0  0  0  0
   -4.2610  -10.7759   -1.6511 H   0  0  0  0  0  0  0  0  0  0  0  0
   -3.4627   -9.4843   -0.6693 H   0  0  0  0  0  0  0  0  0  0  0  0
   -2.5929  -10.2337   -2.0668 H   0  0  0  0  0  0  0  0  0  0  0  0
    0.2113  -10.9624    3.9293 H   0  0  0  0  0  0  0  0  0  0  0  0
    0.6353  -10.5604    6.4591 H   0  0  0  0  0  0  0  0  0  0  0  0
  1  2  2  0
  2  3  1  0
  3  4  2  0
  4  5  1  0
  5  6  2  0
  6  7  1  0
  7  8  1  0
  8  9  1  0
  7 10  2  0
 10 11  1  0
 11 12  1  0
 10 13  1  0
  4 14  1  0
 14 15  2  0
 15 16  1  0
 16 17  1  0
 17 18  2  0
 18 19  1  0
 19 20  1  0
 20 21  1  0
 19 22  2  0
 22 23  1  0
 22 24  1  0
 24 25  1  0
 16 26  2  0
 26 27  1  0
 15 28  1  0
 28 29  2  0
 29 30  1  0
 29 31  1  0
 31 32  2  0
 32 33  1  0
 33 34  2  0
 34 35  1  0
 35 36  2  0
 36 37  1  0
 37 38  2  0
 38 39  1  0
 39 40  1  0
 38 41  1  0
 41 42  2  0
 34 43  1  0
 43 44  2  0
 44 45  1  0
 45 46  1  0
 46 47  2  0
 47 48  1  0
 48 49  2  0
 49 50  1  0
 50 51  1  0
 49 52  1  0
 52 53  2  0
 45 54  2  0
 54 55  1  0
 44 56  1  0
 56 57  2  0
 57 58  1  0
 57 59  1  0
 59 60  2  0
 60 61  1  0
 61 62  2  0
 62 63  1  0
 63 64  2  0
 64 65  1  0
 65 66  2  0
 66 67  1  0
 67 68  1  0
 66 69  1  0
 69 70  2  0
 62 71  1  0
 71 72  2  0
 72 73  1  0
 73 74  1  0
 74 75  2  0
 75 76  1  0
 76 77  2  0
 77 78  1  0
 78 79  1  0
 77 80  1  0
 80 81  2  0
 73 82  2  0
 82 83  1  0
 72 84  1  0
 84 85  2  0
 85 86  1  0
 85 87  1  0
 87 88  2  0
 88 89  1  0
 89 90  2  0
 90 91  1  0
 91 92  2  0
 92 93  1  0
 93 94  1  0
 94 95  1  0
 93 96  2  0
 96 97  1  0
 97 98  1  0
 96 99  1  0
 90100  1  0
100101  2  0
101102  1  0
102103  1  0
103104  2  0
104105  1  0
105106  1  0
106107  1  0
105108  2  0
108109  1  0
108110  1  0
110111  1  0
102112  2  0
112113  1  0
101114  1  0
114115  2  0
115116  1  0
115117  1  0
117118  2  0
118119  1  0
119120  2  0
120121  1  0
121122  2  0
122123  1  0
123124  2  0
124125  1  0
125126  1  0
124127  1  0
127128  2  0
120129  1  0
129130  2  0
130131  1  0
131132  1  0
132133  2  0
133134  1  0
134135  2  0
135136  1  0
136137  1  0
135138  1  0
138139  2  0
131140  2  0
140141  1  0
130142  1  0
142143  2  0
143144  1  0
143145  1  0
145146  2  0
146147  1  0
147148  2  0
148149  1  0
149150  2  0
150151  1  0
151152  1  0
152153  1  0
151154  2  0
154155  1  0
155156  1  0
154157  1  0
148158  1  0
158159  2  0
159160  1  0
160161  1  0
161162  2  0
162163  1  0
163164  1  0
164165  1  0
163166  2  0
166167  1  0
166168  1  0
168169  1  0
160170  2  0
170171  1  0
159172  1  0
172173  2  0
173174  1  0
 27  1  1  0
 55 31  1  0
 83 59  1  0
113 87  1  0
141117  1  0
171145  1  0
 26  3  1  0
 54 33  1  0
 82 61  1  0
112 89  1  0
140119  1  0
170147  1  0
 13  5  1  0
 30 14  1  0
 42 35  1  0
 58 43  1  0
 70 63  1  0
 86 71  1  0
 99 91  1  0
116100  1  0
128121  1  0
144129  1  0
157149  1  0
174158  1  0
 23 17  1  0
 53 46  1  0
 81 74  1  0
109103  1  0
139132  1  0
167161  1  0
  1175  1  0
  2176  1  0
  6177  1  0
  8178  1  0
  8179  1  0
  9180  1  0
  9181  1  0
  9182  1  0
 11183  1  0
 11184  1  0
 12185  1  0
 12186  1  0
 12187  1  0
 18188  1  0
 20189  1  0
 20190  1  0
 21191  1  0
 21192  1  0
 21193  1  0
 24194  1  0
 24195  1  0
 25196  1  0
 25197  1  0
 25198  1  0
 28199  1  0
 32200  1  0
 36201  1  0
 37202  1  0
 39203  1  0
 39204  1  0
 40205  1  0
 40206  1  0
 40207  1  0
 41208  1  0
 42209  1  0
 47210  1  0
 48211  1  0
 50212  1  0
 50213  1  0
 51214  1  0
 51215  1  0
 51216  1  0
 52217  1  0
 53218  1  0
 56219  1  0
 60220  1  0
 64221  1  0
 65222  1  0
 67223  1  0
 67224  1  0
 68225  1  0
 68226  1  0
 68227  1  0
 69228  1  0
 70229  1  0
 75230  1  0
 76231  1  0
 78232  1  0
 78233  1  0
 79234  1  0
 79235  1  0
 79236  1  0
 80237  1  0
 81238  1  0
 84239  1  0
 88240  1  0
 92241  1  0
 94242  1  0
 94243  1  0
 95244  1  0
 95245  1  0
 95246  1  0
 97247  1  0
 97248  1  0
 98249  1  0
 98250  1  0
 98251  1  0
104252  1  0
106253  1  0
106254  1  0
107255  1  0
107256  1  0
107257  1  0
110258  1  0
110259  1  0
111260  1  0
111261  1  0
111262  1  0
114263  1  0
118264  1  0
122265  1  0
123266  1  0
125267  1  0
125268  1  0
126269  1  0
126270  1  0
126271  1  0
127272  1  0
128273  1  0
133274  1  0
134275  1  0
136276  1  0
136277  1  0
137278  1  0
137279  1  0
137280  1  0
138281  1  0
139282  1  0
142283  1  0
146284  1  0
150285  1  0
152286  1  0
152287  1  0
153288  1  0
153289  1  0
153290  1  0
155291  1  0
155292  1  0
156293  1  0
156294  1  0
156295  1  0
162296  1  0
164297  1  0
164298  1  0
165299  1  0
165300  1  0
165301  1  0
168302  1  0
168303  1  0
169304  1  0
169305  1  0
169306  1  0
172307  1  0
173308  1  0
M  END

