
     RDKit          3D

 88 94  0  0  0  0  0  0  0  0999 V2000
    5.1510   -7.7584    3.5982 C   0  0  0  0  0  0  0  0  0  0  0  0
    4.5809   -6.6777    4.0823 O   0  0  0  0  0  0  0  0  0  0  0  0
    4.0571   -5.9867    3.0936 C   0  0  0  0  0  0  0  0  0  0  0  0
    4.2965   -6.6398    1.8930 C   0  0  0  0  0  0  0  0  0  0  0  0
    4.9940   -7.7866    2.2269 C   0  0  0  0  0  0  0  0  0  0  0  0
    5.5218   -8.8326    1.2979 C   0  0  0  0  0  0  0  0  0  0  0  0
    3.8871   -6.1949    0.5213 C   0  0  0  0  0  0  0  0  0  0  0  0
    3.3352   -4.7127    3.2721 C   0  0  0  0  0  0  0  0  0  0  0  0
    2.7806   -4.0477    2.2840 O   0  0  0  0  0  0  0  0  0  0  0  0
    2.2302   -2.9536    2.7564 C   0  0  0  0  0  0  0  0  0  0  0  0
    2.4497   -2.8724    4.1250 C   0  0  0  0  0  0  0  0  0  0  0  0
    3.1417   -4.0247    4.4616 C   0  0  0  0  0  0  0  0  0  0  0  0
    3.6577   -4.4028    5.8173 C   0  0  0  0  0  0  0  0  0  0  0  0
    2.1139   -1.7346    5.0436 C   0  0  0  0  0  0  0  0  0  0  0  0
    1.5327   -1.9831    1.8998 C   0  0  0  0  0  0  0  0  0  0  0  0
    2.1409   -1.4159    0.4445 S   0  0  0  0  0  0  0  0  0  0  0  0
    0.8527   -0.4068    0.0311 C   0  0  0  0  0  0  0  0  0  0  0  0
   -0.1075   -0.5298    1.0535 C   0  0  0  0  0  0  0  0  0  0  0  0
    0.2707   -1.4179    2.0814 C   0  0  0  0  0  0  0  0  0  0  0  0
   -0.6066   -1.7084    3.1309 C   0  0  0  0  0  0  0  0  0  0  0  0
   -1.8572   -1.0632    3.1953 C   0  0  0  0  0  0  0  0  0  0  0  0
   -2.7607   -1.3005    4.2435 O   0  0  0  0  0  0  0  0  0  0  0  0
   -2.5113   -2.1720    5.3425 C   0  0  0  0  0  0  0  0  0  0  0  0
   -2.2313   -0.1547    2.1878 C   0  0  0  0  0  0  0  0  0  0  0  0
   -3.4880    0.4643    2.2891 O   0  0  0  0  0  0  0  0  0  0  0  0
   -4.0157    1.3841    1.3391 C   0  0  0  0  0  0  0  0  0  0  0  0
   -1.3568    0.1063    1.1112 C   0  0  0  0  0  0  0  0  0  0  0  0
    0.7789    0.4312   -1.1950 C   0  0  0  0  0  0  0  0  0  0  0  0
   -0.2241    1.2399   -1.4517 O   0  0  0  0  0  0  0  0  0  0  0  0
   -0.0205    1.8509   -2.5932 C   0  0  0  0  0  0  0  0  0  0  0  0
    1.1691    1.4123   -3.1504 C   0  0  0  0  0  0  0  0  0  0  0  0
    1.7016    0.5113   -2.2396 C   0  0  0  0  0  0  0  0  0  0  0  0
    2.9964   -0.2332   -2.3858 C   0  0  0  0  0  0  0  0  0  0  0  0
    1.7348    1.7727   -4.4921 C   0  0  0  0  0  0  0  0  0  0  0  0
   -0.9704    2.8252   -3.1480 C   0  0  0  0  0  0  0  0  0  0  0  0
   -2.2637    2.6062   -3.1928 O   0  0  0  0  0  0  0  0  0  0  0  0
   -2.8595    3.6516   -3.7202 C   0  0  0  0  0  0  0  0  0  0  0  0
   -1.9117    4.6128   -4.0438 C   0  0  0  0  0  0  0  0  0  0  0  0
   -0.6919    4.0896   -3.6467 C   0  0  0  0  0  0  0  0  0  0  0  0
    0.6323    4.7924   -3.6727 C   0  0  0  0  0  0  0  0  0  0  0  0
   -2.1640    5.9773   -4.6112 C   0  0  0  0  0  0  0  0  0  0  0  0
   -4.3197    3.7513   -3.9022 C   0  0  0  0  0  0  0  0  0  0  0  0
   -4.9294    4.8180   -4.3711 O   0  0  0  0  0  0  0  0  0  0  0  0
   -6.2235    4.5947   -4.4051 C   0  0  0  0  0  0  0  0  0  0  0  0
   -6.4830    3.3232   -3.9347 C   0  0  0  0  0  0  0  0  0  0  0  0
   -5.2570    2.7708   -3.6116 C   0  0  0  0  0  0  0  0  0  0  0  0
   -4.9968    1.4010   -3.0611 C   0  0  0  0  0  0  0  0  0  0  0  0
   -7.8279    2.6791   -3.8211 C   0  0  0  0  0  0  0  0  0  0  0  0
    5.6612   -8.5002    4.1981 H   0  0  0  0  0  0  0  0  0  0  0  0
    5.9317   -9.6900    1.8723 H   0  0  0  0  0  0  0  0  0  0  0  0
    4.7044   -9.2021    0.6449 H   0  0  0  0  0  0  0  0  0  0  0  0
    6.3287   -8.4000    0.6702 H   0  0  0  0  0  0  0  0  0  0  0  0
    4.2900   -5.1797    0.3219 H   0  0  0  0  0  0  0  0  0  0  0  0
    4.2766   -6.8841   -0.2557 H   0  0  0  0  0  0  0  0  0  0  0  0
    2.7798   -6.1698    0.4544 H   0  0  0  0  0  0  0  0  0  0  0  0
    3.2410   -3.7380    6.6016 H   0  0  0  0  0  0  0  0  0  0  0  0
    3.3589   -5.4441    6.0567 H   0  0  0  0  0  0  0  0  0  0  0  0
    4.7643   -4.3236    5.8280 H   0  0  0  0  0  0  0  0  0  0  0  0
    3.0116   -1.4525    5.6329 H   0  0  0  0  0  0  0  0  0  0  0  0
    1.3046   -2.0423    5.7384 H   0  0  0  0  0  0  0  0  0  0  0  0
    1.7872   -0.8425    4.4706 H   0  0  0  0  0  0  0  0  0  0  0  0
   -0.3275   -2.4359    3.8778 H   0  0  0  0  0  0  0  0  0  0  0  0
   -3.3835   -2.1498    6.0266 H   0  0  0  0  0  0  0  0  0  0  0  0
   -1.6130   -1.8337    5.9019 H   0  0  0  0  0  0  0  0  0  0  0  0
   -2.3682   -3.2130    4.9818 H   0  0  0  0  0  0  0  0  0  0  0  0
   -3.3572    2.2749    1.2626 H   0  0  0  0  0  0  0  0  0  0  0  0
   -5.0204    1.7145    1.6733 H   0  0  0  0  0  0  0  0  0  0  0  0
   -4.1127    0.8941    0.3479 H   0  0  0  0  0  0  0  0  0  0  0  0
   -1.6626    0.7877    0.3379 H   0  0  0  0  0  0  0  0  0  0  0  0
    3.5334    0.0660   -3.3087 H   0  0  0  0  0  0  0  0  0  0  0  0
    2.7986   -1.3240   -2.4336 H   0  0  0  0  0  0  0  0  0  0  0  0
    3.6586   -0.0061   -1.5252 H   0  0  0  0  0  0  0  0  0  0  0  0
    2.5974    2.4579   -4.3615 H   0  0  0  0  0  0  0  0  0  0  0  0
    0.9675    2.2614   -5.1270 H   0  0  0  0  0  0  0  0  0  0  0  0
    2.0710    0.8564   -5.0200 H   0  0  0  0  0  0  0  0  0  0  0  0
    0.5120    5.8385   -3.3218 H   0  0  0  0  0  0  0  0  0  0  0  0
    1.3588    4.2920   -2.9998 H   0  0  0  0  0  0  0  0  0  0  0  0
    1.0296    4.7996   -4.7087 H   0  0  0  0  0  0  0  0  0  0  0  0
   -1.2181    6.4483   -4.9507 H   0  0  0  0  0  0  0  0  0  0  0  0
   -2.6307    6.6211   -3.8370 H   0  0  0  0  0  0  0  0  0  0  0  0
   -2.8384    5.9034   -5.4892 H   0  0  0  0  0  0  0  0  0  0  0  0
   -6.9570    5.3104   -4.7522 H   0  0  0  0  0  0  0  0  0  0  0  0
   -4.3236    0.8456   -3.7475 H   0  0  0  0  0  0  0  0  0  0  0  0
   -4.5167    1.4873   -2.0647 H   0  0  0  0  0  0  0  0  0  0  0  0
   -5.9395    0.8277   -2.9499 H   0  0  0  0  0  0  0  0  0  0  0  0
   -8.6277    3.3970   -4.1017 H   0  0  0  0  0  0  0  0  0  0  0  0
   -7.8788    1.8007   -4.4982 H   0  0  0  0  0  0  0  0  0  0  0  0
   -7.9965    2.3493   -2.7745 H   0  0  0  0  0  0  0  0  0  0  0  0
  1  2  1  0
  2  3  1  0
  3  4  2  0
  4  5  1  0
  5  6  1  0
  4  7  1  0
  3  8  1  0
  8  9  1  0
  9 10  1  0
 10 11  2  0
 11 12  1  0
 12 13  1  0
 11 14  1  0
 10 15  1  0
 15 16  1  0
 16 17  1  0
 17 18  2  0
 18 19  1  0
 19 20  1  0
 20 21  2  0
 21 22  1  0
 22 23  1  0
 21 24  1  0
 24 25  1  0
 25 26  1  0
 24 27  2  0
 17 28  1  0
 28 29  1  0
 29 30  1  0
 30 31  2  0
 31 32  1  0
 32 33  1  0
 31 34  1  0
 30 35  1  0
 35 36  1  0
 36 37  1  0
 37 38  2  0
 38 39  1  0
 39 40  1  0
 38 41  1  0
 37 42  1  0
 42 43  1  0
 43 44  1  0
 44 45  2  0
 45 46  1  0
 46 47  1  0
 45 48  1  0
  5  1  2  0
 12  8  2  0
 19 15  2  0
 32 28  2  0
 39 35  2  0
 46 42  2  0
 27 18  1  0
  1 49  1  0
  6 50  1  0
  6 51  1  0
  6 52  1  0
  7 53  1  0
  7 54  1  0
  7 55  1  0
 13 56  1  0
 13 57  1  0
 13 58  1  0
 14 59  1  0
 14 60  1  0
 14 61  1  0
 20 62  1  0
 23 63  1  0
 23 64  1  0
 23 65  1  0
 26 66  1  0
 26 67  1  0
 26 68  1  0
 27 69  1  0
 33 70  1  0
 33 71  1  0
 33 72  1  0
 34 73  1  0
 34 74  1  0
 34 75  1  0
 40 76  1  0
 40 77  1  0
 40 78  1  0
 41 79  1  0
 41 80  1  0
 41 81  1  0
 44 82  1  0
 47 83  1  0
 47 84  1  0
 47 85  1  0
 48 86  1  0
 48 87  1  0
 48 88  1  0
M  END

