
     RDKit          3D

120131  0  0  0  0  0  0  0  0999 V2000
   10.6141   -2.3882   -0.1174 C   0  0  0  0  0  0  0  0  0  0  0  0
    9.1660   -3.2453   -0.1346 S   0  0  0  0  0  0  0  0  0  0  0  0
    8.1497   -1.9098    0.0067 C   0  0  0  0  0  0  0  0  0  0  0  0
    8.9362   -0.7559    0.0596 C   0  0  0  0  0  0  0  0  0  0  0  0
   10.3149   -1.0311   -0.0433 C   0  0  0  0  0  0  0  0  0  0  0  0
   11.3579    0.0489   -0.0655 C   0  0  0  0  0  0  0  0  0  0  0  0
   10.7588    1.3848   -0.5321 C   0  0  0  0  0  0  0  0  0  0  0  0
    9.4730    1.7062    0.2496 C   0  0  1  0  0  0  0  0  0  0  0  0
    8.9743    3.0332   -0.1131 N   0  0  0  0  0  4  0  0  0  0  0  0
    8.8040    3.3702   -1.4375 O   0  0  0  0  0  1  0  0  0  0  0  0
    8.4862    3.7746    0.7642 O   0  0  0  0  0  0  0  0  0  0  0  0
    8.3858    0.6452   -0.0175 C   0  0  0  0  0  0  0  0  0  0  0  0
    6.6881   -1.9486   -0.1350 C   0  0  0  0  0  0  0  0  0  0  0  0
    5.5912   -1.3567    0.9940 S   0  0  0  0  0  0  0  0  0  0  0  0
    4.1996   -1.5903    0.0642 C   0  0  0  0  0  0  0  0  0  0  0  0
    4.5917   -2.1371   -1.1648 C   0  0  0  0  0  0  0  0  0  0  0  0
    5.9779   -2.3325   -1.2717 C   0  0  0  0  0  0  0  0  0  0  0  0
    6.5410   -2.7944   -2.4634 C   0  0  0  0  0  0  0  0  0  0  0  0
    5.7088   -3.0877   -3.5623 C   0  0  0  0  0  0  0  0  0  0  0  0
    6.2290   -3.5538   -4.7817 O   0  0  0  0  0  0  0  0  0  0  0  0
    7.6161   -3.7334   -5.0503 C   0  0  0  0  0  0  0  0  0  0  0  0
    4.3171   -2.8999   -3.4584 C   0  0  0  0  0  0  0  0  0  0  0  0
    3.5229   -3.2038   -4.5755 O   0  0  0  0  0  0  0  0  0  0  0  0
    2.1097   -3.0540   -4.6277 C   0  0  0  0  0  0  0  0  0  0  0  0
    3.7582   -2.4116   -2.2578 C   0  0  0  0  0  0  0  0  0  0  0  0
    2.8309   -1.2084    0.4734 C   0  0  0  0  0  0  0  0  0  0  0  0
    1.4679   -2.1614    0.2510 S   0  0  0  0  0  0  0  0  0  0  0  0
    0.3054   -1.0586    0.7747 C   0  0  0  0  0  0  0  0  0  0  0  0
    1.0035    0.0924    1.1985 C   0  0  0  0  0  0  0  0  0  0  0  0
    2.4036    0.0052    1.0243 C   0  0  0  0  0  0  0  0  0  0  0  0
    3.2286    1.0927    1.3386 C   0  0  0  0  0  0  0  0  0  0  0  0
    2.6692    2.2608    1.8880 C   0  0  0  0  0  0  0  0  0  0  0  0
    3.4607    3.3629    2.2497 O   0  0  0  0  0  0  0  0  0  0  0  0
    4.8751    3.4274    2.0940 C   0  0  0  0  0  0  0  0  0  0  0  0
    1.2810    2.3427    2.0920 C   0  0  0  0  0  0  0  0  0  0  0  0
    0.7644    3.5081    2.6809 O   0  0  0  0  0  0  0  0  0  0  0  0
   -0.5856    3.6693    3.1119 C   0  0  0  0  0  0  0  0  0  0  0  0
    0.4458    1.2712    1.7126 C   0  0  0  0  0  0  0  0  0  0  0  0
   -1.1619   -1.3137    0.7448 C   0  0  0  0  0  0  0  0  0  0  0  0
   -2.3096   -0.5917    1.7453 S   0  0  0  0  0  0  0  0  0  0  0  0
   -3.6736   -1.3993    1.1914 C   0  0  0  0  0  0  0  0  0  0  0  0
   -3.2367   -2.2824    0.1986 C   0  0  0  0  0  0  0  0  0  0  0  0
   -1.8641   -2.2058   -0.0829 C   0  0  0  0  0  0  0  0  0  0  0  0
   -1.3023   -3.0188   -1.2198 C   0  0  0  0  0  0  0  0  0  0  0  0
   -2.2982   -3.1196   -2.4006 C   0  0  0  0  0  0  0  0  0  0  0  0
   -3.8046   -3.2668   -2.0112 C   0  0  1  0  0  0  0  0  0  0  0  0
   -4.3958   -4.4368   -2.6628 N   0  0  0  0  0  4  0  0  0  0  0  0
   -5.5452   -4.2967   -3.4039 O   0  0  0  0  0  1  0  0  0  0  0  0
   -3.9461   -5.5805   -2.4405 O   0  0  0  0  0  0  0  0  0  0  0  0
   -4.0590   -3.3281   -0.4945 C   0  0  0  0  0  0  0  0  0  0  0  0
   -5.0687   -0.9710    1.4464 C   0  0  0  0  0  0  0  0  0  0  0  0
   -6.2124   -0.8012    0.2362 S   0  0  0  0  0  0  0  0  0  0  0  0
   -7.4574   -0.1374    1.1428 C   0  0  0  0  0  0  0  0  0  0  0  0
   -6.9848   -0.0419    2.4690 C   0  0  0  0  0  0  0  0  0  0  0  0
   -5.6311   -0.4548    2.6213 C   0  0  0  0  0  0  0  0  0  0  0  0
   -4.9343   -0.4371    3.9600 C   0  0  0  0  0  0  0  0  0  0  0  0
   -5.5832    0.5677    4.9137 C   0  0  0  0  0  0  0  0  0  0  0  0
   -7.0979    0.3339    4.9835 C   0  0  1  0  0  0  0  0  0  0  0  0
   -7.7101    1.1915    5.9996 N   0  0  0  0  0  4  0  0  0  0  0  0
   -8.6842    0.6807    6.8225 O   0  0  0  0  0  1  0  0  0  0  0  0
   -7.4684    2.4173    6.0278 O   0  0  0  0  0  0  0  0  0  0  0  0
   -7.7616    0.5724    3.6149 C   0  0  0  0  0  0  0  0  0  0  0  0
   -8.7871    0.2585    0.5915 C   0  0  0  0  0  0  0  0  0  0  0  0
  -10.2152    0.3538    1.4860 S   0  0  0  0  0  0  0  0  0  0  0  0
  -11.2275    0.8765    0.2641 C   0  0  0  0  0  0  0  0  0  0  0  0
  -10.4658    0.9922   -0.8892 C   0  0  0  0  0  0  0  0  0  0  0  0
   -9.1122    0.6172   -0.7346 C   0  0  0  0  0  0  0  0  0  0  0  0
   -8.1262    0.7563   -1.8754 C   0  0  0  0  0  0  0  0  0  0  0  0
   -8.8122    0.9255   -3.2419 C   0  0  0  0  0  0  0  0  0  0  0  0
   -9.9786    1.9228   -3.1679 C   0  0  1  0  0  0  0  0  0  0  0  0
  -10.5430    2.1444   -4.5000 N   0  0  0  0  0  4  0  0  0  0  0  0
  -10.6297    3.4264   -4.9954 O   0  0  0  0  0  1  0  0  0  0  0  0
  -11.0754    1.2081   -5.1285 O   0  0  0  0  0  0  0  0  0  0  0  0
  -11.0607    1.4057   -2.2060 C   0  0  0  0  0  0  0  0  0  0  0  0
   11.6040   -2.8167   -0.1895 H   0  0  0  0  0  0  0  0  0  0  0  0
   12.1822   -0.2399   -0.7518 H   0  0  0  0  0  0  0  0  0  0  0  0
   11.7800    0.1676    0.9550 H   0  0  0  0  0  0  0  0  0  0  0  0
   10.5379    1.3264   -1.6210 H   0  0  0  0  0  0  0  0  0  0  0  0
   11.5070    2.1929   -0.3765 H   0  0  0  0  0  0  0  0  0  0  0  0
    9.7196    1.6972    1.3355 H   0  0  0  0  0  0  0  0  0  0  0  0
    7.5661    0.7760    0.7221 H   0  0  0  0  0  0  0  0  0  0  0  0
    7.9550    0.7932   -1.0344 H   0  0  0  0  0  0  0  0  0  0  0  0
    7.6140   -2.9112   -2.5429 H   0  0  0  0  0  0  0  0  0  0  0  0
    7.7412   -4.0932   -6.0916 H   0  0  0  0  0  0  0  0  0  0  0  0
    8.1527   -2.7672   -4.9409 H   0  0  0  0  0  0  0  0  0  0  0  0
    8.0468   -4.4892   -4.3581 H   0  0  0  0  0  0  0  0  0  0  0  0
    1.8353   -1.9853   -4.5003 H   0  0  0  0  0  0  0  0  0  0  0  0
    1.7434   -3.4060   -5.6143 H   0  0  0  0  0  0  0  0  0  0  0  0
    1.6309   -3.6706   -3.8341 H   0  0  0  0  0  0  0  0  0  0  0  0
    2.6985   -2.2207   -2.1920 H   0  0  0  0  0  0  0  0  0  0  0  0
    4.2890    1.0396    1.1556 H   0  0  0  0  0  0  0  0  0  0  0  0
    5.2373    4.4065    2.4676 H   0  0  0  0  0  0  0  0  0  0  0  0
    5.1463    3.3338    1.0207 H   0  0  0  0  0  0  0  0  0  0  0  0
    5.3639    2.6192    2.6816 H   0  0  0  0  0  0  0  0  0  0  0  0
   -1.2704    3.6395    2.2399 H   0  0  0  0  0  0  0  0  0  0  0  0
   -0.8494    2.8710    3.8361 H   0  0  0  0  0  0  0  0  0  0  0  0
   -0.6913    4.6531    3.6160 H   0  0  0  0  0  0  0  0  0  0  0  0
   -0.6156    1.3802    1.8144 H   0  0  0  0  0  0  0  0  0  0  0  0
   -1.0592   -4.0370   -0.8485 H   0  0  0  0  0  0  0  0  0  0  0  0
   -0.3814   -2.5519   -1.6210 H   0  0  0  0  0  0  0  0  0  0  0  0
   -2.1893   -2.1985   -3.0149 H   0  0  0  0  0  0  0  0  0  0  0  0
   -1.9745   -3.9595   -3.0583 H   0  0  0  0  0  0  0  0  0  0  0  0
   -4.3295   -2.3585   -2.3882 H   0  0  0  0  0  0  0  0  0  0  0  0
   -5.1402   -3.2300   -0.2838 H   0  0  0  0  0  0  0  0  0  0  0  0
   -3.7467   -4.3205   -0.1042 H   0  0  0  0  0  0  0  0  0  0  0  0
   -3.8730   -0.1534    3.8575 H   0  0  0  0  0  0  0  0  0  0  0  0
   -4.9808   -1.4557    4.4007 H   0  0  0  0  0  0  0  0  0  0  0  0
   -5.3761    1.6038    4.5676 H   0  0  0  0  0  0  0  0  0  0  0  0
   -5.1402    0.4450    5.9257 H   0  0  0  0  0  0  0  0  0  0  0  0
   -7.2684   -0.7287    5.2734 H   0  0  0  0  0  0  0  0  0  0  0  0
   -7.8667    1.6613    3.4240 H   0  0  0  0  0  0  0  0  0  0  0  0
   -8.7686    0.1158    3.6744 H   0  0  0  0  0  0  0  0  0  0  0  0
  -12.2839    1.0884    0.3578 H   0  0  0  0  0  0  0  0  0  0  0  0
   -7.4824    1.6397   -1.6769 H   0  0  0  0  0  0  0  0  0  0  0  0
   -7.4873   -0.1401   -1.9561 H   0  0  0  0  0  0  0  0  0  0  0  0
   -8.0629    1.2851   -3.9833 H   0  0  0  0  0  0  0  0  0  0  0  0
   -9.1860   -0.0664   -3.5909 H   0  0  0  0  0  0  0  0  0  0  0  0
   -9.5894    2.8918   -2.7758 H   0  0  0  0  0  0  0  0  0  0  0  0
  -11.5788    0.5274   -2.6472 H   0  0  0  0  0  0  0  0  0  0  0  0
  -11.8117    2.2089   -2.0408 H   0  0  0  0  0  0  0  0  0  0  0  0
  1  2  1  0
  2  3  1  0
  3  4  2  0
  4  5  1  0
  5  6  1  0
  6  7  1  0
  7  8  1  0
  8  9  1  0
  9 10  1  0
  9 11  2  0
  8 12  1  0
  3 13  1  0
 13 14  1  0
 14 15  1  0
 15 16  2  0
 16 17  1  0
 17 18  1  0
 18 19  2  0
 19 20  1  0
 20 21  1  0
 19 22  1  0
 22 23  1  0
 23 24  1  0
 22 25  2  0
 15 26  1  0
 26 27  1  0
 27 28  1  0
 28 29  2  0
 29 30  1  0
 30 31  1  0
 31 32  2  0
 32 33  1  0
 33 34  1  0
 32 35  1  0
 35 36  1  0
 36 37  1  0
 35 38  2  0
 28 39  1  0
 39 40  1  0
 40 41  1  0
 41 42  2  0
 42 43  1  0
 43 44  1  0
 44 45  1  0
 45 46  1  0
 46 47  1  0
 47 48  1  0
 47 49  2  0
 46 50  1  0
 41 51  1  0
 51 52  1  0
 52 53  1  0
 53 54  2  0
 54 55  1  0
 55 56  1  0
 56 57  1  0
 57 58  1  0
 58 59  1  0
 59 60  1  0
 59 61  2  0
 58 62  1  0
 53 63  1  0
 63 64  1  0
 64 65  1  0
 65 66  2  0
 66 67  1  0
 67 68  1  0
 68 69  1  0
 69 70  1  0
 70 71  1  0
 71 72  1  0
 71 73  2  0
 70 74  1  0
  5  1  2  0
 17 13  2  0
 30 26  2  0
 43 39  2  0
 55 51  2  0
 67 63  2  0
 12  4  1  0
 25 16  1  0
 38 29  1  0
 50 42  1  0
 62 54  1  0
 74 66  1  0
  1 75  1  0
  6 76  1  0
  6 77  1  0
  7 78  1  0
  7 79  1  0
  8 80  1  1
 12 81  1  0
 12 82  1  0
 18 83  1  0
 21 84  1  0
 21 85  1  0
 21 86  1  0
 24 87  1  0
 24 88  1  0
 24 89  1  0
 25 90  1  0
 31 91  1  0
 34 92  1  0
 34 93  1  0
 34 94  1  0
 37 95  1  0
 37 96  1  0
 37 97  1  0
 38 98  1  0
 44 99  1  0
 44100  1  0
 45101  1  0
 45102  1  0
 46103  1  6
 50104  1  0
 50105  1  0
 56106  1  0
 56107  1  0
 57108  1  0
 57109  1  0
 58110  1  1
 62111  1  0
 62112  1  0
 65113  1  0
 68114  1  0
 68115  1  0
 69116  1  0
 69117  1  0
 70118  1  1
 74119  1  0
 74120  1  0
M  CHG  8   9   1  10  -1  47   1  48  -1  59   1  60  -1  71   1  72  -1
M  END

