
     RDKit          3D

172187  0  0  0  0  0  0  0  0999 V2000
    0.8973    1.9306    5.1159 C   0  0  0  0  0  0  0  0  0  0  0  0
   -0.6648    1.5871    5.6492 S   0  0  0  0  0  0  0  0  0  0  0  0
    1.4429    2.9307    5.9184 C   0  0  0  0  0  0  0  0  0  0  0  0
    0.5726    3.3745    6.9338 C   0  0  0  0  0  0  0  0  0  0  0  0
    0.8321    4.3727    7.9177 C   0  0  0  0  0  0  0  0  0  0  0  0
    2.1344    5.1577    7.8362 C   0  0  0  0  0  0  0  0  0  0  0  0
    2.0960    6.1886    6.7085 C   0  0  0  0  0  0  0  0  0  0  0  0
   -0.1774    4.6235    8.9194 C   0  0  0  0  0  0  0  0  0  0  0  0
    0.0238    5.6192   10.0516 C   0  0  0  0  0  0  0  0  0  0  0  0
   -0.5057    7.0014    9.6760 C   0  0  0  0  0  0  0  0  0  0  0  0
   -0.6429    2.7074    6.8998 C   0  0  0  0  0  0  0  0  0  0  0  0
   -1.6285    2.9917    7.8186 C   0  0  0  0  0  0  0  0  0  0  0  0
   -3.1713    2.3437    7.9343 S   0  0  0  0  0  0  0  0  0  0  0  0
   -1.4148    3.9214    8.8251 C   0  0  0  0  0  0  0  0  0  0  0  0
   -2.5382    4.0528    9.6665 C   0  0  0  0  0  0  0  0  0  0  0  0
   -3.6045    3.2220    9.3138 C   0  0  0  0  0  0  0  0  0  0  0  0
   -4.8907    3.2085   10.0494 C   0  0  0  0  0  0  0  0  0  0  0  0
   -5.9816    2.4708    9.7895 C   0  0  0  0  0  0  0  0  0  0  0  0
   -6.1162    1.4443    8.7471 C   0  0  0  0  0  0  0  0  0  0  0  0
   -5.3077   -0.0407    8.7110 S   0  0  0  0  0  0  0  0  0  0  0  0
   -7.1241    1.4486    7.7837 C   0  0  0  0  0  0  0  0  0  0  0  0
   -7.1563    0.2744    7.0088 C   0  0  0  0  0  0  0  0  0  0  0  0
   -8.0294   -0.0154    5.9221 C   0  0  0  0  0  0  0  0  0  0  0  0
   -8.9925    1.0616    5.4413 C   0  0  0  0  0  0  0  0  0  0  0  0
   -8.2609    2.1508    4.6558 C   0  0  0  0  0  0  0  0  0  0  0  0
   -7.9074   -1.2919    5.2667 C   0  0  0  0  0  0  0  0  0  0  0  0
   -8.8754   -1.7502    4.1862 C   0  0  0  0  0  0  0  0  0  0  0  0
   -8.4309   -1.3086    2.7958 C   0  0  0  0  0  0  0  0  0  0  0  0
   -6.1921   -0.6412    7.4129 C   0  0  0  0  0  0  0  0  0  0  0  0
   -6.0303   -1.8345    6.7377 C   0  0  0  0  0  0  0  0  0  0  0  0
   -4.8274   -2.9913    6.9293 S   0  0  0  0  0  0  0  0  0  0  0  0
   -6.8481   -2.1564    5.6623 C   0  0  0  0  0  0  0  0  0  0  0  0
   -6.4480   -3.3487    5.0302 C   0  0  0  0  0  0  0  0  0  0  0  0
   -5.3293   -3.9369    5.6182 C   0  0  0  0  0  0  0  0  0  0  0  0
   -4.5431   -5.0043    4.9794 C   0  0  0  0  0  0  0  0  0  0  0  0
   -3.4903   -5.5811    5.5694 C   0  0  0  0  0  0  0  0  0  0  0  0
   -2.4788   -6.3058    4.7832 C   0  0  0  0  0  0  0  0  0  0  0  0
   -2.1692   -6.0172    3.1489 S   0  0  0  0  0  0  0  0  0  0  0  0
   -1.4348   -7.0623    5.3218 C   0  0  0  0  0  0  0  0  0  0  0  0
   -0.4273   -7.3673    4.3807 C   0  0  0  0  0  0  0  0  0  0  0  0
    0.8150   -8.0250    4.6194 C   0  0  0  0  0  0  0  0  0  0  0  0
    1.0969   -8.6336    5.9820 C   0  0  0  0  0  0  0  0  0  0  0  0
    0.5244  -10.0443    6.0721 C   0  0  0  0  0  0  0  0  0  0  0  0
    1.7677   -8.1071    3.5419 C   0  0  0  0  0  0  0  0  0  0  0  0
    3.1130   -8.7866    3.7103 C   0  0  0  0  0  0  0  0  0  0  0  0
    4.1697   -7.7996    4.2062 C   0  0  0  0  0  0  0  0  0  0  0  0
   -0.7161   -6.8474    3.1249 C   0  0  0  0  0  0  0  0  0  0  0  0
    0.2129   -6.8897    2.1104 C   0  0  0  0  0  0  0  0  0  0  0  0
    0.1549   -6.1001    0.6355 S   0  0  0  0  0  0  0  0  0  0  0  0
    1.4580   -7.4665    2.3097 C   0  0  0  0  0  0  0  0  0  0  0  0
    2.3283   -7.2327    1.2258 C   0  0  0  0  0  0  0  0  0  0  0  0
    1.7463   -6.4757    0.2074 C   0  0  0  0  0  0  0  0  0  0  0  0
    2.4950   -5.8140   -0.8739 C   0  0  0  0  0  0  0  0  0  0  0  0
    1.8706   -5.1512   -1.8522 C   0  0  0  0  0  0  0  0  0  0  0  0
    2.5644   -4.1774   -2.7051 C   0  0  0  0  0  0  0  0  0  0  0  0
    2.2331   -3.9714   -4.3440 S   0  0  0  0  0  0  0  0  0  0  0  0
    3.1103   -2.5508   -4.5535 C   0  0  0  0  0  0  0  0  0  0  0  0
    3.6455   -2.1889   -3.3192 C   0  0  0  0  0  0  0  0  0  0  0  0
    3.3361   -3.0857   -2.2839 C   0  0  0  0  0  0  0  0  0  0  0  0
    3.7090   -2.7913   -0.9671 C   0  0  0  0  0  0  0  0  0  0  0  0
    4.4417   -1.6180   -0.6927 C   0  0  0  0  0  0  0  0  0  0  0  0
    4.8289   -1.2742    0.6131 O   0  0  0  0  0  0  0  0  0  0  0  0
    4.4497   -1.9895    1.7837 C   0  0  0  0  0  0  0  0  0  0  0  0
    4.7961   -0.7473   -1.7417 C   0  0  0  0  0  0  0  0  0  0  0  0
    5.5470    0.3967   -1.4310 O   0  0  0  0  0  0  0  0  0  0  0  0
    5.9407    1.3869   -2.3782 C   0  0  0  0  0  0  0  0  0  0  0  0
    4.3859   -1.0310   -3.0623 C   0  0  0  0  0  0  0  0  0  0  0  0
    3.0352   -1.7038   -5.7488 C   0  0  0  0  0  0  0  0  0  0  0  0
    2.3159   -0.1853   -5.7904 S   0  0  0  0  0  0  0  0  0  0  0  0
    2.5446    0.1112   -7.4331 C   0  0  0  0  0  0  0  0  0  0  0  0
    3.2274   -0.9903   -7.9718 C   0  0  0  0  0  0  0  0  0  0  0  0
    3.4782   -2.0084   -7.0331 C   0  0  0  0  0  0  0  0  0  0  0  0
    4.1500   -3.1760   -7.4019 C   0  0  0  0  0  0  0  0  0  0  0  0
    4.6073   -3.3233   -8.7262 C   0  0  0  0  0  0  0  0  0  0  0  0
    5.2882   -4.4754   -9.1518 O   0  0  0  0  0  0  0  0  0  0  0  0
    5.5675   -5.6007   -8.3226 C   0  0  0  0  0  0  0  0  0  0  0  0
    4.3963   -2.2897   -9.6622 C   0  0  0  0  0  0  0  0  0  0  0  0
    4.8918   -2.4679  -10.9634 O   0  0  0  0  0  0  0  0  0  0  0  0
    4.7765   -1.5093  -12.0101 C   0  0  0  0  0  0  0  0  0  0  0  0
    3.7104   -1.1151   -9.2792 C   0  0  0  0  0  0  0  0  0  0  0  0
    2.0036    1.2972   -8.1202 C   0  0  0  0  0  0  0  0  0  0  0  0
    1.6993    2.7755   -7.3593 S   0  0  0  0  0  0  0  0  0  0  0  0
    1.4996    1.3413   -9.4227 C   0  0  0  0  0  0  0  0  0  0  0  0
    0.9206    2.5824   -9.7528 C   0  0  0  0  0  0  0  0  0  0  0  0
    0.3238    2.9530  -10.9905 C   0  0  0  0  0  0  0  0  0  0  0  0
    0.3237    1.9681  -12.1484 C   0  0  0  0  0  0  0  0  0  0  0  0
    1.6385    2.0485  -12.9223 C   0  0  0  0  0  0  0  0  0  0  0  0
   -0.1962    4.2879  -11.1323 C   0  0  0  0  0  0  0  0  0  0  0  0
   -0.8148    4.7730  -12.4326 C   0  0  0  0  0  0  0  0  0  0  0  0
   -2.3231    4.5274  -12.4426 C   0  0  0  0  0  0  0  0  0  0  0  0
    0.9639    3.4781   -8.6930 C   0  0  0  0  0  0  0  0  0  0  0  0
    0.4294    4.7450   -8.8162 C   0  0  0  0  0  0  0  0  0  0  0  0
    0.3731    5.9732   -7.6746 S   0  0  0  0  0  0  0  0  0  0  0  0
   -0.1537    5.1575  -10.0065 C   0  0  0  0  0  0  0  0  0  0  0  0
   -0.6425    6.4759   -9.9297 C   0  0  0  0  0  0  0  0  0  0  0  0
   -0.4148    7.0730   -8.6906 C   0  0  0  0  0  0  0  0  0  0  0  0
   -0.8039    8.4540   -8.3533 C   0  0  0  0  0  0  0  0  0  0  0  0
   -0.5231    9.0169   -7.1809 C   0  0  0  0  0  0  0  0  0  0  0  0
    1.4009    1.4481    4.2888 H   0  0  0  0  0  0  0  0  0  0  0  0
    2.4442    3.3063    5.7592 H   0  0  0  0  0  0  0  0  0  0  0  0
    2.3977    5.6851    8.7675 H   0  0  0  0  0  0  0  0  0  0  0  0
    2.9801    4.4556    7.6653 H   0  0  0  0  0  0  0  0  0  0  0  0
    3.0907    6.6732    6.6164 H   0  0  0  0  0  0  0  0  0  0  0  0
    1.3407    6.9688    6.9257 H   0  0  0  0  0  0  0  0  0  0  0  0
    1.8470    5.7158    5.7371 H   0  0  0  0  0  0  0  0  0  0  0  0
    1.0773    5.6879   10.3768 H   0  0  0  0  0  0  0  0  0  0  0  0
   -0.4965    5.2748   10.9693 H   0  0  0  0  0  0  0  0  0  0  0  0
   -0.3182    7.7123   10.5086 H   0  0  0  0  0  0  0  0  0  0  0  0
   -1.5982    6.9557    9.4938 H   0  0  0  0  0  0  0  0  0  0  0  0
   -0.0050    7.3813    8.7658 H   0  0  0  0  0  0  0  0  0  0  0  0
   -2.5992    4.7364   10.5025 H   0  0  0  0  0  0  0  0  0  0  0  0
   -4.9749    3.9184   10.8630 H   0  0  0  0  0  0  0  0  0  0  0  0
   -6.8723    2.6818   10.3688 H   0  0  0  0  0  0  0  0  0  0  0  0
   -7.8075    2.2796    7.6687 H   0  0  0  0  0  0  0  0  0  0  0  0
   -9.5134    1.5174    6.3100 H   0  0  0  0  0  0  0  0  0  0  0  0
   -9.7976    0.6663    4.7997 H   0  0  0  0  0  0  0  0  0  0  0  0
   -7.6724    1.7101    3.8250 H   0  0  0  0  0  0  0  0  0  0  0  0
   -7.5696    2.7187    5.3134 H   0  0  0  0  0  0  0  0  0  0  0  0
   -8.9987    2.8642    4.2293 H   0  0  0  0  0  0  0  0  0  0  0  0
   -8.9673   -2.8576    4.1941 H   0  0  0  0  0  0  0  0  0  0  0  0
   -9.9093   -1.4071    4.3881 H   0  0  0  0  0  0  0  0  0  0  0  0
   -8.3856   -0.2046    2.7303 H   0  0  0  0  0  0  0  0  0  0  0  0
   -9.1574   -1.6764    2.0407 H   0  0  0  0  0  0  0  0  0  0  0  0
   -7.4317   -1.7311    2.5580 H   0  0  0  0  0  0  0  0  0  0  0  0
   -6.8904   -3.7372    4.1214 H   0  0  0  0  0  0  0  0  0  0  0  0
   -4.7681   -5.2331    3.9442 H   0  0  0  0  0  0  0  0  0  0  0  0
   -3.2975   -5.4175    6.6224 H   0  0  0  0  0  0  0  0  0  0  0  0
   -1.3929   -7.3155    6.3726 H   0  0  0  0  0  0  0  0  0  0  0  0
    0.6706   -8.0078    6.7920 H   0  0  0  0  0  0  0  0  0  0  0  0
    2.1815   -8.6636    6.2060 H   0  0  0  0  0  0  0  0  0  0  0  0
   -0.5794  -10.0223    5.9593 H   0  0  0  0  0  0  0  0  0  0  0  0
    0.9613  -10.6885    5.2809 H   0  0  0  0  0  0  0  0  0  0  0  0
    0.7728  -10.4862    7.0598 H   0  0  0  0  0  0  0  0  0  0  0  0
    3.0463   -9.6477    4.4042 H   0  0  0  0  0  0  0  0  0  0  0  0
    3.4482   -9.2296    2.7502 H   0  0  0  0  0  0  0  0  0  0  0  0
    3.8686   -7.3596    5.1786 H   0  0  0  0  0  0  0  0  0  0  0  0
    5.1379   -8.3267    4.3391 H   0  0  0  0  0  0  0  0  0  0  0  0
    4.3111   -6.9791    3.4709 H   0  0  0  0  0  0  0  0  0  0  0  0
    3.3707   -7.5204    1.2074 H   0  0  0  0  0  0  0  0  0  0  0  0
    3.5734   -5.7674   -0.7931 H   0  0  0  0  0  0  0  0  0  0  0  0
    0.8026   -5.2644   -1.9950 H   0  0  0  0  0  0  0  0  0  0  0  0
    3.4171   -3.4429   -0.1617 H   0  0  0  0  0  0  0  0  0  0  0  0
    3.3424   -2.0115    1.8761 H   0  0  0  0  0  0  0  0  0  0  0  0
    4.8669   -1.4763    2.6748 H   0  0  0  0  0  0  0  0  0  0  0  0
    4.8498   -3.0232    1.7479 H   0  0  0  0  0  0  0  0  0  0  0  0
    6.5306    2.1708   -1.8606 H   0  0  0  0  0  0  0  0  0  0  0  0
    6.5746    0.9285   -3.1652 H   0  0  0  0  0  0  0  0  0  0  0  0
    5.0430    1.8570   -2.8333 H   0  0  0  0  0  0  0  0  0  0  0  0
    4.6342   -0.3619   -3.8753 H   0  0  0  0  0  0  0  0  0  0  0  0
    4.3290   -3.9444   -6.6633 H   0  0  0  0  0  0  0  0  0  0  0  0
    6.1115   -6.3633   -8.9184 H   0  0  0  0  0  0  0  0  0  0  0  0
    4.6201   -6.0472   -7.9548 H   0  0  0  0  0  0  0  0  0  0  0  0
    6.2062   -5.2959   -7.4664 H   0  0  0  0  0  0  0  0  0  0  0  0
    3.7063   -1.2995  -12.2211 H   0  0  0  0  0  0  0  0  0  0  0  0
    5.2455   -1.9188  -12.9275 H   0  0  0  0  0  0  0  0  0  0  0  0
    5.3038   -0.5718  -11.7301 H   0  0  0  0  0  0  0  0  0  0  0  0
    3.5984   -0.3030   -9.9779 H   0  0  0  0  0  0  0  0  0  0  0  0
    1.5077    0.4878  -10.0828 H   0  0  0  0  0  0  0  0  0  0  0  0
    0.1676    0.9309  -11.7866 H   0  0  0  0  0  0  0  0  0  0  0  0
   -0.5252    2.1421  -12.8382 H   0  0  0  0  0  0  0  0  0  0  0  0
    2.4940    1.7965  -12.2602 H   0  0  0  0  0  0  0  0  0  0  0  0
    1.7870    3.0740  -13.3257 H   0  0  0  0  0  0  0  0  0  0  0  0
    1.6199    1.3300  -13.7672 H   0  0  0  0  0  0  0  0  0  0  0  0
   -0.3560    4.2853  -13.3139 H   0  0  0  0  0  0  0  0  0  0  0  0
   -0.6167    5.8522  -12.5862 H   0  0  0  0  0  0  0  0  0  0  0  0
   -2.7473    4.8568  -13.4130 H   0  0  0  0  0  0  0  0  0  0  0  0
   -2.5451    3.4508  -12.3032 H   0  0  0  0  0  0  0  0  0  0  0  0
   -2.8132    5.1059  -11.6292 H   0  0  0  0  0  0  0  0  0  0  0  0
   -1.1463    6.9936  -10.7359 H   0  0  0  0  0  0  0  0  0  0  0  0
   -1.3306    9.0394   -9.0962 H   0  0  0  0  0  0  0  0  0  0  0  0
   -0.8285   10.0378   -6.9862 H   0  0  0  0  0  0  0  0  0  0  0  0
    0.0093    8.4828   -6.4046 H   0  0  0  0  0  0  0  0  0  0  0  0
  1  2  1  0
  1  3  2  0
  3  4  1  0
  4  5  1  0
  5  6  1  0
  6  7  1  0
  5  8  2  0
  8  9  1  0
  9 10  1  0
  4 11  2  0
 11 12  1  0
 12 13  1  0
 12 14  2  0
 14 15  1  0
 15 16  2  0
 16 17  1  0
 17 18  2  3
 18 19  1  0
 19 20  1  0
 19 21  2  0
 21 22  1  0
 22 23  1  0
 23 24  1  0
 24 25  1  0
 23 26  2  0
 26 27  1  0
 27 28  1  0
 22 29  2  0
 29 30  1  0
 30 31  1  0
 30 32  2  0
 32 33  1  0
 33 34  2  0
 34 35  1  0
 35 36  2  3
 36 37  1  0
 37 38  1  0
 37 39  2  0
 39 40  1  0
 40 41  1  0
 41 42  1  0
 42 43  1  0
 41 44  2  0
 44 45  1  0
 45 46  1  0
 40 47  2  0
 47 48  1  0
 48 49  1  0
 48 50  2  0
 50 51  1  0
 51 52  2  0
 52 53  1  0
 53 54  2  3
 54 55  1  0
 55 56  1  0
 56 57  1  0
 57 58  2  0
 58 59  1  0
 59 60  1  0
 60 61  2  0
 61 62  1  0
 62 63  1  0
 61 64  1  0
 64 65  1  0
 65 66  1  0
 64 67  2  0
 57 68  1  0
 68 69  1  0
 69 70  1  0
 70 71  2  0
 71 72  1  0
 72 73  1  0
 73 74  2  0
 74 75  1  0
 75 76  1  0
 74 77  1  0
 77 78  1  0
 78 79  1  0
 77 80  2  0
 70 81  1  0
 81 82  1  0
 81 83  2  0
 83 84  1  0
 84 85  1  0
 85 86  1  0
 86 87  1  0
 85 88  2  0
 88 89  1  0
 89 90  1  0
 84 91  2  0
 91 92  1  0
 92 93  1  0
 92 94  2  0
 94 95  1  0
 95 96  2  0
 96 97  1  0
 97 98  2  3
 11  2  1  0
 29 20  1  0
 47 38  1  0
 59 55  2  0
 72 68  2  0
 91 82  1  0
 14  8  1  0
 32 26  1  0
 50 44  1  0
 67 58  1  0
 80 71  1  0
 94 88  1  0
 16 13  1  0
 34 31  1  0
 52 49  1  0
 96 93  1  0
  1 99  1  0
  3100  1  0
  6101  1  0
  6102  1  0
  7103  1  0
  7104  1  0
  7105  1  0
  9106  1  0
  9107  1  0
 10108  1  0
 10109  1  0
 10110  1  0
 15111  1  0
 17112  1  0
 18113  1  0
 21114  1  0
 24115  1  0
 24116  1  0
 25117  1  0
 25118  1  0
 25119  1  0
 27120  1  0
 27121  1  0
 28122  1  0
 28123  1  0
 28124  1  0
 33125  1  0
 35126  1  0
 36127  1  0
 39128  1  0
 42129  1  0
 42130  1  0
 43131  1  0
 43132  1  0
 43133  1  0
 45134  1  0
 45135  1  0
 46136  1  0
 46137  1  0
 46138  1  0
 51139  1  0
 53140  1  0
 54141  1  0
 60142  1  0
 63143  1  0
 63144  1  0
 63145  1  0
 66146  1  0
 66147  1  0
 66148  1  0
 67149  1  0
 73150  1  0
 76151  1  0
 76152  1  0
 76153  1  0
 79154  1  0
 79155  1  0
 79156  1  0
 80157  1  0
 83158  1  0
 86159  1  0
 86160  1  0
 87161  1  0
 87162  1  0
 87163  1  0
 89164  1  0
 89165  1  0
 90166  1  0
 90167  1  0
 90168  1  0
 95169  1  0
 97170  1  0
 98171  1  0
 98172  1  0
M  END

