
     RDKit          3D

244267  0  0  0  0  0  0  0  0999 V2000
    0.9217   -2.9558   11.8418 C   0  0  0  0  0  0  0  0  0  0  0  0
    0.5982   -1.7626   11.2023 C   0  0  0  0  0  0  0  0  0  0  0  0
   -0.2557   -1.9385   10.0991 C   0  0  0  0  0  0  0  0  0  0  0  0
   -0.7313   -0.9263    9.2397 C   0  0  0  0  0  0  0  0  0  0  0  0
   -0.2848    0.4780    9.3502 C   0  0  0  0  0  0  0  0  0  0  0  0
    1.0700    0.7996    9.1644 C   0  0  0  0  0  0  0  0  0  0  0  0
    1.4816    2.1351    9.1594 C   0  0  0  0  0  0  0  0  0  0  0  0
    0.5406    3.1589    9.3209 C   0  0  0  0  0  0  0  0  0  0  0  0
    1.0593    4.8736    9.2040 S   0  0  0  0  0  0  0  0  0  0  0  0
    1.0646    4.9252    7.3747 C   0  0  0  0  0  0  0  0  0  0  0  0
   -0.3473    4.9763    6.8089 C   0  0  0  0  0  0  0  0  0  0  0  0
   -0.8059    2.8423    9.5475 C   0  0  0  0  0  0  0  0  0  0  0  0
   -1.7242    3.8243    9.7239 F   0  0  0  0  0  0  0  0  0  0  0  0
   -1.2172    1.5057    9.5582 C   0  0  0  0  0  0  0  0  0  0  0  0
   -1.5875   -1.3295    8.1989 C   0  0  0  0  0  0  0  0  0  0  0  0
   -1.9396   -2.6669    7.9790 C   0  0  0  0  0  0  0  0  0  0  0  0
   -1.4407   -3.6818    8.8243 C   0  0  0  0  0  0  0  0  0  0  0  0
   -1.6969   -5.1154    8.5687 C   0  0  0  0  0  0  0  0  0  0  0  0
   -1.2718   -5.7000    7.3652 C   0  0  0  0  0  0  0  0  0  0  0  0
   -1.4592   -7.0654    7.1422 C   0  0  0  0  0  0  0  0  0  0  0  0
   -2.0614   -7.8629    8.1234 C   0  0  0  0  0  0  0  0  0  0  0  0
   -2.2753   -9.6212    7.8268 S   0  0  0  0  0  0  0  0  0  0  0  0
   -0.7560  -10.1289    8.7110 C   0  0  0  0  0  0  0  0  0  0  0  0
    0.4889   -9.8957    7.8649 C   0  0  0  0  0  0  0  0  0  0  0  0
   -2.5072   -7.2806    9.3188 C   0  0  0  0  0  0  0  0  0  0  0  0
   -2.3214   -5.9122    9.5415 C   0  0  0  0  0  0  0  0  0  0  0  0
   -3.1032   -8.0381   10.2728 F   0  0  0  0  0  0  0  0  0  0  0  0
   -0.6135   -3.2726    9.8883 C   0  0  0  0  0  0  0  0  0  0  0  0
    0.1530   -4.2272   11.0450 S   0  0  0  0  0  0  0  0  0  0  0  0
   -2.7712   -2.8413    6.8569 C   0  0  0  0  0  0  0  0  0  0  0  0
   -3.0469   -1.6461    6.1928 C   0  0  0  0  0  0  0  0  0  0  0  0
   -2.2681   -0.3788    6.9923 S   0  0  0  0  0  0  0  0  0  0  0  0
   -3.8047   -1.5010    4.9370 C   0  0  0  0  0  0  0  0  0  0  0  0
   -3.9335   -0.3144    4.2219 C   0  0  0  0  0  0  0  0  0  0  0  0
   -4.5759   -0.4841    2.9869 C   0  0  0  0  0  0  0  0  0  0  0  0
   -4.7488    0.5109    2.0098 C   0  0  0  0  0  0  0  0  0  0  0  0
   -4.3783    1.9238    2.2428 C   0  0  0  0  0  0  0  0  0  0  0  0
   -3.4121    2.5474    1.4385 C   0  0  0  0  0  0  0  0  0  0  0  0
   -3.1621    3.9142    1.5746 C   0  0  0  0  0  0  0  0  0  0  0  0
   -3.8525    4.6655    2.5319 C   0  0  0  0  0  0  0  0  0  0  0  0
   -3.5750    6.4349    2.6459 S   0  0  0  0  0  0  0  0  0  0  0  0
   -2.3491    6.2940    3.9860 C   0  0  0  0  0  0  0  0  0  0  0  0
   -1.6999    7.6469    4.2410 C   0  0  0  0  0  0  0  0  0  0  0  0
   -4.7953    4.0422    3.3611 C   0  0  0  0  0  0  0  0  0  0  0  0
   -5.4669    4.7533    4.2993 F   0  0  0  0  0  0  0  0  0  0  0  0
   -5.0486    2.6723    3.2208 C   0  0  0  0  0  0  0  0  0  0  0  0
   -5.2776    0.0971    0.7781 C   0  0  0  0  0  0  0  0  0  0  0  0
   -5.6671   -1.2167    0.5111 C   0  0  0  0  0  0  0  0  0  0  0  0
   -5.5320   -2.2101    1.5109 C   0  0  0  0  0  0  0  0  0  0  0  0
   -5.8857   -3.6262    1.2710 C   0  0  0  0  0  0  0  0  0  0  0  0
   -5.2370   -4.3655    0.2697 C   0  0  0  0  0  0  0  0  0  0  0  0
   -5.5282   -5.7224    0.0954 C   0  0  0  0  0  0  0  0  0  0  0  0
   -6.4738   -6.3510    0.9170 C   0  0  0  0  0  0  0  0  0  0  0  0
   -6.7977   -8.1073    0.7240 S   0  0  0  0  0  0  0  0  0  0  0  0
   -8.2550   -7.9021   -0.3584 C   0  0  0  0  0  0  0  0  0  0  0  0
   -7.8380   -7.5825   -1.7869 C   0  0  0  0  0  0  0  0  0  0  0  0
   -7.1212   -5.6176    1.9207 C   0  0  0  0  0  0  0  0  0  0  0  0
   -6.8314   -4.2607    2.0940 C   0  0  0  0  0  0  0  0  0  0  0  0
   -8.0267   -6.2160    2.7352 F   0  0  0  0  0  0  0  0  0  0  0  0
   -4.9641   -1.8054    2.7358 C   0  0  0  0  0  0  0  0  0  0  0  0
   -4.5002   -2.7588    4.0454 S   0  0  0  0  0  0  0  0  0  0  0  0
   -6.1323   -1.3969   -0.8102 C   0  0  0  0  0  0  0  0  0  0  0  0
   -6.0323   -0.2366   -1.5934 C   0  0  0  0  0  0  0  0  0  0  0  0
   -5.4760    1.0131   -0.6060 S   0  0  0  0  0  0  0  0  0  0  0  0
   -6.1196   -0.0688   -3.0650 C   0  0  0  0  0  0  0  0  0  0  0  0
   -6.0099    1.4695   -3.7379 S   0  0  0  0  0  0  0  0  0  0  0  0
   -5.4694    1.0724   -5.2724 C   0  0  0  0  0  0  0  0  0  0  0  0
   -5.4020   -0.3261   -5.3039 C   0  0  0  0  0  0  0  0  0  0  0  0
   -5.7498   -0.9639   -4.0898 C   0  0  0  0  0  0  0  0  0  0  0  0
   -5.6120   -2.3540   -3.9815 C   0  0  0  0  0  0  0  0  0  0  0  0
   -5.1453   -3.1106   -5.0774 C   0  0  0  0  0  0  0  0  0  0  0  0
   -5.0047   -4.5046   -5.0103 O   0  0  0  0  0  0  0  0  0  0  0  0
   -5.2961   -5.2905   -3.8576 C   0  0  0  0  0  0  0  0  0  0  0  0
   -4.7951   -2.4659   -6.2787 C   0  0  0  0  0  0  0  0  0  0  0  0
   -4.3007   -3.2515   -7.3322 O   0  0  0  0  0  0  0  0  0  0  0  0
   -3.7665   -2.7271   -8.5441 C   0  0  0  0  0  0  0  0  0  0  0  0
   -4.9364   -1.0706   -6.3929 C   0  0  0  0  0  0  0  0  0  0  0  0
   -4.5842    1.9922   -6.0243 C   0  0  0  0  0  0  0  0  0  0  0  0
   -2.9981    1.5642   -6.4025 S   0  0  0  0  0  0  0  0  0  0  0  0
   -2.3356    3.1020   -6.4651 C   0  0  0  0  0  0  0  0  0  0  0  0
   -3.3556    3.9996   -6.1587 C   0  0  0  0  0  0  0  0  0  0  0  0
   -4.6062    3.3905   -5.9445 C   0  0  0  0  0  0  0  0  0  0  0  0
   -5.7198    4.1676   -5.6132 C   0  0  0  0  0  0  0  0  0  0  0  0
   -5.5803    5.5653   -5.4746 C   0  0  0  0  0  0  0  0  0  0  0  0
   -6.6713    6.3887   -5.1537 O   0  0  0  0  0  0  0  0  0  0  0  0
   -8.0023    5.9228   -4.9469 C   0  0  0  0  0  0  0  0  0  0  0  0
   -4.3186    6.1705   -5.6608 C   0  0  0  0  0  0  0  0  0  0  0  0
   -4.2210    7.5611   -5.4896 O   0  0  0  0  0  0  0  0  0  0  0  0
   -3.0164    8.3095   -5.6268 C   0  0  0  0  0  0  0  0  0  0  0  0
   -3.2006    5.3793   -6.0052 C   0  0  0  0  0  0  0  0  0  0  0  0
   -0.8893    3.3145   -6.3587 C   0  0  0  0  0  0  0  0  0  0  0  0
   -0.2617    3.6200   -5.1464 C   0  0  0  0  0  0  0  0  0  0  0  0
    1.0621    3.1476   -5.0736 C   0  0  0  0  0  0  0  0  0  0  0  0
    1.8565    3.0942   -3.9081 C   0  0  0  0  0  0  0  0  0  0  0  0
    1.4367    3.7527   -2.6536 C   0  0  0  0  0  0  0  0  0  0  0  0
    0.9286    2.9998   -1.5826 C   0  0  0  0  0  0  0  0  0  0  0  0
    0.5015    3.6405   -0.4143 C   0  0  0  0  0  0  0  0  0  0  0  0
    0.5939    5.0343   -0.3021 C   0  0  0  0  0  0  0  0  0  0  0  0
   -0.0327    5.8614    1.1656 S   0  0  0  0  0  0  0  0  0  0  0  0
    1.4605    5.6116    2.1869 C   0  0  0  0  0  0  0  0  0  0  0  0
    2.5243    6.6484    1.8544 C   0  0  0  0  0  0  0  0  0  0  0  0
    1.0969    5.7872   -1.3716 C   0  0  0  0  0  0  0  0  0  0  0  0
    1.1578    7.1405   -1.2893 F   0  0  0  0  0  0  0  0  0  0  0  0
    1.5121    5.1486   -2.5441 C   0  0  0  0  0  0  0  0  0  0  0  0
    3.0200    2.3079   -3.9696 C   0  0  0  0  0  0  0  0  0  0  0  0
    3.4271    1.6526   -5.1377 C   0  0  0  0  0  0  0  0  0  0  0  0
    2.6740    1.7737   -6.3273 C   0  0  0  0  0  0  0  0  0  0  0  0
    3.0436    1.0961   -7.5934 C   0  0  0  0  0  0  0  0  0  0  0  0
    3.1770   -0.2995   -7.6608 C   0  0  0  0  0  0  0  0  0  0  0  0
    3.4416   -0.9259   -8.8842 C   0  0  0  0  0  0  0  0  0  0  0  0
    3.5441   -0.1668  -10.0577 C   0  0  0  0  0  0  0  0  0  0  0  0
    3.7548   -0.9951  -11.6359 S   0  0  0  0  0  0  0  0  0  0  0  0
    5.5463   -0.6583  -11.7976 C   0  0  0  0  0  0  0  0  0  0  0  0
    5.8130    0.0404  -13.1252 C   0  0  0  0  0  0  0  0  0  0  0  0
    3.4101    1.2262   -9.9973 C   0  0  0  0  0  0  0  0  0  0  0  0
    3.1750    1.8541   -8.7708 C   0  0  0  0  0  0  0  0  0  0  0  0
    3.4989    1.9770  -11.1268 F   0  0  0  0  0  0  0  0  0  0  0  0
    1.4813    2.5112   -6.2454 C   0  0  0  0  0  0  0  0  0  0  0  0
    0.2066    2.4964   -7.3412 S   0  0  0  0  0  0  0  0  0  0  0  0
    4.5272    0.8042   -4.9358 C   0  0  0  0  0  0  0  0  0  0  0  0
    4.9502    0.7590   -3.6111 C   0  0  0  0  0  0  0  0  0  0  0  0
    4.0114    1.8220   -2.6966 S   0  0  0  0  0  0  0  0  0  0  0  0
    5.7115   -0.3576   -3.0371 C   0  0  0  0  0  0  0  0  0  0  0  0
    6.4580   -0.3367   -1.8588 C   0  0  0  0  0  0  0  0  0  0  0  0
    6.8385   -1.6257   -1.4311 C   0  0  0  0  0  0  0  0  0  0  0  0
    7.5861   -1.9507   -0.2770 C   0  0  0  0  0  0  0  0  0  0  0  0
    8.1003   -0.9219    0.6512 C   0  0  0  0  0  0  0  0  0  0  0  0
    9.4755   -0.8386    0.9210 C   0  0  0  0  0  0  0  0  0  0  0  0
    9.9546    0.0720    1.8667 C   0  0  0  0  0  0  0  0  0  0  0  0
    9.0658    0.9175    2.5433 C   0  0  0  0  0  0  0  0  0  0  0  0
    9.6891    2.0391    3.8043 S   0  0  0  0  0  0  0  0  0  0  0  0
   10.1786    3.3564    2.6362 C   0  0  0  0  0  0  0  0  0  0  0  0
    8.9795    4.1992    2.2200 C   0  0  0  0  0  0  0  0  0  0  0  0
    7.6914    0.8418    2.2745 C   0  0  0  0  0  0  0  0  0  0  0  0
    6.8135    1.6330    2.9422 F   0  0  0  0  0  0  0  0  0  0  0  0
    7.2124   -0.0739    1.3323 C   0  0  0  0  0  0  0  0  0  0  0  0
    7.7893   -3.3212   -0.0191 C   0  0  0  0  0  0  0  0  0  0  0  0
    7.2770   -4.3291   -0.8410 C   0  0  0  0  0  0  0  0  0  0  0  0
    6.5407   -4.0032   -1.9953 C   0  0  0  0  0  0  0  0  0  0  0  0
    5.8678   -5.0391   -2.8031 C   0  0  0  0  0  0  0  0  0  0  0  0
    4.4841   -5.2292   -2.6756 C   0  0  0  0  0  0  0  0  0  0  0  0
    3.8363   -6.2086   -3.4297 C   0  0  0  0  0  0  0  0  0  0  0  0
    4.5641   -6.9956   -4.3306 C   0  0  0  0  0  0  0  0  0  0  0  0
    3.7119   -8.2349   -5.3158 S   0  0  0  0  0  0  0  0  0  0  0  0
    3.0970   -7.0590   -6.5729 C   0  0  0  0  0  0  0  0  0  0  0  0
    4.1942   -6.6739   -7.5561 C   0  0  0  0  0  0  0  0  0  0  0  0
    5.9517   -6.8200   -4.4502 C   0  0  0  0  0  0  0  0  0  0  0  0
    6.6007   -5.8455   -3.6852 C   0  0  0  0  0  0  0  0  0  0  0  0
    6.6706   -7.5957   -5.3006 F   0  0  0  0  0  0  0  0  0  0  0  0
    6.3611   -2.6385   -2.2698 C   0  0  0  0  0  0  0  0  0  0  0  0
    5.5030   -1.9552   -3.5393 S   0  0  0  0  0  0  0  0  0  0  0  0
    7.5230   -5.6210   -0.3500 C   0  0  0  0  0  0  0  0  0  0  0  0
    8.2271   -5.6292    0.8507 C   0  0  0  0  0  0  0  0  0  0  0  0
    8.5382   -4.0366    1.3093 S   0  0  0  0  0  0  0  0  0  0  0  0
    1.5637   -3.0466   12.7061 H   0  0  0  0  0  0  0  0  0  0  0  0
    0.9760   -0.8028   11.5295 H   0  0  0  0  0  0  0  0  0  0  0  0
    1.8006    0.0189    8.9930 H   0  0  0  0  0  0  0  0  0  0  0  0
    2.5253    2.3748    8.9944 H   0  0  0  0  0  0  0  0  0  0  0  0
    1.6061    5.8429    7.0597 H   0  0  0  0  0  0  0  0  0  0  0  0
    1.6075    4.0483    6.9615 H   0  0  0  0  0  0  0  0  0  0  0  0
   -0.8883    5.8597    7.2077 H   0  0  0  0  0  0  0  0  0  0  0  0
   -0.9088    4.0543    7.0616 H   0  0  0  0  0  0  0  0  0  0  0  0
   -0.2923    5.0510    5.7052 H   0  0  0  0  0  0  0  0  0  0  0  0
   -2.2652    1.2725    9.7016 H   0  0  0  0  0  0  0  0  0  0  0  0
   -0.7790   -5.1013    6.6083 H   0  0  0  0  0  0  0  0  0  0  0  0
   -1.1234   -7.5070    6.2109 H   0  0  0  0  0  0  0  0  0  0  0  0
   -0.8349  -11.2141    8.9349 H   0  0  0  0  0  0  0  0  0  0  0  0
   -0.6702   -9.5866    9.6773 H   0  0  0  0  0  0  0  0  0  0  0  0
    0.3910  -10.4020    6.8809 H   0  0  0  0  0  0  0  0  0  0  0  0
    1.3748  -10.3091    8.3922 H   0  0  0  0  0  0  0  0  0  0  0  0
    0.6572   -8.8105    7.7067 H   0  0  0  0  0  0  0  0  0  0  0  0
   -2.6547   -5.4723   10.4739 H   0  0  0  0  0  0  0  0  0  0  0  0
   -3.1472   -3.7987    6.5232 H   0  0  0  0  0  0  0  0  0  0  0  0
   -3.5195    0.6278    4.5595 H   0  0  0  0  0  0  0  0  0  0  0  0
   -2.8729    1.9824    0.6857 H   0  0  0  0  0  0  0  0  0  0  0  0
   -2.4536    4.3910    0.9126 H   0  0  0  0  0  0  0  0  0  0  0  0
   -2.8557    5.9502    4.9123 H   0  0  0  0  0  0  0  0  0  0  0  0
   -1.5663    5.5577    3.7096 H   0  0  0  0  0  0  0  0  0  0  0  0
   -1.1457    7.9792    3.3383 H   0  0  0  0  0  0  0  0  0  0  0  0
   -2.4756    8.3994    4.4939 H   0  0  0  0  0  0  0  0  0  0  0  0
   -0.9881    7.5681    5.0867 H   0  0  0  0  0  0  0  0  0  0  0  0
   -5.7942    2.2009    3.8502 H   0  0  0  0  0  0  0  0  0  0  0  0
   -4.4874   -3.8974   -0.3590 H   0  0  0  0  0  0  0  0  0  0  0  0
   -5.0085   -6.2888   -0.6671 H   0  0  0  0  0  0  0  0  0  0  0  0
   -8.9247   -7.1044    0.0301 H   0  0  0  0  0  0  0  0  0  0  0  0
   -8.8228   -8.8557   -0.3568 H   0  0  0  0  0  0  0  0  0  0  0  0
   -7.3754   -6.5783   -1.8365 H   0  0  0  0  0  0  0  0  0  0  0  0
   -7.1103   -8.3357   -2.1555 H   0  0  0  0  0  0  0  0  0  0  0  0
   -8.7294   -7.5929   -2.4466 H   0  0  0  0  0  0  0  0  0  0  0  0
   -7.3334   -3.7070    2.8769 H   0  0  0  0  0  0  0  0  0  0  0  0
   -6.5228   -2.3361   -1.1595 H   0  0  0  0  0  0  0  0  0  0  0  0
   -5.8601   -2.8606   -3.0729 H   0  0  0  0  0  0  0  0  0  0  0  0
   -5.0904   -6.3551   -4.0846 H   0  0  0  0  0  0  0  0  0  0  0  0
   -6.3690   -5.1848   -3.5913 H   0  0  0  0  0  0  0  0  0  0  0  0
   -4.6552   -4.9721   -3.0069 H   0  0  0  0  0  0  0  0  0  0  0  0
   -2.9169   -2.0456   -8.3226 H   0  0  0  0  0  0  0  0  0  0  0  0
   -3.3957   -3.5619   -9.1714 H   0  0  0  0  0  0  0  0  0  0  0  0
   -4.5536   -2.1823   -9.1068 H   0  0  0  0  0  0  0  0  0  0  0  0
   -4.6856   -0.5683   -7.3168 H   0  0  0  0  0  0  0  0  0  0  0  0
   -6.6791    3.6879   -5.4660 H   0  0  0  0  0  0  0  0  0  0  0  0
   -8.6548    6.7877   -4.7090 H   0  0  0  0  0  0  0  0  0  0  0  0
   -8.0279    5.2101   -4.0930 H   0  0  0  0  0  0  0  0  0  0  0  0
   -8.3844    5.4341   -5.8658 H   0  0  0  0  0  0  0  0  0  0  0  0
   -3.2287    9.3785   -5.4235 H   0  0  0  0  0  0  0  0  0  0  0  0
   -2.2597    7.9580   -4.8940 H   0  0  0  0  0  0  0  0  0  0  0  0
   -2.6240    8.2146   -6.6629 H   0  0  0  0  0  0  0  0  0  0  0  0
   -2.2267    5.8256   -6.1514 H   0  0  0  0  0  0  0  0  0  0  0  0
   -0.8011    4.0093   -4.2916 H   0  0  0  0  0  0  0  0  0  0  0  0
    0.8538    1.9222   -1.6610 H   0  0  0  0  0  0  0  0  0  0  0  0
    0.0967    3.0515    0.3996 H   0  0  0  0  0  0  0  0  0  0  0  0
    1.8637    4.5832    2.0536 H   0  0  0  0  0  0  0  0  0  0  0  0
    1.1689    5.7292    3.2526 H   0  0  0  0  0  0  0  0  0  0  0  0
    3.3637    6.5646    2.5781 H   0  0  0  0  0  0  0  0  0  0  0  0
    2.9187    6.4826    0.8299 H   0  0  0  0  0  0  0  0  0  0  0  0
    2.0976    7.6724    1.9232 H   0  0  0  0  0  0  0  0  0  0  0  0
    1.8951    5.7403   -3.3687 H   0  0  0  0  0  0  0  0  0  0  0  0
    3.0423   -0.9070   -6.7750 H   0  0  0  0  0  0  0  0  0  0  0  0
    3.5324   -2.0037   -8.9251 H   0  0  0  0  0  0  0  0  0  0  0  0
    6.0921   -1.6254  -11.7778 H   0  0  0  0  0  0  0  0  0  0  0  0
    5.9328   -0.0224  -10.9692 H   0  0  0  0  0  0  0  0  0  0  0  0
    5.2762    1.0128  -13.1602 H   0  0  0  0  0  0  0  0  0  0  0  0
    5.4699   -0.5957  -13.9701 H   0  0  0  0  0  0  0  0  0  0  0  0
    6.9026    0.2246  -13.2385 H   0  0  0  0  0  0  0  0  0  0  0  0
    3.0653    2.9322   -8.7406 H   0  0  0  0  0  0  0  0  0  0  0  0
    4.9464    0.1599   -5.6974 H   0  0  0  0  0  0  0  0  0  0  0  0
    6.6862    0.5755   -1.3239 H   0  0  0  0  0  0  0  0  0  0  0  0
   10.1750   -1.4907    0.4107 H   0  0  0  0  0  0  0  0  0  0  0  0
   11.0154    0.1185    2.0757 H   0  0  0  0  0  0  0  0  0  0  0  0
   10.9138    4.0136    3.1456 H   0  0  0  0  0  0  0  0  0  0  0  0
   10.6723    2.9249    1.7382 H   0  0  0  0  0  0  0  0  0  0  0  0
    8.2639    3.5893    1.6323 H   0  0  0  0  0  0  0  0  0  0  0  0
    9.3209    5.0440    1.5860 H   0  0  0  0  0  0  0  0  0  0  0  0
    8.4680    4.6103    3.1167 H   0  0  0  0  0  0  0  0  0  0  0  0
    6.1436   -0.1417    1.1510 H   0  0  0  0  0  0  0  0  0  0  0  0
    3.9087   -4.6188   -1.9888 H   0  0  0  0  0  0  0  0  0  0  0  0
    2.7667   -6.3475   -3.3208 H   0  0  0  0  0  0  0  0  0  0  0  0
    2.6859   -6.1488   -6.0842 H   0  0  0  0  0  0  0  0  0  0  0  0
    2.2722   -7.5484   -7.1317 H   0  0  0  0  0  0  0  0  0  0  0  0
    5.0094   -6.1318   -7.0373 H   0  0  0  0  0  0  0  0  0  0  0  0
    3.7757   -6.0079   -8.3377 H   0  0  0  0  0  0  0  0  0  0  0  0
    4.6064   -7.5823   -8.0438 H   0  0  0  0  0  0  0  0  0  0  0  0
    7.6716   -5.7134   -3.7820 H   0  0  0  0  0  0  0  0  0  0  0  0
    7.1880   -6.5287   -0.8380 H   0  0  0  0  0  0  0  0  0  0  0  0
    8.5083   -6.5107    1.4095 H   0  0  0  0  0  0  0  0  0  0  0  0
  1  2  2  0
  2  3  1  0
  3  4  2  0
  4  5  1  0
  5  6  2  0
  6  7  1  0
  7  8  2  0
  8  9  1  0
  9 10  1  0
 10 11  1  0
  8 12  1  0
 12 13  1  0
 12 14  2  0
  4 15  1  0
 15 16  2  0
 16 17  1  0
 17 18  1  0
 18 19  2  0
 19 20  1  0
 20 21  2  0
 21 22  1  0
 22 23  1  0
 23 24  1  0
 21 25  1  0
 25 26  2  0
 25 27  1  0
 17 28  2  0
 28 29  1  0
 16 30  1  0
 30 31  2  0
 31 32  1  0
 31 33  1  0
 33 34  2  0
 34 35  1  0
 35 36  2  0
 36 37  1  0
 37 38  2  0
 38 39  1  0
 39 40  2  0
 40 41  1  0
 41 42  1  0
 42 43  1  0
 40 44  1  0
 44 45  1  0
 44 46  2  0
 36 47  1  0
 47 48  2  0
 48 49  1  0
 49 50  1  0
 50 51  2  0
 51 52  1  0
 52 53  2  0
 53 54  1  0
 54 55  1  0
 55 56  1  0
 53 57  1  0
 57 58  2  0
 57 59  1  0
 49 60  2  0
 60 61  1  0
 48 62  1  0
 62 63  2  0
 63 64  1  0
 63 65  1  0
 65 66  1  0
 66 67  1  0
 67 68  2  0
 68 69  1  0
 69 70  1  0
 70 71  2  0
 71 72  1  0
 72 73  1  0
 71 74  1  0
 74 75  1  0
 75 76  1  0
 74 77  2  0
 67 78  1  0
 78 79  1  0
 79 80  1  0
 80 81  2  0
 81 82  1  0
 82 83  1  0
 83 84  2  0
 84 85  1  0
 85 86  1  0
 84 87  1  0
 87 88  1  0
 88 89  1  0
 87 90  2  0
 80 91  1  0
 91 92  2  0
 92 93  1  0
 93 94  2  0
 94 95  1  0
 95 96  2  0
 96 97  1  0
 97 98  2  0
 98 99  1  0
 99100  1  0
100101  1  0
 98102  1  0
102103  1  0
102104  2  0
 94105  1  0
105106  2  0
106107  1  0
107108  1  0
108109  2  0
109110  1  0
110111  2  0
111112  1  0
112113  1  0
113114  1  0
111115  1  0
115116  2  0
115117  1  0
107118  2  0
118119  1  0
106120  1  0
120121  2  0
121122  1  0
121123  1  0
123124  2  0
124125  1  0
125126  2  0
126127  1  0
127128  2  0
128129  1  0
129130  2  0
130131  1  0
131132  1  0
132133  1  0
130134  1  0
134135  1  0
134136  2  0
126137  1  0
137138  2  0
138139  1  0
139140  1  0
140141  2  0
141142  1  0
142143  2  0
143144  1  0
144145  1  0
145146  1  0
143147  1  0
147148  2  0
147149  1  0
139150  2  0
150151  1  0
138152  1  0
152153  2  0
153154  1  0
 29  1  1  0
 61 33  1  0
 69 65  2  0
 82 78  2  0
119 91  1  0
151123  1  0
 28  3  1  0
 60 35  1  0
 77 68  1  0
 90 81  1  0
118 93  1  0
150125  1  0
 14  5  1  0
 32 15  1  0
 46 37  1  0
 64 47  1  0
104 95  1  0
122105  1  0
136127  1  0
154137  1  0
 26 18  1  0
 58 50  1  0
116108  1  0
148140  1  0
  1155  1  0
  2156  1  0
  6157  1  0
  7158  1  0
 10159  1  0
 10160  1  0
 11161  1  0
 11162  1  0
 11163  1  0
 14164  1  0
 19165  1  0
 20166  1  0
 23167  1  0
 23168  1  0
 24169  1  0
 24170  1  0
 24171  1  0
 26172  1  0
 30173  1  0
 34174  1  0
 38175  1  0
 39176  1  0
 42177  1  0
 42178  1  0
 43179  1  0
 43180  1  0
 43181  1  0
 46182  1  0
 51183  1  0
 52184  1  0
 55185  1  0
 55186  1  0
 56187  1  0
 56188  1  0
 56189  1  0
 58190  1  0
 62191  1  0
 70192  1  0
 73193  1  0
 73194  1  0
 73195  1  0
 76196  1  0
 76197  1  0
 76198  1  0
 77199  1  0
 83200  1  0
 86201  1  0
 86202  1  0
 86203  1  0
 89204  1  0
 89205  1  0
 89206  1  0
 90207  1  0
 92208  1  0
 96209  1  0
 97210  1  0
100211  1  0
100212  1  0
101213  1  0
101214  1  0
101215  1  0
104216  1  0
109217  1  0
110218  1  0
113219  1  0
113220  1  0
114221  1  0
114222  1  0
114223  1  0
116224  1  0
120225  1  0
124226  1  0
128227  1  0
129228  1  0
132229  1  0
132230  1  0
133231  1  0
133232  1  0
133233  1  0
136234  1  0
141235  1  0
142236  1  0
145237  1  0
145238  1  0
146239  1  0
146240  1  0
146241  1  0
148242  1  0
152243  1  0
153244  1  0
M  END

