
     RDKit          3D

128139  0  0  0  0  0  0  0  0999 V2000
    7.6802    3.8108   -7.0360 C   0  0  0  0  0  0  0  0  0  0  0  0
    6.0904    4.0920   -6.5439 S   0  0  0  0  0  0  0  0  0  0  0  0
    6.0326    2.9589   -5.2889 C   0  0  0  0  0  0  0  0  0  0  0  0
    7.2802    2.3431   -5.2564 C   0  0  0  0  0  0  0  0  0  0  0  0
    8.1773    2.8117   -6.2146 C   0  0  0  0  0  0  0  0  0  0  0  0
    9.4213    2.2850   -6.3036 N   0  0  0  0  0  0  0  0  0  0  0  0
    9.8125    1.2823   -5.4609 C   0  0  0  0  0  0  0  0  0  0  0  0
   11.2113    0.7111   -5.5751 C   0  0  0  0  0  0  0  0  0  0  0  0
   11.8951    1.1312   -6.7982 N   0  0  0  0  0  0  0  0  0  0  0  0
    8.9032    0.8171   -4.4673 C   0  0  0  0  0  0  0  0  0  0  0  0
    9.2683   -0.3029   -3.5220 C   0  0  0  0  0  0  0  0  0  0  0  0
    8.3146   -0.3956   -2.4189 N   0  0  0  0  0  0  0  0  0  0  0  0
    7.6505    1.3564   -4.4060 N   0  0  0  0  0  0  0  0  0  0  0  0
    4.8764    2.6833   -4.4113 C   0  0  0  0  0  0  0  0  0  0  0  0
    4.8916    1.7060   -3.0312 S   0  0  0  0  0  0  0  0  0  0  0  0
    3.2693    1.8960   -2.6045 C   0  0  0  0  0  0  0  0  0  0  0  0
    2.6925    2.7194   -3.5636 C   0  0  0  0  0  0  0  0  0  0  0  0
    3.5765    3.1659   -4.5467 C   0  0  0  0  0  0  0  0  0  0  0  0
    3.1420    3.9999   -5.5225 N   0  0  0  0  0  0  0  0  0  0  0  0
    1.8386    4.4072   -5.5609 C   0  0  0  0  0  0  0  0  0  0  0  0
    1.3963    5.3657   -6.6397 C   0  0  0  0  0  0  0  0  0  0  0  0
    2.4148    5.5035   -7.6794 N   0  0  0  0  0  0  0  0  0  0  0  0
    0.9403    3.9607   -4.5496 C   0  0  0  0  0  0  0  0  0  0  0  0
   -0.5135    4.3681   -4.5526 C   0  0  0  0  0  0  0  0  0  0  0  0
   -1.1838    3.9679   -3.3166 N   0  0  0  0  0  0  0  0  0  0  0  0
    1.3973    3.1172   -3.5772 N   0  0  0  0  0  0  0  0  0  0  0  0
    2.5891    1.2694   -1.4580 C   0  0  0  0  0  0  0  0  0  0  0  0
    1.0508    0.5803   -1.5248 S   0  0  0  0  0  0  0  0  0  0  0  0
    0.9743    0.1037    0.0866 C   0  0  0  0  0  0  0  0  0  0  0  0
    2.1659    0.4786    0.7074 C   0  0  0  0  0  0  0  0  0  0  0  0
    3.0670    1.1299   -0.1511 C   0  0  0  0  0  0  0  0  0  0  0  0
    4.2922    1.5972    0.3381 C   0  0  0  0  0  0  0  0  0  0  0  0
    4.6381    1.3694    1.6873 C   0  0  0  0  0  0  0  0  0  0  0  0
    5.8633    1.8014    2.2207 O   0  0  0  0  0  0  0  0  0  0  0  0
    6.8811    2.4626    1.4743 C   0  0  0  0  0  0  0  0  0  0  0  0
    3.7463    0.6862    2.5379 C   0  0  0  0  0  0  0  0  0  0  0  0
    4.1322    0.4736    3.8711 O   0  0  0  0  0  0  0  0  0  0  0  0
    3.3445   -0.2121    4.8398 C   0  0  0  0  0  0  0  0  0  0  0  0
    2.5056    0.2365    2.0420 C   0  0  0  0  0  0  0  0  0  0  0  0
   -0.1838   -0.5505    0.7071 C   0  0  0  0  0  0  0  0  0  0  0  0
   -0.9111   -1.9765    0.1730 S   0  0  0  0  0  0  0  0  0  0  0  0
   -2.0916   -2.0762    1.3833 C   0  0  0  0  0  0  0  0  0  0  0  0
   -1.9210   -0.9693    2.2104 C   0  0  0  0  0  0  0  0  0  0  0  0
   -0.8686   -0.1356    1.8391 C   0  0  0  0  0  0  0  0  0  0  0  0
   -0.5839    0.9711    2.5646 N   0  0  0  0  0  0  0  0  0  0  0  0
   -1.3099    1.2752    3.6804 C   0  0  0  0  0  0  0  0  0  0  0  0
   -0.9580    2.5111    4.4733 C   0  0  0  0  0  0  0  0  0  0  0  0
    0.3281    3.0630    4.0533 N   0  0  0  0  0  0  0  0  0  0  0  0
   -2.4008    0.4358    4.0491 C   0  0  0  0  0  0  0  0  0  0  0  0
   -3.2345    0.7113    5.2757 C   0  0  0  0  0  0  0  0  0  0  0  0
   -4.5273    0.0372    5.1895 N   0  0  0  0  0  0  0  0  0  0  0  0
   -2.6616   -0.6821    3.3081 N   0  0  0  0  0  0  0  0  0  0  0  0
   -3.0749   -3.1633    1.5433 C   0  0  0  0  0  0  0  0  0  0  0  0
   -4.5442   -3.0635    2.3747 S   0  0  0  0  0  0  0  0  0  0  0  0
   -5.0367   -4.6659    2.1471 C   0  0  0  0  0  0  0  0  0  0  0  0
   -4.0342   -5.2946    1.4138 C   0  0  0  0  0  0  0  0  0  0  0  0
   -2.9621   -4.4686    1.0766 C   0  0  0  0  0  0  0  0  0  0  0  0
   -1.9104   -4.9667    0.3829 N   0  0  0  0  0  0  0  0  0  0  0  0
   -1.8894   -6.2762   -0.0053 C   0  0  0  0  0  0  0  0  0  0  0  0
   -0.7117   -6.7986   -0.7923 C   0  0  0  0  0  0  0  0  0  0  0  0
    0.3304   -5.7831   -0.9314 N   0  0  0  0  0  0  0  0  0  0  0  0
   -2.9912   -7.1153    0.3241 C   0  0  0  0  0  0  0  0  0  0  0  0
   -3.0277   -8.5650   -0.0965 C   0  0  0  0  0  0  0  0  0  0  0  0
   -4.2599   -9.2184    0.3424 N   0  0  0  0  0  0  0  0  0  0  0  0
   -4.0373   -6.5942    1.0314 N   0  0  0  0  0  0  0  0  0  0  0  0
   -6.2771   -5.2767    2.6642 C   0  0  0  0  0  0  0  0  0  0  0  0
   -6.5720   -6.9338    2.8309 S   0  0  0  0  0  0  0  0  0  0  0  0
   -8.1324   -6.8268    3.4620 C   0  0  0  0  0  0  0  0  0  0  0  0
   -8.4368   -5.4772    3.5398 C   0  0  0  0  0  0  0  0  0  0  0  0
   -7.4220   -4.6230    3.1095 C   0  0  0  0  0  0  0  0  0  0  0  0
   -7.6124   -3.2815    3.1209 N   0  0  0  0  0  0  0  0  0  0  0  0
   -8.7917   -2.7506    3.5629 C   0  0  0  0  0  0  0  0  0  0  0  0
   -8.9747   -1.2533    3.5410 C   0  0  0  0  0  0  0  0  0  0  0  0
   -7.6856   -0.5683    3.5068 N   0  0  0  0  0  0  0  0  0  0  0  0
   -9.8394   -3.6266    3.9708 C   0  0  0  0  0  0  0  0  0  0  0  0
  -11.1696   -3.1002    4.4528 C   0  0  0  0  0  0  0  0  0  0  0  0
  -12.1812   -4.1540    4.4687 N   0  0  0  0  0  0  0  0  0  0  0  0
   -9.6205   -4.9754    3.9649 N   0  0  0  0  0  0  0  0  0  0  0  0
    8.2053    4.3047   -7.8415 H   0  0  0  0  0  0  0  0  0  0  0  0
   11.1616   -0.3987   -5.5664 H   0  0  0  0  0  0  0  0  0  0  0  0
   11.8090    1.0375   -4.6968 H   0  0  0  0  0  0  0  0  0  0  0  0
   11.9963    2.1720   -6.7935 H   0  0  0  0  0  0  0  0  0  0  0  0
   11.3155    0.8593   -7.6255 H   0  0  0  0  0  0  0  0  0  0  0  0
    9.2623   -1.2592   -4.0898 H   0  0  0  0  0  0  0  0  0  0  0  0
   10.2895   -0.1413   -3.1105 H   0  0  0  0  0  0  0  0  0  0  0  0
    8.5575   -1.2444   -1.8571 H   0  0  0  0  0  0  0  0  0  0  0  0
    8.4606    0.4283   -1.7918 H   0  0  0  0  0  0  0  0  0  0  0  0
    0.4478    5.0108   -7.1000 H   0  0  0  0  0  0  0  0  0  0  0  0
    1.2159    6.3592   -6.1768 H   0  0  0  0  0  0  0  0  0  0  0  0
    2.0913    6.2423   -8.3460 H   0  0  0  0  0  0  0  0  0  0  0  0
    2.4510    4.6101   -8.2225 H   0  0  0  0  0  0  0  0  0  0  0  0
   -0.5983    5.4718   -4.6749 H   0  0  0  0  0  0  0  0  0  0  0  0
   -1.0178    3.8760   -5.4123 H   0  0  0  0  0  0  0  0  0  0  0  0
   -0.7935    4.5409   -2.5332 H   0  0  0  0  0  0  0  0  0  0  0  0
   -2.1901    4.2349   -3.4022 H   0  0  0  0  0  0  0  0  0  0  0  0
    4.9617    2.1410   -0.3102 H   0  0  0  0  0  0  0  0  0  0  0  0
    6.4988    3.4263    1.0776 H   0  0  0  0  0  0  0  0  0  0  0  0
    7.7421    2.6705    2.1424 H   0  0  0  0  0  0  0  0  0  0  0  0
    7.2256    1.8138    0.6411 H   0  0  0  0  0  0  0  0  0  0  0  0
    3.8913   -0.2284    5.8051 H   0  0  0  0  0  0  0  0  0  0  0  0
    3.1668   -1.2582    4.5142 H   0  0  0  0  0  0  0  0  0  0  0  0
    2.3774    0.3126    4.9888 H   0  0  0  0  0  0  0  0  0  0  0  0
    1.8186   -0.2987    2.6818 H   0  0  0  0  0  0  0  0  0  0  0  0
   -0.9158    2.2649    5.5581 H   0  0  0  0  0  0  0  0  0  0  0  0
   -1.7509    3.2735    4.3126 H   0  0  0  0  0  0  0  0  0  0  0  0
    1.0829    2.4159    4.3762 H   0  0  0  0  0  0  0  0  0  0  0  0
    0.4702    3.9637    4.5645 H   0  0  0  0  0  0  0  0  0  0  0  0
   -2.6858    0.3400    6.1687 H   0  0  0  0  0  0  0  0  0  0  0  0
   -3.4051    1.8041    5.3966 H   0  0  0  0  0  0  0  0  0  0  0  0
   -5.0892    0.5171    4.4484 H   0  0  0  0  0  0  0  0  0  0  0  0
   -5.0322    0.1929    6.0916 H   0  0  0  0  0  0  0  0  0  0  0  0
   -1.0633   -7.0967   -1.8038 H   0  0  0  0  0  0  0  0  0  0  0  0
   -0.2878   -7.6941   -0.2862 H   0  0  0  0  0  0  0  0  0  0  0  0
    1.0659   -6.1665   -1.5682 H   0  0  0  0  0  0  0  0  0  0  0  0
    0.7856   -5.6523    0.0019 H   0  0  0  0  0  0  0  0  0  0  0  0
   -2.1518   -9.1019    0.3292 H   0  0  0  0  0  0  0  0  0  0  0  0
   -2.9679   -8.6169   -1.2061 H   0  0  0  0  0  0  0  0  0  0  0  0
   -4.1987   -9.3675    1.3764 H   0  0  0  0  0  0  0  0  0  0  0  0
   -4.2875  -10.1695   -0.0902 H   0  0  0  0  0  0  0  0  0  0  0  0
   -8.7762   -7.6499    3.7392 H   0  0  0  0  0  0  0  0  0  0  0  0
   -9.5403   -0.9168    4.4375 H   0  0  0  0  0  0  0  0  0  0  0  0
   -9.5546   -0.9816    2.6326 H   0  0  0  0  0  0  0  0  0  0  0  0
   -7.2212   -0.7144    4.4338 H   0  0  0  0  0  0  0  0  0  0  0  0
   -7.8695    0.4574    3.4248 H   0  0  0  0  0  0  0  0  0  0  0  0
  -11.0417   -2.7017    5.4820 H   0  0  0  0  0  0  0  0  0  0  0  0
  -11.5162   -2.2736    3.7923 H   0  0  0  0  0  0  0  0  0  0  0  0
  -12.4103   -4.4002    3.4779 H   0  0  0  0  0  0  0  0  0  0  0  0
  -13.0544   -3.7510    4.8818 H   0  0  0  0  0  0  0  0  0  0  0  0
  1  2  1  0
  2  3  1  0
  3  4  2  0
  4  5  1  0
  5  6  1  0
  6  7  2  0
  7  8  1  0
  8  9  1  0
  7 10  1  0
 10 11  1  0
 11 12  1  0
 10 13  2  0
  3 14  1  0
 14 15  1  0
 15 16  1  0
 16 17  2  0
 17 18  1  0
 18 19  1  0
 19 20  2  0
 20 21  1  0
 21 22  1  0
 20 23  1  0
 23 24  1  0
 24 25  1  0
 23 26  2  0
 16 27  1  0
 27 28  1  0
 28 29  1  0
 29 30  2  0
 30 31  1  0
 31 32  1  0
 32 33  2  0
 33 34  1  0
 34 35  1  0
 33 36  1  0
 36 37  1  0
 37 38  1  0
 36 39  2  0
 29 40  1  0
 40 41  1  0
 41 42  1  0
 42 43  2  0
 43 44  1  0
 44 45  1  0
 45 46  2  0
 46 47  1  0
 47 48  1  0
 46 49  1  0
 49 50  1  0
 50 51  1  0
 49 52  2  0
 42 53  1  0
 53 54  1  0
 54 55  1  0
 55 56  2  0
 56 57  1  0
 57 58  1  0
 58 59  2  0
 59 60  1  0
 60 61  1  0
 59 62  1  0
 62 63  1  0
 63 64  1  0
 62 65  2  0
 55 66  1  0
 66 67  1  0
 67 68  1  0
 68 69  2  0
 69 70  1  0
 70 71  1  0
 71 72  2  0
 72 73  1  0
 73 74  1  0
 72 75  1  0
 75 76  1  0
 76 77  1  0
 75 78  2  0
  5  1  2  0
 18 14  2  0
 31 27  2  0
 44 40  2  0
 57 53  2  0
 70 66  2  0
 13  4  1  0
 26 17  1  0
 39 30  1  0
 52 43  1  0
 65 56  1  0
 78 69  1  0
  1 79  1  0
  8 80  1  0
  8 81  1  0
  9 82  1  0
  9 83  1  0
 11 84  1  0
 11 85  1  0
 12 86  1  0
 12 87  1  0
 21 88  1  0
 21 89  1  0
 22 90  1  0
 22 91  1  0
 24 92  1  0
 24 93  1  0
 25 94  1  0
 25 95  1  0
 32 96  1  0
 35 97  1  0
 35 98  1  0
 35 99  1  0
 38100  1  0
 38101  1  0
 38102  1  0
 39103  1  0
 47104  1  0
 47105  1  0
 48106  1  0
 48107  1  0
 50108  1  0
 50109  1  0
 51110  1  0
 51111  1  0
 60112  1  0
 60113  1  0
 61114  1  0
 61115  1  0
 63116  1  0
 63117  1  0
 64118  1  0
 64119  1  0
 68120  1  0
 73121  1  0
 73122  1  0
 74123  1  0
 74124  1  0
 76125  1  0
 76126  1  0
 77127  1  0
 77128  1  0
M  END

