
     RDKit          3D

108119  0  0  0  0  0  0  0  0999 V2000
    5.5064    5.6304   -7.6469 C   0  0  0  0  0  0  0  0  0  0  0  0
    4.6440    5.2269   -6.7188 C   0  0  0  0  0  0  0  0  0  0  0  0
    5.0460    3.9055   -6.2807 C   0  0  0  0  0  0  0  0  0  0  0  0
    6.1340    3.5512   -6.9023 C   0  0  0  0  0  0  0  0  0  0  0  0
    6.5823    4.6050   -7.8583 C   0  0  0  0  0  0  0  0  0  0  0  0
    6.9666    2.7389   -6.0908 N   0  0  0  0  0  0  0  0  0  0  0  0
    6.3172    2.5217   -4.9865 C   0  0  0  0  0  0  0  0  0  0  0  0
    5.0277    3.3057   -4.9207 C   0  0  0  0  0  0  0  0  0  0  0  0
    7.0352    2.0339   -3.8012 C   0  0  0  0  0  0  0  0  0  0  0  0
    6.8498    0.8666   -3.1737 C   0  0  0  0  0  0  0  0  0  0  0  0
    5.8097   -0.1527   -3.4473 C   0  0  0  0  0  0  0  0  0  0  0  0
    5.8587   -1.3705   -2.9074 C   0  0  0  0  0  0  0  0  0  0  0  0
    4.6202   -2.0567   -3.2126 C   0  0  0  0  0  0  0  0  0  0  0  0
    3.8358   -1.2603   -3.8784 C   0  0  0  0  0  0  0  0  0  0  0  0
    4.4773    0.0648   -4.1104 C   0  0  0  0  0  0  0  0  0  0  0  0
    2.4651   -1.4960   -3.5957 N   0  0  0  0  0  0  0  0  0  0  0  0
    2.4324   -2.4813   -2.7511 C   0  0  0  0  0  0  0  0  0  0  0  0
    3.8038   -2.9617   -2.3567 C   0  0  0  0  0  0  0  0  0  0  0  0
    1.1818   -3.0112   -2.1779 C   0  0  0  0  0  0  0  0  0  0  0  0
   -0.0192   -2.6403   -2.6357 C   0  0  0  0  0  0  0  0  0  0  0  0
   -1.2822   -3.1642   -2.0720 C   0  0  0  0  0  0  0  0  0  0  0  0
   -1.4819   -3.8326   -0.5327 S   0  0  0  0  0  0  0  0  0  0  0  0
   -3.1484   -4.0859   -0.6234 C   0  0  0  0  0  0  0  0  0  0  0  0
   -3.5689   -3.6832   -1.8981 C   0  0  0  0  0  0  0  0  0  0  0  0
   -2.5391   -3.1423   -2.6880 C   0  0  0  0  0  0  0  0  0  0  0  0
   -2.8105   -2.6740   -3.9805 C   0  0  0  0  0  0  0  0  0  0  0  0
   -4.1234   -2.7529   -4.4908 C   0  0  0  0  0  0  0  0  0  0  0  0
   -4.4570   -2.2543   -5.7607 O   0  0  0  0  0  0  0  0  0  0  0  0
   -3.5566   -1.5545   -6.6125 C   0  0  0  0  0  0  0  0  0  0  0  0
   -5.1454   -3.3408   -3.7206 C   0  0  0  0  0  0  0  0  0  0  0  0
   -6.4292   -3.4408   -4.2825 O   0  0  0  0  0  0  0  0  0  0  0  0
   -7.5631   -3.9889   -3.6123 C   0  0  0  0  0  0  0  0  0  0  0  0
   -4.8622   -3.8156   -2.4225 C   0  0  0  0  0  0  0  0  0  0  0  0
   -3.9703   -4.5896    0.4969 C   0  0  0  0  0  0  0  0  0  0  0  0
   -5.2196   -4.1965    0.7617 C   0  0  0  0  0  0  0  0  0  0  0  0
   -5.6411   -4.8369    1.9912 C   0  0  0  0  0  0  0  0  0  0  0  0
   -4.6621   -5.5449    2.4765 C   0  0  0  0  0  0  0  0  0  0  0  0
   -3.4509   -5.4698    1.6076 C   0  0  0  0  0  0  0  0  0  0  0  0
   -4.7023   -5.6175    3.8922 N   0  0  0  0  0  0  0  0  0  0  0  0
   -5.7417   -4.9252    4.2507 C   0  0  0  0  0  0  0  0  0  0  0  0
   -6.4958   -4.3343    3.0938 C   0  0  0  0  0  0  0  0  0  0  0  0
   -6.1790   -4.8074    5.6471 C   0  0  0  0  0  0  0  0  0  0  0  0
   -5.4833   -4.2251    6.6362 C   0  0  0  0  0  0  0  0  0  0  0  0
   -4.1986   -3.4923    6.5118 C   0  0  0  0  0  0  0  0  0  0  0  0
   -3.6168   -2.8978    7.5548 C   0  0  0  0  0  0  0  0  0  0  0  0
   -2.4498   -2.1841    7.0757 C   0  0  0  0  0  0  0  0  0  0  0  0
   -2.3686   -2.3143    5.7884 C   0  0  0  0  0  0  0  0  0  0  0  0
   -3.4512   -3.1657    5.2405 C   0  0  0  0  0  0  0  0  0  0  0  0
   -1.7403   -1.2104    5.1681 N   0  0  0  0  0  0  0  0  0  0  0  0
   -1.4021   -0.4074    6.1301 C   0  0  0  0  0  0  0  0  0  0  0  0
   -1.8409   -0.8912    7.4870 C   0  0  0  0  0  0  0  0  0  0  0  0
   -0.6735    0.8551    5.9027 C   0  0  0  0  0  0  0  0  0  0  0  0
   -0.2346    1.1960    4.6865 C   0  0  0  0  0  0  0  0  0  0  0  0
    0.5541    2.4129    4.4325 C   0  0  0  0  0  0  0  0  0  0  0  0
    1.0731    2.6994    3.2386 C   0  0  0  0  0  0  0  0  0  0  0  0
    1.7926    3.9483    3.3610 C   0  0  0  0  0  0  0  0  0  0  0  0
    1.6635    4.4168    4.5677 C   0  0  0  0  0  0  0  0  0  0  0  0
    0.8552    3.5068    5.4280 C   0  0  0  0  0  0  0  0  0  0  0  0
    1.7160    5.8340    4.6033 N   0  0  0  0  0  0  0  0  0  0  0  0
    1.9230    6.2146    3.3797 C   0  0  0  0  0  0  0  0  0  0  0  0
    1.9688    5.0654    2.4019 C   0  0  0  0  0  0  0  0  0  0  0  0
    2.0602    7.6375    3.0267 C   0  0  0  0  0  0  0  0  0  0  0  0
    2.2927    8.0448    1.7811 C   0  0  0  0  0  0  0  0  0  0  0  0
    5.4613    6.5948   -8.1353 H   0  0  0  0  0  0  0  0  0  0  0  0
    3.8200    5.8119   -6.3310 H   0  0  0  0  0  0  0  0  0  0  0  0
    7.5745    5.0135   -7.5687 H   0  0  0  0  0  0  0  0  0  0  0  0
    6.5837    4.2277   -8.9047 H   0  0  0  0  0  0  0  0  0  0  0  0
    5.0710    4.0922   -4.1334 H   0  0  0  0  0  0  0  0  0  0  0  0
    4.1326    2.6639   -4.8231 H   0  0  0  0  0  0  0  0  0  0  0  0
    7.8930    2.6226   -3.4934 H   0  0  0  0  0  0  0  0  0  0  0  0
    7.5593    0.6216   -2.3911 H   0  0  0  0  0  0  0  0  0  0  0  0
    6.6491   -1.7429   -2.2694 H   0  0  0  0  0  0  0  0  0  0  0  0
    3.9015    0.8473   -3.5727 H   0  0  0  0  0  0  0  0  0  0  0  0
    4.5824    0.2635   -5.1981 H   0  0  0  0  0  0  0  0  0  0  0  0
    3.9632   -4.0259   -2.6360 H   0  0  0  0  0  0  0  0  0  0  0  0
    3.9895   -2.7753   -1.2790 H   0  0  0  0  0  0  0  0  0  0  0  0
    1.2576   -3.7436   -1.3792 H   0  0  0  0  0  0  0  0  0  0  0  0
   -0.0790   -1.9387   -3.4613 H   0  0  0  0  0  0  0  0  0  0  0  0
   -2.0184   -2.2598   -4.5835 H   0  0  0  0  0  0  0  0  0  0  0  0
   -4.0994   -1.2261   -7.5224 H   0  0  0  0  0  0  0  0  0  0  0  0
   -2.7227   -2.2198   -6.9120 H   0  0  0  0  0  0  0  0  0  0  0  0
   -3.1602   -0.6560   -6.0951 H   0  0  0  0  0  0  0  0  0  0  0  0
   -7.3809   -5.0566   -3.3627 H   0  0  0  0  0  0  0  0  0  0  0  0
   -8.4491   -3.9256   -4.2799 H   0  0  0  0  0  0  0  0  0  0  0  0
   -7.7781   -3.4087   -2.6868 H   0  0  0  0  0  0  0  0  0  0  0  0
   -5.6289   -4.3116   -1.8503 H   0  0  0  0  0  0  0  0  0  0  0  0
   -5.7703   -3.4325    0.2346 H   0  0  0  0  0  0  0  0  0  0  0  0
   -2.6122   -4.9749    2.1428 H   0  0  0  0  0  0  0  0  0  0  0  0
   -3.1693   -6.4755    1.2327 H   0  0  0  0  0  0  0  0  0  0  0  0
   -7.5250   -4.7531    3.0231 H   0  0  0  0  0  0  0  0  0  0  0  0
   -6.4861   -3.2253    3.1414 H   0  0  0  0  0  0  0  0  0  0  0  0
   -7.1630   -5.1999    5.8790 H   0  0  0  0  0  0  0  0  0  0  0  0
   -5.9401   -4.2414    7.6174 H   0  0  0  0  0  0  0  0  0  0  0  0
   -3.9957   -2.8948    8.5698 H   0  0  0  0  0  0  0  0  0  0  0  0
   -2.9910   -4.0629    4.7817 H   0  0  0  0  0  0  0  0  0  0  0  0
   -4.0860   -2.5876    4.5335 H   0  0  0  0  0  0  0  0  0  0  0  0
   -2.5978   -0.2106    7.9285 H   0  0  0  0  0  0  0  0  0  0  0  0
   -0.9732   -1.0551    8.1623 H   0  0  0  0  0  0  0  0  0  0  0  0
   -0.4733    1.4915    6.7572 H   0  0  0  0  0  0  0  0  0  0  0  0
   -0.4279    0.5441    3.8426 H   0  0  0  0  0  0  0  0  0  0  0  0
    0.9532    2.1175    2.3340 H   0  0  0  0  0  0  0  0  0  0  0  0
   -0.0785    4.0036    5.7673 H   0  0  0  0  0  0  0  0  0  0  0  0
    1.4578    3.1267    6.2801 H   0  0  0  0  0  0  0  0  0  0  0  0
    2.9530    4.9994    1.8880 H   0  0  0  0  0  0  0  0  0  0  0  0
    1.1163    5.1224    1.6884 H   0  0  0  0  0  0  0  0  0  0  0  0
    1.9762    8.3797    3.8131 H   0  0  0  0  0  0  0  0  0  0  0  0
    2.3919    7.3444    0.9593 H   0  0  0  0  0  0  0  0  0  0  0  0
    2.3974    9.1005    1.5707 H   0  0  0  0  0  0  0  0  0  0  0  0
  1  2  2  0
  2  3  1  0
  3  4  2  0
  4  5  1  0
  4  6  1  0
  6  7  2  0
  7  8  1  0
  7  9  1  0
  9 10  2  3
 10 11  1  0
 11 12  2  0
 12 13  1  0
 13 14  2  0
 14 15  1  0
 14 16  1  0
 16 17  2  0
 17 18  1  0
 17 19  1  0
 19 20  2  3
 20 21  1  0
 21 22  1  0
 22 23  1  0
 23 24  2  0
 24 25  1  0
 25 26  1  0
 26 27  2  0
 27 28  1  0
 28 29  1  0
 27 30  1  0
 30 31  1  0
 31 32  1  0
 30 33  2  0
 23 34  1  0
 34 35  2  0
 35 36  1  0
 36 37  2  0
 37 38  1  0
 37 39  1  0
 39 40  2  0
 40 41  1  0
 40 42  1  0
 42 43  2  3
 43 44  1  0
 44 45  2  0
 45 46  1  0
 46 47  2  0
 47 48  1  0
 47 49  1  0
 49 50  2  0
 50 51  1  0
 50 52  1  0
 52 53  2  3
 53 54  1  0
 54 55  2  0
 55 56  1  0
 56 57  2  0
 57 58  1  0
 57 59  1  0
 59 60  2  0
 60 61  1  0
 60 62  1  0
 62 63  2  3
  5  1  1  0
 15 11  1  0
 25 21  2  0
 38 34  1  0
 48 44  1  0
 58 54  1  0
  8  3  1  0
 18 13  1  0
 33 24  1  0
 41 36  1  0
 51 46  1  0
 61 56  1  0
  1 64  1  0
  2 65  1  0
  5 66  1  0
  5 67  1  0
  8 68  1  0
  8 69  1  0
  9 70  1  0
 10 71  1  0
 12 72  1  0
 15 73  1  0
 15 74  1  0
 18 75  1  0
 18 76  1  0
 19 77  1  0
 20 78  1  0
 26 79  1  0
 29 80  1  0
 29 81  1  0
 29 82  1  0
 32 83  1  0
 32 84  1  0
 32 85  1  0
 33 86  1  0
 35 87  1  0
 38 88  1  0
 38 89  1  0
 41 90  1  0
 41 91  1  0
 42 92  1  0
 43 93  1  0
 45 94  1  0
 48 95  1  0
 48 96  1  0
 51 97  1  0
 51 98  1  0
 52 99  1  0
 53100  1  0
 55101  1  0
 58102  1  0
 58103  1  0
 61104  1  0
 61105  1  0
 62106  1  0
 63107  1  0
 63108  1  0
M  END

