
     RDKit          3D

118129  0  0  0  0  0  0  0  0999 V2000
    2.8821    1.1502    5.2175 C   0  0  0  0  0  0  0  0  0  0  0  0
    2.0179    0.9680    3.7901 S   0  0  0  0  0  0  0  0  0  0  0  0
    2.3334    2.4892    3.1263 C   0  0  0  0  0  0  0  0  0  0  0  0
    3.1421    3.1779    4.0463 C   0  0  0  0  0  0  0  0  0  0  0  0
    3.4276    2.4307    5.2134 C   0  0  0  0  0  0  0  0  0  0  0  0
    4.1876    2.9894    6.2564 C   0  0  0  0  0  0  0  0  0  0  0  0
    4.5297    2.0866    7.7683 S   0  0  0  0  0  0  0  0  0  0  0  0
    4.6769    4.2938    6.1158 C   0  0  0  0  0  0  0  0  0  0  0  0
    4.4411    5.0227    4.9436 C   0  0  0  0  0  0  0  0  0  0  0  0
    3.6824    4.4718    3.8955 C   0  0  0  0  0  0  0  0  0  0  0  0
    3.5021    5.1994    2.7213 O   0  0  0  0  0  0  0  0  0  0  0  0
    1.6848    3.0537    1.9181 C   0  0  0  0  0  0  0  0  0  0  0  0
    1.2671    2.3517    0.8598 C   0  0  0  0  0  0  0  0  0  0  0  0
    1.3931    0.8970    0.7156 C   0  0  0  0  0  0  0  0  0  0  0  0
    0.0566   -0.1188    0.7701 S   0  0  0  0  0  0  0  0  0  0  0  0
    0.8391   -1.5324    0.3270 C   0  0  0  0  0  0  0  0  0  0  0  0
    2.1793   -1.2169    0.0468 C   0  0  0  0  0  0  0  0  0  0  0  0
    2.5013    0.1475    0.2817 C   0  0  0  0  0  0  0  0  0  0  0  0
    3.8047    0.6188   -0.0103 C   0  0  0  0  0  0  0  0  0  0  0  0
    4.3096    2.3257    0.1939 S   0  0  0  0  0  0  0  0  0  0  0  0
    4.7576   -0.2765   -0.5114 C   0  0  0  0  0  0  0  0  0  0  0  0
    4.4232   -1.6048   -0.7823 C   0  0  0  0  0  0  0  0  0  0  0  0
    3.1295   -2.0790   -0.5348 C   0  0  0  0  0  0  0  0  0  0  0  0
    2.7937   -3.3727   -0.9192 O   0  0  0  0  0  0  0  0  0  0  0  0
    0.1371   -2.8203    0.1772 C   0  0  0  0  0  0  0  0  0  0  0  0
    0.5763   -3.9403    0.7688 C   0  0  0  0  0  0  0  0  0  0  0  0
   -0.1205   -5.2401    0.6085 C   0  0  0  0  0  0  0  0  0  0  0  0
   -1.7215   -5.3591    0.1321 S   0  0  0  0  0  0  0  0  0  0  0  0
   -1.8932   -7.0269    0.1236 C   0  0  0  0  0  0  0  0  0  0  0  0
   -0.6591   -7.5493    0.5698 C   0  0  0  0  0  0  0  0  0  0  0  0
    0.3476   -6.5581    0.8050 C   0  0  0  0  0  0  0  0  0  0  0  0
    1.6615   -6.9691    1.1622 C   0  0  0  0  0  0  0  0  0  0  0  0
    3.0657   -5.8679    1.3362 S   0  0  0  0  0  0  0  0  0  0  0  0
    1.9301   -8.3310    1.3360 C   0  0  0  0  0  0  0  0  0  0  0  0
    0.9310   -9.2877    1.1689 C   0  0  0  0  0  0  0  0  0  0  0  0
   -0.3639   -8.9152    0.7920 C   0  0  0  0  0  0  0  0  0  0  0  0
   -1.3358   -9.9066    0.6726 O   0  0  0  0  0  0  0  0  0  0  0  0
   -3.0855   -7.7787   -0.3798 C   0  0  0  0  0  0  0  0  0  0  0  0
   -4.2108   -7.2564   -0.8962 C   0  0  0  0  0  0  0  0  0  0  0  0
   -4.5013   -5.8253   -1.0363 C   0  0  0  0  0  0  0  0  0  0  0  0
   -3.9266   -4.8907   -2.3146 S   0  0  0  0  0  0  0  0  0  0  0  0
   -4.4851   -3.4136   -1.7447 C   0  0  0  0  0  0  0  0  0  0  0  0
   -5.1935   -3.6421   -0.5516 C   0  0  0  0  0  0  0  0  0  0  0  0
   -5.1867   -4.9937   -0.1411 C   0  0  0  0  0  0  0  0  0  0  0  0
   -5.8098   -5.3670    1.0739 C   0  0  0  0  0  0  0  0  0  0  0  0
   -5.8195   -7.0449    1.7124 S   0  0  0  0  0  0  0  0  0  0  0  0
   -6.4300   -4.3776    1.8454 C   0  0  0  0  0  0  0  0  0  0  0  0
   -6.4849   -3.0516    1.4091 C   0  0  0  0  0  0  0  0  0  0  0  0
   -5.8863   -2.6740    0.2006 C   0  0  0  0  0  0  0  0  0  0  0  0
   -6.0169   -1.3637   -0.2579 O   0  0  0  0  0  0  0  0  0  0  0  0
   -3.9843   -2.1289   -2.2609 C   0  0  0  0  0  0  0  0  0  0  0  0
   -3.4171   -1.2439   -1.4373 C   0  0  0  0  0  0  0  0  0  0  0  0
   -2.8501    0.0326   -1.8973 C   0  0  0  0  0  0  0  0  0  0  0  0
   -2.1517    0.3252   -3.4059 S   0  0  0  0  0  0  0  0  0  0  0  0
   -1.6189    1.8894   -3.0655 C   0  0  0  0  0  0  0  0  0  0  0  0
   -2.0088    2.2112   -1.7676 C   0  0  0  0  0  0  0  0  0  0  0  0
   -2.7004    1.1792   -1.1197 C   0  0  0  0  0  0  0  0  0  0  0  0
   -3.2185    1.3698    0.1643 C   0  0  0  0  0  0  0  0  0  0  0  0
   -3.0197    2.6031    0.8215 C   0  0  0  0  0  0  0  0  0  0  0  0
   -3.5557    2.8588    2.0962 O   0  0  0  0  0  0  0  0  0  0  0  0
   -4.4471    1.9863    2.7855 C   0  0  0  0  0  0  0  0  0  0  0  0
   -2.2659    3.6186    0.1955 C   0  0  0  0  0  0  0  0  0  0  0  0
   -2.0405    4.8094    0.9051 O   0  0  0  0  0  0  0  0  0  0  0  0
   -1.1487    5.8364    0.4908 C   0  0  0  0  0  0  0  0  0  0  0  0
   -1.7718    3.4241   -1.1149 C   0  0  0  0  0  0  0  0  0  0  0  0
   -0.9989    2.7956   -4.0387 C   0  0  0  0  0  0  0  0  0  0  0  0
   -1.8626    4.0033   -4.8225 S   0  0  0  0  0  0  0  0  0  0  0  0
   -0.6110    4.5661   -5.7860 C   0  0  0  0  0  0  0  0  0  0  0  0
    0.5246    3.7782   -5.5348 C   0  0  0  0  0  0  0  0  0  0  0  0
    0.3151    2.7936   -4.5356 C   0  0  0  0  0  0  0  0  0  0  0  0
    1.3818    1.9546   -4.1398 C   0  0  0  0  0  0  0  0  0  0  0  0
    1.2438    0.7472   -2.8239 S   0  0  0  0  0  0  0  0  0  0  0  0
    2.6204    2.0766   -4.7821 C   0  0  0  0  0  0  0  0  0  0  0  0
    2.8044    3.0011   -5.8139 C   0  0  0  0  0  0  0  0  0  0  0  0
    1.7609    3.8501   -6.2083 C   0  0  0  0  0  0  0  0  0  0  0  0
    1.9554    4.7249   -7.2747 O   0  0  0  0  0  0  0  0  0  0  0  0
   -0.7679    5.7108   -6.6951 C   0  0  0  0  0  0  0  0  0  0  0  0
    0.0509    6.7560   -6.6611 C   0  0  0  0  0  0  0  0  0  0  0  0
    2.9707    0.4115    6.0000 H   0  0  0  0  0  0  0  0  0  0  0  0
    5.7249    1.5548    7.2465 H   0  0  0  0  0  0  0  0  0  0  0  0
    5.2565    4.7431    6.9130 H   0  0  0  0  0  0  0  0  0  0  0  0
    4.8504    6.0195    4.8486 H   0  0  0  0  0  0  0  0  0  0  0  0
    3.8952    6.1255    2.6044 H   0  0  0  0  0  0  0  0  0  0  0  0
    1.5186    4.1206    1.8849 H   0  0  0  0  0  0  0  0  0  0  0  0
    0.7665    2.8797    0.0591 H   0  0  0  0  0  0  0  0  0  0  0  0
    3.9327    2.6493   -1.1222 H   0  0  0  0  0  0  0  0  0  0  0  0
    5.7645    0.0618   -0.7273 H   0  0  0  0  0  0  0  0  0  0  0  0
    5.1704   -2.2593   -1.2134 H   0  0  0  0  0  0  0  0  0  0  0  0
    3.4634   -3.9809   -1.3739 H   0  0  0  0  0  0  0  0  0  0  0  0
   -0.7887   -2.8196   -0.3823 H   0  0  0  0  0  0  0  0  0  0  0  0
    1.4477   -3.8677    1.3973 H   0  0  0  0  0  0  0  0  0  0  0  0
    3.4257   -6.0393   -0.0123 H   0  0  0  0  0  0  0  0  0  0  0  0
    2.9279   -8.6594    1.6071 H   0  0  0  0  0  0  0  0  0  0  0  0
    1.1638  -10.3313    1.3333 H   0  0  0  0  0  0  0  0  0  0  0  0
   -1.1294  -10.8846    0.8337 H   0  0  0  0  0  0  0  0  0  0  0  0
   -3.0669   -8.8558   -0.3683 H   0  0  0  0  0  0  0  0  0  0  0  0
   -4.9989   -7.9373   -1.2012 H   0  0  0  0  0  0  0  0  0  0  0  0
   -4.5177   -6.9012    2.2222 H   0  0  0  0  0  0  0  0  0  0  0  0
   -6.8975   -4.6407    2.7878 H   0  0  0  0  0  0  0  0  0  0  0  0
   -7.0010   -2.3135    2.0093 H   0  0  0  0  0  0  0  0  0  0  0  0
   -6.5021   -0.6562    0.2806 H   0  0  0  0  0  0  0  0  0  0  0  0
   -3.9867   -1.9626   -3.3303 H   0  0  0  0  0  0  0  0  0  0  0  0
   -3.3854   -1.4553   -0.3753 H   0  0  0  0  0  0  0  0  0  0  0  0
   -3.7909    0.5853    0.6364 H   0  0  0  0  0  0  0  0  0  0  0  0
   -3.9324    1.0290    3.0269 H   0  0  0  0  0  0  0  0  0  0  0  0
   -4.7665    2.4686    3.7331 H   0  0  0  0  0  0  0  0  0  0  0  0
   -5.3459    1.7883    2.1686 H   0  0  0  0  0  0  0  0  0  0  0  0
   -0.1220    5.4266    0.3733 H   0  0  0  0  0  0  0  0  0  0  0  0
   -1.4963    6.2843   -0.4633 H   0  0  0  0  0  0  0  0  0  0  0  0
   -1.1261    6.6317    1.2675 H   0  0  0  0  0  0  0  0  0  0  0  0
   -1.2143    4.2030   -1.6152 H   0  0  0  0  0  0  0  0  0  0  0  0
    0.8849   -0.2773   -3.7141 H   0  0  0  0  0  0  0  0  0  0  0  0
    3.4504    1.4422   -4.4899 H   0  0  0  0  0  0  0  0  0  0  0  0
    3.7642    3.0542   -6.3173 H   0  0  0  0  0  0  0  0  0  0  0  0
    2.8409    4.7789   -7.7614 H   0  0  0  0  0  0  0  0  0  0  0  0
   -1.6506    5.7532   -7.3216 H   0  0  0  0  0  0  0  0  0  0  0  0
    0.8878    6.7922   -5.9768 H   0  0  0  0  0  0  0  0  0  0  0  0
   -0.1317    7.6064   -7.3048 H   0  0  0  0  0  0  0  0  0  0  0  0
  1  2  1  0
  2  3  1  0
  3  4  2  0
  4  5  1  0
  5  6  1  0
  6  7  1  0
  6  8  2  0
  8  9  1  0
  9 10  2  0
 10 11  1  0
  3 12  1  0
 12 13  2  3
 13 14  1  0
 14 15  1  0
 15 16  1  0
 16 17  2  0
 17 18  1  0
 18 19  1  0
 19 20  1  0
 19 21  2  0
 21 22  1  0
 22 23  2  0
 23 24  1  0
 16 25  1  0
 25 26  2  3
 26 27  1  0
 27 28  1  0
 28 29  1  0
 29 30  2  0
 30 31  1  0
 31 32  1  0
 32 33  1  0
 32 34  2  0
 34 35  1  0
 35 36  2  0
 36 37  1  0
 29 38  1  0
 38 39  2  3
 39 40  1  0
 40 41  1  0
 41 42  1  0
 42 43  2  0
 43 44  1  0
 44 45  1  0
 45 46  1  0
 45 47  2  0
 47 48  1  0
 48 49  2  0
 49 50  1  0
 42 51  1  0
 51 52  2  3
 52 53  1  0
 53 54  1  0
 54 55  1  0
 55 56  2  0
 56 57  1  0
 57 58  1  0
 58 59  2  0
 59 60  1  0
 60 61  1  0
 59 62  1  0
 62 63  1  0
 63 64  1  0
 62 65  2  0
 55 66  1  0
 66 67  1  0
 67 68  1  0
 68 69  2  0
 69 70  1  0
 70 71  1  0
 71 72  1  0
 71 73  2  0
 73 74  1  0
 74 75  2  0
 75 76  1  0
 68 77  1  0
 77 78  2  3
  5  1  2  0
 18 14  2  0
 31 27  2  0
 44 40  2  0
 57 53  2  0
 70 66  2  0
 10  4  1  0
 23 17  1  0
 36 30  1  0
 49 43  1  0
 65 56  1  0
 75 69  1  0
  1 79  1  0
  7 80  1  0
  8 81  1  0
  9 82  1  0
 11 83  1  0
 12 84  1  0
 13 85  1  0
 20 86  1  0
 21 87  1  0
 22 88  1  0
 24 89  1  0
 25 90  1  0
 26 91  1  0
 33 92  1  0
 34 93  1  0
 35 94  1  0
 37 95  1  0
 38 96  1  0
 39 97  1  0
 46 98  1  0
 47 99  1  0
 48100  1  0
 50101  1  0
 51102  1  0
 52103  1  0
 58104  1  0
 61105  1  0
 61106  1  0
 61107  1  0
 64108  1  0
 64109  1  0
 64110  1  0
 65111  1  0
 72112  1  0
 73113  1  0
 74114  1  0
 76115  1  0
 77116  1  0
 78117  1  0
 78118  1  0
M  END

