
     RDKit          3D

188203  0  0  0  0  0  0  0  0999 V2000
   10.6078   -2.4815    1.6143 C   0  0  0  0  0  0  0  0  0  0  0  0
    9.1820   -2.3073    2.4960 S   0  0  0  0  0  0  0  0  0  0  0  0
    8.2854   -3.4794    1.6843 C   0  0  0  0  0  0  0  0  0  0  0  0
    9.1134   -4.0531    0.7187 C   0  0  0  0  0  0  0  0  0  0  0  0
   10.3928   -3.4794    0.6698 C   0  0  0  0  0  0  0  0  0  0  0  0
   11.3349   -3.9104   -0.2646 C   0  0  0  0  0  0  0  0  0  0  0  0
   10.9931   -4.9441   -1.1655 C   0  0  0  0  0  0  0  0  0  0  0  0
   11.8853   -5.3897   -2.1523 O   0  0  0  0  0  0  0  0  0  0  0  0
   13.1496   -4.7964   -2.4231 C   0  0  0  0  0  0  0  0  0  0  0  0
    9.7235   -5.5527   -1.0937 C   0  0  0  0  0  0  0  0  0  0  0  0
    9.4338   -6.5881   -1.9965 O   0  0  0  0  0  0  0  0  0  0  0  0
    8.1721   -7.2355   -2.1049 C   0  0  0  0  0  0  0  0  0  0  0  0
    8.7835   -5.1093   -0.1382 C   0  0  0  0  0  0  0  0  0  0  0  0
    6.8616   -3.7690    1.9288 C   0  0  0  0  0  0  0  0  0  0  0  0
    6.1985   -4.1515    3.4243 S   0  0  0  0  0  0  0  0  0  0  0  0
    4.6116   -4.3942    2.9031 C   0  0  0  0  0  0  0  0  0  0  0  0
    4.5896   -4.1808    1.5122 C   0  0  0  0  0  0  0  0  0  0  0  0
    5.8343   -3.7924    0.9859 C   0  0  0  0  0  0  0  0  0  0  0  0
    5.9559   -3.4320   -0.3630 C   0  0  0  0  0  0  0  0  0  0  0  0
    4.8421   -3.5420   -1.2183 C   0  0  0  0  0  0  0  0  0  0  0  0
    4.9178   -3.2022   -2.5782 O   0  0  0  0  0  0  0  0  0  0  0  0
    6.0031   -2.4957   -3.1740 C   0  0  0  0  0  0  0  0  0  0  0  0
    3.6187   -4.0218   -0.7136 C   0  0  0  0  0  0  0  0  0  0  0  0
    2.5417   -4.1382   -1.6072 O   0  0  0  0  0  0  0  0  0  0  0  0
    1.2304   -4.5661   -1.2459 C   0  0  0  0  0  0  0  0  0  0  0  0
    3.4942   -4.3494    0.6536 C   0  0  0  0  0  0  0  0  0  0  0  0
    3.4643   -4.6344    3.8151 C   0  0  0  0  0  0  0  0  0  0  0  0
    2.2276   -4.0131    3.5841 C   0  0  0  0  0  0  0  0  0  0  0  0
    1.1534   -4.1836    4.4699 C   0  0  0  0  0  0  0  0  0  0  0  0
    1.3249   -4.9531    5.6405 C   0  0  0  0  0  0  0  0  0  0  0  0
    2.5711   -5.5514    5.8848 C   0  0  0  0  0  0  0  0  0  0  0  0
    3.6287   -5.3934    4.9838 C   0  0  0  0  0  0  0  0  0  0  0  0
    0.2523   -5.1261    6.5887 N   0  0  0  0  0  0  0  0  0  0  0  0
   -1.0264   -5.6277    6.1411 C   0  0  0  0  0  0  0  0  0  0  0  0
   -2.2192   -5.0338    6.5863 C   0  0  0  0  0  0  0  0  0  0  0  0
   -3.4526   -5.4746    6.1008 C   0  0  0  0  0  0  0  0  0  0  0  0
   -3.5061   -6.5202    5.1727 C   0  0  0  0  0  0  0  0  0  0  0  0
   -2.3269   -7.1205    4.7258 C   0  0  0  0  0  0  0  0  0  0  0  0
   -1.0916   -6.6781    5.2051 C   0  0  0  0  0  0  0  0  0  0  0  0
    0.4779   -4.8119    7.9819 C   0  0  0  0  0  0  0  0  0  0  0  0
   -0.0754   -5.6120    9.0005 C   0  0  0  0  0  0  0  0  0  0  0  0
    0.1669   -5.3136   10.3438 C   0  0  0  0  0  0  0  0  0  0  0  0
    0.9607   -4.2167   10.6853 C   0  0  0  0  0  0  0  0  0  0  0  0
    1.5162   -3.4181    9.6848 C   0  0  0  0  0  0  0  0  0  0  0  0
    1.2780   -3.7116    8.3400 C   0  0  0  0  0  0  0  0  0  0  0  0
   -0.0997   -3.4923    4.1260 C   0  0  0  0  0  0  0  0  0  0  0  0
   -0.5366   -2.4389    4.8332 C   0  0  0  0  0  0  0  0  0  0  0  0
   -1.3258   -1.3534    4.2039 C   0  0  0  0  0  0  0  0  0  0  0  0
   -1.1638   -1.0593    2.8380 C   0  0  0  0  0  0  0  0  0  0  0  0
   -1.6731    0.1178    2.2800 C   0  0  0  0  0  0  0  0  0  0  0  0
   -2.3791    1.0323    3.0951 C   0  0  0  0  0  0  0  0  0  0  0  0
   -2.5893    0.7127    4.4505 C   0  0  0  0  0  0  0  0  0  0  0  0
   -2.0602   -0.4625    5.0020 C   0  0  0  0  0  0  0  0  0  0  0  0
   -2.6501    2.3730    2.6291 N   0  0  0  0  0  0  0  0  0  0  0  0
   -1.5165    3.2668    2.5814 C   0  0  0  0  0  0  0  0  0  0  0  0
   -1.0307    3.7421    1.3523 C   0  0  0  0  0  0  0  0  0  0  0  0
    0.1046    4.5584    1.3116 C   0  0  0  0  0  0  0  0  0  0  0  0
    0.7651    4.8978    2.4965 C   0  0  0  0  0  0  0  0  0  0  0  0
    0.2899    4.4246    3.7218 C   0  0  0  0  0  0  0  0  0  0  0  0
   -0.8423    3.6082    3.7656 C   0  0  0  0  0  0  0  0  0  0  0  0
   -4.0049    2.8647    2.4514 C   0  0  0  0  0  0  0  0  0  0  0  0
   -5.1179    2.1071    2.8798 C   0  0  0  0  0  0  0  0  0  0  0  0
   -6.4122    2.6177    2.7780 C   0  0  0  0  0  0  0  0  0  0  0  0
   -6.6293    3.8732    2.2040 C   0  0  0  0  0  0  0  0  0  0  0  0
   -5.5520    4.6174    1.7332 C   0  0  0  0  0  0  0  0  0  0  0  0
   -4.2498    4.1279    1.8602 C   0  0  0  0  0  0  0  0  0  0  0  0
   -1.2415    0.4290    0.9090 C   0  0  0  0  0  0  0  0  0  0  0  0
   -2.0599    0.8390   -0.0682 C   0  0  0  0  0  0  0  0  0  0  0  0
   -1.5494    0.9879   -1.4504 C   0  0  0  0  0  0  0  0  0  0  0  0
   -2.3428    0.5938   -2.5424 C   0  0  0  0  0  0  0  0  0  0  0  0
   -1.7963    0.5476   -3.8385 C   0  0  0  0  0  0  0  0  0  0  0  0
   -0.4470    0.9116   -4.0375 C   0  0  0  0  0  0  0  0  0  0  0  0
    0.3132    1.3790   -2.9614 C   0  0  0  0  0  0  0  0  0  0  0  0
   -0.2321    1.4282   -1.6836 C   0  0  0  0  0  0  0  0  0  0  0  0
    0.1739    0.7744   -5.3293 N   0  0  0  0  0  0  0  0  0  0  0  0
   -0.2180    1.6524   -6.4056 C   0  0  0  0  0  0  0  0  0  0  0  0
   -0.3552    1.1557   -7.7162 C   0  0  0  0  0  0  0  0  0  0  0  0
   -0.7638    1.9976   -8.7530 C   0  0  0  0  0  0  0  0  0  0  0  0
   -1.0338    3.3450   -8.4962 C   0  0  0  0  0  0  0  0  0  0  0  0
   -0.9003    3.8495   -7.2040 C   0  0  0  0  0  0  0  0  0  0  0  0
   -0.4934    3.0116   -6.1607 C   0  0  0  0  0  0  0  0  0  0  0  0
    1.2002   -0.2211   -5.5089 C   0  0  0  0  0  0  0  0  0  0  0  0
    1.0522   -1.5019   -4.9433 C   0  0  0  0  0  0  0  0  0  0  0  0
    2.0501   -2.4683   -5.1140 C   0  0  0  0  0  0  0  0  0  0  0  0
    3.2047   -2.1623   -5.8349 C   0  0  0  0  0  0  0  0  0  0  0  0
    3.3657   -0.8905   -6.3932 C   0  0  0  0  0  0  0  0  0  0  0  0
    2.3706    0.0763   -6.2322 C   0  0  0  0  0  0  0  0  0  0  0  0
   -2.5763   -0.0130   -4.9630 C   0  0  0  0  0  0  0  0  0  0  0  0
   -3.7819    0.4128   -5.3679 C   0  0  0  0  0  0  0  0  0  0  0  0
   -4.5333    1.5831   -4.8475 C   0  0  0  0  0  0  0  0  0  0  0  0
   -5.9309    1.5416   -4.8921 C   0  0  0  0  0  0  0  0  0  0  0  0
   -6.7083    2.6420   -4.4844 C   0  0  0  0  0  0  0  0  0  0  0  0
   -6.0551    3.7778   -3.9453 C   0  0  0  0  0  0  0  0  0  0  0  0
   -4.6522    3.8308   -3.9425 C   0  0  0  0  0  0  0  0  0  0  0  0
   -3.8988    2.7564   -4.4135 C   0  0  0  0  0  0  0  0  0  0  0  0
   -6.7887    4.8867   -3.3914 N   0  0  0  0  0  0  0  0  0  0  0  0
   -6.6288    6.1805   -3.9968 C   0  0  0  0  0  0  0  0  0  0  0  0
   -6.1801    7.2699   -3.2347 C   0  0  0  0  0  0  0  0  0  0  0  0
   -6.0262    8.5272   -3.8280 C   0  0  0  0  0  0  0  0  0  0  0  0
   -6.3334    8.7053   -5.1808 C   0  0  0  0  0  0  0  0  0  0  0  0
   -6.7895    7.6253   -5.9434 C   0  0  0  0  0  0  0  0  0  0  0  0
   -6.9295    6.3649   -5.3568 C   0  0  0  0  0  0  0  0  0  0  0  0
   -7.6744    4.7003   -2.2556 C   0  0  0  0  0  0  0  0  0  0  0  0
   -7.5228    3.5859   -1.4083 C   0  0  0  0  0  0  0  0  0  0  0  0
   -8.4814    3.3089   -0.4281 C   0  0  0  0  0  0  0  0  0  0  0  0
   -9.5708    4.1604   -0.2552 C   0  0  0  0  0  0  0  0  0  0  0  0
   -9.7160    5.2879   -1.0630 C   0  0  0  0  0  0  0  0  0  0  0  0
   -8.7773    5.5565   -2.0631 C   0  0  0  0  0  0  0  0  0  0  0  0
   -8.1879    2.6189   -4.6552 C   0  0  0  0  0  0  0  0  0  0  0  0
   -8.7994    1.9540   -5.6360 C   0  0  0  0  0  0  0  0  0  0  0  0
   11.5209   -1.9203    1.7555 H   0  0  0  0  0  0  0  0  0  0  0  0
   12.3104   -3.4399   -0.2924 H   0  0  0  0  0  0  0  0  0  0  0  0
   13.6181   -5.3115   -3.2830 H   0  0  0  0  0  0  0  0  0  0  0  0
   13.0161   -3.7201   -2.6791 H   0  0  0  0  0  0  0  0  0  0  0  0
   13.8112   -4.8978   -1.5381 H   0  0  0  0  0  0  0  0  0  0  0  0
    7.9273   -7.7626   -1.1552 H   0  0  0  0  0  0  0  0  0  0  0  0
    8.2138   -7.9875   -2.9196 H   0  0  0  0  0  0  0  0  0  0  0  0
    7.3841   -6.4961   -2.3515 H   0  0  0  0  0  0  0  0  0  0  0  0
    7.8103   -5.5754   -0.0641 H   0  0  0  0  0  0  0  0  0  0  0  0
    6.9029   -3.0716   -0.7403 H   0  0  0  0  0  0  0  0  0  0  0  0
    6.1278   -1.5091   -2.6801 H   0  0  0  0  0  0  0  0  0  0  0  0
    6.9427   -3.0854   -3.0900 H   0  0  0  0  0  0  0  0  0  0  0  0
    5.7874   -2.3335   -4.2440 H   0  0  0  0  0  0  0  0  0  0  0  0
    0.5793   -4.5382   -2.1421 H   0  0  0  0  0  0  0  0  0  0  0  0
    0.8040   -3.8914   -0.4746 H   0  0  0  0  0  0  0  0  0  0  0  0
    1.2592   -5.6075   -0.8605 H   0  0  0  0  0  0  0  0  0  0  0  0
    2.5663   -4.7495    1.0294 H   0  0  0  0  0  0  0  0  0  0  0  0
    2.1050   -3.3456    2.7372 H   0  0  0  0  0  0  0  0  0  0  0  0
    2.7201   -6.1464    6.7737 H   0  0  0  0  0  0  0  0  0  0  0  0
    4.5810   -5.8675    5.1968 H   0  0  0  0  0  0  0  0  0  0  0  0
   -2.1897   -4.2072    7.2865 H   0  0  0  0  0  0  0  0  0  0  0  0
   -4.3664   -5.0034    6.4413 H   0  0  0  0  0  0  0  0  0  0  0  0
   -4.4624   -6.8506    4.7877 H   0  0  0  0  0  0  0  0  0  0  0  0
   -2.3711   -7.9317    4.0073 H   0  0  0  0  0  0  0  0  0  0  0  0
   -0.1873   -7.1544    4.8526 H   0  0  0  0  0  0  0  0  0  0  0  0
   -0.6823   -6.4740    8.7517 H   0  0  0  0  0  0  0  0  0  0  0  0
   -0.2617   -5.9337   11.1212 H   0  0  0  0  0  0  0  0  0  0  0  0
    1.1419   -3.9849   11.7276 H   0  0  0  0  0  0  0  0  0  0  0  0
    2.1258   -2.5647    9.9506 H   0  0  0  0  0  0  0  0  0  0  0  0
    1.7088   -3.0736    7.5764 H   0  0  0  0  0  0  0  0  0  0  0  0
   -0.5086   -3.6882    3.1447 H   0  0  0  0  0  0  0  0  0  0  0  0
   -0.1552   -2.2747    5.8344 H   0  0  0  0  0  0  0  0  0  0  0  0
   -0.5415   -1.6896    2.2190 H   0  0  0  0  0  0  0  0  0  0  0  0
   -3.0871    1.4191    5.1040 H   0  0  0  0  0  0  0  0  0  0  0  0
   -2.1730   -0.6529    6.0643 H   0  0  0  0  0  0  0  0  0  0  0  0
   -1.5354    3.4922    0.4290 H   0  0  0  0  0  0  0  0  0  0  0  0
    0.4718    4.9281    0.3627 H   0  0  0  0  0  0  0  0  0  0  0  0
    1.6441    5.5261    2.4662 H   0  0  0  0  0  0  0  0  0  0  0  0
    0.8040    4.6897    4.6384 H   0  0  0  0  0  0  0  0  0  0  0  0
   -1.1972    3.2470    4.7211 H   0  0  0  0  0  0  0  0  0  0  0  0
   -4.9963    1.1281    3.3280 H   0  0  0  0  0  0  0  0  0  0  0  0
   -7.2541    2.0430    3.1469 H   0  0  0  0  0  0  0  0  0  0  0  0
   -7.6343    4.2705    2.1398 H   0  0  0  0  0  0  0  0  0  0  0  0
   -5.7232    5.5804    1.2665 H   0  0  0  0  0  0  0  0  0  0  0  0
   -3.4401    4.7486    1.5033 H   0  0  0  0  0  0  0  0  0  0  0  0
   -0.2151    0.1767    0.6638 H   0  0  0  0  0  0  0  0  0  0  0  0
   -3.1231    0.9586    0.1277 H   0  0  0  0  0  0  0  0  0  0  0  0
   -3.3555    0.2447   -2.3695 H   0  0  0  0  0  0  0  0  0  0  0  0
    1.3380    1.6924   -3.1168 H   0  0  0  0  0  0  0  0  0  0  0  0
    0.3837    1.7921   -0.8710 H   0  0  0  0  0  0  0  0  0  0  0  0
   -0.1698    0.1083   -7.9271 H   0  0  0  0  0  0  0  0  0  0  0  0
   -0.8744    1.6057   -9.7575 H   0  0  0  0  0  0  0  0  0  0  0  0
   -1.3580    3.9919   -9.2993 H   0  0  0  0  0  0  0  0  0  0  0  0
   -1.1132    4.8921   -7.0032 H   0  0  0  0  0  0  0  0  0  0  0  0
   -0.3883    3.4190   -5.1646 H   0  0  0  0  0  0  0  0  0  0  0  0
    0.1606   -1.7599   -4.3880 H   0  0  0  0  0  0  0  0  0  0  0  0
    1.9235   -3.4590   -4.6890 H   0  0  0  0  0  0  0  0  0  0  0  0
    3.9785   -2.9093   -5.9628 H   0  0  0  0  0  0  0  0  0  0  0  0
    4.2648   -0.6519   -6.9422 H   0  0  0  0  0  0  0  0  0  0  0  0
    2.5121    1.0612   -6.6564 H   0  0  0  0  0  0  0  0  0  0  0  0
   -2.1262   -0.8300   -5.5077 H   0  0  0  0  0  0  0  0  0  0  0  0
   -4.2568   -0.1536   -6.1592 H   0  0  0  0  0  0  0  0  0  0  0  0
   -6.4114    0.6413   -5.2512 H   0  0  0  0  0  0  0  0  0  0  0  0
   -4.1433    4.7106   -3.5698 H   0  0  0  0  0  0  0  0  0  0  0  0
   -2.8234    2.8564   -4.4462 H   0  0  0  0  0  0  0  0  0  0  0  0
   -5.9297    7.1372   -2.1916 H   0  0  0  0  0  0  0  0  0  0  0  0
   -5.6571    9.3613   -3.2422 H   0  0  0  0  0  0  0  0  0  0  0  0
   -6.2192    9.6809   -5.6361 H   0  0  0  0  0  0  0  0  0  0  0  0
   -7.0375    7.7670   -6.9881 H   0  0  0  0  0  0  0  0  0  0  0  0
   -7.2813    5.5341   -5.9536 H   0  0  0  0  0  0  0  0  0  0  0  0
   -6.6788    2.9160   -1.5180 H   0  0  0  0  0  0  0  0  0  0  0  0
   -8.3673    2.4358    0.2020 H   0  0  0  0  0  0  0  0  0  0  0  0
  -10.3109    3.9411    0.5052 H   0  0  0  0  0  0  0  0  0  0  0  0
  -10.5677    5.9456   -0.9342 H   0  0  0  0  0  0  0  0  0  0  0  0
   -8.9362    6.4127   -2.7080 H   0  0  0  0  0  0  0  0  0  0  0  0
   -8.8149    3.2152   -4.0115 H   0  0  0  0  0  0  0  0  0  0  0  0
   -8.2442    1.3910   -6.3727 H   0  0  0  0  0  0  0  0  0  0  0  0
   -9.8741    1.9998   -5.7267 H   0  0  0  0  0  0  0  0  0  0  0  0
  1  2  1  0
  2  3  1  0
  3  4  2  0
  4  5  1  0
  5  6  1  0
  6  7  2  0
  7  8  1  0
  8  9  1  0
  7 10  1  0
 10 11  1  0
 11 12  1  0
 10 13  2  0
  3 14  1  0
 14 15  1  0
 15 16  1  0
 16 17  2  0
 17 18  1  0
 18 19  1  0
 19 20  2  0
 20 21  1  0
 21 22  1  0
 20 23  1  0
 23 24  1  0
 24 25  1  0
 23 26  2  0
 16 27  1  0
 27 28  2  0
 28 29  1  0
 29 30  2  0
 30 31  1  0
 31 32  2  0
 30 33  1  0
 33 34  1  0
 34 35  2  0
 35 36  1  0
 36 37  2  0
 37 38  1  0
 38 39  2  0
 33 40  1  0
 40 41  2  0
 41 42  1  0
 42 43  2  0
 43 44  1  0
 44 45  2  0
 29 46  1  0
 46 47  2  3
 47 48  1  0
 48 49  2  0
 49 50  1  0
 50 51  2  0
 51 52  1  0
 52 53  2  0
 51 54  1  0
 54 55  1  0
 55 56  2  0
 56 57  1  0
 57 58  2  0
 58 59  1  0
 59 60  2  0
 54 61  1  0
 61 62  2  0
 62 63  1  0
 63 64  2  0
 64 65  1  0
 65 66  2  0
 50 67  1  0
 67 68  2  3
 68 69  1  0
 69 70  2  0
 70 71  1  0
 71 72  2  0
 72 73  1  0
 73 74  2  0
 72 75  1  0
 75 76  1  0
 76 77  2  0
 77 78  1  0
 78 79  2  0
 79 80  1  0
 80 81  2  0
 75 82  1  0
 82 83  2  0
 83 84  1  0
 84 85  2  0
 85 86  1  0
 86 87  2  0
 71 88  1  0
 88 89  2  3
 89 90  1  0
 90 91  2  0
 91 92  1  0
 92 93  2  0
 93 94  1  0
 94 95  2  0
 93 96  1  0
 96 97  1  0
 97 98  2  0
 98 99  1  0
 99100  2  0
100101  1  0
101102  2  0
 96103  1  0
103104  2  0
104105  1  0
105106  2  0
106107  1  0
107108  2  0
 92109  1  0
109110  2  3
  5  1  2  0
 18 14  2  0
 32 27  1  0
 39 34  1  0
 45 40  1  0
 53 48  1  0
 60 55  1  0
 66 61  1  0
 74 69  1  0
 81 76  1  0
 87 82  1  0
 95 90  1  0
102 97  1  0
108103  1  0
 13  4  1  0
 26 17  1  0
  1111  1  0
  6112  1  0
  9113  1  0
  9114  1  0
  9115  1  0
 12116  1  0
 12117  1  0
 12118  1  0
 13119  1  0
 19120  1  0
 22121  1  0
 22122  1  0
 22123  1  0
 25124  1  0
 25125  1  0
 25126  1  0
 26127  1  0
 28128  1  0
 31129  1  0
 32130  1  0
 35131  1  0
 36132  1  0
 37133  1  0
 38134  1  0
 39135  1  0
 41136  1  0
 42137  1  0
 43138  1  0
 44139  1  0
 45140  1  0
 46141  1  0
 47142  1  0
 49143  1  0
 52144  1  0
 53145  1  0
 56146  1  0
 57147  1  0
 58148  1  0
 59149  1  0
 60150  1  0
 62151  1  0
 63152  1  0
 64153  1  0
 65154  1  0
 66155  1  0
 67156  1  0
 68157  1  0
 70158  1  0
 73159  1  0
 74160  1  0
 77161  1  0
 78162  1  0
 79163  1  0
 80164  1  0
 81165  1  0
 83166  1  0
 84167  1  0
 85168  1  0
 86169  1  0
 87170  1  0
 88171  1  0
 89172  1  0
 91173  1  0
 94174  1  0
 95175  1  0
 98176  1  0
 99177  1  0
100178  1  0
101179  1  0
102180  1  0
104181  1  0
105182  1  0
106183  1  0
107184  1  0
108185  1  0
109186  1  0
110187  1  0
110188  1  0
M  END

