
     RDKit          3D

140151  0  0  0  0  0  0  0  0999 V2000
    7.2716    2.4965    3.9915 C   0  0  0  0  0  0  0  0  0  0  0  0
    5.8383    1.7353    4.4339 S   0  0  0  0  0  0  0  0  0  0  0  0
    5.0982    1.8206    2.9282 C   0  0  0  0  0  0  0  0  0  0  0  0
    5.9730    2.4386    2.0474 C   0  0  0  0  0  0  0  0  0  0  0  0
    7.1757    2.8698    2.6501 C   0  0  0  0  0  0  0  0  0  0  0  0
    8.2306    3.6781    1.9115 C   0  0  2  0  0  0  0  0  0  0  0  0
    8.5457    4.9846    2.6695 C   0  0  0  0  0  0  0  0  0  0  0  0
    7.3839    5.6719    2.9368 F   0  0  0  0  0  0  0  0  0  0  0  0
    9.1882    4.7128    3.8638 F   0  0  0  0  0  0  0  0  0  0  0  0
    9.3684    5.7946    1.9179 F   0  0  0  0  0  0  0  0  0  0  0  0
    7.7898    4.0171    0.4620 C   0  0  0  0  0  0  0  0  0  0  0  0
    6.9776    2.8939   -0.1962 C   0  0  0  0  0  0  0  0  0  0  0  0
    5.6822    2.6513    0.5867 C   0  0  0  0  0  0  0  0  0  0  0  0
    3.7172    1.4126    2.6254 C   0  0  0  0  0  0  0  0  0  0  0  0
    2.8606    0.9610    3.5486 C   0  0  0  0  0  0  0  0  0  0  0  0
    1.4447    0.7203    3.2223 C   0  0  0  0  0  0  0  0  0  0  0  0
    0.5863   -0.6182    3.7956 S   0  0  0  0  0  0  0  0  0  0  0  0
   -0.9023   -0.1790    3.1355 C   0  0  0  0  0  0  0  0  0  0  0  0
   -0.7471    1.0201    2.4582 C   0  0  0  0  0  0  0  0  0  0  0  0
    0.5486    1.5545    2.5334 C   0  0  0  0  0  0  0  0  0  0  0  0
    0.8283    2.8199    2.0010 C   0  0  0  0  0  0  0  0  0  0  0  0
   -0.1925    3.5408    1.3524 C   0  0  0  0  0  0  0  0  0  0  0  0
    0.0227    4.8329    0.8498 O   0  0  0  0  0  0  0  0  0  0  0  0
    1.2825    5.5036    0.8559 C   0  0  0  0  0  0  0  0  0  0  0  0
   -1.4883    3.0014    1.2557 C   0  0  0  0  0  0  0  0  0  0  0  0
   -2.4685    3.7466    0.5846 O   0  0  0  0  0  0  0  0  0  0  0  0
   -3.8202    3.3251    0.4289 C   0  0  0  0  0  0  0  0  0  0  0  0
   -1.7678    1.7343    1.8201 C   0  0  0  0  0  0  0  0  0  0  0  0
   -2.1854   -0.8491    3.3620 C   0  0  0  0  0  0  0  0  0  0  0  0
   -2.9801   -1.7409    2.1756 S   0  0  0  0  0  0  0  0  0  0  0  0
   -4.5388   -1.5796    2.8178 C   0  0  0  0  0  0  0  0  0  0  0  0
   -4.4417   -0.8195    3.9844 C   0  0  0  0  0  0  0  0  0  0  0  0
   -3.1408   -0.4045    4.2936 C   0  0  0  0  0  0  0  0  0  0  0  0
   -2.8300    0.4504    5.5165 C   0  0  2  0  0  0  0  0  0  0  0  0
   -2.3105   -0.4431    6.6665 C   0  0  0  0  0  0  0  0  0  0  0  0
   -3.2979   -1.3508    7.0612 F   0  0  0  0  0  0  0  0  0  0  0  0
   -1.1905   -1.1493    6.2604 F   0  0  0  0  0  0  0  0  0  0  0  0
   -1.9741    0.3496    7.7621 F   0  0  0  0  0  0  0  0  0  0  0  0
   -4.0439    1.3037    5.9924 C   0  0  0  0  0  0  0  0  0  0  0  0
   -5.3248    1.1627    5.1459 C   0  0  0  0  0  0  0  0  0  0  0  0
   -5.6014   -0.2939    4.7693 C   0  0  0  0  0  0  0  0  0  0  0  0
   -5.7964   -2.1359    2.2613 C   0  0  0  0  0  0  0  0  0  0  0  0
   -6.0101   -2.6190    1.0246 C   0  0  0  0  0  0  0  0  0  0  0  0
   -5.0607   -2.6437   -0.0911 C   0  0  0  0  0  0  0  0  0  0  0  0
   -4.3184   -1.3054   -0.7929 S   0  0  0  0  0  0  0  0  0  0  0  0
   -3.6987   -2.0854   -2.1835 C   0  0  0  0  0  0  0  0  0  0  0  0
   -4.1246   -3.4180   -2.1201 C   0  0  0  0  0  0  0  0  0  0  0  0
   -4.8745   -3.7210   -0.9669 C   0  0  0  0  0  0  0  0  0  0  0  0
   -5.3653   -5.0150   -0.7596 C   0  0  0  0  0  0  0  0  0  0  0  0
   -5.1190   -6.0192   -1.7112 C   0  0  0  0  0  0  0  0  0  0  0  0
   -5.5775   -7.3349   -1.5325 O   0  0  0  0  0  0  0  0  0  0  0  0
   -6.1985   -7.8148   -0.3474 C   0  0  0  0  0  0  0  0  0  0  0  0
   -4.3977   -5.7160   -2.8747 C   0  0  0  0  0  0  0  0  0  0  0  0
   -4.1681   -6.7602   -3.7933 O   0  0  0  0  0  0  0  0  0  0  0  0
   -3.4371   -6.6125   -5.0101 C   0  0  0  0  0  0  0  0  0  0  0  0
   -3.9153   -4.3990   -3.0893 C   0  0  0  0  0  0  0  0  0  0  0  0
   -2.7330   -1.4894   -3.1563 C   0  0  0  0  0  0  0  0  0  0  0  0
   -1.4324   -2.3587   -3.7981 S   0  0  0  0  0  0  0  0  0  0  0  0
   -0.6652   -1.0743   -4.5514 C   0  0  0  0  0  0  0  0  0  0  0  0
   -1.4215    0.0828   -4.3051 C   0  0  0  0  0  0  0  0  0  0  0  0
   -2.5926   -0.1355   -3.5441 C   0  0  0  0  0  0  0  0  0  0  0  0
   -3.5401    1.0054   -3.1869 C   0  0  2  0  0  0  0  0  0  0  0  0
   -4.9087    0.8405   -3.8862 C   0  0  0  0  0  0  0  0  0  0  0  0
   -5.7513    1.8741   -3.4980 F   0  0  0  0  0  0  0  0  0  0  0  0
   -5.5012   -0.3665   -3.5375 F   0  0  0  0  0  0  0  0  0  0  0  0
   -4.7590    0.8783   -5.2606 F   0  0  0  0  0  0  0  0  0  0  0  0
   -2.9658    2.4216   -3.4949 C   0  0  0  0  0  0  0  0  0  0  0  0
   -1.4478    2.4501   -3.6344 C   0  0  0  0  0  0  0  0  0  0  0  0
   -0.9982    1.4609   -4.7128 C   0  0  0  0  0  0  0  0  0  0  0  0
    0.5709   -1.1570   -5.3490 C   0  0  0  0  0  0  0  0  0  0  0  0
    1.7009   -1.7881   -4.9881 C   0  0  0  0  0  0  0  0  0  0  0  0
    1.9742   -2.3430   -3.6414 C   0  0  0  0  0  0  0  0  0  0  0  0
    1.3895   -1.6362   -2.2279 S   0  0  0  0  0  0  0  0  0  0  0  0
    2.0800   -2.6764   -1.1260 C   0  0  0  0  0  0  0  0  0  0  0  0
    2.8207   -3.6164   -1.8546 C   0  0  0  0  0  0  0  0  0  0  0  0
    2.8238   -3.4150   -3.2608 C   0  0  0  0  0  0  0  0  0  0  0  0
    3.8102   -4.2760   -4.0810 C   0  0  2  0  0  0  0  0  0  0  0  0
    3.8341   -4.1443   -5.6136 C   0  0  0  0  0  0  0  0  0  0  0  0
    2.5616   -4.2872   -6.1537 F   0  0  0  0  0  0  0  0  0  0  0  0
    4.3981   -2.9216   -5.9590 F   0  0  0  0  0  0  0  0  0  0  0  0
    4.6539   -5.1279   -6.1634 F   0  0  0  0  0  0  0  0  0  0  0  0
    3.6754   -5.7797   -3.6631 C   0  0  0  0  0  0  0  0  0  0  0  0
    3.2911   -6.0477   -2.1832 C   0  0  0  0  0  0  0  0  0  0  0  0
    3.5025   -4.8249   -1.2669 C   0  0  0  0  0  0  0  0  0  0  0  0
    1.9412   -2.5160    0.3407 C   0  0  0  0  0  0  0  0  0  0  0  0
    2.9552   -2.6609    1.1905 C   0  0  0  0  0  0  0  0  0  0  0  0
    8.1196    2.6816    4.6413 H   0  0  0  0  0  0  0  0  0  0  0  0
    9.1524    3.0687    1.8675 H   0  0  0  0  0  0  0  0  0  0  0  0
    8.6932    4.2045   -0.1648 H   0  0  0  0  0  0  0  0  0  0  0  0
    7.1770    4.9445    0.4536 H   0  0  0  0  0  0  0  0  0  0  0  0
    7.5845    1.9577   -0.2176 H   0  0  0  0  0  0  0  0  0  0  0  0
    6.7356    3.1659   -1.2449 H   0  0  0  0  0  0  0  0  0  0  0  0
    5.0203    3.5357    0.4698 H   0  0  0  0  0  0  0  0  0  0  0  0
    5.1766    1.7668    0.1458 H   0  0  0  0  0  0  0  0  0  0  0  0
    3.3659    1.5315    1.6094 H   0  0  0  0  0  0  0  0  0  0  0  0
    3.1870    0.7507    4.5619 H   0  0  0  0  0  0  0  0  0  0  0  0
    1.8103    3.2497    2.1193 H   0  0  0  0  0  0  0  0  0  0  0  0
    2.0213    4.9172    0.2734 H   0  0  0  0  0  0  0  0  0  0  0  0
    1.1658    6.4999    0.3732 H   0  0  0  0  0  0  0  0  0  0  0  0
    1.6382    5.6332    1.9066 H   0  0  0  0  0  0  0  0  0  0  0  0
   -4.3238    3.2399    1.4222 H   0  0  0  0  0  0  0  0  0  0  0  0
   -4.3702    4.0904   -0.1777 H   0  0  0  0  0  0  0  0  0  0  0  0
   -3.8669    2.3541   -0.1077 H   0  0  0  0  0  0  0  0  0  0  0  0
   -2.7524    1.3123    1.7636 H   0  0  0  0  0  0  0  0  0  0  0  0
   -2.0143    1.1441    5.2507 H   0  0  0  0  0  0  0  0  0  0  0  0
   -4.3187    1.0644    7.0433 H   0  0  0  0  0  0  0  0  0  0  0  0
   -3.7577    2.3745    5.9782 H   0  0  0  0  0  0  0  0  0  0  0  0
   -6.1921    1.5862    5.6961 H   0  0  0  0  0  0  0  0  0  0  0  0
   -5.2008    1.7607    4.2042 H   0  0  0  0  0  0  0  0  0  0  0  0
   -5.7365   -0.9144    5.6929 H   0  0  0  0  0  0  0  0  0  0  0  0
   -6.5460   -0.3217    4.1750 H   0  0  0  0  0  0  0  0  0  0  0  0
   -6.6513   -2.1829    2.9311 H   0  0  0  0  0  0  0  0  0  0  0  0
   -6.9836   -3.0627    0.8412 H   0  0  0  0  0  0  0  0  0  0  0  0
   -5.9289   -5.2236    0.1387 H   0  0  0  0  0  0  0  0  0  0  0  0
   -6.4733   -8.8814   -0.4657 H   0  0  0  0  0  0  0  0  0  0  0  0
   -7.1213   -7.2350   -0.1417 H   0  0  0  0  0  0  0  0  0  0  0  0
   -5.4869   -7.7145    0.5058 H   0  0  0  0  0  0  0  0  0  0  0  0
   -3.3177   -7.6068   -5.4843 H   0  0  0  0  0  0  0  0  0  0  0  0
   -2.4282   -6.1987   -4.8062 H   0  0  0  0  0  0  0  0  0  0  0  0
   -3.9796   -5.9368   -5.7047 H   0  0  0  0  0  0  0  0  0  0  0  0
   -3.4019   -4.1442   -4.0127 H   0  0  0  0  0  0  0  0  0  0  0  0
   -3.6979    0.9807   -2.0897 H   0  0  0  0  0  0  0  0  0  0  0  0
   -3.3997    2.8203   -4.4281 H   0  0  0  0  0  0  0  0  0  0  0  0
   -3.2709    3.1207   -2.6844 H   0  0  0  0  0  0  0  0  0  0  0  0
   -0.9831    2.1834   -2.6665 H   0  0  0  0  0  0  0  0  0  0  0  0
   -1.1209    3.4883   -3.8942 H   0  0  0  0  0  0  0  0  0  0  0  0
    0.1021    1.5246   -4.8093 H   0  0  0  0  0  0  0  0  0  0  0  0
   -1.4644    1.7200   -5.6772 H   0  0  0  0  0  0  0  0  0  0  0  0
    0.5551   -0.6645   -6.3094 H   0  0  0  0  0  0  0  0  0  0  0  0
    2.4957   -1.7470   -5.7152 H   0  0  0  0  0  0  0  0  0  0  0  0
    4.8225   -3.9646   -3.7345 H   0  0  0  0  0  0  0  0  0  0  0  0
    4.6550   -6.2752   -3.8732 H   0  0  0  0  0  0  0  0  0  0  0  0
    2.9202   -6.2922   -4.3178 H   0  0  0  0  0  0  0  0  0  0  0  0
    2.2267   -6.3594   -2.1409 H   0  0  0  0  0  0  0  0  0  0  0  0
    3.8972   -6.8940   -1.7931 H   0  0  0  0  0  0  0  0  0  0  0  0
    4.5780   -4.6048   -1.1426 H   0  0  0  0  0  0  0  0  0  0  0  0
    3.0506   -5.0596   -0.2635 H   0  0  0  0  0  0  0  0  0  0  0  0
    1.0109   -2.1107    0.7271 H   0  0  0  0  0  0  0  0  0  0  0  0
    2.8090   -2.4462    2.2472 H   0  0  0  0  0  0  0  0  0  0  0  0
    3.9473   -2.9716    0.8443 H   0  0  0  0  0  0  0  0  0  0  0  0
  1  2  1  0
  2  3  1  0
  3  4  2  0
  4  5  1  0
  5  6  1  0
  6  7  1  0
  7  8  1  0
  7  9  1  0
  7 10  1  0
  6 11  1  0
 11 12  1  0
 12 13  1  0
  3 14  1  0
 14 15  2  3
 15 16  1  0
 16 17  1  0
 17 18  1  0
 18 19  2  0
 19 20  1  0
 20 21  1  0
 21 22  2  0
 22 23  1  0
 23 24  1  0
 22 25  1  0
 25 26  1  0
 26 27  1  0
 25 28  2  0
 18 29  1  0
 29 30  1  0
 30 31  1  0
 31 32  2  0
 32 33  1  0
 33 34  1  0
 34 35  1  0
 35 36  1  0
 35 37  1  0
 35 38  1  0
 34 39  1  0
 39 40  1  0
 40 41  1  0
 31 42  1  0
 42 43  2  3
 43 44  1  0
 44 45  1  0
 45 46  1  0
 46 47  2  0
 47 48  1  0
 48 49  1  0
 49 50  2  0
 50 51  1  0
 51 52  1  0
 50 53  1  0
 53 54  1  0
 54 55  1  0
 53 56  2  0
 46 57  1  0
 57 58  1  0
 58 59  1  0
 59 60  2  0
 60 61  1  0
 61 62  1  0
 62 63  1  0
 63 64  1  0
 63 65  1  0
 63 66  1  0
 62 67  1  0
 67 68  1  0
 68 69  1  0
 59 70  1  0
 70 71  2  3
 71 72  1  0
 72 73  1  0
 73 74  1  0
 74 75  2  0
 75 76  1  0
 76 77  1  0
 77 78  1  0
 78 79  1  0
 78 80  1  0
 78 81  1  0
 77 82  1  0
 82 83  1  0
 83 84  1  0
 74 85  1  0
 85 86  2  3
  5  1  2  0
 20 16  2  0
 33 29  2  0
 48 44  2  0
 61 57  2  0
 76 72  2  0
 13  4  1  0
 28 19  1  0
 41 32  1  0
 56 47  1  0
 69 60  1  0
 84 75  1  0
  1 87  1  0
  6 88  1  6
 11 89  1  0
 11 90  1  0
 12 91  1  0
 12 92  1  0
 13 93  1  0
 13 94  1  0
 14 95  1  0
 15 96  1  0
 21 97  1  0
 24 98  1  0
 24 99  1  0
 24100  1  0
 27101  1  0
 27102  1  0
 27103  1  0
 28104  1  0
 34105  1  6
 39106  1  0
 39107  1  0
 40108  1  0
 40109  1  0
 41110  1  0
 41111  1  0
 42112  1  0
 43113  1  0
 49114  1  0
 52115  1  0
 52116  1  0
 52117  1  0
 55118  1  0
 55119  1  0
 55120  1  0
 56121  1  0
 62122  1  1
 67123  1  0
 67124  1  0
 68125  1  0
 68126  1  0
 69127  1  0
 69128  1  0
 70129  1  0
 71130  1  0
 77131  1  1
 82132  1  0
 82133  1  0
 83134  1  0
 83135  1  0
 84136  1  0
 84137  1  0
 85138  1  0
 86139  1  0
 86140  1  0
M  END

