
     RDKit          3D

100111  0  0  0  0  0  0  0  0999 V2000
    9.1896   -6.6881    2.2797 C   0  0  0  0  0  0  0  0  0  0  0  0
    8.6379   -6.7686    1.0742 C   0  0  0  0  0  0  0  0  0  0  0  0
    8.8915   -7.7279    0.0920 C   0  0  0  0  0  0  0  0  0  0  0  0
    8.2046   -7.6320   -1.1290 C   0  0  0  0  0  0  0  0  0  0  0  0
    7.2869   -6.5871   -1.3519 C   0  0  0  0  0  0  0  0  0  0  0  0
    7.0410   -5.6289   -0.3550 C   0  0  0  0  0  0  0  0  0  0  0  0
    7.7222   -5.7426    0.8628 C   0  0  0  0  0  0  0  0  0  0  0  0
    7.6507   -4.9524    1.9340 C   0  0  0  0  0  0  0  0  0  0  0  0
    8.5839   -5.5203    2.9014 C   0  0  0  0  0  0  0  0  0  0  0  0
    8.7944   -5.1112    4.0734 O   0  0  0  0  0  0  0  0  0  0  0  0
    6.7585   -3.7950    2.1400 C   0  0  0  0  0  0  0  0  0  0  0  0
    7.0851   -2.5927    2.6170 C   0  0  0  0  0  0  0  0  0  0  0  0
    8.3532   -2.1131    2.9662 C   0  0  0  0  0  0  0  0  0  0  0  0
    8.4652   -0.7988    3.4464 C   0  0  0  0  0  0  0  0  0  0  0  0
    7.3242    0.0157    3.5711 C   0  0  0  0  0  0  0  0  0  0  0  0
    6.0586   -0.4702    3.2077 C   0  0  0  0  0  0  0  0  0  0  0  0
    5.9590   -1.7782    2.7186 C   0  0  0  0  0  0  0  0  0  0  0  0
    4.8652   -2.4304    2.3219 C   0  0  0  0  0  0  0  0  0  0  0  0
    5.3174   -3.7584    1.9254 C   0  0  0  0  0  0  0  0  0  0  0  0
    4.6012   -4.6935    1.4798 O   0  0  0  0  0  0  0  0  0  0  0  0
    3.4900   -1.9033    2.2290 C   0  0  0  0  0  0  0  0  0  0  0  0
    2.3653   -2.4935    2.6382 C   0  0  0  0  0  0  0  0  0  0  0  0
    2.2215   -3.6969    3.3390 C   0  0  0  0  0  0  0  0  0  0  0  0
    0.9298   -4.1204    3.6879 C   0  0  0  0  0  0  0  0  0  0  0  0
   -0.1933   -3.3440    3.3473 C   0  0  0  0  0  0  0  0  0  0  0  0
   -0.0383   -2.1328    2.6554 C   0  0  0  0  0  0  0  0  0  0  0  0
    1.2534   -1.7240    2.3035 C   0  0  0  0  0  0  0  0  0  0  0  0
    1.6227   -0.6109    1.6692 C   0  0  0  0  0  0  0  0  0  0  0  0
    3.0757   -0.6648    1.5802 C   0  0  0  0  0  0  0  0  0  0  0  0
    3.8202    0.1540    0.9785 O   0  0  0  0  0  0  0  0  0  0  0  0
    0.7453    0.4304    1.1048 C   0  0  0  0  0  0  0  0  0  0  0  0
    0.8462    1.7513    1.2672 C   0  0  0  0  0  0  0  0  0  0  0  0
    1.7599    2.4646    2.0515 C   0  0  0  0  0  0  0  0  0  0  0  0
    1.6657    3.8654    2.0824 C   0  0  0  0  0  0  0  0  0  0  0  0
    0.6685    4.5322    1.3448 C   0  0  0  0  0  0  0  0  0  0  0  0
   -0.2491    3.8064    0.5691 C   0  0  0  0  0  0  0  0  0  0  0  0
   -0.1441    2.4121    0.5458 C   0  0  0  0  0  0  0  0  0  0  0  0
   -0.9062    1.5420   -0.1114 C   0  0  0  0  0  0  0  0  0  0  0  0
   -0.3834    0.2234    0.2049 C   0  0  0  0  0  0  0  0  0  0  0  0
   -0.8012   -0.8771   -0.2430 O   0  0  0  0  0  0  0  0  0  0  0  0
   -2.0470    1.8440   -0.9809 C   0  0  0  0  0  0  0  0  0  0  0  0
   -1.9604    2.0256   -2.6510 S   0  0  0  0  0  0  0  0  0  0  0  0
   -3.6009    2.3267   -2.8957 C   0  0  0  0  0  0  0  0  0  0  0  0
   -4.2363    2.3114   -1.6506 C   0  0  0  0  0  0  0  0  0  0  0  0
   -3.3673    2.0338   -0.5847 C   0  0  0  0  0  0  0  0  0  0  0  0
   -3.8425    1.9763    0.7276 C   0  0  0  0  0  0  0  0  0  0  0  0
   -5.2123    2.2056    0.9793 C   0  0  0  0  0  0  0  0  0  0  0  0
   -5.7462    2.1476    2.2764 O   0  0  0  0  0  0  0  0  0  0  0  0
   -4.9902    1.8554    3.4475 C   0  0  0  0  0  0  0  0  0  0  0  0
   -6.0847    2.5051   -0.0883 C   0  0  0  0  0  0  0  0  0  0  0  0
   -7.4403    2.7247    0.2031 O   0  0  0  0  0  0  0  0  0  0  0  0
   -8.4428    2.9855   -0.7744 C   0  0  0  0  0  0  0  0  0  0  0  0
   -5.5877    2.5750   -1.4076 C   0  0  0  0  0  0  0  0  0  0  0  0
   -4.2091    2.5730   -4.2122 C   0  0  0  0  0  0  0  0  0  0  0  0
   -3.6345    3.6917   -5.3328 S   0  0  0  0  0  0  0  0  0  0  0  0
   -4.7870    3.4042   -6.5275 C   0  0  0  0  0  0  0  0  0  0  0  0
   -5.6303    2.4026   -6.0608 C   0  0  0  0  0  0  0  0  0  0  0  0
   -5.3084    1.9272   -4.7805 C   0  0  0  0  0  0  0  0  0  0  0  0
   -6.0352    0.8743   -4.2159 C   0  0  0  0  0  0  0  0  0  0  0  0
   -7.1288    0.3268   -4.9212 C   0  0  0  0  0  0  0  0  0  0  0  0
   -7.9083   -0.7114   -4.3864 O   0  0  0  0  0  0  0  0  0  0  0  0
   -7.7132   -1.2817   -3.0962 C   0  0  0  0  0  0  0  0  0  0  0  0
   -7.4626    0.8219   -6.1997 C   0  0  0  0  0  0  0  0  0  0  0  0
   -8.5557    0.2480   -6.8680 O   0  0  0  0  0  0  0  0  0  0  0  0
   -9.0091    0.6418   -8.1590 C   0  0  0  0  0  0  0  0  0  0  0  0
   -6.7014    1.8641   -6.7737 C   0  0  0  0  0  0  0  0  0  0  0  0
    9.9270   -7.3578    2.7037 H   0  0  0  0  0  0  0  0  0  0  0  0
    9.6013   -8.5282    0.2611 H   0  0  0  0  0  0  0  0  0  0  0  0
    8.3852   -8.3637   -1.9058 H   0  0  0  0  0  0  0  0  0  0  0  0
    6.7710   -6.5183   -2.3007 H   0  0  0  0  0  0  0  0  0  0  0  0
    6.3494   -4.8183   -0.5425 H   0  0  0  0  0  0  0  0  0  0  0  0
    9.2382   -2.7265    2.8615 H   0  0  0  0  0  0  0  0  0  0  0  0
    9.4366   -0.4090    3.7224 H   0  0  0  0  0  0  0  0  0  0  0  0
    7.4228    1.0248    3.9498 H   0  0  0  0  0  0  0  0  0  0  0  0
    5.1860    0.1596    3.3203 H   0  0  0  0  0  0  0  0  0  0  0  0
    3.0795   -4.2879    3.6300 H   0  0  0  0  0  0  0  0  0  0  0  0
    0.7972   -5.0471    4.2307 H   0  0  0  0  0  0  0  0  0  0  0  0
   -1.1830   -3.6783    3.6301 H   0  0  0  0  0  0  0  0  0  0  0  0
   -0.9056   -1.5299    2.4199 H   0  0  0  0  0  0  0  0  0  0  0  0
    2.5197    1.9597    2.6339 H   0  0  0  0  0  0  0  0  0  0  0  0
    2.3626    4.4368    2.6815 H   0  0  0  0  0  0  0  0  0  0  0  0
    0.6068    5.6120    1.3791 H   0  0  0  0  0  0  0  0  0  0  0  0
   -1.0180    4.3212    0.0066 H   0  0  0  0  0  0  0  0  0  0  0  0
   -3.1563    1.7570    1.5347 H   0  0  0  0  0  0  0  0  0  0  0  0
   -5.6644    1.8744    4.3281 H   0  0  0  0  0  0  0  0  0  0  0  0
   -4.5373    0.8444    3.3679 H   0  0  0  0  0  0  0  0  0  0  0  0
   -4.1971    2.6194    3.5905 H   0  0  0  0  0  0  0  0  0  0  0  0
   -8.2152    3.9300   -1.3121 H   0  0  0  0  0  0  0  0  0  0  0  0
   -9.4234    3.0931   -0.2674 H   0  0  0  0  0  0  0  0  0  0  0  0
   -8.5044    2.1411   -1.4939 H   0  0  0  0  0  0  0  0  0  0  0  0
   -6.2398    2.8332   -2.2294 H   0  0  0  0  0  0  0  0  0  0  0  0
   -4.8485    3.8985   -7.4883 H   0  0  0  0  0  0  0  0  0  0  0  0
   -5.7493    0.4825   -3.2503 H   0  0  0  0  0  0  0  0  0  0  0  0
   -8.4824   -2.0618   -2.9247 H   0  0  0  0  0  0  0  0  0  0  0  0
   -6.7097   -1.7532   -3.0354 H   0  0  0  0  0  0  0  0  0  0  0  0
   -7.8175   -0.5007   -2.3131 H   0  0  0  0  0  0  0  0  0  0  0  0
   -9.3152    1.7090   -8.1469 H   0  0  0  0  0  0  0  0  0  0  0  0
   -8.2079    0.4818   -8.9111 H   0  0  0  0  0  0  0  0  0  0  0  0
   -9.8866    0.0240   -8.4391 H   0  0  0  0  0  0  0  0  0  0  0  0
   -6.9316    2.2506   -7.7578 H   0  0  0  0  0  0  0  0  0  0  0  0
  1  2  2  0
  2  3  1  0
  3  4  2  0
  4  5  1  0
  5  6  2  0
  6  7  1  0
  7  8  2  0
  8  9  1  0
  9 10  2  0
  8 11  1  0
 11 12  2  0
 12 13  1  0
 13 14  2  0
 14 15  1  0
 15 16  2  0
 16 17  1  0
 17 18  2  0
 18 19  1  0
 19 20  2  0
 18 21  1  0
 21 22  2  0
 22 23  1  0
 23 24  2  0
 24 25  1  0
 25 26  2  0
 26 27  1  0
 27 28  2  0
 28 29  1  0
 29 30  2  0
 28 31  1  0
 31 32  2  0
 32 33  1  0
 33 34  2  0
 34 35  1  0
 35 36  2  0
 36 37  1  0
 37 38  2  0
 38 39  1  0
 39 40  2  0
 38 41  1  0
 41 42  1  0
 42 43  1  0
 43 44  2  0
 44 45  1  0
 45 46  1  0
 46 47  2  0
 47 48  1  0
 48 49  1  0
 47 50  1  0
 50 51  1  0
 51 52  1  0
 50 53  2  0
 43 54  1  0
 54 55  1  0
 55 56  1  0
 56 57  2  0
 57 58  1  0
 58 59  1  0
 59 60  2  0
 60 61  1  0
 61 62  1  0
 60 63  1  0
 63 64  1  0
 64 65  1  0
 63 66  2  0
  9  1  1  0
 19 11  1  0
 29 21  1  0
 39 31  1  0
 45 41  2  0
 58 54  2  0
  7  2  1  0
 17 12  1  0
 27 22  1  0
 37 32  1  0
 53 44  1  0
 66 57  1  0
  1 67  1  0
  3 68  1  0
  4 69  1  0
  5 70  1  0
  6 71  1  0
 13 72  1  0
 14 73  1  0
 15 74  1  0
 16 75  1  0
 23 76  1  0
 24 77  1  0
 25 78  1  0
 26 79  1  0
 33 80  1  0
 34 81  1  0
 35 82  1  0
 36 83  1  0
 46 84  1  0
 49 85  1  0
 49 86  1  0
 49 87  1  0
 52 88  1  0
 52 89  1  0
 52 90  1  0
 53 91  1  0
 56 92  1  0
 59 93  1  0
 62 94  1  0
 62 95  1  0
 62 96  1  0
 65 97  1  0
 65 98  1  0
 65 99  1  0
 66100  1  0
M  END

