
     RDKit          3D

156171  0  0  0  0  0  0  0  0999 V2000
   -2.5992   13.8023   -2.5114 C   0  0  0  0  0  0  0  0  0  0  0  0
   -1.6868   12.7569   -2.4163 C   0  0  0  0  0  0  0  0  0  0  0  0
   -2.2496   11.5008   -2.7061 C   0  0  0  0  0  0  0  0  0  0  0  0
   -1.5762   10.2597   -2.7046 C   0  0  0  0  0  0  0  0  0  0  0  0
   -0.1099   10.1355   -2.3549 C   0  0  0  0  0  0  0  0  0  0  0  0
    0.7653   10.3661   -3.5822 C   0  0  0  0  0  0  0  0  0  0  0  0
   -2.3320    9.1334   -3.0854 C   0  0  0  0  0  0  0  0  0  0  0  0
   -3.6982    9.1998   -3.3884 C   0  0  0  0  0  0  0  0  0  0  0  0
   -4.3792   10.4370   -3.3576 C   0  0  0  0  0  0  0  0  0  0  0  0
   -5.8382   10.5632   -3.7356 C   0  0  0  0  0  0  0  0  0  0  0  0
   -5.9945   10.6839   -5.2476 C   0  0  0  0  0  0  0  0  0  0  0  0
   -3.6104   11.5712   -3.0291 C   0  0  0  0  0  0  0  0  0  0  0  0
   -4.1017   13.1793   -2.9547 S   0  0  0  0  0  0  0  0  0  0  0  0
   -4.2544    7.9463   -3.7060 C   0  0  0  0  0  0  0  0  0  0  0  0
   -3.3199    6.9135   -3.6715 C   0  0  0  0  0  0  0  0  0  0  0  0
   -1.8143    7.5410   -3.2415 S   0  0  0  0  0  0  0  0  0  0  0  0
   -3.5980    5.4850   -3.8757 C   0  0  0  0  0  0  0  0  0  0  0  0
   -4.8169    4.8461   -3.6444 C   0  0  0  0  0  0  0  0  0  0  0  0
   -4.7288    3.4433   -3.7364 C   0  0  0  0  0  0  0  0  0  0  0  0
   -5.7515    2.5135   -3.4335 C   0  0  0  0  0  0  0  0  0  0  0  0
   -7.1477    2.9504   -3.0525 C   0  0  0  0  0  0  0  0  0  0  0  0
   -7.9730    3.2471   -4.3001 C   0  0  0  0  0  0  0  0  0  0  0  0
   -5.4051    1.1493   -3.5043 C   0  0  0  0  0  0  0  0  0  0  0  0
   -4.1290    0.7124   -3.8742 C   0  0  0  0  0  0  0  0  0  0  0  0
   -3.1066    1.6391   -4.1722 C   0  0  0  0  0  0  0  0  0  0  0  0
   -1.7087    1.2010   -4.5536 C   0  0  0  0  0  0  0  0  0  0  0  0
   -1.6474    0.8154   -6.0281 C   0  0  0  0  0  0  0  0  0  0  0  0
   -3.4462    3.0001   -4.0837 C   0  0  0  0  0  0  0  0  0  0  0  0
   -2.4259    4.3296   -4.2318 S   0  0  0  0  0  0  0  0  0  0  0  0
   -3.9714   -0.6771   -3.7648 C   0  0  0  0  0  0  0  0  0  0  0  0
   -5.0948   -1.3328   -3.2686 C   0  0  0  0  0  0  0  0  0  0  0  0
   -6.3003   -0.1861   -2.9884 S   0  0  0  0  0  0  0  0  0  0  0  0
   -4.9620   -2.5785   -2.5095 C   0  0  0  0  0  0  0  0  0  0  0  0
   -3.9148   -2.6785   -1.2052 S   0  0  0  0  0  0  0  0  0  0  0  0
   -3.7474   -4.3465   -1.1638 C   0  0  0  0  0  0  0  0  0  0  0  0
   -4.5020   -4.8653   -2.2179 C   0  0  0  0  0  0  0  0  0  0  0  0
   -5.1801   -3.8791   -2.9649 C   0  0  0  0  0  0  0  0  0  0  0  0
   -5.9369   -4.2345   -4.0831 C   0  0  0  0  0  0  0  0  0  0  0  0
   -6.0321   -5.5945   -4.4530 C   0  0  0  0  0  0  0  0  0  0  0  0
   -6.8098   -6.0132   -5.5439 O   0  0  0  0  0  0  0  0  0  0  0  0
   -7.6366   -5.1535   -6.3232 C   0  0  0  0  0  0  0  0  0  0  0  0
   -5.3303   -6.5767   -3.7230 C   0  0  0  0  0  0  0  0  0  0  0  0
   -5.4416   -7.9160   -4.1339 O   0  0  0  0  0  0  0  0  0  0  0  0
   -4.7842   -9.0108   -3.5035 C   0  0  0  0  0  0  0  0  0  0  0  0
   -4.5445   -6.2046   -2.6112 C   0  0  0  0  0  0  0  0  0  0  0  0
   -2.6599   -4.9952   -0.4194 C   0  0  0  0  0  0  0  0  0  0  0  0
   -1.1401   -4.3028   -0.2914 S   0  0  0  0  0  0  0  0  0  0  0  0
   -0.5265   -5.2999    0.9104 C   0  0  0  0  0  0  0  0  0  0  0  0
   -1.5363   -6.2071    1.2541 C   0  0  0  0  0  0  0  0  0  0  0  0
   -2.7306   -6.0251    0.5207 C   0  0  0  0  0  0  0  0  0  0  0  0
   -3.8746   -6.7619    0.8338 C   0  0  0  0  0  0  0  0  0  0  0  0
   -3.8245   -7.7190    1.8688 C   0  0  0  0  0  0  0  0  0  0  0  0
   -4.9502   -8.4759    2.2325 O   0  0  0  0  0  0  0  0  0  0  0  0
   -6.2377   -8.3397    1.6391 C   0  0  0  0  0  0  0  0  0  0  0  0
   -2.6251   -7.9243    2.5831 C   0  0  0  0  0  0  0  0  0  0  0  0
   -2.6198   -8.8926    3.6000 O   0  0  0  0  0  0  0  0  0  0  0  0
   -1.4902   -9.2110    4.4075 C   0  0  0  0  0  0  0  0  0  0  0  0
   -1.4802   -7.1560    2.2799 C   0  0  0  0  0  0  0  0  0  0  0  0
    0.7169   -4.9746    1.6287 C   0  0  0  0  0  0  0  0  0  0  0  0
    1.1629   -3.6707    1.8149 C   0  0  0  0  0  0  0  0  0  0  0  0
    2.4165   -3.5919    2.4285 C   0  0  0  0  0  0  0  0  0  0  0  0
    3.1054   -2.4028    2.7455 C   0  0  0  0  0  0  0  0  0  0  0  0
    2.5310   -1.0345    2.4487 C   0  0  0  0  0  0  0  0  0  0  0  0
    2.8278   -0.6201    1.0114 C   0  0  0  0  0  0  0  0  0  0  0  0
    4.3826   -2.5517    3.3068 C   0  0  0  0  0  0  0  0  0  0  0  0
    4.9576   -3.8006    3.5753 C   0  0  0  0  0  0  0  0  0  0  0  0
    4.2553   -4.9934    3.2736 C   0  0  0  0  0  0  0  0  0  0  0  0
    4.8241   -6.3594    3.5795 C   0  0  0  0  0  0  0  0  0  0  0  0
    4.5310   -6.7534    5.0253 C   0  0  0  0  0  0  0  0  0  0  0  0
    2.9735   -4.8461    2.7043 C   0  0  0  0  0  0  0  0  0  0  0  0
    1.8900   -6.0461    2.2070 S   0  0  0  0  0  0  0  0  0  0  0  0
    6.2444   -3.6980    4.1408 C   0  0  0  0  0  0  0  0  0  0  0  0
    6.6634   -2.3760    4.3022 C   0  0  0  0  0  0  0  0  0  0  0  0
    5.4541   -1.3395    3.7542 S   0  0  0  0  0  0  0  0  0  0  0  0
    7.9581   -1.9281    4.8362 C   0  0  0  0  0  0  0  0  0  0  0  0
    8.3253   -0.5987    5.0407 C   0  0  0  0  0  0  0  0  0  0  0  0
    9.6290   -0.4553    5.5445 C   0  0  0  0  0  0  0  0  0  0  0  0
   10.2730    0.7603    5.8663 C   0  0  0  0  0  0  0  0  0  0  0  0
    9.5870    2.0999    5.7096 C   0  0  0  0  0  0  0  0  0  0  0  0
    8.7225    2.4147    6.9266 C   0  0  0  0  0  0  0  0  0  0  0  0
   11.5715    0.6589    6.4012 C   0  0  0  0  0  0  0  0  0  0  0  0
   12.2255   -0.5651    6.5864 C   0  0  0  0  0  0  0  0  0  0  0  0
   11.5928   -1.7780    6.2343 C   0  0  0  0  0  0  0  0  0  0  0  0
   12.2522   -3.1211    6.4424 C   0  0  0  0  0  0  0  0  0  0  0  0
   12.0680   -3.5950    7.8826 C   0  0  0  0  0  0  0  0  0  0  0  0
   10.2813   -1.6803    5.7295 C   0  0  0  0  0  0  0  0  0  0  0  0
    9.2424   -2.9291    5.2792 S   0  0  0  0  0  0  0  0  0  0  0  0
   13.5072   -0.4218    7.1474 C   0  0  0  0  0  0  0  0  0  0  0  0
   13.8549    0.9014    7.3985 C   0  0  0  0  0  0  0  0  0  0  0  0
   12.5779    1.8982    6.9326 S   0  0  0  0  0  0  0  0  0  0  0  0
   -2.3756   14.8454   -2.3345 H   0  0  0  0  0  0  0  0  0  0  0  0
   -0.6492   12.9189   -2.1541 H   0  0  0  0  0  0  0  0  0  0  0  0
    0.1070    9.1290   -1.9383 H   0  0  0  0  0  0  0  0  0  0  0  0
    0.1647   10.8609   -1.5617 H   0  0  0  0  0  0  0  0  0  0  0  0
    1.8347   10.2455   -3.3049 H   0  0  0  0  0  0  0  0  0  0  0  0
    0.5186    9.6269   -4.3747 H   0  0  0  0  0  0  0  0  0  0  0  0
    0.6134   11.3915   -3.9808 H   0  0  0  0  0  0  0  0  0  0  0  0
   -6.2917   11.4531   -3.2514 H   0  0  0  0  0  0  0  0  0  0  0  0
   -6.4121    9.6885   -3.3676 H   0  0  0  0  0  0  0  0  0  0  0  0
   -5.5894    9.7808   -5.7529 H   0  0  0  0  0  0  0  0  0  0  0  0
   -7.0704   10.7811   -5.5051 H   0  0  0  0  0  0  0  0  0  0  0  0
   -5.4585   11.5840   -5.6208 H   0  0  0  0  0  0  0  0  0  0  0  0
   -5.2940    7.7873   -3.9601 H   0  0  0  0  0  0  0  0  0  0  0  0
   -5.7113    5.3815   -3.3583 H   0  0  0  0  0  0  0  0  0  0  0  0
   -7.1103    3.8514   -2.4053 H   0  0  0  0  0  0  0  0  0  0  0  0
   -7.6615    2.1680   -2.4593 H   0  0  0  0  0  0  0  0  0  0  0  0
   -8.9871    3.5917   -4.0052 H   0  0  0  0  0  0  0  0  0  0  0  0
   -7.4888    4.0440   -4.9062 H   0  0  0  0  0  0  0  0  0  0  0  0
   -8.0745    2.3310   -4.9189 H   0  0  0  0  0  0  0  0  0  0  0  0
   -1.3827    0.3438   -3.9281 H   0  0  0  0  0  0  0  0  0  0  0  0
   -0.9700    2.0059   -4.3642 H   0  0  0  0  0  0  0  0  0  0  0  0
   -0.6154    0.5031   -6.2893 H   0  0  0  0  0  0  0  0  0  0  0  0
   -2.3387   -0.0281   -6.2381 H   0  0  0  0  0  0  0  0  0  0  0  0
   -1.9293    1.6830   -6.6621 H   0  0  0  0  0  0  0  0  0  0  0  0
   -3.0305   -1.1889   -3.9121 H   0  0  0  0  0  0  0  0  0  0  0  0
   -6.4519   -3.4671   -4.6438 H   0  0  0  0  0  0  0  0  0  0  0  0
   -8.1481   -5.7524   -7.1034 H   0  0  0  0  0  0  0  0  0  0  0  0
   -8.4029   -4.6768   -5.6765 H   0  0  0  0  0  0  0  0  0  0  0  0
   -7.0147   -4.3812   -6.8224 H   0  0  0  0  0  0  0  0  0  0  0  0
   -3.6842   -8.8882   -3.5791 H   0  0  0  0  0  0  0  0  0  0  0  0
   -5.0880   -9.0802   -2.4378 H   0  0  0  0  0  0  0  0  0  0  0  0
   -5.0754   -9.9526   -4.0138 H   0  0  0  0  0  0  0  0  0  0  0  0
   -3.9779   -6.9440   -2.0612 H   0  0  0  0  0  0  0  0  0  0  0  0
   -4.7951   -6.5771    0.2970 H   0  0  0  0  0  0  0  0  0  0  0  0
   -6.1902   -8.6067    0.5613 H   0  0  0  0  0  0  0  0  0  0  0  0
   -6.6071   -7.2995    1.7572 H   0  0  0  0  0  0  0  0  0  0  0  0
   -6.9478   -9.0250    2.1440 H   0  0  0  0  0  0  0  0  0  0  0  0
   -1.7734  -10.0016    5.1327 H   0  0  0  0  0  0  0  0  0  0  0  0
   -1.1621   -8.3133    4.9723 H   0  0  0  0  0  0  0  0  0  0  0  0
   -0.6606   -9.5878    3.7730 H   0  0  0  0  0  0  0  0  0  0  0  0
   -0.5709   -7.2832    2.8465 H   0  0  0  0  0  0  0  0  0  0  0  0
    0.5895   -2.8104    1.4992 H   0  0  0  0  0  0  0  0  0  0  0  0
    2.9525   -0.2761    3.1401 H   0  0  0  0  0  0  0  0  0  0  0  0
    1.4363   -1.0266    2.6231 H   0  0  0  0  0  0  0  0  0  0  0  0
    2.3786    0.3752    0.8119 H   0  0  0  0  0  0  0  0  0  0  0  0
    2.4014   -1.3569    0.2976 H   0  0  0  0  0  0  0  0  0  0  0  0
    3.9241   -0.5515    0.8523 H   0  0  0  0  0  0  0  0  0  0  0  0
    5.9191   -6.3755    3.4017 H   0  0  0  0  0  0  0  0  0  0  0  0
    4.3916   -7.1252    2.9014 H   0  0  0  0  0  0  0  0  0  0  0  0
    4.9567   -6.0034    5.7256 H   0  0  0  0  0  0  0  0  0  0  0  0
    3.4346   -6.8243    5.1878 H   0  0  0  0  0  0  0  0  0  0  0  0
    4.9873   -7.7435    5.2415 H   0  0  0  0  0  0  0  0  0  0  0  0
    6.8542   -4.5447    4.4258 H   0  0  0  0  0  0  0  0  0  0  0  0
    7.6625    0.2305    4.8350 H   0  0  0  0  0  0  0  0  0  0  0  0
   10.3358    2.9103    5.5775 H   0  0  0  0  0  0  0  0  0  0  0  0
    8.9610    2.1104    4.7923 H   0  0  0  0  0  0  0  0  0  0  0  0
    7.9484    1.6294    7.0662 H   0  0  0  0  0  0  0  0  0  0  0  0
    8.2157    3.3908    6.7792 H   0  0  0  0  0  0  0  0  0  0  0  0
    9.3527    2.4723    7.8394 H   0  0  0  0  0  0  0  0  0  0  0  0
   11.8176   -3.8778    5.7546 H   0  0  0  0  0  0  0  0  0  0  0  0
   13.3328   -3.0661    6.2011 H   0  0  0  0  0  0  0  0  0  0  0  0
   12.6868   -2.9836    8.5698 H   0  0  0  0  0  0  0  0  0  0  0  0
   11.0013   -3.5200    8.1825 H   0  0  0  0  0  0  0  0  0  0  0  0
   12.3817   -4.6569    7.9657 H   0  0  0  0  0  0  0  0  0  0  0  0
   14.1692   -1.2458    7.3716 H   0  0  0  0  0  0  0  0  0  0  0  0
   14.7907    1.2310    7.8264 H   0  0  0  0  0  0  0  0  0  0  0  0
  1  2  2  0
  2  3  1  0
  3  4  2  0
  4  5  1  0
  5  6  1  0
  4  7  1  0
  7  8  2  0
  8  9  1  0
  9 10  1  0
 10 11  1  0
  9 12  2  0
 12 13  1  0
  8 14  1  0
 14 15  2  0
 15 16  1  0
 15 17  1  0
 17 18  2  0
 18 19  1  0
 19 20  2  0
 20 21  1  0
 21 22  1  0
 20 23  1  0
 23 24  2  0
 24 25  1  0
 25 26  1  0
 26 27  1  0
 25 28  2  0
 28 29  1  0
 24 30  1  0
 30 31  2  0
 31 32  1  0
 31 33  1  0
 33 34  1  0
 34 35  1  0
 35 36  2  0
 36 37  1  0
 37 38  1  0
 38 39  2  0
 39 40  1  0
 40 41  1  0
 39 42  1  0
 42 43  1  0
 43 44  1  0
 42 45  2  0
 35 46  1  0
 46 47  1  0
 47 48  1  0
 48 49  2  0
 49 50  1  0
 50 51  1  0
 51 52  2  0
 52 53  1  0
 53 54  1  0
 52 55  1  0
 55 56  1  0
 56 57  1  0
 55 58  2  0
 48 59  1  0
 59 60  2  0
 60 61  1  0
 61 62  2  0
 62 63  1  0
 63 64  1  0
 62 65  1  0
 65 66  2  0
 66 67  1  0
 67 68  1  0
 68 69  1  0
 67 70  2  0
 70 71  1  0
 66 72  1  0
 72 73  2  0
 73 74  1  0
 73 75  1  0
 75 76  2  0
 76 77  1  0
 77 78  2  0
 78 79  1  0
 79 80  1  0
 78 81  1  0
 81 82  2  0
 82 83  1  0
 83 84  1  0
 84 85  1  0
 83 86  2  0
 86 87  1  0
 82 88  1  0
 88 89  2  0
 89 90  1  0
 13  1  1  0
 29 17  1  0
 37 33  2  0
 50 46  2  0
 71 59  1  0
 87 75  1  0
 12  3  1  0
 28 19  1  0
 45 36  1  0
 58 49  1  0
 70 61  1  0
 86 77  1  0
 16  7  1  0
 32 23  1  0
 74 65  1  0
 90 81  1  0
  1 91  1  0
  2 92  1  0
  5 93  1  0
  5 94  1  0
  6 95  1  0
  6 96  1  0
  6 97  1  0
 10 98  1  0
 10 99  1  0
 11100  1  0
 11101  1  0
 11102  1  0
 14103  1  0
 18104  1  0
 21105  1  0
 21106  1  0
 22107  1  0
 22108  1  0
 22109  1  0
 26110  1  0
 26111  1  0
 27112  1  0
 27113  1  0
 27114  1  0
 30115  1  0
 38116  1  0
 41117  1  0
 41118  1  0
 41119  1  0
 44120  1  0
 44121  1  0
 44122  1  0
 45123  1  0
 51124  1  0
 54125  1  0
 54126  1  0
 54127  1  0
 57128  1  0
 57129  1  0
 57130  1  0
 58131  1  0
 60132  1  0
 63133  1  0
 63134  1  0
 64135  1  0
 64136  1  0
 64137  1  0
 68138  1  0
 68139  1  0
 69140  1  0
 69141  1  0
 69142  1  0
 72143  1  0
 76144  1  0
 79145  1  0
 79146  1  0
 80147  1  0
 80148  1  0
 80149  1  0
 84150  1  0
 84151  1  0
 85152  1  0
 85153  1  0
 85154  1  0
 88155  1  0
 89156  1  0
M  END

