
     RDKit          3D

133139  0  0  0  0  0  0  0  0999 V2000
    3.9188    2.0065    0.0480 C   0  0  0  0  0  0  0  0  0  0  0  0
    4.9968    2.2296    0.9042 C   0  0  0  0  0  0  0  0  0  0  0  0
    6.3855    1.8505    0.4818 C   0  0  0  0  0  0  0  0  0  0  0  0
    4.7879    2.8952    2.1124 C   0  0  0  0  0  0  0  0  0  0  0  0
    3.4989    3.2887    2.5108 C   0  0  0  0  0  0  0  0  0  0  0  0
    3.3766    4.0675    3.8038 C   0  0  0  0  0  0  0  0  0  0  0  0
    3.4734    5.5672    3.5454 C   0  0  0  0  0  0  0  0  0  0  0  0
    2.3874    3.0144    1.6643 C   0  0  0  0  0  0  0  0  0  0  0  0
    0.9916    3.4684    2.0492 C   0  0  0  0  0  0  0  0  0  0  0  0
    2.6147    2.3711    0.4124 C   0  0  0  0  0  0  0  0  0  0  0  0
    1.5403    2.2259   -0.6125 C   0  0  0  0  0  0  0  0  0  0  0  0
    1.0282    3.3902   -1.2410 C   0  0  0  0  0  0  0  0  0  0  0  0
    1.5152    4.7886   -0.9268 C   0  0  0  0  0  0  0  0  0  0  0  0
    0.0800    3.2723   -2.2555 C   0  0  0  0  0  0  0  0  0  0  0  0
   -0.3179    2.0291   -2.7440 C   0  0  0  0  0  0  0  0  0  0  0  0
   -1.1614    2.0176   -4.0061 C   0  0  0  0  0  0  0  0  0  0  0  0
   -2.6478    2.1085   -3.6956 C   0  0  0  0  0  0  0  0  0  0  0  0
    0.1482    0.8493   -2.1144 C   0  0  0  0  0  0  0  0  0  0  0  0
   -0.2839   -0.4959   -2.6653 C   0  0  0  0  0  0  0  0  0  0  0  0
    1.1092    0.9404   -1.0589 C   0  0  0  0  0  0  0  0  0  0  0  0
    1.8405   -0.3063   -0.6478 C   0  0  0  0  0  0  0  0  0  0  0  0
    2.7509   -0.8862   -1.5706 C   0  0  0  0  0  0  0  0  0  0  0  0
    3.1528   -0.2140   -2.8649 C   0  0  0  0  0  0  0  0  0  0  0  0
    3.2679   -2.1603   -1.3327 C   0  0  0  0  0  0  0  0  0  0  0  0
    2.9195   -2.8926   -0.1971 C   0  0  0  0  0  0  0  0  0  0  0  0
    3.4679   -4.3002   -0.0712 C   0  0  0  0  0  0  0  0  0  0  0  0
    2.5778   -5.2941   -0.8125 C   0  0  0  0  0  0  0  0  0  0  0  0
    2.0423   -2.3262    0.7581 C   0  0  0  0  0  0  0  0  0  0  0  0
    1.6610   -3.1370    1.9874 C   0  0  0  0  0  0  0  0  0  0  0  0
    1.5397   -1.0059    0.5585 C   0  0  0  0  0  0  0  0  0  0  0  0
    0.8139   -0.3379    1.6802 C   0  0  0  0  0  0  0  0  0  0  0  0
    1.5627    0.1135    2.7953 C   0  0  0  0  0  0  0  0  0  0  0  0
    3.0544   -0.0988    2.9062 C   0  0  0  0  0  0  0  0  0  0  0  0
    0.9074    0.6823    3.8860 C   0  0  0  0  0  0  0  0  0  0  0  0
   -0.4846    0.7798    3.9327 C   0  0  0  0  0  0  0  0  0  0  0  0
   -1.0978    1.4776    5.1310 C   0  0  0  0  0  0  0  0  0  0  0  0
   -1.1496    0.5517    6.3443 C   0  0  0  0  0  0  0  0  0  0  0  0
   -1.2606    0.1893    2.9043 C   0  0  0  0  0  0  0  0  0  0  0  0
   -2.7627    0.0728    3.0854 C   0  0  0  0  0  0  0  0  0  0  0  0
   -0.6083   -0.3259    1.7428 C   0  0  0  0  0  0  0  0  0  0  0  0
   -1.3985   -0.9925    0.6746 C   0  0  0  0  0  0  0  0  0  0  0  0
   -1.2878   -2.6311    0.3028 S   0  0  0  0  0  0  0  0  0  0  0  0
   -2.5794   -2.7006   -0.7714 C   0  0  0  0  0  0  0  0  0  0  0  0
   -3.1470   -1.4261   -0.8311 C   0  0  0  0  0  0  0  0  0  0  0  0
   -2.4805   -0.4719   -0.0434 C   0  0  0  0  0  0  0  0  0  0  0  0
   -2.9212    0.8540   -0.0158 C   0  0  0  0  0  0  0  0  0  0  0  0
   -4.0917    1.2126   -0.7176 C   0  0  0  0  0  0  0  0  0  0  0  0
   -4.5891    2.5249   -0.7008 O   0  0  0  0  0  0  0  0  0  0  0  0
   -3.9779    3.6090   -0.0108 C   0  0  0  0  0  0  0  0  0  0  0  0
   -4.7865    0.2446   -1.4726 C   0  0  0  0  0  0  0  0  0  0  0  0
   -5.9503    0.6397   -2.1508 O   0  0  0  0  0  0  0  0  0  0  0  0
   -6.7402   -0.2199   -2.9664 C   0  0  0  0  0  0  0  0  0  0  0  0
   -4.2986   -1.0779   -1.5423 C   0  0  0  0  0  0  0  0  0  0  0  0
   -2.9023   -3.8736   -1.6120 C   0  0  0  0  0  0  0  0  0  0  0  0
   -3.1221   -5.1537   -1.0567 C   0  0  0  0  0  0  0  0  0  0  0  0
   -3.1340   -5.3818    0.4328 C   0  0  0  0  0  0  0  0  0  0  0  0
   -3.2889   -6.2539   -1.9106 C   0  0  0  0  0  0  0  0  0  0  0  0
   -3.2815   -6.1010   -3.3061 C   0  0  0  0  0  0  0  0  0  0  0  0
   -3.4079   -7.3402   -4.1640 C   0  0  0  0  0  0  0  0  0  0  0  0
   -2.0467   -8.0018   -4.3536 C   0  0  0  0  0  0  0  0  0  0  0  0
   -3.0814   -4.8143   -3.8610 C   0  0  0  0  0  0  0  0  0  0  0  0
   -3.0946   -4.5800   -5.3534 C   0  0  0  0  0  0  0  0  0  0  0  0
   -2.9037   -3.7163   -3.0057 C   0  0  0  0  0  0  0  0  0  0  0  0
    4.1045    1.5755   -0.9227 H   0  0  0  0  0  0  0  0  0  0  0  0
    6.3633    0.9863   -0.2146 H   0  0  0  0  0  0  0  0  0  0  0  0
    6.9944    1.5634    1.3653 H   0  0  0  0  0  0  0  0  0  0  0  0
    6.8642    2.7127   -0.0267 H   0  0  0  0  0  0  0  0  0  0  0  0
    5.6401    3.1168    2.7467 H   0  0  0  0  0  0  0  0  0  0  0  0
    2.4375    3.8356    4.3422 H   0  0  0  0  0  0  0  0  0  0  0  0
    4.1899    3.7763    4.5022 H   0  0  0  0  0  0  0  0  0  0  0  0
    2.6911    5.8932    2.8267 H   0  0  0  0  0  0  0  0  0  0  0  0
    3.3338    6.1229    4.4969 H   0  0  0  0  0  0  0  0  0  0  0  0
    4.4722    5.8201    3.1290 H   0  0  0  0  0  0  0  0  0  0  0  0
    0.7680    3.2613    3.1093 H   0  0  0  0  0  0  0  0  0  0  0  0
    0.8921    4.5573    1.8801 H   0  0  0  0  0  0  0  0  0  0  0  0
    0.2063    2.9407    1.4723 H   0  0  0  0  0  0  0  0  0  0  0  0
    0.7399    5.3301   -0.3485 H   0  0  0  0  0  0  0  0  0  0  0  0
    1.6935    5.3453   -1.8717 H   0  0  0  0  0  0  0  0  0  0  0  0
    2.4719    4.8049   -0.3699 H   0  0  0  0  0  0  0  0  0  0  0  0
   -0.2945    4.1727   -2.7292 H   0  0  0  0  0  0  0  0  0  0  0  0
   -0.8848    2.8850   -4.6445 H   0  0  0  0  0  0  0  0  0  0  0  0
   -0.9626    1.1204   -4.6259 H   0  0  0  0  0  0  0  0  0  0  0  0
   -3.2098    2.3134   -4.6311 H   0  0  0  0  0  0  0  0  0  0  0  0
   -3.0026    1.1446   -3.2853 H   0  0  0  0  0  0  0  0  0  0  0  0
   -2.8512    2.9244   -2.9718 H   0  0  0  0  0  0  0  0  0  0  0  0
   -1.3738   -0.5056   -2.8555 H   0  0  0  0  0  0  0  0  0  0  0  0
    0.2454   -0.7022   -3.6177 H   0  0  0  0  0  0  0  0  0  0  0  0
   -0.0790   -1.3303   -1.9698 H   0  0  0  0  0  0  0  0  0  0  0  0
    2.6358   -0.7023   -3.7162 H   0  0  0  0  0  0  0  0  0  0  0  0
    4.2491   -0.3144   -3.0189 H   0  0  0  0  0  0  0  0  0  0  0  0
    2.9217    0.8705   -2.8805 H   0  0  0  0  0  0  0  0  0  0  0  0
    3.9351   -2.6046   -2.0642 H   0  0  0  0  0  0  0  0  0  0  0  0
    4.4923   -4.3476   -0.5001 H   0  0  0  0  0  0  0  0  0  0  0  0
    3.5679   -4.6081    0.9897 H   0  0  0  0  0  0  0  0  0  0  0  0
    2.6088   -5.0931   -1.9041 H   0  0  0  0  0  0  0  0  0  0  0  0
    2.9454   -6.3243   -0.6324 H   0  0  0  0  0  0  0  0  0  0  0  0
    1.5274   -5.2207   -0.4623 H   0  0  0  0  0  0  0  0  0  0  0  0
    0.8497   -2.6794    2.5864 H   0  0  0  0  0  0  0  0  0  0  0  0
    1.2877   -4.1354    1.6843 H   0  0  0  0  0  0  0  0  0  0  0  0
    2.5433   -3.2663    2.6455 H   0  0  0  0  0  0  0  0  0  0  0  0
    3.5208    0.6823    3.5408 H   0  0  0  0  0  0  0  0  0  0  0  0
    3.5527   -0.0672    1.9180 H   0  0  0  0  0  0  0  0  0  0  0  0
    3.2556   -1.0816    3.3788 H   0  0  0  0  0  0  0  0  0  0  0  0
    1.4916    1.0584    4.7195 H   0  0  0  0  0  0  0  0  0  0  0  0
   -2.1130    1.8658    4.9040 H   0  0  0  0  0  0  0  0  0  0  0  0
   -0.4849    2.3688    5.3911 H   0  0  0  0  0  0  0  0  0  0  0  0
   -0.1254    0.2276    6.6244 H   0  0  0  0  0  0  0  0  0  0  0  0
   -1.5940    1.0934    7.2025 H   0  0  0  0  0  0  0  0  0  0  0  0
   -1.7638   -0.3485    6.1293 H   0  0  0  0  0  0  0  0  0  0  0  0
   -3.2523    1.0256    2.7964 H   0  0  0  0  0  0  0  0  0  0  0  0
   -3.0214   -0.1541    4.1361 H   0  0  0  0  0  0  0  0  0  0  0  0
   -3.1995   -0.7618    2.5012 H   0  0  0  0  0  0  0  0  0  0  0  0
   -2.3706    1.5888    0.5554 H   0  0  0  0  0  0  0  0  0  0  0  0
   -4.5713    4.5294   -0.1848 H   0  0  0  0  0  0  0  0  0  0  0  0
   -3.9526    3.4002    1.0784 H   0  0  0  0  0  0  0  0  0  0  0  0
   -2.9471    3.7710   -0.3940 H   0  0  0  0  0  0  0  0  0  0  0  0
   -7.1366   -1.0631   -2.3645 H   0  0  0  0  0  0  0  0  0  0  0  0
   -6.1344   -0.6071   -3.8140 H   0  0  0  0  0  0  0  0  0  0  0  0
   -7.5956    0.3535   -3.3784 H   0  0  0  0  0  0  0  0  0  0  0  0
   -4.8199   -1.8305   -2.1167 H   0  0  0  0  0  0  0  0  0  0  0  0
   -3.6203   -4.5304    0.9556 H   0  0  0  0  0  0  0  0  0  0  0  0
   -3.7072   -6.2971    0.6914 H   0  0  0  0  0  0  0  0  0  0  0  0
   -2.0926   -5.4968    0.8020 H   0  0  0  0  0  0  0  0  0  0  0  0
   -3.4189   -7.2424   -1.4852 H   0  0  0  0  0  0  0  0  0  0  0  0
   -3.8465   -7.1064   -5.1556 H   0  0  0  0  0  0  0  0  0  0  0  0
   -4.0974   -8.0655   -3.6810 H   0  0  0  0  0  0  0  0  0  0  0  0
   -2.1482   -8.8796   -5.0274 H   0  0  0  0  0  0  0  0  0  0  0  0
   -1.3269   -7.2900   -4.8102 H   0  0  0  0  0  0  0  0  0  0  0  0
   -1.6488   -8.3482   -3.3779 H   0  0  0  0  0  0  0  0  0  0  0  0
   -2.4402   -5.3121   -5.8642 H   0  0  0  0  0  0  0  0  0  0  0  0
   -2.7214   -3.5672   -5.6115 H   0  0  0  0  0  0  0  0  0  0  0  0
   -4.1318   -4.6781   -5.7342 H   0  0  0  0  0  0  0  0  0  0  0  0
   -2.7308   -2.7318   -3.4279 H   0  0  0  0  0  0  0  0  0  0  0  0
  1  2  2  0
  2  3  1  0
  2  4  1  0
  4  5  2  0
  5  6  1  0
  6  7  1  0
  5  8  1  0
  8  9  1  0
  8 10  2  0
 10 11  1  0
 11 12  2  0
 12 13  1  0
 12 14  1  0
 14 15  2  0
 15 16  1  0
 16 17  1  0
 15 18  1  0
 18 19  1  0
 18 20  2  0
 20 21  1  0
 21 22  2  0
 22 23  1  0
 22 24  1  0
 24 25  2  0
 25 26  1  0
 26 27  1  0
 25 28  1  0
 28 29  1  0
 28 30  2  0
 30 31  1  0
 31 32  2  0
 32 33  1  0
 32 34  1  0
 34 35  2  0
 35 36  1  0
 36 37  1  0
 35 38  1  0
 38 39  1  0
 38 40  2  0
 40 41  1  0
 41 42  1  0
 42 43  1  0
 43 44  2  0
 44 45  1  0
 45 46  1  0
 46 47  2  0
 47 48  1  0
 48 49  1  0
 47 50  1  0
 50 51  1  0
 51 52  1  0
 50 53  2  0
 43 54  1  0
 54 55  2  0
 55 56  1  0
 55 57  1  0
 57 58  2  0
 58 59  1  0
 59 60  1  0
 58 61  1  0
 61 62  1  0
 61 63  2  0
 10  1  1  0
 20 11  1  0
 30 21  1  0
 40 31  1  0
 45 41  2  0
 63 54  1  0
 53 44  1  0
  1 64  1  0
  3 65  1  0
  3 66  1  0
  3 67  1  0
  4 68  1  0
  6 69  1  0
  6 70  1  0
  7 71  1  0
  7 72  1  0
  7 73  1  0
  9 74  1  0
  9 75  1  0
  9 76  1  0
 13 77  1  0
 13 78  1  0
 13 79  1  0
 14 80  1  0
 16 81  1  0
 16 82  1  0
 17 83  1  0
 17 84  1  0
 17 85  1  0
 19 86  1  0
 19 87  1  0
 19 88  1  0
 23 89  1  0
 23 90  1  0
 23 91  1  0
 24 92  1  0
 26 93  1  0
 26 94  1  0
 27 95  1  0
 27 96  1  0
 27 97  1  0
 29 98  1  0
 29 99  1  0
 29100  1  0
 33101  1  0
 33102  1  0
 33103  1  0
 34104  1  0
 36105  1  0
 36106  1  0
 37107  1  0
 37108  1  0
 37109  1  0
 39110  1  0
 39111  1  0
 39112  1  0
 46113  1  0
 49114  1  0
 49115  1  0
 49116  1  0
 52117  1  0
 52118  1  0
 52119  1  0
 53120  1  0
 56121  1  0
 56122  1  0
 56123  1  0
 57124  1  0
 59125  1  0
 59126  1  0
 60127  1  0
 60128  1  0
 60129  1  0
 62130  1  0
 62131  1  0
 62132  1  0
 63133  1  0
M  END

