
     RDKit          3D

140151  0  0  0  0  0  0  0  0999 V2000
    6.5109    3.8843    2.3653 C   0  0  0  0  0  0  0  0  0  0  0  0
    6.6969    3.5006    3.6200 C   0  0  0  0  0  0  0  0  0  0  0  0
    5.6146    2.5871    3.9946 C   0  0  0  0  0  0  0  0  0  0  0  0
    5.4110    2.0247    5.2589 O   0  0  0  0  0  0  0  0  0  0  0  0
    6.2714    2.2757    6.3603 C   0  0  0  0  0  0  0  0  0  0  0  0
    4.8032    2.4044    2.9608 C   0  0  0  0  0  0  0  0  0  0  0  0
    5.3204    3.2076    1.8445 C   0  0  0  0  0  0  0  0  0  0  0  0
    4.9001    3.2381    0.5694 C   0  0  0  0  0  0  0  0  0  0  0  0
    5.4370    4.0853   -0.4927 C   0  0  0  0  0  0  0  0  0  0  0  0
    4.7689    3.8022   -1.5994 C   0  0  0  0  0  0  0  0  0  0  0  0
    4.9951    4.4378   -2.8230 O   0  0  0  0  0  0  0  0  0  0  0  0
    4.2541    4.1245   -3.9956 C   0  0  0  0  0  0  0  0  0  0  0  0
    3.7846    2.7507   -1.3354 C   0  0  0  0  0  0  0  0  0  0  0  0
    3.8626    2.4131   -0.0564 C   0  0  0  0  0  0  0  0  0  0  0  0
    3.4955    1.7369    3.0543 C   0  0  0  0  0  0  0  0  0  0  0  0
    2.0117    2.4958    2.8098 S   0  0  0  0  0  0  0  0  0  0  0  0
    1.0412    1.1578    3.1408 C   0  0  0  0  0  0  0  0  0  0  0  0
    1.8900    0.0868    3.4533 C   0  0  0  0  0  0  0  0  0  0  0  0
    3.2530    0.4103    3.3993 C   0  0  0  0  0  0  0  0  0  0  0  0
    4.2256   -0.5657    3.6282 C   0  0  0  0  0  0  0  0  0  0  0  0
    3.8357   -1.8875    3.9419 C   0  0  0  0  0  0  0  0  0  0  0  0
    4.7970   -2.8892    4.1523 O   0  0  0  0  0  0  0  0  0  0  0  0
    6.2028   -2.7185    3.9969 C   0  0  0  0  0  0  0  0  0  0  0  0
    2.4502   -2.2021    4.0474 C   0  0  0  0  0  0  0  0  0  0  0  0
    1.9528   -3.4747    4.3854 O   0  0  0  0  0  0  0  0  0  0  0  0
    2.7268   -4.6409    4.6566 C   0  0  0  0  0  0  0  0  0  0  0  0
    1.4934   -1.2065    3.8070 C   0  0  0  0  0  0  0  0  0  0  0  0
   -0.4061    1.0825    2.8550 C   0  0  0  0  0  0  0  0  0  0  0  0
   -1.1164   -0.1986    2.0280 S   0  0  0  0  0  0  0  0  0  0  0  0
   -2.6479    0.4577    1.8762 C   0  0  0  0  0  0  0  0  0  0  0  0
   -2.6345    1.7191    2.4621 C   0  0  0  0  0  0  0  0  0  0  0  0
   -1.3828    2.0781    2.9981 C   0  0  0  0  0  0  0  0  0  0  0  0
   -1.2096    3.3322    3.5897 C   0  0  0  0  0  0  0  0  0  0  0  0
   -2.2855    4.2479    3.6117 C   0  0  0  0  0  0  0  0  0  0  0  0
   -2.1535    5.5320    4.1659 O   0  0  0  0  0  0  0  0  0  0  0  0
   -0.9515    6.0475    4.7311 C   0  0  0  0  0  0  0  0  0  0  0  0
   -3.5332    3.8863    3.0618 C   0  0  0  0  0  0  0  0  0  0  0  0
   -4.5773    4.8257    3.1062 O   0  0  0  0  0  0  0  0  0  0  0  0
   -5.8886    4.5963    2.5982 C   0  0  0  0  0  0  0  0  0  0  0  0
   -3.7073    2.6103    2.4872 C   0  0  0  0  0  0  0  0  0  0  0  0
   -3.7200   -0.1819    1.1117 C   0  0  0  0  0  0  0  0  0  0  0  0
   -4.4144   -1.1920    1.6187 C   0  0  0  0  0  0  0  0  0  0  0  0
   -4.8768   -2.0393    0.5193 C   0  0  0  0  0  0  0  0  0  0  0  0
   -5.5192   -3.2753    0.6531 O   0  0  0  0  0  0  0  0  0  0  0  0
   -5.7690   -3.8794    1.9143 C   0  0  0  0  0  0  0  0  0  0  0  0
   -4.4819   -1.5330   -0.6405 C   0  0  0  0  0  0  0  0  0  0  0  0
   -3.7692   -0.2771   -0.3584 C   0  0  0  0  0  0  0  0  0  0  0  0
   -3.3400    0.6341   -1.2562 C   0  0  0  0  0  0  0  0  0  0  0  0
   -2.5660    1.8500   -0.9981 C   0  0  0  0  0  0  0  0  0  0  0  0
   -2.4073    2.4804   -2.1565 C   0  0  0  0  0  0  0  0  0  0  0  0
   -1.7130    3.6800   -2.3502 O   0  0  0  0  0  0  0  0  0  0  0  0
   -1.0467    4.3776   -1.3034 C   0  0  0  0  0  0  0  0  0  0  0  0
   -3.0669    1.7354   -3.2194 C   0  0  0  0  0  0  0  0  0  0  0  0
   -3.6193    0.6515   -2.6968 C   0  0  0  0  0  0  0  0  0  0  0  0
   -4.4178   -2.3298   -1.8808 C   0  0  0  0  0  0  0  0  0  0  0  0
   -5.4956   -2.7795   -2.5108 C   0  0  0  0  0  0  0  0  0  0  0  0
   -5.0792   -3.3484   -3.7838 C   0  0  0  0  0  0  0  0  0  0  0  0
   -5.9485   -3.9379   -4.6991 O   0  0  0  0  0  0  0  0  0  0  0  0
   -6.0364   -5.3543   -4.8193 C   0  0  0  0  0  0  0  0  0  0  0  0
   -3.7634   -3.2350   -3.9379 C   0  0  0  0  0  0  0  0  0  0  0  0
   -3.2298   -2.5844   -2.7270 C   0  0  0  0  0  0  0  0  0  0  0  0
   -1.9399   -2.3215   -2.4330 C   0  0  0  0  0  0  0  0  0  0  0  0
   -1.3705   -2.0834   -1.1077 C   0  0  0  0  0  0  0  0  0  0  0  0
   -0.0787   -1.8520   -1.2585 C   0  0  0  0  0  0  0  0  0  0  0  0
    0.7857   -1.5833   -0.1949 O   0  0  0  0  0  0  0  0  0  0  0  0
    2.1768   -1.3519   -0.3650 C   0  0  0  0  0  0  0  0  0  0  0  0
    0.2782   -1.9298   -2.6746 C   0  0  0  0  0  0  0  0  0  0  0  0
   -0.8152   -2.2203   -3.3660 C   0  0  0  0  0  0  0  0  0  0  0  0
   -3.0207   -3.7477   -5.1055 C   0  0  0  0  0  0  0  0  0  0  0  0
   -3.2229   -3.3074   -6.3428 C   0  0  0  0  0  0  0  0  0  0  0  0
   -2.2235   -3.9033   -7.2203 C   0  0  0  0  0  0  0  0  0  0  0  0
   -2.1430   -3.6486   -8.5946 O   0  0  0  0  0  0  0  0  0  0  0  0
   -1.1311   -4.1975   -9.4333 C   0  0  0  0  0  0  0  0  0  0  0  0
   -1.4272   -4.7052   -6.5221 C   0  0  0  0  0  0  0  0  0  0  0  0
   -1.8879   -4.6927   -5.1342 C   0  0  0  0  0  0  0  0  0  0  0  0
   -1.3664   -5.4325   -4.1410 C   0  0  0  0  0  0  0  0  0  0  0  0
   -1.8427   -5.5689   -2.7656 C   0  0  0  0  0  0  0  0  0  0  0  0
   -0.9667   -6.3192   -2.1181 C   0  0  0  0  0  0  0  0  0  0  0  0
   -1.0795   -6.6483   -0.7645 O   0  0  0  0  0  0  0  0  0  0  0  0
   -0.0815   -7.3864   -0.0707 C   0  0  0  0  0  0  0  0  0  0  0  0
    0.1042   -6.7370   -3.0242 C   0  0  0  0  0  0  0  0  0  0  0  0
   -0.1408   -6.2300   -4.2224 C   0  0  0  0  0  0  0  0  0  0  0  0
    7.1632    4.5575    1.8237 H   0  0  0  0  0  0  0  0  0  0  0  0
    7.5078    3.8328    4.2537 H   0  0  0  0  0  0  0  0  0  0  0  0
    7.3009    1.9318    6.1244 H   0  0  0  0  0  0  0  0  0  0  0  0
    5.9000    1.7187    7.2452 H   0  0  0  0  0  0  0  0  0  0  0  0
    6.2783    3.3610    6.5965 H   0  0  0  0  0  0  0  0  0  0  0  0
    6.2184    4.8283   -0.4088 H   0  0  0  0  0  0  0  0  0  0  0  0
    3.1714    4.3055   -3.8216 H   0  0  0  0  0  0  0  0  0  0  0  0
    4.4177    3.0618   -4.2761 H   0  0  0  0  0  0  0  0  0  0  0  0
    4.5972    4.7722   -4.8274 H   0  0  0  0  0  0  0  0  0  0  0  0
    3.1183    2.2947   -2.0557 H   0  0  0  0  0  0  0  0  0  0  0  0
    3.2850    1.6208    0.3961 H   0  0  0  0  0  0  0  0  0  0  0  0
    5.2715   -0.3022    3.5439 H   0  0  0  0  0  0  0  0  0  0  0  0
    6.7054   -3.6871    4.1956 H   0  0  0  0  0  0  0  0  0  0  0  0
    6.5778   -1.9672    4.7240 H   0  0  0  0  0  0  0  0  0  0  0  0
    6.4367   -2.3997    2.9601 H   0  0  0  0  0  0  0  0  0  0  0  0
    3.3270   -4.9215    3.7654 H   0  0  0  0  0  0  0  0  0  0  0  0
    3.3806   -4.4724    5.5389 H   0  0  0  0  0  0  0  0  0  0  0  0
    2.0403   -5.4782    4.8908 H   0  0  0  0  0  0  0  0  0  0  0  0
    0.4464   -1.4545    3.9108 H   0  0  0  0  0  0  0  0  0  0  0  0
   -0.2581    3.5935    4.0276 H   0  0  0  0  0  0  0  0  0  0  0  0
   -1.1244    7.0925    5.0586 H   0  0  0  0  0  0  0  0  0  0  0  0
   -0.1415    6.0459    3.9724 H   0  0  0  0  0  0  0  0  0  0  0  0
   -0.6545    5.4416    5.6105 H   0  0  0  0  0  0  0  0  0  0  0  0
   -6.3659    3.7507    3.1389 H   0  0  0  0  0  0  0  0  0  0  0  0
   -5.8442    4.3757    1.5098 H   0  0  0  0  0  0  0  0  0  0  0  0
   -6.5019    5.5072    2.7484 H   0  0  0  0  0  0  0  0  0  0  0  0
   -4.6530    2.3161    2.0535 H   0  0  0  0  0  0  0  0  0  0  0  0
   -4.4165   -1.4713    2.6641 H   0  0  0  0  0  0  0  0  0  0  0  0
   -6.2763   -4.8530    1.7572 H   0  0  0  0  0  0  0  0  0  0  0  0
   -6.4239   -3.2241    2.5284 H   0  0  0  0  0  0  0  0  0  0  0  0
   -4.8094   -4.0573    2.4446 H   0  0  0  0  0  0  0  0  0  0  0  0
   -2.1593    2.1859   -0.0621 H   0  0  0  0  0  0  0  0  0  0  0  0
   -0.5946    5.3050   -1.7130 H   0  0  0  0  0  0  0  0  0  0  0  0
   -0.2418    3.7429   -0.8774 H   0  0  0  0  0  0  0  0  0  0  0  0
   -1.7695    4.6541   -0.5066 H   0  0  0  0  0  0  0  0  0  0  0  0
   -3.1316    2.0294   -4.2596 H   0  0  0  0  0  0  0  0  0  0  0  0
   -4.2199   -0.0489   -3.2591 H   0  0  0  0  0  0  0  0  0  0  0  0
   -6.5155   -2.6821   -2.1616 H   0  0  0  0  0  0  0  0  0  0  0  0
   -6.7300   -5.6075   -5.6464 H   0  0  0  0  0  0  0  0  0  0  0  0
   -5.0387   -5.7916   -5.0369 H   0  0  0  0  0  0  0  0  0  0  0  0
   -6.4299   -5.7851   -3.8723 H   0  0  0  0  0  0  0  0  0  0  0  0
   -1.8699   -2.1584   -0.1546 H   0  0  0  0  0  0  0  0  0  0  0  0
    2.6580   -2.2479   -0.8109 H   0  0  0  0  0  0  0  0  0  0  0  0
    2.3383   -0.4677   -1.0189 H   0  0  0  0  0  0  0  0  0  0  0  0
    2.6368   -1.1535    0.6256 H   0  0  0  0  0  0  0  0  0  0  0  0
    1.2547   -1.7505   -3.1061 H   0  0  0  0  0  0  0  0  0  0  0  0
   -0.8568   -2.2672   -4.4460 H   0  0  0  0  0  0  0  0  0  0  0  0
   -3.9661   -2.5774   -6.6346 H   0  0  0  0  0  0  0  0  0  0  0  0
   -1.1467   -5.3077   -9.3773 H   0  0  0  0  0  0  0  0  0  0  0  0
   -1.3234   -3.8928  -10.4809 H   0  0  0  0  0  0  0  0  0  0  0  0
   -0.1344   -3.8189   -9.1211 H   0  0  0  0  0  0  0  0  0  0  0  0
   -0.6058   -5.2809   -6.9248 H   0  0  0  0  0  0  0  0  0  0  0  0
   -2.7470   -5.1734   -2.3311 H   0  0  0  0  0  0  0  0  0  0  0  0
    0.8782   -6.8277   -0.0804 H   0  0  0  0  0  0  0  0  0  0  0  0
    0.0593   -8.3812   -0.5467 H   0  0  0  0  0  0  0  0  0  0  0  0
   -0.4010   -7.5329    0.9813 H   0  0  0  0  0  0  0  0  0  0  0  0
    0.9546   -7.3586   -2.7763 H   0  0  0  0  0  0  0  0  0  0  0  0
    0.4906   -6.3676   -5.0897 H   0  0  0  0  0  0  0  0  0  0  0  0
  1  2  2  0
  2  3  1  0
  3  4  1  0
  4  5  1  0
  3  6  2  0
  6  7  1  0
  7  8  2  0
  8  9  1  0
  9 10  2  0
 10 11  1  0
 11 12  1  0
 10 13  1  0
 13 14  2  0
  6 15  1  0
 15 16  1  0
 16 17  1  0
 17 18  2  0
 18 19  1  0
 19 20  1  0
 20 21  2  0
 21 22  1  0
 22 23  1  0
 21 24  1  0
 24 25  1  0
 25 26  1  0
 24 27  2  0
 17 28  1  0
 28 29  1  0
 29 30  1  0
 30 31  2  0
 31 32  1  0
 32 33  1  0
 33 34  2  0
 34 35  1  0
 35 36  1  0
 34 37  1  0
 37 38  1  0
 38 39  1  0
 37 40  2  0
 30 41  1  0
 41 42  2  0
 42 43  1  0
 43 44  1  0
 44 45  1  0
 43 46  2  0
 46 47  1  0
 47 48  2  0
 48 49  1  0
 49 50  2  0
 50 51  1  0
 51 52  1  0
 50 53  1  0
 53 54  2  0
 46 55  1  0
 55 56  2  0
 56 57  1  0
 57 58  1  0
 58 59  1  0
 57 60  2  0
 60 61  1  0
 61 62  2  0
 62 63  1  0
 63 64  2  0
 64 65  1  0
 65 66  1  0
 64 67  1  0
 67 68  2  0
 60 69  1  0
 69 70  2  0
 70 71  1  0
 71 72  1  0
 72 73  1  0
 71 74  2  0
 74 75  1  0
 75 76  2  0
 76 77  1  0
 77 78  2  0
 78 79  1  0
 79 80  1  0
 78 81  1  0
 81 82  2  0
  7  1  1  0
 14  8  1  0
 19 15  2  0
 32 28  2  0
 47 41  1  0
 54 48  1  0
 61 55  1  0
 68 62  1  0
 75 69  1  0
 82 76  1  0
 27 18  1  0
 40 31  1  0
  1 83  1  0
  2 84  1  0
  5 85  1  0
  5 86  1  0
  5 87  1  0
  9 88  1  0
 12 89  1  0
 12 90  1  0
 12 91  1  0
 13 92  1  0
 14 93  1  0
 20 94  1  0
 23 95  1  0
 23 96  1  0
 23 97  1  0
 26 98  1  0
 26 99  1  0
 26100  1  0
 27101  1  0
 33102  1  0
 36103  1  0
 36104  1  0
 36105  1  0
 39106  1  0
 39107  1  0
 39108  1  0
 40109  1  0
 42110  1  0
 45111  1  0
 45112  1  0
 45113  1  0
 49114  1  0
 52115  1  0
 52116  1  0
 52117  1  0
 53118  1  0
 54119  1  0
 56120  1  0
 59121  1  0
 59122  1  0
 59123  1  0
 63124  1  0
 66125  1  0
 66126  1  0
 66127  1  0
 67128  1  0
 68129  1  0
 70130  1  0
 73131  1  0
 73132  1  0
 73133  1  0
 74134  1  0
 77135  1  0
 80136  1  0
 80137  1  0
 80138  1  0
 81139  1  0
 82140  1  0
M  END

