
     RDKit          3D

140147  0  0  0  0  0  0  0  0999 V2000
    6.6086    3.4620   -2.8047 C   0  0  0  0  0  0  0  0  0  0  0  0
    6.8395    4.7202   -3.3854 C   0  0  0  0  0  0  0  0  0  0  0  0
    8.1217    5.1638   -3.7488 O   0  0  0  0  0  0  0  0  0  0  0  0
    9.3214    4.3945   -3.6677 C   0  0  0  0  0  0  0  0  0  0  0  0
    9.4005    3.3952   -4.8151 C   0  0  0  0  0  0  0  0  0  0  0  0
    5.7584    5.5852   -3.5902 C   0  0  0  0  0  0  0  0  0  0  0  0
    4.4503    5.2154   -3.2185 C   0  0  0  0  0  0  0  0  0  0  0  0
    3.3546    6.0843   -3.3719 O   0  0  0  0  0  0  0  0  0  0  0  0
    3.3729    7.3513   -4.0276 C   0  0  0  0  0  0  0  0  0  0  0  0
    3.4500    7.1778   -5.5409 C   0  0  0  0  0  0  0  0  0  0  0  0
    4.2364    3.9540   -2.6326 C   0  0  0  0  0  0  0  0  0  0  0  0
    5.3202    3.0892   -2.4233 C   0  0  0  0  0  0  0  0  0  0  0  0
    2.9091    3.5752   -2.1145 C   0  0  0  0  0  0  0  0  0  0  0  0
    2.6197    3.1410   -0.5167 S   0  0  0  0  0  0  0  0  0  0  0  0
    0.9562    2.9167   -0.6497 C   0  0  0  0  0  0  0  0  0  0  0  0
    0.6057    3.1599   -1.9839 C   0  0  0  0  0  0  0  0  0  0  0  0
    1.6960    3.5081   -2.8024 C   0  0  0  0  0  0  0  0  0  0  0  0
    1.5226    3.6786   -4.1800 C   0  0  0  0  0  0  0  0  0  0  0  0
    0.2339    3.5354   -4.7396 C   0  0  0  0  0  0  0  0  0  0  0  0
    0.0077    3.6356   -6.1214 O   0  0  0  0  0  0  0  0  0  0  0  0
    1.0327    3.7321   -7.1046 C   0  0  0  0  0  0  0  0  0  0  0  0
   -0.8714    3.2718   -3.9070 C   0  0  0  0  0  0  0  0  0  0  0  0
   -2.1429    3.1894   -4.4982 O   0  0  0  0  0  0  0  0  0  0  0  0
   -3.3549    2.9880   -3.7803 C   0  0  0  0  0  0  0  0  0  0  0  0
   -0.6824    3.0825   -2.5226 C   0  0  0  0  0  0  0  0  0  0  0  0
    0.1194    2.2994    0.3992 C   0  0  0  0  0  0  0  0  0  0  0  0
   -0.9634    1.0439    0.1209 S   0  0  0  0  0  0  0  0  0  0  0  0
   -1.3040    0.6812    1.7270 C   0  0  0  0  0  0  0  0  0  0  0  0
   -0.5269    1.5269    2.5238 C   0  0  0  0  0  0  0  0  0  0  0  0
    0.2456    2.4422    1.7850 C   0  0  0  0  0  0  0  0  0  0  0  0
    1.0332    3.3917    2.4430 C   0  0  0  0  0  0  0  0  0  0  0  0
    1.0955    3.3935    3.8521 C   0  0  0  0  0  0  0  0  0  0  0  0
    1.8561    4.3395    4.5581 O   0  0  0  0  0  0  0  0  0  0  0  0
    2.5987    5.3934    3.9521 C   0  0  0  0  0  0  0  0  0  0  0  0
    0.3834    2.4263    4.5895 C   0  0  0  0  0  0  0  0  0  0  0  0
    0.5075    2.4372    5.9882 O   0  0  0  0  0  0  0  0  0  0  0  0
   -0.1145    1.5007    6.8625 C   0  0  0  0  0  0  0  0  0  0  0  0
   -0.4262    1.4843    3.9189 C   0  0  0  0  0  0  0  0  0  0  0  0
   -2.2839   -0.3457    2.1415 C   0  0  0  0  0  0  0  0  0  0  0  0
   -3.2830   -0.0673    3.0941 C   0  0  0  0  0  0  0  0  0  0  0  0
   -3.3201    1.2037    3.6865 O   0  0  0  0  0  0  0  0  0  0  0  0
   -4.2062    1.5961    4.7304 C   0  0  0  0  0  0  0  0  0  0  0  0
   -3.8613    3.0095    5.1721 C   0  0  0  0  0  0  0  0  0  0  0  0
   -4.2371   -1.0562    3.4024 C   0  0  0  0  0  0  0  0  0  0  0  0
   -4.2418   -2.2921    2.7273 C   0  0  0  0  0  0  0  0  0  0  0  0
   -5.1925   -3.2874    3.0043 O   0  0  0  0  0  0  0  0  0  0  0  0
   -6.1880   -3.1943    4.0192 C   0  0  0  0  0  0  0  0  0  0  0  0
   -7.0035   -4.4758    4.0458 C   0  0  0  0  0  0  0  0  0  0  0  0
   -3.2666   -2.5397    1.7469 C   0  0  0  0  0  0  0  0  0  0  0  0
   -2.2889   -1.5775    1.4745 C   0  0  0  0  0  0  0  0  0  0  0  0
   -3.2756   -3.7863    0.9564 C   0  0  0  0  0  0  0  0  0  0  0  0
   -4.2252   -3.9800   -0.0594 C   0  0  0  0  0  0  0  0  0  0  0  0
   -5.2126   -2.9997   -0.2546 O   0  0  0  0  0  0  0  0  0  0  0  0
   -6.2377   -3.0628   -1.2418 C   0  0  0  0  0  0  0  0  0  0  0  0
   -7.0895   -1.8068   -1.1617 C   0  0  0  0  0  0  0  0  0  0  0  0
   -4.1468   -5.1320   -0.8643 C   0  0  0  0  0  0  0  0  0  0  0  0
   -3.1183   -6.0770   -0.6747 C   0  0  0  0  0  0  0  0  0  0  0  0
   -2.9686   -7.2006   -1.5078 O   0  0  0  0  0  0  0  0  0  0  0  0
   -3.8385   -7.5855   -2.5724 C   0  0  0  0  0  0  0  0  0  0  0  0
   -5.1053   -8.2347   -2.0265 C   0  0  0  0  0  0  0  0  0  0  0  0
   -2.1823   -5.8791    0.3604 C   0  0  0  0  0  0  0  0  0  0  0  0
   -2.2706   -4.7349    1.1661 C   0  0  0  0  0  0  0  0  0  0  0  0
   -1.0967   -6.8586    0.6053 C   0  0  0  0  0  0  0  0  0  0  0  0
    0.2517   -6.4470    0.6459 C   0  0  0  0  0  0  0  0  0  0  0  0
    0.5539   -5.0982    0.3773 O   0  0  0  0  0  0  0  0  0  0  0  0
    1.7915   -4.4455    0.6626 C   0  0  0  0  0  0  0  0  0  0  0  0
    1.9441   -4.2231    2.1634 C   0  0  0  0  0  0  0  0  0  0  0  0
    1.2542   -7.3963    0.9322 C   0  0  0  0  0  0  0  0  0  0  0  0
    0.9236   -8.7473    1.1517 C   0  0  0  0  0  0  0  0  0  0  0  0
    1.8865   -9.7337    1.4228 O   0  0  0  0  0  0  0  0  0  0  0  0
    3.3021   -9.5538    1.3667 C   0  0  0  0  0  0  0  0  0  0  0  0
    3.7832   -9.4816   -0.0781 C   0  0  0  0  0  0  0  0  0  0  0  0
   -0.4174   -9.1350    1.1079 C   0  0  0  0  0  0  0  0  0  0  0  0
   -1.4196   -8.2036    0.8388 C   0  0  0  0  0  0  0  0  0  0  0  0
    7.4162    2.7691   -2.6183 H   0  0  0  0  0  0  0  0  0  0  0  0
    9.3999    3.8818   -2.6858 H   0  0  0  0  0  0  0  0  0  0  0  0
   10.1880    5.0839   -3.7460 H   0  0  0  0  0  0  0  0  0  0  0  0
    8.5439    2.6913   -4.7860 H   0  0  0  0  0  0  0  0  0  0  0  0
   10.3418    2.8093   -4.7366 H   0  0  0  0  0  0  0  0  0  0  0  0
    9.3900    3.9348   -5.7854 H   0  0  0  0  0  0  0  0  0  0  0  0
    5.9608    6.5557   -4.0172 H   0  0  0  0  0  0  0  0  0  0  0  0
    2.4239    7.8777   -3.7888 H   0  0  0  0  0  0  0  0  0  0  0  0
    4.2079    7.9774   -3.6543 H   0  0  0  0  0  0  0  0  0  0  0  0
    3.3261    8.1632   -6.0399 H   0  0  0  0  0  0  0  0  0  0  0  0
    2.6417    6.4972   -5.8824 H   0  0  0  0  0  0  0  0  0  0  0  0
    4.4287    6.7453   -5.8395 H   0  0  0  0  0  0  0  0  0  0  0  0
    5.1673    2.1254   -1.9523 H   0  0  0  0  0  0  0  0  0  0  0  0
    2.3793    3.8934   -4.8066 H   0  0  0  0  0  0  0  0  0  0  0  0
    1.5927    4.6810   -6.9827 H   0  0  0  0  0  0  0  0  0  0  0  0
    0.5686    3.7221   -8.1120 H   0  0  0  0  0  0  0  0  0  0  0  0
    1.7225    2.8654   -7.0215 H   0  0  0  0  0  0  0  0  0  0  0  0
   -4.2012    2.9640   -4.4971 H   0  0  0  0  0  0  0  0  0  0  0  0
   -3.5185    3.8194   -3.0613 H   0  0  0  0  0  0  0  0  0  0  0  0
   -3.3234    2.0184   -3.2386 H   0  0  0  0  0  0  0  0  0  0  0  0
   -1.5252    2.8832   -1.8771 H   0  0  0  0  0  0  0  0  0  0  0  0
    1.5731    4.1317    1.8725 H   0  0  0  0  0  0  0  0  0  0  0  0
    3.0766    6.0023    4.7467 H   0  0  0  0  0  0  0  0  0  0  0  0
    1.9212    6.0455    3.3619 H   0  0  0  0  0  0  0  0  0  0  0  0
    3.3923    4.9728    3.2991 H   0  0  0  0  0  0  0  0  0  0  0  0
    0.1712    1.7369    7.9086 H   0  0  0  0  0  0  0  0  0  0  0  0
    0.2282    0.4694    6.6241 H   0  0  0  0  0  0  0  0  0  0  0  0
   -1.2196    1.5674    6.7722 H   0  0  0  0  0  0  0  0  0  0  0  0
   -0.9566    0.7243    4.4741 H   0  0  0  0  0  0  0  0  0  0  0  0
   -5.2539    1.5750    4.3592 H   0  0  0  0  0  0  0  0  0  0  0  0
   -4.1006    0.9085    5.5954 H   0  0  0  0  0  0  0  0  0  0  0  0
   -3.9089    3.6998    4.3047 H   0  0  0  0  0  0  0  0  0  0  0  0
   -4.5784    3.3479    5.9480 H   0  0  0  0  0  0  0  0  0  0  0  0
   -2.8351    3.0355    5.5939 H   0  0  0  0  0  0  0  0  0  0  0  0
   -4.9946   -0.8496    4.1425 H   0  0  0  0  0  0  0  0  0  0  0  0
   -6.8636   -2.3370    3.8086 H   0  0  0  0  0  0  0  0  0  0  0  0
   -5.7028   -3.0522    5.0093 H   0  0  0  0  0  0  0  0  0  0  0  0
   -7.7606   -4.4240    4.8568 H   0  0  0  0  0  0  0  0  0  0  0  0
   -6.3375   -5.3451    4.2295 H   0  0  0  0  0  0  0  0  0  0  0  0
   -7.5246   -4.6133    3.0733 H   0  0  0  0  0  0  0  0  0  0  0  0
   -1.5395   -1.7817    0.7164 H   0  0  0  0  0  0  0  0  0  0  0  0
   -6.8791   -3.9517   -1.0604 H   0  0  0  0  0  0  0  0  0  0  0  0
   -5.7848   -3.1284   -2.2544 H   0  0  0  0  0  0  0  0  0  0  0  0
   -7.9118   -1.8612   -1.9059 H   0  0  0  0  0  0  0  0  0  0  0  0
   -7.5272   -1.7084   -0.1455 H   0  0  0  0  0  0  0  0  0  0  0  0
   -6.4658   -0.9125   -1.3759 H   0  0  0  0  0  0  0  0  0  0  0  0
   -4.8660   -5.2720   -1.6528 H   0  0  0  0  0  0  0  0  0  0  0  0
   -3.3070   -8.3313   -3.1978 H   0  0  0  0  0  0  0  0  0  0  0  0
   -4.0798   -6.7196   -3.2236 H   0  0  0  0  0  0  0  0  0  0  0  0
   -4.8402   -9.0437   -1.3129 H   0  0  0  0  0  0  0  0  0  0  0  0
   -5.6867   -8.6758   -2.8646 H   0  0  0  0  0  0  0  0  0  0  0  0
   -5.7401   -7.4866   -1.5102 H   0  0  0  0  0  0  0  0  0  0  0  0
   -1.5493   -4.5775    1.9605 H   0  0  0  0  0  0  0  0  0  0  0  0
    1.7889   -3.4559    0.1581 H   0  0  0  0  0  0  0  0  0  0  0  0
    2.6481   -5.0179    0.2555 H   0  0  0  0  0  0  0  0  0  0  0  0
    2.9068   -3.7122    2.3701 H   0  0  0  0  0  0  0  0  0  0  0  0
    1.1122   -3.5872    2.5346 H   0  0  0  0  0  0  0  0  0  0  0  0
    1.9284   -5.1918    2.7041 H   0  0  0  0  0  0  0  0  0  0  0  0
    2.2839   -7.0877    0.9706 H   0  0  0  0  0  0  0  0  0  0  0  0
    3.7808  -10.4320    1.8506 H   0  0  0  0  0  0  0  0  0  0  0  0
    3.6106   -8.6527    1.9395 H   0  0  0  0  0  0  0  0  0  0  0  0
    3.3382   -8.6076   -0.5972 H   0  0  0  0  0  0  0  0  0  0  0  0
    3.4909  -10.4083   -0.6192 H   0  0  0  0  0  0  0  0  0  0  0  0
    4.8896   -9.3820   -0.0971 H   0  0  0  0  0  0  0  0  0  0  0  0
   -0.6870  -10.1679    1.2862 H   0  0  0  0  0  0  0  0  0  0  0  0
   -2.4534   -8.5305    0.8276 H   0  0  0  0  0  0  0  0  0  0  0  0
  1  2  2  0
  2  3  1  0
  3  4  1  0
  4  5  1  0
  2  6  1  0
  6  7  2  0
  7  8  1  0
  8  9  1  0
  9 10  1  0
  7 11  1  0
 11 12  2  0
 11 13  1  0
 13 14  1  0
 14 15  1  0
 15 16  2  0
 16 17  1  0
 17 18  1  0
 18 19  2  0
 19 20  1  0
 20 21  1  0
 19 22  1  0
 22 23  1  0
 23 24  1  0
 22 25  2  0
 15 26  1  0
 26 27  1  0
 27 28  1  0
 28 29  2  0
 29 30  1  0
 30 31  1  0
 31 32  2  0
 32 33  1  0
 33 34  1  0
 32 35  1  0
 35 36  1  0
 36 37  1  0
 35 38  2  0
 28 39  1  0
 39 40  2  0
 40 41  1  0
 41 42  1  0
 42 43  1  0
 40 44  1  0
 44 45  2  0
 45 46  1  0
 46 47  1  0
 47 48  1  0
 45 49  1  0
 49 50  2  0
 49 51  1  0
 51 52  2  0
 52 53  1  0
 53 54  1  0
 54 55  1  0
 52 56  1  0
 56 57  2  0
 57 58  1  0
 58 59  1  0
 59 60  1  0
 57 61  1  0
 61 62  2  0
 61 63  1  0
 63 64  2  0
 64 65  1  0
 65 66  1  0
 66 67  1  0
 64 68  1  0
 68 69  2  0
 69 70  1  0
 70 71  1  0
 71 72  1  0
 69 73  1  0
 73 74  2  0
 12  1  1  0
 17 13  2  0
 30 26  2  0
 50 39  1  0
 62 51  1  0
 74 63  1  0
 25 16  1  0
 38 29  1  0
  1 75  1  0
  4 76  1  0
  4 77  1  0
  5 78  1  0
  5 79  1  0
  5 80  1  0
  6 81  1  0
  9 82  1  0
  9 83  1  0
 10 84  1  0
 10 85  1  0
 10 86  1  0
 12 87  1  0
 18 88  1  0
 21 89  1  0
 21 90  1  0
 21 91  1  0
 24 92  1  0
 24 93  1  0
 24 94  1  0
 25 95  1  0
 31 96  1  0
 34 97  1  0
 34 98  1  0
 34 99  1  0
 37100  1  0
 37101  1  0
 37102  1  0
 38103  1  0
 42104  1  0
 42105  1  0
 43106  1  0
 43107  1  0
 43108  1  0
 44109  1  0
 47110  1  0
 47111  1  0
 48112  1  0
 48113  1  0
 48114  1  0
 50115  1  0
 54116  1  0
 54117  1  0
 55118  1  0
 55119  1  0
 55120  1  0
 56121  1  0
 59122  1  0
 59123  1  0
 60124  1  0
 60125  1  0
 60126  1  0
 62127  1  0
 66128  1  0
 66129  1  0
 67130  1  0
 67131  1  0
 67132  1  0
 68133  1  0
 71134  1  0
 71135  1  0
 72136  1  0
 72137  1  0
 72138  1  0
 73139  1  0
 74140  1  0
M  END

