
     RDKit          3D

108114  0  0  0  0  0  0  0  0999 V2000
    2.3984    3.9329    5.6361 C   0  0  0  0  0  0  0  0  0  0  0  0
    2.2077    2.9779    6.5242 O   0  0  0  0  0  0  0  0  0  0  0  0
    2.7679    1.8674    6.1008 C   0  0  0  0  0  0  0  0  0  0  0  0
    3.3526    2.0990    4.8720 C   0  0  0  0  0  0  0  0  0  0  0  0
    4.0310    1.1889    4.0597 O   0  0  0  0  0  0  0  0  0  0  0  0
    4.2431   -0.1690    4.4274 C   0  0  0  0  0  0  0  0  0  0  0  0
    3.1247    3.4183    4.5795 C   0  0  0  0  0  0  0  0  0  0  0  0
    3.5043    4.0810    3.3694 N   0  0  0  0  0  0  0  0  0  0  0  0
    3.1977    5.4626    3.1181 C   0  0  0  0  0  0  0  0  0  0  0  0
    3.0857    5.9573    1.8770 C   0  0  0  0  0  0  0  0  0  0  0  0
    3.0957    5.1304    0.6543 C   0  0  0  0  0  0  0  0  0  0  0  0
    3.7368    5.4756   -0.4442 O   0  0  0  0  0  0  0  0  0  0  0  0
    3.5744    4.5349   -1.3534 C   0  0  0  0  0  0  0  0  0  0  0  0
    2.7736    3.5293   -0.8346 C   0  0  0  0  0  0  0  0  0  0  0  0
    2.3205    2.3743   -1.4776 O   0  0  0  0  0  0  0  0  0  0  0  0
    2.6315    2.0644   -2.8312 C   0  0  0  0  0  0  0  0  0  0  0  0
    2.4658    3.9100    0.4518 C   0  0  0  0  0  0  0  0  0  0  0  0
    1.5782    3.2445    1.3583 N   0  0  0  0  0  0  0  0  0  0  0  0
    1.6080    1.8221    1.5058 C   0  0  0  0  0  0  0  0  0  0  0  0
    0.8159    1.2096    2.3849 C   0  0  0  0  0  0  0  0  0  0  0  0
    0.8862   -0.2441    2.5822 C   0  0  0  0  0  0  0  0  0  0  0  0
    1.8457   -1.0031    2.0918 O   0  0  0  0  0  0  0  0  0  0  0  0
    1.6154   -2.2547    2.4184 C   0  0  0  0  0  0  0  0  0  0  0  0
    0.4460   -2.3257    3.1542 C   0  0  0  0  0  0  0  0  0  0  0  0
   -0.1603   -3.4788    3.6646 O   0  0  0  0  0  0  0  0  0  0  0  0
    0.4103   -4.7753    3.5249 C   0  0  0  0  0  0  0  0  0  0  0  0
   -0.0200   -1.0307    3.2735 C   0  0  0  0  0  0  0  0  0  0  0  0
   -1.2566   -0.5942    3.8674 N   0  0  0  0  0  0  0  0  0  0  0  0
   -2.1891   -1.5134    4.4299 C   0  0  0  0  0  0  0  0  0  0  0  0
   -3.5083   -1.4777    4.2038 C   0  0  0  0  0  0  0  0  0  0  0  0
   -4.2744   -0.6220    3.2637 C   0  0  0  0  0  0  0  0  0  0  0  0
   -5.5893   -0.5756    3.3468 O   0  0  0  0  0  0  0  0  0  0  0  0
   -6.0767    0.1959    2.4009 C   0  0  0  0  0  0  0  0  0  0  0  0
   -5.0366    0.6850    1.6450 C   0  0  0  0  0  0  0  0  0  0  0  0
   -5.1128    1.5393    0.5423 O   0  0  0  0  0  0  0  0  0  0  0  0
   -6.3439    2.0493    0.0433 C   0  0  0  0  0  0  0  0  0  0  0  0
   -3.8826    0.1723    2.1841 C   0  0  0  0  0  0  0  0  0  0  0  0
   -2.5705    0.4732    1.7077 N   0  0  0  0  0  0  0  0  0  0  0  0
   -2.0856   -0.0360    0.4608 C   0  0  0  0  0  0  0  0  0  0  0  0
   -2.3029   -1.2979    0.0819 C   0  0  0  0  0  0  0  0  0  0  0  0
   -1.8369   -1.7991   -1.2239 C   0  0  0  0  0  0  0  0  0  0  0  0
   -1.5948   -0.8485   -2.5911 S   0  0  0  0  0  0  0  0  0  0  0  0
   -1.1734   -2.0817   -3.6578 C   0  0  0  0  0  0  0  0  0  0  0  0
   -1.2115   -3.2827   -2.9355 C   0  0  0  0  0  0  0  0  0  0  0  0
   -1.5997   -3.1254   -1.5890 C   0  0  0  0  0  0  0  0  0  0  0  0
   -1.7107   -4.2363   -0.7471 C   0  0  0  0  0  0  0  0  0  0  0  0
   -1.4209   -5.5224   -1.2488 C   0  0  0  0  0  0  0  0  0  0  0  0
   -1.5398   -6.6703   -0.4489 O   0  0  0  0  0  0  0  0  0  0  0  0
   -2.1585   -6.7009    0.8306 C   0  0  0  0  0  0  0  0  0  0  0  0
   -1.0078   -5.6820   -2.5873 C   0  0  0  0  0  0  0  0  0  0  0  0
   -0.7138   -6.9790   -3.0401 O   0  0  0  0  0  0  0  0  0  0  0  0
   -0.3195   -7.3022   -4.3689 C   0  0  0  0  0  0  0  0  0  0  0  0
   -0.9060   -4.5571   -3.4327 C   0  0  0  0  0  0  0  0  0  0  0  0
   -0.9788   -1.9068   -5.1146 C   0  0  0  0  0  0  0  0  0  0  0  0
   -1.0344   -2.8964   -5.9838 O   0  0  0  0  0  0  0  0  0  0  0  0
   -0.8954   -2.4237   -7.2027 C   0  0  0  0  0  0  0  0  0  0  0  0
   -0.7388   -1.0524   -7.1380 C   0  0  0  0  0  0  0  0  0  0  0  0
   -0.5336   -0.1658   -8.1995 O   0  0  0  0  0  0  0  0  0  0  0  0
   -0.4287   -0.5981   -9.5516 C   0  0  0  0  0  0  0  0  0  0  0  0
   -0.7919   -0.7170   -5.8060 C   0  0  0  0  0  0  0  0  0  0  0  0
   -0.6059    0.5918   -5.2525 N   0  0  0  0  0  0  0  0  0  0  0  0
   -1.2191    1.7449   -5.8466 C   0  0  0  0  0  0  0  0  0  0  0  0
   -1.0302    2.9575   -5.3367 C   0  0  0  0  0  0  0  0  0  0  0  0
    2.0262    4.9454    5.7346 H   0  0  0  0  0  0  0  0  0  0  0  0
    2.7552    0.9365    6.6453 H   0  0  0  0  0  0  0  0  0  0  0  0
    4.8813   -0.2182    5.3364 H   0  0  0  0  0  0  0  0  0  0  0  0
    3.2712   -0.6723    4.6166 H   0  0  0  0  0  0  0  0  0  0  0  0
    4.7615   -0.6948    3.5972 H   0  0  0  0  0  0  0  0  0  0  0  0
    4.0130    3.5261    2.6450 H   0  0  0  0  0  0  0  0  0  0  0  0
    3.1211    6.1469    3.9549 H   0  0  0  0  0  0  0  0  0  0  0  0
    2.9916    7.0313    1.7551 H   0  0  0  0  0  0  0  0  0  0  0  0
    3.9968    4.5724   -2.3498 H   0  0  0  0  0  0  0  0  0  0  0  0
    2.2088    1.0715   -3.0818 H   0  0  0  0  0  0  0  0  0  0  0  0
    2.1884    2.8283   -3.5047 H   0  0  0  0  0  0  0  0  0  0  0  0
    3.7315    2.0241   -2.9730 H   0  0  0  0  0  0  0  0  0  0  0  0
    1.0353    3.8209    2.0395 H   0  0  0  0  0  0  0  0  0  0  0  0
    2.3017    1.2420    0.9082 H   0  0  0  0  0  0  0  0  0  0  0  0
    0.1152    1.7954    2.9669 H   0  0  0  0  0  0  0  0  0  0  0  0
    2.2496   -3.0837    2.1358 H   0  0  0  0  0  0  0  0  0  0  0  0
    0.5046   -5.0331    2.4505 H   0  0  0  0  0  0  0  0  0  0  0  0
   -0.2450   -5.5201    4.0276 H   0  0  0  0  0  0  0  0  0  0  0  0
    1.4142   -4.8039    4.0012 H   0  0  0  0  0  0  0  0  0  0  0  0
   -1.4601    0.4240    3.9582 H   0  0  0  0  0  0  0  0  0  0  0  0
   -1.8154   -2.2617    5.1156 H   0  0  0  0  0  0  0  0  0  0  0  0
   -4.1048   -2.1918    4.7613 H   0  0  0  0  0  0  0  0  0  0  0  0
   -7.1298    0.3956    2.2605 H   0  0  0  0  0  0  0  0  0  0  0  0
   -7.0083    1.2079   -0.2465 H   0  0  0  0  0  0  0  0  0  0  0  0
   -6.8398    2.6683    0.8228 H   0  0  0  0  0  0  0  0  0  0  0  0
   -6.1439    2.6762   -0.8505 H   0  0  0  0  0  0  0  0  0  0  0  0
   -2.1901    1.4008    1.9997 H   0  0  0  0  0  0  0  0  0  0  0  0
   -1.4882    0.6220   -0.1575 H   0  0  0  0  0  0  0  0  0  0  0  0
   -2.8295   -1.9676    0.7481 H   0  0  0  0  0  0  0  0  0  0  0  0
   -1.9945   -4.0993    0.2862 H   0  0  0  0  0  0  0  0  0  0  0  0
   -3.2079   -6.3471    0.7586 H   0  0  0  0  0  0  0  0  0  0  0  0
   -1.5938   -6.0713    1.5401 H   0  0  0  0  0  0  0  0  0  0  0  0
   -2.1529   -7.7461    1.2118 H   0  0  0  0  0  0  0  0  0  0  0  0
   -1.1197   -7.0157   -5.0839 H   0  0  0  0  0  0  0  0  0  0  0  0
    0.6250   -6.7796   -4.6267 H   0  0  0  0  0  0  0  0  0  0  0  0
   -0.1472   -8.3969   -4.4400 H   0  0  0  0  0  0  0  0  0  0  0  0
   -0.5666   -4.6768   -4.4493 H   0  0  0  0  0  0  0  0  0  0  0  0
   -0.8995   -3.0335   -8.0959 H   0  0  0  0  0  0  0  0  0  0  0  0
   -1.3592   -1.1200   -9.8609 H   0  0  0  0  0  0  0  0  0  0  0  0
    0.4439   -1.2831   -9.6693 H   0  0  0  0  0  0  0  0  0  0  0  0
   -0.2760    0.2843  -10.2090 H   0  0  0  0  0  0  0  0  0  0  0  0
   -0.0644    0.6942   -4.3636 H   0  0  0  0  0  0  0  0  0  0  0  0
   -1.8538    1.6338   -6.7174 H   0  0  0  0  0  0  0  0  0  0  0  0
   -1.5314    3.8147   -5.7779 H   0  0  0  0  0  0  0  0  0  0  0  0
   -0.4095    3.1056   -4.4639 H   0  0  0  0  0  0  0  0  0  0  0  0
  1  2  1  0
  2  3  1  0
  3  4  2  0
  4  5  1  0
  5  6  1  0
  4  7  1  0
  7  8  1  0
  8  9  1  0
  9 10  2  3
 10 11  1  0
 11 12  1  0
 12 13  1  0
 13 14  2  0
 14 15  1  0
 15 16  1  0
 14 17  1  0
 17 18  1  0
 18 19  1  0
 19 20  2  3
 20 21  1  0
 21 22  1  0
 22 23  1  0
 23 24  2  0
 24 25  1  0
 25 26  1  0
 24 27  1  0
 27 28  1  0
 28 29  1  0
 29 30  2  3
 30 31  1  0
 31 32  1  0
 32 33  1  0
 33 34  2  0
 34 35  1  0
 35 36  1  0
 34 37  1  0
 37 38  1  0
 38 39  1  0
 39 40  2  3
 40 41  1  0
 41 42  1  0
 42 43  1  0
 43 44  2  0
 44 45  1  0
 45 46  1  0
 46 47  2  0
 47 48  1  0
 48 49  1  0
 47 50  1  0
 50 51  1  0
 51 52  1  0
 50 53  2  0
 43 54  1  0
 54 55  1  0
 55 56  1  0
 56 57  2  0
 57 58  1  0
 58 59  1  0
 57 60  1  0
 60 61  1  0
 61 62  1  0
 62 63  2  3
  7  1  2  0
 17 11  2  0
 27 21  2  0
 37 31  2  0
 45 41  2  0
 60 54  2  0
 53 44  1  0
  1 64  1  0
  3 65  1  0
  6 66  1  0
  6 67  1  0
  6 68  1  0
  8 69  1  0
  9 70  1  0
 10 71  1  0
 13 72  1  0
 16 73  1  0
 16 74  1  0
 16 75  1  0
 18 76  1  0
 19 77  1  0
 20 78  1  0
 23 79  1  0
 26 80  1  0
 26 81  1  0
 26 82  1  0
 28 83  1  0
 29 84  1  0
 30 85  1  0
 33 86  1  0
 36 87  1  0
 36 88  1  0
 36 89  1  0
 38 90  1  0
 39 91  1  0
 40 92  1  0
 46 93  1  0
 49 94  1  0
 49 95  1  0
 49 96  1  0
 52 97  1  0
 52 98  1  0
 52 99  1  0
 53100  1  0
 56101  1  0
 59102  1  0
 59103  1  0
 59104  1  0
 61105  1  0
 62106  1  0
 63107  1  0
 63108  1  0
M  END

