
     RDKit          3D

110121  0  0  0  0  0  0  0  0999 V2000
   10.2008    2.5919    2.7898 C   0  0  0  0  0  0  0  0  0  0  0  0
   11.6919    1.8968    2.3646 S   0  0  0  0  0  0  0  0  0  0  0  0
   11.1073    0.4210    1.7681 C   0  0  0  0  0  0  0  0  0  0  0  0
   11.9141   -0.6777    1.1537 C   0  0  0  0  0  0  0  0  0  0  0  0
   11.9234   -0.5556   -0.3647 C   0  0  0  0  0  0  0  0  0  0  0  0
    9.7326    0.4943    1.8911 C   0  0  0  0  0  0  0  0  0  0  0  0
    9.2458    1.6515    2.4444 C   0  0  0  0  0  0  0  0  0  0  0  0
    7.9008    1.7372    2.5635 N   0  0  0  0  0  0  0  0  0  0  0  0
    7.3166    0.6019    2.0927 C   0  0  0  0  0  0  0  0  0  0  0  0
    8.4614   -0.5235    1.5039 S   0  0  0  0  0  0  0  0  0  0  0  0
    5.8565    0.3674    2.0782 C   0  0  0  0  0  0  0  0  0  0  0  0
    5.1305   -0.9253    1.2710 S   0  0  0  0  0  0  0  0  0  0  0  0
    3.5424   -0.5728    1.6906 C   0  0  0  0  0  0  0  0  0  0  0  0
    3.5491    0.5773    2.4755 C   0  0  0  0  0  0  0  0  0  0  0  0
    4.8336    1.1088    2.6951 C   0  0  0  0  0  0  0  0  0  0  0  0
    4.9838    2.2644    3.4732 C   0  0  0  0  0  0  0  0  0  0  0  0
    3.8437    2.9074    4.0027 C   0  0  0  0  0  0  0  0  0  0  0  0
    3.9442    4.0794    4.7695 O   0  0  0  0  0  0  0  0  0  0  0  0
    5.1675    4.7407    5.0778 C   0  0  0  0  0  0  0  0  0  0  0  0
    2.5606    2.3816    3.7597 C   0  0  0  0  0  0  0  0  0  0  0  0
    1.4525    3.0619    4.2909 O   0  0  0  0  0  0  0  0  0  0  0  0
    0.0971    2.6667    4.1055 C   0  0  0  0  0  0  0  0  0  0  0  0
    2.4160    1.2059    2.9982 C   0  0  0  0  0  0  0  0  0  0  0  0
    2.3771   -1.3924    1.3327 C   0  0  0  0  0  0  0  0  0  0  0  0
    1.3578   -2.1459    2.4416 S   0  0  0  0  0  0  0  0  0  0  0  0
    0.3239   -2.8529    1.3165 C   0  0  0  0  0  0  0  0  0  0  0  0
    0.7783   -2.5099    0.0386 C   0  0  0  0  0  0  0  0  0  0  0  0
    1.9217   -1.6928    0.0504 C   0  0  0  0  0  0  0  0  0  0  0  0
    2.4830   -1.2377   -1.1459 C   0  0  0  0  0  0  0  0  0  0  0  0
    1.9019   -1.6171   -2.3750 C   0  0  0  0  0  0  0  0  0  0  0  0
    2.4159   -1.1763   -3.6054 O   0  0  0  0  0  0  0  0  0  0  0  0
    3.5294   -0.2990   -3.7473 C   0  0  0  0  0  0  0  0  0  0  0  0
    0.7733   -2.4622   -2.3891 C   0  0  0  0  0  0  0  0  0  0  0  0
    0.2253   -2.8174   -3.6318 O   0  0  0  0  0  0  0  0  0  0  0  0
   -0.9374   -3.6235   -3.8006 C   0  0  0  0  0  0  0  0  0  0  0  0
    0.2208   -2.9227   -1.1753 C   0  0  0  0  0  0  0  0  0  0  0  0
   -0.8764   -3.6229    1.6762 C   0  0  0  0  0  0  0  0  0  0  0  0
   -1.0225   -4.6791    2.9996 S   0  0  0  0  0  0  0  0  0  0  0  0
   -2.6891   -4.9720    2.8685 C   0  0  0  0  0  0  0  0  0  0  0  0
   -3.5375   -5.7133    3.8548 C   0  0  0  0  0  0  0  0  0  0  0  0
   -3.8958   -4.8185    5.0355 C   0  0  0  0  0  0  0  0  0  0  0  0
   -3.1257   -4.1887    1.8143 C   0  0  0  0  0  0  0  0  0  0  0  0
   -2.1584   -3.4630    1.1679 C   0  0  0  0  0  0  0  0  0  0  0  0
   -2.5961   -2.5937    0.2260 N   0  0  0  0  0  0  0  0  0  0  0  0
   -3.9484   -2.6713    0.0981 C   0  0  0  0  0  0  0  0  0  0  0  0
   -4.6317   -3.7730    1.2132 S   0  0  0  0  0  0  0  0  0  0  0  0
   -4.6937   -1.7530   -0.7884 C   0  0  0  0  0  0  0  0  0  0  0  0
   -4.0222   -0.3358   -1.3920 S   0  0  0  0  0  0  0  0  0  0  0  0
   -5.3899    0.2747   -2.1560 C   0  0  0  0  0  0  0  0  0  0  0  0
   -6.4268   -0.6464   -1.9416 C   0  0  0  0  0  0  0  0  0  0  0  0
   -6.0332   -1.7876   -1.2060 C   0  0  0  0  0  0  0  0  0  0  0  0
   -6.9493   -2.8252   -0.9810 C   0  0  0  0  0  0  0  0  0  0  0  0
   -8.2838   -2.6927   -1.4168 C   0  0  0  0  0  0  0  0  0  0  0  0
   -9.2371   -3.7019   -1.2057 O   0  0  0  0  0  0  0  0  0  0  0  0
   -8.9645   -4.9504   -0.5783 C   0  0  0  0  0  0  0  0  0  0  0  0
   -8.6936   -1.5230   -2.0818 C   0  0  0  0  0  0  0  0  0  0  0  0
  -10.0421   -1.4145   -2.4605 O   0  0  0  0  0  0  0  0  0  0  0  0
  -10.6014   -0.3057   -3.1607 C   0  0  0  0  0  0  0  0  0  0  0  0
   -7.7594   -0.5026   -2.3503 C   0  0  0  0  0  0  0  0  0  0  0  0
   -5.4021    1.5403   -2.9264 C   0  0  0  0  0  0  0  0  0  0  0  0
   -6.4579    1.9860   -4.1880 S   0  0  0  0  0  0  0  0  0  0  0  0
   -5.7551    3.4759   -4.5786 C   0  0  0  0  0  0  0  0  0  0  0  0
   -6.1513    4.3846   -5.6998 C   0  0  0  0  0  0  0  0  0  0  0  0
   -5.4393    3.9862   -6.9872 C   0  0  0  0  0  0  0  0  0  0  0  0
   -4.6616    3.5959   -3.7432 C   0  0  0  0  0  0  0  0  0  0  0  0
   -4.4645    2.5666   -2.8551 C   0  0  0  0  0  0  0  0  0  0  0  0
   -3.3748    2.6743   -2.0551 N   0  0  0  0  0  0  0  0  0  0  0  0
   -2.7062    3.8256   -2.3311 C   0  0  0  0  0  0  0  0  0  0  0  0
   -3.4431    4.7304   -3.5764 S   0  0  0  0  0  0  0  0  0  0  0  0
   10.0261    3.5662    3.2268 H   0  0  0  0  0  0  0  0  0  0  0  0
   12.9565   -0.6278    1.5355 H   0  0  0  0  0  0  0  0  0  0  0  0
   11.4845   -1.6587    1.4488 H   0  0  0  0  0  0  0  0  0  0  0  0
   12.3916    0.4052   -0.6702 H   0  0  0  0  0  0  0  0  0  0  0  0
   10.8869   -0.6026   -0.7626 H   0  0  0  0  0  0  0  0  0  0  0  0
   12.5087   -1.3939   -0.7992 H   0  0  0  0  0  0  0  0  0  0  0  0
    5.9615    2.6688    3.6717 H   0  0  0  0  0  0  0  0  0  0  0  0
    5.8268    4.0662    5.6612 H   0  0  0  0  0  0  0  0  0  0  0  0
    4.9521    5.6419    5.6879 H   0  0  0  0  0  0  0  0  0  0  0  0
    5.6768    5.0575    4.1429 H   0  0  0  0  0  0  0  0  0  0  0  0
   -0.0691    1.6572    4.5394 H   0  0  0  0  0  0  0  0  0  0  0  0
   -0.5658    3.3923    4.6195 H   0  0  0  0  0  0  0  0  0  0  0  0
   -0.1551    2.6599    3.0246 H   0  0  0  0  0  0  0  0  0  0  0  0
    1.4357    0.7959    2.8033 H   0  0  0  0  0  0  0  0  0  0  0  0
    3.3496   -0.5928   -1.1190 H   0  0  0  0  0  0  0  0  0  0  0  0
    3.3197    0.6705   -3.2480 H   0  0  0  0  0  0  0  0  0  0  0  0
    3.7085   -0.1100   -4.8254 H   0  0  0  0  0  0  0  0  0  0  0  0
    4.4408   -0.7612   -3.3122 H   0  0  0  0  0  0  0  0  0  0  0  0
   -1.1577   -3.7166   -4.8842 H   0  0  0  0  0  0  0  0  0  0  0  0
   -0.7632   -4.6376   -3.3824 H   0  0  0  0  0  0  0  0  0  0  0  0
   -1.8070   -3.1496   -3.2977 H   0  0  0  0  0  0  0  0  0  0  0  0
   -0.6181   -3.6019   -1.1786 H   0  0  0  0  0  0  0  0  0  0  0  0
   -2.9822   -6.6028    4.2206 H   0  0  0  0  0  0  0  0  0  0  0  0
   -4.4669   -6.0643    3.3600 H   0  0  0  0  0  0  0  0  0  0  0  0
   -4.4768   -3.9376    4.6887 H   0  0  0  0  0  0  0  0  0  0  0  0
   -2.9751   -4.4690    5.5484 H   0  0  0  0  0  0  0  0  0  0  0  0
   -4.5147   -5.3882    5.7608 H   0  0  0  0  0  0  0  0  0  0  0  0
   -6.6358   -3.7346   -0.5009 H   0  0  0  0  0  0  0  0  0  0  0  0
   -9.8935   -5.5525   -0.5519 H   0  0  0  0  0  0  0  0  0  0  0  0
   -8.6170   -4.7876    0.4622 H   0  0  0  0  0  0  0  0  0  0  0  0
   -8.1991   -5.5073   -1.1576 H   0  0  0  0  0  0  0  0  0  0  0  0
  -10.4716    0.6261   -2.5690 H   0  0  0  0  0  0  0  0  0  0  0  0
  -10.1130   -0.1991   -4.1504 H   0  0  0  0  0  0  0  0  0  0  0  0
  -11.6854   -0.4838   -3.3099 H   0  0  0  0  0  0  0  0  0  0  0  0
   -8.0848    0.3973   -2.8372 H   0  0  0  0  0  0  0  0  0  0  0  0
   -5.8916    5.4324   -5.4385 H   0  0  0  0  0  0  0  0  0  0  0  0
   -7.2500    4.3281   -5.8536 H   0  0  0  0  0  0  0  0  0  0  0  0
   -5.7314    4.6796   -7.8045 H   0  0  0  0  0  0  0  0  0  0  0  0
   -5.7265    2.9533   -7.2815 H   0  0  0  0  0  0  0  0  0  0  0  0
   -4.3371    4.0370   -6.8551 H   0  0  0  0  0  0  0  0  0  0  0  0
   -1.8013    4.1144   -1.8151 H   0  0  0  0  0  0  0  0  0  0  0  0
  1  2  1  0
  2  3  1  0
  3  4  1  0
  4  5  1  0
  3  6  2  0
  6  7  1  0
  7  8  1  0
  8  9  2  0
  9 10  1  0
  9 11  1  0
 11 12  1  0
 12 13  1  0
 13 14  2  0
 14 15  1  0
 15 16  1  0
 16 17  2  0
 17 18  1  0
 18 19  1  0
 17 20  1  0
 20 21  1  0
 21 22  1  0
 20 23  2  0
 13 24  1  0
 24 25  1  0
 25 26  1  0
 26 27  2  0
 27 28  1  0
 28 29  1  0
 29 30  2  0
 30 31  1  0
 31 32  1  0
 30 33  1  0
 33 34  1  0
 34 35  1  0
 33 36  2  0
 26 37  1  0
 37 38  1  0
 38 39  1  0
 39 40  1  0
 40 41  1  0
 39 42  2  0
 42 43  1  0
 43 44  1  0
 44 45  2  0
 45 46  1  0
 45 47  1  0
 47 48  1  0
 48 49  1  0
 49 50  2  0
 50 51  1  0
 51 52  1  0
 52 53  2  0
 53 54  1  0
 54 55  1  0
 53 56  1  0
 56 57  1  0
 57 58  1  0
 56 59  2  0
 49 60  1  0
 60 61  1  0
 61 62  1  0
 62 63  1  0
 63 64  1  0
 62 65  2  0
 65 66  1  0
 66 67  1  0
 67 68  2  0
 68 69  1  0
  7  1  2  0
 15 11  2  0
 28 24  2  0
 43 37  2  0
 51 47  2  0
 66 60  2  0
 10  6  1  0
 23 14  1  0
 36 27  1  0
 46 42  1  0
 59 50  1  0
 69 65  1  0
  1 70  1  0
  4 71  1  0
  4 72  1  0
  5 73  1  0
  5 74  1  0
  5 75  1  0
 16 76  1  0
 19 77  1  0
 19 78  1  0
 19 79  1  0
 22 80  1  0
 22 81  1  0
 22 82  1  0
 23 83  1  0
 29 84  1  0
 32 85  1  0
 32 86  1  0
 32 87  1  0
 35 88  1  0
 35 89  1  0
 35 90  1  0
 36 91  1  0
 40 92  1  0
 40 93  1  0
 41 94  1  0
 41 95  1  0
 41 96  1  0
 52 97  1  0
 55 98  1  0
 55 99  1  0
 55100  1  0
 58101  1  0
 58102  1  0
 58103  1  0
 59104  1  0
 63105  1  0
 63106  1  0
 64107  1  0
 64108  1  0
 64109  1  0
 68110  1  0
M  END

