
     RDKit          3D

 88 99  0  0  0  0  0  0  0  0999 V2000
   10.0317    2.2978    0.0171 C   0  0  0  0  0  0  0  0  0  0  0  0
    8.7768    1.3092    0.5976 S   0  0  0  0  0  0  0  0  0  0  0  0
    7.5598    1.7700   -0.4959 C   0  0  0  0  0  0  0  0  0  0  0  0
    8.1481    2.7380   -1.2956 C   0  0  0  0  0  0  0  0  0  0  0  0
    9.4557    3.0021   -1.0248 C   0  0  0  0  0  0  0  0  0  0  0  0
    9.9311    4.0038   -1.7793 N   0  0  0  0  0  0  0  0  0  0  0  0
    8.8726    4.3813   -2.5437 C   0  0  0  0  0  0  0  0  0  0  0  0
    8.9227    5.4554   -3.4887 N   0  0  0  0  0  4  0  0  0  0  0  0
    7.8153    5.7697   -4.2421 O   0  0  0  0  0  1  0  0  0  0  0  0
    9.9727    6.1114   -3.6407 O   0  0  0  0  0  0  0  0  0  0  0  0
    7.7309    3.6217   -2.2672 C   0  0  0  0  0  0  0  0  0  0  0  0
    6.1480    1.3599   -0.4515 C   0  0  0  0  0  0  0  0  0  0  0  0
    5.2730    1.1543    0.9628 S   0  0  0  0  0  0  0  0  0  0  0  0
    3.7701    0.8241    0.2730 C   0  0  0  0  0  0  0  0  0  0  0  0
    3.9500    0.8638   -1.1263 C   0  0  0  0  0  0  0  0  0  0  0  0
    5.2794    1.1336   -1.5180 C   0  0  0  0  0  0  0  0  0  0  0  0
    5.6441    1.1116   -2.8679 C   0  0  0  0  0  0  0  0  0  0  0  0
    4.6625    0.8952   -3.8544 C   0  0  0  0  0  0  0  0  0  0  0  0
    4.9784    0.8744   -5.2225 O   0  0  0  0  0  0  0  0  0  0  0  0
    6.2835    1.0836   -5.7529 C   0  0  0  0  0  0  0  0  0  0  0  0
    3.3225    0.6935   -3.4773 C   0  0  0  0  0  0  0  0  0  0  0  0
    2.3714    0.5075   -4.4952 O   0  0  0  0  0  0  0  0  0  0  0  0
    0.9779    0.3161   -4.2750 C   0  0  0  0  0  0  0  0  0  0  0  0
    2.9667    0.6794   -2.1101 C   0  0  0  0  0  0  0  0  0  0  0  0
    2.5455    0.5181    1.0615 C   0  0  0  0  0  0  0  0  0  0  0  0
    1.0962   -0.1887    0.5098 S   0  0  0  0  0  0  0  0  0  0  0  0
    0.2555   -0.2743    1.9776 C   0  0  0  0  0  0  0  0  0  0  0  0
    1.1386    0.2220    2.9205 C   0  0  0  0  0  0  0  0  0  0  0  0
    2.3459    0.6459    2.4390 C   0  0  0  0  0  0  0  0  0  0  0  0
    3.1482    1.0601    3.4357 N   0  0  0  0  0  0  0  0  0  0  0  0
    2.4224    0.8653    4.5665 C   0  0  0  0  0  0  0  0  0  0  0  0
    2.9209    1.1500    5.8776 N   0  0  0  0  0  4  0  0  0  0  0  0
    4.1901    1.6537    6.0407 O   0  0  0  0  0  1  0  0  0  0  0  0
    2.2112    0.9423    6.8835 O   0  0  0  0  0  0  0  0  0  0  0  0
    1.1611    0.3290    4.2931 C   0  0  0  0  0  0  0  0  0  0  0  0
   -1.1085   -0.7870    2.1657 C   0  0  0  0  0  0  0  0  0  0  0  0
   -1.8738   -1.9661    1.2136 S   0  0  0  0  0  0  0  0  0  0  0  0
   -3.4025   -1.9435    1.9601 C   0  0  0  0  0  0  0  0  0  0  0  0
   -3.2967   -0.9782    2.9554 C   0  0  0  0  0  0  0  0  0  0  0  0
   -2.0823   -0.3631    3.0579 C   0  0  0  0  0  0  0  0  0  0  0  0
   -2.1147    0.6595    3.9291 N   0  0  0  0  0  0  0  0  0  0  0  0
   -3.3836    0.6539    4.4128 C   0  0  0  0  0  0  0  0  0  0  0  0
   -3.8686    1.6078    5.3648 N   0  0  0  0  0  4  0  0  0  0  0  0
   -5.1731    1.5526    5.7981 O   0  0  0  0  0  1  0  0  0  0  0  0
   -3.1039    2.4778    5.8280 O   0  0  0  0  0  0  0  0  0  0  0  0
   -4.1615   -0.3519    3.8305 C   0  0  0  0  0  0  0  0  0  0  0  0
   -4.5990   -2.7102    1.5616 C   0  0  0  0  0  0  0  0  0  0  0  0
   -6.1087   -2.7088    2.3461 S   0  0  0  0  0  0  0  0  0  0  0  0
   -6.9237   -3.7927    1.3272 C   0  0  0  0  0  0  0  0  0  0  0  0
   -5.9884   -4.1744    0.3802 C   0  0  0  0  0  0  0  0  0  0  0  0
   -4.7573   -3.5984    0.5015 C   0  0  0  0  0  0  0  0  0  0  0  0
   -3.8998   -4.0699   -0.4185 N   0  0  0  0  0  0  0  0  0  0  0  0
   -4.6239   -4.9770   -1.1249 C   0  0  0  0  0  0  0  0  0  0  0  0
   -4.0850   -5.7541   -2.1995 N   0  0  0  0  0  4  0  0  0  0  0  0
   -4.8748   -6.6672   -2.8607 O   0  0  0  0  0  1  0  0  0  0  0  0
   -2.8950   -5.6096   -2.5468 O   0  0  0  0  0  0  0  0  0  0  0  0
   -5.9354   -5.0817   -0.6532 C   0  0  0  0  0  0  0  0  0  0  0  0
   -8.3050   -4.2593    1.4909 C   0  0  0  0  0  0  0  0  0  0  0  0
   -9.1291   -4.4686    2.9614 S   0  0  0  0  0  0  0  0  0  0  0  0
  -10.6311   -4.9723    2.3446 C   0  0  0  0  0  0  0  0  0  0  0  0
  -10.4637   -4.9565    0.9716 C   0  0  0  0  0  0  0  0  0  0  0  0
   -9.2373   -4.5773    0.5174 C   0  0  0  0  0  0  0  0  0  0  0  0
   -9.2145   -4.4755   -0.8207 N   0  0  0  0  0  0  0  0  0  0  0  0
  -10.4663   -4.8377   -1.2075 C   0  0  0  0  0  0  0  0  0  0  0  0
  -10.8949   -4.8529   -2.5729 N   0  0  0  0  0  4  0  0  0  0  0  0
  -12.1850   -5.2092   -2.8913 O   0  0  0  0  0  1  0  0  0  0  0  0
  -10.0999   -4.5489   -3.4858 O   0  0  0  0  0  0  0  0  0  0  0  0
  -11.2853   -5.1478   -0.1147 C   0  0  0  0  0  0  0  0  0  0  0  0
   11.0367    2.3971    0.4036 H   0  0  0  0  0  0  0  0  0  0  0  0
   10.8865    4.4248   -1.7537 H   0  0  0  0  0  0  0  0  0  0  0  0
    6.7413    3.7377   -2.6871 H   0  0  0  0  0  0  0  0  0  0  0  0
    6.6789    1.2391   -3.1465 H   0  0  0  0  0  0  0  0  0  0  0  0
    6.9820    0.3032   -5.3809 H   0  0  0  0  0  0  0  0  0  0  0  0
    6.6528    2.0928   -5.4722 H   0  0  0  0  0  0  0  0  0  0  0  0
    6.2366    1.0154   -6.8582 H   0  0  0  0  0  0  0  0  0  0  0  0
    0.5481    1.2030   -3.7604 H   0  0  0  0  0  0  0  0  0  0  0  0
    0.4690    0.1920   -5.2537 H   0  0  0  0  0  0  0  0  0  0  0  0
    0.8100   -0.6005   -3.6691 H   0  0  0  0  0  0  0  0  0  0  0  0
    1.9374    0.5461   -1.8381 H   0  0  0  0  0  0  0  0  0  0  0  0
    4.1180    1.4366    3.3798 H   0  0  0  0  0  0  0  0  0  0  0  0
    0.4011    0.0255    5.0006 H   0  0  0  0  0  0  0  0  0  0  0  0
   -1.3661    1.3567    4.1339 H   0  0  0  0  0  0  0  0  0  0  0  0
   -5.2130   -0.5463    3.9913 H   0  0  0  0  0  0  0  0  0  0  0  0
   -2.8937   -3.8315   -0.5498 H   0  0  0  0  0  0  0  0  0  0  0  0
   -6.7119   -5.7504   -0.9965 H   0  0  0  0  0  0  0  0  0  0  0  0
  -11.5296   -5.2099    2.8979 H   0  0  0  0  0  0  0  0  0  0  0  0
   -8.4365   -4.1373   -1.4276 H   0  0  0  0  0  0  0  0  0  0  0  0
  -12.3309   -5.4289   -0.1178 H   0  0  0  0  0  0  0  0  0  0  0  0
  1  2  1  0
  2  3  1  0
  3  4  2  0
  4  5  1  0
  5  6  1  0
  6  7  1  0
  7  8  1  0
  8  9  1  0
  8 10  2  0
  7 11  2  0
  3 12  1  0
 12 13  1  0
 13 14  1  0
 14 15  2  0
 15 16  1  0
 16 17  1  0
 17 18  2  0
 18 19  1  0
 19 20  1  0
 18 21  1  0
 21 22  1  0
 22 23  1  0
 21 24  2  0
 14 25  1  0
 25 26  1  0
 26 27  1  0
 27 28  2  0
 28 29  1  0
 29 30  1  0
 30 31  1  0
 31 32  1  0
 32 33  1  0
 32 34  2  0
 31 35  2  0
 27 36  1  0
 36 37  1  0
 37 38  1  0
 38 39  2  0
 39 40  1  0
 40 41  1  0
 41 42  1  0
 42 43  1  0
 43 44  1  0
 43 45  2  0
 42 46  2  0
 38 47  1  0
 47 48  1  0
 48 49  1  0
 49 50  2  0
 50 51  1  0
 51 52  1  0
 52 53  1  0
 53 54  1  0
 54 55  1  0
 54 56  2  0
 53 57  2  0
 49 58  1  0
 58 59  1  0
 59 60  1  0
 60 61  2  0
 61 62  1  0
 62 63  1  0
 63 64  1  0
 64 65  1  0
 65 66  1  0
 65 67  2  0
 64 68  2  0
  5  1  2  0
 16 12  2  0
 29 25  2  0
 40 36  2  0
 51 47  2  0
 62 58  2  0
 11  4  1  0
 24 15  1  0
 35 28  1  0
 46 39  1  0
 57 50  1  0
 68 61  1  0
  1 69  1  0
  6 70  1  0
 11 71  1  0
 17 72  1  0
 20 73  1  0
 20 74  1  0
 20 75  1  0
 23 76  1  0
 23 77  1  0
 23 78  1  0
 24 79  1  0
 30 80  1  0
 35 81  1  0
 41 82  1  0
 46 83  1  0
 52 84  1  0
 57 85  1  0
 60 86  1  0
 63 87  1  0
 68 88  1  0
M  CHG  8   8   1   9  -1  32   1  33  -1  43   1  44  -1  54   1  55  -1
M  CHG  2  65   1  66  -1
M  END

