
     RDKit          3D

 88 95  0  0  0  0  0  0  0  0999 V2000
    3.1903   -5.6213   -7.2076 C   0  0  0  0  0  0  0  0  0  0  0  0
    1.7484   -5.0409   -6.5625 S   0  0  0  0  0  0  0  0  0  0  0  0
    2.3923   -4.3504   -5.1647 C   0  0  0  0  0  0  0  0  0  0  0  0
    3.7738   -4.5571   -5.1974 C   0  0  0  0  0  0  0  0  0  0  0  0
    4.2065   -5.2643   -6.3307 C   0  0  0  0  0  0  0  0  0  0  0  0
    5.5570   -5.5557   -6.5192 C   0  0  0  0  0  0  0  0  0  0  0  0
    6.4986   -5.1373   -5.5544 C   0  0  0  0  0  0  0  0  0  0  0  0
    7.8713   -5.3954   -5.6980 O   0  0  0  0  0  0  0  0  0  0  0  0
    8.4531   -6.0820   -6.8021 C   0  0  0  0  0  0  0  0  0  0  0  0
    6.0682   -4.4395   -4.4068 C   0  0  0  0  0  0  0  0  0  0  0  0
    7.0373   -4.0452   -3.4698 O   0  0  0  0  0  0  0  0  0  0  0  0
    6.7588   -3.3183   -2.2777 C   0  0  0  0  0  0  0  0  0  0  0  0
    4.6963   -4.1564   -4.2257 C   0  0  0  0  0  0  0  0  0  0  0  0
    1.6272   -3.5375   -4.1986 C   0  0  0  0  0  0  0  0  0  0  0  0
    2.0963   -2.0199   -3.6498 S   0  0  0  0  0  0  0  0  0  0  0  0
    0.7183   -1.6606   -2.7489 C   0  0  0  0  0  0  0  0  0  0  0  0
   -0.1644   -2.7434   -2.8928 C   0  0  0  0  0  0  0  0  0  0  0  0
    0.3492   -3.7864   -3.6931 C   0  0  0  0  0  0  0  0  0  0  0  0
   -0.3949   -4.9517   -3.9037 C   0  0  0  0  0  0  0  0  0  0  0  0
   -1.6861   -5.0655   -3.3511 C   0  0  0  0  0  0  0  0  0  0  0  0
   -2.4717   -6.2148   -3.5325 O   0  0  0  0  0  0  0  0  0  0  0  0
   -2.0671   -7.3629   -4.2749 C   0  0  0  0  0  0  0  0  0  0  0  0
   -2.2231   -4.0061   -2.5965 C   0  0  0  0  0  0  0  0  0  0  0  0
   -3.5241   -4.1500   -2.0886 O   0  0  0  0  0  0  0  0  0  0  0  0
   -4.2109   -3.1573   -1.3341 C   0  0  0  0  0  0  0  0  0  0  0  0
   -1.4603   -2.8412   -2.3700 C   0  0  0  0  0  0  0  0  0  0  0  0
    0.5703   -0.4188   -1.9573 C   0  0  0  0  0  0  0  0  0  0  0  0
    1.3385    0.7296   -2.1305 C   0  0  0  0  0  0  0  0  0  0  0  0
    1.0619    1.7463   -1.1967 C   0  0  0  0  0  0  0  0  0  0  0  0
    1.7245    2.9812   -1.1692 O   0  0  0  0  0  0  0  0  0  0  0  0
    2.7687    3.3427   -2.0669 C   0  0  0  0  0  0  0  0  0  0  0  0
    0.0710    1.3975   -0.2739 C   0  0  0  0  0  0  0  0  0  0  0  0
   -0.4240   -0.1740   -0.6210 S   0  0  0  0  0  0  0  0  0  0  0  0
   -0.4721    2.2143    0.8310 C   0  0  0  0  0  0  0  0  0  0  0  0
   -0.2426    3.5666    1.0744 C   0  0  0  0  0  0  0  0  0  0  0  0
   -0.9288    4.0581    2.2022 C   0  0  0  0  0  0  0  0  0  0  0  0
   -0.8390    5.3805    2.6534 O   0  0  0  0  0  0  0  0  0  0  0  0
   -0.0570    6.3832    2.0146 C   0  0  0  0  0  0  0  0  0  0  0  0
   -1.7092    3.0937    2.8447 C   0  0  0  0  0  0  0  0  0  0  0  0
   -1.5311    1.6443    2.0086 S   0  0  0  0  0  0  0  0  0  0  0  0
   -2.5542    3.2609    4.0440 C   0  0  0  0  0  0  0  0  0  0  0  0
   -2.9060    4.4535    4.6709 C   0  0  0  0  0  0  0  0  0  0  0  0
   -3.7354    4.2729    5.7947 C   0  0  0  0  0  0  0  0  0  0  0  0
   -4.2331    5.3263    6.5710 O   0  0  0  0  0  0  0  0  0  0  0  0
   -3.9318    6.6959    6.3309 C   0  0  0  0  0  0  0  0  0  0  0  0
   -4.0354    2.9339    6.0579 C   0  0  0  0  0  0  0  0  0  0  0  0
   -3.2756    1.9949    4.8859 S   0  0  0  0  0  0  0  0  0  0  0  0
   -4.8546    2.3842    7.1574 C   0  0  0  0  0  0  0  0  0  0  0  0
   -5.4176    3.0803    8.2259 C   0  0  0  0  0  0  0  0  0  0  0  0
   -6.1190    2.2580    9.1158 C   0  0  0  0  0  0  0  0  0  0  0  0
   -6.7446    2.7781   10.2550 O   0  0  0  0  0  0  0  0  0  0  0  0
   -7.4430    1.9757   11.2002 C   0  0  0  0  0  0  0  0  0  0  0  0
   -6.1195    0.9101    8.7591 C   0  0  0  0  0  0  0  0  0  0  0  0
   -5.2366    0.7535    7.3390 S   0  0  0  0  0  0  0  0  0  0  0  0
    3.3047   -6.1625   -8.1376 H   0  0  0  0  0  0  0  0  0  0  0  0
    5.8626   -6.0964   -7.4052 H   0  0  0  0  0  0  0  0  0  0  0  0
    9.5509   -6.1408   -6.6555 H   0  0  0  0  0  0  0  0  0  0  0  0
    8.0494   -7.1146   -6.8674 H   0  0  0  0  0  0  0  0  0  0  0  0
    8.2508   -5.5312   -7.7450 H   0  0  0  0  0  0  0  0  0  0  0  0
    7.7098   -3.1319   -1.7371 H   0  0  0  0  0  0  0  0  0  0  0  0
    6.0868   -3.9077   -1.6195 H   0  0  0  0  0  0  0  0  0  0  0  0
    6.2931   -2.3402   -2.5260 H   0  0  0  0  0  0  0  0  0  0  0  0
    4.3543   -3.6512   -3.3350 H   0  0  0  0  0  0  0  0  0  0  0  0
    0.0286   -5.7678   -4.4696 H   0  0  0  0  0  0  0  0  0  0  0  0
   -2.8839   -8.1136   -4.2592 H   0  0  0  0  0  0  0  0  0  0  0  0
   -1.1617   -7.8147   -3.8153 H   0  0  0  0  0  0  0  0  0  0  0  0
   -1.8634   -7.0813   -5.3304 H   0  0  0  0  0  0  0  0  0  0  0  0
   -4.3260   -2.2314   -1.9366 H   0  0  0  0  0  0  0  0  0  0  0  0
   -5.2187   -3.5365   -1.0685 H   0  0  0  0  0  0  0  0  0  0  0  0
   -3.6556   -2.9387   -0.3988 H   0  0  0  0  0  0  0  0  0  0  0  0
   -1.8899   -2.0238   -1.8182 H   0  0  0  0  0  0  0  0  0  0  0  0
    2.0826    0.8252   -2.9103 H   0  0  0  0  0  0  0  0  0  0  0  0
    2.3926    3.3407   -3.1122 H   0  0  0  0  0  0  0  0  0  0  0  0
    3.1262    4.3641   -1.8157 H   0  0  0  0  0  0  0  0  0  0  0  0
    3.6180    2.6336   -1.9663 H   0  0  0  0  0  0  0  0  0  0  0  0
    0.3872    4.1887    0.4560 H   0  0  0  0  0  0  0  0  0  0  0  0
   -0.4090    6.5325    0.9717 H   0  0  0  0  0  0  0  0  0  0  0  0
   -0.1704    7.3388    2.5672 H   0  0  0  0  0  0  0  0  0  0  0  0
    1.0157    6.0919    2.0187 H   0  0  0  0  0  0  0  0  0  0  0  0
   -2.5967    5.4281    4.3239 H   0  0  0  0  0  0  0  0  0  0  0  0
   -4.4544    7.3207    7.0834 H   0  0  0  0  0  0  0  0  0  0  0  0
   -2.8385    6.8652    6.4239 H   0  0  0  0  0  0  0  0  0  0  0  0
   -4.2775    6.9931    5.3179 H   0  0  0  0  0  0  0  0  0  0  0  0
   -5.3270    4.1453    8.3816 H   0  0  0  0  0  0  0  0  0  0  0  0
   -7.8377    2.6250   12.0066 H   0  0  0  0  0  0  0  0  0  0  0  0
   -8.2929    1.4605   10.7086 H   0  0  0  0  0  0  0  0  0  0  0  0
   -6.7575    1.2272   11.6483 H   0  0  0  0  0  0  0  0  0  0  0  0
   -6.5931    0.0996    9.2962 H   0  0  0  0  0  0  0  0  0  0  0  0
  1  2  1  0
  2  3  1  0
  3  4  2  0
  4  5  1  0
  5  6  1  0
  6  7  2  0
  7  8  1  0
  8  9  1  0
  7 10  1  0
 10 11  1  0
 11 12  1  0
 10 13  2  0
  3 14  1  0
 14 15  1  0
 15 16  1  0
 16 17  2  0
 17 18  1  0
 18 19  1  0
 19 20  2  0
 20 21  1  0
 21 22  1  0
 20 23  1  0
 23 24  1  0
 24 25  1  0
 23 26  2  0
 16 27  1  0
 27 28  2  0
 28 29  1  0
 29 30  1  0
 30 31  1  0
 29 32  2  0
 32 33  1  0
 32 34  1  0
 34 35  2  0
 35 36  1  0
 36 37  1  0
 37 38  1  0
 36 39  2  0
 39 40  1  0
 39 41  1  0
 41 42  2  0
 42 43  1  0
 43 44  1  0
 44 45  1  0
 43 46  2  0
 46 47  1  0
 46 48  1  0
 48 49  2  0
 49 50  1  0
 50 51  1  0
 51 52  1  0
 50 53  2  0
 53 54  1  0
  5  1  2  0
 18 14  2  0
 33 27  1  0
 40 34  1  0
 47 41  1  0
 54 48  1  0
 13  4  1  0
 26 17  1  0
  1 55  1  0
  6 56  1  0
  9 57  1  0
  9 58  1  0
  9 59  1  0
 12 60  1  0
 12 61  1  0
 12 62  1  0
 13 63  1  0
 19 64  1  0
 22 65  1  0
 22 66  1  0
 22 67  1  0
 25 68  1  0
 25 69  1  0
 25 70  1  0
 26 71  1  0
 28 72  1  0
 31 73  1  0
 31 74  1  0
 31 75  1  0
 35 76  1  0
 38 77  1  0
 38 78  1  0
 38 79  1  0
 42 80  1  0
 45 81  1  0
 45 82  1  0
 45 83  1  0
 49 84  1  0
 52 85  1  0
 52 86  1  0
 52 87  1  0
 53 88  1  0
M  END

