
     RDKit          3D

244267  0  0  0  0  0  0  0  0999 V2000
    2.7375    0.3713    9.8467 C   0  0  0  0  0  0  0  0  0  0  0  0
    1.4750    0.8011   10.2521 C   0  0  0  0  0  0  0  0  0  0  0  0
    0.4670    0.5395    9.3090 C   0  0  0  0  0  0  0  0  0  0  0  0
   -0.9086    0.9135    9.3900 C   0  0  0  0  0  0  0  0  0  0  0  0
   -1.3688    1.8320   10.4570 C   0  0  0  0  0  0  0  0  0  0  0  0
   -1.2660    1.4640   11.8101 C   0  0  0  0  0  0  0  0  0  0  0  0
   -1.4158    2.4202   12.8134 C   0  0  0  0  0  0  0  0  0  0  0  0
   -1.6678    3.7577   12.4711 C   0  0  0  0  0  0  0  0  0  0  0  0
   -1.7307    5.0149   13.7627 S   0  0  0  0  0  0  0  0  0  0  0  0
    0.0758    5.2973   13.8111 C   0  0  0  0  0  0  0  0  0  0  0  0
    0.5357    6.2491   12.7193 C   0  0  0  0  0  0  0  0  0  0  0  0
   -1.8615    4.1132   11.1235 C   0  0  0  0  0  0  0  0  0  0  0  0
   -2.1532    5.3949   10.7837 F   0  0  0  0  0  0  0  0  0  0  0  0
   -1.7091    3.1512   10.1209 C   0  0  0  0  0  0  0  0  0  0  0  0
   -1.7420    0.5233    8.3125 C   0  0  0  0  0  0  0  0  0  0  0  0
   -1.2358   -0.1387    7.2020 C   0  0  0  0  0  0  0  0  0  0  0  0
    0.1431   -0.3891    7.0630 C   0  0  0  0  0  0  0  0  0  0  0  0
    0.7006   -0.6118    5.7201 C   0  0  0  0  0  0  0  0  0  0  0  0
    0.5744    0.4118    4.7719 C   0  0  0  0  0  0  0  0  0  0  0  0
    0.9598    0.1938    3.4477 C   0  0  0  0  0  0  0  0  0  0  0  0
    1.5284   -1.0375    3.0819 C   0  0  0  0  0  0  0  0  0  0  0  0
    2.2693   -1.2220    1.4477 S   0  0  0  0  0  0  0  0  0  0  0  0
    3.7025   -0.1099    1.7620 C   0  0  0  0  0  0  0  0  0  0  0  0
    4.3746   -0.3293    3.1220 C   0  0  0  0  0  0  0  0  0  0  0  0
    1.6198   -2.0802    4.0150 C   0  0  0  0  0  0  0  0  0  0  0  0
    1.2087   -1.8692    5.3359 C   0  0  0  0  0  0  0  0  0  0  0  0
    2.1574   -3.2810    3.6561 F   0  0  0  0  0  0  0  0  0  0  0  0
    0.9603   -0.0887    8.1601 C   0  0  0  0  0  0  0  0  0  0  0  0
    2.6206   -0.3132    8.3130 S   0  0  0  0  0  0  0  0  0  0  0  0
   -2.1918   -0.3995    6.2113 C   0  0  0  0  0  0  0  0  0  0  0  0
   -3.4570    0.0955    6.5025 C   0  0  0  0  0  0  0  0  0  0  0  0
   -3.3808    0.8763    8.0031 S   0  0  0  0  0  0  0  0  0  0  0  0
   -4.4524    0.2603    5.4412 C   0  0  0  0  0  0  0  0  0  0  0  0
   -5.2094   -1.0653    4.6877 S   0  0  0  0  0  0  0  0  0  0  0  0
   -5.3039   -0.4521    3.1101 C   0  0  0  0  0  0  0  0  0  0  0  0
   -4.6673    0.7824    3.1483 C   0  0  0  0  0  0  0  0  0  0  0  0
   -4.2754    1.2137    4.4304 C   0  0  0  0  0  0  0  0  0  0  0  0
   -3.6584    2.4729    4.6077 C   0  0  0  0  0  0  0  0  0  0  0  0
   -3.5525    3.3282    3.4908 C   0  0  0  0  0  0  0  0  0  0  0  0
   -3.1266    4.6593    3.6053 O   0  0  0  0  0  0  0  0  0  0  0  0
   -3.2044    5.3998    4.8056 C   0  0  0  0  0  0  0  0  0  0  0  0
   -3.8975    2.8571    2.1993 C   0  0  0  0  0  0  0  0  0  0  0  0
   -3.9045    3.6845    1.0814 O   0  0  0  0  0  0  0  0  0  0  0  0
   -4.7147    4.8597    0.9965 C   0  0  0  0  0  0  0  0  0  0  0  0
   -4.3191    1.5344    2.0407 C   0  0  0  0  0  0  0  0  0  0  0  0
   -5.9840   -1.0540    1.9214 C   0  0  0  0  0  0  0  0  0  0  0  0
   -6.6511   -0.1278    0.7047 S   0  0  0  0  0  0  0  0  0  0  0  0
   -6.7627   -1.2726   -0.5204 C   0  0  0  0  0  0  0  0  0  0  0  0
   -6.3951   -2.4873    0.0750 C   0  0  0  0  0  0  0  0  0  0  0  0
   -5.9607   -2.3694    1.4236 C   0  0  0  0  0  0  0  0  0  0  0  0
   -5.5476   -3.4906    2.1401 C   0  0  0  0  0  0  0  0  0  0  0  0
   -5.6515   -4.7726    1.5501 C   0  0  0  0  0  0  0  0  0  0  0  0
   -5.3510   -5.9326    2.2642 O   0  0  0  0  0  0  0  0  0  0  0  0
   -4.9748   -5.9764    3.6278 C   0  0  0  0  0  0  0  0  0  0  0  0
   -6.1102   -4.8928    0.2220 C   0  0  0  0  0  0  0  0  0  0  0  0
   -6.2235   -6.1963   -0.3014 O   0  0  0  0  0  0  0  0  0  0  0  0
   -6.7483   -6.5306   -1.5865 C   0  0  0  0  0  0  0  0  0  0  0  0
   -6.4667   -3.7506   -0.5313 C   0  0  0  0  0  0  0  0  0  0  0  0
   -6.6840   -0.8655   -1.9525 C   0  0  0  0  0  0  0  0  0  0  0  0
   -5.8652   -1.4883   -2.9041 C   0  0  0  0  0  0  0  0  0  0  0  0
   -5.4070   -0.6108   -3.9048 C   0  0  0  0  0  0  0  0  0  0  0  0
   -4.3972   -0.8961   -4.8379 C   0  0  0  0  0  0  0  0  0  0  0  0
   -3.7622   -2.2084   -4.9223 C   0  0  0  0  0  0  0  0  0  0  0  0
   -2.7325   -2.5346   -4.0233 C   0  0  0  0  0  0  0  0  0  0  0  0
   -1.9765   -3.6905   -4.2209 C   0  0  0  0  0  0  0  0  0  0  0  0
   -2.2305   -4.5100   -5.3248 C   0  0  0  0  0  0  0  0  0  0  0  0
   -1.1562   -5.9126   -5.6488 S   0  0  0  0  0  0  0  0  0  0  0  0
    0.1965   -4.8814   -6.3402 C   0  0  0  0  0  0  0  0  0  0  0  0
   -0.0711   -4.5274   -7.7998 C   0  0  0  0  0  0  0  0  0  0  0  0
   -3.3106   -4.2369   -6.1836 C   0  0  0  0  0  0  0  0  0  0  0  0
   -3.5723   -5.0316   -7.2476 F   0  0  0  0  0  0  0  0  0  0  0  0
   -4.0730   -3.0798   -5.9793 C   0  0  0  0  0  0  0  0  0  0  0  0
   -3.7903    0.2007   -5.4848 C   0  0  0  0  0  0  0  0  0  0  0  0
   -4.1799    1.5274   -5.2533 C   0  0  0  0  0  0  0  0  0  0  0  0
   -5.3143    1.7920   -4.4581 C   0  0  0  0  0  0  0  0  0  0  0  0
   -5.8317    3.1520   -4.2758 C   0  0  0  0  0  0  0  0  0  0  0  0
   -5.4284    3.9138   -3.1729 C   0  0  0  0  0  0  0  0  0  0  0  0
   -5.9677    5.1845   -2.9664 C   0  0  0  0  0  0  0  0  0  0  0  0
   -6.9479    5.6751   -3.8419 C   0  0  0  0  0  0  0  0  0  0  0  0
   -7.7763    7.2229   -3.4734 S   0  0  0  0  0  0  0  0  0  0  0  0
   -8.8296    6.4948   -2.1537 C   0  0  0  0  0  0  0  0  0  0  0  0
   -9.9229    5.5961   -2.7196 C   0  0  0  0  0  0  0  0  0  0  0  0
   -7.2986    4.9422   -4.9820 C   0  0  0  0  0  0  0  0  0  0  0  0
   -6.7396    3.6864   -5.1998 C   0  0  0  0  0  0  0  0  0  0  0  0
   -8.2227    5.4303   -5.8499 F   0  0  0  0  0  0  0  0  0  0  0  0
   -5.8859    0.6981   -3.7712 C   0  0  0  0  0  0  0  0  0  0  0  0
   -6.8887    0.7517   -2.4190 S   0  0  0  0  0  0  0  0  0  0  0  0
   -3.2111    2.4787   -5.6647 C   0  0  0  0  0  0  0  0  0  0  0  0
   -2.0515    1.8822   -6.2143 C   0  0  0  0  0  0  0  0  0  0  0  0
   -2.2841    0.2103   -6.2293 S   0  0  0  0  0  0  0  0  0  0  0  0
   -0.6834    2.4127   -6.0587 C   0  0  0  0  0  0  0  0  0  0  0  0
   -0.1859    2.6518   -4.7696 C   0  0  0  0  0  0  0  0  0  0  0  0
    1.1162    2.1698   -4.5677 C   0  0  0  0  0  0  0  0  0  0  0  0
    1.7040    1.9381   -3.3066 C   0  0  0  0  0  0  0  0  0  0  0  0
    1.2377    2.6035   -2.0850 C   0  0  0  0  0  0  0  0  0  0  0  0
    0.1841    2.0640   -1.3158 C   0  0  0  0  0  0  0  0  0  0  0  0
   -0.1804    2.6701   -0.1118 C   0  0  0  0  0  0  0  0  0  0  0  0
    0.5111    3.8121    0.3398 C   0  0  0  0  0  0  0  0  0  0  0  0
    0.0077    4.5629    1.8972 S   0  0  0  0  0  0  0  0  0  0  0  0
   -0.4805    6.2107    1.2339 C   0  0  0  0  0  0  0  0  0  0  0  0
   -1.5250    6.1684    0.1189 C   0  0  0  0  0  0  0  0  0  0  0  0
    1.6004    4.3110   -0.4016 C   0  0  0  0  0  0  0  0  0  0  0  0
    2.3360    5.3643    0.0408 F   0  0  0  0  0  0  0  0  0  0  0  0
    1.9469    3.7146   -1.6127 C   0  0  0  0  0  0  0  0  0  0  0  0
    2.7437    0.9987   -3.2578 C   0  0  0  0  0  0  0  0  0  0  0  0
    3.3014    0.4385   -4.4083 C   0  0  0  0  0  0  0  0  0  0  0  0
    2.8840    0.8613   -5.6810 C   0  0  0  0  0  0  0  0  0  0  0  0
    3.7204    0.5514   -6.8761 C   0  0  0  0  0  0  0  0  0  0  0  0
    5.1039    0.7690   -6.7945 C   0  0  0  0  0  0  0  0  0  0  0  0
    5.9416    0.5145   -7.8802 C   0  0  0  0  0  0  0  0  0  0  0  0
    5.3884    0.0646   -9.0833 C   0  0  0  0  0  0  0  0  0  0  0  0
    6.4444   -0.1558  -10.5246 S   0  0  0  0  0  0  0  0  0  0  0  0
    6.7150    1.6340  -10.8186 C   0  0  0  0  0  0  0  0  0  0  0  0
    5.4311    2.3831  -11.1607 C   0  0  0  0  0  0  0  0  0  0  0  0
    4.0122   -0.1774   -9.1793 C   0  0  0  0  0  0  0  0  0  0  0  0
    3.1808    0.0298   -8.0688 C   0  0  0  0  0  0  0  0  0  0  0  0
    3.4775   -0.6180  -10.3431 F   0  0  0  0  0  0  0  0  0  0  0  0
    1.7162    1.6587   -5.7244 C   0  0  0  0  0  0  0  0  0  0  0  0
    0.5951    1.7831   -6.9747 S   0  0  0  0  0  0  0  0  0  0  0  0
    4.1181   -0.6712   -4.1532 C   0  0  0  0  0  0  0  0  0  0  0  0
    4.1990   -0.9899   -2.7980 C   0  0  0  0  0  0  0  0  0  0  0  0
    3.2834    0.1301   -1.9178 S   0  0  0  0  0  0  0  0  0  0  0  0
    4.5266   -2.3470   -2.3131 C   0  0  0  0  0  0  0  0  0  0  0  0
    5.3159   -2.6770   -1.2094 C   0  0  0  0  0  0  0  0  0  0  0  0
    5.3111   -4.0621   -0.9274 C   0  0  0  0  0  0  0  0  0  0  0  0
    6.0405   -4.7277    0.0847 C   0  0  0  0  0  0  0  0  0  0  0  0
    7.0705   -4.0442    0.9021 C   0  0  0  0  0  0  0  0  0  0  0  0
    8.3822   -4.5357    0.8875 C   0  0  0  0  0  0  0  0  0  0  0  0
    9.3501   -4.0037    1.7414 C   0  0  0  0  0  0  0  0  0  0  0  0
    9.0205   -2.9529    2.6041 C   0  0  0  0  0  0  0  0  0  0  0  0
   10.2175   -2.4032    3.8254 S   0  0  0  0  0  0  0  0  0  0  0  0
   10.9144   -1.0373    2.8366 C   0  0  0  0  0  0  0  0  0  0  0  0
   11.6934   -1.5383    1.6162 C   0  0  0  0  0  0  0  0  0  0  0  0
    7.7274   -2.4174    2.5896 C   0  0  0  0  0  0  0  0  0  0  0  0
    7.3897   -1.4091    3.4308 F   0  0  0  0  0  0  0  0  0  0  0  0
    6.7506   -2.9614    1.7399 C   0  0  0  0  0  0  0  0  0  0  0  0
    5.8361   -6.1144    0.2115 C   0  0  0  0  0  0  0  0  0  0  0  0
    5.0125   -6.8366   -0.6527 C   0  0  0  0  0  0  0  0  0  0  0  0
    4.3484   -6.1870   -1.7150 C   0  0  0  0  0  0  0  0  0  0  0  0
    3.6085   -6.9554   -2.7406 C   0  0  0  0  0  0  0  0  0  0  0  0
    2.2154   -6.8760   -2.8549 C   0  0  0  0  0  0  0  0  0  0  0  0
    1.5332   -7.6769   -3.7745 C   0  0  0  0  0  0  0  0  0  0  0  0
    2.2447   -8.5720   -4.5943 C   0  0  0  0  0  0  0  0  0  0  0  0
    1.3612   -9.6830   -5.7001 S   0  0  0  0  0  0  0  0  0  0  0  0
    1.5047   -8.6098   -7.1712 C   0  0  0  0  0  0  0  0  0  0  0  0
    0.9922   -9.3455   -8.3964 C   0  0  0  0  0  0  0  0  0  0  0  0
    3.6423   -8.6523   -4.4918 C   0  0  0  0  0  0  0  0  0  0  0  0
    4.3185   -7.8495   -3.5655 C   0  0  0  0  0  0  0  0  0  0  0  0
    4.3398   -9.5127   -5.2676 F   0  0  0  0  0  0  0  0  0  0  0  0
    4.5050   -4.7955   -1.8126 C   0  0  0  0  0  0  0  0  0  0  0  0
    3.8344   -3.7451   -2.9479 S   0  0  0  0  0  0  0  0  0  0  0  0
    4.9469   -8.2105   -0.3420 C   0  0  0  0  0  0  0  0  0  0  0  0
    5.7083   -8.5497    0.7790 C   0  0  0  0  0  0  0  0  0  0  0  0
    6.4644   -7.1689    1.3650 S   0  0  0  0  0  0  0  0  0  0  0  0
    3.6564    0.4597   10.4230 H   0  0  0  0  0  0  0  0  0  0  0  0
    1.3180    1.2824   11.2082 H   0  0  0  0  0  0  0  0  0  0  0  0
   -0.9805    0.4543   12.0782 H   0  0  0  0  0  0  0  0  0  0  0  0
   -1.2893    2.1248   13.8502 H   0  0  0  0  0  0  0  0  0  0  0  0
    0.6368    4.3359   13.7472 H   0  0  0  0  0  0  0  0  0  0  0  0
    0.3257    5.7449   14.7887 H   0  0  0  0  0  0  0  0  0  0  0  0
    0.0158    7.2219   12.8185 H   0  0  0  0  0  0  0  0  0  0  0  0
    1.6348    6.4127   12.8004 H   0  0  0  0  0  0  0  0  0  0  0  0
    0.3197    5.8212   11.7164 H   0  0  0  0  0  0  0  0  0  0  0  0
   -1.7770    3.4596    9.0792 H   0  0  0  0  0  0  0  0  0  0  0  0
    0.1971    1.3978    5.0646 H   0  0  0  0  0  0  0  0  0  0  0  0
    0.8972    1.0173    2.7452 H   0  0  0  0  0  0  0  0  0  0  0  0
    4.4637   -0.2898    0.9728 H   0  0  0  0  0  0  0  0  0  0  0  0
    3.3798    0.9541    1.6693 H   0  0  0  0  0  0  0  0  0  0  0  0
    5.3744    0.1487    3.1158 H   0  0  0  0  0  0  0  0  0  0  0  0
    4.4779   -1.4116    3.3331 H   0  0  0  0  0  0  0  0  0  0  0  0
    3.7838    0.1396    3.9364 H   0  0  0  0  0  0  0  0  0  0  0  0
    1.3064   -2.6572    6.0667 H   0  0  0  0  0  0  0  0  0  0  0  0
   -1.9597   -0.8720    5.2518 H   0  0  0  0  0  0  0  0  0  0  0  0
   -3.3335    2.7885    5.5860 H   0  0  0  0  0  0  0  0  0  0  0  0
   -4.2063    5.2832    5.2691 H   0  0  0  0  0  0  0  0  0  0  0  0
   -3.0444    6.4780    4.5665 H   0  0  0  0  0  0  0  0  0  0  0  0
   -2.4041    5.0691    5.5103 H   0  0  0  0  0  0  0  0  0  0  0  0
   -4.8231    5.1305   -0.0768 H   0  0  0  0  0  0  0  0  0  0  0  0
   -4.2183    5.7051    1.5243 H   0  0  0  0  0  0  0  0  0  0  0  0
   -5.7213    4.6577    1.4285 H   0  0  0  0  0  0  0  0  0  0  0  0
   -4.4010    1.1176    1.0380 H   0  0  0  0  0  0  0  0  0  0  0  0
   -5.1848   -3.3721    3.1556 H   0  0  0  0  0  0  0  0  0  0  0  0
   -5.7011   -5.4252    4.2694 H   0  0  0  0  0  0  0  0  0  0  0  0
   -4.9795   -7.0351    3.9603 H   0  0  0  0  0  0  0  0  0  0  0  0
   -3.9526   -5.5445    3.7524 H   0  0  0  0  0  0  0  0  0  0  0  0
   -7.7482   -6.0772   -1.7053 H   0  0  0  0  0  0  0  0  0  0  0  0
   -6.0528   -6.1836   -2.3765 H   0  0  0  0  0  0  0  0  0  0  0  0
   -6.8539   -7.6313   -1.6331 H   0  0  0  0  0  0  0  0  0  0  0  0
   -6.8454   -3.8374   -1.5441 H   0  0  0  0  0  0  0  0  0  0  0  0
   -5.4817   -2.4771   -2.7684 H   0  0  0  0  0  0  0  0  0  0  0  0
   -2.4647   -1.8465   -3.2261 H   0  0  0  0  0  0  0  0  0  0  0  0
   -1.1420   -3.8797   -3.5546 H   0  0  0  0  0  0  0  0  0  0  0  0
    1.1391   -5.4489   -6.2631 H   0  0  0  0  0  0  0  0  0  0  0  0
    0.3485   -3.9595   -5.7456 H   0  0  0  0  0  0  0  0  0  0  0  0
   -0.3108   -5.4472   -8.3762 H   0  0  0  0  0  0  0  0  0  0  0  0
    0.8205   -4.0381   -8.2482 H   0  0  0  0  0  0  0  0  0  0  0  0
   -0.9297   -3.8259   -7.8631 H   0  0  0  0  0  0  0  0  0  0  0  0
   -4.8658   -2.8253   -6.6724 H   0  0  0  0  0  0  0  0  0  0  0  0
   -4.7246    3.5082   -2.4620 H   0  0  0  0  0  0  0  0  0  0  0  0
   -5.6802    5.7485   -2.0791 H   0  0  0  0  0  0  0  0  0  0  0  0
   -9.3106    7.3281   -1.5985 H   0  0  0  0  0  0  0  0  0  0  0  0
   -8.2057    5.9312   -1.4173 H   0  0  0  0  0  0  0  0  0  0  0  0
  -10.6424    5.3336   -1.9045 H   0  0  0  0  0  0  0  0  0  0  0  0
  -10.4719    6.1346   -3.5229 H   0  0  0  0  0  0  0  0  0  0  0  0
   -9.4955    4.6460   -3.1181 H   0  0  0  0  0  0  0  0  0  0  0  0
   -7.0235    3.1103   -6.0838 H   0  0  0  0  0  0  0  0  0  0  0  0
   -3.2528    3.5148   -5.3883 H   0  0  0  0  0  0  0  0  0  0  0  0
   -0.8336    2.9164   -3.9372 H   0  0  0  0  0  0  0  0  0  0  0  0
   -0.3468    1.1876   -1.6563 H   0  0  0  0  0  0  0  0  0  0  0  0
   -0.9672    2.2339    0.4972 H   0  0  0  0  0  0  0  0  0  0  0  0
    0.4258    6.7504    0.8770 H   0  0  0  0  0  0  0  0  0  0  0  0
   -0.8789    6.8027    2.0893 H   0  0  0  0  0  0  0  0  0  0  0  0
   -1.7782    5.1340   -0.1918 H   0  0  0  0  0  0  0  0  0  0  0  0
   -1.1547    6.7420   -0.7692 H   0  0  0  0  0  0  0  0  0  0  0  0
   -2.4509    6.6810    0.4571 H   0  0  0  0  0  0  0  0  0  0  0  0
    2.7657    4.1383   -2.1986 H   0  0  0  0  0  0  0  0  0  0  0  0
    5.5388    1.1933   -5.8900 H   0  0  0  0  0  0  0  0  0  0  0  0
    7.0039    0.7248   -7.7860 H   0  0  0  0  0  0  0  0  0  0  0  0
    7.4284    1.7451  -11.6654 H   0  0  0  0  0  0  0  0  0  0  0  0
    7.1973    2.0994   -9.9274 H   0  0  0  0  0  0  0  0  0  0  0  0
    4.8052    2.4993  -10.2507 H   0  0  0  0  0  0  0  0  0  0  0  0
    5.6809    3.3953  -11.5420 H   0  0  0  0  0  0  0  0  0  0  0  0
    4.8624    1.8318  -11.9364 H   0  0  0  0  0  0  0  0  0  0  0  0
    2.1246   -0.1981   -8.1500 H   0  0  0  0  0  0  0  0  0  0  0  0
    4.5160   -1.3169   -4.9230 H   0  0  0  0  0  0  0  0  0  0  0  0
    5.8623   -1.9412   -0.6420 H   0  0  0  0  0  0  0  0  0  0  0  0
    8.6606   -5.3612    0.2487 H   0  0  0  0  0  0  0  0  0  0  0  0
   10.3395   -4.4581    1.7539 H   0  0  0  0  0  0  0  0  0  0  0  0
   11.6071   -0.4795    3.4953 H   0  0  0  0  0  0  0  0  0  0  0  0
   10.1182   -0.3344    2.5297 H   0  0  0  0  0  0  0  0  0  0  0  0
   12.5834   -0.8911    1.4507 H   0  0  0  0  0  0  0  0  0  0  0  0
   11.0445   -1.4551    0.7165 H   0  0  0  0  0  0  0  0  0  0  0  0
   12.0344   -2.5864    1.7452 H   0  0  0  0  0  0  0  0  0  0  0  0
    5.7381   -2.5652    1.7496 H   0  0  0  0  0  0  0  0  0  0  0  0
    1.6560   -6.1962   -2.2110 H   0  0  0  0  0  0  0  0  0  0  0  0
    0.4527   -7.6302   -3.8183 H   0  0  0  0  0  0  0  0  0  0  0  0
    2.5726   -8.3225   -7.3286 H   0  0  0  0  0  0  0  0  0  0  0  0
    0.9042   -7.6882   -7.0077 H   0  0  0  0  0  0  0  0  0  0  0  0
    0.0032   -9.8077   -8.1921 H   0  0  0  0  0  0  0  0  0  0  0  0
    1.7231  -10.1339   -8.6822 H   0  0  0  0  0  0  0  0  0  0  0  0
    0.8782   -8.6247   -9.2300 H   0  0  0  0  0  0  0  0  0  0  0  0
    5.4046   -7.9220   -3.4864 H   0  0  0  0  0  0  0  0  0  0  0  0
    4.3533   -8.9339   -0.8859 H   0  0  0  0  0  0  0  0  0  0  0  0
    5.7871   -9.5388    1.2071 H   0  0  0  0  0  0  0  0  0  0  0  0
  1  2  2  0
  2  3  1  0
  3  4  2  0
  4  5  1  0
  5  6  2  0
  6  7  1  0
  7  8  2  0
  8  9  1  0
  9 10  1  0
 10 11  1  0
  8 12  1  0
 12 13  1  0
 12 14  2  0
  4 15  1  0
 15 16  2  0
 16 17  1  0
 17 18  1  0
 18 19  2  0
 19 20  1  0
 20 21  2  0
 21 22  1  0
 22 23  1  0
 23 24  1  0
 21 25  1  0
 25 26  2  0
 25 27  1  0
 17 28  2  0
 28 29  1  0
 16 30  1  0
 30 31  2  0
 31 32  1  0
 31 33  1  0
 33 34  1  0
 34 35  1  0
 35 36  2  0
 36 37  1  0
 37 38  1  0
 38 39  2  0
 39 40  1  0
 40 41  1  0
 39 42  1  0
 42 43  1  0
 43 44  1  0
 42 45  2  0
 35 46  1  0
 46 47  1  0
 47 48  1  0
 48 49  2  0
 49 50  1  0
 50 51  1  0
 51 52  2  0
 52 53  1  0
 53 54  1  0
 52 55  1  0
 55 56  1  0
 56 57  1  0
 55 58  2  0
 48 59  1  0
 59 60  2  0
 60 61  1  0
 61 62  2  0
 62 63  1  0
 63 64  2  0
 64 65  1  0
 65 66  2  0
 66 67  1  0
 67 68  1  0
 68 69  1  0
 66 70  1  0
 70 71  1  0
 70 72  2  0
 62 73  1  0
 73 74  2  0
 74 75  1  0
 75 76  1  0
 76 77  2  0
 77 78  1  0
 78 79  2  0
 79 80  1  0
 80 81  1  0
 81 82  1  0
 79 83  1  0
 83 84  2  0
 83 85  1  0
 75 86  2  0
 86 87  1  0
 74 88  1  0
 88 89  2  0
 89 90  1  0
 89 91  1  0
 91 92  2  0
 92 93  1  0
 93 94  2  0
 94 95  1  0
 95 96  2  0
 96 97  1  0
 97 98  2  0
 98 99  1  0
 99100  1  0
100101  1  0
 98102  1  0
102103  1  0
102104  2  0
 94105  1  0
105106  2  0
106107  1  0
107108  1  0
108109  2  0
109110  1  0
110111  2  0
111112  1  0
112113  1  0
113114  1  0
111115  1  0
115116  2  0
115117  1  0
107118  2  0
118119  1  0
106120  1  0
120121  2  0
121122  1  0
121123  1  0
123124  2  0
124125  1  0
125126  2  0
126127  1  0
127128  2  0
128129  1  0
129130  2  0
130131  1  0
131132  1  0
132133  1  0
130134  1  0
134135  1  0
134136  2  0
126137  1  0
137138  2  0
138139  1  0
139140  1  0
140141  2  0
141142  1  0
142143  2  0
143144  1  0
144145  1  0
145146  1  0
143147  1  0
147148  2  0
147149  1  0
139150  2  0
150151  1  0
138152  1  0
152153  2  0
153154  1  0
 29  1  1  0
 37 33  2  0
 50 46  2  0
 87 59  1  0
119 91  1  0
151123  1  0
 28  3  1  0
 45 36  1  0
 58 49  1  0
 86 61  1  0
118 93  1  0
150125  1  0
 14  5  1  0
 32 15  1  0
 72 63  1  0
 90 73  1  0
104 95  1  0
122105  1  0
136127  1  0
154137  1  0
 26 18  1  0
 84 76  1  0
116108  1  0
148140  1  0
  1155  1  0
  2156  1  0
  6157  1  0
  7158  1  0
 10159  1  0
 10160  1  0
 11161  1  0
 11162  1  0
 11163  1  0
 14164  1  0
 19165  1  0
 20166  1  0
 23167  1  0
 23168  1  0
 24169  1  0
 24170  1  0
 24171  1  0
 26172  1  0
 30173  1  0
 38174  1  0
 41175  1  0
 41176  1  0
 41177  1  0
 44178  1  0
 44179  1  0
 44180  1  0
 45181  1  0
 51182  1  0
 54183  1  0
 54184  1  0
 54185  1  0
 57186  1  0
 57187  1  0
 57188  1  0
 58189  1  0
 60190  1  0
 64191  1  0
 65192  1  0
 68193  1  0
 68194  1  0
 69195  1  0
 69196  1  0
 69197  1  0
 72198  1  0
 77199  1  0
 78200  1  0
 81201  1  0
 81202  1  0
 82203  1  0
 82204  1  0
 82205  1  0
 84206  1  0
 88207  1  0
 92208  1  0
 96209  1  0
 97210  1  0
100211  1  0
100212  1  0
101213  1  0
101214  1  0
101215  1  0
104216  1  0
109217  1  0
110218  1  0
113219  1  0
113220  1  0
114221  1  0
114222  1  0
114223  1  0
116224  1  0
120225  1  0
124226  1  0
128227  1  0
129228  1  0
132229  1  0
132230  1  0
133231  1  0
133232  1  0
133233  1  0
136234  1  0
141235  1  0
142236  1  0
145237  1  0
145238  1  0
146239  1  0
146240  1  0
146241  1  0
148242  1  0
152243  1  0
153244  1  0
M  END

