
     RDKit          3D

 98109  0  0  0  0  0  0  0  0999 V2000
    5.8046   -1.9673    2.8299 C   0  0  0  0  0  0  0  0  0  0  0  0
    5.1733   -2.8945    1.5786 S   0  0  0  0  0  0  0  0  0  0  0  0
    5.0515   -1.6637    0.4283 C   0  0  0  0  0  0  0  0  0  0  0  0
    5.5850   -0.5161    1.0186 C   0  0  0  0  0  0  0  0  0  0  0  0
    5.9842   -0.6858    2.3479 C   0  0  0  0  0  0  0  0  0  0  0  0
    6.6686    0.5888    3.2547 S   0  0  0  0  0  0  0  0  0  0  0  0
    6.8779    2.0982    2.4700 C   0  0  0  0  0  0  0  0  0  0  0  0
    7.3979    3.0501    3.1087 O   0  0  0  0  0  0  0  0  0  0  0  0
    6.4946    2.2780    1.1317 C   0  0  0  0  0  0  0  0  0  0  0  0
    6.6542    3.3954    0.5705 O   0  0  0  0  0  0  0  0  0  0  0  0
    5.7867    0.9886    0.2358 S   0  0  0  0  0  0  0  0  0  0  0  0
    4.7733   -1.8170   -1.0156 C   0  0  0  0  0  0  0  0  0  0  0  0
    3.6467   -2.3024   -1.5582 C   0  0  0  0  0  0  0  0  0  0  0  0
    2.4614   -2.7938   -0.8321 C   0  0  0  0  0  0  0  0  0  0  0  0
    2.4254   -4.0260    0.2915 S   0  0  0  0  0  0  0  0  0  0  0  0
    0.7514   -4.2082    0.4627 C   0  0  0  0  0  0  0  0  0  0  0  0
    0.1758   -3.2983   -0.4558 C   0  0  0  0  0  0  0  0  0  0  0  0
    1.1371   -2.5193   -1.1524 C   0  0  0  0  0  0  0  0  0  0  0  0
    0.7300   -1.5686   -2.0978 C   0  0  0  0  0  0  0  0  0  0  0  0
   -0.6155   -1.4473   -2.4454 C   0  0  0  0  0  0  0  0  0  0  0  0
   -0.9359   -0.5418   -3.4754 O   0  0  0  0  0  0  0  0  0  0  0  0
   -1.9593   -0.7395   -4.4446 C   0  0  0  0  0  0  0  0  0  0  0  0
   -1.5918   -2.2340   -1.7749 C   0  0  0  0  0  0  0  0  0  0  0  0
   -2.9500   -2.0828   -2.0941 O   0  0  0  0  0  0  0  0  0  0  0  0
   -4.0086   -2.8848   -1.5673 C   0  0  0  0  0  0  0  0  0  0  0  0
   -1.1850   -3.1357   -0.7646 C   0  0  0  0  0  0  0  0  0  0  0  0
    0.1016   -5.0537    1.5154 C   0  0  0  0  0  0  0  0  0  0  0  0
   -1.5556   -5.3023    1.7000 S   0  0  0  0  0  0  0  0  0  0  0  0
   -1.5414   -5.9883    3.2342 C   0  0  0  0  0  0  0  0  0  0  0  0
   -0.2155   -6.1270    3.6080 C   0  0  0  0  0  0  0  0  0  0  0  0
    0.7001   -5.6125    2.6689 C   0  0  0  0  0  0  0  0  0  0  0  0
    2.3783   -5.6898    3.0001 S   0  0  0  0  0  0  0  0  0  0  0  0
    2.8986   -6.3915    4.4722 C   0  0  0  0  0  0  0  0  0  0  0  0
    4.1336   -6.4335    4.7213 O   0  0  0  0  0  0  0  0  0  0  0  0
    1.9795   -6.8878    5.4021 C   0  0  0  0  0  0  0  0  0  0  0  0
    2.3858   -7.3847    6.4876 O   0  0  0  0  0  0  0  0  0  0  0  0
    0.2988   -6.8196    5.0848 S   0  0  0  0  0  0  0  0  0  0  0  0
   -2.7247   -6.3313    4.0634 C   0  0  0  0  0  0  0  0  0  0  0  0
   -3.7999   -5.5506    4.2373 C   0  0  0  0  0  0  0  0  0  0  0  0
   -3.9506   -4.1721    3.7137 C   0  0  0  0  0  0  0  0  0  0  0  0
   -2.7409   -3.0098    3.5860 S   0  0  0  0  0  0  0  0  0  0  0  0
   -3.6367   -1.8515    2.7659 C   0  0  0  0  0  0  0  0  0  0  0  0
   -4.9382   -2.3562    2.6122 C   0  0  0  0  0  0  0  0  0  0  0  0
   -5.1046   -3.6297    3.1635 C   0  0  0  0  0  0  0  0  0  0  0  0
   -6.6086   -4.4463    3.0657 S   0  0  0  0  0  0  0  0  0  0  0  0
   -7.9143   -3.6460    2.3061 C   0  0  0  0  0  0  0  0  0  0  0  0
   -9.0337   -4.2176    2.2631 O   0  0  0  0  0  0  0  0  0  0  0  0
   -7.7531   -2.3723    1.7502 C   0  0  0  0  0  0  0  0  0  0  0  0
   -8.7215   -1.7983    1.1845 O   0  0  0  0  0  0  0  0  0  0  0  0
   -6.2341   -1.5816    1.8091 S   0  0  0  0  0  0  0  0  0  0  0  0
   -3.0034   -0.7134    2.0871 C   0  0  0  0  0  0  0  0  0  0  0  0
   -3.6306    0.4369    1.8264 C   0  0  0  0  0  0  0  0  0  0  0  0
   -2.9795    1.4937    1.0298 C   0  0  0  0  0  0  0  0  0  0  0  0
   -1.5779    1.3032    0.1130 S   0  0  0  0  0  0  0  0  0  0  0  0
   -1.5168    2.8672   -0.5132 C   0  0  0  0  0  0  0  0  0  0  0  0
   -2.5931    3.5824    0.0361 C   0  0  0  0  0  0  0  0  0  0  0  0
   -3.4053    2.8129    0.8833 C   0  0  0  0  0  0  0  0  0  0  0  0
   -4.7620    3.4921    1.6665 S   0  0  0  0  0  0  0  0  0  0  0  0
   -5.1038    5.1469    1.4037 C   0  0  0  0  0  0  0  0  0  0  0  0
   -6.1026    5.6595    1.9713 O   0  0  0  0  0  0  0  0  0  0  0  0
   -4.2827    5.9269    0.5860 C   0  0  0  0  0  0  0  0  0  0  0  0
   -4.5307    7.1491    0.4204 O   0  0  0  0  0  0  0  0  0  0  0  0
   -2.9263    5.2442   -0.2000 S   0  0  0  0  0  0  0  0  0  0  0  0
   -0.4252    3.2861   -1.4135 C   0  0  0  0  0  0  0  0  0  0  0  0
   -0.4966    4.2980   -2.2869 C   0  0  0  0  0  0  0  0  0  0  0  0
    0.6305    4.6285   -3.1796 C   0  0  0  0  0  0  0  0  0  0  0  0
    1.1373    6.2005   -3.5087 S   0  0  0  0  0  0  0  0  0  0  0  0
    2.4107    5.8045   -4.5443 C   0  0  0  0  0  0  0  0  0  0  0  0
    2.4351    4.4119   -4.6623 C   0  0  0  0  0  0  0  0  0  0  0  0
    1.4445    3.7598   -3.9108 C   0  0  0  0  0  0  0  0  0  0  0  0
    1.2583    2.0566   -3.9907 S   0  0  0  0  0  0  0  0  0  0  0  0
    2.3471    1.1762   -4.9760 C   0  0  0  0  0  0  0  0  0  0  0  0
    2.2217   -0.0772   -5.0533 O   0  0  0  0  0  0  0  0  0  0  0  0
    3.3640    1.8210   -5.6985 C   0  0  0  0  0  0  0  0  0  0  0  0
    4.1639    1.1520   -6.4030 O   0  0  0  0  0  0  0  0  0  0  0  0
    3.5293    3.5312   -5.6385 S   0  0  0  0  0  0  0  0  0  0  0  0
    3.3265    6.7511   -5.2157 C   0  0  0  0  0  0  0  0  0  0  0  0
    3.2622    8.0652   -5.0175 C   0  0  0  0  0  0  0  0  0  0  0  0
    6.0715   -2.3171    3.8147 H   0  0  0  0  0  0  0  0  0  0  0  0
    5.5091   -1.4033   -1.6942 H   0  0  0  0  0  0  0  0  0  0  0  0
    3.5664   -2.2498   -2.6316 H   0  0  0  0  0  0  0  0  0  0  0  0
    1.4647   -0.9603   -2.6012 H   0  0  0  0  0  0  0  0  0  0  0  0
   -1.8116   -1.7053   -4.9761 H   0  0  0  0  0  0  0  0  0  0  0  0
   -1.9048    0.0673   -5.2016 H   0  0  0  0  0  0  0  0  0  0  0  0
   -2.9750   -0.6779   -4.0063 H   0  0  0  0  0  0  0  0  0  0  0  0
   -4.9538   -2.5707   -2.0404 H   0  0  0  0  0  0  0  0  0  0  0  0
   -4.1120   -2.7159   -0.4746 H   0  0  0  0  0  0  0  0  0  0  0  0
   -3.8541   -3.9588   -1.8130 H   0  0  0  0  0  0  0  0  0  0  0  0
   -1.9316   -3.7330   -0.2812 H   0  0  0  0  0  0  0  0  0  0  0  0
   -2.7032   -7.2929    4.5648 H   0  0  0  0  0  0  0  0  0  0  0  0
   -4.6281   -5.9659    4.7914 H   0  0  0  0  0  0  0  0  0  0  0  0
   -1.9710   -0.8548    1.7839 H   0  0  0  0  0  0  0  0  0  0  0  0
   -4.6285    0.6267    2.2144 H   0  0  0  0  0  0  0  0  0  0  0  0
    0.4741    2.6905   -1.3819 H   0  0  0  0  0  0  0  0  0  0  0  0
   -1.3699    4.9314   -2.3399 H   0  0  0  0  0  0  0  0  0  0  0  0
    4.0839    6.3630   -5.8850 H   0  0  0  0  0  0  0  0  0  0  0  0
    3.9512    8.7080   -5.5391 H   0  0  0  0  0  0  0  0  0  0  0  0
    2.5323    8.5102   -4.3547 H   0  0  0  0  0  0  0  0  0  0  0  0
  1  2  1  0
  2  3  1  0
  3  4  2  0
  4  5  1  0
  5  6  1  0
  6  7  1  0
  7  8  2  0
  7  9  1  0
  9 10  2  0
  9 11  1  0
  3 12  1  0
 12 13  2  3
 13 14  1  0
 14 15  1  0
 15 16  1  0
 16 17  2  0
 17 18  1  0
 18 19  1  0
 19 20  2  0
 20 21  1  0
 21 22  1  0
 20 23  1  0
 23 24  1  0
 24 25  1  0
 23 26  2  0
 16 27  1  0
 27 28  1  0
 28 29  1  0
 29 30  2  0
 30 31  1  0
 31 32  1  0
 32 33  1  0
 33 34  2  0
 33 35  1  0
 35 36  2  0
 35 37  1  0
 29 38  1  0
 38 39  2  3
 39 40  1  0
 40 41  1  0
 41 42  1  0
 42 43  2  0
 43 44  1  0
 44 45  1  0
 45 46  1  0
 46 47  2  0
 46 48  1  0
 48 49  2  0
 48 50  1  0
 42 51  1  0
 51 52  2  3
 52 53  1  0
 53 54  1  0
 54 55  1  0
 55 56  2  0
 56 57  1  0
 57 58  1  0
 58 59  1  0
 59 60  2  0
 59 61  1  0
 61 62  2  0
 61 63  1  0
 55 64  1  0
 64 65  2  3
 65 66  1  0
 66 67  1  0
 67 68  1  0
 68 69  2  0
 69 70  1  0
 70 71  1  0
 71 72  1  0
 72 73  2  0
 72 74  1  0
 74 75  2  0
 74 76  1  0
 68 77  1  0
 77 78  2  3
  5  1  2  0
 18 14  2  0
 31 27  2  0
 44 40  2  0
 57 53  2  0
 70 66  2  0
 11  4  1  0
 26 17  1  0
 37 30  1  0
 50 43  1  0
 63 56  1  0
 76 69  1  0
  1 79  1  0
 12 80  1  0
 13 81  1  0
 19 82  1  0
 22 83  1  0
 22 84  1  0
 22 85  1  0
 25 86  1  0
 25 87  1  0
 25 88  1  0
 26 89  1  0
 38 90  1  0
 39 91  1  0
 51 92  1  0
 52 93  1  0
 64 94  1  0
 65 95  1  0
 77 96  1  0
 78 97  1  0
 78 98  1  0
M  END

