
     RDKit          3D

163179  0  0  0  0  0  0  0  0999 V2000
  -13.8881    5.5651   -8.0807 C   0  0  0  0  0  0  0  0  0  0  0  0
  -12.5340    5.7406   -7.8107 C   0  0  0  0  0  0  0  0  0  0  0  0
  -12.1627    5.3133   -6.5228 C   0  0  0  0  0  0  0  0  0  0  0  0
  -10.8695    5.3727   -5.9577 C   0  0  0  0  0  0  0  0  0  0  0  0
   -9.6796    5.9069   -6.7231 C   0  0  0  0  0  0  0  0  0  0  0  0
   -9.0569    4.8140   -7.5858 C   0  0  0  0  0  0  0  0  0  0  0  0
  -10.7310    4.8671   -4.6506 C   0  0  0  0  0  0  0  0  0  0  0  0
  -11.8056    4.3495   -3.9164 C   0  0  0  0  0  0  0  0  0  0  0  0
  -13.0980    4.2879   -4.4838 C   0  0  0  0  0  0  0  0  0  0  0  0
  -14.2866    3.7428   -3.7249 C   0  0  0  0  0  0  0  0  0  0  0  0
  -14.9324    4.8346   -2.8780 C   0  0  0  0  0  0  0  0  0  0  0  0
  -13.2352    4.7907   -5.7913 C   0  0  0  0  0  0  0  0  0  0  0  0
  -14.6281    4.8741   -6.7332 S   0  0  0  0  0  0  0  0  0  0  0  0
  -11.4406    3.9415   -2.6199 C   0  0  0  0  0  0  0  0  0  0  0  0
  -10.0782    4.1003   -2.3586 C   0  0  0  0  0  0  0  0  0  0  0  0
   -9.3401    4.7953   -3.7081 S   0  0  0  0  0  0  0  0  0  0  0  0
   -9.3813    3.8127   -1.0908 C   0  0  0  0  0  0  0  0  0  0  0  0
   -8.0573    4.6829   -0.5389 S   0  0  0  0  0  0  0  0  0  0  0  0
   -7.7839    3.8347    0.8922 C   0  0  0  0  0  0  0  0  0  0  0  0
   -8.7602    2.8194    0.9561 C   0  0  0  0  0  0  0  0  0  0  0  0
   -9.6256    2.7941   -0.1629 C   0  0  0  0  0  0  0  0  0  0  0  0
  -10.5628    1.7627   -0.3091 C   0  0  0  0  0  0  0  0  0  0  0  0
  -10.6961    0.7862    0.6976 C   0  0  0  0  0  0  0  0  0  0  0  0
  -11.6206   -0.2656    0.5939 O   0  0  0  0  0  0  0  0  0  0  0  0
  -12.4753   -0.4844   -0.5232 C   0  0  0  0  0  0  0  0  0  0  0  0
   -9.8836    0.8450    1.8431 C   0  0  0  0  0  0  0  0  0  0  0  0
  -10.0625   -0.1359    2.8339 O   0  0  0  0  0  0  0  0  0  0  0  0
   -9.3298   -0.1986    4.0539 C   0  0  0  0  0  0  0  0  0  0  0  0
   -8.9122    1.8593    1.9687 C   0  0  0  0  0  0  0  0  0  0  0  0
   -6.5884    4.0755    1.7430 C   0  0  0  0  0  0  0  0  0  0  0  0
   -5.5293    4.9170    1.3843 C   0  0  0  0  0  0  0  0  0  0  0  0
   -4.4214    4.8351    2.2477 C   0  0  0  0  0  0  0  0  0  0  0  0
   -3.1706    5.4632    2.0618 C   0  0  0  0  0  0  0  0  0  0  0  0
   -2.8910    6.3666    0.8828 C   0  0  0  0  0  0  0  0  0  0  0  0
   -2.4977    5.5516   -0.3463 C   0  0  0  0  0  0  0  0  0  0  0  0
   -2.1420    5.0863    2.9467 C   0  0  0  0  0  0  0  0  0  0  0  0
   -2.3342    4.1785    3.9956 C   0  0  0  0  0  0  0  0  0  0  0  0
   -3.6094    3.6186    4.2321 C   0  0  0  0  0  0  0  0  0  0  0  0
   -3.8529    2.6074    5.3286 C   0  0  0  0  0  0  0  0  0  0  0  0
   -3.5148    1.1964    4.8546 C   0  0  0  0  0  0  0  0  0  0  0  0
   -4.6206    3.9503    3.3109 C   0  0  0  0  0  0  0  0  0  0  0  0
   -6.1490    3.2692    3.1614 S   0  0  0  0  0  0  0  0  0  0  0  0
   -1.1368    3.8273    4.6469 C   0  0  0  0  0  0  0  0  0  0  0  0
   -0.0104    4.4402    4.0944 C   0  0  0  0  0  0  0  0  0  0  0  0
   -0.5037    5.4383    2.8264 S   0  0  0  0  0  0  0  0  0  0  0  0
    1.3890    4.0358    4.3207 C   0  0  0  0  0  0  0  0  0  0  0  0
    1.8107    2.9676    5.1142 C   0  0  0  0  0  0  0  0  0  0  0  0
    3.1422    2.5820    4.8643 C   0  0  0  0  0  0  0  0  0  0  0  0
    3.8037    1.4566    5.4084 C   0  0  0  0  0  0  0  0  0  0  0  0
    3.1752    0.5972    6.4827 C   0  0  0  0  0  0  0  0  0  0  0  0
    3.3534    1.2376    7.8557 C   0  0  0  0  0  0  0  0  0  0  0  0
    5.0821    1.1663    4.8904 C   0  0  0  0  0  0  0  0  0  0  0  0
    5.6900    1.9371    3.8922 C   0  0  0  0  0  0  0  0  0  0  0  0
    5.0481    3.0870    3.3812 C   0  0  0  0  0  0  0  0  0  0  0  0
    5.6867    3.9618    2.3237 C   0  0  0  0  0  0  0  0  0  0  0  0
    6.6888    4.9229    2.9576 C   0  0  0  0  0  0  0  0  0  0  0  0
    3.7680    3.3729    3.8930 C   0  0  0  0  0  0  0  0  0  0  0  0
    2.6768    4.5303    3.3506 S   0  0  0  0  0  0  0  0  0  0  0  0
    6.8917    1.3798    3.4188 C   0  0  0  0  0  0  0  0  0  0  0  0
    7.2064    0.1592    4.0162 C   0  0  0  0  0  0  0  0  0  0  0  0
    6.0275   -0.2000    5.1688 S   0  0  0  0  0  0  0  0  0  0  0  0
    8.1681   -0.8232    3.4856 C   0  0  0  0  0  0  0  0  0  0  0  0
    8.7275   -0.7820    2.2073 C   0  0  0  0  0  0  0  0  0  0  0  0
    9.3059   -2.0019    1.8132 C   0  0  0  0  0  0  0  0  0  0  0  0
    9.8042   -2.3117    0.5268 C   0  0  0  0  0  0  0  0  0  0  0  0
    9.8940   -1.2762   -0.5731 C   0  0  0  0  0  0  0  0  0  0  0  0
   11.1574   -0.4355   -0.4178 C   0  0  0  0  0  0  0  0  0  0  0  0
   10.1950   -3.6472    0.3100 C   0  0  0  0  0  0  0  0  0  0  0  0
   10.1208   -4.6310    1.3042 C   0  0  0  0  0  0  0  0  0  0  0  0
    9.6677   -4.3094    2.6023 C   0  0  0  0  0  0  0  0  0  0  0  0
    9.5332   -5.3528    3.6873 C   0  0  0  0  0  0  0  0  0  0  0  0
    8.1931   -6.0753    3.5883 C   0  0  0  0  0  0  0  0  0  0  0  0
    9.2391   -2.9852    2.8079 C   0  0  0  0  0  0  0  0  0  0  0  0
    8.4310   -2.3552    4.1432 S   0  0  0  0  0  0  0  0  0  0  0  0
   10.4401   -5.9168    0.8316 C   0  0  0  0  0  0  0  0  0  0  0  0
   10.7457   -5.9411   -0.5283 C   0  0  0  0  0  0  0  0  0  0  0  0
   10.6471   -4.3722   -1.1410 S   0  0  0  0  0  0  0  0  0  0  0  0
   10.9133   -7.1573   -1.3407 C   0  0  0  0  0  0  0  0  0  0  0  0
   10.9079   -7.2059   -2.7341 C   0  0  0  0  0  0  0  0  0  0  0  0
   10.9085   -8.5185   -3.2405 C   0  0  0  0  0  0  0  0  0  0  0  0
   10.8340   -8.8905   -4.6012 C   0  0  0  0  0  0  0  0  0  0  0  0
   10.7617   -7.8703   -5.7128 C   0  0  0  0  0  0  0  0  0  0  0  0
    9.3248   -7.4035   -5.9290 C   0  0  0  0  0  0  0  0  0  0  0  0
   10.7391  -10.2691   -4.8704 C   0  0  0  0  0  0  0  0  0  0  0  0
   10.7532  -11.2426   -3.8655 C   0  0  0  0  0  0  0  0  0  0  0  0
   10.8743  -10.8726   -2.5080 C   0  0  0  0  0  0  0  0  0  0  0  0
   10.8580  -11.8906   -1.3904 C   0  0  0  0  0  0  0  0  0  0  0  0
    9.4273  -12.2379   -0.9905 C   0  0  0  0  0  0  0  0  0  0  0  0
   10.9285   -9.4933   -2.2351 C   0  0  0  0  0  0  0  0  0  0  0  0
   10.9302   -8.7321   -0.7346 S   0  0  0  0  0  0  0  0  0  0  0  0
   10.6043  -12.5492   -4.3658 C   0  0  0  0  0  0  0  0  0  0  0  0
   10.4767  -12.5981   -5.7500 C   0  0  0  0  0  0  0  0  0  0  0  0
   10.5439  -11.0291   -6.3595 S   0  0  0  0  0  0  0  0  0  0  0  0
  -14.3826    5.8279   -9.0057 H   0  0  0  0  0  0  0  0  0  0  0  0
  -11.8525    6.1640   -8.5358 H   0  0  0  0  0  0  0  0  0  0  0  0
   -8.9103    6.3011   -6.0260 H   0  0  0  0  0  0  0  0  0  0  0  0
   -9.9789    6.7624   -7.3634 H   0  0  0  0  0  0  0  0  0  0  0  0
   -8.1757    5.2214   -8.1248 H   0  0  0  0  0  0  0  0  0  0  0  0
   -9.7914    4.4452   -8.3332 H   0  0  0  0  0  0  0  0  0  0  0  0
   -8.7250    3.9648   -6.9508 H   0  0  0  0  0  0  0  0  0  0  0  0
  -15.0431    3.3334   -4.4266 H   0  0  0  0  0  0  0  0  0  0  0  0
  -13.9827    2.8956   -3.0761 H   0  0  0  0  0  0  0  0  0  0  0  0
  -15.8096    4.4179   -2.3396 H   0  0  0  0  0  0  0  0  0  0  0  0
  -15.2763    5.6708   -3.5249 H   0  0  0  0  0  0  0  0  0  0  0  0
  -14.2088    5.2244   -2.1300 H   0  0  0  0  0  0  0  0  0  0  0  0
  -12.1468    3.5899   -1.8825 H   0  0  0  0  0  0  0  0  0  0  0  0
  -11.1537    1.6907   -1.2072 H   0  0  0  0  0  0  0  0  0  0  0  0
  -13.1555    0.3837   -0.6626 H   0  0  0  0  0  0  0  0  0  0  0  0
  -13.0901   -1.3898   -0.3362 H   0  0  0  0  0  0  0  0  0  0  0  0
  -11.8702   -0.6496   -1.4394 H   0  0  0  0  0  0  0  0  0  0  0  0
   -9.4948    0.7245    4.6481 H   0  0  0  0  0  0  0  0  0  0  0  0
   -9.6831   -1.0687    4.6443 H   0  0  0  0  0  0  0  0  0  0  0  0
   -8.2474   -0.3299    3.8440 H   0  0  0  0  0  0  0  0  0  0  0  0
   -8.3052    1.8884    2.8517 H   0  0  0  0  0  0  0  0  0  0  0  0
   -5.5373    5.5118    0.4816 H   0  0  0  0  0  0  0  0  0  0  0  0
   -3.7808    6.9892    0.6510 H   0  0  0  0  0  0  0  0  0  0  0  0
   -2.0726    7.0773    1.1264 H   0  0  0  0  0  0  0  0  0  0  0  0
   -3.3184    4.8609   -0.6352 H   0  0  0  0  0  0  0  0  0  0  0  0
   -2.2951    6.2359   -1.1975 H   0  0  0  0  0  0  0  0  0  0  0  0
   -1.5797    4.9603   -0.1385 H   0  0  0  0  0  0  0  0  0  0  0  0
   -4.9142    2.6380    5.6546 H   0  0  0  0  0  0  0  0  0  0  0  0
   -3.2466    2.8565    6.2246 H   0  0  0  0  0  0  0  0  0  0  0  0
   -2.4569    1.1378    4.5214 H   0  0  0  0  0  0  0  0  0  0  0  0
   -3.6618    0.4779    5.6886 H   0  0  0  0  0  0  0  0  0  0  0  0
   -4.1783    0.9038    4.0136 H   0  0  0  0  0  0  0  0  0  0  0  0
   -1.0770    3.0848    5.4293 H   0  0  0  0  0  0  0  0  0  0  0  0
    1.1481    2.4389    5.7839 H   0  0  0  0  0  0  0  0  0  0  0  0
    2.0960    0.4409    6.2779 H   0  0  0  0  0  0  0  0  0  0  0  0
    3.6270   -0.4169    6.5002 H   0  0  0  0  0  0  0  0  0  0  0  0
    2.8740    0.6005    8.6286 H   0  0  0  0  0  0  0  0  0  0  0  0
    4.4347    1.3370    8.0943 H   0  0  0  0  0  0  0  0  0  0  0  0
    2.8778    2.2413    7.8778 H   0  0  0  0  0  0  0  0  0  0  0  0
    4.9235    4.5520    1.7755 H   0  0  0  0  0  0  0  0  0  0  0  0
    6.1940    3.3408    1.5578 H   0  0  0  0  0  0  0  0  0  0  0  0
    7.1533    5.5515    2.1684 H   0  0  0  0  0  0  0  0  0  0  0  0
    6.1738    5.5859    3.6852 H   0  0  0  0  0  0  0  0  0  0  0  0
    7.4908    4.3587    3.4789 H   0  0  0  0  0  0  0  0  0  0  0  0
    7.4723    1.8027    2.6122 H   0  0  0  0  0  0  0  0  0  0  0  0
    8.6338    0.0739    1.5544 H   0  0  0  0  0  0  0  0  0  0  0  0
    9.0018   -0.6179   -0.5632 H   0  0  0  0  0  0  0  0  0  0  0  0
    9.9040   -1.7549   -1.5741 H   0  0  0  0  0  0  0  0  0  0  0  0
   11.1926    0.3355   -1.2166 H   0  0  0  0  0  0  0  0  0  0  0  0
   11.1644    0.0755    0.5687 H   0  0  0  0  0  0  0  0  0  0  0  0
   12.0582   -1.0808   -0.5031 H   0  0  0  0  0  0  0  0  0  0  0  0
   10.3619   -6.0885    3.6214 H   0  0  0  0  0  0  0  0  0  0  0  0
    9.6196   -4.8812    4.6892 H   0  0  0  0  0  0  0  0  0  0  0  0
    7.3578   -5.3606    3.7464 H   0  0  0  0  0  0  0  0  0  0  0  0
    8.0798   -6.5535    2.5919 H   0  0  0  0  0  0  0  0  0  0  0  0
    8.1393   -6.8640    4.3679 H   0  0  0  0  0  0  0  0  0  0  0  0
   10.3837   -6.8133    1.4335 H   0  0  0  0  0  0  0  0  0  0  0  0
   10.8514   -6.3187   -3.3491 H   0  0  0  0  0  0  0  0  0  0  0  0
   11.1503   -8.2990   -6.6611 H   0  0  0  0  0  0  0  0  0  0  0  0
   11.4075   -6.9974   -5.4829 H   0  0  0  0  0  0  0  0  0  0  0  0
    8.9368   -6.9058   -5.0151 H   0  0  0  0  0  0  0  0  0  0  0  0
    8.6727   -8.2681   -6.1791 H   0  0  0  0  0  0  0  0  0  0  0  0
    9.2905   -6.6783   -6.7688 H   0  0  0  0  0  0  0  0  0  0  0  0
   11.3954  -12.8119   -1.6976 H   0  0  0  0  0  0  0  0  0  0  0  0
   11.4010  -11.5009   -0.5019 H   0  0  0  0  0  0  0  0  0  0  0  0
    8.8962  -11.3288   -0.6369 H   0  0  0  0  0  0  0  0  0  0  0  0
    8.8780  -12.6721   -1.8532 H   0  0  0  0  0  0  0  0  0  0  0  0
    9.4425  -12.9843   -0.1691 H   0  0  0  0  0  0  0  0  0  0  0  0
   10.5708  -13.4394   -3.7529 H   0  0  0  0  0  0  0  0  0  0  0  0
   10.3415  -13.4962   -6.3359 H   0  0  0  0  0  0  0  0  0  0  0  0
  1  2  2  0
  2  3  1  0
  3  4  2  0
  4  5  1  0
  5  6  1  0
  4  7  1  0
  7  8  2  0
  8  9  1  0
  9 10  1  0
 10 11  1  0
  9 12  2  0
 12 13  1  0
  8 14  1  0
 14 15  2  0
 15 16  1  0
 15 17  1  0
 17 18  1  0
 18 19  1  0
 19 20  2  0
 20 21  1  0
 21 22  1  0
 22 23  2  0
 23 24  1  0
 24 25  1  0
 23 26  1  0
 26 27  1  0
 27 28  1  0
 26 29  2  0
 19 30  1  0
 30 31  2  0
 31 32  1  0
 32 33  2  0
 33 34  1  0
 34 35  1  0
 33 36  1  0
 36 37  2  0
 37 38  1  0
 38 39  1  0
 39 40  1  0
 38 41  2  0
 41 42  1  0
 37 43  1  0
 43 44  2  0
 44 45  1  0
 44 46  1  0
 46 47  2  0
 47 48  1  0
 48 49  2  0
 49 50  1  0
 50 51  1  0
 49 52  1  0
 52 53  2  0
 53 54  1  0
 54 55  1  0
 55 56  1  0
 54 57  2  0
 57 58  1  0
 53 59  1  0
 59 60  2  0
 60 61  1  0
 60 62  1  0
 62 63  2  0
 63 64  1  0
 64 65  2  0
 65 66  1  0
 66 67  1  0
 65 68  1  0
 68 69  2  0
 69 70  1  0
 70 71  1  0
 71 72  1  0
 70 73  2  0
 73 74  1  0
 69 75  1  0
 75 76  2  0
 76 77  1  0
 76 78  1  0
 78 79  2  0
 79 80  1  0
 80 81  2  0
 81 82  1  0
 82 83  1  0
 81 84  1  0
 84 85  2  0
 85 86  1  0
 86 87  1  0
 87 88  1  0
 86 89  2  0
 89 90  1  0
 85 91  1  0
 91 92  2  0
 92 93  1  0
 13  1  1  0
 21 17  2  0
 42 30  1  0
 58 46  1  0
 74 62  1  0
 90 78  1  0
 12  3  1  0
 29 20  1  0
 41 32  1  0
 57 48  1  0
 73 64  1  0
 89 80  1  0
 16  7  1  0
 45 36  1  0
 61 52  1  0
 77 68  1  0
 93 84  1  0
  1 94  1  0
  2 95  1  0
  5 96  1  0
  5 97  1  0
  6 98  1  0
  6 99  1  0
  6100  1  0
 10101  1  0
 10102  1  0
 11103  1  0
 11104  1  0
 11105  1  0
 14106  1  0
 22107  1  0
 25108  1  0
 25109  1  0
 25110  1  0
 28111  1  0
 28112  1  0
 28113  1  0
 29114  1  0
 31115  1  0
 34116  1  0
 34117  1  0
 35118  1  0
 35119  1  0
 35120  1  0
 39121  1  0
 39122  1  0
 40123  1  0
 40124  1  0
 40125  1  0
 43126  1  0
 47127  1  0
 50128  1  0
 50129  1  0
 51130  1  0
 51131  1  0
 51132  1  0
 55133  1  0
 55134  1  0
 56135  1  0
 56136  1  0
 56137  1  0
 59138  1  0
 63139  1  0
 66140  1  0
 66141  1  0
 67142  1  0
 67143  1  0
 67144  1  0
 71145  1  0
 71146  1  0
 72147  1  0
 72148  1  0
 72149  1  0
 75150  1  0
 79151  1  0
 82152  1  0
 82153  1  0
 83154  1  0
 83155  1  0
 83156  1  0
 87157  1  0
 87158  1  0
 88159  1  0
 88160  1  0
 88161  1  0
 91162  1  0
 92163  1  0
M  END

