
     RDKit          3D

236259  0  0  0  0  0  0  0  0999 V2000
    3.6153   -9.6692    6.5298 C   0  0  0  0  0  0  0  0  0  0  0  0
    1.9827  -10.0048    6.2758 S   0  0  0  0  0  0  0  0  0  0  0  0
    1.6254   -8.6091    5.4048 C   0  0  0  0  0  0  0  0  0  0  0  0
    2.7883   -7.8516    5.3098 C   0  0  0  0  0  0  0  0  0  0  0  0
    3.8915   -8.4433    5.9364 C   0  0  0  0  0  0  0  0  0  0  0  0
    5.1320   -7.8059    5.9487 C   0  0  0  0  0  0  0  0  0  0  0  0
    5.2660   -6.5414    5.3315 C   0  0  0  0  0  0  0  0  0  0  0  0
    6.4854   -5.8464    5.3209 O   0  0  0  0  0  0  0  0  0  0  0  0
    7.6915   -6.3211    5.9109 C   0  0  0  0  0  0  0  0  0  0  0  0
    4.1531   -5.9406    4.7048 C   0  0  0  0  0  0  0  0  0  0  0  0
    4.3294   -4.6823    4.1091 O   0  0  0  0  0  0  0  0  0  0  0  0
    3.3015   -3.9466    3.4545 C   0  0  0  0  0  0  0  0  0  0  0  0
    2.9074   -6.6036    4.6928 C   0  0  0  0  0  0  0  0  0  0  0  0
    0.3068   -8.2547    4.8700 C   0  0  0  0  0  0  0  0  0  0  0  0
   -0.0817   -8.2325    3.2350 S   0  0  0  0  0  0  0  0  0  0  0  0
   -1.6006   -7.5164    3.3965 C   0  0  0  0  0  0  0  0  0  0  0  0
   -1.8153   -7.2749    4.7600 C   0  0  0  0  0  0  0  0  0  0  0  0
   -0.7466   -7.6823    5.5757 C   0  0  0  0  0  0  0  0  0  0  0  0
   -0.7722   -7.4563    6.9539 C   0  0  0  0  0  0  0  0  0  0  0  0
   -1.8920   -6.8212    7.5316 C   0  0  0  0  0  0  0  0  0  0  0  0
   -1.9584   -6.5423    8.9061 O   0  0  0  0  0  0  0  0  0  0  0  0
   -0.9032   -6.7897    9.8306 C   0  0  0  0  0  0  0  0  0  0  0  0
   -2.9817   -6.4401    6.7211 C   0  0  0  0  0  0  0  0  0  0  0  0
   -4.0786   -5.8123    7.3345 O   0  0  0  0  0  0  0  0  0  0  0  0
   -5.2156   -5.3095    6.6397 C   0  0  0  0  0  0  0  0  0  0  0  0
   -2.9464   -6.6833    5.3311 C   0  0  0  0  0  0  0  0  0  0  0  0
   -2.3939   -7.0375    2.2526 C   0  0  0  0  0  0  0  0  0  0  0  0
   -3.0120   -5.7902    2.1643 C   0  0  0  0  0  0  0  0  0  0  0  0
   -3.4852   -5.5031    0.8756 C   0  0  0  0  0  0  0  0  0  0  0  0
   -4.0799   -4.2949    0.4633 C   0  0  0  0  0  0  0  0  0  0  0  0
   -4.2220   -3.1433    1.3762 C   0  0  0  0  0  0  0  0  0  0  0  0
   -5.4912   -2.7091    1.7818 C   0  0  0  0  0  0  0  0  0  0  0  0
   -5.6210   -1.5916    2.6117 C   0  0  0  0  0  0  0  0  0  0  0  0
   -6.8621   -1.1835    2.9807 F   0  0  0  0  0  0  0  0  0  0  0  0
   -4.4785   -0.8926    3.0471 C   0  0  0  0  0  0  0  0  0  0  0  0
   -4.6170    0.3443    3.8997 C   0  0  0  0  0  0  0  0  0  0  0  0
   -4.6829    1.5966    3.0310 C   0  0  0  0  0  0  0  0  0  0  0  0
   -3.2076   -1.3227    2.6204 C   0  0  0  0  0  0  0  0  0  0  0  0
   -2.0886   -0.6445    2.9857 F   0  0  0  0  0  0  0  0  0  0  0  0
   -3.0837   -2.4427    1.7959 C   0  0  0  0  0  0  0  0  0  0  0  0
   -4.3890   -4.1735   -0.9003 C   0  0  0  0  0  0  0  0  0  0  0  0
   -4.0871   -5.1695   -1.8384 C   0  0  0  0  0  0  0  0  0  0  0  0
   -3.5233   -6.3942   -1.4179 C   0  0  0  0  0  0  0  0  0  0  0  0
   -3.2335   -7.4914   -2.3620 C   0  0  0  0  0  0  0  0  0  0  0  0
   -3.9342   -8.7007   -2.2601 C   0  0  0  0  0  0  0  0  0  0  0  0
   -3.6909   -9.7356   -3.1651 C   0  0  0  0  0  0  0  0  0  0  0  0
   -2.7264   -9.5812   -4.1775 C   0  0  0  0  0  0  0  0  0  0  0  0
   -2.5040  -10.6813   -5.1868 C   0  0  0  0  0  0  0  0  0  0  0  0
   -3.4511  -10.5243   -6.3718 C   0  0  0  0  0  0  0  0  0  0  0  0
   -2.0270   -8.3640   -4.2803 C   0  0  0  0  0  0  0  0  0  0  0  0
   -2.2732   -7.3321   -3.3704 C   0  0  0  0  0  0  0  0  0  0  0  0
   -1.1127   -8.1731   -5.2639 F   0  0  0  0  0  0  0  0  0  0  0  0
   -4.4081  -10.8837   -3.0616 F   0  0  0  0  0  0  0  0  0  0  0  0
   -3.2374   -6.5241   -0.0459 C   0  0  0  0  0  0  0  0  0  0  0  0
   -2.4153   -7.7702    0.7294 S   0  0  0  0  0  0  0  0  0  0  0  0
   -4.3200   -4.7617   -3.1674 C   0  0  0  0  0  0  0  0  0  0  0  0
   -4.8108   -3.4591   -3.2576 C   0  0  0  0  0  0  0  0  0  0  0  0
   -4.9480   -2.8121   -1.7041 S   0  0  0  0  0  0  0  0  0  0  0  0
   -4.7777   -2.6089   -4.4524 C   0  0  0  0  0  0  0  0  0  0  0  0
   -3.6211   -2.4394   -5.2179 C   0  0  0  0  0  0  0  0  0  0  0  0
   -3.5455   -1.1759   -5.8338 C   0  0  0  0  0  0  0  0  0  0  0  0
   -2.3799   -0.6083   -6.3900 C   0  0  0  0  0  0  0  0  0  0  0  0
   -1.1372   -1.3953   -6.5302 C   0  0  0  0  0  0  0  0  0  0  0  0
   -0.0975   -1.2464   -5.6019 C   0  0  0  0  0  0  0  0  0  0  0  0
    1.0671   -2.0117   -5.7159 C   0  0  0  0  0  0  0  0  0  0  0  0
    2.0628   -1.8409   -4.8092 F   0  0  0  0  0  0  0  0  0  0  0  0
    1.2022   -2.9457   -6.7616 C   0  0  0  0  0  0  0  0  0  0  0  0
    2.4716   -3.7479   -6.9075 C   0  0  0  0  0  0  0  0  0  0  0  0
    3.5027   -2.9873   -7.7351 C   0  0  0  0  0  0  0  0  0  0  0  0
    0.1584   -3.0861   -7.6951 C   0  0  0  0  0  0  0  0  0  0  0  0
    0.2682   -3.9606   -8.7290 F   0  0  0  0  0  0  0  0  0  0  0  0
   -1.0061   -2.3206   -7.5734 C   0  0  0  0  0  0  0  0  0  0  0  0
   -2.3893    0.7843   -6.5963 C   0  0  0  0  0  0  0  0  0  0  0  0
   -3.5072    1.5791   -6.3214 C   0  0  0  0  0  0  0  0  0  0  0  0
   -4.7030    0.9947   -5.8588 C   0  0  0  0  0  0  0  0  0  0  0  0
   -5.8576    1.8089   -5.4388 C   0  0  0  0  0  0  0  0  0  0  0  0
   -5.7857    2.5964   -4.2808 C   0  0  0  0  0  0  0  0  0  0  0  0
   -6.8923    3.3396   -3.8662 C   0  0  0  0  0  0  0  0  0  0  0  0
   -8.0864    3.3066   -4.6100 C   0  0  0  0  0  0  0  0  0  0  0  0
   -9.2977    4.0725   -4.1392 C   0  0  0  0  0  0  0  0  0  0  0  0
  -10.1719    3.2006   -3.2444 C   0  0  0  0  0  0  0  0  0  0  0  0
   -8.1578    2.5021   -5.7618 C   0  0  0  0  0  0  0  0  0  0  0  0
   -7.0492    1.7586   -6.1704 C   0  0  0  0  0  0  0  0  0  0  0  0
   -9.3041    2.4296   -6.4845 F   0  0  0  0  0  0  0  0  0  0  0  0
   -6.8008    4.0821   -2.7342 F   0  0  0  0  0  0  0  0  0  0  0  0
   -4.6765   -0.3858   -5.5996 C   0  0  0  0  0  0  0  0  0  0  0  0
   -5.7308   -1.2268   -4.5999 S   0  0  0  0  0  0  0  0  0  0  0  0
   -3.2279    2.9542   -6.3304 C   0  0  0  0  0  0  0  0  0  0  0  0
   -1.8776    3.2447   -6.5257 C   0  0  0  0  0  0  0  0  0  0  0  0
   -1.0604    1.7908   -6.8081 S   0  0  0  0  0  0  0  0  0  0  0  0
   -1.2112    4.4015   -5.9013 C   0  0  0  0  0  0  0  0  0  0  0  0
   -1.6605    4.9584   -4.6986 C   0  0  0  0  0  0  0  0  0  0  0  0
   -0.6385    5.5395   -3.9336 C   0  0  0  0  0  0  0  0  0  0  0  0
   -0.7418    5.8889   -2.5704 C   0  0  0  0  0  0  0  0  0  0  0  0
   -2.0243    5.7814   -1.8477 C   0  0  0  0  0  0  0  0  0  0  0  0
   -2.3038    4.6459   -1.0774 C   0  0  0  0  0  0  0  0  0  0  0  0
   -3.5401    4.5128   -0.4374 C   0  0  0  0  0  0  0  0  0  0  0  0
   -3.7894    3.3973    0.2943 F   0  0  0  0  0  0  0  0  0  0  0  0
   -4.5162    5.5181   -0.5630 C   0  0  0  0  0  0  0  0  0  0  0  0
   -5.8472    5.3779    0.1346 C   0  0  0  0  0  0  0  0  0  0  0  0
   -5.7476    5.8076    1.5948 C   0  0  0  0  0  0  0  0  0  0  0  0
   -4.2210    6.6696   -1.3189 C   0  0  0  0  0  0  0  0  0  0  0  0
   -5.1301    7.6704   -1.4402 F   0  0  0  0  0  0  0  0  0  0  0  0
   -2.9869    6.7932   -1.9643 C   0  0  0  0  0  0  0  0  0  0  0  0
    0.4623    6.1268   -1.8859 C   0  0  0  0  0  0  0  0  0  0  0  0
    1.7086    6.0694   -2.5184 C   0  0  0  0  0  0  0  0  0  0  0  0
    1.8026    5.7958   -3.8975 C   0  0  0  0  0  0  0  0  0  0  0  0
    3.1037    5.6516   -4.5749 C   0  0  0  0  0  0  0  0  0  0  0  0
    3.5667    6.6685   -5.4183 C   0  0  0  0  0  0  0  0  0  0  0  0
    4.8045    6.5475   -6.0541 C   0  0  0  0  0  0  0  0  0  0  0  0
    5.5919    5.3961   -5.8636 C   0  0  0  0  0  0  0  0  0  0  0  0
    6.9477    5.2872   -6.5162 C   0  0  0  0  0  0  0  0  0  0  0  0
    8.0260    5.8878   -5.6200 C   0  0  0  0  0  0  0  0  0  0  0  0
    5.1236    4.3786   -5.0099 C   0  0  0  0  0  0  0  0  0  0  0  0
    3.8852    4.5070   -4.3730 C   0  0  0  0  0  0  0  0  0  0  0  0
    5.8694    3.2661   -4.7858 F   0  0  0  0  0  0  0  0  0  0  0  0
    5.2393    7.5618   -6.8453 F   0  0  0  0  0  0  0  0  0  0  0  0
    0.6065    5.5059   -4.5698 C   0  0  0  0  0  0  0  0  0  0  0  0
    0.4438    4.7130   -6.0453 S   0  0  0  0  0  0  0  0  0  0  0  0
    2.7820    6.1000   -1.6165 C   0  0  0  0  0  0  0  0  0  0  0  0
    2.3869    6.1544   -0.2801 C   0  0  0  0  0  0  0  0  0  0  0  0
    0.7008    6.1901   -0.2211 S   0  0  0  0  0  0  0  0  0  0  0  0
    3.1849    5.5375    0.7774 C   0  0  0  0  0  0  0  0  0  0  0  0
    3.5576    4.1987    0.7568 C   0  0  0  0  0  0  0  0  0  0  0  0
    4.2998    3.8214    1.8795 C   0  0  0  0  0  0  0  0  0  0  0  0
    4.8033    2.5294    2.1427 C   0  0  0  0  0  0  0  0  0  0  0  0
    4.5757    1.4046    1.2086 C   0  0  0  0  0  0  0  0  0  0  0  0
    3.7723    0.3219    1.5895 C   0  0  0  0  0  0  0  0  0  0  0  0
    3.4562   -0.6825    0.6669 C   0  0  0  0  0  0  0  0  0  0  0  0
    2.6430   -1.6980    1.0479 F   0  0  0  0  0  0  0  0  0  0  0  0
    3.9555   -0.6209   -0.6442 C   0  0  0  0  0  0  0  0  0  0  0  0
    3.6164   -1.7060   -1.6382 C   0  0  0  0  0  0  0  0  0  0  0  0
    4.4520   -2.9587   -1.3930 C   0  0  0  0  0  0  0  0  0  0  0  0
    4.8012    0.4436   -1.0105 C   0  0  0  0  0  0  0  0  0  0  0  0
    5.3172    0.5235   -2.2642 F   0  0  0  0  0  0  0  0  0  0  0  0
    5.1009    1.4517   -0.0898 C   0  0  0  0  0  0  0  0  0  0  0  0
    5.5215    2.3668    3.3394 C   0  0  0  0  0  0  0  0  0  0  0  0
    5.7446    3.4190    4.2318 C   0  0  0  0  0  0  0  0  0  0  0  0
    5.2266    4.7047    3.9724 C   0  0  0  0  0  0  0  0  0  0  0  0
    5.4510    5.8319    4.8938 C   0  0  0  0  0  0  0  0  0  0  0  0
    6.7092    6.4420    4.9643 C   0  0  0  0  0  0  0  0  0  0  0  0
    6.9302    7.5064    5.8440 C   0  0  0  0  0  0  0  0  0  0  0  0
    5.8889    7.9744    6.6664 C   0  0  0  0  0  0  0  0  0  0  0  0
    6.1415    9.0946    7.6444 C   0  0  0  0  0  0  0  0  0  0  0  0
    6.7503    8.5597    8.9370 C   0  0  0  0  0  0  0  0  0  0  0  0
    4.6287    7.3516    6.6000 C   0  0  0  0  0  0  0  0  0  0  0  0
    4.4120    6.2917    5.7114 C   0  0  0  0  0  0  0  0  0  0  0  0
    3.6080    7.7612    7.3973 F   0  0  0  0  0  0  0  0  0  0  0  0
    8.1614    8.0776    5.8930 F   0  0  0  0  0  0  0  0  0  0  0  0
    4.4978    4.8700    2.7831 C   0  0  0  0  0  0  0  0  0  0  0  0
    3.7495    6.2665    2.1911 S   0  0  0  0  0  0  0  0  0  0  0  0
    6.4941    3.0370    5.3561 C   0  0  0  0  0  0  0  0  0  0  0  0
    6.8580    1.6930    5.3401 C   0  0  0  0  0  0  0  0  0  0  0  0
    6.2547    0.9755    3.9383 S   0  0  0  0  0  0  0  0  0  0  0  0
    4.3167  -10.2931    7.0676 H   0  0  0  0  0  0  0  0  0  0  0  0
    5.9700   -8.2833    6.4359 H   0  0  0  0  0  0  0  0  0  0  0  0
    7.5491   -6.4718    7.0021 H   0  0  0  0  0  0  0  0  0  0  0  0
    7.9984   -7.2733    5.4302 H   0  0  0  0  0  0  0  0  0  0  0  0
    8.4921   -5.5695    5.7554 H   0  0  0  0  0  0  0  0  0  0  0  0
    3.7225   -2.9872    3.0905 H   0  0  0  0  0  0  0  0  0  0  0  0
    2.4774   -3.7264    4.1655 H   0  0  0  0  0  0  0  0  0  0  0  0
    2.9161   -4.5191    2.5844 H   0  0  0  0  0  0  0  0  0  0  0  0
    2.0424   -6.1542    4.2248 H   0  0  0  0  0  0  0  0  0  0  0  0
    0.0706   -7.7579    7.5608 H   0  0  0  0  0  0  0  0  0  0  0  0
   -0.6903   -7.8779    9.8876 H   0  0  0  0  0  0  0  0  0  0  0  0
   -1.2121   -6.4319   10.8345 H   0  0  0  0  0  0  0  0  0  0  0  0
    0.0114   -6.2386    9.5247 H   0  0  0  0  0  0  0  0  0  0  0  0
   -4.9026   -4.5387    5.9019 H   0  0  0  0  0  0  0  0  0  0  0  0
   -5.7470   -6.1394    6.1250 H   0  0  0  0  0  0  0  0  0  0  0  0
   -5.9073   -4.8425    7.3684 H   0  0  0  0  0  0  0  0  0  0  0  0
   -3.7909   -6.4269    4.7083 H   0  0  0  0  0  0  0  0  0  0  0  0
   -3.0479   -5.0834    2.9831 H   0  0  0  0  0  0  0  0  0  0  0  0
   -6.3790   -3.2366    1.4512 H   0  0  0  0  0  0  0  0  0  0  0  0
   -3.7556    0.4301    4.5980 H   0  0  0  0  0  0  0  0  0  0  0  0
   -5.5333    0.2838    4.5257 H   0  0  0  0  0  0  0  0  0  0  0  0
   -4.7822    2.4951    3.6767 H   0  0  0  0  0  0  0  0  0  0  0  0
   -3.7562    1.6948    2.4277 H   0  0  0  0  0  0  0  0  0  0  0  0
   -5.5586    1.5495    2.3497 H   0  0  0  0  0  0  0  0  0  0  0  0
   -2.0992   -2.7555    1.4666 H   0  0  0  0  0  0  0  0  0  0  0  0
   -4.6828   -8.8332   -1.4893 H   0  0  0  0  0  0  0  0  0  0  0  0
   -2.6685  -11.6755   -4.7171 H   0  0  0  0  0  0  0  0  0  0  0  0
   -1.4531  -10.6686   -5.5499 H   0  0  0  0  0  0  0  0  0  0  0  0
   -3.2591   -9.5623   -6.8933 H   0  0  0  0  0  0  0  0  0  0  0  0
   -3.2910  -11.3568   -7.0895 H   0  0  0  0  0  0  0  0  0  0  0  0
   -4.5075  -10.5462   -6.0279 H   0  0  0  0  0  0  0  0  0  0  0  0
   -1.7207   -6.4047   -3.4560 H   0  0  0  0  0  0  0  0  0  0  0  0
   -4.0678   -5.3532   -4.0386 H   0  0  0  0  0  0  0  0  0  0  0  0
   -2.7825   -3.1245   -5.1657 H   0  0  0  0  0  0  0  0  0  0  0  0
   -0.1929   -0.5398   -4.7851 H   0  0  0  0  0  0  0  0  0  0  0  0
    2.9011   -3.9778   -5.9084 H   0  0  0  0  0  0  0  0  0  0  0  0
    2.2613   -4.7236   -7.3973 H   0  0  0  0  0  0  0  0  0  0  0  0
    3.7564   -2.0220   -7.2471 H   0  0  0  0  0  0  0  0  0  0  0  0
    4.4284   -3.5942   -7.8246 H   0  0  0  0  0  0  0  0  0  0  0  0
    3.1081   -2.7893   -8.7547 H   0  0  0  0  0  0  0  0  0  0  0  0
   -1.8042   -2.4434   -8.2951 H   0  0  0  0  0  0  0  0  0  0  0  0
   -4.8716    2.6260   -3.6962 H   0  0  0  0  0  0  0  0  0  0  0  0
   -9.8961    4.4223   -5.0090 H   0  0  0  0  0  0  0  0  0  0  0  0
   -8.9898    4.9819   -3.5766 H   0  0  0  0  0  0  0  0  0  0  0  0
  -11.0615    3.7773   -2.9163 H   0  0  0  0  0  0  0  0  0  0  0  0
  -10.5155    2.3028   -3.7980 H   0  0  0  0  0  0  0  0  0  0  0  0
   -9.6035    2.8778   -2.3448 H   0  0  0  0  0  0  0  0  0  0  0  0
   -7.1181    1.1387   -7.0576 H   0  0  0  0  0  0  0  0  0  0  0  0
   -3.9423    3.7093   -6.0274 H   0  0  0  0  0  0  0  0  0  0  0  0
   -2.6510    4.7800   -4.3010 H   0  0  0  0  0  0  0  0  0  0  0  0
   -1.5708    3.8526   -0.9878 H   0  0  0  0  0  0  0  0  0  0  0  0
   -6.6241    5.9878   -0.3764 H   0  0  0  0  0  0  0  0  0  0  0  0
   -6.1912    4.3237    0.0875 H   0  0  0  0  0  0  0  0  0  0  0  0
   -5.0420    5.1459    2.1424 H   0  0  0  0  0  0  0  0  0  0  0  0
   -6.7479    5.7286    2.0746 H   0  0  0  0  0  0  0  0  0  0  0  0
   -5.4005    6.8606    1.6670 H   0  0  0  0  0  0  0  0  0  0  0  0
   -2.7782    7.6748   -2.5580 H   0  0  0  0  0  0  0  0  0  0  0  0
    2.9716    7.5613   -5.5723 H   0  0  0  0  0  0  0  0  0  0  0  0
    7.1936    4.2248   -6.7256 H   0  0  0  0  0  0  0  0  0  0  0  0
    6.9504    5.8174   -7.4925 H   0  0  0  0  0  0  0  0  0  0  0  0
    7.8107    6.9600   -5.4217 H   0  0  0  0  0  0  0  0  0  0  0  0
    8.0705    5.3405   -4.6535 H   0  0  0  0  0  0  0  0  0  0  0  0
    9.0141    5.8094   -6.1190 H   0  0  0  0  0  0  0  0  0  0  0  0
    3.5350    3.7166   -3.7184 H   0  0  0  0  0  0  0  0  0  0  0  0
    3.8085    5.9264   -1.9089 H   0  0  0  0  0  0  0  0  0  0  0  0
    3.2797    3.5257   -0.0439 H   0  0  0  0  0  0  0  0  0  0  0  0
    3.3571    0.2739    2.5902 H   0  0  0  0  0  0  0  0  0  0  0  0
    2.5383   -1.9653   -1.5561 H   0  0  0  0  0  0  0  0  0  0  0  0
    3.7793   -1.3531   -2.6789 H   0  0  0  0  0  0  0  0  0  0  0  0
    4.2442   -3.7048   -2.1904 H   0  0  0  0  0  0  0  0  0  0  0  0
    5.5338   -2.7106   -1.4013 H   0  0  0  0  0  0  0  0  0  0  0  0
    4.1793   -3.4084   -0.4151 H   0  0  0  0  0  0  0  0  0  0  0  0
    5.7254    2.2829   -0.3930 H   0  0  0  0  0  0  0  0  0  0  0  0
    7.5198    6.0938    4.3342 H   0  0  0  0  0  0  0  0  0  0  0  0
    5.1969    9.6305    7.8792 H   0  0  0  0  0  0  0  0  0  0  0  0
    6.8323    9.8422    7.1979 H   0  0  0  0  0  0  0  0  0  0  0  0
    6.9137    9.3983    9.6472 H   0  0  0  0  0  0  0  0  0  0  0  0
    7.7291    8.0754    8.7304 H   0  0  0  0  0  0  0  0  0  0  0  0
    6.0701    7.8179    9.4081 H   0  0  0  0  0  0  0  0  0  0  0  0
    3.4361    5.8207    5.6695 H   0  0  0  0  0  0  0  0  0  0  0  0
    6.7643    3.7084    6.1617 H   0  0  0  0  0  0  0  0  0  0  0  0
    7.4359    1.1921    6.1051 H   0  0  0  0  0  0  0  0  0  0  0  0
  1  2  1  0
  2  3  1  0
  3  4  2  0
  4  5  1  0
  5  6  1  0
  6  7  2  0
  7  8  1  0
  8  9  1  0
  7 10  1  0
 10 11  1  0
 11 12  1  0
 10 13  2  0
  3 14  1  0
 14 15  1  0
 15 16  1  0
 16 17  2  0
 17 18  1  0
 18 19  1  0
 19 20  2  0
 20 21  1  0
 21 22  1  0
 20 23  1  0
 23 24  1  0
 24 25  1  0
 23 26  2  0
 16 27  1  0
 27 28  2  0
 28 29  1  0
 29 30  2  0
 30 31  1  0
 31 32  2  0
 32 33  1  0
 33 34  1  0
 33 35  2  0
 35 36  1  0
 36 37  1  0
 35 38  1  0
 38 39  1  0
 38 40  2  0
 30 41  1  0
 41 42  2  0
 42 43  1  0
 43 44  1  0
 44 45  2  0
 45 46  1  0
 46 47  2  0
 47 48  1  0
 48 49  1  0
 47 50  1  0
 50 51  2  0
 50 52  1  0
 46 53  1  0
 43 54  2  0
 54 55  1  0
 42 56  1  0
 56 57  2  0
 57 58  1  0
 57 59  1  0
 59 60  2  0
 60 61  1  0
 61 62  2  0
 62 63  1  0
 63 64  2  0
 64 65  1  0
 65 66  1  0
 65 67  2  0
 67 68  1  0
 68 69  1  0
 67 70  1  0
 70 71  1  0
 70 72  2  0
 62 73  1  0
 73 74  2  0
 74 75  1  0
 75 76  1  0
 76 77  2  0
 77 78  1  0
 78 79  2  0
 79 80  1  0
 80 81  1  0
 79 82  1  0
 82 83  2  0
 82 84  1  0
 78 85  1  0
 75 86  2  0
 86 87  1  0
 74 88  1  0
 88 89  2  0
 89 90  1  0
 89 91  1  0
 91 92  2  0
 92 93  1  0
 93 94  2  0
 94 95  1  0
 95 96  2  0
 96 97  1  0
 97 98  1  0
 97 99  2  0
 99100  1  0
100101  1  0
 99102  1  0
102103  1  0
102104  2  0
 94105  1  0
105106  2  0
106107  1  0
107108  1  0
108109  2  0
109110  1  0
110111  2  0
111112  1  0
112113  1  0
111114  1  0
114115  2  0
114116  1  0
110117  1  0
107118  2  0
118119  1  0
106120  1  0
120121  2  0
121122  1  0
121123  1  0
123124  2  0
124125  1  0
125126  2  0
126127  1  0
127128  2  0
128129  1  0
129130  1  0
129131  2  0
131132  1  0
132133  1  0
131134  1  0
134135  1  0
134136  2  0
126137  1  0
137138  2  0
138139  1  0
139140  1  0
140141  2  0
141142  1  0
142143  2  0
143144  1  0
144145  1  0
143146  1  0
146147  2  0
146148  1  0
142149  1  0
139150  2  0
150151  1  0
138152  1  0
152153  2  0
153154  1  0
  5  1  2  0
 18 14  2  0
 55 27  1  0
 87 59  1  0
119 91  1  0
151123  1  0
 13  4  1  0
 26 17  1  0
 54 29  1  0
 86 61  1  0
118 93  1  0
150125  1  0
 40 31  1  0
 58 41  1  0
 72 63  1  0
 90 73  1  0
104 95  1  0
122105  1  0
136127  1  0
154137  1  0
 51 44  1  0
 83 76  1  0
115108  1  0
147140  1  0
  1155  1  0
  6156  1  0
  9157  1  0
  9158  1  0
  9159  1  0
 12160  1  0
 12161  1  0
 12162  1  0
 13163  1  0
 19164  1  0
 22165  1  0
 22166  1  0
 22167  1  0
 25168  1  0
 25169  1  0
 25170  1  0
 26171  1  0
 28172  1  0
 32173  1  0
 36174  1  0
 36175  1  0
 37176  1  0
 37177  1  0
 37178  1  0
 40179  1  0
 45180  1  0
 48181  1  0
 48182  1  0
 49183  1  0
 49184  1  0
 49185  1  0
 51186  1  0
 56187  1  0
 60188  1  0
 64189  1  0
 68190  1  0
 68191  1  0
 69192  1  0
 69193  1  0
 69194  1  0
 72195  1  0
 77196  1  0
 80197  1  0
 80198  1  0
 81199  1  0
 81200  1  0
 81201  1  0
 83202  1  0
 88203  1  0
 92204  1  0
 96205  1  0
100206  1  0
100207  1  0
101208  1  0
101209  1  0
101210  1  0
104211  1  0
109212  1  0
112213  1  0
112214  1  0
113215  1  0
113216  1  0
113217  1  0
115218  1  0
120219  1  0
124220  1  0
128221  1  0
132222  1  0
132223  1  0
133224  1  0
133225  1  0
133226  1  0
136227  1  0
141228  1  0
144229  1  0
144230  1  0
145231  1  0
145232  1  0
145233  1  0
147234  1  0
152235  1  0
153236  1  0
M  END

