
     RDKit          3D

244267  0  0  0  0  0  0  0  0999 V2000
   -1.1269    7.0586   -7.6439 C   0  0  0  0  0  0  0  0  0  0  0  0
   -1.8105    7.6290   -6.2109 S   0  0  0  0  0  0  0  0  0  0  0  0
   -2.4752    6.1673   -5.6997 C   0  0  0  0  0  0  0  0  0  0  0  0
   -2.1386    5.1939   -6.6413 C   0  0  0  0  0  0  0  0  0  0  0  0
   -1.3898    5.6954   -7.7179 C   0  0  0  0  0  0  0  0  0  0  0  0
   -0.9258    4.8439   -8.7223 C   0  0  0  0  0  0  0  0  0  0  0  0
   -1.2002    3.4597   -8.6382 C   0  0  0  0  0  0  0  0  0  0  0  0
   -0.7367    2.5530   -9.6050 O   0  0  0  0  0  0  0  0  0  0  0  0
    0.1035    2.9018  -10.7008 C   0  0  0  0  0  0  0  0  0  0  0  0
   -1.9445    2.9509   -7.5536 C   0  0  0  0  0  0  0  0  0  0  0  0
   -2.1825    1.5680   -7.5005 O   0  0  0  0  0  0  0  0  0  0  0  0
   -2.9252    0.9166   -6.4735 C   0  0  0  0  0  0  0  0  0  0  0  0
   -2.4139    3.8239   -6.5500 C   0  0  0  0  0  0  0  0  0  0  0  0
   -3.1455    5.9412   -4.4147 C   0  0  0  0  0  0  0  0  0  0  0  0
   -4.3176    5.2135   -4.2396 C   0  0  0  0  0  0  0  0  0  0  0  0
   -4.5619    4.8831   -2.8988 C   0  0  0  0  0  0  0  0  0  0  0  0
   -5.6079    4.0686   -2.4209 C   0  0  0  0  0  0  0  0  0  0  0  0
   -6.5831    3.4282   -3.3275 C   0  0  0  0  0  0  0  0  0  0  0  0
   -6.1488    2.5199   -4.3043 C   0  0  0  0  0  0  0  0  0  0  0  0
   -7.0725    1.8911   -5.1406 C   0  0  0  0  0  0  0  0  0  0  0  0
   -8.4394    2.1619   -5.0104 C   0  0  0  0  0  0  0  0  0  0  0  0
   -9.6226    1.3291   -6.0750 S   0  0  0  0  0  0  0  0  0  0  0  0
   -9.7284    2.6814   -7.3024 C   0  0  0  0  0  0  0  0  0  0  0  0
   -8.5058    2.7071   -8.2105 C   0  0  0  0  0  0  0  0  0  0  0  0
   -8.8805    3.0530   -4.0208 C   0  0  0  0  0  0  0  0  0  0  0  0
  -10.2047    3.3126   -3.8685 F   0  0  0  0  0  0  0  0  0  0  0  0
   -7.9541    3.6872   -3.1859 C   0  0  0  0  0  0  0  0  0  0  0  0
   -5.6034    3.7724   -1.0472 C   0  0  0  0  0  0  0  0  0  0  0  0
   -4.6095    4.2344   -0.1778 C   0  0  0  0  0  0  0  0  0  0  0  0
   -3.5727    5.0649   -0.6530 C   0  0  0  0  0  0  0  0  0  0  0  0
   -2.4610    5.5017    0.2205 C   0  0  0  0  0  0  0  0  0  0  0  0
   -2.7150    6.3164    1.3329 C   0  0  0  0  0  0  0  0  0  0  0  0
   -1.6599    6.7502    2.1422 C   0  0  0  0  0  0  0  0  0  0  0  0
   -0.3431    6.3744    1.8461 C   0  0  0  0  0  0  0  0  0  0  0  0
    1.0046    6.9428    2.8878 S   0  0  0  0  0  0  0  0  0  0  0  0
    1.2013    8.5526    2.0466 C   0  0  0  0  0  0  0  0  0  0  0  0
    1.9764    8.4046    0.7430 C   0  0  0  0  0  0  0  0  0  0  0  0
   -0.0878    5.5380    0.7500 C   0  0  0  0  0  0  0  0  0  0  0  0
   -1.1428    5.1034   -0.0588 C   0  0  0  0  0  0  0  0  0  0  0  0
    1.1792    5.1460    0.4664 F   0  0  0  0  0  0  0  0  0  0  0  0
   -3.5873    5.3765   -2.0259 C   0  0  0  0  0  0  0  0  0  0  0  0
   -2.4256    6.2132   -2.9150 S   0  0  0  0  0  0  0  0  0  0  0  0
   -4.6780    3.6478    1.0968 C   0  0  0  0  0  0  0  0  0  0  0  0
   -5.7096    2.7122    1.2186 C   0  0  0  0  0  0  0  0  0  0  0  0
   -6.5486    2.6384   -0.2432 S   0  0  0  0  0  0  0  0  0  0  0  0
   -5.7894    1.6814    2.2677 C   0  0  0  0  0  0  0  0  0  0  0  0
   -6.5447    0.5121    2.1664 C   0  0  0  0  0  0  0  0  0  0  0  0
   -6.1136   -0.5005    3.0416 C   0  0  0  0  0  0  0  0  0  0  0  0
   -6.5105   -1.8547    2.9907 C   0  0  0  0  0  0  0  0  0  0  0  0
   -7.6397   -2.2962    2.1446 C   0  0  0  0  0  0  0  0  0  0  0  0
   -8.9286   -1.8012    2.3956 C   0  0  0  0  0  0  0  0  0  0  0  0
  -10.0110   -2.2225    1.6206 C   0  0  0  0  0  0  0  0  0  0  0  0
   -9.8182   -3.1483    0.5913 C   0  0  0  0  0  0  0  0  0  0  0  0
  -11.2270   -3.7155   -0.3695 S   0  0  0  0  0  0  0  0  0  0  0  0
  -11.7134   -5.0277    0.8098 C   0  0  0  0  0  0  0  0  0  0  0  0
  -10.8658   -6.2787    0.6252 C   0  0  0  0  0  0  0  0  0  0  0  0
   -8.5291   -3.6217    0.3122 C   0  0  0  0  0  0  0  0  0  0  0  0
   -8.3259   -4.4956   -0.7017 F   0  0  0  0  0  0  0  0  0  0  0  0
   -7.4429   -3.1937    1.0823 C   0  0  0  0  0  0  0  0  0  0  0  0
   -5.7345   -2.7701    3.7275 C   0  0  0  0  0  0  0  0  0  0  0  0
   -4.6645   -2.3674    4.5320 C   0  0  0  0  0  0  0  0  0  0  0  0
   -4.3101   -1.0074    4.6288 C   0  0  0  0  0  0  0  0  0  0  0  0
   -3.0635   -0.5838    5.2963 C   0  0  0  0  0  0  0  0  0  0  0  0
   -1.8218   -0.8451    4.6972 C   0  0  0  0  0  0  0  0  0  0  0  0
   -0.6411   -0.4577    5.3317 C   0  0  0  0  0  0  0  0  0  0  0  0
   -0.6891    0.1957    6.5672 C   0  0  0  0  0  0  0  0  0  0  0  0
    0.8441    0.6567    7.3868 S   0  0  0  0  0  0  0  0  0  0  0  0
    1.0176    2.2673    6.5370 C   0  0  0  0  0  0  0  0  0  0  0  0
    0.2929    3.3663    7.3025 C   0  0  0  0  0  0  0  0  0  0  0  0
   -1.9269    0.4513    7.1749 C   0  0  0  0  0  0  0  0  0  0  0  0
   -3.1116    0.0682    6.5376 C   0  0  0  0  0  0  0  0  0  0  0  0
   -1.9883    1.0525    8.3898 F   0  0  0  0  0  0  0  0  0  0  0  0
   -5.0483   -0.1022    3.8547 C   0  0  0  0  0  0  0  0  0  0  0  0
   -4.6287    1.4807    3.4764 S   0  0  0  0  0  0  0  0  0  0  0  0
   -3.8956   -3.4365    5.0123 C   0  0  0  0  0  0  0  0  0  0  0  0
   -4.2764   -4.6809    4.5003 C   0  0  0  0  0  0  0  0  0  0  0  0
   -5.6673   -4.4452    3.5637 S   0  0  0  0  0  0  0  0  0  0  0  0
   -3.2436   -5.6815    4.1721 C   0  0  0  0  0  0  0  0  0  0  0  0
   -2.9146   -5.9135    2.8351 C   0  0  0  0  0  0  0  0  0  0  0  0
   -1.5314   -5.9878    2.5974 C   0  0  0  0  0  0  0  0  0  0  0  0
   -0.9095   -5.8733    1.3374 C   0  0  0  0  0  0  0  0  0  0  0  0
   -1.6790   -5.7523    0.0782 C   0  0  0  0  0  0  0  0  0  0  0  0
   -2.5019   -4.6361   -0.1477 C   0  0  0  0  0  0  0  0  0  0  0  0
   -3.1456   -4.4734   -1.3760 C   0  0  0  0  0  0  0  0  0  0  0  0
   -2.9729   -5.4206   -2.3923 C   0  0  0  0  0  0  0  0  0  0  0  0
   -3.7692   -5.1818   -3.9842 S   0  0  0  0  0  0  0  0  0  0  0  0
   -5.2645   -6.1499   -3.5698 C   0  0  0  0  0  0  0  0  0  0  0  0
   -6.2945   -5.2819   -2.8614 C   0  0  0  0  0  0  0  0  0  0  0  0
   -2.1405   -6.5266   -2.1778 C   0  0  0  0  0  0  0  0  0  0  0  0
   -1.9429   -7.4368   -3.1631 F   0  0  0  0  0  0  0  0  0  0  0  0
   -1.4969   -6.6920   -0.9477 C   0  0  0  0  0  0  0  0  0  0  0  0
    0.4732   -5.6408    1.3350 C   0  0  0  0  0  0  0  0  0  0  0  0
    1.2286   -5.5341    2.5035 C   0  0  0  0  0  0  0  0  0  0  0  0
    0.6260   -5.7471    3.7606 C   0  0  0  0  0  0  0  0  0  0  0  0
    1.4036   -5.6229    5.0118 C   0  0  0  0  0  0  0  0  0  0  0  0
    2.4542   -6.5168    5.2694 C   0  0  0  0  0  0  0  0  0  0  0  0
    3.1752   -6.4302    6.4617 C   0  0  0  0  0  0  0  0  0  0  0  0
    2.8538   -5.4526    7.4100 C   0  0  0  0  0  0  0  0  0  0  0  0
    3.7603   -5.3668    8.9561 S   0  0  0  0  0  0  0  0  0  0  0  0
    2.8347   -6.7112    9.7815 C   0  0  0  0  0  0  0  0  0  0  0  0
    1.4256   -6.2771   10.1648 C   0  0  0  0  0  0  0  0  0  0  0  0
    1.8289   -4.5335    7.1414 C   0  0  0  0  0  0  0  0  0  0  0  0
    1.1115   -4.6137    5.9434 C   0  0  0  0  0  0  0  0  0  0  0  0
    1.5204   -3.5647    8.0405 F   0  0  0  0  0  0  0  0  0  0  0  0
   -0.7690   -5.9516    3.7691 C   0  0  0  0  0  0  0  0  0  0  0  0
   -1.8136   -5.7901    5.0744 S   0  0  0  0  0  0  0  0  0  0  0  0
    2.5157   -5.0040    2.2808 C   0  0  0  0  0  0  0  0  0  0  0  0
    2.7529   -4.6541    0.9480 C   0  0  0  0  0  0  0  0  0  0  0  0
    1.3952   -5.0896    0.0483 S   0  0  0  0  0  0  0  0  0  0  0  0
    3.9049   -3.8381    0.4787 C   0  0  0  0  0  0  0  0  0  0  0  0
    5.2415   -3.4901    1.4498 S   0  0  0  0  0  0  0  0  0  0  0  0
    6.0282   -2.4353    0.4047 C   0  0  0  0  0  0  0  0  0  0  0  0
    5.2572   -2.3478   -0.7603 C   0  0  0  0  0  0  0  0  0  0  0  0
    4.0586   -3.0916   -0.7138 C   0  0  0  0  0  0  0  0  0  0  0  0
    3.1427   -2.9802   -1.7760 C   0  0  0  0  0  0  0  0  0  0  0  0
    3.4313   -2.1518   -2.8805 C   0  0  0  0  0  0  0  0  0  0  0  0
    2.5163   -1.9684   -3.9316 O   0  0  0  0  0  0  0  0  0  0  0  0
    1.1883   -2.4836   -3.9460 C   0  0  0  0  0  0  0  0  0  0  0  0
    4.6613   -1.4754   -2.9479 C   0  0  0  0  0  0  0  0  0  0  0  0
    4.9177   -0.6676   -4.0679 O   0  0  0  0  0  0  0  0  0  0  0  0
    6.0549    0.1775   -4.2065 C   0  0  0  0  0  0  0  0  0  0  0  0
    5.5892   -1.6053   -1.9000 C   0  0  0  0  0  0  0  0  0  0  0  0
    7.1798   -1.5897    0.7872 C   0  0  0  0  0  0  0  0  0  0  0  0
    7.3986   -0.2786    0.3622 C   0  0  0  0  0  0  0  0  0  0  0  0
    8.5600    0.2889    0.8970 C   0  0  0  0  0  0  0  0  0  0  0  0
    9.0781    1.5592    0.5804 C   0  0  0  0  0  0  0  0  0  0  0  0
    8.4464    2.4088   -0.4453 C   0  0  0  0  0  0  0  0  0  0  0  0
    7.2691    3.1132   -0.1498 C   0  0  0  0  0  0  0  0  0  0  0  0
    6.6331    3.8585   -1.1460 C   0  0  0  0  0  0  0  0  0  0  0  0
    7.1742    3.9185   -2.4359 C   0  0  0  0  0  0  0  0  0  0  0  0
    6.3258    4.8583   -3.7069 S   0  0  0  0  0  0  0  0  0  0  0  0
    7.2990    6.3735   -3.4166 C   0  0  0  0  0  0  0  0  0  0  0  0
    6.6893    7.5419   -4.1815 C   0  0  0  0  0  0  0  0  0  0  0  0
    8.3563    3.2239   -2.7310 C   0  0  0  0  0  0  0  0  0  0  0  0
    8.8998    3.2862   -3.9706 F   0  0  0  0  0  0  0  0  0  0  0  0
    8.9920    2.4763   -1.7343 C   0  0  0  0  0  0  0  0  0  0  0  0
   10.2729    1.9325    1.2133 C   0  0  0  0  0  0  0  0  0  0  0  0
   10.9321    1.1023    2.1221 C   0  0  0  0  0  0  0  0  0  0  0  0
   10.4196   -0.1749    2.4296 C   0  0  0  0  0  0  0  0  0  0  0  0
   11.1091   -1.0823    3.3660 C   0  0  0  0  0  0  0  0  0  0  0  0
   10.5425   -1.3670    4.6157 C   0  0  0  0  0  0  0  0  0  0  0  0
   11.2100   -2.2025    5.5164 C   0  0  0  0  0  0  0  0  0  0  0  0
   12.4416   -2.7727    5.1676 C   0  0  0  0  0  0  0  0  0  0  0  0
   13.2929   -3.8348    6.3427 S   0  0  0  0  0  0  0  0  0  0  0  0
   12.3906   -5.3567    5.8827 C   0  0  0  0  0  0  0  0  0  0  0  0
   13.0619   -6.0497    4.7065 C   0  0  0  0  0  0  0  0  0  0  0  0
   13.0105   -2.4883    3.9175 C   0  0  0  0  0  0  0  0  0  0  0  0
   12.3457   -1.6457    3.0218 C   0  0  0  0  0  0  0  0  0  0  0  0
   14.2105   -3.0127    3.5730 F   0  0  0  0  0  0  0  0  0  0  0  0
    9.2246   -0.5535    1.7911 C   0  0  0  0  0  0  0  0  0  0  0  0
    8.3870   -2.0141    1.8907 S   0  0  0  0  0  0  0  0  0  0  0  0
   12.0922    1.6866    2.6548 C   0  0  0  0  0  0  0  0  0  0  0  0
   12.3398    2.9634    2.1553 C   0  0  0  0  0  0  0  0  0  0  0  0
   11.1250    3.3736    1.0588 S   0  0  0  0  0  0  0  0  0  0  0  0
   -0.5516    7.6431   -8.3515 H   0  0  0  0  0  0  0  0  0  0  0  0
   -0.3451    5.2517   -9.5387 H   0  0  0  0  0  0  0  0  0  0  0  0
   -0.4170    3.6188  -11.3683 H   0  0  0  0  0  0  0  0  0  0  0  0
    1.0509    3.3458  -10.3302 H   0  0  0  0  0  0  0  0  0  0  0  0
    0.3411    1.9864  -11.2803 H   0  0  0  0  0  0  0  0  0  0  0  0
   -2.4438    1.0896   -5.4849 H   0  0  0  0  0  0  0  0  0  0  0  0
   -2.9331   -0.1757   -6.6711 H   0  0  0  0  0  0  0  0  0  0  0  0
   -3.9716    1.2867   -6.4673 H   0  0  0  0  0  0  0  0  0  0  0  0
   -2.9612    3.4385   -5.7008 H   0  0  0  0  0  0  0  0  0  0  0  0
   -4.9344    4.8882   -5.0678 H   0  0  0  0  0  0  0  0  0  0  0  0
   -5.0942    2.2911   -4.4089 H   0  0  0  0  0  0  0  0  0  0  0  0
   -6.7272    1.1937   -5.8942 H   0  0  0  0  0  0  0  0  0  0  0  0
  -10.6295    2.5074   -7.9266 H   0  0  0  0  0  0  0  0  0  0  0  0
   -9.8483    3.6613   -6.7934 H   0  0  0  0  0  0  0  0  0  0  0  0
   -8.6684    3.4359   -9.0339 H   0  0  0  0  0  0  0  0  0  0  0  0
   -7.6096    3.0272   -7.6424 H   0  0  0  0  0  0  0  0  0  0  0  0
   -8.3265    1.7031   -8.6469 H   0  0  0  0  0  0  0  0  0  0  0  0
   -8.3014    4.3765   -2.4260 H   0  0  0  0  0  0  0  0  0  0  0  0
   -3.7275    6.6213    1.5675 H   0  0  0  0  0  0  0  0  0  0  0  0
   -1.8665    7.3854    2.9948 H   0  0  0  0  0  0  0  0  0  0  0  0
    1.7646    9.2303    2.7209 H   0  0  0  0  0  0  0  0  0  0  0  0
    0.2100    9.0153    1.8507 H   0  0  0  0  0  0  0  0  0  0  0  0
    1.3868    7.8336   -0.0023 H   0  0  0  0  0  0  0  0  0  0  0  0
    2.1887    9.4075    0.3210 H   0  0  0  0  0  0  0  0  0  0  0  0
    2.9393    7.8851    0.9266 H   0  0  0  0  0  0  0  0  0  0  0  0
   -0.9333    4.4558   -0.8989 H   0  0  0  0  0  0  0  0  0  0  0  0
   -3.9311    3.8021    1.8679 H   0  0  0  0  0  0  0  0  0  0  0  0
   -7.2786    0.3521    1.3898 H   0  0  0  0  0  0  0  0  0  0  0  0
   -9.0935   -1.1001    3.2048 H   0  0  0  0  0  0  0  0  0  0  0  0
  -11.0006   -1.8421    1.8337 H   0  0  0  0  0  0  0  0  0  0  0  0
  -12.7742   -5.2884    0.6193 H   0  0  0  0  0  0  0  0  0  0  0  0
  -11.6361   -4.6652    1.8564 H   0  0  0  0  0  0  0  0  0  0  0  0
  -11.2600   -7.0897    1.2740 H   0  0  0  0  0  0  0  0  0  0  0  0
  -10.9047   -6.6155   -0.4306 H   0  0  0  0  0  0  0  0  0  0  0  0
   -9.8132   -6.0819    0.9148 H   0  0  0  0  0  0  0  0  0  0  0  0
   -6.4492   -3.5579    0.8461 H   0  0  0  0  0  0  0  0  0  0  0  0
   -1.7743   -1.3563    3.7435 H   0  0  0  0  0  0  0  0  0  0  0  0
    0.3106   -0.6726    4.8640 H   0  0  0  0  0  0  0  0  0  0  0  0
    0.6398    2.2160    5.4927 H   0  0  0  0  0  0  0  0  0  0  0  0
    2.0980    2.5172    6.4940 H   0  0  0  0  0  0  0  0  0  0  0  0
   -0.8000    3.1754    7.3126 H   0  0  0  0  0  0  0  0  0  0  0  0
    0.4718    4.3439    6.8067 H   0  0  0  0  0  0  0  0  0  0  0  0
    0.6721    3.4211    8.3451 H   0  0  0  0  0  0  0  0  0  0  0  0
   -4.0662    0.2646    7.0148 H   0  0  0  0  0  0  0  0  0  0  0  0
   -2.9682   -3.2851    5.5466 H   0  0  0  0  0  0  0  0  0  0  0  0
   -3.6358   -5.8006    2.0365 H   0  0  0  0  0  0  0  0  0  0  0  0
   -2.6227   -3.8801    0.6207 H   0  0  0  0  0  0  0  0  0  0  0  0
   -3.7724   -3.6071   -1.5411 H   0  0  0  0  0  0  0  0  0  0  0  0
   -5.0063   -7.0298   -2.9411 H   0  0  0  0  0  0  0  0  0  0  0  0
   -5.7063   -6.5234   -4.5179 H   0  0  0  0  0  0  0  0  0  0  0  0
   -7.2090   -5.8814   -2.6657 H   0  0  0  0  0  0  0  0  0  0  0  0
   -6.5638   -4.4157   -3.4997 H   0  0  0  0  0  0  0  0  0  0  0  0
   -5.8969   -4.9162   -1.8924 H   0  0  0  0  0  0  0  0  0  0  0  0
   -0.8401   -7.5394   -0.7983 H   0  0  0  0  0  0  0  0  0  0  0  0
    2.6988   -7.2929    4.5550 H   0  0  0  0  0  0  0  0  0  0  0  0
    3.9708   -7.1357    6.6606 H   0  0  0  0  0  0  0  0  0  0  0  0
    2.7918   -7.6102    9.1308 H   0  0  0  0  0  0  0  0  0  0  0  0
    3.3841   -6.9857   10.7050 H   0  0  0  0  0  0  0  0  0  0  0  0
    0.8034   -6.1334    9.2584 H   0  0  0  0  0  0  0  0  0  0  0  0
    0.9500   -7.0650   10.7842 H   0  0  0  0  0  0  0  0  0  0  0  0
    1.4558   -5.3339   10.7495 H   0  0  0  0  0  0  0  0  0  0  0  0
    0.3275   -3.8908    5.7443 H   0  0  0  0  0  0  0  0  0  0  0  0
    3.2055   -4.7681    3.0807 H   0  0  0  0  0  0  0  0  0  0  0  0
    2.2069   -3.4972   -1.7627 H   0  0  0  0  0  0  0  0  0  0  0  0
    0.6704   -2.1371   -4.8672 H   0  0  0  0  0  0  0  0  0  0  0  0
    0.6242   -2.1112   -3.0654 H   0  0  0  0  0  0  0  0  0  0  0  0
    1.2090   -3.5937   -3.9465 H   0  0  0  0  0  0  0  0  0  0  0  0
    5.9666    0.7470   -5.1551 H   0  0  0  0  0  0  0  0  0  0  0  0
    6.1014    0.9006   -3.3613 H   0  0  0  0  0  0  0  0  0  0  0  0
    6.9841   -0.4308   -4.2415 H   0  0  0  0  0  0  0  0  0  0  0  0
    6.5591   -1.1440   -1.9874 H   0  0  0  0  0  0  0  0  0  0  0  0
    6.7277    0.2652   -0.2850 H   0  0  0  0  0  0  0  0  0  0  0  0
    6.8426    3.0750    0.8474 H   0  0  0  0  0  0  0  0  0  0  0  0
    5.7207    4.3924   -0.9089 H   0  0  0  0  0  0  0  0  0  0  0  0
    8.3402    6.2025   -3.7633 H   0  0  0  0  0  0  0  0  0  0  0  0
    7.3162    6.6178   -2.3322 H   0  0  0  0  0  0  0  0  0  0  0  0
    5.7533    7.8684   -3.6850 H   0  0  0  0  0  0  0  0  0  0  0  0
    7.4001    8.3927   -4.1910 H   0  0  0  0  0  0  0  0  0  0  0  0
    6.4655    7.2522   -5.2288 H   0  0  0  0  0  0  0  0  0  0  0  0
    9.9023    1.9350   -1.9698 H   0  0  0  0  0  0  0  0  0  0  0  0
    9.5939   -0.9237    4.9016 H   0  0  0  0  0  0  0  0  0  0  0  0
   10.7679   -2.4083    6.4843 H   0  0  0  0  0  0  0  0  0  0  0  0
   12.4010   -6.0453    6.7534 H   0  0  0  0  0  0  0  0  0  0  0  0
   11.3285   -5.1347    5.6413 H   0  0  0  0  0  0  0  0  0  0  0  0
   13.0325   -5.4014    3.8073 H   0  0  0  0  0  0  0  0  0  0  0  0
   12.5282   -6.9945    4.4778 H   0  0  0  0  0  0  0  0  0  0  0  0
   14.1170   -6.2876    4.9568 H   0  0  0  0  0  0  0  0  0  0  0  0
   12.7955   -1.4247    2.0612 H   0  0  0  0  0  0  0  0  0  0  0  0
   12.7359    1.2077    3.3814 H   0  0  0  0  0  0  0  0  0  0  0  0
   13.1769    3.5913    2.4228 H   0  0  0  0  0  0  0  0  0  0  0  0
  1  2  1  0
  2  3  1  0
  3  4  2  0
  4  5  1  0
  5  6  1  0
  6  7  2  0
  7  8  1  0
  8  9  1  0
  7 10  1  0
 10 11  1  0
 11 12  1  0
 10 13  2  0
  3 14  1  0
 14 15  2  0
 15 16  1  0
 16 17  2  0
 17 18  1  0
 18 19  2  0
 19 20  1  0
 20 21  2  0
 21 22  1  0
 22 23  1  0
 23 24  1  0
 21 25  1  0
 25 26  1  0
 25 27  2  0
 17 28  1  0
 28 29  2  0
 29 30  1  0
 30 31  1  0
 31 32  2  0
 32 33  1  0
 33 34  2  0
 34 35  1  0
 35 36  1  0
 36 37  1  0
 34 38  1  0
 38 39  2  0
 38 40  1  0
 30 41  2  0
 41 42  1  0
 29 43  1  0
 43 44  2  0
 44 45  1  0
 44 46  1  0
 46 47  2  0
 47 48  1  0
 48 49  2  0
 49 50  1  0
 50 51  2  0
 51 52  1  0
 52 53  2  0
 53 54  1  0
 54 55  1  0
 55 56  1  0
 53 57  1  0
 57 58  1  0
 57 59  2  0
 49 60  1  0
 60 61  2  0
 61 62  1  0
 62 63  1  0
 63 64  2  0
 64 65  1  0
 65 66  2  0
 66 67  1  0
 67 68  1  0
 68 69  1  0
 66 70  1  0
 70 71  2  0
 70 72  1  0
 62 73  2  0
 73 74  1  0
 61 75  1  0
 75 76  2  0
 76 77  1  0
 76 78  1  0
 78 79  2  0
 79 80  1  0
 80 81  2  0
 81 82  1  0
 82 83  2  0
 83 84  1  0
 84 85  2  0
 85 86  1  0
 86 87  1  0
 87 88  1  0
 85 89  1  0
 89 90  1  0
 89 91  2  0
 81 92  1  0
 92 93  2  0
 93 94  1  0
 94 95  1  0
 95 96  2  0
 96 97  1  0
 97 98  2  0
 98 99  1  0
 99100  1  0
100101  1  0
 98102  1  0
102103  2  0
102104  1  0
 94105  2  0
105106  1  0
 93107  1  0
107108  2  0
108109  1  0
108110  1  0
110111  1  0
111112  1  0
112113  2  0
113114  1  0
114115  1  0
115116  2  0
116117  1  0
117118  1  0
116119  1  0
119120  1  0
120121  1  0
119122  2  0
112123  1  0
123124  2  0
124125  1  0
125126  2  0
126127  1  0
127128  2  0
128129  1  0
129130  2  0
130131  1  0
131132  1  0
132133  1  0
130134  1  0
134135  1  0
134136  2  0
126137  1  0
137138  2  0
138139  1  0
139140  1  0
140141  2  0
141142  1  0
142143  2  0
143144  1  0
144145  1  0
145146  1  0
143147  1  0
147148  2  0
147149  1  0
139150  2  0
150151  1  0
138152  1  0
152153  2  0
153154  1  0
  5  1  2  0
 42 14  1  0
 74 46  1  0
106 78  1  0
114110  2  0
151123  1  0
 13  4  1  0
 41 16  1  0
 73 48  1  0
105 80  1  0
122113  1  0
150125  1  0
 27 18  1  0
 45 28  1  0
 59 50  1  0
 77 60  1  0
 91 82  1  0
109 92  1  0
136127  1  0
154137  1  0
 39 31  1  0
 71 63  1  0
103 95  1  0
148140  1  0
  1155  1  0
  6156  1  0
  9157  1  0
  9158  1  0
  9159  1  0
 12160  1  0
 12161  1  0
 12162  1  0
 13163  1  0
 15164  1  0
 19165  1  0
 20166  1  0
 23167  1  0
 23168  1  0
 24169  1  0
 24170  1  0
 24171  1  0
 27172  1  0
 32173  1  0
 33174  1  0
 36175  1  0
 36176  1  0
 37177  1  0
 37178  1  0
 37179  1  0
 39180  1  0
 43181  1  0
 47182  1  0
 51183  1  0
 52184  1  0
 55185  1  0
 55186  1  0
 56187  1  0
 56188  1  0
 56189  1  0
 59190  1  0
 64191  1  0
 65192  1  0
 68193  1  0
 68194  1  0
 69195  1  0
 69196  1  0
 69197  1  0
 71198  1  0
 75199  1  0
 79200  1  0
 83201  1  0
 84202  1  0
 87203  1  0
 87204  1  0
 88205  1  0
 88206  1  0
 88207  1  0
 91208  1  0
 96209  1  0
 97210  1  0
100211  1  0
100212  1  0
101213  1  0
101214  1  0
101215  1  0
103216  1  0
107217  1  0
115218  1  0
118219  1  0
118220  1  0
118221  1  0
121222  1  0
121223  1  0
121224  1  0
122225  1  0
124226  1  0
128227  1  0
129228  1  0
132229  1  0
132230  1  0
133231  1  0
133232  1  0
133233  1  0
136234  1  0
141235  1  0
142236  1  0
145237  1  0
145238  1  0
146239  1  0
146240  1  0
146241  1  0
148242  1  0
152243  1  0
153244  1  0
M  END

