
     RDKit          3D

 98104  0  0  0  0  0  0  0  0999 V2000
    7.6470   -0.0745    7.4002 C   0  0  0  0  0  0  0  0  0  0  0  0
    7.7053   -0.3336    5.7469 S   0  0  0  0  0  0  0  0  0  0  0  0
    6.0460   -0.3206    5.4680 C   0  0  0  0  0  0  0  0  0  0  0  0
    5.4073   -0.1032    6.6900 C   0  0  0  0  0  0  0  0  0  0  0  0
    6.3073    0.0412    7.7720 C   0  0  0  0  0  0  0  0  0  0  0  0
    5.8867    0.2754    9.0866 O   0  0  0  0  0  0  0  0  0  0  0  0
    6.7824    0.4969   10.1703 C   0  0  0  0  0  0  0  0  0  0  0  0
    4.0115   -0.0079    6.7774 O   0  0  0  0  0  0  0  0  0  0  0  0
    3.2881    0.3574    7.9495 C   0  0  0  0  0  0  0  0  0  0  0  0
    5.3997   -0.4537    4.1434 C   0  0  0  0  0  0  0  0  0  0  0  0
    3.7797   -0.8500    3.8838 S   0  0  0  0  0  0  0  0  0  0  0  0
    3.8086   -0.7313    2.2085 C   0  0  0  0  0  0  0  0  0  0  0  0
    5.0782   -0.3006    1.8199 C   0  0  0  0  0  0  0  0  0  0  0  0
    5.9882   -0.2173    2.8972 C   0  0  0  0  0  0  0  0  0  0  0  0
    7.3420    0.0776    2.7370 O   0  0  0  0  0  0  0  0  0  0  0  0
    8.2797   -0.9354    2.3868 C   0  0  0  0  0  0  0  0  0  0  0  0
    5.3475    0.0780    0.4954 O   0  0  0  0  0  0  0  0  0  0  0  0
    6.4548    0.8666    0.0743 C   0  0  0  0  0  0  0  0  0  0  0  0
    2.6285   -0.8869    1.3340 C   0  0  0  0  0  0  0  0  0  0  0  0
    1.1051   -0.2780    1.6794 S   0  0  0  0  0  0  0  0  0  0  0  0
    0.3646   -0.6208    0.1998 C   0  0  0  0  0  0  0  0  0  0  0  0
    1.3411   -1.2397   -0.6073 C   0  0  0  0  0  0  0  0  0  0  0  0
    2.5839   -1.4100    0.0408 C   0  0  0  0  0  0  0  0  0  0  0  0
    3.6299   -2.0907   -0.5884 C   0  0  0  0  0  0  0  0  0  0  0  0
    3.4757   -2.5311   -1.9145 C   0  0  0  0  0  0  0  0  0  0  0  0
    4.5046   -3.2058   -2.5913 O   0  0  0  0  0  0  0  0  0  0  0  0
    5.7550   -3.5675   -2.0119 C   0  0  0  0  0  0  0  0  0  0  0  0
    2.2707   -2.2934   -2.5996 C   0  0  0  0  0  0  0  0  0  0  0  0
    2.1748   -2.7201   -3.9343 O   0  0  0  0  0  0  0  0  0  0  0  0
    1.0222   -2.5523   -4.7580 C   0  0  0  0  0  0  0  0  0  0  0  0
    1.2020   -1.6492   -1.9422 C   0  0  0  0  0  0  0  0  0  0  0  0
   -1.0645   -0.3219   -0.0997 C   0  0  0  0  0  0  0  0  0  0  0  0
   -1.9862   -0.9730   -1.3519 S   0  0  0  0  0  0  0  0  0  0  0  0
   -3.4245   -0.1878   -1.0070 C   0  0  0  0  0  0  0  0  0  0  0  0
   -3.2173    0.6224    0.1127 C   0  0  0  0  0  0  0  0  0  0  0  0
   -1.9046    0.5289    0.6355 C   0  0  0  0  0  0  0  0  0  0  0  0
   -1.4394    1.2295    1.7611 O   0  0  0  0  0  0  0  0  0  0  0  0
   -2.2333    2.0464    2.6101 C   0  0  0  0  0  0  0  0  0  0  0  0
   -4.1965    1.4580    0.6547 O   0  0  0  0  0  0  0  0  0  0  0  0
   -4.7310    2.5641   -0.0620 C   0  0  0  0  0  0  0  0  0  0  0  0
   -4.6579   -0.3269   -1.7954 C   0  0  0  0  0  0  0  0  0  0  0  0
   -4.7162   -0.1698   -3.4677 S   0  0  0  0  0  0  0  0  0  0  0  0
   -6.3941   -0.2206   -3.6132 C   0  0  0  0  0  0  0  0  0  0  0  0
   -6.9403   -0.3744   -2.3373 C   0  0  0  0  0  0  0  0  0  0  0  0
   -5.9663   -0.4432   -1.3179 C   0  0  0  0  0  0  0  0  0  0  0  0
   -6.2940   -0.5920    0.0313 O   0  0  0  0  0  0  0  0  0  0  0  0
   -5.7992   -1.6697    0.8218 C   0  0  0  0  0  0  0  0  0  0  0  0
   -8.3234   -0.4826   -2.1347 O   0  0  0  0  0  0  0  0  0  0  0  0
   -8.9188   -1.1825   -1.0420 C   0  0  0  0  0  0  0  0  0  0  0  0
   -7.1444   -0.1240   -4.8824 C   0  0  0  0  0  0  0  0  0  0  0  0
   -8.7363    0.3953   -5.0258 S   0  0  0  0  0  0  0  0  0  0  0  0
   -8.8544    0.2518   -6.6919 C   0  0  0  0  0  0  0  0  0  0  0  0
   -7.6354   -0.2240   -7.1746 C   0  0  0  0  0  0  0  0  0  0  0  0
   -6.6698   -0.4300   -6.1595 C   0  0  0  0  0  0  0  0  0  0  0  0
   -5.3666   -0.9059   -6.3611 O   0  0  0  0  0  0  0  0  0  0  0  0
   -4.7660   -1.1165   -7.6353 C   0  0  0  0  0  0  0  0  0  0  0  0
   -7.3946   -0.4902   -8.5272 O   0  0  0  0  0  0  0  0  0  0  0  0
   -8.3753   -0.3412   -9.5489 C   0  0  0  0  0  0  0  0  0  0  0  0
    8.5003   -0.0088    8.0602 H   0  0  0  0  0  0  0  0  0  0  0  0
    7.4232    1.3786    9.9612 H   0  0  0  0  0  0  0  0  0  0  0  0
    7.4101   -0.4037   10.3404 H   0  0  0  0  0  0  0  0  0  0  0  0
    6.1955    0.6985   11.0878 H   0  0  0  0  0  0  0  0  0  0  0  0
    2.2052    0.3856    7.7113 H   0  0  0  0  0  0  0  0  0  0  0  0
    3.5952    1.3635    8.2903 H   0  0  0  0  0  0  0  0  0  0  0  0
    3.4522   -0.3875    8.7505 H   0  0  0  0  0  0  0  0  0  0  0  0
    7.9277   -1.5116    1.5087 H   0  0  0  0  0  0  0  0  0  0  0  0
    9.2482   -0.4585    2.1365 H   0  0  0  0  0  0  0  0  0  0  0  0
    8.4199   -1.6346    3.2366 H   0  0  0  0  0  0  0  0  0  0  0  0
    6.5692    1.7595    0.7336 H   0  0  0  0  0  0  0  0  0  0  0  0
    7.3815    0.2548    0.0703 H   0  0  0  0  0  0  0  0  0  0  0  0
    6.2724    1.2145   -0.9660 H   0  0  0  0  0  0  0  0  0  0  0  0
    4.5467   -2.2833   -0.0497 H   0  0  0  0  0  0  0  0  0  0  0  0
    6.3786   -4.0665   -2.7776 H   0  0  0  0  0  0  0  0  0  0  0  0
    6.2959   -2.6640   -1.6606 H   0  0  0  0  0  0  0  0  0  0  0  0
    5.5928   -4.2714   -1.1706 H   0  0  0  0  0  0  0  0  0  0  0  0
    0.7802   -1.4700   -4.8648 H   0  0  0  0  0  0  0  0  0  0  0  0
    1.2300   -2.9685   -5.7667 H   0  0  0  0  0  0  0  0  0  0  0  0
    0.1566   -3.0928   -4.3175 H   0  0  0  0  0  0  0  0  0  0  0  0
    0.2986   -1.4632   -2.4872 H   0  0  0  0  0  0  0  0  0  0  0  0
   -1.6075    2.4044    3.4561 H   0  0  0  0  0  0  0  0  0  0  0  0
   -2.6067    2.9255    2.0508 H   0  0  0  0  0  0  0  0  0  0  0  0
   -3.0742    1.4642    3.0294 H   0  0  0  0  0  0  0  0  0  0  0  0
   -5.4472    3.1101    0.5878 H   0  0  0  0  0  0  0  0  0  0  0  0
   -3.9124    3.2576   -0.3490 H   0  0  0  0  0  0  0  0  0  0  0  0
   -5.2682    2.2228   -0.9710 H   0  0  0  0  0  0  0  0  0  0  0  0
   -6.2286   -1.5972    1.8385 H   0  0  0  0  0  0  0  0  0  0  0  0
   -4.7000   -1.6306    0.9020 H   0  0  0  0  0  0  0  0  0  0  0  0
   -6.1017   -2.6369    0.3710 H   0  0  0  0  0  0  0  0  0  0  0  0
   -8.4532   -2.1864   -0.9324 H   0  0  0  0  0  0  0  0  0  0  0  0
   -8.8043   -0.5933   -0.1048 H   0  0  0  0  0  0  0  0  0  0  0  0
  -10.0033   -1.3078   -1.2352 H   0  0  0  0  0  0  0  0  0  0  0  0
   -9.7354    0.4867   -7.2783 H   0  0  0  0  0  0  0  0  0  0  0  0
   -5.2989   -1.9161   -8.1891 H   0  0  0  0  0  0  0  0  0  0  0  0
   -4.7654   -0.1766   -8.2250 H   0  0  0  0  0  0  0  0  0  0  0  0
   -3.7183   -1.4393   -7.4854 H   0  0  0  0  0  0  0  0  0  0  0  0
   -8.6823    0.7221   -9.6228 H   0  0  0  0  0  0  0  0  0  0  0  0
   -7.9418   -0.6609  -10.5197 H   0  0  0  0  0  0  0  0  0  0  0  0
   -9.2575   -0.9820   -9.3292 H   0  0  0  0  0  0  0  0  0  0  0  0
  1  2  1  0
  2  3  1  0
  3  4  2  0
  4  5  1  0
  5  6  1  0
  6  7  1  0
  4  8  1  0
  8  9  1  0
  3 10  1  0
 10 11  1  0
 11 12  1  0
 12 13  2  0
 13 14  1  0
 14 15  1  0
 15 16  1  0
 13 17  1  0
 17 18  1  0
 12 19  1  0
 19 20  1  0
 20 21  1  0
 21 22  2  0
 22 23  1  0
 23 24  1  0
 24 25  2  0
 25 26  1  0
 26 27  1  0
 25 28  1  0
 28 29  1  0
 29 30  1  0
 28 31  2  0
 21 32  1  0
 32 33  1  0
 33 34  1  0
 34 35  2  0
 35 36  1  0
 36 37  1  0
 37 38  1  0
 35 39  1  0
 39 40  1  0
 34 41  1  0
 41 42  1  0
 42 43  1  0
 43 44  2  0
 44 45  1  0
 45 46  1  0
 46 47  1  0
 44 48  1  0
 48 49  1  0
 43 50  1  0
 50 51  1  0
 51 52  1  0
 52 53  2  0
 53 54  1  0
 54 55  1  0
 55 56  1  0
 53 57  1  0
 57 58  1  0
  5  1  2  0
 14 10  2  0
 23 19  2  0
 36 32  2  0
 45 41  2  0
 54 50  2  0
 31 22  1  0
  1 59  1  0
  7 60  1  0
  7 61  1  0
  7 62  1  0
  9 63  1  0
  9 64  1  0
  9 65  1  0
 16 66  1  0
 16 67  1  0
 16 68  1  0
 18 69  1  0
 18 70  1  0
 18 71  1  0
 24 72  1  0
 27 73  1  0
 27 74  1  0
 27 75  1  0
 30 76  1  0
 30 77  1  0
 30 78  1  0
 31 79  1  0
 38 80  1  0
 38 81  1  0
 38 82  1  0
 40 83  1  0
 40 84  1  0
 40 85  1  0
 47 86  1  0
 47 87  1  0
 47 88  1  0
 49 89  1  0
 49 90  1  0
 49 91  1  0
 52 92  1  0
 56 93  1  0
 56 94  1  0
 56 95  1  0
 58 96  1  0
 58 97  1  0
 58 98  1  0
M  END

