
     RDKit          3D

 98104  0  0  0  0  0  0  0  0999 V2000
    4.6487   -1.3548    5.0266 N   0  0  0  0  0  0  0  0  0  0  0  0
    3.4053   -0.8247    5.4960 C   0  0  0  0  0  0  0  0  0  0  0  0
    3.3483    0.0332    6.5908 C   0  0  0  0  0  0  0  0  0  0  0  0
    1.7417    0.4673    6.8334 S   0  0  0  0  0  0  0  0  0  0  0  0
    1.0945   -0.4285    5.5703 C   0  0  0  0  0  0  0  0  0  0  0  0
    2.1406   -1.0914    4.9206 C   0  0  0  0  0  0  0  0  0  0  0  0
    1.9434   -1.9195    3.7612 N   0  0  0  0  0  0  0  0  0  0  0  0
    0.6381   -2.1854    3.2290 C   0  0  0  0  0  0  0  0  0  0  0  0
    0.3571   -2.1612    1.9201 C   0  0  0  0  0  0  0  0  0  0  0  0
    1.2673   -1.7063    0.8377 C   0  0  0  0  0  0  0  0  0  0  0  0
    2.7127   -0.8454    1.0269 S   0  0  0  0  0  0  0  0  0  0  0  0
    3.0300   -0.6011   -0.6013 C   0  0  0  0  0  0  0  0  0  0  0  0
    1.9623   -1.1226   -1.3371 C   0  0  0  0  0  0  0  0  0  0  0  0
    0.9882   -1.7512   -0.5360 C   0  0  0  0  0  0  0  0  0  0  0  0
   -0.1529   -2.3147   -1.1247 C   0  0  0  0  0  0  0  0  0  0  0  0
   -0.3397   -2.2158   -2.5186 C   0  0  0  0  0  0  0  0  0  0  0  0
   -1.4754   -2.7428   -3.1532 O   0  0  0  0  0  0  0  0  0  0  0  0
   -2.5574   -3.3797   -2.4837 C   0  0  0  0  0  0  0  0  0  0  0  0
    0.6210   -1.5633   -3.3142 C   0  0  0  0  0  0  0  0  0  0  0  0
    0.4040   -1.4975   -4.7013 O   0  0  0  0  0  0  0  0  0  0  0  0
    1.3003   -0.8944   -5.6315 C   0  0  0  0  0  0  0  0  0  0  0  0
    1.7648   -0.9986   -2.7154 C   0  0  0  0  0  0  0  0  0  0  0  0
    4.1475    0.1572   -1.0847 N   0  0  0  0  0  0  0  0  0  0  0  0
    4.8185   -0.0820   -2.3255 C   0  0  0  0  0  0  0  0  0  0  0  0
    5.0619   -1.3495   -2.8475 C   0  0  0  0  0  0  0  0  0  0  0  0
    5.8456   -1.1312   -4.3250 S   0  0  0  0  0  0  0  0  0  0  0  0
    5.8957    0.5510   -4.3109 C   0  0  0  0  0  0  0  0  0  0  0  0
    5.2989    0.9628   -3.1294 C   0  0  0  0  0  0  0  0  0  0  0  0
    5.0459    2.3321   -2.8215 N   0  0  0  0  0  0  0  0  0  0  0  0
    3.7391    2.8603   -3.0476 C   0  0  0  0  0  0  0  0  0  0  0  0
    3.2860    3.9008   -2.3449 C   0  0  0  0  0  0  0  0  0  0  0  0
    1.9355    4.3460   -2.4960 N   0  0  0  0  0  0  0  0  0  0  0  0
    1.2396    5.0694   -1.4665 C   0  0  0  0  0  0  0  0  0  0  0  0
    1.8668    5.8217   -0.4708 C   0  0  0  0  0  0  0  0  0  0  0  0
    0.6767    6.4139    0.5613 S   0  0  0  0  0  0  0  0  0  0  0  0
   -0.6385    5.7187   -0.2190 C   0  0  0  0  0  0  0  0  0  0  0  0
   -0.1576    5.0129   -1.3174 C   0  0  0  0  0  0  0  0  0  0  0  0
   -1.0120    4.2867   -2.2098 N   0  0  0  0  0  0  0  0  0  0  0  0
   -1.9962    3.3349   -1.7814 C   0  0  0  0  0  0  0  0  0  0  0  0
   -1.9496    2.7361   -0.5872 C   0  0  0  0  0  0  0  0  0  0  0  0
   -2.9168    1.7267   -0.2448 N   0  0  0  0  0  0  0  0  0  0  0  0
   -2.8984    1.0195    1.0046 C   0  0  0  0  0  0  0  0  0  0  0  0
   -1.7552    0.8672    1.7861 C   0  0  0  0  0  0  0  0  0  0  0  0
   -2.1647   -0.0524    3.1246 S   0  0  0  0  0  0  0  0  0  0  0  0
   -3.7783   -0.2903    2.7327 C   0  0  0  0  0  0  0  0  0  0  0  0
   -4.0334    0.3632    1.5344 C   0  0  0  0  0  0  0  0  0  0  0  0
   -5.3369    0.4041    0.9272 N   0  0  0  0  0  0  0  0  0  0  0  0
   -6.4241   -0.4459    1.3242 C   0  0  0  0  0  0  0  0  0  0  0  0
   -6.4010   -1.7772    1.1762 C   0  0  0  0  0  0  0  0  0  0  0  0
   -5.2805   -2.4760    0.6168 N   0  0  0  0  0  0  0  0  0  0  0  0
   -5.3545   -3.8792    0.3203 C   0  0  0  0  0  0  0  0  0  0  0  0
   -6.5032   -4.4840   -0.1798 C   0  0  0  0  0  0  0  0  0  0  0  0
   -6.1488   -6.0935   -0.4976 S   0  0  0  0  0  0  0  0  0  0  0  0
   -4.5463   -6.0505    0.0019 C   0  0  0  0  0  0  0  0  0  0  0  0
   -4.2628   -4.7609    0.4445 C   0  0  0  0  0  0  0  0  0  0  0  0
   -2.9711   -4.3545    0.9310 N   0  0  0  0  0  0  0  0  0  0  0  0
   -1.9823   -5.2487    1.4546 C   0  0  0  0  0  0  0  0  0  0  0  0
   -2.3039   -6.3046    2.2024 C   0  0  0  0  0  0  0  0  0  0  0  0
    5.5340   -1.1323    5.5293 H   0  0  0  0  0  0  0  0  0  0  0  0
    4.7147   -1.9367    4.1661 H   0  0  0  0  0  0  0  0  0  0  0  0
    4.2006    0.3695    7.1720 H   0  0  0  0  0  0  0  0  0  0  0  0
    0.0439   -0.4668    5.3186 H   0  0  0  0  0  0  0  0  0  0  0  0
    2.7613   -2.3779    3.3069 H   0  0  0  0  0  0  0  0  0  0  0  0
   -0.1655   -2.4223    3.9172 H   0  0  0  0  0  0  0  0  0  0  0  0
   -0.6517   -2.4295    1.6500 H   0  0  0  0  0  0  0  0  0  0  0  0
   -0.8810   -2.8318   -0.5191 H   0  0  0  0  0  0  0  0  0  0  0  0
   -2.2009   -4.2852   -1.9538 H   0  0  0  0  0  0  0  0  0  0  0  0
   -3.0361   -2.6842   -1.7650 H   0  0  0  0  0  0  0  0  0  0  0  0
   -3.3138   -3.6815   -3.2354 H   0  0  0  0  0  0  0  0  0  0  0  0
    1.4204    0.1900   -5.4049 H   0  0  0  0  0  0  0  0  0  0  0  0
    0.8860   -1.0023   -6.6562 H   0  0  0  0  0  0  0  0  0  0  0  0
    2.2879   -1.4053   -5.5956 H   0  0  0  0  0  0  0  0  0  0  0  0
    2.4768   -0.4591   -3.3168 H   0  0  0  0  0  0  0  0  0  0  0  0
    4.5119    0.9214   -0.4719 H   0  0  0  0  0  0  0  0  0  0  0  0
    4.7804   -2.2963   -2.3960 H   0  0  0  0  0  0  0  0  0  0  0  0
    6.3119    1.1933   -5.0809 H   0  0  0  0  0  0  0  0  0  0  0  0
    5.6780    2.7893   -2.1211 H   0  0  0  0  0  0  0  0  0  0  0  0
    3.0857    2.3576   -3.7502 H   0  0  0  0  0  0  0  0  0  0  0  0
    3.9333    4.3624   -1.6113 H   0  0  0  0  0  0  0  0  0  0  0  0
    1.3806    3.9690   -3.2940 H   0  0  0  0  0  0  0  0  0  0  0  0
    2.9240    6.0208   -0.3755 H   0  0  0  0  0  0  0  0  0  0  0  0
   -1.6753    5.8042    0.0818 H   0  0  0  0  0  0  0  0  0  0  0  0
   -0.8981    4.4344   -3.2337 H   0  0  0  0  0  0  0  0  0  0  0  0
   -2.7540    3.0316   -2.4883 H   0  0  0  0  0  0  0  0  0  0  0  0
   -1.1772    2.9972    0.1202 H   0  0  0  0  0  0  0  0  0  0  0  0
   -3.6741    1.5138   -0.9300 H   0  0  0  0  0  0  0  0  0  0  0  0
   -0.7591    1.2408    1.5721 H   0  0  0  0  0  0  0  0  0  0  0  0
   -4.4918   -0.8406    3.3315 H   0  0  0  0  0  0  0  0  0  0  0  0
   -5.5783    1.2423    0.3492 H   0  0  0  0  0  0  0  0  0  0  0  0
   -7.3459    0.0173    1.6611 H   0  0  0  0  0  0  0  0  0  0  0  0
   -7.2799   -2.3424    1.4718 H   0  0  0  0  0  0  0  0  0  0  0  0
   -4.3896   -1.9715    0.4200 H   0  0  0  0  0  0  0  0  0  0  0  0
   -7.4515   -4.0010   -0.3714 H   0  0  0  0  0  0  0  0  0  0  0  0
   -3.8545   -6.8814   -0.0413 H   0  0  0  0  0  0  0  0  0  0  0  0
   -2.7048   -3.3498    0.8676 H   0  0  0  0  0  0  0  0  0  0  0  0
   -0.9334   -4.9992    1.3295 H   0  0  0  0  0  0  0  0  0  0  0  0
   -1.5278   -6.9419    2.5952 H   0  0  0  0  0  0  0  0  0  0  0  0
   -3.3316   -6.5459    2.4465 H   0  0  0  0  0  0  0  0  0  0  0  0
  1  2  1  0
  2  3  2  0
  3  4  1  0
  4  5  1  0
  5  6  2  0
  6  7  1  0
  7  8  1  0
  8  9  2  3
  9 10  1  0
 10 11  1  0
 11 12  1  0
 12 13  2  0
 13 14  1  0
 14 15  1  0
 15 16  2  0
 16 17  1  0
 17 18  1  0
 16 19  1  0
 19 20  1  0
 20 21  1  0
 19 22  2  0
 12 23  1  0
 23 24  1  0
 24 25  2  0
 25 26  1  0
 26 27  1  0
 27 28  2  0
 28 29  1  0
 29 30  1  0
 30 31  2  3
 31 32  1  0
 32 33  1  0
 33 34  2  0
 34 35  1  0
 35 36  1  0
 36 37  2  0
 37 38  1  0
 38 39  1  0
 39 40  2  3
 40 41  1  0
 41 42  1  0
 42 43  2  0
 43 44  1  0
 44 45  1  0
 45 46  2  0
 46 47  1  0
 47 48  1  0
 48 49  2  3
 49 50  1  0
 50 51  1  0
 51 52  2  0
 52 53  1  0
 53 54  1  0
 54 55  2  0
 55 56  1  0
 56 57  1  0
 57 58  2  3
  6  2  1  0
 14 10  2  0
 28 24  1  0
 37 33  1  0
 46 42  1  0
 55 51  1  0
 22 13  1  0
  1 59  1  0
  1 60  1  0
  3 61  1  0
  5 62  1  0
  7 63  1  0
  8 64  1  0
  9 65  1  0
 15 66  1  0
 18 67  1  0
 18 68  1  0
 18 69  1  0
 21 70  1  0
 21 71  1  0
 21 72  1  0
 22 73  1  0
 23 74  1  0
 25 75  1  0
 27 76  1  0
 29 77  1  0
 30 78  1  0
 31 79  1  0
 32 80  1  0
 34 81  1  0
 36 82  1  0
 38 83  1  0
 39 84  1  0
 40 85  1  0
 41 86  1  0
 43 87  1  0
 45 88  1  0
 47 89  1  0
 48 90  1  0
 49 91  1  0
 50 92  1  0
 52 93  1  0
 54 94  1  0
 56 95  1  0
 57 96  1  0
 58 97  1  0
 58 98  1  0
M  END

