
     RDKit          3D

104111  0  0  0  0  0  0  0  0999 V2000
    5.2148    2.5030   -6.4503 C   0  0  0  0  0  0  0  0  0  0  0  0
    5.0068    0.9011   -6.8670 S   0  0  0  0  0  0  0  0  0  0  0  0
    3.4850    0.6189   -6.1681 C   0  0  0  0  0  0  0  0  0  0  0  0
    3.1672    1.8288   -5.5769 C   0  0  0  0  0  0  0  0  0  0  0  0
    4.1234    2.8056   -5.6523 C   0  0  0  0  0  0  0  0  0  0  0  0
    4.0545    3.9304   -4.8080 C   0  0  0  0  0  0  0  0  0  0  0  0
    2.9372    4.0634   -3.9264 C   0  0  0  0  0  0  0  0  0  0  0  0
    2.8424    5.1931   -3.0889 O   0  0  0  0  0  0  0  0  0  0  0  0
    3.2216    6.4958   -3.5585 C   0  0  0  0  0  0  0  0  0  0  0  0
    1.9592    3.0271   -3.8731 C   0  0  0  0  0  0  0  0  0  0  0  0
    1.1059    2.8360   -2.7825 O   0  0  0  0  0  0  0  0  0  0  0  0
    0.0520    3.6980   -2.3011 C   0  0  0  0  0  0  0  0  0  0  0  0
    2.0619    1.9889   -4.7793 C   0  0  0  0  0  0  0  0  0  0  0  0
    3.0894   -0.6427   -5.5326 C   0  0  0  0  0  0  0  0  0  0  0  0
    1.8519   -1.6590   -6.0560 S   0  0  0  0  0  0  0  0  0  0  0  0
    1.7119   -2.5923   -4.6258 C   0  0  0  0  0  0  0  0  0  0  0  0
    2.6240   -2.1066   -3.7053 C   0  0  0  0  0  0  0  0  0  0  0  0
    3.3256   -0.9712   -4.1940 C   0  0  0  0  0  0  0  0  0  0  0  0
    4.1943   -0.2435   -3.3152 C   0  0  0  0  0  0  0  0  0  0  0  0
    4.3559   -0.7244   -1.9910 C   0  0  0  0  0  0  0  0  0  0  0  0
    5.2207   -0.0314   -1.1083 O   0  0  0  0  0  0  0  0  0  0  0  0
    6.0522    1.0557   -1.4970 C   0  0  0  0  0  0  0  0  0  0  0  0
    3.7817   -1.9137   -1.5434 C   0  0  0  0  0  0  0  0  0  0  0  0
    4.1577   -2.3360   -0.2734 O   0  0  0  0  0  0  0  0  0  0  0  0
    3.9558   -3.6562    0.1583 C   0  0  0  0  0  0  0  0  0  0  0  0
    2.8283   -2.6048   -2.3790 C   0  0  0  0  0  0  0  0  0  0  0  0
    0.7550   -3.6670   -4.4687 C   0  0  0  0  0  0  0  0  0  0  0  0
   -0.1093   -4.4703   -4.2019 C   0  0  0  0  0  0  0  0  0  0  0  0
   -1.2448   -5.3273   -3.7940 C   0  0  0  0  0  0  0  0  0  0  0  0
   -1.8655   -5.2687   -2.2446 S   0  0  0  0  0  0  0  0  0  0  0  0
   -3.3863   -5.8755   -2.5824 C   0  0  0  0  0  0  0  0  0  0  0  0
   -3.5081   -6.1100   -3.9636 C   0  0  0  0  0  0  0  0  0  0  0  0
   -2.2833   -5.8181   -4.6554 C   0  0  0  0  0  0  0  0  0  0  0  0
   -4.4494   -5.3827   -1.7592 C   0  0  0  0  0  0  0  0  0  0  0  0
   -5.1005   -4.7187   -0.9767 C   0  0  0  0  0  0  0  0  0  0  0  0
   -5.4675   -3.7548    0.0197 C   0  0  0  0  0  0  0  0  0  0  0  0
   -6.1086   -4.0979    1.1205 C   0  0  0  0  0  0  0  0  0  0  0  0
   -5.8317   -3.4190    2.4001 C   0  0  0  0  0  0  0  0  0  0  0  0
   -5.4780   -2.8754    3.4085 C   0  0  0  0  0  0  0  0  0  0  0  0
   -5.0233   -2.2598    4.6139 C   0  0  0  0  0  0  0  0  0  0  0  0
   -3.5312   -1.4971    4.8142 S   0  0  0  0  0  0  0  0  0  0  0  0
   -3.8877   -0.9390    6.4003 C   0  0  0  0  0  0  0  0  0  0  0  0
   -5.1803   -1.3382    6.7475 C   0  0  0  0  0  0  0  0  0  0  0  0
   -5.8083   -2.0692    5.7440 C   0  0  0  0  0  0  0  0  0  0  0  0
   -3.0809   -0.0295    7.2036 C   0  0  0  0  0  0  0  0  0  0  0  0
   -2.4522    0.7522    7.8640 C   0  0  0  0  0  0  0  0  0  0  0  0
   -1.7110    1.6813    8.6993 C   0  0  0  0  0  0  0  0  0  0  0  0
   -0.3806    1.7574    8.6239 C   0  0  0  0  0  0  0  0  0  0  0  0
    0.3356    1.0128    7.6139 C   0  0  0  0  0  0  0  0  0  0  0  0
    0.8223    0.4111    6.6875 C   0  0  0  0  0  0  0  0  0  0  0  0
    1.0995   -0.3273    5.5149 C   0  0  0  0  0  0  0  0  0  0  0  0
   -0.0309   -1.3769    4.8499 S   0  0  0  0  0  0  0  0  0  0  0  0
    0.8553   -1.6766    3.4494 C   0  0  0  0  0  0  0  0  0  0  0  0
    2.0580   -0.9547    3.4723 C   0  0  0  0  0  0  0  0  0  0  0  0
    2.1658   -0.1247    4.6154 C   0  0  0  0  0  0  0  0  0  0  0  0
    0.2811   -2.3753    2.3571 C   0  0  0  0  0  0  0  0  0  0  0  0
   -0.4092   -2.8120    1.4537 C   0  0  0  0  0  0  0  0  0  0  0  0
   -1.3409   -3.1244    0.3820 C   0  0  0  0  0  0  0  0  0  0  0  0
   -2.0508   -2.1543   -0.2006 C   0  0  0  0  0  0  0  0  0  0  0  0
   -1.9023   -0.7774    0.2879 C   0  0  0  0  0  0  0  0  0  0  0  0
   -1.6449    0.2877    0.8192 C   0  0  0  0  0  0  0  0  0  0  0  0
   -1.1785    1.3889    1.6183 C   0  0  0  0  0  0  0  0  0  0  0  0
    0.4380    1.6912    1.9484 S   0  0  0  0  0  0  0  0  0  0  0  0
    0.1886    2.8230    3.1891 C   0  0  0  0  0  0  0  0  0  0  0  0
   -1.1905    2.9847    3.3368 C   0  0  0  0  0  0  0  0  0  0  0  0
   -1.9670    2.2108    2.4286 C   0  0  0  0  0  0  0  0  0  0  0  0
    1.2047    3.2552    4.1408 C   0  0  0  0  0  0  0  0  0  0  0  0
    2.0860    3.5514    4.8931 C   0  0  0  0  0  0  0  0  0  0  0  0
    3.1695    3.8482    5.7830 C   0  0  0  0  0  0  0  0  0  0  0  0
    3.1977    4.9088    6.5670 C   0  0  0  0  0  0  0  0  0  0  0  0
    6.0269    3.1879   -6.6544 H   0  0  0  0  0  0  0  0  0  0  0  0
    4.8446    4.6816   -4.8571 H   0  0  0  0  0  0  0  0  0  0  0  0
    2.4621    6.9464   -4.2421 H   0  0  0  0  0  0  0  0  0  0  0  0
    3.3391    7.2140   -2.7078 H   0  0  0  0  0  0  0  0  0  0  0  0
    4.1729    6.4613   -4.1099 H   0  0  0  0  0  0  0  0  0  0  0  0
   -0.6407    3.8950   -3.1492 H   0  0  0  0  0  0  0  0  0  0  0  0
   -0.4884    3.3224   -1.3771 H   0  0  0  0  0  0  0  0  0  0  0  0
    0.5878    4.5674   -2.0010 H   0  0  0  0  0  0  0  0  0  0  0  0
    1.1821    1.3760   -5.1080 H   0  0  0  0  0  0  0  0  0  0  0  0
    4.7235    0.5893   -3.7461 H   0  0  0  0  0  0  0  0  0  0  0  0
    5.4767    1.9305   -1.8593 H   0  0  0  0  0  0  0  0  0  0  0  0
    6.5678    1.4623   -0.5987 H   0  0  0  0  0  0  0  0  0  0  0  0
    6.7229    0.7671   -2.2761 H   0  0  0  0  0  0  0  0  0  0  0  0
    2.8574   -3.8135    0.3583 H   0  0  0  0  0  0  0  0  0  0  0  0
    4.6720   -3.8480    1.0229 H   0  0  0  0  0  0  0  0  0  0  0  0
    4.3364   -4.3846   -0.6949 H   0  0  0  0  0  0  0  0  0  0  0  0
    2.3055   -3.5448   -2.0513 H   0  0  0  0  0  0  0  0  0  0  0  0
   -4.4434   -6.1915   -4.4684 H   0  0  0  0  0  0  0  0  0  0  0  0
   -2.2964   -5.6837   -5.7117 H   0  0  0  0  0  0  0  0  0  0  0  0
   -4.7052   -2.9278   -0.0726 H   0  0  0  0  0  0  0  0  0  0  0  0
   -6.7316   -4.9982    1.1542 H   0  0  0  0  0  0  0  0  0  0  0  0
   -5.6844   -1.0881    7.6838 H   0  0  0  0  0  0  0  0  0  0  0  0
   -6.8441   -2.4274    5.8134 H   0  0  0  0  0  0  0  0  0  0  0  0
   -2.2555    2.2351    9.4772 H   0  0  0  0  0  0  0  0  0  0  0  0
    0.1774    2.3914    9.3098 H   0  0  0  0  0  0  0  0  0  0  0  0
    2.7381   -0.8673    2.6320 H   0  0  0  0  0  0  0  0  0  0  0  0
    2.9970    0.5290    4.8104 H   0  0  0  0  0  0  0  0  0  0  0  0
   -1.5110   -4.1822    0.1375 H   0  0  0  0  0  0  0  0  0  0  0  0
   -2.6352   -2.3328   -1.0955 H   0  0  0  0  0  0  0  0  0  0  0  0
   -1.6465    3.6625    4.0535 H   0  0  0  0  0  0  0  0  0  0  0  0
   -3.0483    2.1492    2.4729 H   0  0  0  0  0  0  0  0  0  0  0  0
    4.0170    3.1878    5.7589 H   0  0  0  0  0  0  0  0  0  0  0  0
    4.0925    5.1444    7.1615 H   0  0  0  0  0  0  0  0  0  0  0  0
    2.4255    5.6439    6.4974 H   0  0  0  0  0  0  0  0  0  0  0  0
  1  2  1  0
  2  3  1  0
  3  4  2  0
  4  5  1  0
  5  6  1  0
  6  7  2  0
  7  8  1  0
  8  9  1  0
  7 10  1  0
 10 11  1  0
 11 12  1  0
 10 13  2  0
  3 14  1  0
 14 15  1  0
 15 16  1  0
 16 17  2  0
 17 18  1  0
 18 19  1  0
 19 20  2  0
 20 21  1  0
 21 22  1  0
 20 23  1  0
 23 24  1  0
 24 25  1  0
 23 26  2  0
 16 27  1  0
 27 28  3  0
 28 29  1  0
 29 30  1  0
 30 31  1  0
 31 32  2  0
 32 33  1  0
 31 34  1  0
 34 35  3  0
 35 36  1  0
 36 37  2  3
 37 38  1  0
 38 39  3  0
 39 40  1  0
 40 41  1  0
 41 42  1  0
 42 43  2  0
 43 44  1  0
 42 45  1  0
 45 46  3  0
 46 47  1  0
 47 48  2  3
 48 49  1  0
 49 50  3  0
 50 51  1  0
 51 52  1  0
 52 53  1  0
 53 54  2  0
 54 55  1  0
 53 56  1  0
 56 57  3  0
 57 58  1  0
 58 59  2  3
 59 60  1  0
 60 61  3  0
 61 62  1  0
 62 63  1  0
 63 64  1  0
 64 65  2  0
 65 66  1  0
 64 67  1  0
 67 68  3  0
 68 69  1  0
 69 70  2  3
  5  1  2  0
 18 14  2  0
 33 29  2  0
 44 40  2  0
 55 51  2  0
 66 62  2  0
 13  4  1  0
 26 17  1  0
  1 71  1  0
  6 72  1  0
  9 73  1  0
  9 74  1  0
  9 75  1  0
 12 76  1  0
 12 77  1  0
 12 78  1  0
 13 79  1  0
 19 80  1  0
 22 81  1  0
 22 82  1  0
 22 83  1  0
 25 84  1  0
 25 85  1  0
 25 86  1  0
 26 87  1  0
 32 88  1  0
 33 89  1  0
 36 90  1  0
 37 91  1  0
 43 92  1  0
 44 93  1  0
 47 94  1  0
 48 95  1  0
 54 96  1  0
 55 97  1  0
 58 98  1  0
 59 99  1  0
 65100  1  0
 66101  1  0
 69102  1  0
 70103  1  0
 70104  1  0
M  END

