
     RDKit          3D

176191  0  0  0  0  0  0  0  0999 V2000
    3.6163   -0.0051    0.4948 C   0  0  0  0  0  0  0  0  0  0  0  0
    1.9771   -0.0794    0.8753 S   0  0  0  0  0  0  0  0  0  0  0  0
    1.4786    1.1544   -0.1618 C   0  0  0  0  0  0  0  0  0  0  0  0
    2.5974    1.6367   -0.8384 C   0  0  0  0  0  0  0  0  0  0  0  0
    3.7845    0.9938   -0.4577 C   0  0  0  0  0  0  0  0  0  0  0  0
    5.0095    1.3898   -0.9926 C   0  0  0  0  0  0  0  0  0  0  0  0
    5.0508    2.4427   -1.9316 C   0  0  0  0  0  0  0  0  0  0  0  0
    6.2620    2.9034   -2.4729 O   0  0  0  0  0  0  0  0  0  0  0  0
    7.5476    2.4926   -2.0276 C   0  0  0  0  0  0  0  0  0  0  0  0
    3.8551    3.0711   -2.3378 C   0  0  0  0  0  0  0  0  0  0  0  0
    3.9383    4.0979   -3.2923 O   0  0  0  0  0  0  0  0  0  0  0  0
    2.8299    4.8716   -3.7470 C   0  0  0  0  0  0  0  0  0  0  0  0
    2.6215    2.6731   -1.7771 C   0  0  0  0  0  0  0  0  0  0  0  0
    0.1264    1.6089   -0.3212 N   0  0  0  0  0  0  0  0  0  0  0  0
   -0.4146    1.8043   -1.6031 N   0  0  0  0  0  0  0  0  0  0  0  0
   -1.7449    2.3886   -1.3454 C   0  0  1  0  0  0  0  0  0  0  0  0
   -2.9068    1.3644   -1.5024 C   0  0  1  0  0  0  0  0  0  0  0  0
   -2.7177    0.0591   -0.6852 C   0  0  0  0  0  0  0  0  0  0  0  0
   -4.2745    2.0628   -1.2169 C   0  0  2  0  0  0  0  0  0  0  0  0
   -4.2123    3.1949   -0.1633 C   0  0  1  0  0  0  0  0  0  0  0  0
   -5.5299    3.2613    0.4635 N   0  0  0  0  0  0  0  0  0  0  0  0
   -6.0484    1.5941    0.6890 S   0  0  0  0  0  0  0  0  0  0  0  0
   -5.3021    1.0843   -0.8342 N   0  0  0  0  0  0  0  0  0  0  0  0
   -3.0353    3.0216    0.8506 C   0  0  2  0  0  0  0  0  0  0  0  0
   -2.9974    4.1579    1.8975 C   0  0  0  0  0  0  0  0  0  0  0  0
   -1.6801    3.0007    0.0737 C   0  0  1  0  0  0  0  0  0  0  0  0
   -0.6128    2.2344    0.6939 N   0  0  0  0  0  0  0  0  0  0  0  0
   -0.4505    1.9839    2.0985 C   0  0  0  0  0  0  0  0  0  0  0  0
    0.7259    2.1565    2.6966 C   0  0  0  0  0  0  0  0  0  0  0  0
    0.9884    1.7659    4.0537 N   0  0  0  0  0  0  0  0  0  0  0  0
    2.1286    2.2425    4.7118 N   0  0  0  0  0  0  0  0  0  0  0  0
    2.1349    1.5409    6.0081 C   0  0  1  0  0  0  0  0  0  0  0  0
    2.4303    2.5072    7.1849 C   0  0  1  0  0  0  0  0  0  0  0  0
    1.8314    3.9219    7.0113 C   0  0  0  0  0  0  0  0  0  0  0  0
    2.0454    1.8329    8.5183 C   0  0  2  0  0  0  0  0  0  0  0  0
    0.5574    1.4328    8.6061 C   0  0  1  0  0  0  0  0  0  0  0  0
   -0.1282    2.4591    9.3797 N   0  0  0  0  0  0  0  0  0  0  0  0
    0.9726    2.8719   10.6893 S   0  0  0  0  0  0  0  0  0  0  0  0
    2.3901    2.7057    9.6438 N   0  0  0  0  0  0  0  0  0  0  0  0
   -0.1563    1.2357    7.2324 C   0  0  2  0  0  0  0  0  0  0  0  0
   -1.3447    0.2688    7.4079 C   0  0  0  0  0  0  0  0  0  0  0  0
    0.8134    0.7328    6.1265 C   0  0  1  0  0  0  0  0  0  0  0  0
    0.2212    0.8690    4.8071 N   0  0  0  0  0  0  0  0  0  0  0  0
   -0.5424   -0.2078    4.2399 C   0  0  0  0  0  0  0  0  0  0  0  0
    0.0553   -1.2656    3.6922 C   0  0  0  0  0  0  0  0  0  0  0  0
   -0.6638   -2.4997    3.5458 N   0  0  0  0  0  0  0  0  0  0  0  0
   -1.5840   -2.9113    4.5258 N   0  0  0  0  0  0  0  0  0  0  0  0
   -1.8725   -4.3171    4.1969 C   0  0  1  0  0  0  0  0  0  0  0  0
   -3.3327   -4.4660    3.7006 C   0  0  1  0  0  0  0  0  0  0  0  0
   -3.7423   -3.4286    2.6283 C   0  0  0  0  0  0  0  0  0  0  0  0
   -3.6017   -5.9496    3.3114 C   0  0  2  0  0  0  0  0  0  0  0  0
   -2.4410   -6.6751    2.5856 C   0  0  1  0  0  0  0  0  0  0  0  0
   -3.0037   -7.4558    1.4799 N   0  0  0  0  0  0  0  0  0  0  0  0
   -4.6902   -7.7651    1.8843 S   0  0  0  0  0  0  0  0  0  0  0  0
   -4.8384   -6.1450    2.5562 N   0  0  0  0  0  0  0  0  0  0  0  0
   -1.3276   -5.7316    2.0591 C   0  0  2  0  0  0  0  0  0  0  0  0
   -0.1723   -6.5725    1.4836 C   0  0  0  0  0  0  0  0  0  0  0  0
   -0.7952   -4.7839    3.1824 C   0  0  1  0  0  0  0  0  0  0  0  0
   -0.2214   -3.5277    2.7131 N   0  0  0  0  0  0  0  0  0  0  0  0
    0.2074   -3.2786    1.3648 C   0  0  0  0  0  0  0  0  0  0  0  0
   -0.6349   -2.7208    0.5001 C   0  0  0  0  0  0  0  0  0  0  0  0
   -0.4012   -2.7171   -0.9512 C   0  0  0  0  0  0  0  0  0  0  0  0
    0.9038   -1.9813   -1.7237 S   0  0  0  0  0  0  0  0  0  0  0  0
    0.2741   -2.0688   -3.2790 C   0  0  0  0  0  0  0  0  0  0  0  0
   -0.9904   -2.6391   -3.2134 C   0  0  0  0  0  0  0  0  0  0  0  0
   -1.3615   -3.0117   -1.9177 C   0  0  0  0  0  0  0  0  0  0  0  0
   -2.6054   -3.6012   -1.6796 C   0  0  0  0  0  0  0  0  0  0  0  0
   -3.4836   -3.8312   -2.7613 C   0  0  0  0  0  0  0  0  0  0  0  0
   -4.7211   -4.4686   -2.5839 O   0  0  0  0  0  0  0  0  0  0  0  0
   -5.1836   -5.0008   -1.3460 C   0  0  0  0  0  0  0  0  0  0  0  0
   -3.1182   -3.4311   -4.0647 C   0  0  0  0  0  0  0  0  0  0  0  0
   -4.0126   -3.6863   -5.1163 O   0  0  0  0  0  0  0  0  0  0  0  0
   -3.7276   -3.4373   -6.4882 C   0  0  0  0  0  0  0  0  0  0  0  0
   -1.8701   -2.8078   -4.2840 C   0  0  0  0  0  0  0  0  0  0  0  0
    0.7916   -1.3372   -4.3970 N   0  0  0  0  0  0  0  0  0  0  0  0
    0.5495    0.0402   -4.4858 N   0  0  0  0  0  0  0  0  0  0  0  0
    0.9447    0.3967   -5.8560 C   0  0  1  0  0  0  0  0  0  0  0  0
    2.2534    1.2203   -5.8293 C   0  0  1  0  0  0  0  0  0  0  0  0
    3.3493    0.6149   -4.9145 C   0  0  0  0  0  0  0  0  0  0  0  0
    2.7236    1.5286   -7.2798 C   0  0  2  0  0  0  0  0  0  0  0  0
    2.4440    0.4123   -8.3182 C   0  0  1  0  0  0  0  0  0  0  0  0
    3.5613    0.3609   -9.2696 N   0  0  0  0  0  0  0  0  0  0  0  0
    4.5855    1.7757   -9.0211 S   0  0  0  0  0  0  0  0  0  0  0  0
    4.1423    1.8565   -7.3213 N   0  0  0  0  0  0  0  0  0  0  0  0
    2.2233   -0.9822   -7.6761 C   0  0  2  0  0  0  0  0  0  0  0  0
    1.9528   -2.0416   -8.7674 C   0  0  0  0  0  0  0  0  0  0  0  0
    1.0406   -0.9259   -6.6610 C   0  0  1  0  0  0  0  0  0  0  0  0
    1.1255   -1.9332   -5.6201 N   0  0  0  0  0  0  0  0  0  0  0  0
    1.0320   -3.3458   -5.8703 C   0  0  0  0  0  0  0  0  0  0  0  0
    1.5358   -4.2413   -5.0332 C   0  0  0  0  0  0  0  0  0  0  0  0
    4.3999   -0.6166    0.9294 H   0  0  0  0  0  0  0  0  0  0  0  0
    5.9155    0.8907   -0.6686 H   0  0  0  0  0  0  0  0  0  0  0  0
    7.6994    1.4125   -2.2313 H   0  0  0  0  0  0  0  0  0  0  0  0
    8.3230    3.0702   -2.5754 H   0  0  0  0  0  0  0  0  0  0  0  0
    7.6602    2.6972   -0.9406 H   0  0  0  0  0  0  0  0  0  0  0  0
    3.1852    5.5877   -4.5184 H   0  0  0  0  0  0  0  0  0  0  0  0
    2.0581    4.2163   -4.2028 H   0  0  0  0  0  0  0  0  0  0  0  0
    2.3909    5.4432   -2.9017 H   0  0  0  0  0  0  0  0  0  0  0  0
    1.6998    3.1670   -2.0567 H   0  0  0  0  0  0  0  0  0  0  0  0
   -0.4705    0.8842   -2.0902 H   0  0  0  0  0  0  0  0  0  0  0  0
   -1.9112    3.2073   -2.0842 H   0  0  0  0  0  0  0  0  0  0  0  0
   -2.9130    1.0482   -2.5726 H   0  0  0  0  0  0  0  0  0  0  0  0
   -2.8868    0.2024    0.3984 H   0  0  0  0  0  0  0  0  0  0  0  0
   -3.4313   -0.7123   -1.0421 H   0  0  0  0  0  0  0  0  0  0  0  0
   -1.7072   -0.3565   -0.8142 H   0  0  0  0  0  0  0  0  0  0  0  0
   -4.5858    2.5486   -2.1726 H   0  0  0  0  0  0  0  0  0  0  0  0
   -4.0487    4.1616   -0.6958 H   0  0  0  0  0  0  0  0  0  0  0  0
   -5.5141    3.7307    1.3945 H   0  0  0  0  0  0  0  0  0  0  0  0
   -6.0535    1.0659   -1.5596 H   0  0  0  0  0  0  0  0  0  0  0  0
   -3.1843    2.0766    1.4017 H   0  0  0  0  0  0  0  0  0  0  0  0
   -3.1789    5.1421    1.4197 H   0  0  0  0  0  0  0  0  0  0  0  0
   -3.7560    3.9889    2.6910 H   0  0  0  0  0  0  0  0  0  0  0  0
   -2.0127    4.1974    2.4095 H   0  0  0  0  0  0  0  0  0  0  0  0
   -1.3185    4.0484   -0.0440 H   0  0  0  0  0  0  0  0  0  0  0  0
   -1.3111    1.6859    2.6782 H   0  0  0  0  0  0  0  0  0  0  0  0
    1.5291    2.6090    2.1357 H   0  0  0  0  0  0  0  0  0  0  0  0
    2.9599    1.9272    4.1618 H   0  0  0  0  0  0  0  0  0  0  0  0
    2.9604    0.7906    6.0004 H   0  0  0  0  0  0  0  0  0  0  0  0
    3.5346    2.6559    7.2083 H   0  0  0  0  0  0  0  0  0  0  0  0
    2.1094    4.5713    7.8693 H   0  0  0  0  0  0  0  0  0  0  0  0
    2.2446    4.4051    6.1025 H   0  0  0  0  0  0  0  0  0  0  0  0
    0.7306    3.9153    6.9311 H   0  0  0  0  0  0  0  0  0  0  0  0
    2.6475    0.8955    8.5908 H   0  0  0  0  0  0  0  0  0  0  0  0
    0.5235    0.4706    9.1697 H   0  0  0  0  0  0  0  0  0  0  0  0
   -0.9769    2.0400    9.8241 H   0  0  0  0  0  0  0  0  0  0  0  0
    3.1370    2.2516   10.2168 H   0  0  0  0  0  0  0  0  0  0  0  0
   -0.5909    2.2005    6.8980 H   0  0  0  0  0  0  0  0  0  0  0  0
   -2.0222    0.3138    6.5322 H   0  0  0  0  0  0  0  0  0  0  0  0
   -0.9931   -0.7765    7.5462 H   0  0  0  0  0  0  0  0  0  0  0  0
   -1.9602    0.5499    8.2893 H   0  0  0  0  0  0  0  0  0  0  0  0
    1.0688   -0.3376    6.3224 H   0  0  0  0  0  0  0  0  0  0  0  0
   -1.6046   -0.2483    4.4260 H   0  0  0  0  0  0  0  0  0  0  0  0
    1.1211   -1.2459    3.4979 H   0  0  0  0  0  0  0  0  0  0  0  0
   -1.0852   -2.8918    5.4460 H   0  0  0  0  0  0  0  0  0  0  0  0
   -1.7767   -4.9387    5.1170 H   0  0  0  0  0  0  0  0  0  0  0  0
   -3.9806   -4.2405    4.5778 H   0  0  0  0  0  0  0  0  0  0  0  0
   -4.8501   -3.3844    2.5511 H   0  0  0  0  0  0  0  0  0  0  0  0
   -3.3421   -3.6838    1.6338 H   0  0  0  0  0  0  0  0  0  0  0  0
   -3.4092   -2.4055    2.8948 H   0  0  0  0  0  0  0  0  0  0  0  0
   -3.7453   -6.4863    4.2788 H   0  0  0  0  0  0  0  0  0  0  0  0
   -1.9732   -7.3729    3.3218 H   0  0  0  0  0  0  0  0  0  0  0  0
   -2.5241   -8.3846    1.4366 H   0  0  0  0  0  0  0  0  0  0  0  0
   -4.8412   -5.5278    1.7131 H   0  0  0  0  0  0  0  0  0  0  0  0
   -1.7495   -5.1349    1.2264 H   0  0  0  0  0  0  0  0  0  0  0  0
    0.6815   -5.9386    1.1771 H   0  0  0  0  0  0  0  0  0  0  0  0
   -0.5098   -7.1289    0.5850 H   0  0  0  0  0  0  0  0  0  0  0  0
    0.1966   -7.2998    2.2350 H   0  0  0  0  0  0  0  0  0  0  0  0
   -0.0078   -5.3174    3.7628 H   0  0  0  0  0  0  0  0  0  0  0  0
    1.1452   -3.6895    1.0174 H   0  0  0  0  0  0  0  0  0  0  0  0
   -1.6051   -2.3948    0.8505 H   0  0  0  0  0  0  0  0  0  0  0  0
   -2.8752   -3.8936   -0.6772 H   0  0  0  0  0  0  0  0  0  0  0  0
   -6.1677   -5.4901   -1.5081 H   0  0  0  0  0  0  0  0  0  0  0  0
   -4.4686   -5.7648   -0.9671 H   0  0  0  0  0  0  0  0  0  0  0  0
   -5.2997   -4.1863   -0.5988 H   0  0  0  0  0  0  0  0  0  0  0  0
   -3.5749   -2.3499   -6.6564 H   0  0  0  0  0  0  0  0  0  0  0  0
   -2.8222   -4.0036   -6.7973 H   0  0  0  0  0  0  0  0  0  0  0  0
   -4.5856   -3.7773   -7.1043 H   0  0  0  0  0  0  0  0  0  0  0  0
   -1.5828   -2.4769   -5.2711 H   0  0  0  0  0  0  0  0  0  0  0  0
   -0.4865    0.1793   -4.4030 H   0  0  0  0  0  0  0  0  0  0  0  0
    0.1580    1.0365   -6.3161 H   0  0  0  0  0  0  0  0  0  0  0  0
    1.9963    2.1968   -5.3673 H   0  0  0  0  0  0  0  0  0  0  0  0
    2.9726    0.4990   -3.8768 H   0  0  0  0  0  0  0  0  0  0  0  0
    4.2223    1.2972   -4.8499 H   0  0  0  0  0  0  0  0  0  0  0  0
    3.6963   -0.3747   -5.2631 H   0  0  0  0  0  0  0  0  0  0  0  0
    2.1527    2.4251   -7.6228 H   0  0  0  0  0  0  0  0  0  0  0  0
    1.5047    0.6823   -8.8636 H   0  0  0  0  0  0  0  0  0  0  0  0
    3.1792    0.4372  -10.2418 H   0  0  0  0  0  0  0  0  0  0  0  0
    4.2643    2.8494   -7.0131 H   0  0  0  0  0  0  0  0  0  0  0  0
    3.1550   -1.2854   -7.1614 H   0  0  0  0  0  0  0  0  0  0  0  0
    2.0363   -3.0624   -8.3493 H   0  0  0  0  0  0  0  0  0  0  0  0
    2.7000   -1.9843   -9.5821 H   0  0  0  0  0  0  0  0  0  0  0  0
    0.9427   -1.9088   -9.2101 H   0  0  0  0  0  0  0  0  0  0  0  0
    0.0690   -1.0572   -7.1963 H   0  0  0  0  0  0  0  0  0  0  0  0
    0.5016   -3.6983   -6.7506 H   0  0  0  0  0  0  0  0  0  0  0  0
    1.4189   -5.2965   -5.2318 H   0  0  0  0  0  0  0  0  0  0  0  0
    2.0870   -3.9368   -4.1519 H   0  0  0  0  0  0  0  0  0  0  0  0
  1  2  1  0
  2  3  1  0
  3  4  2  0
  4  5  1  0
  5  6  1  0
  6  7  2  0
  7  8  1  0
  8  9  1  0
  7 10  1  0
 10 11  1  0
 11 12  1  0
 10 13  2  0
  3 14  1  0
 14 15  1  0
 15 16  1  0
 16 17  1  0
 17 18  1  0
 17 19  1  0
 19 20  1  0
 20 21  1  0
 21 22  1  0
 22 23  1  0
 20 24  1  0
 24 25  1  0
 24 26  1  0
 26 27  1  0
 27 28  1  0
 28 29  2  3
 29 30  1  0
 30 31  1  0
 31 32  1  0
 32 33  1  0
 33 34  1  0
 33 35  1  0
 35 36  1  0
 36 37  1  0
 37 38  1  0
 38 39  1  0
 36 40  1  0
 40 41  1  0
 40 42  1  0
 42 43  1  0
 43 44  1  0
 44 45  2  3
 45 46  1  0
 46 47  1  0
 47 48  1  0
 48 49  1  0
 49 50  1  0
 49 51  1  0
 51 52  1  0
 52 53  1  0
 53 54  1  0
 54 55  1  0
 52 56  1  0
 56 57  1  0
 56 58  1  0
 58 59  1  0
 59 60  1  0
 60 61  2  3
 61 62  1  0
 62 63  1  0
 63 64  1  0
 64 65  2  0
 65 66  1  0
 66 67  1  0
 67 68  2  0
 68 69  1  0
 69 70  1  0
 68 71  1  0
 71 72  1  0
 72 73  1  0
 71 74  2  0
 64 75  1  0
 75 76  1  0
 76 77  1  0
 77 78  1  0
 78 79  1  0
 78 80  1  0
 80 81  1  0
 81 82  1  0
 82 83  1  0
 83 84  1  0
 81 85  1  0
 85 86  1  0
 85 87  1  0
 87 88  1  0
 88 89  1  0
 89 90  2  3
  5  1  2  0
 27 14  1  0
 43 30  1  0
 59 46  1  0
 66 62  2  0
 88 75  1  0
 13  4  1  0
 26 16  1  0
 42 32  1  0
 58 48  1  0
 74 65  1  0
 87 77  1  0
 23 19  1  0
 39 35  1  0
 55 51  1  0
 84 80  1  0
  1 91  1  0
  6 92  1  0
  9 93  1  0
  9 94  1  0
  9 95  1  0
 12 96  1  0
 12 97  1  0
 12 98  1  0
 13 99  1  0
 15100  1  0
 16101  1  6
 17102  1  6
 18103  1  0
 18104  1  0
 18105  1  0
 19106  1  6
 20107  1  6
 21108  1  0
 23109  1  0
 24110  1  1
 25111  1  0
 25112  1  0
 25113  1  0
 26114  1  6
 28115  1  0
 29116  1  0
 31117  1  0
 32118  1  6
 33119  1  1
 34120  1  0
 34121  1  0
 34122  1  0
 35123  1  1
 36124  1  1
 37125  1  0
 39126  1  0
 40127  1  6
 41128  1  0
 41129  1  0
 41130  1  0
 42131  1  1
 44132  1  0
 45133  1  0
 47134  1  0
 48135  1  1
 49136  1  1
 50137  1  0
 50138  1  0
 50139  1  0
 51140  1  1
 52141  1  1
 53142  1  0
 55143  1  0
 56144  1  6
 57145  1  0
 57146  1  0
 57147  1  0
 58148  1  1
 60149  1  0
 61150  1  0
 67151  1  0
 70152  1  0
 70153  1  0
 70154  1  0
 73155  1  0
 73156  1  0
 73157  1  0
 74158  1  0
 76159  1  0
 77160  1  6
 78161  1  1
 79162  1  0
 79163  1  0
 79164  1  0
 80165  1  6
 81166  1  6
 82167  1  0
 84168  1  0
 85169  1  1
 86170  1  0
 86171  1  0
 86172  1  0
 87173  1  6
 89174  1  0
 90175  1  0
 90176  1  0
M  END

