
     RDKit          3D

148155  0  0  0  0  0  0  0  0999 V2000
    5.7820   -0.7673   -0.9444 C   0  0  0  0  0  0  0  0  0  0  0  0
    5.6023    0.3640   -1.9148 C   0  0  0  0  0  0  0  0  0  0  0  0
    4.4658    1.0608   -2.0639 C   0  0  0  0  0  0  0  0  0  0  0  0
    4.4549    2.0813   -3.0248 O   0  0  0  0  0  0  0  0  0  0  0  0
    4.2794    3.4800   -2.7623 C   0  0  0  0  0  0  0  0  0  0  0  0
    3.1107    3.8228   -1.8168 C   0  0  0  0  0  0  0  0  0  0  0  0
    1.7394    3.2267   -2.2344 C   0  0  0  0  0  0  0  0  0  0  0  0
    1.9038    2.0065   -2.9450 O   0  0  0  0  0  0  0  0  0  0  0  0
    1.9248    0.8784   -2.0912 C   0  0  0  0  0  0  0  0  0  0  0  0
    3.2142    0.7504   -1.2612 C   0  0  0  0  0  0  0  0  0  0  0  0
    0.9966    4.1819   -3.1438 C   0  0  0  0  0  0  0  0  0  0  0  0
    0.2506    5.2361   -2.7521 C   0  0  0  0  0  0  0  0  0  0  0  0
    0.0407    5.7109   -1.3310 C   0  0  0  0  0  0  0  0  0  0  0  0
   -0.6047    4.6680   -0.4570 C   0  0  0  0  0  0  0  0  0  0  0  0
   -1.8153    4.1091   -0.6444 C   0  0  0  0  0  0  0  0  0  0  0  0
   -2.0675    2.9679    0.1312 O   0  0  0  0  0  0  0  0  0  0  0  0
   -3.3158    2.2994    0.2924 C   0  0  0  0  0  0  0  0  0  0  0  0
   -4.1345    2.9739    1.4010 C   0  0  0  0  0  0  0  0  0  0  0  0
   -5.0175    4.1431    0.9288 C   0  0  0  0  0  0  0  0  0  0  0  0
   -4.2599    5.1081    0.2077 O   0  0  0  0  0  0  0  0  0  0  0  0
   -4.2389    4.8316   -1.1861 C   0  0  0  0  0  0  0  0  0  0  0  0
   -2.8016    4.6137   -1.6935 C   0  0  0  0  0  0  0  0  0  0  0  0
   -5.6330    4.7952    2.1452 C   0  0  0  0  0  0  0  0  0  0  0  0
   -4.9396    5.6021    2.9612 C   0  0  0  0  0  0  0  0  0  0  0  0
   -5.4980    6.0512    4.2883 C   0  0  0  0  0  0  0  0  0  0  0  0
   -5.1988    5.0259    5.3500 C   0  0  0  0  0  0  0  0  0  0  0  0
   -3.9961    4.7951    5.9080 C   0  0  0  0  0  0  0  0  0  0  0  0
   -3.9094    3.7115    6.7959 O   0  0  0  0  0  0  0  0  0  0  0  0
   -2.6839    3.1333    7.2520 C   0  0  0  0  0  0  0  0  0  0  0  0
   -1.9843    2.2838    6.1562 C   0  0  0  0  0  0  0  0  0  0  0  0
   -2.3672    2.6262    4.6757 C   0  0  0  0  0  0  0  0  0  0  0  0
   -1.9092    3.8639    4.1279 O   0  0  0  0  0  0  0  0  0  0  0  0
   -1.5621    4.8828    5.0485 C   0  0  0  0  0  0  0  0  0  0  0  0
   -2.7730    5.6510    5.6179 C   0  0  0  0  0  0  0  0  0  0  0  0
   -1.8890    1.5205    3.7641 C   0  0  0  0  0  0  0  0  0  0  0  0
   -2.5085    0.3378    3.7267 C   0  0  0  0  0  0  0  0  0  0  0  0
   -2.1538   -0.7285    2.7640 C   0  0  0  0  0  0  0  0  0  0  0  0
   -0.9185   -0.6628    1.6092 S   0  0  0  0  0  0  0  0  0  0  0  0
   -1.1895   -2.1723    0.9227 C   0  0  0  0  0  0  0  0  0  0  0  0
   -2.2874   -2.7463    1.5693 C   0  0  0  0  0  0  0  0  0  0  0  0
   -2.8153   -1.9521    2.6017 C   0  0  0  0  0  0  0  0  0  0  0  0
   -3.9105   -2.4063    3.3492 C   0  0  0  0  0  0  0  0  0  0  0  0
   -4.4807   -3.6653    3.0602 C   0  0  0  0  0  0  0  0  0  0  0  0
   -5.5651   -4.1758    3.7924 O   0  0  0  0  0  0  0  0  0  0  0  0
   -6.2136   -3.4907    4.8610 C   0  0  0  0  0  0  0  0  0  0  0  0
   -3.9648   -4.4479    2.0076 C   0  0  0  0  0  0  0  0  0  0  0  0
   -4.5540   -5.6964    1.7575 O   0  0  0  0  0  0  0  0  0  0  0  0
   -4.1074   -6.6166    0.7632 C   0  0  0  0  0  0  0  0  0  0  0  0
   -2.8822   -3.9716    1.2441 C   0  0  0  0  0  0  0  0  0  0  0  0
   -0.4078   -2.7426   -0.1884 C   0  0  0  0  0  0  0  0  0  0  0  0
   -0.0661   -1.9294   -1.6231 S   0  0  0  0  0  0  0  0  0  0  0  0
    0.7854   -3.1785   -2.3713 C   0  0  0  0  0  0  0  0  0  0  0  0
    0.8249   -4.2585   -1.4870 C   0  0  0  0  0  0  0  0  0  0  0  0
    0.1733   -4.0125   -0.2683 C   0  0  0  0  0  0  0  0  0  0  0  0
    0.1642   -4.9875    0.7351 C   0  0  0  0  0  0  0  0  0  0  0  0
    0.7488   -6.2467    0.4898 C   0  0  0  0  0  0  0  0  0  0  0  0
    0.7110   -7.2770    1.4417 O   0  0  0  0  0  0  0  0  0  0  0  0
    0.0245   -7.2026    2.6882 C   0  0  0  0  0  0  0  0  0  0  0  0
    1.3838   -6.4994   -0.7433 C   0  0  0  0  0  0  0  0  0  0  0  0
    1.9503   -7.7663   -0.9556 O   0  0  0  0  0  0  0  0  0  0  0  0
    2.5772   -8.1789   -2.1673 C   0  0  0  0  0  0  0  0  0  0  0  0
    1.4314   -5.4934   -1.7302 C   0  0  0  0  0  0  0  0  0  0  0  0
    1.4442   -3.0959   -3.7187 C   0  0  0  0  0  0  0  0  0  0  0  0
    2.9406   -3.0117   -3.5635 C   0  0  0  0  0  0  0  0  0  0  0  0
    3.8314   -3.3913   -4.4943 C   0  0  0  0  0  0  0  0  0  0  0  0
    5.1900   -3.2395   -4.1714 O   0  0  0  0  0  0  0  0  0  0  0  0
    6.2940   -3.5946   -5.0042 C   0  0  0  0  0  0  0  0  0  0  0  0
    6.6586   -5.0786   -4.8849 C   0  0  0  0  0  0  0  0  0  0  0  0
    5.7152   -6.0744   -5.5905 C   0  0  0  0  0  0  0  0  0  0  0  0
    4.4289   -6.0917   -4.9707 O   0  0  0  0  0  0  0  0  0  0  0  0
    3.3595   -5.5357   -5.7202 C   0  0  0  0  0  0  0  0  0  0  0  0
    3.4158   -4.0076   -5.8142 C   0  0  0  0  0  0  0  0  0  0  0  0
    5.7606   -5.9556   -7.1087 C   0  0  0  0  0  0  0  0  0  0  0  0
    5.5095   -7.0068   -7.8978 C   0  0  0  0  0  0  0  0  0  0  0  0
    6.8434   -1.1027   -0.9521 H   0  0  0  0  0  0  0  0  0  0  0  0
    5.1453   -1.6297   -1.2396 H   0  0  0  0  0  0  0  0  0  0  0  0
    5.5234   -0.4392    0.0871 H   0  0  0  0  0  0  0  0  0  0  0  0
    6.4568    0.6309   -2.5195 H   0  0  0  0  0  0  0  0  0  0  0  0
    4.1156    3.9887   -3.7324 H   0  0  0  0  0  0  0  0  0  0  0  0
    5.2211    3.8812   -2.3310 H   0  0  0  0  0  0  0  0  0  0  0  0
    3.3771    3.5117   -0.7887 H   0  0  0  0  0  0  0  0  0  0  0  0
    3.0391    4.9321   -1.7537 H   0  0  0  0  0  0  0  0  0  0  0  0
    1.1374    3.0749   -1.3202 H   0  0  0  0  0  0  0  0  0  0  0  0
    1.8531   -0.0159   -2.7439 H   0  0  0  0  0  0  0  0  0  0  0  0
    1.0285    0.8485   -1.4308 H   0  0  0  0  0  0  0  0  0  0  0  0
    3.1636    1.3987   -0.3650 H   0  0  0  0  0  0  0  0  0  0  0  0
    3.2320   -0.2881   -0.8686 H   0  0  0  0  0  0  0  0  0  0  0  0
    1.0677    4.0000   -4.2138 H   0  0  0  0  0  0  0  0  0  0  0  0
   -0.1987    5.8411   -3.5443 H   0  0  0  0  0  0  0  0  0  0  0  0
   -0.5759    6.6388   -1.3367 H   0  0  0  0  0  0  0  0  0  0  0  0
    1.0288    5.9880   -0.8995 H   0  0  0  0  0  0  0  0  0  0  0  0
    0.0141    4.2814    0.3485 H   0  0  0  0  0  0  0  0  0  0  0  0
   -3.8646    2.1867   -0.6667 H   0  0  0  0  0  0  0  0  0  0  0  0
   -3.0828    1.2659    0.6361 H   0  0  0  0  0  0  0  0  0  0  0  0
   -4.7810    2.2099    1.8817 H   0  0  0  0  0  0  0  0  0  0  0  0
   -3.4296    3.3441    2.1671 H   0  0  0  0  0  0  0  0  0  0  0  0
   -5.8745    3.7317    0.3426 H   0  0  0  0  0  0  0  0  0  0  0  0
   -4.8652    3.9676   -1.5132 H   0  0  0  0  0  0  0  0  0  0  0  0
   -4.6772    5.7028   -1.7191 H   0  0  0  0  0  0  0  0  0  0  0  0
   -2.4640    5.5787   -2.1244 H   0  0  0  0  0  0  0  0  0  0  0  0
   -2.8137    3.8867   -2.5344 H   0  0  0  0  0  0  0  0  0  0  0  0
   -6.6590    4.5349    2.3956 H   0  0  0  0  0  0  0  0  0  0  0  0
   -3.9014    5.8373    2.7337 H   0  0  0  0  0  0  0  0  0  0  0  0
   -5.0982    7.0451    4.5676 H   0  0  0  0  0  0  0  0  0  0  0  0
   -6.5976    6.1781    4.2063 H   0  0  0  0  0  0  0  0  0  0  0  0
   -6.0167    4.3753    5.6292 H   0  0  0  0  0  0  0  0  0  0  0  0
   -2.0086    3.9174    7.6577 H   0  0  0  0  0  0  0  0  0  0  0  0
   -2.9184    2.4668    8.1115 H   0  0  0  0  0  0  0  0  0  0  0  0
   -2.2792    1.2239    6.3430 H   0  0  0  0  0  0  0  0  0  0  0  0
   -0.8784    2.3154    6.2973 H   0  0  0  0  0  0  0  0  0  0  0  0
   -3.4710    2.6144    4.5924 H   0  0  0  0  0  0  0  0  0  0  0  0
   -0.8645    4.5336    5.8357 H   0  0  0  0  0  0  0  0  0  0  0  0
   -0.9487    5.6243    4.4932 H   0  0  0  0  0  0  0  0  0  0  0  0
   -3.0010    6.4947    4.9476 H   0  0  0  0  0  0  0  0  0  0  0  0
   -2.4615    6.1134    6.5749 H   0  0  0  0  0  0  0  0  0  0  0  0
   -1.0673    1.7331    3.0882 H   0  0  0  0  0  0  0  0  0  0  0  0
   -3.3309    0.1747    4.4055 H   0  0  0  0  0  0  0  0  0  0  0  0
   -4.3173   -1.8022    4.1406 H   0  0  0  0  0  0  0  0  0  0  0  0
   -7.0395   -4.1218    5.2456 H   0  0  0  0  0  0  0  0  0  0  0  0
   -6.6416   -2.5323    4.4957 H   0  0  0  0  0  0  0  0  0  0  0  0
   -5.4980   -3.3008    5.6895 H   0  0  0  0  0  0  0  0  0  0  0  0
   -3.0416   -6.8836    0.9352 H   0  0  0  0  0  0  0  0  0  0  0  0
   -4.7149   -7.5412    0.8205 H   0  0  0  0  0  0  0  0  0  0  0  0
   -4.2265   -6.1712   -0.2499 H   0  0  0  0  0  0  0  0  0  0  0  0
   -2.5135   -4.5434    0.4083 H   0  0  0  0  0  0  0  0  0  0  0  0
   -0.2950   -4.7741    1.6900 H   0  0  0  0  0  0  0  0  0  0  0  0
   -1.0579   -7.0161    2.5197 H   0  0  0  0  0  0  0  0  0  0  0  0
    0.1378   -8.1667    3.2249 H   0  0  0  0  0  0  0  0  0  0  0  0
    0.4567   -6.3969    3.3187 H   0  0  0  0  0  0  0  0  0  0  0  0
    1.8512   -8.1345   -3.0056 H   0  0  0  0  0  0  0  0  0  0  0  0
    2.9303   -9.2262   -2.0593 H   0  0  0  0  0  0  0  0  0  0  0  0
    3.4529   -7.5328   -2.3839 H   0  0  0  0  0  0  0  0  0  0  0  0
    1.9202   -5.6737   -2.6782 H   0  0  0  0  0  0  0  0  0  0  0  0
    1.0781   -2.2032   -4.2636 H   0  0  0  0  0  0  0  0  0  0  0  0
    1.1414   -3.9960   -4.2897 H   0  0  0  0  0  0  0  0  0  0  0  0
    3.3229   -2.5934   -2.6414 H   0  0  0  0  0  0  0  0  0  0  0  0
    6.1537   -3.2682   -6.0542 H   0  0  0  0  0  0  0  0  0  0  0  0
    7.1730   -3.0192   -4.6396 H   0  0  0  0  0  0  0  0  0  0  0  0
    6.7228   -5.3414   -3.8083 H   0  0  0  0  0  0  0  0  0  0  0  0
    7.6788   -5.2177   -5.3060 H   0  0  0  0  0  0  0  0  0  0  0  0
    6.1603   -7.0664   -5.3589 H   0  0  0  0  0  0  0  0  0  0  0  0
    2.4214   -5.8077   -5.1928 H   0  0  0  0  0  0  0  0  0  0  0  0
    3.2580   -5.9968   -6.7260 H   0  0  0  0  0  0  0  0  0  0  0  0
    4.1100   -3.7118   -6.6235 H   0  0  0  0  0  0  0  0  0  0  0  0
    2.4307   -3.6196   -6.1450 H   0  0  0  0  0  0  0  0  0  0  0  0
    6.0555   -5.0211   -7.5725 H   0  0  0  0  0  0  0  0  0  0  0  0
    5.2437   -7.9715   -7.4741 H   0  0  0  0  0  0  0  0  0  0  0  0
    5.5812   -6.9052   -8.9752 H   0  0  0  0  0  0  0  0  0  0  0  0
  1  2  1  0
  2  3  2  0
  3  4  1  0
  4  5  1  0
  5  6  1  0
  6  7  1  0
  7  8  1  0
  8  9  1  0
  9 10  1  0
  7 11  1  0
 11 12  2  3
 12 13  1  0
 13 14  1  0
 14 15  2  0
 15 16  1  0
 16 17  1  0
 17 18  1  0
 18 19  1  0
 19 20  1  0
 20 21  1  0
 21 22  1  0
 19 23  1  0
 23 24  2  3
 24 25  1  0
 25 26  1  0
 26 27  2  0
 27 28  1  0
 28 29  1  0
 29 30  1  0
 30 31  1  0
 31 32  1  0
 32 33  1  0
 33 34  1  0
 31 35  1  0
 35 36  2  3
 36 37  1  0
 37 38  1  0
 38 39  1  0
 39 40  2  0
 40 41  1  0
 41 42  1  0
 42 43  2  0
 43 44  1  0
 44 45  1  0
 43 46  1  0
 46 47  1  0
 47 48  1  0
 46 49  2  0
 39 50  1  0
 50 51  1  0
 51 52  1  0
 52 53  2  0
 53 54  1  0
 54 55  1  0
 55 56  2  0
 56 57  1  0
 57 58  1  0
 56 59  1  0
 59 60  1  0
 60 61  1  0
 59 62  2  0
 52 63  1  0
 63 64  1  0
 64 65  2  0
 65 66  1  0
 66 67  1  0
 67 68  1  0
 68 69  1  0
 69 70  1  0
 70 71  1  0
 71 72  1  0
 69 73  1  0
 73 74  2  3
 10  3  1  0
 22 15  1  0
 34 27  1  0
 41 37  2  0
 54 50  2  0
 72 65  1  0
 49 40  1  0
 62 53  1  0
  1 75  1  0
  1 76  1  0
  1 77  1  0
  2 78  1  0
  5 79  1  0
  5 80  1  0
  6 81  1  0
  6 82  1  0
  7 83  1  0
  9 84  1  0
  9 85  1  0
 10 86  1  0
 10 87  1  0
 11 88  1  0
 12 89  1  0
 13 90  1  0
 13 91  1  0
 14 92  1  0
 17 93  1  0
 17 94  1  0
 18 95  1  0
 18 96  1  0
 19 97  1  0
 21 98  1  0
 21 99  1  0
 22100  1  0
 22101  1  0
 23102  1  0
 24103  1  0
 25104  1  0
 25105  1  0
 26106  1  0
 29107  1  0
 29108  1  0
 30109  1  0
 30110  1  0
 31111  1  0
 33112  1  0
 33113  1  0
 34114  1  0
 34115  1  0
 35116  1  0
 36117  1  0
 42118  1  0
 45119  1  0
 45120  1  0
 45121  1  0
 48122  1  0
 48123  1  0
 48124  1  0
 49125  1  0
 55126  1  0
 58127  1  0
 58128  1  0
 58129  1  0
 61130  1  0
 61131  1  0
 61132  1  0
 62133  1  0
 63134  1  0
 63135  1  0
 64136  1  0
 67137  1  0
 67138  1  0
 68139  1  0
 68140  1  0
 69141  1  0
 71142  1  0
 71143  1  0
 72144  1  0
 72145  1  0
 73146  1  0
 74147  1  0
 74148  1  0
M  END

