
     RDKit          3D

113124  0  0  0  0  0  0  0  0999 V2000
    5.6291    1.8072   -6.4677 C   0  0  0  0  0  0  0  0  0  0  0  0
    4.2355    0.9349   -6.8335 S   0  0  0  0  0  0  0  0  0  0  0  0
    3.3729    1.3083   -5.4285 C   0  0  0  0  0  0  0  0  0  0  0  0
    4.2088    2.0907   -4.6205 C   0  0  0  0  0  0  0  0  0  0  0  0
    5.4535    2.3715   -5.2112 C   0  0  0  0  0  0  0  0  0  0  0  0
    6.4250    3.1015   -4.5285 C   0  0  0  0  0  0  0  0  0  0  0  0
    6.1567    3.5311   -3.2148 C   0  0  0  0  0  0  0  0  0  0  0  0
    7.3796    4.4808   -2.3108 S   0  0  0  0  0  0  0  0  0  0  0  0
    4.9293    3.2222   -2.6082 C   0  0  0  0  0  0  0  0  0  0  0  0
    3.9398    2.5221   -3.3138 C   0  0  0  0  0  0  0  0  0  0  0  0
    2.0546    0.7370   -5.0988 C   0  0  0  0  0  0  0  0  0  0  0  0
    1.0922    1.4471   -4.4917 C   0  0  0  0  0  0  0  0  0  0  0  0
   -0.1598    0.8237   -4.0253 C   0  0  0  0  0  0  0  0  0  0  0  0
   -0.4974   -0.8312   -4.0434 S   0  0  0  0  0  0  0  0  0  0  0  0
   -1.9771   -0.7573   -3.2393 C   0  0  0  0  0  0  0  0  0  0  0  0
   -2.2301    0.5864   -2.9365 C   0  0  0  0  0  0  0  0  0  0  0  0
   -1.2235    1.4672   -3.3815 C   0  0  0  0  0  0  0  0  0  0  0  0
   -1.3426    2.8467   -3.1589 C   0  0  0  0  0  0  0  0  0  0  0  0
   -2.4658    3.3337   -2.4792 C   0  0  0  0  0  0  0  0  0  0  0  0
   -2.6364    5.0974   -2.1879 S   0  0  0  0  0  0  0  0  0  0  0  0
   -3.4601    2.4537   -2.0294 C   0  0  0  0  0  0  0  0  0  0  0  0
   -3.3432    1.0788   -2.2551 C   0  0  0  0  0  0  0  0  0  0  0  0
   -2.7539   -1.9445   -2.8610 C   0  0  0  0  0  0  0  0  0  0  0  0
   -2.9340   -2.2440   -1.5704 C   0  0  0  0  0  0  0  0  0  0  0  0
   -3.3728   -3.5948   -1.1322 C   0  0  0  0  0  0  0  0  0  0  0  0
   -4.1572   -3.8552    0.3490 S   0  0  0  0  0  0  0  0  0  0  0  0
   -3.9029   -5.5161    0.4645 C   0  0  0  0  0  0  0  0  0  0  0  0
   -3.1864   -5.9055   -0.6686 C   0  0  0  0  0  0  0  0  0  0  0  0
   -2.8410   -4.8378   -1.5288 C   0  0  0  0  0  0  0  0  0  0  0  0
   -1.9268   -5.0604   -2.5687 C   0  0  0  0  0  0  0  0  0  0  0  0
   -1.4684   -6.3620   -2.8299 C   0  0  0  0  0  0  0  0  0  0  0  0
   -0.3421   -6.6539   -4.1940 S   0  0  0  0  0  0  0  0  0  0  0  0
   -1.8878   -7.4296   -2.0277 C   0  0  0  0  0  0  0  0  0  0  0  0
   -2.7193   -7.2032   -0.9184 C   0  0  0  0  0  0  0  0  0  0  0  0
   -4.5357   -6.4316    1.4287 C   0  0  0  0  0  0  0  0  0  0  0  0
   -4.4654   -6.3390    2.7670 C   0  0  0  0  0  0  0  0  0  0  0  0
   -3.6185   -5.3838    3.5227 C   0  0  0  0  0  0  0  0  0  0  0  0
   -2.1771   -4.6768    2.9840 S   0  0  0  0  0  0  0  0  0  0  0  0
   -1.8647   -3.7635    4.3612 C   0  0  0  0  0  0  0  0  0  0  0  0
   -2.8516   -4.0348    5.3036 C   0  0  0  0  0  0  0  0  0  0  0  0
   -3.8263   -4.9482    4.8421 C   0  0  0  0  0  0  0  0  0  0  0  0
   -4.8880   -5.3209    5.6713 C   0  0  0  0  0  0  0  0  0  0  0  0
   -4.9722   -4.7742    6.9640 C   0  0  0  0  0  0  0  0  0  0  0  0
   -6.2948   -5.2780    8.0608 S   0  0  0  0  0  0  0  0  0  0  0  0
   -4.0091   -3.8571    7.4113 C   0  0  0  0  0  0  0  0  0  0  0  0
   -2.9443   -3.4761    6.5803 C   0  0  0  0  0  0  0  0  0  0  0  0
   -0.8180   -2.7390    4.4016 C   0  0  0  0  0  0  0  0  0  0  0  0
   -1.0012   -1.6009    3.7270 C   0  0  0  0  0  0  0  0  0  0  0  0
    0.0977   -0.6947    3.3656 C   0  0  0  0  0  0  0  0  0  0  0  0
    0.0158    0.9411    3.6999 S   0  0  0  0  0  0  0  0  0  0  0  0
    0.8396    1.5430    2.3535 C   0  0  0  0  0  0  0  0  0  0  0  0
    1.2138    0.4144    1.5939 C   0  0  0  0  0  0  0  0  0  0  0  0
    0.8085   -0.8205    2.1684 C   0  0  0  0  0  0  0  0  0  0  0  0
    1.0058   -2.0274    1.4888 C   0  0  0  0  0  0  0  0  0  0  0  0
    1.5697   -2.0089    0.2040 C   0  0  0  0  0  0  0  0  0  0  0  0
    1.7553   -3.2046   -0.5000 O   0  0  0  0  0  0  0  0  0  0  0  0
    0.6296   -3.9584   -0.9580 C   0  0  0  0  0  0  0  0  0  0  0  0
    1.9364   -0.7935   -0.3957 C   0  0  0  0  0  0  0  0  0  0  0  0
    2.3602   -0.7798   -1.7154 O   0  0  0  0  0  0  0  0  0  0  0  0
    3.7380   -0.7212   -2.0490 C   0  0  0  0  0  0  0  0  0  0  0  0
    1.7709    0.4167    0.2997 C   0  0  0  0  0  0  0  0  0  0  0  0
    1.0006    2.9812    2.0159 C   0  0  0  0  0  0  0  0  0  0  0  0
    2.2219    3.6081    1.0324 S   0  0  0  0  0  0  0  0  0  0  0  0
    1.7795    5.2294    1.0992 C   0  0  0  0  0  0  0  0  0  0  0  0
    0.6582    5.3219    1.9232 C   0  0  0  0  0  0  0  0  0  0  0  0
    0.2138    4.0777    2.4276 C   0  0  0  0  0  0  0  0  0  0  0  0
   -0.9421    4.0316    3.2235 C   0  0  0  0  0  0  0  0  0  0  0  0
   -1.5950    5.2236    3.5671 C   0  0  0  0  0  0  0  0  0  0  0  0
   -3.0260    5.1788    4.6429 S   0  0  0  0  0  0  0  0  0  0  0  0
   -1.1412    6.4470    3.0657 C   0  0  0  0  0  0  0  0  0  0  0  0
   -0.0189    6.5017    2.2335 C   0  0  0  0  0  0  0  0  0  0  0  0
    2.4458    6.3335    0.3883 C   0  0  0  0  0  0  0  0  0  0  0  0
    3.1057    6.1443   -0.7526 C   0  0  0  0  0  0  0  0  0  0  0  0
    6.5104    1.8864   -7.0924 H   0  0  0  0  0  0  0  0  0  0  0  0
    7.3850    3.3048   -4.9826 H   0  0  0  0  0  0  0  0  0  0  0  0
    7.9437    3.3287   -1.7300 H   0  0  0  0  0  0  0  0  0  0  0  0
    4.7496    3.5080   -1.5804 H   0  0  0  0  0  0  0  0  0  0  0  0
    3.0173    2.2674   -2.8064 H   0  0  0  0  0  0  0  0  0  0  0  0
    1.8725   -0.2878   -5.3854 H   0  0  0  0  0  0  0  0  0  0  0  0
    1.2662    2.5017   -4.3056 H   0  0  0  0  0  0  0  0  0  0  0  0
   -0.5767    3.5368   -3.4929 H   0  0  0  0  0  0  0  0  0  0  0  0
   -1.9350    5.0216   -0.9722 H   0  0  0  0  0  0  0  0  0  0  0  0
   -4.3162    2.8408   -1.4987 H   0  0  0  0  0  0  0  0  0  0  0  0
   -4.1291    0.4111   -1.9135 H   0  0  0  0  0  0  0  0  0  0  0  0
   -2.9798   -2.6619   -3.6270 H   0  0  0  0  0  0  0  0  0  0  0  0
   -2.6324   -1.5413   -0.7950 H   0  0  0  0  0  0  0  0  0  0  0  0
   -1.5454   -4.2566   -3.1706 H   0  0  0  0  0  0  0  0  0  0  0  0
   -1.3968   -6.9195   -5.0886 H   0  0  0  0  0  0  0  0  0  0  0  0
   -1.5633   -8.4423   -2.2518 H   0  0  0  0  0  0  0  0  0  0  0  0
   -2.9952   -8.0331   -0.2704 H   0  0  0  0  0  0  0  0  0  0  0  0
   -5.1156   -7.2448    1.0163 H   0  0  0  0  0  0  0  0  0  0  0  0
   -5.0578   -7.0423    3.3320 H   0  0  0  0  0  0  0  0  0  0  0  0
   -5.6261   -6.0468    5.3479 H   0  0  0  0  0  0  0  0  0  0  0  0
   -5.5850   -6.3957    8.5330 H   0  0  0  0  0  0  0  0  0  0  0  0
   -4.0741   -3.4507    8.4124 H   0  0  0  0  0  0  0  0  0  0  0  0
   -2.2038   -2.7608    6.9295 H   0  0  0  0  0  0  0  0  0  0  0  0
    0.1434   -2.9708    4.8635 H   0  0  0  0  0  0  0  0  0  0  0  0
   -1.9776   -1.3959    3.2731 H   0  0  0  0  0  0  0  0  0  0  0  0
    0.7255   -2.9808    1.9192 H   0  0  0  0  0  0  0  0  0  0  0  0
    0.6805   -5.0064   -0.5725 H   0  0  0  0  0  0  0  0  0  0  0  0
   -0.3304   -3.4879   -0.6206 H   0  0  0  0  0  0  0  0  0  0  0  0
    0.6632   -3.9601   -2.0601 H   0  0  0  0  0  0  0  0  0  0  0  0
    3.8525   -0.7864   -3.1513 H   0  0  0  0  0  0  0  0  0  0  0  0
    4.1729    0.2494   -1.6996 H   0  0  0  0  0  0  0  0  0  0  0  0
    4.2647   -1.5709   -1.5711 H   0  0  0  0  0  0  0  0  0  0  0  0
    1.9876    1.3288   -0.2322 H   0  0  0  0  0  0  0  0  0  0  0  0
   -1.3665    3.1088    3.5741 H   0  0  0  0  0  0  0  0  0  0  0  0
   -3.9145    5.1048    3.5503 H   0  0  0  0  0  0  0  0  0  0  0  0
   -1.6622    7.3569    3.3095 H   0  0  0  0  0  0  0  0  0  0  0  0
    0.3159    7.4602    1.8430 H   0  0  0  0  0  0  0  0  0  0  0  0
    2.3753    7.3393    0.7953 H   0  0  0  0  0  0  0  0  0  0  0  0
    3.5667    6.9715   -1.2660 H   0  0  0  0  0  0  0  0  0  0  0  0
    3.1616    5.1707   -1.2177 H   0  0  0  0  0  0  0  0  0  0  0  0
  1  2  1  0
  2  3  1  0
  3  4  2  0
  4  5  1  0
  5  6  1  0
  6  7  2  0
  7  8  1  0
  7  9  1  0
  9 10  2  0
  3 11  1  0
 11 12  2  3
 12 13  1  0
 13 14  1  0
 14 15  1  0
 15 16  2  0
 16 17  1  0
 17 18  1  0
 18 19  2  0
 19 20  1  0
 19 21  1  0
 21 22  2  0
 15 23  1  0
 23 24  2  3
 24 25  1  0
 25 26  1  0
 26 27  1  0
 27 28  2  0
 28 29  1  0
 29 30  1  0
 30 31  2  0
 31 32  1  0
 31 33  1  0
 33 34  2  0
 27 35  1  0
 35 36  2  3
 36 37  1  0
 37 38  1  0
 38 39  1  0
 39 40  2  0
 40 41  1  0
 41 42  1  0
 42 43  2  0
 43 44  1  0
 43 45  1  0
 45 46  2  0
 39 47  1  0
 47 48  2  3
 48 49  1  0
 49 50  1  0
 50 51  1  0
 51 52  2  0
 52 53  1  0
 53 54  1  0
 54 55  2  0
 55 56  1  0
 56 57  1  0
 55 58  1  0
 58 59  1  0
 59 60  1  0
 58 61  2  0
 51 62  1  0
 62 63  1  0
 63 64  1  0
 64 65  2  0
 65 66  1  0
 66 67  1  0
 67 68  2  0
 68 69  1  0
 68 70  1  0
 70 71  2  0
 64 72  1  0
 72 73  2  3
  5  1  2  0
 17 13  2  0
 29 25  2  0
 41 37  2  0
 53 49  2  0
 66 62  2  0
 10  4  1  0
 22 16  1  0
 34 28  1  0
 46 40  1  0
 61 52  1  0
 71 65  1  0
  1 74  1  0
  6 75  1  0
  8 76  1  0
  9 77  1  0
 10 78  1  0
 11 79  1  0
 12 80  1  0
 18 81  1  0
 20 82  1  0
 21 83  1  0
 22 84  1  0
 23 85  1  0
 24 86  1  0
 30 87  1  0
 32 88  1  0
 33 89  1  0
 34 90  1  0
 35 91  1  0
 36 92  1  0
 42 93  1  0
 44 94  1  0
 45 95  1  0
 46 96  1  0
 47 97  1  0
 48 98  1  0
 54 99  1  0
 57100  1  0
 57101  1  0
 57102  1  0
 60103  1  0
 60104  1  0
 60105  1  0
 61106  1  0
 67107  1  0
 69108  1  0
 70109  1  0
 71110  1  0
 72111  1  0
 73112  1  0
 73113  1  0
M  END

