
     RDKit          3D

128139  0  0  0  0  0  0  0  0999 V2000
    3.1614    4.2073   -2.0861 C   0  0  0  0  0  0  0  0  0  0  0  0
    1.4837    4.1076   -2.0828 S   0  0  0  0  0  0  0  0  0  0  0  0
    1.1846    5.6819   -1.5669 C   0  0  0  0  0  0  0  0  0  0  0  0
    2.4100    6.3416   -1.4864 C   0  0  0  0  0  0  0  0  0  0  0  0
    3.5141    5.5039   -1.7295 C   0  0  0  0  0  0  0  0  0  0  0  0
    4.9237    6.0236   -1.8243 C   0  0  0  0  0  0  0  0  0  0  0  0
    5.0745    7.4151   -1.1797 C   0  0  2  0  0  0  0  0  0  0  0  0
    5.1168    7.2906    0.2027 F   0  0  0  0  0  0  0  0  0  0  0  0
    3.9245    8.3538   -1.5836 C   0  0  1  0  0  0  0  0  0  0  0  0
    3.9164    8.5207   -2.9588 F   0  0  0  0  0  0  0  0  0  0  0  0
    2.5655    7.7975   -1.1240 C   0  0  0  0  0  0  0  0  0  0  0  0
   -0.1249    6.3474   -1.6171 C   0  0  0  0  0  0  0  0  0  0  0  0
   -1.1828    6.1119   -0.8261 C   0  0  0  0  0  0  0  0  0  0  0  0
   -1.2882    5.1477    0.3011 C   0  0  0  0  0  0  0  0  0  0  0  0
   -0.1592    3.9882    0.7793 S   0  0  0  0  0  0  0  0  0  0  0  0
   -1.0243    3.3491    2.0720 C   0  0  0  0  0  0  0  0  0  0  0  0
   -2.2218    4.0612    2.1664 C   0  0  0  0  0  0  0  0  0  0  0  0
   -2.3822    5.0382    1.1746 C   0  0  0  0  0  0  0  0  0  0  0  0
   -3.5905    5.9408    1.2037 C   0  0  0  0  0  0  0  0  0  0  0  0
   -4.8736    5.2315    1.7145 C   0  0  2  0  0  0  0  0  0  0  0  0
   -5.6509    6.1572    2.3952 F   0  0  0  0  0  0  0  0  0  0  0  0
   -4.6528    3.9824    2.6130 C   0  0  1  0  0  0  0  0  0  0  0  0
   -4.8500    2.8332    1.8625 F   0  0  0  0  0  0  0  0  0  0  0  0
   -3.2577    3.9224    3.2436 C   0  0  0  0  0  0  0  0  0  0  0  0
   -0.6582    2.1507    2.8534 C   0  0  0  0  0  0  0  0  0  0  0  0
    0.5777    1.6362    2.8599 C   0  0  0  0  0  0  0  0  0  0  0  0
    0.8803    0.3792    3.5773 C   0  0  0  0  0  0  0  0  0  0  0  0
   -0.2592   -0.7663    4.0597 S   0  0  0  0  0  0  0  0  0  0  0  0
    0.8304   -1.8782    4.6936 C   0  0  0  0  0  0  0  0  0  0  0  0
    2.1155   -1.3584    4.5563 C   0  0  0  0  0  0  0  0  0  0  0  0
    2.1476   -0.0976    3.9244 C   0  0  0  0  0  0  0  0  0  0  0  0
    3.4386    0.6002    3.5758 C   0  0  0  0  0  0  0  0  0  0  0  0
    4.6425    0.0147    4.3332 C   0  0  2  0  0  0  0  0  0  0  0  0
    5.8155    0.4386    3.7317 F   0  0  0  0  0  0  0  0  0  0  0  0
    4.6015   -1.5227    4.3553 C   0  0  1  0  0  0  0  0  0  0  0  0
    5.7330   -2.0103    4.9860 F   0  0  0  0  0  0  0  0  0  0  0  0
    3.3543   -2.0127    5.1017 C   0  0  0  0  0  0  0  0  0  0  0  0
    0.4585   -3.1528    5.3316 C   0  0  0  0  0  0  0  0  0  0  0  0
   -0.4136   -4.0145    4.7936 C   0  0  0  0  0  0  0  0  0  0  0  0
   -0.8997   -3.9208    3.4029 C   0  0  0  0  0  0  0  0  0  0  0  0
    0.0755   -3.6604    2.0493 S   0  0  0  0  0  0  0  0  0  0  0  0
   -1.1415   -3.7781    0.8932 C   0  0  0  0  0  0  0  0  0  0  0  0
   -2.3358   -4.0764    1.5553 C   0  0  0  0  0  0  0  0  0  0  0  0
   -2.1996   -4.1557    2.9531 C   0  0  0  0  0  0  0  0  0  0  0  0
   -3.3057   -4.4371    3.7604 C   0  0  0  0  0  0  0  0  0  0  0  0
   -4.5642   -4.6574    3.1606 C   0  0  0  0  0  0  0  0  0  0  0  0
   -5.7129   -4.9217    3.9234 O   0  0  0  0  0  0  0  0  0  0  0  0
   -5.7473   -4.9502    5.3462 C   0  0  0  0  0  0  0  0  0  0  0  0
   -4.6926   -4.6198    1.7571 C   0  0  0  0  0  0  0  0  0  0  0  0
   -5.9577   -4.8664    1.2021 O   0  0  0  0  0  0  0  0  0  0  0  0
   -6.2440   -4.8456   -0.1941 C   0  0  0  0  0  0  0  0  0  0  0  0
   -3.5689   -4.3378    0.9516 C   0  0  0  0  0  0  0  0  0  0  0  0
   -0.9184   -3.6573   -0.5562 C   0  0  0  0  0  0  0  0  0  0  0  0
    0.2952   -4.4653   -1.3906 S   0  0  0  0  0  0  0  0  0  0  0  0
   -0.0387   -3.8322   -2.9156 C   0  0  0  0  0  0  0  0  0  0  0  0
   -1.1149   -2.9468   -2.7803 C   0  0  0  0  0  0  0  0  0  0  0  0
   -1.5910   -2.8347   -1.4616 C   0  0  0  0  0  0  0  0  0  0  0  0
   -2.6016   -1.9218   -1.1468 C   0  0  0  0  0  0  0  0  0  0  0  0
   -3.1934   -1.1580   -2.1734 C   0  0  0  0  0  0  0  0  0  0  0  0
   -4.2095   -0.2271   -1.9108 O   0  0  0  0  0  0  0  0  0  0  0  0
   -4.7169    0.0749   -0.6147 C   0  0  0  0  0  0  0  0  0  0  0  0
   -2.7654   -1.3175   -3.5070 C   0  0  0  0  0  0  0  0  0  0  0  0
   -3.4014   -0.5587   -4.5034 O   0  0  0  0  0  0  0  0  0  0  0  0
   -3.0870   -0.6207   -5.8909 C   0  0  0  0  0  0  0  0  0  0  0  0
   -1.7192   -2.2160   -3.8093 C   0  0  0  0  0  0  0  0  0  0  0  0
    0.8046   -4.0564   -4.1069 C   0  0  0  0  0  0  0  0  0  0  0  0
    1.3058   -2.8530   -5.1699 S   0  0  0  0  0  0  0  0  0  0  0  0
    2.3417   -3.8059   -6.0847 C   0  0  0  0  0  0  0  0  0  0  0  0
    2.3132   -5.1096   -5.5749 C   0  0  0  0  0  0  0  0  0  0  0  0
    1.4375   -5.2502   -4.4760 C   0  0  0  0  0  0  0  0  0  0  0  0
    1.2302   -6.5694   -3.7789 C   0  0  0  0  0  0  0  0  0  0  0  0
    1.5928   -7.7546   -4.6854 C   0  0  2  0  0  0  0  0  0  0  0  0
    1.6147   -8.9154   -3.9314 F   0  0  0  0  0  0  0  0  0  0  0  0
    2.9662   -7.5378   -5.3380 C   0  0  1  0  0  0  0  0  0  0  0  0
    3.3033   -8.6533   -6.0850 F   0  0  0  0  0  0  0  0  0  0  0  0
    2.9588   -6.3011   -6.2457 C   0  0  0  0  0  0  0  0  0  0  0  0
    3.0554   -3.3032   -7.2712 C   0  0  0  0  0  0  0  0  0  0  0  0
    4.3572   -3.5014   -7.4523 C   0  0  0  0  0  0  0  0  0  0  0  0
    3.8449    3.4214   -2.3798 H   0  0  0  0  0  0  0  0  0  0  0  0
    5.1960    6.0958   -2.9010 H   0  0  0  0  0  0  0  0  0  0  0  0
    5.6270    5.3101   -1.3381 H   0  0  0  0  0  0  0  0  0  0  0  0
    6.0371    7.8629   -1.5137 H   0  0  0  0  0  0  0  0  0  0  0  0
    4.0834    9.3503   -1.1175 H   0  0  0  0  0  0  0  0  0  0  0  0
    2.4842    7.9005   -0.0191 H   0  0  0  0  0  0  0  0  0  0  0  0
    1.7579    8.4012   -1.5894 H   0  0  0  0  0  0  0  0  0  0  0  0
   -0.2200    7.1482   -2.3375 H   0  0  0  0  0  0  0  0  0  0  0  0
   -2.0405    6.7380   -1.0195 H   0  0  0  0  0  0  0  0  0  0  0  0
   -3.8099    6.3507    0.1987 H   0  0  0  0  0  0  0  0  0  0  0  0
   -3.3508    6.7990    1.8709 H   0  0  0  0  0  0  0  0  0  0  0  0
   -5.4627    4.9100    0.8264 H   0  0  0  0  0  0  0  0  0  0  0  0
   -5.4087    3.9770    3.4290 H   0  0  0  0  0  0  0  0  0  0  0  0
   -3.1420    4.7617    3.9621 H   0  0  0  0  0  0  0  0  0  0  0  0
   -3.1582    2.9761    3.8081 H   0  0  0  0  0  0  0  0  0  0  0  0
   -1.4378    1.6507    3.4162 H   0  0  0  0  0  0  0  0  0  0  0  0
    1.3816    2.1462    2.3404 H   0  0  0  0  0  0  0  0  0  0  0  0
    3.3561    1.6790    3.8204 H   0  0  0  0  0  0  0  0  0  0  0  0
    3.6046    0.4999    2.4840 H   0  0  0  0  0  0  0  0  0  0  0  0
    4.6321    0.3936    5.3805 H   0  0  0  0  0  0  0  0  0  0  0  0
    4.5914   -1.9141    3.3120 H   0  0  0  0  0  0  0  0  0  0  0  0
    3.4434   -1.7448    6.1750 H   0  0  0  0  0  0  0  0  0  0  0  0
    3.2789   -3.1169    5.0212 H   0  0  0  0  0  0  0  0  0  0  0  0
    0.8782   -3.3759    6.3037 H   0  0  0  0  0  0  0  0  0  0  0  0
   -0.7413   -4.8559    5.3884 H   0  0  0  0  0  0  0  0  0  0  0  0
   -3.1844   -4.4762    4.8346 H   0  0  0  0  0  0  0  0  0  0  0  0
   -6.7857   -5.1544    5.6793 H   0  0  0  0  0  0  0  0  0  0  0  0
   -5.4294   -3.9673    5.7555 H   0  0  0  0  0  0  0  0  0  0  0  0
   -5.0858   -5.7571    5.7258 H   0  0  0  0  0  0  0  0  0  0  0  0
   -6.0230   -3.8409   -0.6153 H   0  0  0  0  0  0  0  0  0  0  0  0
   -7.3196   -5.0686   -0.3456 H   0  0  0  0  0  0  0  0  0  0  0  0
   -5.6430   -5.6204   -0.7148 H   0  0  0  0  0  0  0  0  0  0  0  0
   -3.6523   -4.3246   -0.1245 H   0  0  0  0  0  0  0  0  0  0  0  0
   -2.9131   -1.7997   -0.1209 H   0  0  0  0  0  0  0  0  0  0  0  0
   -5.1570   -0.8357   -0.1552 H   0  0  0  0  0  0  0  0  0  0  0  0
   -3.9049    0.4747    0.0300 H   0  0  0  0  0  0  0  0  0  0  0  0
   -5.5108    0.8451   -0.7041 H   0  0  0  0  0  0  0  0  0  0  0  0
   -2.0261   -0.3354   -6.0565 H   0  0  0  0  0  0  0  0  0  0  0  0
   -3.7352    0.0929   -6.4403 H   0  0  0  0  0  0  0  0  0  0  0  0
   -3.2742   -1.6433   -6.2810 H   0  0  0  0  0  0  0  0  0  0  0  0
   -1.3960   -2.3517   -4.8304 H   0  0  0  0  0  0  0  0  0  0  0  0
    1.8687   -6.5943   -2.8712 H   0  0  0  0  0  0  0  0  0  0  0  0
    0.1687   -6.6704   -3.4678 H   0  0  0  0  0  0  0  0  0  0  0  0
    0.8187   -7.8686   -5.4790 H   0  0  0  0  0  0  0  0  0  0  0  0
    3.7319   -7.4102   -4.5421 H   0  0  0  0  0  0  0  0  0  0  0  0
    4.0061   -6.0776   -6.5255 H   0  0  0  0  0  0  0  0  0  0  0  0
    2.3920   -6.5304   -7.1730 H   0  0  0  0  0  0  0  0  0  0  0  0
    2.5225   -2.6590   -7.9594 H   0  0  0  0  0  0  0  0  0  0  0  0
    4.9533   -4.0386   -6.7272 H   0  0  0  0  0  0  0  0  0  0  0  0
    4.8536   -3.0713   -8.3109 H   0  0  0  0  0  0  0  0  0  0  0  0
  1  2  1  0
  2  3  1  0
  3  4  2  0
  4  5  1  0
  5  6  1  0
  6  7  1  0
  7  8  1  0
  7  9  1  0
  9 10  1  0
  9 11  1  0
  3 12  1  0
 12 13  2  3
 13 14  1  0
 14 15  1  0
 15 16  1  0
 16 17  2  0
 17 18  1  0
 18 19  1  0
 19 20  1  0
 20 21  1  0
 20 22  1  0
 22 23  1  0
 22 24  1  0
 16 25  1  0
 25 26  2  3
 26 27  1  0
 27 28  1  0
 28 29  1  0
 29 30  2  0
 30 31  1  0
 31 32  1  0
 32 33  1  0
 33 34  1  0
 33 35  1  0
 35 36  1  0
 35 37  1  0
 29 38  1  0
 38 39  2  3
 39 40  1  0
 40 41  1  0
 41 42  1  0
 42 43  2  0
 43 44  1  0
 44 45  1  0
 45 46  2  0
 46 47  1  0
 47 48  1  0
 46 49  1  0
 49 50  1  0
 50 51  1  0
 49 52  2  0
 42 53  1  0
 53 54  1  0
 54 55  1  0
 55 56  2  0
 56 57  1  0
 57 58  1  0
 58 59  2  0
 59 60  1  0
 60 61  1  0
 59 62  1  0
 62 63  1  0
 63 64  1  0
 62 65  2  0
 55 66  1  0
 66 67  1  0
 67 68  1  0
 68 69  2  0
 69 70  1  0
 70 71  1  0
 71 72  1  0
 72 73  1  0
 72 74  1  0
 74 75  1  0
 74 76  1  0
 68 77  1  0
 77 78  2  3
  5  1  2  0
 18 14  2  0
 31 27  2  0
 44 40  2  0
 57 53  2  0
 70 66  2  0
 11  4  1  0
 24 17  1  0
 37 30  1  0
 52 43  1  0
 65 56  1  0
 76 69  1  0
  1 79  1  0
  6 80  1  0
  6 81  1  0
  7 82  1  6
  9 83  1  1
 11 84  1  0
 11 85  1  0
 12 86  1  0
 13 87  1  0
 19 88  1  0
 19 89  1  0
 20 90  1  6
 22 91  1  1
 24 92  1  0
 24 93  1  0
 25 94  1  0
 26 95  1  0
 32 96  1  0
 32 97  1  0
 33 98  1  1
 35 99  1  6
 37100  1  0
 37101  1  0
 38102  1  0
 39103  1  0
 45104  1  0
 48105  1  0
 48106  1  0
 48107  1  0
 51108  1  0
 51109  1  0
 51110  1  0
 52111  1  0
 58112  1  0
 61113  1  0
 61114  1  0
 61115  1  0
 64116  1  0
 64117  1  0
 64118  1  0
 65119  1  0
 71120  1  0
 71121  1  0
 72122  1  6
 74123  1  1
 76124  1  0
 76125  1  0
 77126  1  0
 78127  1  0
 78128  1  0
M  END

