
     RDKit          3D

100111  0  0  0  0  0  0  0  0999 V2000
    8.9338   -1.0880    7.1807 C   0  0  0  0  0  0  0  0  0  0  0  0
    9.9985   -1.4141    5.9936 S   0  0  0  0  0  3  0  0  0  0  0  0
    9.3282   -0.2998    4.7822 C   0  0  0  0  0  0  0  0  0  0  0  0
    9.7384   -0.1250    3.6054 O   0  0  0  0  0  0  0  0  0  0  0  0
    8.1890    0.3441    5.4221 C   0  0  0  0  0  0  0  0  0  0  0  0
    7.9893   -0.0753    6.6787 C   0  0  0  0  0  0  0  0  0  0  0  0
    6.8746    0.5933    7.3329 C   0  0  0  0  0  0  0  0  0  0  0  0
    6.4873    0.4302    8.5206 O   0  0  0  0  0  0  0  0  0  0  0  0
    6.2293    1.7561    6.1503 S   0  0  0  0  0  3  0  0  0  0  0  0
    7.2451    1.3694    4.9380 C   0  0  0  0  0  0  0  0  0  0  0  0
    7.3732    2.1409    3.6989 C   0  0  0  0  0  0  0  0  0  0  0  0
    6.9777    1.7326    2.4843 C   0  0  0  0  0  0  0  0  0  0  0  0
    6.3196    0.4484    2.1434 C   0  0  0  0  0  0  0  0  0  0  0  0
    6.1595   -0.8745    3.0915 S   0  0  0  0  0  3  0  0  0  0  0  0
    5.3294   -1.9030    1.9056 C   0  0  0  0  0  0  0  0  0  0  0  0
    4.9795   -3.1012    2.0594 O   0  0  0  0  0  0  0  0  0  0  0  0
    5.1827   -1.0898    0.7040 C   0  0  0  0  0  0  0  0  0  0  0  0
    5.7160    0.1373    0.8277 C   0  0  0  0  0  0  0  0  0  0  0  0
    5.5914    0.9358   -0.3905 C   0  0  0  0  0  0  0  0  0  0  0  0
    5.9619    2.1260   -0.5591 O   0  0  0  0  0  0  0  0  0  0  0  0
    4.7722   -0.0972   -1.5836 S   0  0  0  0  0  3  0  0  0  0  0  0
    4.5695   -1.3847   -0.6101 C   0  0  0  0  0  0  0  0  0  0  0  0
    3.9744   -2.6505   -1.0611 C   0  0  0  0  0  0  0  0  0  0  0  0
    2.9497   -3.2813   -0.4689 C   0  0  0  0  0  0  0  0  0  0  0  0
    2.1287   -2.7778    0.6546 C   0  0  0  0  0  0  0  0  0  0  0  0
    1.9491   -1.2236    1.1264 S   0  0  0  0  0  3  0  0  0  0  0  0
    0.7068   -1.5045    2.3635 C   0  0  0  0  0  0  0  0  0  0  0  0
    0.1711   -0.6418    3.1074 O   0  0  0  0  0  0  0  0  0  0  0  0
    0.4193   -2.9336    2.3216 C   0  0  0  0  0  0  0  0  0  0  0  0
    1.1734   -3.5973    1.4310 C   0  0  0  0  0  0  0  0  0  0  0  0
    0.8498   -5.0187    1.3616 C   0  0  0  0  0  0  0  0  0  0  0  0
    1.3894   -5.8864    0.6282 O   0  0  0  0  0  0  0  0  0  0  0  0
   -0.4643   -5.2941    2.5210 S   0  0  0  0  0  3  0  0  0  0  0  0
   -0.6053   -3.7471    3.0100 C   0  0  0  0  0  0  0  0  0  0  0  0
   -1.5491   -3.3047    4.0444 C   0  0  0  0  0  0  0  0  0  0  0  0
   -2.5572   -2.4323    3.8716 C   0  0  0  0  0  0  0  0  0  0  0  0
   -2.9604   -1.7674    2.6025 C   0  0  0  0  0  0  0  0  0  0  0  0
   -2.3457   -2.0558    1.0578 S   0  0  0  0  0  0  0  0  0  0  0  0
   -3.2737   -0.9426    0.2107 C   0  0  0  0  0  0  0  0  0  0  0  0
   -4.1237   -0.3300    1.1349 C   0  0  0  0  0  0  0  0  0  0  0  0
   -3.9538   -0.7849    2.4590 C   0  0  0  0  0  0  0  0  0  0  0  0
   -4.7408   -0.2494    3.4888 C   0  0  0  0  0  0  0  0  0  0  0  0
   -5.7177    0.7256    3.1924 C   0  0  0  0  0  0  0  0  0  0  0  0
   -6.5307    1.2919    4.1883 O   0  0  0  0  0  0  0  0  0  0  0  0
   -6.4524    0.9691    5.5736 C   0  0  0  0  0  0  0  0  0  0  0  0
   -5.9017    1.1557    1.8649 C   0  0  0  0  0  0  0  0  0  0  0  0
   -6.8963    2.1144    1.6110 O   0  0  0  0  0  0  0  0  0  0  0  0
   -7.2137    2.6234    0.3192 C   0  0  0  0  0  0  0  0  0  0  0  0
   -5.1003    0.6252    0.8333 C   0  0  0  0  0  0  0  0  0  0  0  0
   -3.0335   -0.5452   -1.1922 C   0  0  0  0  0  0  0  0  0  0  0  0
   -2.9440    1.0547   -1.7214 S   0  0  0  0  0  0  0  0  0  0  0  0
   -2.4831    0.7287   -3.3042 C   0  0  0  0  0  0  0  0  0  0  0  0
   -2.3509   -0.6529   -3.4373 C   0  0  0  0  0  0  0  0  0  0  0  0
   -2.6590   -1.3656   -2.2641 C   0  0  0  0  0  0  0  0  0  0  0  0
   -2.5666   -2.7613   -2.2440 C   0  0  0  0  0  0  0  0  0  0  0  0
   -2.1284   -3.4497   -3.3963 C   0  0  0  0  0  0  0  0  0  0  0  0
   -1.9924   -4.8470   -3.4182 O   0  0  0  0  0  0  0  0  0  0  0  0
   -2.2280   -5.6976   -2.3008 C   0  0  0  0  0  0  0  0  0  0  0  0
   -1.8088   -2.7307   -4.5671 C   0  0  0  0  0  0  0  0  0  0  0  0
   -1.3856   -3.4522   -5.6944 O   0  0  0  0  0  0  0  0  0  0  0  0
   -1.0641   -2.8668   -6.9526 C   0  0  0  0  0  0  0  0  0  0  0  0
   -1.9136   -1.3237   -4.5828 C   0  0  0  0  0  0  0  0  0  0  0  0
   -2.2550    1.7512   -4.3326 C   0  0  0  0  0  0  0  0  0  0  0  0
   -1.3162    3.0685   -4.1338 S   0  0  0  0  0  3  0  0  0  0  0  0
   -1.6061    3.7633   -5.7453 C   0  0  0  0  0  0  0  0  0  0  0  0
   -1.1325    4.8399   -6.1918 O   0  0  0  0  0  0  0  0  0  0  0  0
   -2.5274    2.8568   -6.4267 C   0  0  0  0  0  0  0  0  0  0  0  0
   -2.8752    1.8019   -5.6721 C   0  0  0  0  0  0  0  0  0  0  0  0
   -3.9245    0.9881   -6.2728 C   0  0  0  0  0  0  0  0  0  0  0  0
   -4.4889   -0.0142   -5.7664 O   0  0  0  0  0  0  0  0  0  0  0  0
   -4.3103    1.7475   -7.8304 S   0  0  0  0  0  3  0  0  0  0  0  0
   -3.2503    2.9847   -7.7106 C   0  0  0  0  0  0  0  0  0  0  0  0
   -3.0447    4.0492   -8.7099 C   0  0  0  0  0  0  0  0  0  0  0  0
   -3.8068    4.1806   -9.7930 C   0  0  0  0  0  0  0  0  0  0  0  0
    8.9319   -1.5309    8.1675 H   0  0  0  0  0  0  0  0  0  0  0  0
    7.7788    3.1427    3.7922 H   0  0  0  0  0  0  0  0  0  0  0  0
    7.1214    2.4357    1.6728 H   0  0  0  0  0  0  0  0  0  0  0  0
    4.3947   -3.0949   -1.9561 H   0  0  0  0  0  0  0  0  0  0  0  0
    2.6618   -4.2346   -0.8885 H   0  0  0  0  0  0  0  0  0  0  0  0
   -1.4537   -3.7728    5.0130 H   0  0  0  0  0  0  0  0  0  0  0  0
   -3.1553   -2.2298    4.7488 H   0  0  0  0  0  0  0  0  0  0  0  0
   -4.6013   -0.5794    4.5050 H   0  0  0  0  0  0  0  0  0  0  0  0
   -7.1869    1.5853    6.1278 H   0  0  0  0  0  0  0  0  0  0  0  0
   -6.6921   -0.1047    5.7359 H   0  0  0  0  0  0  0  0  0  0  0  0
   -5.4376    1.1955    5.9635 H   0  0  0  0  0  0  0  0  0  0  0  0
   -8.0427    3.3576    0.4123 H   0  0  0  0  0  0  0  0  0  0  0  0
   -6.3288    3.1359   -0.1218 H   0  0  0  0  0  0  0  0  0  0  0  0
   -7.5510    1.7980   -0.3452 H   0  0  0  0  0  0  0  0  0  0  0  0
   -5.2606    0.9252   -0.1932 H   0  0  0  0  0  0  0  0  0  0  0  0
   -2.8431   -3.3052   -1.3542 H   0  0  0  0  0  0  0  0  0  0  0  0
   -3.2901   -5.6256   -1.9835 H   0  0  0  0  0  0  0  0  0  0  0  0
   -1.5555   -5.4177   -1.4620 H   0  0  0  0  0  0  0  0  0  0  0  0
   -2.0120   -6.7441   -2.5960 H   0  0  0  0  0  0  0  0  0  0  0  0
   -0.7918   -3.6697   -7.6654 H   0  0  0  0  0  0  0  0  0  0  0  0
   -1.9411   -2.3172   -7.3559 H   0  0  0  0  0  0  0  0  0  0  0  0
   -0.1992   -2.1793   -6.8446 H   0  0  0  0  0  0  0  0  0  0  0  0
   -1.6450   -0.7587   -5.4659 H   0  0  0  0  0  0  0  0  0  0  0  0
   -2.2434    4.7591   -8.5599 H   0  0  0  0  0  0  0  0  0  0  0  0
   -4.6295    3.5085   -9.9951 H   0  0  0  0  0  0  0  0  0  0  0  0
   -3.6172    4.9822  -10.4933 H   0  0  0  0  0  0  0  0  0  0  0  0
  1  2  2  0
  2  3  1  0
  3  4  2  0
  3  5  1  0
  5  6  2  0
  6  7  1  0
  7  8  2  0
  7  9  1  0
  9 10  2  0
 10 11  1  0
 11 12  2  3
 12 13  1  0
 13 14  2  0
 14 15  1  0
 15 16  2  0
 15 17  1  0
 17 18  2  0
 18 19  1  0
 19 20  2  0
 19 21  1  0
 21 22  2  0
 22 23  1  0
 23 24  2  3
 24 25  1  0
 25 26  2  0
 26 27  1  0
 27 28  2  0
 27 29  1  0
 29 30  2  0
 30 31  1  0
 31 32  2  0
 31 33  1  0
 33 34  2  0
 34 35  1  0
 35 36  2  3
 36 37  1  0
 37 38  1  0
 38 39  1  0
 39 40  2  0
 40 41  1  0
 41 42  1  0
 42 43  2  0
 43 44  1  0
 44 45  1  0
 43 46  1  0
 46 47  1  0
 47 48  1  0
 46 49  2  0
 39 50  1  0
 50 51  1  0
 51 52  1  0
 52 53  2  0
 53 54  1  0
 54 55  1  0
 55 56  2  0
 56 57  1  0
 57 58  1  0
 56 59  1  0
 59 60  1  0
 60 61  1  0
 59 62  2  0
 52 63  1  0
 63 64  2  0
 64 65  1  0
 65 66  2  0
 65 67  1  0
 67 68  2  0
 68 69  1  0
 69 70  2  0
 69 71  1  0
 71 72  2  0
 72 73  1  0
 73 74  2  3
  6  1  1  0
 18 13  1  0
 30 25  1  0
 41 37  2  0
 54 50  2  0
 68 63  1  0
 10  5  1  0
 22 17  1  0
 34 29  1  0
 49 40  1  0
 62 53  1  0
 72 67  1  0
  1 75  1  0
 11 76  1  0
 12 77  1  0
 23 78  1  0
 24 79  1  0
 35 80  1  0
 36 81  1  0
 42 82  1  0
 45 83  1  0
 45 84  1  0
 45 85  1  0
 48 86  1  0
 48 87  1  0
 48 88  1  0
 49 89  1  0
 55 90  1  0
 58 91  1  0
 58 92  1  0
 58 93  1  0
 61 94  1  0
 61 95  1  0
 61 96  1  0
 62 97  1  0
 73 98  1  0
 74 99  1  0
 74100  1  0
M  RAD  8   2   2   9   2  14   2  21   2  26   2  33   2  64   2  71   2
M  END

