
     RDKit          3D

233259  0  0  0  0  0  0  0  0999 V2000
    2.9508   -4.0314   13.3567 C   0  0  0  0  0  0  0  0  0  0  0  0
    2.9539   -2.9106   12.5314 C   0  0  0  0  0  0  0  0  0  0  0  0
    1.9283   -2.9276   11.5722 C   0  0  0  0  0  0  0  0  0  0  0  0
    1.6935   -1.9522   10.5862 C   0  0  0  0  0  0  0  0  0  0  0  0
    2.5175   -0.7351   10.4799 C   0  0  0  0  0  0  0  0  0  0  0  0
    2.5623    0.4914   11.6327 S   0  0  0  0  0  0  0  0  0  0  0  0
    3.6293    1.4851   10.7899 C   0  0  0  0  0  0  0  0  0  0  0  0
    4.0419    2.8538   11.2362 C   0  0  0  0  0  0  0  0  0  0  0  0
    3.0732    3.9041   10.7018 C   0  0  0  0  0  0  0  0  0  0  0  0
    3.9506    0.8723    9.5797 C   0  0  0  0  0  0  0  0  0  0  0  0
    5.0156    1.5943    8.3804 Cl  0  0  0  0  0  0  0  0  0  0  0  0
    3.3324   -0.3751    9.4094 C   0  0  0  0  0  0  0  0  0  0  0  0
    3.5836   -1.3900    7.9942 Cl  0  0  0  0  0  0  0  0  0  0  0  0
    0.6051   -2.1702    9.7268 C   0  0  0  0  0  0  0  0  0  0  0  0
   -0.2190   -3.2988    9.8156 C   0  0  0  0  0  0  0  0  0  0  0  0
    0.0292   -4.2862   10.7916 C   0  0  0  0  0  0  0  0  0  0  0  0
   -0.8210   -5.4842   10.9185 C   0  0  0  0  0  0  0  0  0  0  0  0
   -1.0262   -6.6441    9.7167 S   0  0  0  0  0  0  0  0  0  0  0  0
   -2.1162   -7.5977   10.5735 C   0  0  0  0  0  0  0  0  0  0  0  0
   -2.8231   -8.7943   10.0116 C   0  0  0  0  0  0  0  0  0  0  0  0
   -4.1076   -8.3727    9.3072 C   0  0  0  0  0  0  0  0  0  0  0  0
   -2.3567   -7.0008   11.8099 C   0  0  0  0  0  0  0  0  0  0  0  0
   -1.6254   -5.8197   12.0063 C   0  0  0  0  0  0  0  0  0  0  0  0
   -1.7869   -4.8187   13.4451 Cl  0  0  0  0  0  0  0  0  0  0  0  0
   -3.4888   -7.6406   12.9952 Cl  0  0  0  0  0  0  0  0  0  0  0  0
    1.1173   -4.0648   11.6554 C   0  0  0  0  0  0  0  0  0  0  0  0
    1.6866   -5.0459   12.8982 S   0  0  0  0  0  0  0  0  0  0  0  0
   -1.2896   -3.2754    8.9025 C   0  0  0  0  0  0  0  0  0  0  0  0
   -1.3118   -2.1174    8.1264 C   0  0  0  0  0  0  0  0  0  0  0  0
    0.0093   -1.1482    8.5371 S   0  0  0  0  0  0  0  0  0  0  0  0
   -2.2990   -1.8074    7.0775 C   0  0  0  0  0  0  0  0  0  0  0  0
   -2.8552   -2.9226    5.9388 S   0  0  0  0  0  0  0  0  0  0  0  0
   -3.7139   -1.8296    4.9875 C   0  0  0  0  0  0  0  0  0  0  0  0
   -3.5415   -0.5575    5.5307 C   0  0  0  0  0  0  0  0  0  0  0  0
   -2.7729   -0.5436    6.7050 C   0  0  0  0  0  0  0  0  0  0  0  0
   -2.5329    0.6624    7.3750 C   0  0  0  0  0  0  0  0  0  0  0  0
   -2.9893    1.8740    6.8181 C   0  0  0  0  0  0  0  0  0  0  0  0
   -2.7380    3.1117    7.4357 O   0  0  0  0  0  0  0  0  0  0  0  0
   -1.9841    3.2816    8.6323 C   0  0  0  0  0  0  0  0  0  0  0  0
   -3.7012    1.8658    5.6001 C   0  0  0  0  0  0  0  0  0  0  0  0
   -4.0901    3.0967    5.0482 O   0  0  0  0  0  0  0  0  0  0  0  0
   -4.6531    3.2508    3.7449 C   0  0  0  0  0  0  0  0  0  0  0  0
   -3.9953    0.6390    4.9662 C   0  0  0  0  0  0  0  0  0  0  0  0
   -4.2160   -2.1066    3.6386 C   0  0  0  0  0  0  0  0  0  0  0  0
   -5.5179   -1.8472    3.2068 C   0  0  0  0  0  0  0  0  0  0  0  0
   -5.6116   -1.7109    1.8118 C   0  0  0  0  0  0  0  0  0  0  0  0
   -6.7497   -1.2909    1.0926 C   0  0  0  0  0  0  0  0  0  0  0  0
   -8.0641   -1.1545    1.7369 C   0  0  0  0  0  0  0  0  0  0  0  0
   -8.9957   -2.4501    2.2612 S   0  0  0  0  0  0  0  0  0  0  0  0
  -10.2942   -1.5291    2.8029 C   0  0  0  0  0  0  0  0  0  0  0  0
  -11.5754   -2.1026    3.3303 C   0  0  0  0  0  0  0  0  0  0  0  0
  -12.5325   -2.4237    2.1862 C   0  0  0  0  0  0  0  0  0  0  0  0
  -10.0168   -0.1829    2.5612 C   0  0  0  0  0  0  0  0  0  0  0  0
  -11.1277    1.1239    2.9524 Cl  0  0  0  0  0  0  0  0  0  0  0  0
   -8.7578    0.0284    1.9742 C   0  0  0  0  0  0  0  0  0  0  0  0
   -8.1066    1.6231    1.6205 Cl  0  0  0  0  0  0  0  0  0  0  0  0
   -6.5697   -0.9888   -0.2694 C   0  0  0  0  0  0  0  0  0  0  0  0
   -5.3322   -1.1256   -0.9067 C   0  0  0  0  0  0  0  0  0  0  0  0
   -4.2031   -1.5732   -0.1955 C   0  0  0  0  0  0  0  0  0  0  0  0
   -2.8490   -1.5264   -0.7702 C   0  0  0  0  0  0  0  0  0  0  0  0
   -1.9971   -2.8626   -1.3275 S   0  0  0  0  0  0  0  0  0  0  0  0
   -0.5214   -2.0686   -1.5127 C   0  0  0  0  0  0  0  0  0  0  0  0
    0.7651   -2.7464   -1.8841 C   0  0  0  0  0  0  0  0  0  0  0  0
    1.3888   -3.4271   -0.6700 C   0  0  0  0  0  0  0  0  0  0  0  0
   -0.6730   -0.7449   -1.0959 C   0  0  0  0  0  0  0  0  0  0  0  0
   -1.9791   -0.4427   -0.6819 C   0  0  0  0  0  0  0  0  0  0  0  0
   -2.4496    1.1179   -0.0208 Cl  0  0  0  0  0  0  0  0  0  0  0  0
    0.6586    0.3995   -0.9911 Cl  0  0  0  0  0  0  0  0  0  0  0  0
   -4.3824   -1.8595    1.1642 C   0  0  0  0  0  0  0  0  0  0  0  0
   -3.1880   -2.1642    2.3041 S   0  0  0  0  0  0  0  0  0  0  0  0
   -5.3396   -0.6646   -2.2278 C   0  0  0  0  0  0  0  0  0  0  0  0
   -6.5739   -0.1516   -2.6227 C   0  0  0  0  0  0  0  0  0  0  0  0
   -7.6614   -0.2645   -1.3372 S   0  0  0  0  0  0  0  0  0  0  0  0
   -6.7112    0.7259   -3.7865 C   0  0  0  0  0  0  0  0  0  0  0  0
   -6.3427    0.3042   -5.0619 C   0  0  0  0  0  0  0  0  0  0  0  0
   -5.7215    1.3056   -5.8245 C   0  0  0  0  0  0  0  0  0  0  0  0
   -5.0211    1.0842   -7.0229 C   0  0  0  0  0  0  0  0  0  0  0  0
   -5.1041   -0.2049   -7.7297 C   0  0  0  0  0  0  0  0  0  0  0  0
   -6.4299   -0.7016   -8.6359 S   0  0  0  0  0  0  0  0  0  0  0  0
   -5.8049   -2.2109   -9.0430 C   0  0  0  0  0  0  0  0  0  0  0  0
   -6.5125   -3.2071   -9.9099 C   0  0  0  0  0  0  0  0  0  0  0  0
   -6.4644   -2.7771  -11.3731 C   0  0  0  0  0  0  0  0  0  0  0  0
   -4.5457   -2.3466   -8.4615 C   0  0  0  0  0  0  0  0  0  0  0  0
   -3.5452   -3.7827   -8.6245 Cl  0  0  0  0  0  0  0  0  0  0  0  0
   -4.1595   -1.2272   -7.7106 C   0  0  0  0  0  0  0  0  0  0  0  0
   -2.6624   -1.1490   -6.7887 Cl  0  0  0  0  0  0  0  0  0  0  0  0
   -4.1193    2.0821   -7.4262 C   0  0  0  0  0  0  0  0  0  0  0  0
   -3.9489    3.2706   -6.7131 C   0  0  0  0  0  0  0  0  0  0  0  0
   -4.7467    3.5481   -5.5837 C   0  0  0  0  0  0  0  0  0  0  0  0
   -4.5462    4.7753   -4.7934 C   0  0  0  0  0  0  0  0  0  0  0  0
   -4.9377    6.3182   -5.3311 S   0  0  0  0  0  0  0  0  0  0  0  0
   -4.3606    7.1335   -3.9799 C   0  0  0  0  0  0  0  0  0  0  0  0
   -4.4677    8.6148   -3.7701 C   0  0  0  0  0  0  0  0  0  0  0  0
   -5.7686    8.9619   -3.0544 C   0  0  0  0  0  0  0  0  0  0  0  0
   -3.8583    6.1979   -3.0767 C   0  0  0  0  0  0  0  0  0  0  0  0
   -3.9451    4.8756   -3.5408 C   0  0  0  0  0  0  0  0  0  0  0  0
   -3.3162    3.4988   -2.6450 Cl  0  0  0  0  0  0  0  0  0  0  0  0
   -3.1952    6.6263   -1.5047 Cl  0  0  0  0  0  0  0  0  0  0  0  0
   -5.6131    2.5273   -5.1525 C   0  0  0  0  0  0  0  0  0  0  0  0
   -6.3282    2.3637   -3.6421 S   0  0  0  0  0  0  0  0  0  0  0  0
   -2.7823    3.9671   -7.0715 C   0  0  0  0  0  0  0  0  0  0  0  0
   -2.0016    3.2930   -8.0166 C   0  0  0  0  0  0  0  0  0  0  0  0
   -2.8377    1.9079   -8.4939 S   0  0  0  0  0  0  0  0  0  0  0  0
   -0.5268    3.3387   -8.0236 C   0  0  0  0  0  0  0  0  0  0  0  0
    0.2222    3.8211   -6.9445 C   0  0  0  0  0  0  0  0  0  0  0  0
    1.4834    3.2182   -6.8230 C   0  0  0  0  0  0  0  0  0  0  0  0
    2.3400    3.3279   -5.7086 C   0  0  0  0  0  0  0  0  0  0  0  0
    1.9515    4.0880   -4.5090 C   0  0  0  0  0  0  0  0  0  0  0  0
    2.7372    5.4606   -3.9363 S   0  0  0  0  0  0  0  0  0  0  0  0
    1.8039    5.6228   -2.5427 C   0  0  0  0  0  0  0  0  0  0  0  0
    1.9107    6.7590   -1.5709 C   0  0  0  0  0  0  0  0  0  0  0  0
    0.8788    7.8353   -1.8887 C   0  0  0  0  0  0  0  0  0  0  0  0
    0.8642    4.5924   -2.5072 C   0  0  0  0  0  0  0  0  0  0  0  0
   -0.2761    4.3651   -1.1901 Cl  0  0  0  0  0  0  0  0  0  0  0  0
    0.9504    3.7300   -3.6096 C   0  0  0  0  0  0  0  0  0  0  0  0
   -0.0899    2.3279   -3.8296 Cl  0  0  0  0  0  0  0  0  0  0  0  0
    3.4665    2.4922   -5.6863 C   0  0  0  0  0  0  0  0  0  0  0  0
    3.7340    1.5666   -6.6993 C   0  0  0  0  0  0  0  0  0  0  0  0
    2.8845    1.4633   -7.8197 C   0  0  0  0  0  0  0  0  0  0  0  0
    3.0537    0.3876   -8.8115 C   0  0  0  0  0  0  0  0  0  0  0  0
    4.2830    0.3235   -9.9520 S   0  0  0  0  0  0  0  0  0  0  0  0
    3.8846   -1.1963  -10.5563 C   0  0  0  0  0  0  0  0  0  0  0  0
    4.6845   -1.9334  -11.5892 C   0  0  0  0  0  0  0  0  0  0  0  0
    5.8129   -2.7208  -10.9330 C   0  0  0  0  0  0  0  0  0  0  0  0
    2.7917   -1.6893   -9.8429 C   0  0  0  0  0  0  0  0  0  0  0  0
    2.3270   -0.7986   -8.8640 C   0  0  0  0  0  0  0  0  0  0  0  0
    1.0090   -1.1773   -7.7597 Cl  0  0  0  0  0  0  0  0  0  0  0  0
    2.0941   -3.2821  -10.1059 Cl  0  0  0  0  0  0  0  0  0  0  0  0
    1.7621    2.3103   -7.8464 C   0  0  0  0  0  0  0  0  0  0  0  0
    0.4283    2.2266   -8.8702 S   0  0  0  0  0  0  0  0  0  0  0  0
    4.7908    0.6963   -6.3860 C   0  0  0  0  0  0  0  0  0  0  0  0
    5.3353    0.9325   -5.1237 C   0  0  0  0  0  0  0  0  0  0  0  0
    4.5200    2.2243   -4.4039 S   0  0  0  0  0  0  0  0  0  0  0  0
    6.3089    0.0747   -4.4282 C   0  0  0  0  0  0  0  0  0  0  0  0
    6.7813   -1.1572   -4.8824 C   0  0  0  0  0  0  0  0  0  0  0  0
    7.5921   -1.8144   -3.9424 C   0  0  0  0  0  0  0  0  0  0  0  0
    8.1651   -3.0931   -4.0887 C   0  0  0  0  0  0  0  0  0  0  0  0
    7.9297   -3.9188   -5.2873 C   0  0  0  0  0  0  0  0  0  0  0  0
    8.5196   -3.5839   -6.8263 S   0  0  0  0  0  0  0  0  0  0  0  0
    7.8162   -4.9164   -7.5801 C   0  0  0  0  0  0  0  0  0  0  0  0
    8.0199   -5.2909   -9.0174 C   0  0  0  0  0  0  0  0  0  0  0  0
    9.2061   -6.2403   -9.1652 C   0  0  0  0  0  0  0  0  0  0  0  0
    7.1178   -5.6528   -6.6243 C   0  0  0  0  0  0  0  0  0  0  0  0
    6.2578   -7.1428   -6.9829 Cl  0  0  0  0  0  0  0  0  0  0  0  0
    7.1718   -5.0889   -5.3413 C   0  0  0  0  0  0  0  0  0  0  0  0
    6.3283   -5.7643   -3.9519 Cl  0  0  0  0  0  0  0  0  0  0  0  0
    8.9153   -3.5764   -3.0031 C   0  0  0  0  0  0  0  0  0  0  0  0
    9.0802   -2.8558   -1.8165 C   0  0  0  0  0  0  0  0  0  0  0  0
    8.4908   -1.5828   -1.6631 C   0  0  0  0  0  0  0  0  0  0  0  0
    8.5819   -0.8284   -0.4006 C   0  0  0  0  0  0  0  0  0  0  0  0
    7.2728   -0.4934    0.6042 S   0  0  0  0  0  0  0  0  0  0  0  0
    8.1582    0.3096    1.7896 C   0  0  0  0  0  0  0  0  0  0  0  0
    7.5830    0.8274    3.0739 C   0  0  0  0  0  0  0  0  0  0  0  0
    7.7199   -0.2067    4.1867 C   0  0  0  0  0  0  0  0  0  0  0  0
    9.5044    0.3110    1.4180 C   0  0  0  0  0  0  0  0  0  0  0  0
    9.7391   -0.3216    0.1863 C   0  0  0  0  0  0  0  0  0  0  0  0
   11.3278   -0.4228   -0.5580 Cl  0  0  0  0  0  0  0  0  0  0  0  0
   10.7793    1.0291    2.3934 Cl  0  0  0  0  0  0  0  0  0  0  0  0
    7.7526   -1.0927   -2.7533 C   0  0  0  0  0  0  0  0  0  0  0  0
    6.8960    0.3495   -2.8667 S   0  0  0  0  0  0  0  0  0  0  0  0
    9.8274   -3.5521   -0.8501 C   0  0  0  0  0  0  0  0  0  0  0  0
   10.2682   -4.7964   -1.2899 C   0  0  0  0  0  0  0  0  0  0  0  0
    9.7187   -5.0489   -2.8648 S   0  0  0  0  0  0  0  0  0  0  0  0
    3.6491   -4.2189   14.1591 H   0  0  0  0  0  0  0  0  0  0  0  0
    3.6836   -2.1154   12.6250 H   0  0  0  0  0  0  0  0  0  0  0  0
    4.0555    2.8935   12.3467 H   0  0  0  0  0  0  0  0  0  0  0  0
    5.0685    3.0776   10.8725 H   0  0  0  0  0  0  0  0  0  0  0  0
    3.0567    3.8827    9.5918 H   0  0  0  0  0  0  0  0  0  0  0  0
    3.3992    4.9125   11.0320 H   0  0  0  0  0  0  0  0  0  0  0  0
    2.0478    3.7171   11.0875 H   0  0  0  0  0  0  0  0  0  0  0  0
   -2.1573   -9.3100    9.2870 H   0  0  0  0  0  0  0  0  0  0  0  0
   -3.0585   -9.5141   10.8268 H   0  0  0  0  0  0  0  0  0  0  0  0
   -4.6305   -9.2713    8.9166 H   0  0  0  0  0  0  0  0  0  0  0  0
   -4.7835   -7.8463   10.0158 H   0  0  0  0  0  0  0  0  0  0  0  0
   -3.8728   -7.6989    8.4558 H   0  0  0  0  0  0  0  0  0  0  0  0
   -2.0428   -4.0480    8.8310 H   0  0  0  0  0  0  0  0  0  0  0  0
   -2.0075    0.6647    8.3170 H   0  0  0  0  0  0  0  0  0  0  0  0
   -1.9370    4.3606    8.8803 H   0  0  0  0  0  0  0  0  0  0  0  0
   -0.9490    2.8999    8.4919 H   0  0  0  0  0  0  0  0  0  0  0  0
   -2.4773    2.7466    9.4721 H   0  0  0  0  0  0  0  0  0  0  0  0
   -5.6374    2.7399    3.6861 H   0  0  0  0  0  0  0  0  0  0  0  0
   -4.8018    4.3318    3.5404 H   0  0  0  0  0  0  0  0  0  0  0  0
   -3.9611    2.8395    2.9809 H   0  0  0  0  0  0  0  0  0  0  0  0
   -4.5498    0.6209    4.0385 H   0  0  0  0  0  0  0  0  0  0  0  0
   -6.3356   -1.6436    3.8869 H   0  0  0  0  0  0  0  0  0  0  0  0
  -12.0585   -1.3864    4.0298 H   0  0  0  0  0  0  0  0  0  0  0  0
  -11.3545   -3.0334    3.8944 H   0  0  0  0  0  0  0  0  0  0  0  0
  -13.4686   -2.8614    2.5909 H   0  0  0  0  0  0  0  0  0  0  0  0
  -12.0658   -3.1584    1.4943 H   0  0  0  0  0  0  0  0  0  0  0  0
  -12.7829   -1.5000    1.6203 H   0  0  0  0  0  0  0  0  0  0  0  0
    0.5645   -3.5073   -2.6682 H   0  0  0  0  0  0  0  0  0  0  0  0
    1.4799   -2.0098   -2.3088 H   0  0  0  0  0  0  0  0  0  0  0  0
    2.3627   -3.8782   -0.9572 H   0  0  0  0  0  0  0  0  0  0  0  0
    0.7219   -4.2349   -0.3001 H   0  0  0  0  0  0  0  0  0  0  0  0
    1.5617   -2.6897    0.1437 H   0  0  0  0  0  0  0  0  0  0  0  0
   -4.4526   -0.6118   -2.8489 H   0  0  0  0  0  0  0  0  0  0  0  0
   -6.3423   -0.7415   -5.3462 H   0  0  0  0  0  0  0  0  0  0  0  0
   -7.5729   -3.2821   -9.5860 H   0  0  0  0  0  0  0  0  0  0  0  0
   -6.0558   -4.2145   -9.8048 H   0  0  0  0  0  0  0  0  0  0  0  0
   -6.9835   -3.5327  -11.9997 H   0  0  0  0  0  0  0  0  0  0  0  0
   -5.4102   -2.6880  -11.7126 H   0  0  0  0  0  0  0  0  0  0  0  0
   -6.9775   -1.7993  -11.5029 H   0  0  0  0  0  0  0  0  0  0  0  0
   -3.6021    8.9785   -3.1745 H   0  0  0  0  0  0  0  0  0  0  0  0
   -4.4406    9.1270   -4.7545 H   0  0  0  0  0  0  0  0  0  0  0  0
   -5.7940    8.4756   -2.0577 H   0  0  0  0  0  0  0  0  0  0  0  0
   -5.8359   10.0615   -2.9171 H   0  0  0  0  0  0  0  0  0  0  0  0
   -6.6394    8.6209   -3.6534 H   0  0  0  0  0  0  0  0  0  0  0  0
   -2.4315    4.8373   -6.5326 H   0  0  0  0  0  0  0  0  0  0  0  0
   -0.1892    4.4699   -6.1818 H   0  0  0  0  0  0  0  0  0  0  0  0
    2.9296    7.1975   -1.6240 H   0  0  0  0  0  0  0  0  0  0  0  0
    1.7537    6.3870   -0.5358 H   0  0  0  0  0  0  0  0  0  0  0  0
   -0.1475    7.4192   -1.8110 H   0  0  0  0  0  0  0  0  0  0  0  0
    0.9751    8.6727   -1.1678 H   0  0  0  0  0  0  0  0  0  0  0  0
    1.0369    8.2277   -2.9160 H   0  0  0  0  0  0  0  0  0  0  0  0
    5.1160   -1.2044  -12.3072 H   0  0  0  0  0  0  0  0  0  0  0  0
    4.0277   -2.6236  -12.1615 H   0  0  0  0  0  0  0  0  0  0  0  0
    5.4054   -3.4672  -10.2167 H   0  0  0  0  0  0  0  0  0  0  0  0
    6.3987   -3.2571  -11.7116 H   0  0  0  0  0  0  0  0  0  0  0  0
    6.4963   -2.0323  -10.3922 H   0  0  0  0  0  0  0  0  0  0  0  0
    5.0961   -0.1216   -7.0229 H   0  0  0  0  0  0  0  0  0  0  0  0
    6.5145   -1.5794   -5.8419 H   0  0  0  0  0  0  0  0  0  0  0  0
    7.1051   -5.7792   -9.4142 H   0  0  0  0  0  0  0  0  0  0  0  0
    8.2062   -4.3751   -9.6180 H   0  0  0  0  0  0  0  0  0  0  0  0
   10.1376   -5.7461   -8.8179 H   0  0  0  0  0  0  0  0  0  0  0  0
    9.3263   -6.5219  -10.2315 H   0  0  0  0  0  0  0  0  0  0  0  0
    9.0384   -7.1623   -8.5687 H   0  0  0  0  0  0  0  0  0  0  0  0
    6.5084    1.0685    2.9256 H   0  0  0  0  0  0  0  0  0  0  0  0
    8.1050    1.7630    3.3715 H   0  0  0  0  0  0  0  0  0  0  0  0
    7.2126   -1.1506    3.8995 H   0  0  0  0  0  0  0  0  0  0  0  0
    8.7914   -0.4138    4.3845 H   0  0  0  0  0  0  0  0  0  0  0  0
    7.2533    0.1809    5.1179 H   0  0  0  0  0  0  0  0  0  0  0  0
   10.0401   -3.1734    0.1430 H   0  0  0  0  0  0  0  0  0  0  0  0
   10.8593   -5.4940   -0.7090 H   0  0  0  0  0  0  0  0  0  0  0  0
  1  2  2  0
  2  3  1  0
  3  4  2  0
  4  5  1  0
  5  6  1  0
  6  7  1  0
  7  8  1  0
  8  9  1  0
  7 10  2  0
 10 11  1  0
 10 12  1  0
 12 13  1  0
  4 14  1  0
 14 15  2  0
 15 16  1  0
 16 17  1  0
 17 18  1  0
 18 19  1  0
 19 20  1  0
 20 21  1  0
 19 22  2  0
 22 23  1  0
 23 24  1  0
 22 25  1  0
 16 26  2  0
 26 27  1  0
 15 28  1  0
 28 29  2  0
 29 30  1  0
 29 31  1  0
 31 32  1  0
 32 33  1  0
 33 34  2  0
 34 35  1  0
 35 36  1  0
 36 37  2  0
 37 38  1  0
 38 39  1  0
 37 40  1  0
 40 41  1  0
 41 42  1  0
 40 43  2  0
 33 44  1  0
 44 45  2  0
 45 46  1  0
 46 47  2  0
 47 48  1  0
 48 49  1  0
 49 50  1  0
 50 51  1  0
 51 52  1  0
 50 53  2  0
 53 54  1  0
 53 55  1  0
 55 56  1  0
 47 57  1  0
 57 58  2  0
 58 59  1  0
 59 60  1  0
 60 61  1  0
 61 62  1  0
 62 63  1  0
 63 64  1  0
 62 65  2  0
 65 66  1  0
 66 67  1  0
 65 68  1  0
 59 69  2  0
 69 70  1  0
 58 71  1  0
 71 72  2  0
 72 73  1  0
 72 74  1  0
 74 75  2  0
 75 76  1  0
 76 77  2  0
 77 78  1  0
 78 79  1  0
 79 80  1  0
 80 81  1  0
 81 82  1  0
 80 83  2  0
 83 84  1  0
 83 85  1  0
 85 86  1  0
 77 87  1  0
 87 88  2  0
 88 89  1  0
 89 90  1  0
 90 91  1  0
 91 92  1  0
 92 93  1  0
 93 94  1  0
 92 95  2  0
 95 96  1  0
 96 97  1  0
 95 98  1  0
 89 99  2  0
 99100  1  0
 88101  1  0
101102  2  0
102103  1  0
102104  1  0
104105  2  0
105106  1  0
106107  2  0
107108  1  0
108109  1  0
109110  1  0
110111  1  0
111112  1  0
110113  2  0
113114  1  0
113115  1  0
115116  1  0
107117  1  0
117118  2  0
118119  1  0
119120  1  0
120121  1  0
121122  1  0
122123  1  0
123124  1  0
122125  2  0
125126  1  0
126127  1  0
125128  1  0
119129  2  0
129130  1  0
118131  1  0
131132  2  0
132133  1  0
132134  1  0
134135  2  0
135136  1  0
136137  2  0
137138  1  0
138139  1  0
139140  1  0
140141  1  0
141142  1  0
140143  2  0
143144  1  0
143145  1  0
145146  1  0
137147  1  0
147148  2  0
148149  1  0
149150  1  0
150151  1  0
151152  1  0
152153  1  0
153154  1  0
152155  2  0
155156  1  0
156157  1  0
155158  1  0
149159  2  0
159160  1  0
148161  1  0
161162  2  0
162163  1  0
 27  1  1  0
 35 31  2  0
 70 44  1  0
100 74  1  0
130104  1  0
160134  1  0
 26  3  1  0
 43 34  1  0
 69 46  1  0
 99 76  1  0
129106  1  0
159136  1  0
 12  5  2  0
 30 14  1  0
 55 48  2  0
 73 57  1  0
 85 78  2  0
103 87  1  0
115108  2  0
133117  1  0
145138  2  0
163147  1  0
 23 17  2  0
 66 60  2  0
 96 90  2  0
126120  2  0
156150  2  0
  1164  1  0
  2165  1  0
  8166  1  0
  8167  1  0
  9168  1  0
  9169  1  0
  9170  1  0
 20171  1  0
 20172  1  0
 21173  1  0
 21174  1  0
 21175  1  0
 28176  1  0
 36177  1  0
 39178  1  0
 39179  1  0
 39180  1  0
 42181  1  0
 42182  1  0
 42183  1  0
 43184  1  0
 45185  1  0
 51186  1  0
 51187  1  0
 52188  1  0
 52189  1  0
 52190  1  0
 63191  1  0
 63192  1  0
 64193  1  0
 64194  1  0
 64195  1  0
 71196  1  0
 75197  1  0
 81198  1  0
 81199  1  0
 82200  1  0
 82201  1  0
 82202  1  0
 93203  1  0
 93204  1  0
 94205  1  0
 94206  1  0
 94207  1  0
101208  1  0
105209  1  0
111210  1  0
111211  1  0
112212  1  0
112213  1  0
112214  1  0
123215  1  0
123216  1  0
124217  1  0
124218  1  0
124219  1  0
131220  1  0
135221  1  0
141222  1  0
141223  1  0
142224  1  0
142225  1  0
142226  1  0
153227  1  0
153228  1  0
154229  1  0
154230  1  0
154231  1  0
161232  1  0
162233  1  0
M  END

