
     RDKit          3D

215235  0  0  0  0  0  0  0  0999 V2000
   -0.0428   -4.2531   11.3489 C   0  0  0  0  0  0  0  0  0  0  0  0
    0.3907   -3.2408   10.5026 C   0  0  0  0  0  0  0  0  0  0  0  0
   -0.5626   -2.8774    9.5367 C   0  0  0  0  0  0  0  0  0  0  0  0
   -0.3938   -1.9329    8.5069 C   0  0  0  0  0  0  0  0  0  0  0  0
    0.8502   -1.1518    8.3390 C   0  0  0  0  0  0  0  0  0  0  0  0
    1.5846   -1.2358    7.1455 C   0  0  0  0  0  0  0  0  0  0  0  0
    2.7211   -0.4477    6.9558 C   0  0  0  0  0  0  0  0  0  0  0  0
    3.1389    0.4305    7.9596 C   0  0  0  0  0  0  0  0  0  0  0  0
    4.5722    1.4778    7.6841 S   0  0  0  0  0  0  0  0  0  0  0  0
    5.8134    0.1983    8.0705 C   0  0  0  0  0  0  0  0  0  0  0  0
    6.5652   -0.1890    6.8043 C   0  0  0  0  0  0  0  0  0  0  0  0
    2.4271    0.5084    9.1619 C   0  0  0  0  0  0  0  0  0  0  0  0
    2.8206    1.3618   10.1421 F   0  0  0  0  0  0  0  0  0  0  0  0
    1.2853   -0.2794    9.3504 C   0  0  0  0  0  0  0  0  0  0  0  0
   -1.4615   -1.7935    7.5983 C   0  0  0  0  0  0  0  0  0  0  0  0
   -2.6383   -2.5450    7.6781 C   0  0  0  0  0  0  0  0  0  0  0  0
   -2.8090   -3.4899    8.7120 C   0  0  0  0  0  0  0  0  0  0  0  0
   -4.0225   -4.3316    8.8191 C   0  0  0  0  0  0  0  0  0  0  0  0
   -4.3881   -5.1916    7.7728 C   0  0  0  0  0  0  0  0  0  0  0  0
   -5.5223   -5.9967    7.8871 C   0  0  0  0  0  0  0  0  0  0  0  0
   -6.2950   -5.9676    9.0564 C   0  0  0  0  0  0  0  0  0  0  0  0
   -7.7434   -7.0235    9.1971 S   0  0  0  0  0  0  0  0  0  0  0  0
   -6.8332   -8.4867    9.7949 C   0  0  0  0  0  0  0  0  0  0  0  0
   -6.5325   -8.3795   11.2860 C   0  0  0  0  0  0  0  0  0  0  0  0
   -5.9406   -5.0986   10.0981 C   0  0  0  0  0  0  0  0  0  0  0  0
   -4.8096   -4.2853    9.9793 C   0  0  0  0  0  0  0  0  0  0  0  0
   -6.6959   -5.0276   11.2228 F   0  0  0  0  0  0  0  0  0  0  0  0
   -1.7482   -3.6243    9.6271 C   0  0  0  0  0  0  0  0  0  0  0  0
   -1.5982   -4.7181   10.8997 S   0  0  0  0  0  0  0  0  0  0  0  0
   -3.5422   -2.2711    6.6288 C   0  0  0  0  0  0  0  0  0  0  0  0
   -3.0588   -1.3168    5.7319 C   0  0  0  0  0  0  0  0  0  0  0  0
   -1.5414   -0.7897    6.2529 S   0  0  0  0  0  0  0  0  0  0  0  0
   -3.6345   -0.9850    4.4257 C   0  0  0  0  0  0  0  0  0  0  0  0
   -3.0086   -0.2004    3.4662 C   0  0  0  0  0  0  0  0  0  0  0  0
   -3.6344   -0.2403    2.2070 C   0  0  0  0  0  0  0  0  0  0  0  0
   -3.1705    0.3680    1.0152 C   0  0  0  0  0  0  0  0  0  0  0  0
   -1.8288    1.0181    0.9490 C   0  0  0  0  0  0  0  0  0  0  0  0
   -1.4777    2.0662    1.8211 C   0  0  0  0  0  0  0  0  0  0  0  0
   -0.1583    2.5278    1.8774 C   0  0  0  0  0  0  0  0  0  0  0  0
    0.8109    1.9890    1.0273 C   0  0  0  0  0  0  0  0  0  0  0  0
    2.5128    2.5765    1.1244 S   0  0  0  0  0  0  0  0  0  0  0  0
    3.1952    1.0856    1.9228 C   0  0  0  0  0  0  0  0  0  0  0  0
    2.7117    0.9305    3.3683 C   0  0  0  0  0  0  0  0  0  0  0  0
    0.4530    1.0128    0.0928 C   0  0  0  0  0  0  0  0  0  0  0  0
    1.3739    0.4846   -0.7523 F   0  0  0  0  0  0  0  0  0  0  0  0
   -0.8515    0.5111    0.0752 C   0  0  0  0  0  0  0  0  0  0  0  0
   -3.9180    0.1011   -0.1490 C   0  0  0  0  0  0  0  0  0  0  0  0
   -4.9851   -0.8032   -0.1772 C   0  0  0  0  0  0  0  0  0  0  0  0
   -5.4411   -1.4153    1.0062 C   0  0  0  0  0  0  0  0  0  0  0  0
   -6.5059   -2.4463    0.9780 C   0  0  0  0  0  0  0  0  0  0  0  0
   -7.7704   -2.1434    0.4538 C   0  0  0  0  0  0  0  0  0  0  0  0
   -8.7437   -3.1364    0.3436 C   0  0  0  0  0  0  0  0  0  0  0  0
   -8.4676   -4.4477    0.7638 C   0  0  0  0  0  0  0  0  0  0  0  0
   -9.7373   -5.7066    0.6217 S   0  0  0  0  0  0  0  0  0  0  0  0
   -9.0580   -6.5015   -0.8774 C   0  0  0  0  0  0  0  0  0  0  0  0
   -9.1529   -5.5908   -2.1076 C   0  0  0  0  0  0  0  0  0  0  0  0
   -7.2162   -4.7445    1.3203 C   0  0  0  0  0  0  0  0  0  0  0  0
   -6.2337   -3.7582    1.4030 C   0  0  0  0  0  0  0  0  0  0  0  0
   -6.9339   -6.0014    1.7430 F   0  0  0  0  0  0  0  0  0  0  0  0
   -4.7545   -1.0890    2.1907 C   0  0  0  0  0  0  0  0  0  0  0  0
   -4.9671   -1.7472    3.7279 S   0  0  0  0  0  0  0  0  0  0  0  0
   -5.4357   -1.0865   -1.4805 C   0  0  0  0  0  0  0  0  0  0  0  0
   -4.7681   -0.3602   -2.4581 C   0  0  0  0  0  0  0  0  0  0  0  0
   -3.5852    0.5967   -1.7244 S   0  0  0  0  0  0  0  0  0  0  0  0
   -4.7175   -0.7175   -3.8767 C   0  0  0  0  0  0  0  0  0  0  0  0
   -3.8684   -2.0675   -4.3910 S   0  0  0  0  0  0  0  0  0  0  0  0
   -3.3908   -1.5136   -5.9136 C   0  0  0  0  0  0  0  0  0  0  0  0
   -3.9622   -0.2396   -6.0495 C   0  0  0  0  0  0  0  0  0  0  0  0
   -4.6696    0.2033   -4.9164 C   0  0  0  0  0  0  0  0  0  0  0  0
   -5.1626    1.5063   -4.8510 C   0  0  0  0  0  0  0  0  0  0  0  0
   -4.9870    2.3744   -5.9454 C   0  0  0  0  0  0  0  0  0  0  0  0
   -5.5145    3.6794   -5.9491 O   0  0  0  0  0  0  0  0  0  0  0  0
   -6.1280    4.3127   -4.8237 C   0  0  0  0  0  0  0  0  0  0  0  0
   -4.2735    1.9366   -7.0784 C   0  0  0  0  0  0  0  0  0  0  0  0
   -4.0812    2.8551   -8.1256 O   0  0  0  0  0  0  0  0  0  0  0  0
   -3.3920    2.5633   -9.3389 C   0  0  0  0  0  0  0  0  0  0  0  0
   -3.7524    0.6264   -7.1259 C   0  0  0  0  0  0  0  0  0  0  0  0
   -2.0227   -1.8279   -6.3728 C   0  0  0  0  0  0  0  0  0  0  0  0
   -0.8342   -0.6601   -6.1810 S   0  0  0  0  0  0  0  0  0  0  0  0
    0.4659   -1.6484   -5.8176 C   0  0  0  0  0  0  0  0  0  0  0  0
   -0.0141   -2.9562   -5.8255 C   0  0  0  0  0  0  0  0  0  0  0  0
   -1.3778   -3.0572   -6.1725 C   0  0  0  0  0  0  0  0  0  0  0  0
   -2.0004   -4.3106   -6.2371 C   0  0  0  0  0  0  0  0  0  0  0  0
   -1.2415   -5.4806   -6.0106 C   0  0  0  0  0  0  0  0  0  0  0  0
   -1.7801   -6.7651   -6.1828 O   0  0  0  0  0  0  0  0  0  0  0  0
   -3.0876   -7.0453   -6.6659 C   0  0  0  0  0  0  0  0  0  0  0  0
    0.1018   -5.3596   -5.5967 C   0  0  0  0  0  0  0  0  0  0  0  0
    0.8781   -6.4938   -5.3511 O   0  0  0  0  0  0  0  0  0  0  0  0
    1.3955   -7.2788   -6.4220 C   0  0  0  0  0  0  0  0  0  0  0  0
    0.6898   -4.0994   -5.4420 C   0  0  0  0  0  0  0  0  0  0  0  0
    1.6822   -1.1108   -5.1863 C   0  0  0  0  0  0  0  0  0  0  0  0
    1.6359    0.2109   -4.1666 S   0  0  0  0  0  0  0  0  0  0  0  0
    3.2814    0.4078   -3.9409 C   0  0  0  0  0  0  0  0  0  0  0  0
    3.9268   -0.6028   -4.6883 C   0  0  0  0  0  0  0  0  0  0  0  0
    3.0215   -1.4355   -5.3917 C   0  0  0  0  0  0  0  0  0  0  0  0
    3.4896   -2.4444   -6.2325 C   0  0  0  0  0  0  0  0  0  0  0  0
    4.8690   -2.7126   -6.2918 C   0  0  0  0  0  0  0  0  0  0  0  0
    5.3504   -3.7999   -7.0342 O   0  0  0  0  0  0  0  0  0  0  0  0
    4.7844   -5.1024   -6.9533 C   0  0  0  0  0  0  0  0  0  0  0  0
    5.7830   -1.8981   -5.5978 C   0  0  0  0  0  0  0  0  0  0  0  0
    7.1493   -2.1827   -5.7199 O   0  0  0  0  0  0  0  0  0  0  0  0
    8.1863   -1.4532   -5.0811 C   0  0  0  0  0  0  0  0  0  0  0  0
    5.3094   -0.8418   -4.7854 C   0  0  0  0  0  0  0  0  0  0  0  0
    3.8165    1.6117   -3.2635 C   0  0  0  0  0  0  0  0  0  0  0  0
    3.0077    2.5441   -2.6033 C   0  0  0  0  0  0  0  0  0  0  0  0
    3.6551    3.7487   -2.3003 C   0  0  0  0  0  0  0  0  0  0  0  0
    3.0655    4.9019   -1.7257 C   0  0  0  0  0  0  0  0  0  0  0  0
    1.6225    4.9748   -1.3680 C   0  0  0  0  0  0  0  0  0  0  0  0
    1.2277    5.3945   -0.0853 C   0  0  0  0  0  0  0  0  0  0  0  0
   -0.1237    5.4700    0.2536 C   0  0  0  0  0  0  0  0  0  0  0  0
   -1.1102    5.1266   -0.6833 C   0  0  0  0  0  0  0  0  0  0  0  0
   -2.8397    5.2232   -0.2205 S   0  0  0  0  0  0  0  0  0  0  0  0
   -3.0582    6.9027   -0.9095 C   0  0  0  0  0  0  0  0  0  0  0  0
   -4.4020    7.4696   -0.4726 C   0  0  0  0  0  0  0  0  0  0  0  0
   -0.7253    4.7165   -1.9707 C   0  0  0  0  0  0  0  0  0  0  0  0
   -1.6664    4.3646   -2.8868 F   0  0  0  0  0  0  0  0  0  0  0  0
    0.6268    4.6742   -2.3206 C   0  0  0  0  0  0  0  0  0  0  0  0
    3.9151    6.0083   -1.5404 C   0  0  0  0  0  0  0  0  0  0  0  0
    5.2694    5.9927   -1.8914 C   0  0  0  0  0  0  0  0  0  0  0  0
    5.8482    4.8469   -2.4761 C   0  0  0  0  0  0  0  0  0  0  0  0
    7.2516    4.8373   -2.9442 C   0  0  0  0  0  0  0  0  0  0  0  0
    7.6806    5.7763   -3.8908 C   0  0  0  0  0  0  0  0  0  0  0  0
    9.0077    5.7941   -4.3190 C   0  0  0  0  0  0  0  0  0  0  0  0
    9.9206    4.8605   -3.8081 C   0  0  0  0  0  0  0  0  0  0  0  0
   11.6390    4.9210   -4.3356 S   0  0  0  0  0  0  0  0  0  0  0  0
   11.4029    3.8841   -5.8275 C   0  0  0  0  0  0  0  0  0  0  0  0
   12.0757    4.5516   -7.0173 C   0  0  0  0  0  0  0  0  0  0  0  0
    9.4952    3.9144   -2.8721 C   0  0  0  0  0  0  0  0  0  0  0  0
    8.1669    3.8969   -2.4407 C   0  0  0  0  0  0  0  0  0  0  0  0
   10.3729    3.0072   -2.3658 F   0  0  0  0  0  0  0  0  0  0  0  0
    5.0042    3.7373   -2.6694 C   0  0  0  0  0  0  0  0  0  0  0  0
    5.3588    2.2732   -3.4362 S   0  0  0  0  0  0  0  0  0  0  0  0
    5.9161    7.2104   -1.6117 C   0  0  0  0  0  0  0  0  0  0  0  0
    5.0684    8.1780   -1.0802 C   0  0  0  0  0  0  0  0  0  0  0  0
    3.5182    7.5335   -0.9433 S   0  0  0  0  0  0  0  0  0  0  0  0
    0.5402   -4.6913   12.1539 H   0  0  0  0  0  0  0  0  0  0  0  0
    1.3763   -2.8016   10.5822 H   0  0  0  0  0  0  0  0  0  0  0  0
    1.2724   -1.9108    6.3572 H   0  0  0  0  0  0  0  0  0  0  0  0
    3.2763   -0.5266    6.0357 H   0  0  0  0  0  0  0  0  0  0  0  0
    5.3550   -0.7119    8.5244 H   0  0  0  0  0  0  0  0  0  0  0  0
    6.5222    0.6267    8.8064 H   0  0  0  0  0  0  0  0  0  0  0  0
    5.8535   -0.5778    6.0413 H   0  0  0  0  0  0  0  0  0  0  0  0
    7.2903   -0.9996    7.0365 H   0  0  0  0  0  0  0  0  0  0  0  0
    7.1159    0.6794    6.4013 H   0  0  0  0  0  0  0  0  0  0  0  0
    0.7267   -0.1933   10.2756 H   0  0  0  0  0  0  0  0  0  0  0  0
   -3.7922   -5.2434    6.8649 H   0  0  0  0  0  0  0  0  0  0  0  0
   -5.8019   -6.6531    7.0672 H   0  0  0  0  0  0  0  0  0  0  0  0
   -5.8876   -8.6263    9.2211 H   0  0  0  0  0  0  0  0  0  0  0  0
   -7.4661   -9.3817    9.6220 H   0  0  0  0  0  0  0  0  0  0  0  0
   -7.4676   -8.1734   11.8526 H   0  0  0  0  0  0  0  0  0  0  0  0
   -6.1065   -9.3442   11.6461 H   0  0  0  0  0  0  0  0  0  0  0  0
   -5.7950   -7.5798   11.4786 H   0  0  0  0  0  0  0  0  0  0  0  0
   -4.5467   -3.6195   10.7903 H   0  0  0  0  0  0  0  0  0  0  0  0
   -4.4933   -2.7685    6.5010 H   0  0  0  0  0  0  0  0  0  0  0  0
   -2.0851    0.3214    3.6669 H   0  0  0  0  0  0  0  0  0  0  0  0
   -2.2208    2.4832    2.4950 H   0  0  0  0  0  0  0  0  0  0  0  0
    0.1080    3.2915    2.5941 H   0  0  0  0  0  0  0  0  0  0  0  0
    2.9315    0.1753    1.3445 H   0  0  0  0  0  0  0  0  0  0  0  0
    4.3013    1.1811    1.9264 H   0  0  0  0  0  0  0  0  0  0  0  0
    3.2166    0.0505    3.8124 H   0  0  0  0  0  0  0  0  0  0  0  0
    2.9687    1.8359    3.9589 H   0  0  0  0  0  0  0  0  0  0  0  0
    1.6161    0.7656    3.3990 H   0  0  0  0  0  0  0  0  0  0  0  0
   -1.0818   -0.3120   -0.5925 H   0  0  0  0  0  0  0  0  0  0  0  0
   -7.9956   -1.1385    0.1109 H   0  0  0  0  0  0  0  0  0  0  0  0
   -9.7139   -2.8933   -0.0832 H   0  0  0  0  0  0  0  0  0  0  0  0
   -7.9975   -6.7945   -0.7152 H   0  0  0  0  0  0  0  0  0  0  0  0
   -9.6422   -7.4258   -1.0744 H   0  0  0  0  0  0  0  0  0  0  0  0
   -8.9534   -6.1816   -3.0203 H   0  0  0  0  0  0  0  0  0  0  0  0
   -8.4156   -4.7662   -2.0305 H   0  0  0  0  0  0  0  0  0  0  0  0
  -10.1732   -5.1637   -2.1790 H   0  0  0  0  0  0  0  0  0  0  0  0
   -5.2531   -4.0142    1.7882 H   0  0  0  0  0  0  0  0  0  0  0  0
   -6.1648   -1.8514   -1.7238 H   0  0  0  0  0  0  0  0  0  0  0  0
   -5.6859    1.8290   -3.9634 H   0  0  0  0  0  0  0  0  0  0  0  0
   -6.5967    5.2600   -5.1498 H   0  0  0  0  0  0  0  0  0  0  0  0
   -6.9126    3.6617   -4.4003 H   0  0  0  0  0  0  0  0  0  0  0  0
   -5.3594    4.5368   -4.0562 H   0  0  0  0  0  0  0  0  0  0  0  0
   -3.3763    3.4707   -9.9674 H   0  0  0  0  0  0  0  0  0  0  0  0
   -3.9118    1.7540   -9.8969 H   0  0  0  0  0  0  0  0  0  0  0  0
   -2.3381    2.2776   -9.1195 H   0  0  0  0  0  0  0  0  0  0  0  0
   -3.1871    0.2826   -7.9800 H   0  0  0  0  0  0  0  0  0  0  0  0
   -3.0435   -4.3751   -6.5157 H   0  0  0  0  0  0  0  0  0  0  0  0
   -3.1675   -8.1324   -6.8764 H   0  0  0  0  0  0  0  0  0  0  0  0
   -3.2782   -6.4906   -7.6068 H   0  0  0  0  0  0  0  0  0  0  0  0
   -3.8406   -6.7865   -5.8887 H   0  0  0  0  0  0  0  0  0  0  0  0
    0.5968   -7.9386   -6.8373 H   0  0  0  0  0  0  0  0  0  0  0  0
    2.2347   -7.9037   -6.0476 H   0  0  0  0  0  0  0  0  0  0  0  0
    1.7935   -6.6174   -7.2190 H   0  0  0  0  0  0  0  0  0  0  0  0
    1.7042   -4.0415   -5.0645 H   0  0  0  0  0  0  0  0  0  0  0  0
    2.7935   -3.0211   -6.8326 H   0  0  0  0  0  0  0  0  0  0  0  0
    5.2874   -5.7715   -7.6863 H   0  0  0  0  0  0  0  0  0  0  0  0
    4.9353   -5.5235   -5.9351 H   0  0  0  0  0  0  0  0  0  0  0  0
    3.7007   -5.0829   -7.1927 H   0  0  0  0  0  0  0  0  0  0  0  0
    9.1662   -1.8781   -5.3717 H   0  0  0  0  0  0  0  0  0  0  0  0
    8.1641   -0.3888   -5.3961 H   0  0  0  0  0  0  0  0  0  0  0  0
    8.0845   -1.5237   -3.9780 H   0  0  0  0  0  0  0  0  0  0  0  0
    5.9947   -0.2376   -4.2227 H   0  0  0  0  0  0  0  0  0  0  0  0
    1.9592    2.3663   -2.4007 H   0  0  0  0  0  0  0  0  0  0  0  0
    1.9684    5.6437    0.6610 H   0  0  0  0  0  0  0  0  0  0  0  0
   -0.4137    5.7949    1.2420 H   0  0  0  0  0  0  0  0  0  0  0  0
   -2.2513    7.5724   -0.5477 H   0  0  0  0  0  0  0  0  0  0  0  0
   -3.0206    6.8583   -2.0216 H   0  0  0  0  0  0  0  0  0  0  0  0
   -5.2320    6.8258   -0.8399 H   0  0  0  0  0  0  0  0  0  0  0  0
   -4.4472    7.5372    0.6375 H   0  0  0  0  0  0  0  0  0  0  0  0
   -4.5309    8.4954   -0.8928 H   0  0  0  0  0  0  0  0  0  0  0  0
    0.9040    4.3846   -3.3302 H   0  0  0  0  0  0  0  0  0  0  0  0
    6.9812    6.5036   -4.2951 H   0  0  0  0  0  0  0  0  0  0  0  0
    9.3272    6.5338   -5.0352 H   0  0  0  0  0  0  0  0  0  0  0  0
   11.8651    2.8895   -5.6453 H   0  0  0  0  0  0  0  0  0  0  0  0
   10.3271    3.7315   -6.0627 H   0  0  0  0  0  0  0  0  0  0  0  0
   11.9296    3.9366   -7.9333 H   0  0  0  0  0  0  0  0  0  0  0  0
   11.6294    5.5540   -7.1913 H   0  0  0  0  0  0  0  0  0  0  0  0
   13.1666    4.6681   -6.8316 H   0  0  0  0  0  0  0  0  0  0  0  0
    7.8518    3.1619   -1.7083 H   0  0  0  0  0  0  0  0  0  0  0  0
    6.9683    7.3947   -1.7793 H   0  0  0  0  0  0  0  0  0  0  0  0
    5.3579    9.1799   -0.8080 H   0  0  0  0  0  0  0  0  0  0  0  0
  1  2  2  0
  2  3  1  0
  3  4  2  0
  4  5  1  0
  5  6  2  0
  6  7  1  0
  7  8  2  0
  8  9  1  0
  9 10  1  0
 10 11  1  0
  8 12  1  0
 12 13  1  0
 12 14  2  0
  4 15  1  0
 15 16  2  0
 16 17  1  0
 17 18  1  0
 18 19  2  0
 19 20  1  0
 20 21  2  0
 21 22  1  0
 22 23  1  0
 23 24  1  0
 21 25  1  0
 25 26  2  0
 25 27  1  0
 17 28  2  0
 28 29  1  0
 16 30  1  0
 30 31  2  0
 31 32  1  0
 31 33  1  0
 33 34  2  0
 34 35  1  0
 35 36  2  0
 36 37  1  0
 37 38  2  0
 38 39  1  0
 39 40  2  0
 40 41  1  0
 41 42  1  0
 42 43  1  0
 40 44  1  0
 44 45  1  0
 44 46  2  0
 36 47  1  0
 47 48  2  0
 48 49  1  0
 49 50  1  0
 50 51  2  0
 51 52  1  0
 52 53  2  0
 53 54  1  0
 54 55  1  0
 55 56  1  0
 53 57  1  0
 57 58  2  0
 57 59  1  0
 49 60  2  0
 60 61  1  0
 48 62  1  0
 62 63  2  0
 63 64  1  0
 63 65  1  0
 65 66  1  0
 66 67  1  0
 67 68  2  0
 68 69  1  0
 69 70  1  0
 70 71  2  0
 71 72  1  0
 72 73  1  0
 71 74  1  0
 74 75  1  0
 75 76  1  0
 74 77  2  0
 67 78  1  0
 78 79  1  0
 79 80  1  0
 80 81  2  0
 81 82  1  0
 82 83  1  0
 83 84  2  0
 84 85  1  0
 85 86  1  0
 84 87  1  0
 87 88  1  0
 88 89  1  0
 87 90  2  0
 80 91  1  0
 91 92  1  0
 92 93  1  0
 93 94  2  0
 94 95  1  0
 95 96  1  0
 96 97  2  0
 97 98  1  0
 98 99  1  0
 97100  1  0
100101  1  0
101102  1  0
100103  2  0
 93104  1  0
104105  2  0
105106  1  0
106107  2  0
107108  1  0
108109  2  0
109110  1  0
110111  2  0
111112  1  0
112113  1  0
113114  1  0
111115  1  0
115116  1  0
115117  2  0
107118  1  0
118119  2  0
119120  1  0
120121  1  0
121122  2  0
122123  1  0
123124  2  0
124125  1  0
125126  1  0
126127  1  0
124128  1  0
128129  2  0
128130  1  0
120131  2  0
131132  1  0
119133  1  0
133134  2  0
134135  1  0
 29  1  1  0
 61 33  1  0
 69 65  2  0
 82 78  2  0
 95 91  2  0
132104  1  0
 28  3  1  0
 60 35  1  0
 77 68  1  0
 90 81  1  0
103 94  1  0
131106  1  0
 14  5  1  0
 32 15  1  0
 46 37  1  0
 64 47  1  0
117108  1  0
135118  1  0
 26 18  1  0
 58 50  1  0
129121  1  0
  1136  1  0
  2137  1  0
  6138  1  0
  7139  1  0
 10140  1  0
 10141  1  0
 11142  1  0
 11143  1  0
 11144  1  0
 14145  1  0
 19146  1  0
 20147  1  0
 23148  1  0
 23149  1  0
 24150  1  0
 24151  1  0
 24152  1  0
 26153  1  0
 30154  1  0
 34155  1  0
 38156  1  0
 39157  1  0
 42158  1  0
 42159  1  0
 43160  1  0
 43161  1  0
 43162  1  0
 46163  1  0
 51164  1  0
 52165  1  0
 55166  1  0
 55167  1  0
 56168  1  0
 56169  1  0
 56170  1  0
 58171  1  0
 62172  1  0
 70173  1  0
 73174  1  0
 73175  1  0
 73176  1  0
 76177  1  0
 76178  1  0
 76179  1  0
 77180  1  0
 83181  1  0
 86182  1  0
 86183  1  0
 86184  1  0
 89185  1  0
 89186  1  0
 89187  1  0
 90188  1  0
 96189  1  0
 99190  1  0
 99191  1  0
 99192  1  0
102193  1  0
102194  1  0
102195  1  0
103196  1  0
105197  1  0
109198  1  0
110199  1  0
113200  1  0
113201  1  0
114202  1  0
114203  1  0
114204  1  0
117205  1  0
122206  1  0
123207  1  0
126208  1  0
126209  1  0
127210  1  0
127211  1  0
127212  1  0
129213  1  0
133214  1  0
134215  1  0
M  END

