
     RDKit          3D

238254  0  0  0  0  0  0  0  0999 V2000
    6.2348   -2.7030   -1.3759 C   0  0  0  0  0  0  0  0  0  0  0  0
    7.2389   -2.3927   -0.2634 C   0  0  0  0  0  0  0  0  0  0  0  0
    6.5456   -1.7154    0.9324 C   0  0  2  0  0  0  0  0  0  0  0  0
    6.0367   -0.3106    0.5308 C   0  0  1  0  0  0  0  0  0  0  0  0
    5.3142   -0.3794   -0.8732 C   0  0  0  0  0  0  0  0  0  0  0  0
    4.9867   -1.8020   -1.3382 C   0  0  0  0  0  0  0  0  0  0  0  0
    5.1744    0.3060    1.5909 N   0  0  0  0  0  0  0  0  0  0  0  0
    4.7652    1.6802    1.1612 C   0  0  0  0  0  0  0  0  0  0  0  0
    3.2473    1.7712    1.0727 C   0  0  0  0  0  0  0  0  0  0  0  0
    5.8242    0.3618    2.9464 C   0  0  2  0  0  0  0  0  0  0  0  0
    6.4321   -0.9917    3.4238 C   0  0  1  0  0  0  0  0  0  0  0  0
    7.7318   -1.5528    2.2895 S   0  0  0  0  0  0  0  0  0  0  0  0
    7.0861   -0.8710    4.8127 C   0  0  0  0  0  0  0  0  0  0  0  0
    6.0858   -0.3649    5.8524 C   0  0  0  0  0  0  0  0  0  0  0  0
    5.5184    0.9850    5.4162 C   0  0  0  0  0  0  0  0  0  0  0  0
    4.8194    0.8856    4.0389 C   0  0  0  0  0  0  0  0  0  0  0  0
    3.5441    0.0591    4.1342 C   0  0  0  0  0  0  0  0  0  0  0  0
    2.4920    0.5158    4.8388 C   0  0  0  0  0  0  0  0  0  0  0  0
    1.2979   -0.3532    5.1641 C   0  0  0  0  0  0  0  0  0  0  0  0
    0.2660    0.4873    5.9521 C   0  0  0  0  0  0  0  0  0  0  0  0
   -0.9750   -0.3046    6.4125 C   0  0  2  0  0  0  0  0  0  0  0  0
   -0.7745   -1.8401    6.3773 C   0  0  1  0  0  0  0  0  0  0  0  0
    0.6412   -2.2300    6.8465 C   0  0  0  0  0  0  0  0  0  0  0  0
    1.7474   -1.5947    5.9812 C   0  0  0  0  0  0  0  0  0  0  0  0
   -1.8417   -2.5467    7.1379 N   0  0  0  0  0  0  0  0  0  0  0  0
   -1.8103   -2.3140    8.6145 C   0  0  0  0  0  0  0  0  0  0  0  0
   -1.3995   -3.5931    9.3265 C   0  0  0  0  0  0  0  0  0  0  0  0
   -3.1801   -2.3743    6.4905 C   0  0  2  0  0  0  0  0  0  0  0  0
   -3.6272   -0.8808    6.4313 C   0  0  1  0  0  0  0  0  0  0  0  0
   -2.4467    0.1144    5.4287 S   0  0  0  0  0  0  0  0  0  0  0  0
   -5.0436   -0.6832    5.8282 C   0  0  0  0  0  0  0  0  0  0  0  0
   -5.8497   -1.9709    5.6593 C   0  0  0  0  0  0  0  0  0  0  0  0
   -5.7124   -2.8679    6.8887 C   0  0  0  0  0  0  0  0  0  0  0  0
   -4.2513   -3.3442    7.1100 C   0  0  0  0  0  0  0  0  0  0  0  0
   -3.9915   -4.7691    6.6429 C   0  0  0  0  0  0  0  0  0  0  0  0
   -4.4684   -5.2580    5.4834 C   0  0  0  0  0  0  0  0  0  0  0  0
   -3.9776   -6.5650    4.8906 C   0  0  0  0  0  0  0  0  0  0  0  0
   -2.4678   -6.5396    4.5892 C   0  0  0  0  0  0  0  0  0  0  0  0
   -2.1260   -5.4601    3.5521 C   0  0  2  0  0  0  0  0  0  0  0  0
   -2.8957   -5.6267    2.2263 C   0  0  1  0  0  0  0  0  0  0  0  0
   -4.4135   -5.8375    2.4802 C   0  0  0  0  0  0  0  0  0  0  0  0
   -4.7191   -6.8745    3.5860 C   0  0  0  0  0  0  0  0  0  0  0  0
   -2.6897   -4.4611    1.2963 N   0  0  0  0  0  0  0  0  0  0  0  0
   -3.1536   -4.7769   -0.0917 C   0  0  0  0  0  0  0  0  0  0  0  0
   -2.3068   -5.8225   -0.8543 C   0  0  0  0  0  0  0  0  0  0  0  0
   -1.3862   -3.7009    1.2745 C   0  0  2  0  0  0  0  0  0  0  0  0
   -0.4042   -3.9088    2.4723 C   0  0  1  0  0  0  0  0  0  0  0  0
   -0.3626   -5.5871    3.1451 S   0  0  0  0  0  0  0  0  0  0  0  0
    1.0162   -3.4126    2.1104 C   0  0  0  0  0  0  0  0  0  0  0  0
    1.0297   -2.3091    1.0278 C   0  0  0  0  0  0  0  0  0  0  0  0
   -0.2259   -1.4021    1.0217 C   0  0  0  0  0  0  0  0  0  0  0  0
   -1.5885   -2.1456    1.2561 C   0  0  0  0  0  0  0  0  0  0  0  0
   -2.6461   -1.6217    0.3204 C   0  0  0  0  0  0  0  0  0  0  0  0
   -3.9488   -1.6878    0.6384 C   0  0  0  0  0  0  0  0  0  0  0  0
   -4.9890   -1.0268   -0.1785 C   0  0  0  0  0  0  0  0  0  0  0  0
   -4.7220    0.1884   -1.3044 S   0  0  0  0  0  0  0  0  0  0  0  0
   -6.3193    0.4693   -1.7541 C   0  0  0  0  0  0  0  0  0  0  0  0
   -7.1073   -0.4269   -1.0148 C   0  0  0  0  0  0  0  0  0  0  0  0
   -6.3670   -1.2451   -0.1355 C   0  0  0  0  0  0  0  0  0  0  0  0
   -7.0150   -2.1771    0.6708 C   0  0  0  0  0  0  0  0  0  0  0  0
   -8.4235   -2.2881    0.6096 C   0  0  0  0  0  0  0  0  0  0  0  0
   -9.1265   -3.2103    1.4006 O   0  0  0  0  0  0  0  0  0  0  0  0
   -8.5274   -4.0731    2.3724 C   0  0  0  0  0  0  0  0  0  0  0  0
   -9.1639   -1.4764   -0.2711 C   0  0  0  0  0  0  0  0  0  0  0  0
  -10.5609   -1.6222   -0.3095 O   0  0  0  0  0  0  0  0  0  0  0  0
  -11.4441   -0.8067   -1.0769 C   0  0  0  0  0  0  0  0  0  0  0  0
   -8.4974   -0.5546   -1.0988 C   0  0  0  0  0  0  0  0  0  0  0  0
   -6.8020    1.4746   -2.7881 C   0  0  0  0  0  0  0  0  0  0  0  0
   -5.9132    2.7377   -2.9061 C   0  0  0  0  0  0  0  0  0  0  0  0
   -5.0273    2.7981   -4.1813 C   0  0  2  0  0  0  0  0  0  0  0  0
   -4.5065    1.3861   -4.5803 C   0  0  1  0  0  0  0  0  0  0  0  0
   -5.7428    0.4768   -4.8936 C   0  0  0  0  0  0  0  0  0  0  0  0
   -7.0457    0.8239   -4.1490 C   0  0  0  0  0  0  0  0  0  0  0  0
   -3.5027    1.4090   -5.7007 N   0  0  0  0  0  0  0  0  0  0  0  0
   -3.1927    0.0370   -6.2156 C   0  0  0  0  0  0  0  0  0  0  0  0
   -2.4797   -0.8775   -5.2100 C   0  0  0  0  0  0  0  0  0  0  0  0
   -2.3165    2.2514   -5.3306 C   0  0  2  0  0  0  0  0  0  0  0  0
   -2.8023    3.7155   -5.3485 C   0  0  1  0  0  0  0  0  0  0  0  0
   -3.7226    4.0282   -3.8246 S   0  0  0  0  0  0  0  0  0  0  0  0
   -1.6600    4.7337   -5.4381 C   0  0  0  0  0  0  0  0  0  0  0  0
   -0.9343    4.6028   -6.7757 C   0  0  0  0  0  0  0  0  0  0  0  0
   -0.7458    3.1474   -7.2486 C   0  0  0  0  0  0  0  0  0  0  0  0
   -0.9746    2.0688   -6.1630 C   0  0  0  0  0  0  0  0  0  0  0  0
    0.2070    1.8484   -5.2165 C   0  0  0  0  0  0  0  0  0  0  0  0
    1.0841    2.7755   -4.7981 C   0  0  0  0  0  0  0  0  0  0  0  0
    2.0906    2.4561   -3.7060 C   0  0  0  0  0  0  0  0  0  0  0  0
    3.1356    1.4064   -4.1555 C   0  0  0  0  0  0  0  0  0  0  0  0
    4.4640    2.0102   -4.6698 C   0  0  2  0  0  0  0  0  0  0  0  0
    4.2312    3.3835   -5.3679 C   0  0  1  0  0  0  0  0  0  0  0  0
    3.6839    4.3635   -4.2712 C   0  0  0  0  0  0  0  0  0  0  0  0
    2.7830    3.7204   -3.1985 C   0  0  0  0  0  0  0  0  0  0  0  0
    5.4510    3.9628   -6.0301 N   0  0  0  0  0  0  0  0  0  0  0  0
    5.1309    5.2987   -6.6195 C   0  0  0  0  0  0  0  0  0  0  0  0
    5.9204    6.3966   -5.8893 C   0  0  0  0  0  0  0  0  0  0  0  0
    6.1834    3.0268   -6.9572 C   0  0  2  0  0  0  0  0  0  0  0  0
    6.6549    1.8189   -6.0985 C   0  0  1  0  0  0  0  0  0  0  0  0
    5.2206    0.7775   -5.7560 S   0  0  0  0  0  0  0  0  0  0  0  0
    7.7092    0.9270   -6.7411 C   0  0  0  0  0  0  0  0  0  0  0  0
    8.9352    1.7507   -7.0914 C   0  0  0  0  0  0  0  0  0  0  0  0
    8.5417    2.7329   -8.1688 C   0  0  0  0  0  0  0  0  0  0  0  0
    7.4193    3.6985   -7.7215 C   0  0  0  0  0  0  0  0  0  0  0  0
    7.0292    4.4588   -8.9831 C   0  0  0  0  0  0  0  0  0  0  0  0
    6.3573    3.9009  -10.0052 C   0  0  0  0  0  0  0  0  0  0  0  0
    5.9068   -3.7567   -1.2945 H   0  0  0  0  0  0  0  0  0  0  0  0
    6.7421   -2.5775   -2.3624 H   0  0  0  0  0  0  0  0  0  0  0  0
    7.7359   -3.3335    0.0613 H   0  0  0  0  0  0  0  0  0  0  0  0
    8.0262   -1.7136   -0.6538 H   0  0  0  0  0  0  0  0  0  0  0  0
    5.6983   -2.3581    1.2608 H   0  0  0  0  0  0  0  0  0  0  0  0
    6.9370    0.3327    0.4146 H   0  0  0  0  0  0  0  0  0  0  0  0
    4.3497    0.1725   -0.8748 H   0  0  0  0  0  0  0  0  0  0  0  0
    5.9491    0.1022   -1.6555 H   0  0  0  0  0  0  0  0  0  0  0  0
    4.2188   -2.2398   -0.6579 H   0  0  0  0  0  0  0  0  0  0  0  0
    4.5315   -1.7635   -2.3543 H   0  0  0  0  0  0  0  0  0  0  0  0
    5.1536    2.4830    1.8201 H   0  0  0  0  0  0  0  0  0  0  0  0
    5.2057    1.9590    0.1785 H   0  0  0  0  0  0  0  0  0  0  0  0
    2.7844    0.7638    0.9910 H   0  0  0  0  0  0  0  0  0  0  0  0
    2.8367    2.2761    1.9735 H   0  0  0  0  0  0  0  0  0  0  0  0
    2.9496    2.3511    0.1794 H   0  0  0  0  0  0  0  0  0  0  0  0
    6.6712    1.0892    2.8978 H   0  0  0  0  0  0  0  0  0  0  0  0
    5.6504   -1.7723    3.4833 H   0  0  0  0  0  0  0  0  0  0  0  0
    7.9715   -0.1802    4.7764 H   0  0  0  0  0  0  0  0  0  0  0  0
    7.4492   -1.8791    5.1338 H   0  0  0  0  0  0  0  0  0  0  0  0
    5.2716   -1.1123    5.9763 H   0  0  0  0  0  0  0  0  0  0  0  0
    6.6104   -0.2540    6.8270 H   0  0  0  0  0  0  0  0  0  0  0  0
    4.8050    1.3483    6.1977 H   0  0  0  0  0  0  0  0  0  0  0  0
    6.3347    1.7375    5.3626 H   0  0  0  0  0  0  0  0  0  0  0  0
    4.5166    1.9250    3.8036 H   0  0  0  0  0  0  0  0  0  0  0  0
    3.5058   -0.9350    3.6905 H   0  0  0  0  0  0  0  0  0  0  0  0
    2.5333    1.5329    5.2422 H   0  0  0  0  0  0  0  0  0  0  0  0
    0.8356   -0.6988    4.2119 H   0  0  0  0  0  0  0  0  0  0  0  0
    0.7626    0.8828    6.8595 H   0  0  0  0  0  0  0  0  0  0  0  0
   -0.0366    1.3660    5.3563 H   0  0  0  0  0  0  0  0  0  0  0  0
   -1.1937    0.0330    7.4461 H   0  0  0  0  0  0  0  0  0  0  0  0
   -0.8385   -2.1812    5.3248 H   0  0  0  0  0  0  0  0  0  0  0  0
    0.8082   -1.9080    7.9008 H   0  0  0  0  0  0  0  0  0  0  0  0
    0.7463   -3.3357    6.8226 H   0  0  0  0  0  0  0  0  0  0  0  0
    2.5792   -1.3064    6.6625 H   0  0  0  0  0  0  0  0  0  0  0  0
    2.1451   -2.3620    5.2813 H   0  0  0  0  0  0  0  0  0  0  0  0
   -1.0974   -1.5262    8.9217 H   0  0  0  0  0  0  0  0  0  0  0  0
   -2.7815   -1.9732    9.0193 H   0  0  0  0  0  0  0  0  0  0  0  0
   -2.2245   -4.3379    9.2788 H   0  0  0  0  0  0  0  0  0  0  0  0
   -0.4916   -4.0281    8.8630 H   0  0  0  0  0  0  0  0  0  0  0  0
   -1.1816   -3.3673   10.3887 H   0  0  0  0  0  0  0  0  0  0  0  0
   -3.0897   -2.6867    5.4237 H   0  0  0  0  0  0  0  0  0  0  0  0
   -3.6386   -0.4645    7.4657 H   0  0  0  0  0  0  0  0  0  0  0  0
   -5.6205    0.0200    6.4809 H   0  0  0  0  0  0  0  0  0  0  0  0
   -4.9898   -0.1990    4.8307 H   0  0  0  0  0  0  0  0  0  0  0  0
   -5.5067   -2.4925    4.7417 H   0  0  0  0  0  0  0  0  0  0  0  0
   -6.9239   -1.7086    5.5126 H   0  0  0  0  0  0  0  0  0  0  0  0
   -6.0478   -2.2919    7.7837 H   0  0  0  0  0  0  0  0  0  0  0  0
   -6.4066   -3.7401    6.8094 H   0  0  0  0  0  0  0  0  0  0  0  0
   -4.1536   -3.3980    8.2079 H   0  0  0  0  0  0  0  0  0  0  0  0
   -3.2845   -5.3625    7.2130 H   0  0  0  0  0  0  0  0  0  0  0  0
   -5.2038   -4.6878    4.9278 H   0  0  0  0  0  0  0  0  0  0  0  0
   -4.1908   -7.3764    5.6221 H   0  0  0  0  0  0  0  0  0  0  0  0
   -2.1509   -7.5337    4.2152 H   0  0  0  0  0  0  0  0  0  0  0  0
   -1.8998   -6.3427    5.5278 H   0  0  0  0  0  0  0  0  0  0  0  0
   -2.3783   -4.4780    3.9957 H   0  0  0  0  0  0  0  0  0  0  0  0
   -2.5299   -6.5684    1.7807 H   0  0  0  0  0  0  0  0  0  0  0  0
   -4.9169   -4.8693    2.6921 H   0  0  0  0  0  0  0  0  0  0  0  0
   -4.8847   -6.2476    1.5709 H   0  0  0  0  0  0  0  0  0  0  0  0
   -5.8170   -6.8923    3.7766 H   0  0  0  0  0  0  0  0  0  0  0  0
   -4.4318   -7.8897    3.2330 H   0  0  0  0  0  0  0  0  0  0  0  0
   -3.1650   -3.8706   -0.7247 H   0  0  0  0  0  0  0  0  0  0  0  0
   -4.2159   -5.0933   -0.0888 H   0  0  0  0  0  0  0  0  0  0  0  0
   -2.9438   -6.3511   -1.5898 H   0  0  0  0  0  0  0  0  0  0  0  0
   -1.4916   -5.3113   -1.4223 H   0  0  0  0  0  0  0  0  0  0  0  0
   -1.8309   -6.5763   -0.2012 H   0  0  0  0  0  0  0  0  0  0  0  0
   -0.8335   -3.9817    0.3528 H   0  0  0  0  0  0  0  0  0  0  0  0
   -0.7088   -3.2684    3.3359 H   0  0  0  0  0  0  0  0  0  0  0  0
    1.6439   -4.2642    1.7618 H   0  0  0  0  0  0  0  0  0  0  0  0
    1.5045   -3.0146    3.0362 H   0  0  0  0  0  0  0  0  0  0  0  0
    1.1270   -2.7792    0.0338 H   0  0  0  0  0  0  0  0  0  0  0  0
    1.9346   -1.6771    1.1640 H   0  0  0  0  0  0  0  0  0  0  0  0
   -0.2217   -0.8592    0.0452 H   0  0  0  0  0  0  0  0  0  0  0  0
   -0.1066   -0.6218    1.8056 H   0  0  0  0  0  0  0  0  0  0  0  0
   -1.9402   -1.8261    2.2664 H   0  0  0  0  0  0  0  0  0  0  0  0
   -2.3488   -1.0969   -0.5782 H   0  0  0  0  0  0  0  0  0  0  0  0
   -4.2523   -2.2131    1.5267 H   0  0  0  0  0  0  0  0  0  0  0  0
   -6.4475   -2.8032    1.3404 H   0  0  0  0  0  0  0  0  0  0  0  0
   -8.0158   -3.4756    3.1499 H   0  0  0  0  0  0  0  0  0  0  0  0
   -7.7962   -4.7493    1.8779 H   0  0  0  0  0  0  0  0  0  0  0  0
   -9.3182   -4.6790    2.8514 H   0  0  0  0  0  0  0  0  0  0  0  0
  -11.2308   -0.9179   -2.1621 H   0  0  0  0  0  0  0  0  0  0  0  0
  -11.3520    0.2556   -0.7645 H   0  0  0  0  0  0  0  0  0  0  0  0
  -12.4902   -1.1378   -0.8923 H   0  0  0  0  0  0  0  0  0  0  0  0
   -9.0495    0.0629   -1.7870 H   0  0  0  0  0  0  0  0  0  0  0  0
   -7.7928    1.8372   -2.4242 H   0  0  0  0  0  0  0  0  0  0  0  0
   -5.2801    2.8232   -1.9913 H   0  0  0  0  0  0  0  0  0  0  0  0
   -6.5601    3.6402   -2.9113 H   0  0  0  0  0  0  0  0  0  0  0  0
   -5.6442    3.1994   -5.0135 H   0  0  0  0  0  0  0  0  0  0  0  0
   -4.0066    0.9531   -3.6974 H   0  0  0  0  0  0  0  0  0  0  0  0
   -5.4956   -0.5763   -4.6457 H   0  0  0  0  0  0  0  0  0  0  0  0
   -5.9873    0.5265   -5.9794 H   0  0  0  0  0  0  0  0  0  0  0  0
   -7.6679   -0.0966   -4.0257 H   0  0  0  0  0  0  0  0  0  0  0  0
   -7.6311    1.5414   -4.7725 H   0  0  0  0  0  0  0  0  0  0  0  0
   -2.6592    0.0893   -7.1842 H   0  0  0  0  0  0  0  0  0  0  0  0
   -4.1115   -0.4905   -6.5450 H   0  0  0  0  0  0  0  0  0  0  0  0
   -2.2297   -1.8390   -5.6930 H   0  0  0  0  0  0  0  0  0  0  0  0
   -3.1273   -1.0919   -4.3364 H   0  0  0  0  0  0  0  0  0  0  0  0
   -1.5407   -0.4269   -4.8548 H   0  0  0  0  0  0  0  0  0  0  0  0
   -2.0564    2.0020   -4.2713 H   0  0  0  0  0  0  0  0  0  0  0  0
   -3.4762    3.8820   -6.2144 H   0  0  0  0  0  0  0  0  0  0  0  0
   -2.0776    5.7642   -5.3573 H   0  0  0  0  0  0  0  0  0  0  0  0
   -0.9655    4.5978   -4.5852 H   0  0  0  0  0  0  0  0  0  0  0  0
   -1.5206    5.1515   -7.5513 H   0  0  0  0  0  0  0  0  0  0  0  0
    0.0445    5.1140   -6.7167 H   0  0  0  0  0  0  0  0  0  0  0  0
    0.2593    3.0271   -7.6885 H   0  0  0  0  0  0  0  0  0  0  0  0
   -1.4745    2.9556   -8.0680 H   0  0  0  0  0  0  0  0  0  0  0  0
   -0.9737    1.1278   -6.7300 H   0  0  0  0  0  0  0  0  0  0  0  0
    0.2606    0.8711   -4.7455 H   0  0  0  0  0  0  0  0  0  0  0  0
    1.0696    3.7705   -5.2173 H   0  0  0  0  0  0  0  0  0  0  0  0
    1.5146    2.0305   -2.8510 H   0  0  0  0  0  0  0  0  0  0  0  0
    2.6801    0.7450   -4.9260 H   0  0  0  0  0  0  0  0  0  0  0  0
    3.3659    0.7443   -3.2865 H   0  0  0  0  0  0  0  0  0  0  0  0
    5.1399    2.1528   -3.7999 H   0  0  0  0  0  0  0  0  0  0  0  0
    3.4465    3.2495   -6.1448 H   0  0  0  0  0  0  0  0  0  0  0  0
    3.0801    5.1751   -4.7382 H   0  0  0  0  0  0  0  0  0  0  0  0
    4.5348    4.8574   -3.7454 H   0  0  0  0  0  0  0  0  0  0  0  0
    2.0246    4.4546   -2.8428 H   0  0  0  0  0  0  0  0  0  0  0  0
    3.4073    3.4512   -2.3180 H   0  0  0  0  0  0  0  0  0  0  0  0
    4.0544    5.5616   -6.5822 H   0  0  0  0  0  0  0  0  0  0  0  0
    5.2849    5.3652   -7.6950 H   0  0  0  0  0  0  0  0  0  0  0  0
    6.8976    6.0081   -5.5177 H   0  0  0  0  0  0  0  0  0  0  0  0
    5.3324    6.7553   -5.0147 H   0  0  0  0  0  0  0  0  0  0  0  0
    6.1032    7.2553   -6.5637 H   0  0  0  0  0  0  0  0  0  0  0  0
    5.4634    2.6447   -7.7276 H   0  0  0  0  0  0  0  0  0  0  0  0
    7.0732    2.1932   -5.1523 H   0  0  0  0  0  0  0  0  0  0  0  0
    8.0081    0.1337   -6.0183 H   0  0  0  0  0  0  0  0  0  0  0  0
    7.3040    0.4263   -7.6557 H   0  0  0  0  0  0  0  0  0  0  0  0
    9.3071    2.2834   -6.2013 H   0  0  0  0  0  0  0  0  0  0  0  0
    9.7385    1.0792   -7.4667 H   0  0  0  0  0  0  0  0  0  0  0  0
    8.2403    2.1519   -9.0728 H   0  0  0  0  0  0  0  0  0  0  0  0
    9.4412    3.3230   -8.4555 H   0  0  0  0  0  0  0  0  0  0  0  0
    7.8833    4.4217   -7.0215 H   0  0  0  0  0  0  0  0  0  0  0  0
    7.3073    5.5060   -9.0540 H   0  0  0  0  0  0  0  0  0  0  0  0
    6.0612    2.8538   -9.9973 H   0  0  0  0  0  0  0  0  0  0  0  0
    6.1163    4.4993  -10.8766 H   0  0  0  0  0  0  0  0  0  0  0  0
  1  2  1  0
  2  3  1  0
  3  4  1  0
  4  5  1  0
  5  6  1  0
  4  7  1  0
  7  8  1  0
  8  9  1  0
  7 10  1  0
 10 11  1  0
 11 12  1  0
 11 13  1  0
 13 14  1  0
 14 15  1  0
 15 16  1  0
 16 17  1  0
 17 18  2  3
 18 19  1  0
 19 20  1  0
 20 21  1  0
 21 22  1  0
 22 23  1  0
 23 24  1  0
 22 25  1  0
 25 26  1  0
 26 27  1  0
 25 28  1  0
 28 29  1  0
 29 30  1  0
 29 31  1  0
 31 32  1  0
 32 33  1  0
 33 34  1  0
 34 35  1  0
 35 36  2  3
 36 37  1  0
 37 38  1  0
 38 39  1  0
 39 40  1  0
 40 41  1  0
 41 42  1  0
 40 43  1  0
 43 44  1  0
 44 45  1  0
 43 46  1  0
 46 47  1  0
 47 48  1  0
 47 49  1  0
 49 50  1  0
 50 51  1  0
 51 52  1  0
 52 53  1  0
 53 54  2  3
 54 55  1  0
 55 56  1  0
 56 57  1  0
 57 58  2  0
 58 59  1  0
 59 60  1  0
 60 61  2  0
 61 62  1  0
 62 63  1  0
 61 64  1  0
 64 65  1  0
 65 66  1  0
 64 67  2  0
 57 68  1  0
 68 69  1  0
 69 70  1  0
 70 71  1  0
 71 72  1  0
 72 73  1  0
 71 74  1  0
 74 75  1  0
 75 76  1  0
 74 77  1  0
 77 78  1  0
 78 79  1  0
 78 80  1  0
 80 81  1  0
 81 82  1  0
 82 83  1  0
 83 84  1  0
 84 85  2  3
 85 86  1  0
 86 87  1  0
 87 88  1  0
 88 89  1  0
 89 90  1  0
 90 91  1  0
 89 92  1  0
 92 93  1  0
 93 94  1  0
 92 95  1  0
 95 96  1  0
 96 97  1  0
 96 98  1  0
 98 99  1  0
 99100  1  0
100101  1  0
101102  1  0
102103  2  3
  6  1  1  0
 16 10  1  0
 24 19  1  0
 34 28  1  0
 42 37  1  0
 52 46  1  0
 59 55  2  0
 73 68  1  0
 83 77  1  0
 91 86  1  0
101 95  1  0
 12  3  1  0
 30 21  1  0
 48 39  1  0
 67 58  1  0
 79 70  1  0
 97 88  1  0
  1104  1  0
  1105  1  0
  2106  1  0
  2107  1  0
  3108  1  1
  4109  1  6
  5110  1  0
  5111  1  0
  6112  1  0
  6113  1  0
  8114  1  0
  8115  1  0
  9116  1  0
  9117  1  0
  9118  1  0
 10119  1  6
 11120  1  1
 13121  1  0
 13122  1  0
 14123  1  0
 14124  1  0
 15125  1  0
 15126  1  0
 16127  1  0
 17128  1  0
 18129  1  0
 19130  1  0
 20131  1  0
 20132  1  0
 21133  1  1
 22134  1  6
 23135  1  0
 23136  1  0
 24137  1  0
 24138  1  0
 26139  1  0
 26140  1  0
 27141  1  0
 27142  1  0
 27143  1  0
 28144  1  6
 29145  1  1
 31146  1  0
 31147  1  0
 32148  1  0
 32149  1  0
 33150  1  0
 33151  1  0
 34152  1  0
 35153  1  0
 36154  1  0
 37155  1  0
 38156  1  0
 38157  1  0
 39158  1  1
 40159  1  6
 41160  1  0
 41161  1  0
 42162  1  0
 42163  1  0
 44164  1  0
 44165  1  0
 45166  1  0
 45167  1  0
 45168  1  0
 46169  1  6
 47170  1  1
 49171  1  0
 49172  1  0
 50173  1  0
 50174  1  0
 51175  1  0
 51176  1  0
 52177  1  0
 53178  1  0
 54179  1  0
 60180  1  0
 63181  1  0
 63182  1  0
 63183  1  0
 66184  1  0
 66185  1  0
 66186  1  0
 67187  1  0
 68188  1  0
 69189  1  0
 69190  1  0
 70191  1  6
 71192  1  1
 72193  1  0
 72194  1  0
 73195  1  0
 73196  1  0
 75197  1  0
 75198  1  0
 76199  1  0
 76200  1  0
 76201  1  0
 77202  1  1
 78203  1  6
 80204  1  0
 80205  1  0
 81206  1  0
 81207  1  0
 82208  1  0
 82209  1  0
 83210  1  0
 84211  1  0
 85212  1  0
 86213  1  0
 87214  1  0
 87215  1  0
 88216  1  1
 89217  1  6
 90218  1  0
 90219  1  0
 91220  1  0
 91221  1  0
 93222  1  0
 93223  1  0
 94224  1  0
 94225  1  0
 94226  1  0
 95227  1  6
 96228  1  1
 98229  1  0
 98230  1  0
 99231  1  0
 99232  1  0
100233  1  0
100234  1  0
101235  1  0
102236  1  0
103237  1  0
103238  1  0
M  END

