
     RDKit          3D

186203  0  0  0  0  0  0  0  0999 V2000
    2.5304   -1.2506    9.6205 C   0  0  0  0  0  0  0  0  0  0  0  0
    3.0100   -0.8987    8.3626 C   0  0  0  0  0  0  0  0  0  0  0  0
    3.0410   -1.9729    7.4576 C   0  0  0  0  0  0  0  0  0  0  0  0
    3.4468   -1.9258    6.1071 C   0  0  0  0  0  0  0  0  0  0  0  0
    3.8061   -0.6589    5.4338 C   0  0  0  0  0  0  0  0  0  0  0  0
    4.9201    0.0850    5.8520 C   0  0  0  0  0  0  0  0  0  0  0  0
    5.2462    1.2866    5.2105 C   0  0  0  0  0  0  0  0  0  0  0  0
    4.4633    1.7492    4.1437 C   0  0  0  0  0  0  0  0  0  0  0  0
    4.8839    3.2963    3.3329 S   0  0  0  0  0  0  0  0  0  0  0  0
    5.8642    2.4878    2.0226 C   0  0  0  0  0  0  0  0  0  0  0  0
    6.6175    3.5354    1.2181 C   0  0  0  0  0  0  0  0  0  0  0  0
    3.3455    1.0138    3.7259 C   0  0  0  0  0  0  0  0  0  0  0  0
    2.5863    1.4427    2.6888 F   0  0  0  0  0  0  0  0  0  0  0  0
    3.0234   -0.1861    4.3689 C   0  0  0  0  0  0  0  0  0  0  0  0
    3.3642   -3.1278    5.3822 C   0  0  0  0  0  0  0  0  0  0  0  0
    2.8582   -4.3108    5.9302 C   0  0  0  0  0  0  0  0  0  0  0  0
    2.4483   -4.3535    7.2760 C   0  0  0  0  0  0  0  0  0  0  0  0
    1.8835   -5.5774    7.8758 C   0  0  0  0  0  0  0  0  0  0  0  0
    2.6991   -6.7001    8.0919 C   0  0  0  0  0  0  0  0  0  0  0  0
    2.1492   -7.8738    8.6158 C   0  0  0  0  0  0  0  0  0  0  0  0
    0.7830   -7.9434    8.9099 C   0  0  0  0  0  0  0  0  0  0  0  0
    0.0739   -9.4779    9.5099 S   0  0  0  0  0  0  0  0  0  0  0  0
   -0.0942  -10.2446    7.8563 C   0  0  0  0  0  0  0  0  0  0  0  0
   -1.2952   -9.6867    7.1017 C   0  0  0  0  0  0  0  0  0  0  0  0
   -0.0292   -6.8113    8.7211 C   0  0  0  0  0  0  0  0  0  0  0  0
    0.5218   -5.6332    8.2103 C   0  0  0  0  0  0  0  0  0  0  0  0
   -1.3485   -6.8523    9.0319 F   0  0  0  0  0  0  0  0  0  0  0  0
    2.5631   -3.1626    8.0129 C   0  0  0  0  0  0  0  0  0  0  0  0
    2.1300   -2.8865    9.6144 S   0  0  0  0  0  0  0  0  0  0  0  0
    2.7317   -5.3503    4.9904 C   0  0  0  0  0  0  0  0  0  0  0  0
    3.1979   -4.9941    3.7313 C   0  0  0  0  0  0  0  0  0  0  0  0
    3.7076   -3.3904    3.7561 S   0  0  0  0  0  0  0  0  0  0  0  0
    2.9208   -5.7155    2.4857 C   0  0  0  0  0  0  0  0  0  0  0  0
    1.3874   -5.7907    1.8068 S   0  0  0  0  0  0  0  0  0  0  0  0
    1.8540   -6.2185    0.2441 C   0  0  0  0  0  0  0  0  0  0  0  0
    3.2493   -6.2890    0.2349 C   0  0  0  0  0  0  0  0  0  0  0  0
    3.8410   -6.0015    1.4776 C   0  0  0  0  0  0  0  0  0  0  0  0
    5.2299   -5.9735    1.6089 C   0  0  0  0  0  0  0  0  0  0  0  0
    6.0408   -6.2766    0.4936 C   0  0  0  0  0  0  0  0  0  0  0  0
    7.4447   -6.2755    0.5751 O   0  0  0  0  0  0  0  0  0  0  0  0
    8.1841   -5.9704    1.7511 C   0  0  0  0  0  0  0  0  0  0  0  0
    5.4481   -6.5882   -0.7461 C   0  0  0  0  0  0  0  0  0  0  0  0
    6.2933   -6.9070   -1.8225 O   0  0  0  0  0  0  0  0  0  0  0  0
    5.8370   -7.2965   -3.1158 C   0  0  0  0  0  0  0  0  0  0  0  0
    4.0417   -6.5757   -0.8789 C   0  0  0  0  0  0  0  0  0  0  0  0
    0.9957   -5.9772   -0.9242 C   0  0  0  0  0  0  0  0  0  0  0  0
    1.2363   -4.6603   -1.9527 S   0  0  0  0  0  0  0  0  0  0  0  0
   -0.3196   -4.5897   -2.5907 C   0  0  0  0  0  0  0  0  0  0  0  0
   -1.0615   -5.6052   -1.9862 C   0  0  0  0  0  0  0  0  0  0  0  0
   -0.3362   -6.3660   -1.0552 C   0  0  0  0  0  0  0  0  0  0  0  0
   -0.9661   -7.3751   -0.3204 C   0  0  0  0  0  0  0  0  0  0  0  0
   -2.3370   -7.6420   -0.5352 C   0  0  0  0  0  0  0  0  0  0  0  0
   -3.0101   -8.6655    0.1484 O   0  0  0  0  0  0  0  0  0  0  0  0
   -2.4037   -9.5306    1.1043 C   0  0  0  0  0  0  0  0  0  0  0  0
   -3.0676   -6.8686   -1.4630 C   0  0  0  0  0  0  0  0  0  0  0  0
   -4.4357   -7.1397   -1.6233 O   0  0  0  0  0  0  0  0  0  0  0  0
   -5.3042   -6.4129   -2.4877 C   0  0  0  0  0  0  0  0  0  0  0  0
   -2.4227   -5.8519   -2.1969 C   0  0  0  0  0  0  0  0  0  0  0  0
   -0.8746   -3.3725   -3.2004 C   0  0  0  0  0  0  0  0  0  0  0  0
   -1.9482   -2.6664   -2.6682 C   0  0  0  0  0  0  0  0  0  0  0  0
   -2.1448   -1.4201   -3.2726 C   0  0  0  0  0  0  0  0  0  0  0  0
   -3.1023   -0.4652   -2.8865 C   0  0  0  0  0  0  0  0  0  0  0  0
   -3.9819   -0.6868   -1.7185 C   0  0  0  0  0  0  0  0  0  0  0  0
   -4.9351   -1.7148   -1.7244 C   0  0  0  0  0  0  0  0  0  0  0  0
   -5.6490   -2.0173   -0.5641 C   0  0  0  0  0  0  0  0  0  0  0  0
   -5.4144   -1.3021    0.6136 C   0  0  0  0  0  0  0  0  0  0  0  0
   -6.2500   -1.7780    2.1311 S   0  0  0  0  0  0  0  0  0  0  0  0
   -4.8533   -2.7691    2.7777 C   0  0  0  0  0  0  0  0  0  0  0  0
   -4.7549   -4.1264    2.0915 C   0  0  0  0  0  0  0  0  0  0  0  0
   -4.4979   -0.2374    0.6138 C   0  0  0  0  0  0  0  0  0  0  0  0
   -4.2709    0.4750    1.7435 F   0  0  0  0  0  0  0  0  0  0  0  0
   -3.7803    0.0633   -0.5475 C   0  0  0  0  0  0  0  0  0  0  0  0
   -3.0793    0.7630   -3.5674 C   0  0  0  0  0  0  0  0  0  0  0  0
   -2.1488    1.0514   -4.5738 C   0  0  0  0  0  0  0  0  0  0  0  0
   -1.1911    0.0878   -4.9673 C   0  0  0  0  0  0  0  0  0  0  0  0
   -0.2033    0.3716   -6.0282 C   0  0  0  0  0  0  0  0  0  0  0  0
   -0.6366    0.6714   -7.3329 C   0  0  0  0  0  0  0  0  0  0  0  0
    0.2913    0.9988   -8.3199 C   0  0  0  0  0  0  0  0  0  0  0  0
    1.6567    1.0432   -8.0218 C   0  0  0  0  0  0  0  0  0  0  0  0
    2.8338    1.5071   -9.2959 S   0  0  0  0  0  0  0  0  0  0  0  0
    2.6513    3.3099   -9.0386 C   0  0  0  0  0  0  0  0  0  0  0  0
    3.4945    3.7880   -7.8629 C   0  0  0  0  0  0  0  0  0  0  0  0
    2.0971    0.7122   -6.7319 C   0  0  0  0  0  0  0  0  0  0  0  0
    1.1709    0.3812   -5.7359 C   0  0  0  0  0  0  0  0  0  0  0  0
    3.4194    0.7189   -6.4348 F   0  0  0  0  0  0  0  0  0  0  0  0
   -1.2114   -1.1395   -4.2775 C   0  0  0  0  0  0  0  0  0  0  0  0
   -0.1397   -2.4393   -4.4041 S   0  0  0  0  0  0  0  0  0  0  0  0
   -2.2493    2.3689   -5.0502 C   0  0  0  0  0  0  0  0  0  0  0  0
   -3.2660    3.0891   -4.4264 C   0  0  0  0  0  0  0  0  0  0  0  0
   -4.0405    2.1136   -3.2939 S   0  0  0  0  0  0  0  0  0  0  0  0
   -3.5609    4.5126   -4.6261 C   0  0  0  0  0  0  0  0  0  0  0  0
   -5.1183    5.1547   -4.7280 S   0  0  0  0  0  0  0  0  0  0  0  0
   -4.6597    6.7717   -4.7709 C   0  0  0  0  0  0  0  0  0  0  0  0
   -3.2708    6.8365   -4.6768 C   0  0  0  0  0  0  0  0  0  0  0  0
   -2.6536    5.5777   -4.5955 C   0  0  0  0  0  0  0  0  0  0  0  0
   -1.2640    5.4850   -4.4330 C   0  0  0  0  0  0  0  0  0  0  0  0
   -0.4863    6.6654   -4.3763 C   0  0  0  0  0  0  0  0  0  0  0  0
    0.9102    6.6260   -4.2259 O   0  0  0  0  0  0  0  0  0  0  0  0
    1.6763    5.4277   -4.1668 C   0  0  0  0  0  0  0  0  0  0  0  0
   -1.1128    7.9256   -4.4620 C   0  0  0  0  0  0  0  0  0  0  0  0
   -0.3086    9.0722   -4.3700 O   0  0  0  0  0  0  0  0  0  0  0  0
   -0.8077   10.4040   -4.3257 C   0  0  0  0  0  0  0  0  0  0  0  0
   -2.5103    8.0083   -4.6257 C   0  0  0  0  0  0  0  0  0  0  0  0
   -5.5994    7.8984   -4.7398 C   0  0  0  0  0  0  0  0  0  0  0  0
   -6.7349    8.2522   -5.9327 S   0  0  0  0  0  0  0  0  0  0  0  0
   -7.3689    9.6398   -5.2101 C   0  0  0  0  0  0  0  0  0  0  0  0
   -6.6967    9.8257   -4.0069 C   0  0  0  0  0  0  0  0  0  0  0  0
   -5.7148    8.8599   -3.7403 C   0  0  0  0  0  0  0  0  0  0  0  0
   -4.9852    8.9016   -2.5517 C   0  0  0  0  0  0  0  0  0  0  0  0
   -5.2247    9.9369   -1.6253 C   0  0  0  0  0  0  0  0  0  0  0  0
   -4.5041   10.0305   -0.4241 O   0  0  0  0  0  0  0  0  0  0  0  0
   -3.4641    9.1378   -0.0323 C   0  0  0  0  0  0  0  0  0  0  0  0
   -6.2132   10.9076   -1.8897 C   0  0  0  0  0  0  0  0  0  0  0  0
   -6.4324   11.9063   -0.9272 O   0  0  0  0  0  0  0  0  0  0  0  0
   -7.4308   12.9153   -1.0304 C   0  0  0  0  0  0  0  0  0  0  0  0
   -6.9518   10.8524   -3.0946 C   0  0  0  0  0  0  0  0  0  0  0  0
    2.4150   -0.5786   10.4590 H   0  0  0  0  0  0  0  0  0  0  0  0
    3.3099    0.1093    8.1204 H   0  0  0  0  0  0  0  0  0  0  0  0
    5.5339   -0.2547    6.6726 H   0  0  0  0  0  0  0  0  0  0  0  0
    6.1093    1.8553    5.5338 H   0  0  0  0  0  0  0  0  0  0  0  0
    6.5924    1.7781    2.4750 H   0  0  0  0  0  0  0  0  0  0  0  0
    5.1868    1.9236    1.3463 H   0  0  0  0  0  0  0  0  0  0  0  0
    7.3180    4.0947    1.8724 H   0  0  0  0  0  0  0  0  0  0  0  0
    7.2025    3.0385    0.4148 H   0  0  0  0  0  0  0  0  0  0  0  0
    5.9035    4.2475    0.7537 H   0  0  0  0  0  0  0  0  0  0  0  0
    2.1599   -0.7444    4.0340 H   0  0  0  0  0  0  0  0  0  0  0  0
    3.7508   -6.6670    7.8415 H   0  0  0  0  0  0  0  0  0  0  0  0
    2.7865   -8.7371    8.7758 H   0  0  0  0  0  0  0  0  0  0  0  0
   -0.2332  -11.3373    7.9974 H   0  0  0  0  0  0  0  0  0  0  0  0
    0.8331  -10.0956    7.2635 H   0  0  0  0  0  0  0  0  0  0  0  0
   -2.2180   -9.7991    7.7081 H   0  0  0  0  0  0  0  0  0  0  0  0
   -1.4216  -10.2443    6.1506 H   0  0  0  0  0  0  0  0  0  0  0  0
   -1.1373   -8.6158    6.8618 H   0  0  0  0  0  0  0  0  0  0  0  0
   -0.1128   -4.7720    8.0496 H   0  0  0  0  0  0  0  0  0  0  0  0
    2.2662   -6.3084    5.1973 H   0  0  0  0  0  0  0  0  0  0  0  0
    5.6700   -5.7341    2.5689 H   0  0  0  0  0  0  0  0  0  0  0  0
    9.2675   -6.0355    1.5296 H   0  0  0  0  0  0  0  0  0  0  0  0
    7.9405   -6.6954    2.5559 H   0  0  0  0  0  0  0  0  0  0  0  0
    7.9535   -4.9381    2.0875 H   0  0  0  0  0  0  0  0  0  0  0  0
    5.2333   -8.2262   -3.0424 H   0  0  0  0  0  0  0  0  0  0  0  0
    6.7135   -7.4933   -3.7692 H   0  0  0  0  0  0  0  0  0  0  0  0
    5.2336   -6.4810   -3.5663 H   0  0  0  0  0  0  0  0  0  0  0  0
    3.5709   -6.7988   -1.8261 H   0  0  0  0  0  0  0  0  0  0  0  0
   -0.3923   -7.9520    0.3913 H   0  0  0  0  0  0  0  0  0  0  0  0
   -1.5670  -10.0913    0.6368 H   0  0  0  0  0  0  0  0  0  0  0  0
   -3.1603  -10.2574    1.4653 H   0  0  0  0  0  0  0  0  0  0  0  0
   -2.0333   -8.9392    1.9677 H   0  0  0  0  0  0  0  0  0  0  0  0
   -5.3163   -5.3395   -2.2021 H   0  0  0  0  0  0  0  0  0  0  0  0
   -6.3336   -6.8199   -2.3966 H   0  0  0  0  0  0  0  0  0  0  0  0
   -4.9729   -6.5247   -3.5423 H   0  0  0  0  0  0  0  0  0  0  0  0
   -2.9665   -5.2628   -2.9224 H   0  0  0  0  0  0  0  0  0  0  0  0
   -2.5134   -3.0205   -1.8171 H   0  0  0  0  0  0  0  0  0  0  0  0
   -5.0946   -2.3068   -2.6177 H   0  0  0  0  0  0  0  0  0  0  0  0
   -6.3601   -2.8363   -0.5694 H   0  0  0  0  0  0  0  0  0  0  0  0
   -5.0206   -2.9275    3.8619 H   0  0  0  0  0  0  0  0  0  0  0  0
   -3.8936   -2.2187    2.6598 H   0  0  0  0  0  0  0  0  0  0  0  0
   -3.9328   -4.7125    2.5551 H   0  0  0  0  0  0  0  0  0  0  0  0
   -5.7078   -4.6856    2.2117 H   0  0  0  0  0  0  0  0  0  0  0  0
   -4.5253   -4.0107    1.0097 H   0  0  0  0  0  0  0  0  0  0  0  0
   -3.0328    0.8472   -0.5216 H   0  0  0  0  0  0  0  0  0  0  0  0
   -1.6913    0.6635   -7.5710 H   0  0  0  0  0  0  0  0  0  0  0  0
   -0.0564    1.2407   -9.3227 H   0  0  0  0  0  0  0  0  0  0  0  0
    1.5846    3.5806   -8.8798 H   0  0  0  0  0  0  0  0  0  0  0  0
    2.9963    3.8239   -9.9608 H   0  0  0  0  0  0  0  0  0  0  0  0
    3.4541    4.8959   -7.8019 H   0  0  0  0  0  0  0  0  0  0  0  0
    3.1079    3.3696   -6.9119 H   0  0  0  0  0  0  0  0  0  0  0  0
    4.5503    3.4779   -8.0044 H   0  0  0  0  0  0  0  0  0  0  0  0
    1.5203    0.1624   -4.7367 H   0  0  0  0  0  0  0  0  0  0  0  0
   -1.6061    2.7928   -5.8107 H   0  0  0  0  0  0  0  0  0  0  0  0
   -0.7965    4.5173   -4.3245 H   0  0  0  0  0  0  0  0  0  0  0  0
    1.3781    4.8275   -3.2804 H   0  0  0  0  0  0  0  0  0  0  0  0
    2.7507    5.6862   -4.0761 H   0  0  0  0  0  0  0  0  0  0  0  0
    1.5316    4.8344   -5.0965 H   0  0  0  0  0  0  0  0  0  0  0  0
   -1.3620   10.6406   -5.2621 H   0  0  0  0  0  0  0  0  0  0  0  0
   -1.4837   10.5306   -3.4473 H   0  0  0  0  0  0  0  0  0  0  0  0
    0.0455   11.1084   -4.2248 H   0  0  0  0  0  0  0  0  0  0  0  0
   -3.0005    8.9698   -4.6985 H   0  0  0  0  0  0  0  0  0  0  0  0
   -8.1604   10.2618   -5.6071 H   0  0  0  0  0  0  0  0  0  0  0  0
   -4.2515    8.1383   -2.3479 H   0  0  0  0  0  0  0  0  0  0  0  0
   -3.8655    8.1086    0.0684 H   0  0  0  0  0  0  0  0  0  0  0  0
   -3.0642    9.4588    0.9512 H   0  0  0  0  0  0  0  0  0  0  0  0
   -2.6395    9.1563   -0.7762 H   0  0  0  0  0  0  0  0  0  0  0  0
   -7.2299   13.5620   -1.9116 H   0  0  0  0  0  0  0  0  0  0  0  0
   -8.4369   12.4507   -1.1156 H   0  0  0  0  0  0  0  0  0  0  0  0
   -7.4106   13.5451   -0.1167 H   0  0  0  0  0  0  0  0  0  0  0  0
   -7.7085   11.5911   -3.3296 H   0  0  0  0  0  0  0  0  0  0  0  0
  1  2  2  0
  2  3  1  0
  3  4  2  0
  4  5  1  0
  5  6  2  0
  6  7  1  0
  7  8  2  0
  8  9  1  0
  9 10  1  0
 10 11  1  0
  8 12  1  0
 12 13  1  0
 12 14  2  0
  4 15  1  0
 15 16  2  0
 16 17  1  0
 17 18  1  0
 18 19  2  0
 19 20  1  0
 20 21  2  0
 21 22  1  0
 22 23  1  0
 23 24  1  0
 21 25  1  0
 25 26  2  0
 25 27  1  0
 17 28  2  0
 28 29  1  0
 16 30  1  0
 30 31  2  0
 31 32  1  0
 31 33  1  0
 33 34  1  0
 34 35  1  0
 35 36  2  0
 36 37  1  0
 37 38  1  0
 38 39  2  0
 39 40  1  0
 40 41  1  0
 39 42  1  0
 42 43  1  0
 43 44  1  0
 42 45  2  0
 35 46  1  0
 46 47  1  0
 47 48  1  0
 48 49  2  0
 49 50  1  0
 50 51  1  0
 51 52  2  0
 52 53  1  0
 53 54  1  0
 52 55  1  0
 55 56  1  0
 56 57  1  0
 55 58  2  0
 48 59  1  0
 59 60  2  0
 60 61  1  0
 61 62  2  0
 62 63  1  0
 63 64  2  0
 64 65  1  0
 65 66  2  0
 66 67  1  0
 67 68  1  0
 68 69  1  0
 66 70  1  0
 70 71  1  0
 70 72  2  0
 62 73  1  0
 73 74  2  0
 74 75  1  0
 75 76  1  0
 76 77  2  0
 77 78  1  0
 78 79  2  0
 79 80  1  0
 80 81  1  0
 81 82  1  0
 79 83  1  0
 83 84  2  0
 83 85  1  0
 75 86  2  0
 86 87  1  0
 74 88  1  0
 88 89  2  0
 89 90  1  0
 89 91  1  0
 91 92  1  0
 92 93  1  0
 93 94  2  0
 94 95  1  0
 95 96  1  0
 96 97  2  0
 97 98  1  0
 98 99  1  0
 97100  1  0
100101  1  0
101102  1  0
100103  2  0
 93104  1  0
104105  1  0
105106  1  0
106107  2  0
107108  1  0
108109  1  0
109110  2  0
110111  1  0
111112  1  0
110113  1  0
113114  1  0
114115  1  0
113116  2  0
 29  1  1  0
 37 33  2  0
 50 46  2  0
 87 59  1  0
 95 91  2  0
108104  2  0
 28  3  1  0
 45 36  1  0
 58 49  1  0
 86 61  1  0
103 94  1  0
116107  1  0
 14  5  1  0
 32 15  1  0
 72 63  1  0
 90 73  1  0
 26 18  1  0
 84 76  1  0
  1117  1  0
  2118  1  0
  6119  1  0
  7120  1  0
 10121  1  0
 10122  1  0
 11123  1  0
 11124  1  0
 11125  1  0
 14126  1  0
 19127  1  0
 20128  1  0
 23129  1  0
 23130  1  0
 24131  1  0
 24132  1  0
 24133  1  0
 26134  1  0
 30135  1  0
 38136  1  0
 41137  1  0
 41138  1  0
 41139  1  0
 44140  1  0
 44141  1  0
 44142  1  0
 45143  1  0
 51144  1  0
 54145  1  0
 54146  1  0
 54147  1  0
 57148  1  0
 57149  1  0
 57150  1  0
 58151  1  0
 60152  1  0
 64153  1  0
 65154  1  0
 68155  1  0
 68156  1  0
 69157  1  0
 69158  1  0
 69159  1  0
 72160  1  0
 77161  1  0
 78162  1  0
 81163  1  0
 81164  1  0
 82165  1  0
 82166  1  0
 82167  1  0
 84168  1  0
 88169  1  0
 96170  1  0
 99171  1  0
 99172  1  0
 99173  1  0
102174  1  0
102175  1  0
102176  1  0
103177  1  0
106178  1  0
109179  1  0
112180  1  0
112181  1  0
112182  1  0
115183  1  0
115184  1  0
115185  1  0
116186  1  0
M  END

