
     RDKit          3D

273299  0  0  0  0  0  0  0  0999 V2000
    0.6539   -6.4474    8.5614 C   0  0  0  0  0  0  0  0  0  0  0  0
    0.5396   -5.2851    7.8022 C   0  0  0  0  0  0  0  0  0  0  0  0
   -0.3769   -5.4032    6.7454 C   0  0  0  0  0  0  0  0  0  0  0  0
   -0.7381   -4.3887    5.8326 C   0  0  0  0  0  0  0  0  0  0  0  0
   -0.1096   -3.0521    5.8554 C   0  0  0  0  0  0  0  0  0  0  0  0
   -0.8851   -1.9093    6.1014 C   0  0  0  0  0  0  0  0  0  0  0  0
   -0.2874   -0.6464    6.1368 C   0  0  0  0  0  0  0  0  0  0  0  0
    1.0919   -0.5162    5.9420 C   0  0  0  0  0  0  0  0  0  0  0  0
    1.8620    1.1014    6.0215 S   0  0  0  0  0  0  0  0  0  0  0  0
    2.1907    1.0282    7.8126 C   0  0  0  0  0  0  0  0  0  0  0  0
    3.3112    1.9957    8.1654 C   0  0  0  0  0  0  0  0  0  0  0  0
    1.8697   -1.6522    5.6725 C   0  0  0  0  0  0  0  0  0  0  0  0
    3.2047   -1.5368    5.4621 F   0  0  0  0  0  0  0  0  0  0  0  0
    1.2705   -2.9152    5.6290 C   0  0  0  0  0  0  0  0  0  0  0  0
   -1.7230   -4.7143    4.8840 C   0  0  0  0  0  0  0  0  0  0  0  0
   -2.3095   -5.9818    4.8066 C   0  0  0  0  0  0  0  0  0  0  0  0
   -1.9607   -6.9902    5.7278 C   0  0  0  0  0  0  0  0  0  0  0  0
   -2.6464   -8.2986    5.7411 C   0  0  0  0  0  0  0  0  0  0  0  0
   -1.9208   -9.4863    5.5581 C   0  0  0  0  0  0  0  0  0  0  0  0
   -2.5771  -10.7209    5.5831 C   0  0  0  0  0  0  0  0  0  0  0  0
   -3.9624  -10.7804    5.7969 C   0  0  0  0  0  0  0  0  0  0  0  0
   -4.7881  -12.3726    5.8529 S   0  0  0  0  0  0  0  0  0  0  0  0
   -5.1940  -12.3677    4.0771 C   0  0  0  0  0  0  0  0  0  0  0  0
   -5.9603  -13.6306    3.7170 C   0  0  0  0  0  0  0  0  0  0  0  0
   -4.6879   -9.5971    5.9830 C   0  0  0  0  0  0  0  0  0  0  0  0
   -4.0341   -8.3628    5.9519 C   0  0  0  0  0  0  0  0  0  0  0  0
   -6.0259   -9.6394    6.2042 F   0  0  0  0  0  0  0  0  0  0  0  0
   -0.9828   -6.6644    6.6825 C   0  0  0  0  0  0  0  0  0  0  0  0
   -0.3863   -7.6148    7.9364 S   0  0  0  0  0  0  0  0  0  0  0  0
   -3.2040   -6.1135    3.7285 C   0  0  0  0  0  0  0  0  0  0  0  0
   -3.3469   -4.9363    2.9946 C   0  0  0  0  0  0  0  0  0  0  0  0
   -2.3326   -3.7549    3.6477 S   0  0  0  0  0  0  0  0  0  0  0  0
   -4.1334   -4.7488    1.7638 C   0  0  0  0  0  0  0  0  0  0  0  0
   -3.7076   -3.6465    0.5744 S   0  0  0  0  0  0  0  0  0  0  0  0
   -5.0100   -3.9003   -0.4572 C   0  0  0  0  0  0  0  0  0  0  0  0
   -5.8453   -4.8418    0.1543 C   0  0  0  0  0  0  0  0  0  0  0  0
   -5.3572   -5.3173    1.3906 C   0  0  0  0  0  0  0  0  0  0  0  0
   -6.1221   -6.2081    2.1512 C   0  0  0  0  0  0  0  0  0  0  0  0
   -7.3551   -6.6743    1.6545 C   0  0  0  0  0  0  0  0  0  0  0  0
   -8.1384   -7.5971    2.3703 O   0  0  0  0  0  0  0  0  0  0  0  0
   -7.7474   -8.2053    3.6005 C   0  0  0  0  0  0  0  0  0  0  0  0
   -7.8355   -6.2108    0.4130 C   0  0  0  0  0  0  0  0  0  0  0  0
   -9.0766   -6.6890   -0.0351 O   0  0  0  0  0  0  0  0  0  0  0  0
   -9.7213   -6.2668   -1.2329 C   0  0  0  0  0  0  0  0  0  0  0  0
   -7.0754   -5.2869   -0.3382 C   0  0  0  0  0  0  0  0  0  0  0  0
   -5.3006   -2.9944   -1.5773 C   0  0  0  0  0  0  0  0  0  0  0  0
   -6.4585   -2.2216   -1.6487 C   0  0  0  0  0  0  0  0  0  0  0  0
   -6.2688   -0.9978   -2.3145 C   0  0  0  0  0  0  0  0  0  0  0  0
   -7.1423    0.1151   -2.2736 C   0  0  0  0  0  0  0  0  0  0  0  0
   -8.4682    0.0612   -1.6167 C   0  0  0  0  0  0  0  0  0  0  0  0
   -8.5922   -0.3115   -0.2700 C   0  0  0  0  0  0  0  0  0  0  0  0
   -9.8486   -0.3594    0.3339 C   0  0  0  0  0  0  0  0  0  0  0  0
  -10.9906    0.0073   -0.3875 C   0  0  0  0  0  0  0  0  0  0  0  0
  -12.5919    0.0034    0.4234 S   0  0  0  0  0  0  0  0  0  0  0  0
  -12.9240   -1.7693    0.1262 C   0  0  0  0  0  0  0  0  0  0  0  0
  -13.3369   -2.0208   -1.3183 C   0  0  0  0  0  0  0  0  0  0  0  0
  -10.8673    0.4299   -1.7194 C   0  0  0  0  0  0  0  0  0  0  0  0
  -11.9591    0.8235   -2.4193 F   0  0  0  0  0  0  0  0  0  0  0  0
   -9.6133    0.4503   -2.3327 C   0  0  0  0  0  0  0  0  0  0  0  0
   -6.6183    1.3495   -2.7010 C   0  0  0  0  0  0  0  0  0  0  0  0
   -5.3309    1.4760   -3.2281 C   0  0  0  0  0  0  0  0  0  0  0  0
   -4.4996    0.3494   -3.3714 C   0  0  0  0  0  0  0  0  0  0  0  0
   -3.0860    0.4999   -3.7718 C   0  0  0  0  0  0  0  0  0  0  0  0
   -2.0965    0.7344   -2.8041 C   0  0  0  0  0  0  0  0  0  0  0  0
   -0.7780    0.9810   -3.1920 C   0  0  0  0  0  0  0  0  0  0  0  0
   -0.4316    0.9908   -4.5477 C   0  0  0  0  0  0  0  0  0  0  0  0
    1.2676    1.2934   -5.0422 S   0  0  0  0  0  0  0  0  0  0  0  0
    1.6782   -0.4794   -5.1540 C   0  0  0  0  0  0  0  0  0  0  0  0
    3.0605   -0.6579   -5.7590 C   0  0  0  0  0  0  0  0  0  0  0  0
   -1.4210    0.7650   -5.5178 C   0  0  0  0  0  0  0  0  0  0  0  0
   -2.7429    0.5254   -5.1312 C   0  0  0  0  0  0  0  0  0  0  0  0
   -1.1012    0.7771   -6.8377 F   0  0  0  0  0  0  0  0  0  0  0  0
   -4.9860   -0.8647   -2.8578 C   0  0  0  0  0  0  0  0  0  0  0  0
   -4.0771   -2.2083   -2.4355 S   0  0  0  0  0  0  0  0  0  0  0  0
   -4.8703    2.8000   -3.2558 C   0  0  0  0  0  0  0  0  0  0  0  0
   -5.7028    3.7039   -2.5897 C   0  0  0  0  0  0  0  0  0  0  0  0
   -7.1214    2.8700   -2.1878 S   0  0  0  0  0  0  0  0  0  0  0  0
   -5.0860    4.6697   -1.6527 C   0  0  0  0  0  0  0  0  0  0  0  0
   -5.1913    4.4469   -0.2746 C   0  0  0  0  0  0  0  0  0  0  0  0
   -3.9899    4.6315    0.4254 C   0  0  0  0  0  0  0  0  0  0  0  0
   -3.7021    4.0922    1.7005 C   0  0  0  0  0  0  0  0  0  0  0  0
   -4.7299    3.4177    2.5184 C   0  0  0  0  0  0  0  0  0  0  0  0
   -5.1522    4.0056    3.7177 C   0  0  0  0  0  0  0  0  0  0  0  0
   -6.1662    3.4085    4.4730 C   0  0  0  0  0  0  0  0  0  0  0  0
   -6.7646    2.2221    4.0322 C   0  0  0  0  0  0  0  0  0  0  0  0
   -8.1395    1.5300    4.9569 S   0  0  0  0  0  0  0  0  0  0  0  0
   -9.4018    2.6140    4.1930 C   0  0  0  0  0  0  0  0  0  0  0  0
   -9.8579    2.0577    2.8519 C   0  0  0  0  0  0  0  0  0  0  0  0
   -6.2990    1.5971    2.8693 C   0  0  0  0  0  0  0  0  0  0  0  0
   -6.8312    0.4183    2.4635 F   0  0  0  0  0  0  0  0  0  0  0  0
   -5.2861    2.1944    2.1099 C   0  0  0  0  0  0  0  0  0  0  0  0
   -2.3555    4.0700    2.0884 C   0  0  0  0  0  0  0  0  0  0  0  0
   -1.3428    4.6244    1.3045 C   0  0  0  0  0  0  0  0  0  0  0  0
   -1.6317    5.1989    0.0492 C   0  0  0  0  0  0  0  0  0  0  0  0
   -0.5361    5.4638   -0.9007 C   0  0  0  0  0  0  0  0  0  0  0  0
   -0.0023    4.4008   -1.6439 C   0  0  0  0  0  0  0  0  0  0  0  0
    1.1954    4.5627   -2.3434 C   0  0  0  0  0  0  0  0  0  0  0  0
    1.8709    5.7888   -2.3018 C   0  0  0  0  0  0  0  0  0  0  0  0
    3.4839    5.9307   -3.0795 S   0  0  0  0  0  0  0  0  0  0  0  0
    4.4136    5.3378   -1.6185 C   0  0  0  0  0  0  0  0  0  0  0  0
    4.7305    6.4928   -0.6769 C   0  0  0  0  0  0  0  0  0  0  0  0
    1.3028    6.8748   -1.6188 C   0  0  0  0  0  0  0  0  0  0  0  0
    0.1078    6.7092   -0.9093 C   0  0  0  0  0  0  0  0  0  0  0  0
    1.9294    8.0796   -1.5956 F   0  0  0  0  0  0  0  0  0  0  0  0
   -2.9699    5.1640   -0.3690 C   0  0  0  0  0  0  0  0  0  0  0  0
   -3.5422    5.3072   -1.9409 S   0  0  0  0  0  0  0  0  0  0  0  0
   -0.0593    4.3024    1.7578 C   0  0  0  0  0  0  0  0  0  0  0  0
   -0.0519    3.4098    2.8259 C   0  0  0  0  0  0  0  0  0  0  0  0
   -1.6471    3.0793    3.2581 S   0  0  0  0  0  0  0  0  0  0  0  0
    1.0681    2.4886    2.9935 C   0  0  0  0  0  0  0  0  0  0  0  0
    1.1081    1.2906    2.2739 C   0  0  0  0  0  0  0  0  0  0  0  0
    2.4002    0.9340    1.8550 C   0  0  0  0  0  0  0  0  0  0  0  0
    2.7021   -0.0197    0.8608 C   0  0  0  0  0  0  0  0  0  0  0  0
    1.6837   -0.9592    0.3405 C   0  0  0  0  0  0  0  0  0  0  0  0
    1.3084   -0.9259   -1.0103 C   0  0  0  0  0  0  0  0  0  0  0  0
    0.4445   -1.8954   -1.5258 C   0  0  0  0  0  0  0  0  0  0  0  0
   -0.0257   -2.9212   -0.7036 C   0  0  0  0  0  0  0  0  0  0  0  0
   -1.0011   -4.2529   -1.4135 S   0  0  0  0  0  0  0  0  0  0  0  0
    0.4200   -5.3638   -1.7046 C   0  0  0  0  0  0  0  0  0  0  0  0
    1.0912   -5.0427   -3.0337 C   0  0  0  0  0  0  0  0  0  0  0  0
    0.2986   -2.9288    0.6601 C   0  0  0  0  0  0  0  0  0  0  0  0
   -0.1397   -3.9287    1.4632 F   0  0  0  0  0  0  0  0  0  0  0  0
    1.1403   -1.9400    1.1851 C   0  0  0  0  0  0  0  0  0  0  0  0
    3.9932    0.0320    0.3006 C   0  0  0  0  0  0  0  0  0  0  0  0
    4.9697    0.9267    0.7464 C   0  0  0  0  0  0  0  0  0  0  0  0
    4.6983    1.8131    1.8113 C   0  0  0  0  0  0  0  0  0  0  0  0
    5.6971    2.7833    2.3137 C   0  0  0  0  0  0  0  0  0  0  0  0
    6.0572    2.7708    3.6698 C   0  0  0  0  0  0  0  0  0  0  0  0
    7.0312    3.6530    4.1470 C   0  0  0  0  0  0  0  0  0  0  0  0
    7.6495    4.5577    3.2737 C   0  0  0  0  0  0  0  0  0  0  0  0
    8.9265    5.6589    3.8886 S   0  0  0  0  0  0  0  0  0  0  0  0
   10.2909    4.4592    3.6813 C   0  0  0  0  0  0  0  0  0  0  0  0
   10.7378    4.3670    2.2269 C   0  0  0  0  0  0  0  0  0  0  0  0
    7.2567    4.6068    1.9314 C   0  0  0  0  0  0  0  0  0  0  0  0
    6.2850    3.7226    1.4538 C   0  0  0  0  0  0  0  0  0  0  0  0
    7.8275    5.4966    1.0809 F   0  0  0  0  0  0  0  0  0  0  0  0
    3.3865    1.8156    2.3107 C   0  0  0  0  0  0  0  0  0  0  0  0
    2.6472    3.0561    3.1651 S   0  0  0  0  0  0  0  0  0  0  0  0
    6.1253    0.9191   -0.0529 C   0  0  0  0  0  0  0  0  0  0  0  0
    6.0223    0.0830   -1.1631 C   0  0  0  0  0  0  0  0  0  0  0  0
    4.5502   -0.7286   -1.0987 S   0  0  0  0  0  0  0  0  0  0  0  0
    6.8281    0.2344   -2.3861 C   0  0  0  0  0  0  0  0  0  0  0  0
    7.4888    1.4091   -2.7447 C   0  0  0  0  0  0  0  0  0  0  0  0
    7.9632    1.3918   -4.0611 C   0  0  0  0  0  0  0  0  0  0  0  0
    8.5827    2.4665   -4.7268 C   0  0  0  0  0  0  0  0  0  0  0  0
    8.6990    3.7939   -4.0975 C   0  0  0  0  0  0  0  0  0  0  0  0
    7.5946    4.6568   -4.0957 C   0  0  0  0  0  0  0  0  0  0  0  0
    7.6580    5.8801   -3.4240 C   0  0  0  0  0  0  0  0  0  0  0  0
    8.8244    6.2483   -2.7430 C   0  0  0  0  0  0  0  0  0  0  0  0
    8.8633    7.7960   -1.8304 S   0  0  0  0  0  0  0  0  0  0  0  0
    9.3558    8.7916   -3.2768 C   0  0  0  0  0  0  0  0  0  0  0  0
    9.2516   10.2719   -2.9426 C   0  0  0  0  0  0  0  0  0  0  0  0
    9.9381    5.3970   -2.7570 C   0  0  0  0  0  0  0  0  0  0  0  0
   11.0738    5.7415   -2.0985 F   0  0  0  0  0  0  0  0  0  0  0  0
    9.8753    4.1715   -3.4312 C   0  0  0  0  0  0  0  0  0  0  0  0
    8.9514    2.2538   -6.0634 C   0  0  0  0  0  0  0  0  0  0  0  0
    8.7017    1.0524   -6.7327 C   0  0  0  0  0  0  0  0  0  0  0  0
    8.0515   -0.0108   -6.0737 C   0  0  0  0  0  0  0  0  0  0  0  0
    7.6789   -1.2432   -6.7863 C   0  0  0  0  0  0  0  0  0  0  0  0
    6.3783   -1.3987   -7.2789 C   0  0  0  0  0  0  0  0  0  0  0  0
    6.0336   -2.5430   -8.0056 C   0  0  0  0  0  0  0  0  0  0  0  0
    6.9920   -3.5378   -8.2422 C   0  0  0  0  0  0  0  0  0  0  0  0
    6.5521   -4.9820   -9.2157 S   0  0  0  0  0  0  0  0  0  0  0  0
    6.9975   -4.2398  -10.8288 C   0  0  0  0  0  0  0  0  0  0  0  0
    5.8006   -4.2955  -11.7659 C   0  0  0  0  0  0  0  0  0  0  0  0
    8.2907   -3.3913   -7.7364 C   0  0  0  0  0  0  0  0  0  0  0  0
    8.6344   -2.2465   -7.0124 C   0  0  0  0  0  0  0  0  0  0  0  0
    9.2209   -4.3575   -7.9492 F   0  0  0  0  0  0  0  0  0  0  0  0
    7.6949    0.1942   -4.7304 C   0  0  0  0  0  0  0  0  0  0  0  0
    6.8278   -0.8246   -3.7055 S   0  0  0  0  0  0  0  0  0  0  0  0
    9.1088    1.0778   -8.0767 C   0  0  0  0  0  0  0  0  0  0  0  0
    9.6768    2.2888   -8.4570 C   0  0  0  0  0  0  0  0  0  0  0  0
    9.6657    3.3390   -7.1328 S   0  0  0  0  0  0  0  0  0  0  0  0
    1.2987   -6.5712    9.4222 H   0  0  0  0  0  0  0  0  0  0  0  0
    1.0945   -4.3850    8.0269 H   0  0  0  0  0  0  0  0  0  0  0  0
   -1.9482   -2.0003    6.2795 H   0  0  0  0  0  0  0  0  0  0  0  0
   -0.8973    0.2287    6.3301 H   0  0  0  0  0  0  0  0  0  0  0  0
    2.4942    0.0020    8.1164 H   0  0  0  0  0  0  0  0  0  0  0  0
    1.2656    1.3101    8.3606 H   0  0  0  0  0  0  0  0  0  0  0  0
    4.2355    1.7280    7.6123 H   0  0  0  0  0  0  0  0  0  0  0  0
    3.5202    1.9413    9.2545 H   0  0  0  0  0  0  0  0  0  0  0  0
    3.0225    3.0386    7.9053 H   0  0  0  0  0  0  0  0  0  0  0  0
    1.8778   -3.7857    5.4195 H   0  0  0  0  0  0  0  0  0  0  0  0
   -0.8529   -9.4556    5.3927 H   0  0  0  0  0  0  0  0  0  0  0  0
   -2.0099  -11.6315    5.4407 H   0  0  0  0  0  0  0  0  0  0  0  0
   -4.2563  -12.3212    3.4804 H   0  0  0  0  0  0  0  0  0  0  0  0
   -5.8226  -11.4807    3.8421 H   0  0  0  0  0  0  0  0  0  0  0  0
   -6.8890  -13.7007    4.3233 H   0  0  0  0  0  0  0  0  0  0  0  0
   -6.2399  -13.6065    2.6423 H   0  0  0  0  0  0  0  0  0  0  0  0
   -5.3331  -14.5279    3.9045 H   0  0  0  0  0  0  0  0  0  0  0  0
   -4.6060   -7.4544    6.1048 H   0  0  0  0  0  0  0  0  0  0  0  0
   -3.6679   -7.0522    3.4592 H   0  0  0  0  0  0  0  0  0  0  0  0
   -5.7887   -6.5104    3.1296 H   0  0  0  0  0  0  0  0  0  0  0  0
   -6.7995   -8.7694    3.4672 H   0  0  0  0  0  0  0  0  0  0  0  0
   -7.6215   -7.4328    4.3896 H   0  0  0  0  0  0  0  0  0  0  0  0
   -8.5376   -8.9142    3.9229 H   0  0  0  0  0  0  0  0  0  0  0  0
   -9.9106   -5.1724   -1.1989 H   0  0  0  0  0  0  0  0  0  0  0  0
   -9.0977   -6.5221   -2.1149 H   0  0  0  0  0  0  0  0  0  0  0  0
  -10.6956   -6.7921   -1.3268 H   0  0  0  0  0  0  0  0  0  0  0  0
   -7.4316   -4.9248   -1.2942 H   0  0  0  0  0  0  0  0  0  0  0  0
   -7.3459   -2.4686   -1.0849 H   0  0  0  0  0  0  0  0  0  0  0  0
   -7.7180   -0.5689    0.3103 H   0  0  0  0  0  0  0  0  0  0  0  0
   -9.9337   -0.6796    1.3655 H   0  0  0  0  0  0  0  0  0  0  0  0
  -13.7539   -2.0787    0.7942 H   0  0  0  0  0  0  0  0  0  0  0  0
  -12.0329   -2.3825    0.3800 H   0  0  0  0  0  0  0  0  0  0  0  0
  -12.4726   -1.8800   -1.9974 H   0  0  0  0  0  0  0  0  0  0  0  0
  -13.6958   -3.0658   -1.4258 H   0  0  0  0  0  0  0  0  0  0  0  0
  -14.1542   -1.3288   -1.6122 H   0  0  0  0  0  0  0  0  0  0  0  0
   -9.5277    0.7763   -3.3611 H   0  0  0  0  0  0  0  0  0  0  0  0
   -2.3541    0.7541   -1.7503 H   0  0  0  0  0  0  0  0  0  0  0  0
   -0.0300    1.1808   -2.4411 H   0  0  0  0  0  0  0  0  0  0  0  0
    0.9334   -0.9996   -5.7940 H   0  0  0  0  0  0  0  0  0  0  0  0
    1.6638   -0.9248   -4.1379 H   0  0  0  0  0  0  0  0  0  0  0  0
    3.3196   -1.7365   -5.7821 H   0  0  0  0  0  0  0  0  0  0  0  0
    3.0778   -0.2630   -6.7976 H   0  0  0  0  0  0  0  0  0  0  0  0
    3.8188   -0.1244   -5.1497 H   0  0  0  0  0  0  0  0  0  0  0  0
   -3.5004    0.3728   -5.8870 H   0  0  0  0  0  0  0  0  0  0  0  0
   -3.8468    3.0373   -3.5020 H   0  0  0  0  0  0  0  0  0  0  0  0
   -6.0367    3.9359    0.1636 H   0  0  0  0  0  0  0  0  0  0  0  0
   -4.7196    4.9393    4.0518 H   0  0  0  0  0  0  0  0  0  0  0  0
   -6.5060    3.8874    5.3827 H   0  0  0  0  0  0  0  0  0  0  0  0
   -9.0157    3.6487    4.0654 H   0  0  0  0  0  0  0  0  0  0  0  0
  -10.2786    2.6609    4.8733 H   0  0  0  0  0  0  0  0  0  0  0  0
  -10.2910    1.0462    2.9985 H   0  0  0  0  0  0  0  0  0  0  0  0
  -10.6374    2.7197    2.4169 H   0  0  0  0  0  0  0  0  0  0  0  0
   -9.0080    2.0022    2.1414 H   0  0  0  0  0  0  0  0  0  0  0  0
   -4.9493    1.7164    1.1971 H   0  0  0  0  0  0  0  0  0  0  0  0
   -0.4756    3.4278   -1.6218 H   0  0  0  0  0  0  0  0  0  0  0  0
    1.6246    3.7203   -2.8730 H   0  0  0  0  0  0  0  0  0  0  0  0
    3.8545    4.5443   -1.0777 H   0  0  0  0  0  0  0  0  0  0  0  0
    5.3665    4.8907   -1.9685 H   0  0  0  0  0  0  0  0  0  0  0  0
    5.4007    6.1442    0.1339 H   0  0  0  0  0  0  0  0  0  0  0  0
    3.8006    6.8793   -0.2134 H   0  0  0  0  0  0  0  0  0  0  0  0
    5.2413    7.3089   -1.2317 H   0  0  0  0  0  0  0  0  0  0  0  0
   -0.2878    7.5274   -0.3206 H   0  0  0  0  0  0  0  0  0  0  0  0
    0.8437    4.5448    1.2065 H   0  0  0  0  0  0  0  0  0  0  0  0
    0.2156    0.8198    1.8829 H   0  0  0  0  0  0  0  0  0  0  0  0
    1.7122   -0.1661   -1.6693 H   0  0  0  0  0  0  0  0  0  0  0  0
    0.1751   -1.8724   -2.5736 H   0  0  0  0  0  0  0  0  0  0  0  0
    1.1577   -5.2928   -0.8770 H   0  0  0  0  0  0  0  0  0  0  0  0
    0.0414   -6.4089   -1.7323 H   0  0  0  0  0  0  0  0  0  0  0  0
    1.5238   -4.0211   -3.0167 H   0  0  0  0  0  0  0  0  0  0  0  0
    1.9092   -5.7696   -3.2219 H   0  0  0  0  0  0  0  0  0  0  0  0
    0.3537   -5.1142   -3.8620 H   0  0  0  0  0  0  0  0  0  0  0  0
    1.4148   -1.9744    2.2318 H   0  0  0  0  0  0  0  0  0  0  0  0
    5.5980    2.0666    4.3517 H   0  0  0  0  0  0  0  0  0  0  0  0
    7.3159    3.6176    5.1918 H   0  0  0  0  0  0  0  0  0  0  0  0
    9.9908    3.4573    4.0547 H   0  0  0  0  0  0  0  0  0  0  0  0
   11.1498    4.8075    4.2932 H   0  0  0  0  0  0  0  0  0  0  0  0
    9.9462    3.9059    1.6025 H   0  0  0  0  0  0  0  0  0  0  0  0
   10.9774    5.3771    1.8330 H   0  0  0  0  0  0  0  0  0  0  0  0
   11.6455    3.7314    2.1576 H   0  0  0  0  0  0  0  0  0  0  0  0
    6.0006    3.7631    0.4087 H   0  0  0  0  0  0  0  0  0  0  0  0
    6.9738    1.5700    0.1029 H   0  0  0  0  0  0  0  0  0  0  0  0
    7.5592    2.2740   -2.0987 H   0  0  0  0  0  0  0  0  0  0  0  0
    6.6793    4.3756   -4.6043 H   0  0  0  0  0  0  0  0  0  0  0  0
    6.7970    6.5349   -3.4221 H   0  0  0  0  0  0  0  0  0  0  0  0
    8.6840    8.5701   -4.1327 H   0  0  0  0  0  0  0  0  0  0  0  0
   10.3998    8.5441   -3.5665 H   0  0  0  0  0  0  0  0  0  0  0  0
    9.5911   10.8780   -3.8110 H   0  0  0  0  0  0  0  0  0  0  0  0
    8.1967   10.5367   -2.7152 H   0  0  0  0  0  0  0  0  0  0  0  0
    9.8876   10.5143   -2.0660 H   0  0  0  0  0  0  0  0  0  0  0  0
   10.7318    3.5085   -3.4201 H   0  0  0  0  0  0  0  0  0  0  0  0
    5.6392   -0.6239   -7.1229 H   0  0  0  0  0  0  0  0  0  0  0  0
    5.0286   -2.6508   -8.3934 H   0  0  0  0  0  0  0  0  0  0  0  0
    7.8341   -4.8209  -11.2709 H   0  0  0  0  0  0  0  0  0  0  0  0
    7.3302   -3.1848  -10.7316 H   0  0  0  0  0  0  0  0  0  0  0  0
    4.9471   -3.7351  -11.3249 H   0  0  0  0  0  0  0  0  0  0  0  0
    5.4997   -5.3521  -11.9331 H   0  0  0  0  0  0  0  0  0  0  0  0
    6.0654   -3.8377  -12.7431 H   0  0  0  0  0  0  0  0  0  0  0  0
    9.6438   -2.1323   -6.6365 H   0  0  0  0  0  0  0  0  0  0  0  0
    8.9899    0.2478   -8.7636 H   0  0  0  0  0  0  0  0  0  0  0  0
   10.0531    2.5234   -9.4423 H   0  0  0  0  0  0  0  0  0  0  0  0
  1  2  2  0
  2  3  1  0
  3  4  2  0
  4  5  1  0
  5  6  2  0
  6  7  1  0
  7  8  2  0
  8  9  1  0
  9 10  1  0
 10 11  1  0
  8 12  1  0
 12 13  1  0
 12 14  2  0
  4 15  1  0
 15 16  2  0
 16 17  1  0
 17 18  1  0
 18 19  2  0
 19 20  1  0
 20 21  2  0
 21 22  1  0
 22 23  1  0
 23 24  1  0
 21 25  1  0
 25 26  2  0
 25 27  1  0
 17 28  2  0
 28 29  1  0
 16 30  1  0
 30 31  2  0
 31 32  1  0
 31 33  1  0
 33 34  1  0
 34 35  1  0
 35 36  2  0
 36 37  1  0
 37 38  1  0
 38 39  2  0
 39 40  1  0
 40 41  1  0
 39 42  1  0
 42 43  1  0
 43 44  1  0
 42 45  2  0
 35 46  1  0
 46 47  2  0
 47 48  1  0
 48 49  2  0
 49 50  1  0
 50 51  2  0
 51 52  1  0
 52 53  2  0
 53 54  1  0
 54 55  1  0
 55 56  1  0
 53 57  1  0
 57 58  1  0
 57 59  2  0
 49 60  1  0
 60 61  2  0
 61 62  1  0
 62 63  1  0
 63 64  2  0
 64 65  1  0
 65 66  2  0
 66 67  1  0
 67 68  1  0
 68 69  1  0
 66 70  1  0
 70 71  2  0
 70 72  1  0
 62 73  2  0
 73 74  1  0
 61 75  1  0
 75 76  2  0
 76 77  1  0
 76 78  1  0
 78 79  2  0
 79 80  1  0
 80 81  2  0
 81 82  1  0
 82 83  2  0
 83 84  1  0
 84 85  2  0
 85 86  1  0
 86 87  1  0
 87 88  1  0
 85 89  1  0
 89 90  1  0
 89 91  2  0
 81 92  1  0
 92 93  2  0
 93 94  1  0
 94 95  1  0
 95 96  2  0
 96 97  1  0
 97 98  2  0
 98 99  1  0
 99100  1  0
100101  1  0
 98102  1  0
102103  2  0
102104  1  0
 94105  2  0
105106  1  0
 93107  1  0
107108  2  0
108109  1  0
108110  1  0
110111  2  0
111112  1  0
112113  2  0
113114  1  0
114115  2  0
115116  1  0
116117  2  0
117118  1  0
118119  1  0
119120  1  0
117121  1  0
121122  1  0
121123  2  0
113124  1  0
124125  2  0
125126  1  0
126127  1  0
127128  2  0
128129  1  0
129130  2  0
130131  1  0
131132  1  0
132133  1  0
130134  1  0
134135  2  0
134136  1  0
126137  2  0
137138  1  0
125139  1  0
139140  2  0
140141  1  0
140142  1  0
142143  2  0
143144  1  0
144145  2  0
145146  1  0
146147  2  0
147148  1  0
148149  2  0
149150  1  0
150151  1  0
151152  1  0
149153  1  0
153154  1  0
153155  2  0
145156  1  0
156157  2  0
157158  1  0
158159  1  0
159160  2  0
160161  1  0
161162  2  0
162163  1  0
163164  1  0
164165  1  0
162166  1  0
166167  2  0
166168  1  0
158169  2  0
169170  1  0
157171  1  0
171172  2  0
172173  1  0
 29  1  1  0
 37 33  2  0
 74 46  1  0
106 78  1  0
138110  1  0
170142  1  0
 28  3  1  0
 45 36  1  0
 73 48  1  0
105 80  1  0
137112  1  0
169144  1  0
 14  5  1  0
 32 15  1  0
 59 50  1  0
 77 60  1  0
 91 82  1  0
109 92  1  0
123114  1  0
141124  1  0
155146  1  0
173156  1  0
 26 18  1  0
 71 63  1  0
103 95  1  0
135127  1  0
167159  1  0
  1174  1  0
  2175  1  0
  6176  1  0
  7177  1  0
 10178  1  0
 10179  1  0
 11180  1  0
 11181  1  0
 11182  1  0
 14183  1  0
 19184  1  0
 20185  1  0
 23186  1  0
 23187  1  0
 24188  1  0
 24189  1  0
 24190  1  0
 26191  1  0
 30192  1  0
 38193  1  0
 41194  1  0
 41195  1  0
 41196  1  0
 44197  1  0
 44198  1  0
 44199  1  0
 45200  1  0
 47201  1  0
 51202  1  0
 52203  1  0
 55204  1  0
 55205  1  0
 56206  1  0
 56207  1  0
 56208  1  0
 59209  1  0
 64210  1  0
 65211  1  0
 68212  1  0
 68213  1  0
 69214  1  0
 69215  1  0
 69216  1  0
 71217  1  0
 75218  1  0
 79219  1  0
 83220  1  0
 84221  1  0
 87222  1  0
 87223  1  0
 88224  1  0
 88225  1  0
 88226  1  0
 91227  1  0
 96228  1  0
 97229  1  0
100230  1  0
100231  1  0
101232  1  0
101233  1  0
101234  1  0
103235  1  0
107236  1  0
111237  1  0
115238  1  0
116239  1  0
119240  1  0
119241  1  0
120242  1  0
120243  1  0
120244  1  0
123245  1  0
128246  1  0
129247  1  0
132248  1  0
132249  1  0
133250  1  0
133251  1  0
133252  1  0
135253  1  0
139254  1  0
143255  1  0
147256  1  0
148257  1  0
151258  1  0
151259  1  0
152260  1  0
152261  1  0
152262  1  0
155263  1  0
160264  1  0
161265  1  0
164266  1  0
164267  1  0
165268  1  0
165269  1  0
165270  1  0
167271  1  0
171272  1  0
172273  1  0
M  END

