
     RDKit          3D

120131  0  0  0  0  0  0  0  0999 V2000
    1.7767    5.2565    5.5823 C   0  0  0  0  0  0  0  0  0  0  0  0
    0.5633    5.8168    5.1857 C   0  0  0  0  0  0  0  0  0  0  0  0
    0.1358    5.7150    3.8592 C   0  0  0  0  0  0  0  0  0  0  0  0
    0.9250    5.0518    2.8958 C   0  0  0  0  0  0  0  0  0  0  0  0
    2.1509    4.4750    3.3038 C   0  0  0  0  0  0  0  0  0  0  0  0
    2.5744    4.5823    4.6503 C   0  0  0  0  0  0  0  0  0  0  0  0
    3.7941    4.0034    5.0313 C   0  0  0  0  0  0  0  0  0  0  0  0
    4.5716    3.3347    4.0855 C   0  0  0  0  0  0  0  0  0  0  0  0
    4.1212    3.2441    2.7686 C   0  0  0  0  0  0  0  0  0  0  0  0
    2.9393    3.8109    2.4109 N   0  0  0  0  0  0  0  0  0  0  0  0
    0.4844    4.9083    1.4809 C   0  0  0  0  0  0  0  0  0  0  0  0
   -0.5023    5.6112    0.9042 C   0  0  0  0  0  0  0  0  0  0  0  0
   -0.8894    5.3191   -0.4896 C   0  0  0  0  0  0  0  0  0  0  0  0
   -2.1783    4.8200   -0.7220 C   0  0  0  0  0  0  0  0  0  0  0  0
   -2.5130    4.2670   -1.9583 C   0  0  0  0  0  0  0  0  0  0  0  0
   -1.5645    4.2037   -2.9847 C   0  0  0  0  0  0  0  0  0  0  0  0
   -0.3193    4.8427   -2.8201 C   0  0  0  0  0  0  0  0  0  0  0  0
    0.0301    5.3981   -1.5651 C   0  0  0  0  0  0  0  0  0  0  0  0
    1.2961    6.0016   -1.4336 C   0  0  0  0  0  0  0  0  0  0  0  0
    2.1789    6.0257   -2.5130 C   0  0  0  0  0  0  0  0  0  0  0  0
    1.7936    5.4595   -3.7262 C   0  0  0  0  0  0  0  0  0  0  0  0
    0.5692    4.8890   -3.8526 N   0  0  0  0  0  0  0  0  0  0  0  0
   -1.8411    3.3357   -4.1509 C   0  0  0  0  0  0  0  0  0  0  0  0
   -1.0599    2.2954   -4.4942 C   0  0  0  0  0  0  0  0  0  0  0  0
    0.1468    1.8771   -3.7291 C   0  0  0  0  0  0  0  0  0  0  0  0
    0.0476    1.6832   -2.3410 C   0  0  0  0  0  0  0  0  0  0  0  0
    1.1730    1.3888   -1.5757 C   0  0  0  0  0  0  0  0  0  0  0  0
    2.4217    1.1893   -2.1830 C   0  0  0  0  0  0  0  0  0  0  0  0
    2.5423    1.3699   -3.5749 C   0  0  0  0  0  0  0  0  0  0  0  0
    1.4062    1.7134   -4.3566 C   0  0  0  0  0  0  0  0  0  0  0  0
    1.5883    1.9164   -5.7389 C   0  0  0  0  0  0  0  0  0  0  0  0
    2.8493    1.7635   -6.3131 C   0  0  0  0  0  0  0  0  0  0  0  0
    3.9309    1.4114   -5.5103 C   0  0  0  0  0  0  0  0  0  0  0  0
    3.7560    1.2255   -4.1773 N   0  0  0  0  0  0  0  0  0  0  0  0
    3.6205    0.8857   -1.3607 C   0  0  0  0  0  0  0  0  0  0  0  0
    3.6762    0.0025   -0.3503 C   0  0  0  0  0  0  0  0  0  0  0  0
    2.6070   -0.9517    0.0151 C   0  0  0  0  0  0  0  0  0  0  0  0
    1.5310   -1.6966   -1.0517 S   0  0  0  0  0  0  0  0  0  0  0  0
    0.6920   -2.6002    0.0887 C   0  0  0  0  0  0  0  0  0  0  0  0
    1.2985   -2.3901    1.3302 C   0  0  0  0  0  0  0  0  0  0  0  0
    2.3554   -1.4639    1.2911 C   0  0  0  0  0  0  0  0  0  0  0  0
    3.0380   -1.1209    2.4640 C   0  0  0  0  0  0  0  0  0  0  0  0
    2.6756   -1.7315    3.6843 C   0  0  0  0  0  0  0  0  0  0  0  0
    3.3187   -1.4158    4.8915 O   0  0  0  0  0  0  0  0  0  0  0  0
    4.3509   -0.4440    5.0279 C   0  0  0  0  0  0  0  0  0  0  0  0
    1.6404   -2.6886    3.7150 C   0  0  0  0  0  0  0  0  0  0  0  0
    1.3181   -3.2790    4.9480 O   0  0  0  0  0  0  0  0  0  0  0  0
    0.2787   -4.2357    5.1344 C   0  0  0  0  0  0  0  0  0  0  0  0
    0.9596   -3.0277    2.5276 C   0  0  0  0  0  0  0  0  0  0  0  0
   -0.5296   -3.3642   -0.2129 C   0  0  0  0  0  0  0  0  0  0  0  0
   -0.7179   -4.3367   -1.5733 S   0  0  0  0  0  0  0  0  0  0  0  0
   -2.3440   -4.7149   -1.3383 C   0  0  0  0  0  0  0  0  0  0  0  0
   -2.7782   -4.0358   -0.1970 C   0  0  0  0  0  0  0  0  0  0  0  0
   -1.7745   -3.2690    0.4195 C   0  0  0  0  0  0  0  0  0  0  0  0
   -2.0886   -2.4466    1.5074 C   0  0  0  0  0  0  0  0  0  0  0  0
   -3.3942   -2.4569    2.0393 C   0  0  0  0  0  0  0  0  0  0  0  0
   -3.7434   -1.6813    3.1571 O   0  0  0  0  0  0  0  0  0  0  0  0
   -2.8381   -0.8489    3.8751 C   0  0  0  0  0  0  0  0  0  0  0  0
   -4.3893   -3.2594    1.4475 C   0  0  0  0  0  0  0  0  0  0  0  0
   -5.6776   -3.2379    2.0064 O   0  0  0  0  0  0  0  0  0  0  0  0
   -6.7923   -3.9603    1.4916 C   0  0  0  0  0  0  0  0  0  0  0  0
   -4.0790   -4.0472    0.3176 C   0  0  0  0  0  0  0  0  0  0  0  0
   -3.1821   -5.4305   -2.3242 C   0  0  0  0  0  0  0  0  0  0  0  0
   -4.2529   -4.7406   -2.9090 C   0  0  0  0  0  0  0  0  0  0  0  0
   -5.0367   -5.3378   -3.8935 C   0  0  0  0  0  0  0  0  0  0  0  0
   -4.7621   -6.6405   -4.3413 C   0  0  0  0  0  0  0  0  0  0  0  0
   -3.6945   -7.3532   -3.7540 C   0  0  0  0  0  0  0  0  0  0  0  0
   -2.9018   -6.7546   -2.7398 C   0  0  0  0  0  0  0  0  0  0  0  0
   -1.8684   -7.5190   -2.1642 C   0  0  0  0  0  0  0  0  0  0  0  0
   -1.6184   -8.8148   -2.6114 C   0  0  0  0  0  0  0  0  0  0  0  0
   -2.4047   -9.3537   -3.6262 C   0  0  0  0  0  0  0  0  0  0  0  0
   -3.4134   -8.6230   -4.1651 N   0  0  0  0  0  0  0  0  0  0  0  0
   -5.6078   -7.2862   -5.3815 C   0  0  0  0  0  0  0  0  0  0  0  0
   -6.2723   -6.6072   -6.3178 C   0  0  0  0  0  0  0  0  0  0  0  0
    2.0880    5.3438    6.6170 H   0  0  0  0  0  0  0  0  0  0  0  0
   -0.0551    6.3268    5.9128 H   0  0  0  0  0  0  0  0  0  0  0  0
   -0.8255    6.1404    3.6096 H   0  0  0  0  0  0  0  0  0  0  0  0
    4.1432    4.0698    6.0555 H   0  0  0  0  0  0  0  0  0  0  0  0
    5.5124    2.8836    4.3724 H   0  0  0  0  0  0  0  0  0  0  0  0
    4.7117    2.7239    2.0274 H   0  0  0  0  0  0  0  0  0  0  0  0
    1.0016    4.1788    0.8656 H   0  0  0  0  0  0  0  0  0  0  0  0
   -1.0927    6.3277    1.4556 H   0  0  0  0  0  0  0  0  0  0  0  0
   -2.8991    4.7729    0.0853 H   0  0  0  0  0  0  0  0  0  0  0  0
   -3.4826    3.7986   -2.0825 H   0  0  0  0  0  0  0  0  0  0  0  0
    1.6039    6.4628   -0.5039 H   0  0  0  0  0  0  0  0  0  0  0  0
    3.1537    6.4861   -2.4101 H   0  0  0  0  0  0  0  0  0  0  0  0
    2.4703    5.4723   -4.5689 H   0  0  0  0  0  0  0  0  0  0  0  0
   -2.7485    3.5115   -4.7171 H   0  0  0  0  0  0  0  0  0  0  0  0
   -1.3171    1.7367   -5.3853 H   0  0  0  0  0  0  0  0  0  0  0  0
   -0.9075    1.7832   -1.8411 H   0  0  0  0  0  0  0  0  0  0  0  0
    1.0629    1.3061   -0.5009 H   0  0  0  0  0  0  0  0  0  0  0  0
    0.7668    2.2023   -6.3814 H   0  0  0  0  0  0  0  0  0  0  0  0
    2.9870    1.9219   -7.3756 H   0  0  0  0  0  0  0  0  0  0  0  0
    4.9135    1.2887   -5.9448 H   0  0  0  0  0  0  0  0  0  0  0  0
    4.5238    1.4389   -1.5879 H   0  0  0  0  0  0  0  0  0  0  0  0
    4.5955   -0.0416    0.2193 H   0  0  0  0  0  0  0  0  0  0  0  0
    3.8324   -0.3895    2.4315 H   0  0  0  0  0  0  0  0  0  0  0  0
    4.6656   -0.3969    6.0905 H   0  0  0  0  0  0  0  0  0  0  0  0
    3.9727    0.5547    4.7241 H   0  0  0  0  0  0  0  0  0  0  0  0
    5.2283   -0.7269    4.4090 H   0  0  0  0  0  0  0  0  0  0  0  0
    0.2320   -4.5155    6.2076 H   0  0  0  0  0  0  0  0  0  0  0  0
   -0.6998   -3.7994    4.8388 H   0  0  0  0  0  0  0  0  0  0  0  0
    0.4873   -5.1480    4.5360 H   0  0  0  0  0  0  0  0  0  0  0  0
    0.1811   -3.7763    2.5330 H   0  0  0  0  0  0  0  0  0  0  0  0
   -1.3377   -1.7948    1.9253 H   0  0  0  0  0  0  0  0  0  0  0  0
   -3.3722   -0.3792    4.7264 H   0  0  0  0  0  0  0  0  0  0  0  0
   -2.4490   -0.0470    3.2136 H   0  0  0  0  0  0  0  0  0  0  0  0
   -1.9969   -1.4548    4.2758 H   0  0  0  0  0  0  0  0  0  0  0  0
   -6.5853   -5.0512    1.5143 H   0  0  0  0  0  0  0  0  0  0  0  0
   -7.0125   -3.6337    0.4524 H   0  0  0  0  0  0  0  0  0  0  0  0
   -7.6792   -3.7538    2.1243 H   0  0  0  0  0  0  0  0  0  0  0  0
   -4.8354   -4.6614   -0.1507 H   0  0  0  0  0  0  0  0  0  0  0  0
   -4.4783   -3.7246   -2.6077 H   0  0  0  0  0  0  0  0  0  0  0  0
   -5.8693   -4.7745   -4.2936 H   0  0  0  0  0  0  0  0  0  0  0  0
   -1.2563   -7.1306   -1.3618 H   0  0  0  0  0  0  0  0  0  0  0  0
   -0.8205   -9.3994   -2.1736 H   0  0  0  0  0  0  0  0  0  0  0  0
   -2.2190  -10.3577   -3.9829 H   0  0  0  0  0  0  0  0  0  0  0  0
   -5.6662   -8.3686   -5.4102 H   0  0  0  0  0  0  0  0  0  0  0  0
   -6.8646   -7.1416   -7.0495 H   0  0  0  0  0  0  0  0  0  0  0  0
   -6.2157   -5.5295   -6.3981 H   0  0  0  0  0  0  0  0  0  0  0  0
  1  2  2  0
  2  3  1  0
  3  4  2  0
  4  5  1  0
  5  6  2  0
  6  7  1  0
  7  8  2  0
  8  9  1  0
  9 10  2  0
  4 11  1  0
 11 12  2  3
 12 13  1  0
 13 14  2  0
 14 15  1  0
 15 16  2  0
 16 17  1  0
 17 18  2  0
 18 19  1  0
 19 20  2  0
 20 21  1  0
 21 22  2  0
 16 23  1  0
 23 24  2  3
 24 25  1  0
 25 26  2  0
 26 27  1  0
 27 28  2  0
 28 29  1  0
 29 30  2  0
 30 31  1  0
 31 32  2  0
 32 33  1  0
 33 34  2  0
 28 35  1  0
 35 36  2  3
 36 37  1  0
 37 38  1  0
 38 39  1  0
 39 40  2  0
 40 41  1  0
 41 42  1  0
 42 43  2  0
 43 44  1  0
 44 45  1  0
 43 46  1  0
 46 47  1  0
 47 48  1  0
 46 49  2  0
 39 50  1  0
 50 51  1  0
 51 52  1  0
 52 53  2  0
 53 54  1  0
 54 55  1  0
 55 56  2  0
 56 57  1  0
 57 58  1  0
 56 59  1  0
 59 60  1  0
 60 61  1  0
 59 62  2  0
 52 63  1  0
 63 64  2  0
 64 65  1  0
 65 66  2  0
 66 67  1  0
 67 68  2  0
 68 69  1  0
 69 70  2  0
 70 71  1  0
 71 72  2  0
 66 73  1  0
 73 74  2  3
  6  1  1  0
 18 13  1  0
 30 25  1  0
 41 37  2  0
 54 50  2  0
 68 63  1  0
 10  5  1  0
 22 17  1  0
 34 29  1  0
 49 40  1  0
 62 53  1  0
 72 67  1  0
  1 75  1  0
  2 76  1  0
  3 77  1  0
  7 78  1  0
  8 79  1  0
  9 80  1  0
 11 81  1  0
 12 82  1  0
 14 83  1  0
 15 84  1  0
 19 85  1  0
 20 86  1  0
 21 87  1  0
 23 88  1  0
 24 89  1  0
 26 90  1  0
 27 91  1  0
 31 92  1  0
 32 93  1  0
 33 94  1  0
 35 95  1  0
 36 96  1  0
 42 97  1  0
 45 98  1  0
 45 99  1  0
 45100  1  0
 48101  1  0
 48102  1  0
 48103  1  0
 49104  1  0
 55105  1  0
 58106  1  0
 58107  1  0
 58108  1  0
 61109  1  0
 61110  1  0
 61111  1  0
 62112  1  0
 64113  1  0
 65114  1  0
 69115  1  0
 70116  1  0
 71117  1  0
 73118  1  0
 74119  1  0
 74120  1  0
M  END

