
     RDKit          3D

104115  0  0  0  0  0  0  0  0999 V2000
    5.8706    1.2864    8.0934 C   0  0  0  0  0  0  0  0  0  0  0  0
    4.2441    1.6694    8.0223 S   0  0  0  0  0  0  0  0  0  0  0  0
    4.0636    1.6033    6.3504 C   0  0  0  0  0  0  0  0  0  0  0  0
    5.3121    1.2587    5.8142 C   0  0  0  0  0  0  0  0  0  0  0  0
    6.3208    1.1026    6.7968 C   0  0  0  0  0  0  0  0  0  0  0  0
    8.0455    0.7257    6.4659 S   0  0  0  0  0  0  0  0  0  0  0  0
    7.6797   -0.9236    5.7744 C   0  0  0  0  0  0  0  0  0  0  0  0
    7.0053   -0.8344    4.4293 C   0  0  0  0  0  0  0  0  0  0  0  0
    6.7068   -1.8681    3.8500 O   0  0  0  0  0  0  0  0  0  0  0  0
    6.6365    0.4896    3.8058 C   0  0  0  0  0  0  0  0  0  0  0  0
    5.4839    1.0454    4.4349 O   0  0  0  0  0  0  0  0  0  0  0  0
    2.7902    1.7774    5.5947 C   0  0  0  0  0  0  0  0  0  0  0  0
    2.6427    1.5384    3.9336 S   0  0  0  0  0  0  0  0  0  0  0  0
    1.0076    1.8627    3.8039 C   0  0  0  0  0  0  0  0  0  0  0  0
    0.5103    2.1136    5.0782 C   0  0  0  0  0  0  0  0  0  0  0  0
    1.5139    2.1219    6.0816 C   0  0  0  0  0  0  0  0  0  0  0  0
    1.1779    2.5552    7.7958 S   0  0  0  0  0  0  0  0  0  0  0  0
    0.1879    1.0598    8.1177 C   0  0  0  0  0  0  0  0  0  0  0  0
   -1.1434    1.1102    7.4133 C   0  0  0  0  0  0  0  0  0  0  0  0
   -1.8943    0.1512    7.5033 O   0  0  0  0  0  0  0  0  0  0  0  0
   -1.5438    2.2798    6.5496 C   0  0  0  0  0  0  0  0  0  0  0  0
   -0.8750    2.2342    5.2908 O   0  0  0  0  0  0  0  0  0  0  0  0
    0.2159    1.6669    2.5803 C   0  0  0  0  0  0  0  0  0  0  0  0
    0.3991    0.3502    1.5509 S   0  0  0  0  0  0  0  0  0  0  0  0
   -0.8847    0.7143    0.5260 C   0  0  0  0  0  0  0  0  0  0  0  0
   -1.4595    1.9119    0.9597 C   0  0  0  0  0  0  0  0  0  0  0  0
   -0.8500    2.4381    2.1112 C   0  0  0  0  0  0  0  0  0  0  0  0
   -1.2870    3.6500    2.6523 C   0  0  0  0  0  0  0  0  0  0  0  0
   -2.3772    4.3226    2.0638 C   0  0  0  0  0  0  0  0  0  0  0  0
   -2.8856    5.5157    2.6012 O   0  0  0  0  0  0  0  0  0  0  0  0
   -2.4154    6.1282    3.7991 C   0  0  0  0  0  0  0  0  0  0  0  0
   -2.9855    3.7992    0.9038 C   0  0  0  0  0  0  0  0  0  0  0  0
   -4.0655    4.5011    0.3446 O   0  0  0  0  0  0  0  0  0  0  0  0
   -4.7951    4.0753   -0.8045 C   0  0  0  0  0  0  0  0  0  0  0  0
   -2.5058    2.5985    0.3368 C   0  0  0  0  0  0  0  0  0  0  0  0
   -1.2987   -0.1462   -0.5930 C   0  0  0  0  0  0  0  0  0  0  0  0
   -0.2262   -0.8368   -1.6884 S   0  0  0  0  0  0  0  0  0  0  0  0
   -1.3371   -1.8099   -2.4999 C   0  0  0  0  0  0  0  0  0  0  0  0
   -2.5871   -1.6156   -1.8999 C   0  0  0  0  0  0  0  0  0  0  0  0
   -2.5609   -0.6989   -0.8297 C   0  0  0  0  0  0  0  0  0  0  0  0
   -3.7104   -0.4739   -0.0665 C   0  0  0  0  0  0  0  0  0  0  0  0
   -4.9171   -1.1150   -0.4133 C   0  0  0  0  0  0  0  0  0  0  0  0
   -6.1071   -0.8794    0.2945 O   0  0  0  0  0  0  0  0  0  0  0  0
   -6.2327    0.0372    1.3772 C   0  0  0  0  0  0  0  0  0  0  0  0
   -4.9498   -2.0186   -1.4942 C   0  0  0  0  0  0  0  0  0  0  0  0
   -6.1705   -2.6428   -1.7978 O   0  0  0  0  0  0  0  0  0  0  0  0
   -6.3601   -3.5767   -2.8576 C   0  0  0  0  0  0  0  0  0  0  0  0
   -3.7736   -2.2812   -2.2291 C   0  0  0  0  0  0  0  0  0  0  0  0
   -0.9940   -2.7202   -3.6121 C   0  0  0  0  0  0  0  0  0  0  0  0
   -1.8763   -2.8863   -5.0341 S   0  0  0  0  0  0  0  0  0  0  0  0
   -0.8262   -3.9599   -5.7843 C   0  0  0  0  0  0  0  0  0  0  0  0
    0.2375   -4.2246   -4.9282 C   0  0  0  0  0  0  0  0  0  0  0  0
    0.1381   -3.5355   -3.6967 C   0  0  0  0  0  0  0  0  0  0  0  0
    1.2846   -3.7486   -2.3252 S   0  0  0  0  0  0  0  0  0  0  0  0
    2.6961   -3.0299   -3.2328 C   0  0  0  0  0  0  0  0  0  0  0  0
    3.1898   -3.9471   -4.3232 C   0  0  0  0  0  0  0  0  0  0  0  0
    4.1332   -3.5913   -5.0112 O   0  0  0  0  0  0  0  0  0  0  0  0
    2.5169   -5.2678   -4.6157 C   0  0  0  0  0  0  0  0  0  0  0  0
    1.2864   -5.0776   -5.3148 O   0  0  0  0  0  0  0  0  0  0  0  0
   -1.0227   -4.5159   -7.1288 C   0  0  0  0  0  0  0  0  0  0  0  0
   -2.4312   -5.2834   -7.6360 S   0  0  0  0  0  0  0  0  0  0  0  0
   -1.8933   -5.6822   -9.1776 C   0  0  0  0  0  0  0  0  0  0  0  0
   -0.6076   -5.1789   -9.3249 C   0  0  0  0  0  0  0  0  0  0  0  0
   -0.1012   -4.5471   -8.1755 C   0  0  0  0  0  0  0  0  0  0  0  0
    1.5404   -3.8155   -8.0964 S   0  0  0  0  0  0  0  0  0  0  0  0
    1.2117   -2.5905   -9.3983 C   0  0  0  0  0  0  0  0  0  0  0  0
    1.4133   -3.2410  -10.7369 C   0  0  0  0  0  0  0  0  0  0  0  0
    2.4840   -3.1174  -11.3169 O   0  0  0  0  0  0  0  0  0  0  0  0
    0.3360   -4.1003  -11.3369 C   0  0  0  0  0  0  0  0  0  0  0  0
    0.0833   -5.2565  -10.5372 O   0  0  0  0  0  0  0  0  0  0  0  0
    6.4652    1.2121    8.9939 H   0  0  0  0  0  0  0  0  0  0  0  0
    8.6391   -1.4692    5.6630 H   0  0  0  0  0  0  0  0  0  0  0  0
    7.0374   -1.4968    6.4779 H   0  0  0  0  0  0  0  0  0  0  0  0
    6.4049    0.3378    2.7297 H   0  0  0  0  0  0  0  0  0  0  0  0
    7.4809    1.2078    3.8483 H   0  0  0  0  0  0  0  0  0  0  0  0
    0.7530    0.1600    7.7905 H   0  0  0  0  0  0  0  0  0  0  0  0
    0.0120    0.9829    9.2109 H   0  0  0  0  0  0  0  0  0  0  0  0
   -1.3441    3.2461    7.0597 H   0  0  0  0  0  0  0  0  0  0  0  0
   -2.6397    2.2460    6.3631 H   0  0  0  0  0  0  0  0  0  0  0  0
   -0.7758    4.0742    3.5040 H   0  0  0  0  0  0  0  0  0  0  0  0
   -3.0200    7.0338    4.0065 H   0  0  0  0  0  0  0  0  0  0  0  0
   -2.5286    5.4299    4.6569 H   0  0  0  0  0  0  0  0  0  0  0  0
   -1.3557    6.4299    3.6851 H   0  0  0  0  0  0  0  0  0  0  0  0
   -5.2459    3.0761   -0.6254 H   0  0  0  0  0  0  0  0  0  0  0  0
   -4.1220    4.0382   -1.6903 H   0  0  0  0  0  0  0  0  0  0  0  0
   -5.6099    4.8016   -1.0085 H   0  0  0  0  0  0  0  0  0  0  0  0
   -2.9373    2.2043   -0.5724 H   0  0  0  0  0  0  0  0  0  0  0  0
   -3.6662    0.1749    0.7937 H   0  0  0  0  0  0  0  0  0  0  0  0
   -7.2870    0.0428    1.7258 H   0  0  0  0  0  0  0  0  0  0  0  0
   -5.9615    1.0632    1.0433 H   0  0  0  0  0  0  0  0  0  0  0  0
   -5.5756   -0.2743    2.2165 H   0  0  0  0  0  0  0  0  0  0  0  0
   -6.1236   -3.1040   -3.8345 H   0  0  0  0  0  0  0  0  0  0  0  0
   -5.7165   -4.4702   -2.6969 H   0  0  0  0  0  0  0  0  0  0  0  0
   -7.4210   -3.9013   -2.8682 H   0  0  0  0  0  0  0  0  0  0  0  0
   -3.7825   -3.0078   -3.0268 H   0  0  0  0  0  0  0  0  0  0  0  0
    3.5206   -2.8575   -2.5079 H   0  0  0  0  0  0  0  0  0  0  0  0
    2.4057   -2.0501   -3.6710 H   0  0  0  0  0  0  0  0  0  0  0  0
    3.1846   -5.8871   -5.2495 H   0  0  0  0  0  0  0  0  0  0  0  0
    2.3478   -5.8469   -3.6857 H   0  0  0  0  0  0  0  0  0  0  0  0
   -2.4604   -6.2049   -9.9364 H   0  0  0  0  0  0  0  0  0  0  0  0
    1.9182   -1.7433   -9.2780 H   0  0  0  0  0  0  0  0  0  0  0  0
    0.1790   -2.1915   -9.3127 H   0  0  0  0  0  0  0  0  0  0  0  0
   -0.5958   -3.5049  -11.4503 H   0  0  0  0  0  0  0  0  0  0  0  0
    0.6486   -4.4365  -12.3484 H   0  0  0  0  0  0  0  0  0  0  0  0
  1  2  1  0
  2  3  1  0
  3  4  2  0
  4  5  1  0
  5  6  1  0
  6  7  1  0
  7  8  1  0
  8  9  2  0
  8 10  1  0
 10 11  1  0
  3 12  1  0
 12 13  1  0
 13 14  1  0
 14 15  2  0
 15 16  1  0
 16 17  1  0
 17 18  1  0
 18 19  1  0
 19 20  2  0
 19 21  1  0
 21 22  1  0
 14 23  1  0
 23 24  1  0
 24 25  1  0
 25 26  2  0
 26 27  1  0
 27 28  1  0
 28 29  2  0
 29 30  1  0
 30 31  1  0
 29 32  1  0
 32 33  1  0
 33 34  1  0
 32 35  2  0
 25 36  1  0
 36 37  1  0
 37 38  1  0
 38 39  2  0
 39 40  1  0
 40 41  1  0
 41 42  2  0
 42 43  1  0
 43 44  1  0
 42 45  1  0
 45 46  1  0
 46 47  1  0
 45 48  2  0
 38 49  1  0
 49 50  1  0
 50 51  1  0
 51 52  2  0
 52 53  1  0
 53 54  1  0
 54 55  1  0
 55 56  1  0
 56 57  2  0
 56 58  1  0
 58 59  1  0
 51 60  1  0
 60 61  1  0
 61 62  1  0
 62 63  2  0
 63 64  1  0
 64 65  1  0
 65 66  1  0
 66 67  1  0
 67 68  2  0
 67 69  1  0
 69 70  1  0
  5  1  2  0
 16 12  2  0
 27 23  2  0
 40 36  2  0
 53 49  2  0
 64 60  2  0
 11  4  1  0
 22 15  1  0
 35 26  1  0
 48 39  1  0
 59 52  1  0
 70 63  1  0
  1 71  1  0
  7 72  1  0
  7 73  1  0
 10 74  1  0
 10 75  1  0
 18 76  1  0
 18 77  1  0
 21 78  1  0
 21 79  1  0
 28 80  1  0
 31 81  1  0
 31 82  1  0
 31 83  1  0
 34 84  1  0
 34 85  1  0
 34 86  1  0
 35 87  1  0
 41 88  1  0
 44 89  1  0
 44 90  1  0
 44 91  1  0
 47 92  1  0
 47 93  1  0
 47 94  1  0
 48 95  1  0
 55 96  1  0
 55 97  1  0
 58 98  1  0
 58 99  1  0
 62100  1  0
 66101  1  0
 66102  1  0
 69103  1  0
 69104  1  0
M  END

