
     RDKit          3D

273299  0  0  0  0  0  0  0  0999 V2000
   -9.2484    1.3571   11.8830 C   0  0  0  0  0  0  0  0  0  0  0  0
   -8.7160    2.3385   11.0506 C   0  0  0  0  0  0  0  0  0  0  0  0
   -9.1009    2.1977    9.7072 C   0  0  0  0  0  0  0  0  0  0  0  0
   -8.7028    3.0144    8.6276 C   0  0  0  0  0  0  0  0  0  0  0  0
   -7.7882    4.1706    8.8040 C   0  0  0  0  0  0  0  0  0  0  0  0
   -8.1377    5.2314    9.6562 C   0  0  0  0  0  0  0  0  0  0  0  0
   -7.2865    6.3325    9.7940 C   0  0  0  0  0  0  0  0  0  0  0  0
   -6.0858    6.3898    9.0776 C   0  0  0  0  0  0  0  0  0  0  0  0
   -5.0224    7.8316    9.2419 S   0  0  0  0  0  0  0  0  0  0  0  0
   -3.8277    7.0533   10.3886 C   0  0  0  0  0  0  0  0  0  0  0  0
   -4.4178    6.8703   11.7832 C   0  0  0  0  0  0  0  0  0  0  0  0
   -5.7372    5.3421    8.2142 C   0  0  0  0  0  0  0  0  0  0  0  0
   -4.5866    5.3897    7.4984 F   0  0  0  0  0  0  0  0  0  0  0  0
   -6.5763    4.2307    8.0952 C   0  0  0  0  0  0  0  0  0  0  0  0
   -9.1609    2.6389    7.3515 C   0  0  0  0  0  0  0  0  0  0  0  0
   -9.9508    1.5088    7.1257 C   0  0  0  0  0  0  0  0  0  0  0  0
  -10.3599    0.6996    8.2052 C   0  0  0  0  0  0  0  0  0  0  0  0
  -11.1534   -0.5329    7.9954 C   0  0  0  0  0  0  0  0  0  0  0  0
  -10.6412   -1.7817    8.3813 C   0  0  0  0  0  0  0  0  0  0  0  0
  -11.3689   -2.9478    8.1355 C   0  0  0  0  0  0  0  0  0  0  0  0
  -12.6080   -2.8819    7.4877 C   0  0  0  0  0  0  0  0  0  0  0  0
  -13.5226   -4.3930    7.1576 S   0  0  0  0  0  0  0  0  0  0  0  0
  -12.8550   -4.6320    5.4715 C   0  0  0  0  0  0  0  0  0  0  0  0
  -11.5078   -5.3446    5.5110 C   0  0  0  0  0  0  0  0  0  0  0  0
  -13.1336   -1.6371    7.1191 C   0  0  0  0  0  0  0  0  0  0  0  0
  -12.4098   -0.4673    7.3701 C   0  0  0  0  0  0  0  0  0  0  0  0
  -14.3397   -1.5560    6.5021 F   0  0  0  0  0  0  0  0  0  0  0  0
   -9.9167    1.0811    9.4864 C   0  0  0  0  0  0  0  0  0  0  0  0
  -10.1824    0.3049   10.9565 S   0  0  0  0  0  0  0  0  0  0  0  0
  -10.1472    1.2388    5.7564 C   0  0  0  0  0  0  0  0  0  0  0  0
   -9.5156    2.1579    4.9226 C   0  0  0  0  0  0  0  0  0  0  0  0
   -8.7429    3.3151    5.8750 S   0  0  0  0  0  0  0  0  0  0  0  0
   -9.1791    1.9309    3.5113 C   0  0  0  0  0  0  0  0  0  0  0  0
   -7.9850    2.3594    2.9471 C   0  0  0  0  0  0  0  0  0  0  0  0
   -7.7097    1.7646    1.7146 C   0  0  0  0  0  0  0  0  0  0  0  0
   -6.5172    1.9128    0.9858 C   0  0  0  0  0  0  0  0  0  0  0  0
   -5.3378    2.6028    1.5607 C   0  0  0  0  0  0  0  0  0  0  0  0
   -4.8069    2.1768    2.7892 C   0  0  0  0  0  0  0  0  0  0  0  0
   -3.6963    2.8152    3.3400 C   0  0  0  0  0  0  0  0  0  0  0  0
   -3.0794    3.8652    2.6533 C   0  0  0  0  0  0  0  0  0  0  0  0
   -1.6415    4.6694    3.3707 S   0  0  0  0  0  0  0  0  0  0  0  0
   -0.4485    3.3772    2.8647 C   0  0  0  0  0  0  0  0  0  0  0  0
   -0.1121    3.4778    1.3829 C   0  0  0  0  0  0  0  0  0  0  0  0
   -3.5974    4.2914    1.4222 C   0  0  0  0  0  0  0  0  0  0  0  0
   -3.0179    5.3214    0.7553 F   0  0  0  0  0  0  0  0  0  0  0  0
   -4.7222    3.6616    0.8778 C   0  0  0  0  0  0  0  0  0  0  0  0
   -6.4294    1.2149   -0.2265 C   0  0  0  0  0  0  0  0  0  0  0  0
   -7.4376    0.3597   -0.6886 C   0  0  0  0  0  0  0  0  0  0  0  0
   -8.6321    0.1993    0.0515 C   0  0  0  0  0  0  0  0  0  0  0  0
   -9.7485   -0.6429   -0.4359 C   0  0  0  0  0  0  0  0  0  0  0  0
  -10.3501   -0.3623   -1.6748 C   0  0  0  0  0  0  0  0  0  0  0  0
  -11.4447   -1.1115   -2.1127 C   0  0  0  0  0  0  0  0  0  0  0  0
  -11.9573   -2.1412   -1.3142 C   0  0  0  0  0  0  0  0  0  0  0  0
  -13.3917   -3.0702   -1.8715 S   0  0  0  0  0  0  0  0  0  0  0  0
  -14.6233   -1.8610   -1.2654 C   0  0  0  0  0  0  0  0  0  0  0  0
  -14.8697   -2.0219    0.2291 C   0  0  0  0  0  0  0  0  0  0  0  0
  -11.3412   -2.4460   -0.0922 C   0  0  0  0  0  0  0  0  0  0  0  0
  -10.2438   -1.6996    0.3453 C   0  0  0  0  0  0  0  0  0  0  0  0
  -11.8133   -3.4575    0.6798 F   0  0  0  0  0  0  0  0  0  0  0  0
   -8.7240    0.9115    1.2688 C   0  0  0  0  0  0  0  0  0  0  0  0
   -9.9325    0.8494    2.4500 S   0  0  0  0  0  0  0  0  0  0  0  0
   -7.0585   -0.3613   -1.8392 C   0  0  0  0  0  0  0  0  0  0  0  0
   -5.7664   -0.0535   -2.2709 C   0  0  0  0  0  0  0  0  0  0  0  0
   -5.0952    1.0883   -1.2320 S   0  0  0  0  0  0  0  0  0  0  0  0
   -4.9722   -0.7931   -3.2617 C   0  0  0  0  0  0  0  0  0  0  0  0
   -3.6891   -0.4188   -3.6550 C   0  0  0  0  0  0  0  0  0  0  0  0
   -2.9841   -1.4480   -4.2839 C   0  0  0  0  0  0  0  0  0  0  0  0
   -1.6264   -1.4030   -4.6423 C   0  0  0  0  0  0  0  0  0  0  0  0
   -0.7951   -0.2103   -4.3935 C   0  0  0  0  0  0  0  0  0  0  0  0
   -0.0131   -0.1344   -3.2324 C   0  0  0  0  0  0  0  0  0  0  0  0
    0.8146    0.9694   -3.0133 C   0  0  0  0  0  0  0  0  0  0  0  0
    0.8903    1.9905   -3.9688 C   0  0  0  0  0  0  0  0  0  0  0  0
    1.9907    3.3843   -3.6963 S   0  0  0  0  0  0  0  0  0  0  0  0
    3.3805    2.6973   -4.6668 C   0  0  0  0  0  0  0  0  0  0  0  0
    4.1907    1.7027   -3.8484 C   0  0  0  0  0  0  0  0  0  0  0  0
    0.0948    1.9272   -5.1230 C   0  0  0  0  0  0  0  0  0  0  0  0
    0.1553    2.9121   -6.0536 F   0  0  0  0  0  0  0  0  0  0  0  0
   -0.7447    0.8287   -5.3336 C   0  0  0  0  0  0  0  0  0  0  0  0
   -1.0461   -2.6031   -5.0731 C   0  0  0  0  0  0  0  0  0  0  0  0
   -1.7577   -3.8014   -5.1703 C   0  0  0  0  0  0  0  0  0  0  0  0
   -3.1332   -3.8382   -4.8595 C   0  0  0  0  0  0  0  0  0  0  0  0
   -3.9018   -5.1009   -4.9057 C   0  0  0  0  0  0  0  0  0  0  0  0
   -4.4857   -5.6248   -3.7412 C   0  0  0  0  0  0  0  0  0  0  0  0
   -5.2407   -6.7982   -3.8002 C   0  0  0  0  0  0  0  0  0  0  0  0
   -5.4150   -7.4636   -5.0192 C   0  0  0  0  0  0  0  0  0  0  0  0
   -6.4332   -8.9406   -5.0897 S   0  0  0  0  0  0  0  0  0  0  0  0
   -8.0165   -8.0425   -5.2687 C   0  0  0  0  0  0  0  0  0  0  0  0
   -8.2317   -7.5771   -6.7037 C   0  0  0  0  0  0  0  0  0  0  0  0
   -4.7934   -6.9719   -6.1759 C   0  0  0  0  0  0  0  0  0  0  0  0
   -4.0460   -5.7907   -6.1180 C   0  0  0  0  0  0  0  0  0  0  0  0
   -4.9288   -7.6204   -7.3598 F   0  0  0  0  0  0  0  0  0  0  0  0
   -3.7137   -2.6349   -4.4032 C   0  0  0  0  0  0  0  0  0  0  0  0
   -5.2425   -2.3954   -3.7300 S   0  0  0  0  0  0  0  0  0  0  0  0
   -0.9301   -4.9125   -5.4262 C   0  0  0  0  0  0  0  0  0  0  0  0
    0.4235   -4.5766   -5.4861 C   0  0  0  0  0  0  0  0  0  0  0  0
    0.5859   -2.9093   -5.2921 S   0  0  0  0  0  0  0  0  0  0  0  0
    1.5736   -5.4799   -5.3192 C   0  0  0  0  0  0  0  0  0  0  0  0
    3.1040   -5.0283   -5.8450 S   0  0  0  0  0  0  0  0  0  0  0  0
    4.0286   -5.9177   -4.7562 C   0  0  0  0  0  0  0  0  0  0  0  0
    3.1236   -6.6295   -3.9597 C   0  0  0  0  0  0  0  0  0  0  0  0
    1.7688   -6.3681   -4.2507 C   0  0  0  0  0  0  0  0  0  0  0  0
    0.7656   -6.8728   -3.4116 C   0  0  0  0  0  0  0  0  0  0  0  0
    1.1089   -7.6930   -2.3158 C   0  0  0  0  0  0  0  0  0  0  0  0
    0.1362   -8.2040   -1.4429 O   0  0  0  0  0  0  0  0  0  0  0  0
   -1.2459   -7.8680   -1.4886 C   0  0  0  0  0  0  0  0  0  0  0  0
    2.4581   -8.0042   -2.0672 C   0  0  0  0  0  0  0  0  0  0  0  0
    2.7526   -8.8423   -0.9814 O   0  0  0  0  0  0  0  0  0  0  0  0
    4.0692   -9.1811   -0.5554 C   0  0  0  0  0  0  0  0  0  0  0  0
    3.4666   -7.4661   -2.8930 C   0  0  0  0  0  0  0  0  0  0  0  0
    5.3795   -5.4587   -4.3631 C   0  0  0  0  0  0  0  0  0  0  0  0
    6.1609   -4.6181   -5.1631 C   0  0  0  0  0  0  0  0  0  0  0  0
    7.0642   -3.8232   -4.4358 C   0  0  0  0  0  0  0  0  0  0  0  0
    7.7965   -2.7283   -4.9448 C   0  0  0  0  0  0  0  0  0  0  0  0
    7.7920   -2.4001   -6.3848 C   0  0  0  0  0  0  0  0  0  0  0  0
    8.3668   -3.2870   -7.3046 C   0  0  0  0  0  0  0  0  0  0  0  0
    8.3362   -3.0005   -8.6717 C   0  0  0  0  0  0  0  0  0  0  0  0
    7.7136   -1.8355   -9.1331 C   0  0  0  0  0  0  0  0  0  0  0  0
    7.6506   -1.4968  -10.8971 S   0  0  0  0  0  0  0  0  0  0  0  0
    6.0267   -2.2938  -11.1627 C   0  0  0  0  0  0  0  0  0  0  0  0
    6.1818   -3.7949  -11.3668 C   0  0  0  0  0  0  0  0  0  0  0  0
    7.1519   -0.9367   -8.2162 C   0  0  0  0  0  0  0  0  0  0  0  0
    6.5588    0.2046   -8.6483 F   0  0  0  0  0  0  0  0  0  0  0  0
    7.1882   -1.2188   -6.8459 C   0  0  0  0  0  0  0  0  0  0  0  0
    8.4403   -1.9014   -4.0070 C   0  0  0  0  0  0  0  0  0  0  0  0
    8.3917   -2.1503   -2.6357 C   0  0  0  0  0  0  0  0  0  0  0  0
    7.6802   -3.2535   -2.1257 C   0  0  0  0  0  0  0  0  0  0  0  0
    7.5203   -3.4622   -0.6733 C   0  0  0  0  0  0  0  0  0  0  0  0
    8.1522   -4.5438   -0.0449 C   0  0  0  0  0  0  0  0  0  0  0  0
    8.0880   -4.6833    1.3457 C   0  0  0  0  0  0  0  0  0  0  0  0
    7.3888   -3.7470    2.1149 C   0  0  0  0  0  0  0  0  0  0  0  0
    7.3470   -3.9099    3.9043 S   0  0  0  0  0  0  0  0  0  0  0  0
    8.7228   -2.7469    4.2126 C   0  0  0  0  0  0  0  0  0  0  0  0
   10.0699   -3.4382    4.0564 C   0  0  0  0  0  0  0  0  0  0  0  0
    6.7174   -2.6897    1.4870 C   0  0  0  0  0  0  0  0  0  0  0  0
    6.7883   -2.5460    0.0967 C   0  0  0  0  0  0  0  0  0  0  0  0
    6.0254   -1.7832    2.2206 F   0  0  0  0  0  0  0  0  0  0  0  0
    7.0263   -4.0715   -3.0605 C   0  0  0  0  0  0  0  0  0  0  0  0
    5.8572   -5.2381   -2.7550 S   0  0  0  0  0  0  0  0  0  0  0  0
    9.0175   -1.1566   -1.8715 C   0  0  0  0  0  0  0  0  0  0  0  0
    9.5391   -0.1190   -2.6427 C   0  0  0  0  0  0  0  0  0  0  0  0
    9.2517   -0.4477   -4.2739 S   0  0  0  0  0  0  0  0  0  0  0  0
   10.0500    1.1538   -2.1050 C   0  0  0  0  0  0  0  0  0  0  0  0
    9.9835    1.5318   -0.7668 C   0  0  0  0  0  0  0  0  0  0  0  0
   10.3647    2.8623   -0.5496 C   0  0  0  0  0  0  0  0  0  0  0  0
   10.3157    3.5438    0.6842 C   0  0  0  0  0  0  0  0  0  0  0  0
    9.7792    2.9015    1.9076 C   0  0  0  0  0  0  0  0  0  0  0  0
    8.4639    2.4102    1.9244 C   0  0  0  0  0  0  0  0  0  0  0  0
    7.9684    1.7564    3.0541 C   0  0  0  0  0  0  0  0  0  0  0  0
    8.7716    1.6093    4.1897 C   0  0  0  0  0  0  0  0  0  0  0  0
    8.1243    0.7596    5.6320 S   0  0  0  0  0  0  0  0  0  0  0  0
    7.4401    2.2748    6.3776 C   0  0  0  0  0  0  0  0  0  0  0  0
    6.7696    1.9472    7.7006 C   0  0  0  0  0  0  0  0  0  0  0  0
   10.0827    2.1060    4.1846 C   0  0  0  0  0  0  0  0  0  0  0  0
   10.8764    1.9588    5.2752 F   0  0  0  0  0  0  0  0  0  0  0  0
   10.5835    2.7532    3.0481 C   0  0  0  0  0  0  0  0  0  0  0  0
   10.7489    4.8816    0.6824 C   0  0  0  0  0  0  0  0  0  0  0  0
   11.1840    5.5348   -0.4775 C   0  0  0  0  0  0  0  0  0  0  0  0
   11.1961    4.8626   -1.7199 C   0  0  0  0  0  0  0  0  0  0  0  0
   11.5834    5.5391   -2.9775 C   0  0  0  0  0  0  0  0  0  0  0  0
   10.8945    6.6833   -3.4090 C   0  0  0  0  0  0  0  0  0  0  0  0
   11.2611    7.3232   -4.5959 C   0  0  0  0  0  0  0  0  0  0  0  0
   12.3096    6.8163   -5.3721 C   0  0  0  0  0  0  0  0  0  0  0  0
   12.7621    7.6360   -6.9053 S   0  0  0  0  0  0  0  0  0  0  0  0
   11.4736    6.8208   -7.9140 C   0  0  0  0  0  0  0  0  0  0  0  0
   11.8870    5.4066   -8.3078 C   0  0  0  0  0  0  0  0  0  0  0  0
   13.0093    5.6808   -4.9405 C   0  0  0  0  0  0  0  0  0  0  0  0
   12.6432    5.0407   -3.7525 C   0  0  0  0  0  0  0  0  0  0  0  0
   14.0445    5.1922   -5.6716 F   0  0  0  0  0  0  0  0  0  0  0  0
   10.7821    3.5152   -1.7129 C   0  0  0  0  0  0  0  0  0  0  0  0
   10.6113    2.4594   -3.0194 S   0  0  0  0  0  0  0  0  0  0  0  0
   11.5701    6.8639   -0.2407 C   0  0  0  0  0  0  0  0  0  0  0  0
   11.4187    7.2548    1.0861 C   0  0  0  0  0  0  0  0  0  0  0  0
   10.8155    5.9578    1.9739 S   0  0  0  0  0  0  0  0  0  0  0  0
   -9.0683    1.2771   12.9455 H   0  0  0  0  0  0  0  0  0  0  0  0
   -8.0561    3.1149   11.4166 H   0  0  0  0  0  0  0  0  0  0  0  0
   -9.0700    5.2066   10.2044 H   0  0  0  0  0  0  0  0  0  0  0  0
   -7.5653    7.1432   10.4564 H   0  0  0  0  0  0  0  0  0  0  0  0
   -2.9388    7.7150   10.4630 H   0  0  0  0  0  0  0  0  0  0  0  0
   -3.4873    6.0734    9.9881 H   0  0  0  0  0  0  0  0  0  0  0  0
   -4.8335    7.8309   12.1613 H   0  0  0  0  0  0  0  0  0  0  0  0
   -3.6147    6.5318   12.4750 H   0  0  0  0  0  0  0  0  0  0  0  0
   -5.2166    6.0994   11.7675 H   0  0  0  0  0  0  0  0  0  0  0  0
   -6.2812    3.4144    7.4483 H   0  0  0  0  0  0  0  0  0  0  0  0
   -9.6705   -1.8521    8.8552 H   0  0  0  0  0  0  0  0  0  0  0  0
  -10.9601   -3.9050    8.4325 H   0  0  0  0  0  0  0  0  0  0  0  0
  -13.5720   -5.2610    4.9028 H   0  0  0  0  0  0  0  0  0  0  0  0
  -12.7569   -3.6598    4.9414 H   0  0  0  0  0  0  0  0  0  0  0  0
  -11.5981   -6.3161    6.0448 H   0  0  0  0  0  0  0  0  0  0  0  0
  -10.7493   -4.7141    6.0183 H   0  0  0  0  0  0  0  0  0  0  0  0
  -11.1615   -5.5398    4.4731 H   0  0  0  0  0  0  0  0  0  0  0  0
  -12.8211    0.4897    7.0717 H   0  0  0  0  0  0  0  0  0  0  0  0
  -10.6327    0.3456    5.3817 H   0  0  0  0  0  0  0  0  0  0  0  0
   -7.3030    3.0291    3.4514 H   0  0  0  0  0  0  0  0  0  0  0  0
   -5.2575    1.3480    3.3233 H   0  0  0  0  0  0  0  0  0  0  0  0
   -3.3051    2.4811    4.2938 H   0  0  0  0  0  0  0  0  0  0  0  0
   -0.8428    2.3656    3.0967 H   0  0  0  0  0  0  0  0  0  0  0  0
    0.4806    3.5200    3.4564 H   0  0  0  0  0  0  0  0  0  0  0  0
    0.2645    4.4935    1.1394 H   0  0  0  0  0  0  0  0  0  0  0  0
   -1.0070    3.2547    0.7664 H   0  0  0  0  0  0  0  0  0  0  0  0
    0.6774    2.7359    1.1353 H   0  0  0  0  0  0  0  0  0  0  0  0
   -5.1190    4.0010   -0.0703 H   0  0  0  0  0  0  0  0  0  0  0  0
   -9.9825    0.4476   -2.2925 H   0  0  0  0  0  0  0  0  0  0  0  0
  -11.9114   -0.8738   -3.0608 H   0  0  0  0  0  0  0  0  0  0  0  0
  -15.5778   -2.0420   -1.8030 H   0  0  0  0  0  0  0  0  0  0  0  0
  -14.2980   -0.8213   -1.4887 H   0  0  0  0  0  0  0  0  0  0  0  0
  -13.9628   -1.7438    0.8041 H   0  0  0  0  0  0  0  0  0  0  0  0
  -15.6975   -1.3515    0.5418 H   0  0  0  0  0  0  0  0  0  0  0  0
  -15.1501   -3.0713    0.4647 H   0  0  0  0  0  0  0  0  0  0  0  0
   -9.7787   -1.9420    1.2923 H   0  0  0  0  0  0  0  0  0  0  0  0
   -7.6685   -1.1289   -2.2963 H   0  0  0  0  0  0  0  0  0  0  0  0
   -3.2492    0.5395   -3.4074 H   0  0  0  0  0  0  0  0  0  0  0  0
   -0.0459   -0.9335   -2.5004 H   0  0  0  0  0  0  0  0  0  0  0  0
    1.4048    1.0242   -2.1071 H   0  0  0  0  0  0  0  0  0  0  0  0
    3.0143    2.2145   -5.5992 H   0  0  0  0  0  0  0  0  0  0  0  0
    4.0387    3.5399   -4.9626 H   0  0  0  0  0  0  0  0  0  0  0  0
    3.5804    0.8098   -3.6061 H   0  0  0  0  0  0  0  0  0  0  0  0
    5.0761    1.3733   -4.4334 H   0  0  0  0  0  0  0  0  0  0  0  0
    4.5435    2.1764   -2.9067 H   0  0  0  0  0  0  0  0  0  0  0  0
   -1.3400    0.7778   -6.2381 H   0  0  0  0  0  0  0  0  0  0  0  0
   -4.3641   -5.1199   -2.7912 H   0  0  0  0  0  0  0  0  0  0  0  0
   -5.7061   -7.1790   -2.8999 H   0  0  0  0  0  0  0  0  0  0  0  0
   -8.8385   -8.7374   -4.9960 H   0  0  0  0  0  0  0  0  0  0  0  0
   -8.0593   -7.1728   -4.5767 H   0  0  0  0  0  0  0  0  0  0  0  0
   -8.1438   -8.4351   -7.4051 H   0  0  0  0  0  0  0  0  0  0  0  0
   -9.2480   -7.1391   -6.8022 H   0  0  0  0  0  0  0  0  0  0  0  0
   -7.4900   -6.8001   -6.9789 H   0  0  0  0  0  0  0  0  0  0  0  0
   -3.5896   -5.4043   -7.0233 H   0  0  0  0  0  0  0  0  0  0  0  0
   -1.2885   -5.9320   -5.4725 H   0  0  0  0  0  0  0  0  0  0  0  0
   -0.2668   -6.6272   -3.5871 H   0  0  0  0  0  0  0  0  0  0  0  0
   -1.3772   -6.7724   -1.3631 H   0  0  0  0  0  0  0  0  0  0  0  0
   -1.6896   -8.2034   -2.4499 H   0  0  0  0  0  0  0  0  0  0  0  0
   -1.7710   -8.3874   -0.6618 H   0  0  0  0  0  0  0  0  0  0  0  0
    4.6185   -9.6924   -1.3747 H   0  0  0  0  0  0  0  0  0  0  0  0
    4.6138   -8.2642   -0.2448 H   0  0  0  0  0  0  0  0  0  0  0  0
    4.0043   -9.8672    0.3133 H   0  0  0  0  0  0  0  0  0  0  0  0
    4.5054   -7.6969   -2.7084 H   0  0  0  0  0  0  0  0  0  0  0  0
    5.9737   -4.4805   -6.2210 H   0  0  0  0  0  0  0  0  0  0  0  0
    8.8355   -4.2011   -6.9614 H   0  0  0  0  0  0  0  0  0  0  0  0
    8.7884   -3.6923   -9.3697 H   0  0  0  0  0  0  0  0  0  0  0  0
    5.5737   -1.8559  -12.0752 H   0  0  0  0  0  0  0  0  0  0  0  0
    5.3384   -2.0941  -10.3131 H   0  0  0  0  0  0  0  0  0  0  0  0
    5.1947   -4.2380  -11.6158 H   0  0  0  0  0  0  0  0  0  0  0  0
    6.8863   -3.9980  -12.2017 H   0  0  0  0  0  0  0  0  0  0  0  0
    6.5581   -4.2772  -10.4420 H   0  0  0  0  0  0  0  0  0  0  0  0
    6.7326   -0.5275   -6.1483 H   0  0  0  0  0  0  0  0  0  0  0  0
    8.7184   -5.2615   -0.6285 H   0  0  0  0  0  0  0  0  0  0  0  0
    8.5997   -5.5110    1.8227 H   0  0  0  0  0  0  0  0  0  0  0  0
    8.6330   -2.3757    5.2553 H   0  0  0  0  0  0  0  0  0  0  0  0
    8.6615   -1.8716    3.5335 H   0  0  0  0  0  0  0  0  0  0  0  0
   10.2222   -3.7657    3.0086 H   0  0  0  0  0  0  0  0  0  0  0  0
   10.8827   -2.7324    4.3257 H   0  0  0  0  0  0  0  0  0  0  0  0
   10.1295   -4.3205    4.7277 H   0  0  0  0  0  0  0  0  0  0  0  0
    6.2848   -1.7125   -0.3784 H   0  0  0  0  0  0  0  0  0  0  0  0
    9.0530   -1.1724   -0.7901 H   0  0  0  0  0  0  0  0  0  0  0  0
    9.6321    0.8774    0.0204 H   0  0  0  0  0  0  0  0  0  0  0  0
    7.8283    2.5173    1.0531 H   0  0  0  0  0  0  0  0  0  0  0  0
    6.9571    1.3678    3.0478 H   0  0  0  0  0  0  0  0  0  0  0  0
    8.2566    3.0086    6.5520 H   0  0  0  0  0  0  0  0  0  0  0  0
    6.6885    2.7185    5.6893 H   0  0  0  0  0  0  0  0  0  0  0  0
    7.5021    1.4908    8.4010 H   0  0  0  0  0  0  0  0  0  0  0  0
    5.9278    1.2429    7.5396 H   0  0  0  0  0  0  0  0  0  0  0  0
    6.3748    2.8805    8.1531 H   0  0  0  0  0  0  0  0  0  0  0  0
   11.6016    3.1184    3.0500 H   0  0  0  0  0  0  0  0  0  0  0  0
   10.0688    7.0776   -2.8278 H   0  0  0  0  0  0  0  0  0  0  0  0
   10.7219    8.2053   -4.9186 H   0  0  0  0  0  0  0  0  0  0  0  0
   11.3276    7.4212   -8.8359 H   0  0  0  0  0  0  0  0  0  0  0  0
   10.5051    6.7966   -7.3719 H   0  0  0  0  0  0  0  0  0  0  0  0
   12.8587    5.4272   -8.8437 H   0  0  0  0  0  0  0  0  0  0  0  0
   11.9751    4.7617   -7.4112 H   0  0  0  0  0  0  0  0  0  0  0  0
   11.1171    4.9714   -8.9798 H   0  0  0  0  0  0  0  0  0  0  0  0
   13.1896    4.1621   -3.4298 H   0  0  0  0  0  0  0  0  0  0  0  0
   11.9581    7.5304   -1.0014 H   0  0  0  0  0  0  0  0  0  0  0  0
   11.6568    8.2341    1.4818 H   0  0  0  0  0  0  0  0  0  0  0  0
  1  2  2  0
  2  3  1  0
  3  4  2  0
  4  5  1  0
  5  6  2  0
  6  7  1  0
  7  8  2  0
  8  9  1  0
  9 10  1  0
 10 11  1  0
  8 12  1  0
 12 13  1  0
 12 14  2  0
  4 15  1  0
 15 16  2  0
 16 17  1  0
 17 18  1  0
 18 19  2  0
 19 20  1  0
 20 21  2  0
 21 22  1  0
 22 23  1  0
 23 24  1  0
 21 25  1  0
 25 26  2  0
 25 27  1  0
 17 28  2  0
 28 29  1  0
 16 30  1  0
 30 31  2  0
 31 32  1  0
 31 33  1  0
 33 34  2  0
 34 35  1  0
 35 36  2  0
 36 37  1  0
 37 38  2  0
 38 39  1  0
 39 40  2  0
 40 41  1  0
 41 42  1  0
 42 43  1  0
 40 44  1  0
 44 45  1  0
 44 46  2  0
 36 47  1  0
 47 48  2  0
 48 49  1  0
 49 50  1  0
 50 51  2  0
 51 52  1  0
 52 53  2  0
 53 54  1  0
 54 55  1  0
 55 56  1  0
 53 57  1  0
 57 58  2  0
 57 59  1  0
 49 60  2  0
 60 61  1  0
 48 62  1  0
 62 63  2  0
 63 64  1  0
 63 65  1  0
 65 66  2  0
 66 67  1  0
 67 68  2  0
 68 69  1  0
 69 70  2  0
 70 71  1  0
 71 72  2  0
 72 73  1  0
 73 74  1  0
 74 75  1  0
 72 76  1  0
 76 77  1  0
 76 78  2  0
 68 79  1  0
 79 80  2  0
 80 81  1  0
 81 82  1  0
 82 83  2  0
 83 84  1  0
 84 85  2  0
 85 86  1  0
 86 87  1  0
 87 88  1  0
 85 89  1  0
 89 90  2  0
 89 91  1  0
 81 92  2  0
 92 93  1  0
 80 94  1  0
 94 95  2  0
 95 96  1  0
 95 97  1  0
 97 98  1  0
 98 99  1  0
 99100  2  0
100101  1  0
101102  1  0
102103  2  0
103104  1  0
104105  1  0
103106  1  0
106107  1  0
107108  1  0
106109  2  0
 99110  1  0
110111  2  0
111112  1  0
112113  2  0
113114  1  0
114115  2  0
115116  1  0
116117  2  0
117118  1  0
118119  1  0
119120  1  0
117121  1  0
121122  1  0
121123  2  0
113124  1  0
124125  2  0
125126  1  0
126127  1  0
127128  2  0
128129  1  0
129130  2  0
130131  1  0
131132  1  0
132133  1  0
130134  1  0
134135  2  0
134136  1  0
126137  2  0
137138  1  0
125139  1  0
139140  2  0
140141  1  0
140142  1  0
142143  2  0
143144  1  0
144145  2  0
145146  1  0
146147  2  0
147148  1  0
148149  2  0
149150  1  0
150151  1  0
151152  1  0
149153  1  0
153154  1  0
153155  2  0
145156  1  0
156157  2  0
157158  1  0
158159  1  0
159160  2  0
160161  1  0
161162  2  0
162163  1  0
163164  1  0
164165  1  0
162166  1  0
166167  2  0
166168  1  0
158169  2  0
169170  1  0
157171  1  0
171172  2  0
172173  1  0
 29  1  1  0
 61 33  1  0
 93 65  1  0
101 97  2  0
138110  1  0
170142  1  0
 28  3  1  0
 60 35  1  0
 92 67  1  0
109100  1  0
137112  1  0
169144  1  0
 14  5  1  0
 32 15  1  0
 46 37  1  0
 64 47  1  0
 78 69  1  0
 96 79  1  0
123114  1  0
141124  1  0
155146  1  0
173156  1  0
 26 18  1  0
 58 50  1  0
 90 82  1  0
135127  1  0
167159  1  0
  1174  1  0
  2175  1  0
  6176  1  0
  7177  1  0
 10178  1  0
 10179  1  0
 11180  1  0
 11181  1  0
 11182  1  0
 14183  1  0
 19184  1  0
 20185  1  0
 23186  1  0
 23187  1  0
 24188  1  0
 24189  1  0
 24190  1  0
 26191  1  0
 30192  1  0
 34193  1  0
 38194  1  0
 39195  1  0
 42196  1  0
 42197  1  0
 43198  1  0
 43199  1  0
 43200  1  0
 46201  1  0
 51202  1  0
 52203  1  0
 55204  1  0
 55205  1  0
 56206  1  0
 56207  1  0
 56208  1  0
 58209  1  0
 62210  1  0
 66211  1  0
 70212  1  0
 71213  1  0
 74214  1  0
 74215  1  0
 75216  1  0
 75217  1  0
 75218  1  0
 78219  1  0
 83220  1  0
 84221  1  0
 87222  1  0
 87223  1  0
 88224  1  0
 88225  1  0
 88226  1  0
 90227  1  0
 94228  1  0
102229  1  0
105230  1  0
105231  1  0
105232  1  0
108233  1  0
108234  1  0
108235  1  0
109236  1  0
111237  1  0
115238  1  0
116239  1  0
119240  1  0
119241  1  0
120242  1  0
120243  1  0
120244  1  0
123245  1  0
128246  1  0
129247  1  0
132248  1  0
132249  1  0
133250  1  0
133251  1  0
133252  1  0
135253  1  0
139254  1  0
143255  1  0
147256  1  0
148257  1  0
151258  1  0
151259  1  0
152260  1  0
152261  1  0
152262  1  0
155263  1  0
160264  1  0
161265  1  0
164266  1  0
164267  1  0
165268  1  0
165269  1  0
165270  1  0
167271  1  0
171272  1  0
172273  1  0
M  END

