
     RDKit          3D

 80 87  0  0  0  0  0  0  0  0999 V2000
    6.7280    1.2327   -0.8856 C   0  0  0  0  0  0  0  0  0  0  0  0
    5.9145    0.7714   -1.8021 O   0  0  0  0  0  0  0  0  0  0  0  0
    6.6442   -0.0266   -2.5447 C   0  0  0  0  0  0  0  0  0  0  0  0
    7.9174   -0.0587   -2.1119 N   0  0  0  0  0  0  0  0  0  0  0  0
    7.9683    0.7382   -1.0547 N   0  0  0  0  0  0  0  0  0  0  0  0
    6.1703   -0.7659   -3.7299 C   0  0  0  0  0  0  0  0  0  0  0  0
    4.8841   -0.9622   -4.0521 C   0  0  0  0  0  0  0  0  0  0  0  0
    3.7365   -0.6217   -3.1913 C   0  0  0  0  0  0  0  0  0  0  0  0
    3.5626   -1.0500   -1.5686 S   0  0  0  0  0  0  0  0  0  0  0  0
    2.0290   -0.3910   -1.3525 C   0  0  0  0  0  0  0  0  0  0  0  0
    1.6151    0.1585   -2.5645 C   0  0  0  0  0  0  0  0  0  0  0  0
    2.5621    0.0143   -3.5938 C   0  0  0  0  0  0  0  0  0  0  0  0
    2.3062    0.5208   -4.8716 C   0  0  0  0  0  0  0  0  0  0  0  0
    1.0899    1.1930   -5.1193 C   0  0  0  0  0  0  0  0  0  0  0  0
    0.7833    1.7276   -6.3819 O   0  0  0  0  0  0  0  0  0  0  0  0
    1.6198    1.6203   -7.5295 C   0  0  0  0  0  0  0  0  0  0  0  0
    0.1438    1.3468   -4.0846 C   0  0  0  0  0  0  0  0  0  0  0  0
   -1.0418    2.0390   -4.3777 O   0  0  0  0  0  0  0  0  0  0  0  0
   -2.1010    2.2484   -3.4514 C   0  0  0  0  0  0  0  0  0  0  0  0
    0.4059    0.8178   -2.7997 C   0  0  0  0  0  0  0  0  0  0  0  0
    1.3243   -0.3738   -0.0663 C   0  0  0  0  0  0  0  0  0  0  0  0
    1.8207    0.5467    1.2447 S   0  0  0  0  0  0  0  0  0  0  0  0
    0.9234   -0.2501    2.4273 C   0  0  0  0  0  0  0  0  0  0  0  0
    0.2346   -1.2972    1.7999 C   0  0  0  0  0  0  0  0  0  0  0  0
    0.4570   -1.3539    0.4101 C   0  0  0  0  0  0  0  0  0  0  0  0
   -0.1249   -2.3576   -0.3658 C   0  0  0  0  0  0  0  0  0  0  0  0
   -0.9351   -3.3325    0.2515 C   0  0  0  0  0  0  0  0  0  0  0  0
   -1.5529   -4.3568   -0.4841 O   0  0  0  0  0  0  0  0  0  0  0  0
   -1.4731   -4.4976   -1.8999 C   0  0  0  0  0  0  0  0  0  0  0  0
   -1.1326   -3.3028    1.6462 C   0  0  0  0  0  0  0  0  0  0  0  0
   -1.8967   -4.3306    2.2227 O   0  0  0  0  0  0  0  0  0  0  0  0
   -2.0410   -4.5478    3.6203 C   0  0  0  0  0  0  0  0  0  0  0  0
   -0.5585   -2.2702    2.4217 C   0  0  0  0  0  0  0  0  0  0  0  0
    1.0408    0.0647    3.8626 C   0  0  0  0  0  0  0  0  0  0  0  0
    0.5534   -0.6534    4.8508 O   0  0  0  0  0  0  0  0  0  0  0  0
    0.9519   -0.0398    5.9419 C   0  0  0  0  0  0  0  0  0  0  0  0
    1.6857    1.0518    5.6472 N   0  0  0  0  0  0  0  0  0  0  0  0
    1.7360    1.1228    4.3267 N   0  0  0  0  0  0  0  0  0  0  0  0
    0.7280   -0.5018    7.3213 C   0  0  0  0  0  0  0  0  0  0  0  0
   -0.3281   -1.1965    7.7600 C   0  0  0  0  0  0  0  0  0  0  0  0
   -1.5631   -1.4644    7.0033 C   0  0  0  0  0  0  0  0  0  0  0  0
   -1.8850   -0.9474    5.8415 O   0  0  0  0  0  0  0  0  0  0  0  0
   -3.0791   -1.4240    5.5782 C   0  0  0  0  0  0  0  0  0  0  0  0
   -3.5124   -2.2298    6.5648 N   0  0  0  0  0  0  0  0  0  0  0  0
   -2.5489   -2.2535    7.4717 N   0  0  0  0  0  0  0  0  0  0  0  0
   -3.8498   -1.1449    4.3615 C   0  0  0  0  0  0  0  0  0  0  0  0
   -3.3689   -0.3741    3.3838 C   0  0  0  0  0  0  0  0  0  0  0  0
   -4.1277   -0.1335    2.1486 C   0  0  0  0  0  0  0  0  0  0  0  0
   -3.7272    0.6614    1.1849 O   0  0  0  0  0  0  0  0  0  0  0  0
   -4.6752    0.5968    0.2800 C   0  0  0  0  0  0  0  0  0  0  0  0
   -5.6651   -0.2348    0.6639 N   0  0  0  0  0  0  0  0  0  0  0  0
   -5.3171   -0.6975    1.8551 N   0  0  0  0  0  0  0  0  0  0  0  0
   -4.6564    1.3532   -0.9790 C   0  0  0  0  0  0  0  0  0  0  0  0
   -5.5916    1.2052   -1.9161 C   0  0  0  0  0  0  0  0  0  0  0  0
    6.4423    1.9220   -0.1025 H   0  0  0  0  0  0  0  0  0  0  0  0
    6.9234   -1.1282   -4.4216 H   0  0  0  0  0  0  0  0  0  0  0  0
    4.6644   -1.3995   -5.0192 H   0  0  0  0  0  0  0  0  0  0  0  0
    3.0482    0.4059   -5.6538 H   0  0  0  0  0  0  0  0  0  0  0  0
    1.1217    2.1117   -8.3901 H   0  0  0  0  0  0  0  0  0  0  0  0
    1.7840    0.5529   -7.7805 H   0  0  0  0  0  0  0  0  0  0  0  0
    2.5917    2.1264   -7.3468 H   0  0  0  0  0  0  0  0  0  0  0  0
   -1.7340    2.8251   -2.5765 H   0  0  0  0  0  0  0  0  0  0  0  0
   -2.9043    2.8296   -3.9474 H   0  0  0  0  0  0  0  0  0  0  0  0
   -2.5136    1.2715   -3.1263 H   0  0  0  0  0  0  0  0  0  0  0  0
   -0.3102    0.9213   -1.9958 H   0  0  0  0  0  0  0  0  0  0  0  0
    0.0517   -2.3759   -1.4329 H   0  0  0  0  0  0  0  0  0  0  0  0
   -0.4168   -4.6411   -2.2071 H   0  0  0  0  0  0  0  0  0  0  0  0
   -1.9018   -3.6028   -2.3990 H   0  0  0  0  0  0  0  0  0  0  0  0
   -2.0522   -5.3901   -2.2111 H   0  0  0  0  0  0  0  0  0  0  0  0
   -2.5449   -3.6824    4.0931 H   0  0  0  0  0  0  0  0  0  0  0  0
   -2.6704   -5.4495    3.7841 H   0  0  0  0  0  0  0  0  0  0  0  0
   -1.0448   -4.7142    4.0858 H   0  0  0  0  0  0  0  0  0  0  0  0
   -0.7220   -2.2393    3.4871 H   0  0  0  0  0  0  0  0  0  0  0  0
    1.5032   -0.2649    8.0395 H   0  0  0  0  0  0  0  0  0  0  0  0
   -0.3104   -1.5283    8.7915 H   0  0  0  0  0  0  0  0  0  0  0  0
   -4.8248   -1.6025    4.2618 H   0  0  0  0  0  0  0  0  0  0  0  0
   -2.3954    0.0909    3.4838 H   0  0  0  0  0  0  0  0  0  0  0  0
   -3.8506    2.0559   -1.1426 H   0  0  0  0  0  0  0  0  0  0  0  0
   -5.5338    1.7800   -2.8336 H   0  0  0  0  0  0  0  0  0  0  0  0
   -6.4123    0.5081   -1.7897 H   0  0  0  0  0  0  0  0  0  0  0  0
  1  2  1  0
  2  3  1  0
  3  4  2  0
  4  5  1  0
  3  6  1  0
  6  7  2  3
  7  8  1  0
  8  9  1  0
  9 10  1  0
 10 11  2  0
 11 12  1  0
 12 13  1  0
 13 14  2  0
 14 15  1  0
 15 16  1  0
 14 17  1  0
 17 18  1  0
 18 19  1  0
 17 20  2  0
 10 21  1  0
 21 22  1  0
 22 23  1  0
 23 24  2  0
 24 25  1  0
 25 26  1  0
 26 27  2  0
 27 28  1  0
 28 29  1  0
 27 30  1  0
 30 31  1  0
 31 32  1  0
 30 33  2  0
 23 34  1  0
 34 35  1  0
 35 36  1  0
 36 37  2  0
 37 38  1  0
 36 39  1  0
 39 40  2  3
 40 41  1  0
 41 42  1  0
 42 43  1  0
 43 44  2  0
 44 45  1  0
 43 46  1  0
 46 47  2  3
 47 48  1  0
 48 49  1  0
 49 50  1  0
 50 51  2  0
 51 52  1  0
 50 53  1  0
 53 54  2  3
  5  1  2  0
 12  8  2  0
 25 21  2  0
 38 34  2  0
 45 41  2  0
 52 48  2  0
 20 11  1  0
 33 24  1  0
  1 55  1  0
  6 56  1  0
  7 57  1  0
 13 58  1  0
 16 59  1  0
 16 60  1  0
 16 61  1  0
 19 62  1  0
 19 63  1  0
 19 64  1  0
 20 65  1  0
 26 66  1  0
 29 67  1  0
 29 68  1  0
 29 69  1  0
 32 70  1  0
 32 71  1  0
 32 72  1  0
 33 73  1  0
 39 74  1  0
 40 75  1  0
 46 76  1  0
 47 77  1  0
 53 78  1  0
 54 79  1  0
 54 80  1  0
M  END

