
     RDKit          3D

170187  0  0  0  0  0  0  0  0999 V2000
    7.8219   -8.8282    7.9830 C   0  0  0  0  0  0  0  0  0  0  0  0
    7.8693   -7.4824    6.9706 S   0  0  0  0  0  0  0  0  0  0  0  0
    6.2122   -7.3760    6.6836 C   0  0  0  0  0  0  0  0  0  0  0  0
    5.5893   -8.3934    7.4113 C   0  0  0  0  0  0  0  0  0  0  0  0
    6.4907   -9.2025    8.1213 C   0  0  0  0  0  0  0  0  0  0  0  0
    6.0364  -10.2687    8.8981 C   0  0  0  0  0  0  0  0  0  0  0  0
    4.6499  -10.5287    8.9772 C   0  0  0  0  0  0  0  0  0  0  0  0
    4.1358  -11.5894    9.7391 O   0  0  0  0  0  0  0  0  0  0  0  0
    4.9309  -12.4941   10.4996 C   0  0  0  0  0  0  0  0  0  0  0  0
    3.7388   -9.7068    8.2790 C   0  0  0  0  0  0  0  0  0  0  0  0
    2.3685  -10.0012    8.3745 O   0  0  0  0  0  0  0  0  0  0  0  0
    1.3465   -9.3272    7.6476 C   0  0  0  0  0  0  0  0  0  0  0  0
    4.2138   -8.6211    7.5100 C   0  0  0  0  0  0  0  0  0  0  0  0
    5.5816   -6.3696    5.8149 C   0  0  0  0  0  0  0  0  0  0  0  0
    5.8693   -4.7109    5.9192 S   0  0  0  0  0  0  0  0  0  0  0  0
    4.8154   -4.2471    4.6899 C   0  0  0  0  0  0  0  0  0  0  0  0
    4.2030   -5.4016    4.1865 C   0  0  0  0  0  0  0  0  0  0  0  0
    4.6554   -6.5852    4.7914 C   0  0  0  0  0  0  0  0  0  0  0  0
    4.1896   -7.8289    4.3483 C   0  0  0  0  0  0  0  0  0  0  0  0
    3.1998   -7.8864    3.3446 C   0  0  0  0  0  0  0  0  0  0  0  0
    2.6699   -9.1050    2.8942 O   0  0  0  0  0  0  0  0  0  0  0  0
    2.9948  -10.3774    3.4429 C   0  0  0  0  0  0  0  0  0  0  0  0
    2.7097   -6.6975    2.7708 C   0  0  0  0  0  0  0  0  0  0  0  0
    1.7305   -6.7924    1.7678 O   0  0  0  0  0  0  0  0  0  0  0  0
    1.1983   -5.6815    1.0497 C   0  0  0  0  0  0  0  0  0  0  0  0
    3.2020   -5.4521    3.2073 C   0  0  0  0  0  0  0  0  0  0  0  0
    4.5964   -2.8592    4.2477 C   0  0  0  0  0  0  0  0  0  0  0  0
    4.3453   -2.4698    2.9361 C   0  0  0  0  0  0  0  0  0  0  0  0
    3.9053   -1.1454    2.8318 C   0  0  0  0  0  0  0  0  0  0  0  0
    3.3848   -0.5454    1.6689 C   0  0  0  0  0  0  0  0  0  0  0  0
    3.3155   -1.2713    0.3839 C   0  0  0  0  0  0  0  0  0  0  0  0
    1.8863   -1.6958   -0.4016 S   0  0  0  0  0  0  0  0  0  0  0  0
    2.6200   -2.4968   -1.6855 C   0  0  0  0  0  0  0  0  0  0  0  0
    1.8827   -3.0823   -2.8504 C   0  0  0  0  0  0  0  0  0  0  0  0
    1.6457   -2.0295   -3.9257 C   0  0  0  0  0  0  0  0  0  0  0  0
    4.0043   -2.4259   -1.5236 C   0  0  0  0  0  0  0  0  0  0  0  0
    5.1514   -3.1087   -2.6683 Cl  0  0  0  0  0  0  0  0  0  0  0  0
    4.3926   -1.7482   -0.3588 C   0  0  0  0  0  0  0  0  0  0  0  0
    6.0732   -1.4863    0.0918 Cl  0  0  0  0  0  0  0  0  0  0  0  0
    2.8035    0.7215    1.8222 C   0  0  0  0  0  0  0  0  0  0  0  0
    2.7636    1.3999    3.0449 C   0  0  0  0  0  0  0  0  0  0  0  0
    3.3263    0.8126    4.1985 C   0  0  0  0  0  0  0  0  0  0  0  0
    3.2505    1.4625    5.5137 C   0  0  0  0  0  0  0  0  0  0  0  0
    4.5455    2.1967    6.2954 S   0  0  0  0  0  0  0  0  0  0  0  0
    3.6656    2.7210    7.6317 C   0  0  0  0  0  0  0  0  0  0  0  0
    4.2176    3.5902    8.7212 C   0  0  0  0  0  0  0  0  0  0  0  0
    4.1391    5.0604    8.3262 C   0  0  0  0  0  0  0  0  0  0  0  0
    2.3341    2.3345    7.4711 C   0  0  0  0  0  0  0  0  0  0  0  0
    2.1056    1.6177    6.2866 C   0  0  0  0  0  0  0  0  0  0  0  0
    0.5396    0.9628    5.8296 Cl  0  0  0  0  0  0  0  0  0  0  0  0
    1.0628    2.7174    8.6260 Cl  0  0  0  0  0  0  0  0  0  0  0  0
    3.8716   -0.4760    4.0599 C   0  0  0  0  0  0  0  0  0  0  0  0
    4.3553   -1.5395    5.2757 S   0  0  0  0  0  0  0  0  0  0  0  0
    2.0630    2.6218    2.9796 C   0  0  0  0  0  0  0  0  0  0  0  0
    1.5185    2.8692    1.7137 C   0  0  0  0  0  0  0  0  0  0  0  0
    1.9690    1.6145    0.6793 S   0  0  0  0  0  0  0  0  0  0  0  0
    0.5708    3.9229    1.2964 C   0  0  0  0  0  0  0  0  0  0  0  0
    0.3489    4.3023   -0.3287 S   0  0  0  0  0  0  0  0  0  0  0  0
   -1.1207    5.0991   -0.2002 C   0  0  0  0  0  0  0  0  0  0  0  0
   -1.4749    5.0904    1.1511 C   0  0  0  0  0  0  0  0  0  0  0  0
   -0.5449    4.4325    1.9884 C   0  0  0  0  0  0  0  0  0  0  0  0
   -0.8387    4.2654    3.3495 C   0  0  0  0  0  0  0  0  0  0  0  0
   -2.0233    4.8161    3.8864 C   0  0  0  0  0  0  0  0  0  0  0  0
   -2.3412    4.7095    5.2498 O   0  0  0  0  0  0  0  0  0  0  0  0
   -1.5850    3.9753    6.2036 C   0  0  0  0  0  0  0  0  0  0  0  0
   -2.9303    5.4943    3.0505 C   0  0  0  0  0  0  0  0  0  0  0  0
   -4.1010    6.0135    3.6267 O   0  0  0  0  0  0  0  0  0  0  0  0
   -5.1461    6.6525    2.8995 C   0  0  0  0  0  0  0  0  0  0  0  0
   -2.6569    5.6242    1.6753 C   0  0  0  0  0  0  0  0  0  0  0  0
   -2.0193    5.2538   -1.3540 C   0  0  0  0  0  0  0  0  0  0  0  0
   -1.5791    5.4974   -2.6549 C   0  0  0  0  0  0  0  0  0  0  0  0
   -2.5178    5.1337   -3.6344 C   0  0  0  0  0  0  0  0  0  0  0  0
   -2.3278    5.1762   -5.0295 C   0  0  0  0  0  0  0  0  0  0  0  0
   -1.0677    5.6436   -5.6311 C   0  0  0  0  0  0  0  0  0  0  0  0
    0.4181    4.8714   -5.4566 S   0  0  0  0  0  0  0  0  0  0  0  0
    1.2847    5.9247   -6.4406 C   0  0  0  0  0  0  0  0  0  0  0  0
    2.7361    5.7682   -6.7825 C   0  0  0  0  0  0  0  0  0  0  0  0
    2.9061    4.9918   -8.0855 C   0  0  0  0  0  0  0  0  0  0  0  0
    0.4085    6.8879   -6.9431 C   0  0  0  0  0  0  0  0  0  0  0  0
    0.8990    8.1651   -8.0475 Cl  0  0  0  0  0  0  0  0  0  0  0  0
   -0.9082    6.7340   -6.4847 C   0  0  0  0  0  0  0  0  0  0  0  0
   -2.2196    7.8215   -6.9270 Cl  0  0  0  0  0  0  0  0  0  0  0  0
   -3.3534    4.6429   -5.8265 C   0  0  0  0  0  0  0  0  0  0  0  0
   -4.5174    4.0824   -5.2887 C   0  0  0  0  0  0  0  0  0  0  0  0
   -4.7158    4.0566   -3.8934 C   0  0  0  0  0  0  0  0  0  0  0  0
   -5.8672    3.3662   -3.2882 C   0  0  0  0  0  0  0  0  0  0  0  0
   -7.4635    3.8901   -3.3772 S   0  0  0  0  0  0  0  0  0  0  0  0
   -8.1208    2.5940   -2.5263 C   0  0  0  0  0  0  0  0  0  0  0  0
   -9.5877    2.3855   -2.2989 C   0  0  0  0  0  0  0  0  0  0  0  0
  -10.2202    1.6618   -3.4807 C   0  0  0  0  0  0  0  0  0  0  0  0
   -7.0958    1.7134   -2.1880 C   0  0  0  0  0  0  0  0  0  0  0  0
   -5.8303    2.1483   -2.6108 C   0  0  0  0  0  0  0  0  0  0  0  0
   -4.3579    1.2154   -2.3694 Cl  0  0  0  0  0  0  0  0  0  0  0  0
   -7.3555    0.1956   -1.3377 Cl  0  0  0  0  0  0  0  0  0  0  0  0
   -3.6944    4.6034   -3.0963 C   0  0  0  0  0  0  0  0  0  0  0  0
   -3.5719    4.5901   -1.4188 S   0  0  0  0  0  0  0  0  0  0  0  0
   -5.3483    3.4951   -6.2586 C   0  0  0  0  0  0  0  0  0  0  0  0
   -4.8204    3.5721   -7.5480 C   0  0  0  0  0  0  0  0  0  0  0  0
   -3.3510    4.4024   -7.4874 S   0  0  0  0  0  0  0  0  0  0  0  0
   -5.4633    3.0194   -8.7572 C   0  0  0  0  0  0  0  0  0  0  0  0
   -7.1320    2.8460   -8.9357 S   0  0  0  0  0  0  0  0  0  0  0  0
   -7.1249    2.2042  -10.4889 C   0  0  0  0  0  0  0  0  0  0  0  0
   -5.8001    2.1027  -10.8901 C   0  0  0  0  0  0  0  0  0  0  0  0
   -4.8672    2.5465   -9.9352 C   0  0  0  0  0  0  0  0  0  0  0  0
   -3.4956    2.4390  -10.2012 C   0  0  0  0  0  0  0  0  0  0  0  0
   -3.0596    1.9265  -11.4425 C   0  0  0  0  0  0  0  0  0  0  0  0
   -1.6963    1.8162  -11.7617 O   0  0  0  0  0  0  0  0  0  0  0  0
   -0.6315    2.2442  -10.9179 C   0  0  0  0  0  0  0  0  0  0  0  0
   -4.0029    1.5045  -12.4029 C   0  0  0  0  0  0  0  0  0  0  0  0
   -3.5272    1.0069  -13.6274 O   0  0  0  0  0  0  0  0  0  0  0  0
   -4.3553    0.5712  -14.6997 C   0  0  0  0  0  0  0  0  0  0  0  0
   -5.3824    1.5893  -12.1182 C   0  0  0  0  0  0  0  0  0  0  0  0
    8.6751   -9.3085    8.4453 H   0  0  0  0  0  0  0  0  0  0  0  0
    6.7521  -10.8806    9.4310 H   0  0  0  0  0  0  0  0  0  0  0  0
    4.2664  -13.2201   11.0089 H   0  0  0  0  0  0  0  0  0  0  0  0
    5.6198  -13.0512    9.8324 H   0  0  0  0  0  0  0  0  0  0  0  0
    5.5063  -11.9388   11.2692 H   0  0  0  0  0  0  0  0  0  0  0  0
    1.5281   -9.4221    6.5561 H   0  0  0  0  0  0  0  0  0  0  0  0
    0.3672   -9.7907    7.8871 H   0  0  0  0  0  0  0  0  0  0  0  0
    1.3112   -8.2562    7.9375 H   0  0  0  0  0  0  0  0  0  0  0  0
    3.5227   -7.9613    7.0068 H   0  0  0  0  0  0  0  0  0  0  0  0
    4.5938   -8.7351    4.7745 H   0  0  0  0  0  0  0  0  0  0  0  0
    4.0731  -10.5935    3.2935 H   0  0  0  0  0  0  0  0  0  0  0  0
    2.3991  -11.1566    2.9255 H   0  0  0  0  0  0  0  0  0  0  0  0
    2.7467  -10.4003    4.5260 H   0  0  0  0  0  0  0  0  0  0  0  0
    2.0139   -5.1406    0.5230 H   0  0  0  0  0  0  0  0  0  0  0  0
    0.4710   -6.0482    0.2966 H   0  0  0  0  0  0  0  0  0  0  0  0
    0.6710   -4.9946    1.7451 H   0  0  0  0  0  0  0  0  0  0  0  0
    2.7841   -4.5426    2.8090 H   0  0  0  0  0  0  0  0  0  0  0  0
    4.4205   -3.1441    2.0930 H   0  0  0  0  0  0  0  0  0  0  0  0
    2.4592   -3.9298   -3.2789 H   0  0  0  0  0  0  0  0  0  0  0  0
    0.9060   -3.4800   -2.5033 H   0  0  0  0  0  0  0  0  0  0  0  0
    1.1161   -2.4921   -4.7848 H   0  0  0  0  0  0  0  0  0  0  0  0
    2.6129   -1.6160   -4.2835 H   0  0  0  0  0  0  0  0  0  0  0  0
    1.0186   -1.2059   -3.5248 H   0  0  0  0  0  0  0  0  0  0  0  0
    3.6515    3.4288    9.6633 H   0  0  0  0  0  0  0  0  0  0  0  0
    5.2757    3.3160    8.9124 H   0  0  0  0  0  0  0  0  0  0  0  0
    3.0886    5.3447    8.1035 H   0  0  0  0  0  0  0  0  0  0  0  0
    4.7666    5.2503    7.4298 H   0  0  0  0  0  0  0  0  0  0  0  0
    4.5142    5.6896    9.1596 H   0  0  0  0  0  0  0  0  0  0  0  0
    1.9585    3.2887    3.8239 H   0  0  0  0  0  0  0  0  0  0  0  0
   -0.1708    3.7177    3.9878 H   0  0  0  0  0  0  0  0  0  0  0  0
   -1.5702    2.9034    5.9213 H   0  0  0  0  0  0  0  0  0  0  0  0
   -2.0657    4.0712    7.1985 H   0  0  0  0  0  0  0  0  0  0  0  0
   -0.5509    4.3738    6.2679 H   0  0  0  0  0  0  0  0  0  0  0  0
   -5.5654    5.9534    2.1446 H   0  0  0  0  0  0  0  0  0  0  0  0
   -5.9545    6.9395    3.6029 H   0  0  0  0  0  0  0  0  0  0  0  0
   -4.7618    7.5688    2.4044 H   0  0  0  0  0  0  0  0  0  0  0  0
   -3.3455    6.1413    1.0210 H   0  0  0  0  0  0  0  0  0  0  0  0
   -0.5805    5.8503   -2.8777 H   0  0  0  0  0  0  0  0  0  0  0  0
    3.2136    6.7669   -6.8781 H   0  0  0  0  0  0  0  0  0  0  0  0
    3.2504    5.2227   -5.9632 H   0  0  0  0  0  0  0  0  0  0  0  0
    2.4144    3.9981   -8.0101 H   0  0  0  0  0  0  0  0  0  0  0  0
    3.9873    4.8386   -8.2868 H   0  0  0  0  0  0  0  0  0  0  0  0
    2.4628    5.5575   -8.9311 H   0  0  0  0  0  0  0  0  0  0  0  0
  -10.0810    3.3702   -2.1638 H   0  0  0  0  0  0  0  0  0  0  0  0
   -9.7519    1.7970   -1.3704 H   0  0  0  0  0  0  0  0  0  0  0  0
  -11.3024    1.5058   -3.2854 H   0  0  0  0  0  0  0  0  0  0  0  0
  -10.1087    2.2661   -4.4066 H   0  0  0  0  0  0  0  0  0  0  0  0
   -9.7402    0.6707   -3.6306 H   0  0  0  0  0  0  0  0  0  0  0  0
   -6.2778    2.9898   -6.0293 H   0  0  0  0  0  0  0  0  0  0  0  0
   -7.9935    1.9126  -11.0642 H   0  0  0  0  0  0  0  0  0  0  0  0
   -2.7711    2.7208   -9.4569 H   0  0  0  0  0  0  0  0  0  0  0  0
   -0.7182    3.3332  -10.7170 H   0  0  0  0  0  0  0  0  0  0  0  0
    0.3348    2.0528  -11.4277 H   0  0  0  0  0  0  0  0  0  0  0  0
   -0.6480    1.6769   -9.9620 H   0  0  0  0  0  0  0  0  0  0  0  0
   -3.7109    0.2483  -15.5427 H   0  0  0  0  0  0  0  0  0  0  0  0
   -5.0013    1.4046  -15.0466 H   0  0  0  0  0  0  0  0  0  0  0  0
   -4.9774   -0.2901  -14.3785 H   0  0  0  0  0  0  0  0  0  0  0  0
   -6.1234    1.2579  -12.8349 H   0  0  0  0  0  0  0  0  0  0  0  0
  1  2  1  0
  2  3  1  0
  3  4  2  0
  4  5  1  0
  5  6  1  0
  6  7  2  0
  7  8  1  0
  8  9  1  0
  7 10  1  0
 10 11  1  0
 11 12  1  0
 10 13  2  0
  3 14  1  0
 14 15  1  0
 15 16  1  0
 16 17  2  0
 17 18  1  0
 18 19  1  0
 19 20  2  0
 20 21  1  0
 21 22  1  0
 20 23  1  0
 23 24  1  0
 24 25  1  0
 23 26  2  0
 16 27  1  0
 27 28  2  0
 28 29  1  0
 29 30  2  0
 30 31  1  0
 31 32  1  0
 32 33  1  0
 33 34  1  0
 34 35  1  0
 33 36  2  0
 36 37  1  0
 36 38  1  0
 38 39  1  0
 30 40  1  0
 40 41  2  0
 41 42  1  0
 42 43  1  0
 43 44  1  0
 44 45  1  0
 45 46  1  0
 46 47  1  0
 45 48  2  0
 48 49  1  0
 49 50  1  0
 48 51  1  0
 42 52  2  0
 52 53  1  0
 41 54  1  0
 54 55  2  0
 55 56  1  0
 55 57  1  0
 57 58  1  0
 58 59  1  0
 59 60  2  0
 60 61  1  0
 61 62  1  0
 62 63  2  0
 63 64  1  0
 64 65  1  0
 63 66  1  0
 66 67  1  0
 67 68  1  0
 66 69  2  0
 59 70  1  0
 70 71  2  0
 71 72  1  0
 72 73  2  0
 73 74  1  0
 74 75  1  0
 75 76  1  0
 76 77  1  0
 77 78  1  0
 76 79  2  0
 79 80  1  0
 79 81  1  0
 81 82  1  0
 73 83  1  0
 83 84  2  0
 84 85  1  0
 85 86  1  0
 86 87  1  0
 87 88  1  0
 88 89  1  0
 89 90  1  0
 88 91  2  0
 91 92  1  0
 92 93  1  0
 91 94  1  0
 85 95  2  0
 95 96  1  0
 84 97  1  0
 97 98  2  0
 98 99  1  0
 98100  1  0
100101  1  0
101102  1  0
102103  2  0
103104  1  0
104105  1  0
105106  2  0
106107  1  0
107108  1  0
106109  1  0
109110  1  0
110111  1  0
109112  2  0
  5  1  2  0
 18 14  2  0
 53 27  1  0
 61 57  2  0
 96 70  1  0
104100  2  0
 13  4  1  0
 26 17  1  0
 52 29  1  0
 69 60  1  0
 95 72  1  0
112103  1  0
 38 31  2  0
 56 40  1  0
 81 74  2  0
 99 83  1  0
 49 43  2  0
 92 86  2  0
  1113  1  0
  6114  1  0
  9115  1  0
  9116  1  0
  9117  1  0
 12118  1  0
 12119  1  0
 12120  1  0
 13121  1  0
 19122  1  0
 22123  1  0
 22124  1  0
 22125  1  0
 25126  1  0
 25127  1  0
 25128  1  0
 26129  1  0
 28130  1  0
 34131  1  0
 34132  1  0
 35133  1  0
 35134  1  0
 35135  1  0
 46136  1  0
 46137  1  0
 47138  1  0
 47139  1  0
 47140  1  0
 54141  1  0
 62142  1  0
 65143  1  0
 65144  1  0
 65145  1  0
 68146  1  0
 68147  1  0
 68148  1  0
 69149  1  0
 71150  1  0
 77151  1  0
 77152  1  0
 78153  1  0
 78154  1  0
 78155  1  0
 89156  1  0
 89157  1  0
 90158  1  0
 90159  1  0
 90160  1  0
 97161  1  0
102162  1  0
105163  1  0
108164  1  0
108165  1  0
108166  1  0
111167  1  0
111168  1  0
111169  1  0
112170  1  0
M  END

