
     RDKit          3D

123139  0  0  0  0  0  0  0  0999 V2000
    4.7129    0.6172   10.2488 C   0  0  0  0  0  0  0  0  0  0  0  0
    3.3159    0.6837   10.3192 C   0  0  0  0  0  0  0  0  0  0  0  0
    2.4771    1.1584   11.4088 C   0  0  0  0  0  0  0  0  0  0  0  0
    2.9077    1.5768   12.5154 O   0  0  0  0  0  0  0  0  0  0  0  0
    1.0292    1.0898   11.0313 C   0  0  0  0  0  0  0  0  0  0  0  0
    1.1178    0.5444    9.6377 C   0  0  0  0  0  0  0  0  0  0  0  0
    0.1213    0.3460    8.8932 O   0  0  0  0  0  0  0  0  0  0  0  0
    2.5099    0.3052    9.2582 C   0  0  0  0  0  0  0  0  0  0  0  0
    3.0580   -0.1716    8.0496 C   0  0  0  0  0  0  0  0  0  0  0  0
    4.4642   -0.2412    7.9827 C   0  0  0  0  0  0  0  0  0  0  0  0
    5.2590    0.1430    9.0502 C   0  0  0  0  0  0  0  0  0  0  0  0
    6.6583   -0.0352    8.6897 C   0  0  0  0  0  0  0  0  0  0  0  0
    7.6326    0.2335    9.4411 O   0  0  0  0  0  0  0  0  0  0  0  0
    6.7823   -0.5740    7.2973 C   0  0  0  0  0  0  0  0  0  0  0  0
    5.3403   -0.7043    6.9059 C   0  0  0  0  0  0  0  0  0  0  0  0
    4.9482   -1.1730    5.8047 O   0  0  0  0  0  0  0  0  0  0  0  0
    2.2083   -0.5670    6.9168 C   0  0  0  0  0  0  0  0  0  0  0  0
    2.1037    0.2663    5.4565 S   0  0  0  0  0  0  0  0  0  0  0  0
    0.9872   -0.7644    4.7284 C   0  0  0  0  0  0  0  0  0  0  0  0
    0.6824   -1.7840    5.6294 C   0  0  0  0  0  0  0  0  0  0  0  0
    1.3654   -1.6754    6.8495 C   0  0  0  0  0  0  0  0  0  0  0  0
    1.1932   -2.6365    7.8486 C   0  0  0  0  0  0  0  0  0  0  0  0
    0.3095   -3.7155    7.6278 C   0  0  0  0  0  0  0  0  0  0  0  0
    0.1018   -4.7115    8.5957 O   0  0  0  0  0  0  0  0  0  0  0  0
    0.7593   -4.7592    9.8594 C   0  0  0  0  0  0  0  0  0  0  0  0
   -0.3917   -3.8145    6.4073 C   0  0  0  0  0  0  0  0  0  0  0  0
   -1.2675   -4.8979    6.2313 O   0  0  0  0  0  0  0  0  0  0  0  0
   -2.0443   -5.1259    5.0587 C   0  0  0  0  0  0  0  0  0  0  0  0
   -0.2010   -2.8415    5.4018 C   0  0  0  0  0  0  0  0  0  0  0  0
    0.5142   -0.6381    3.3422 C   0  0  0  0  0  0  0  0  0  0  0  0
   -0.3327    0.4126    2.9419 C   0  0  0  0  0  0  0  0  0  0  0  0
   -0.9360    1.4851    3.7329 C   0  0  0  0  0  0  0  0  0  0  0  0
   -0.8083    1.6238    4.9772 O   0  0  0  0  0  0  0  0  0  0  0  0
   -1.7608    2.3877    2.8692 C   0  0  0  0  0  0  0  0  0  0  0  0
   -1.5879    1.7450    1.5280 C   0  0  0  0  0  0  0  0  0  0  0  0
   -2.1049    2.1777    0.4644 O   0  0  0  0  0  0  0  0  0  0  0  0
   -0.7367    0.5603    1.6248 C   0  0  0  0  0  0  0  0  0  0  0  0
   -0.3268   -0.3364    0.6204 C   0  0  0  0  0  0  0  0  0  0  0  0
    0.5022   -1.3993    1.0242 C   0  0  0  0  0  0  0  0  0  0  0  0
    0.9164   -1.5408    2.3384 C   0  0  0  0  0  0  0  0  0  0  0  0
    1.8121   -2.6958    2.4158 C   0  0  0  0  0  0  0  0  0  0  0  0
    2.4107   -3.0782    3.4550 O   0  0  0  0  0  0  0  0  0  0  0  0
    1.9534   -3.3546    1.0792 C   0  0  0  0  0  0  0  0  0  0  0  0
    1.0931   -2.4742    0.2288 C   0  0  0  0  0  0  0  0  0  0  0  0
    0.8967   -2.6540   -1.0025 O   0  0  0  0  0  0  0  0  0  0  0  0
   -0.7019   -0.1439   -0.7901 C   0  0  0  0  0  0  0  0  0  0  0  0
   -1.9749   -0.4981   -1.2765 C   0  0  0  0  0  0  0  0  0  0  0  0
   -3.1155   -1.0836   -0.5748 C   0  0  0  0  0  0  0  0  0  0  0  0
   -3.1388   -1.3710    0.6511 O   0  0  0  0  0  0  0  0  0  0  0  0
   -4.2596   -1.3120   -1.5141 C   0  0  0  0  0  0  0  0  0  0  0  0
   -3.6798   -0.8193   -2.8038 C   0  0  0  0  0  0  0  0  0  0  0  0
   -4.2942   -0.8216   -3.9030 O   0  0  0  0  0  0  0  0  0  0  0  0
   -2.3126   -0.3426   -2.6112 C   0  0  0  0  0  0  0  0  0  0  0  0
   -1.3986    0.1730   -3.5486 C   0  0  0  0  0  0  0  0  0  0  0  0
   -0.1285    0.5321   -3.0622 C   0  0  0  0  0  0  0  0  0  0  0  0
    0.2084    0.3808   -1.7278 C   0  0  0  0  0  0  0  0  0  0  0  0
    1.5864    0.8362   -1.5435 C   0  0  0  0  0  0  0  0  0  0  0  0
    2.2016    0.8491   -0.4453 O   0  0  0  0  0  0  0  0  0  0  0  0
    2.1740    1.2975   -2.8412 C   0  0  0  0  0  0  0  0  0  0  0  0
    1.0226    1.0835   -3.7740 C   0  0  0  0  0  0  0  0  0  0  0  0
    1.0515    1.3490   -5.0048 O   0  0  0  0  0  0  0  0  0  0  0  0
   -1.7410    0.3075   -4.9731 C   0  0  0  0  0  0  0  0  0  0  0  0
   -2.4288    1.4311   -5.4666 C   0  0  0  0  0  0  0  0  0  0  0  0
   -2.9349    2.6034   -4.7560 C   0  0  0  0  0  0  0  0  0  0  0  0
   -2.8327    2.7953   -3.5156 O   0  0  0  0  0  0  0  0  0  0  0  0
   -3.5948    3.5570   -5.7038 C   0  0  0  0  0  0  0  0  0  0  0  0
   -3.4226    2.8387   -7.0066 C   0  0  0  0  0  0  0  0  0  0  0  0
   -3.8351    3.2729   -8.1140 O   0  0  0  0  0  0  0  0  0  0  0  0
   -2.7178    1.5732   -6.8137 C   0  0  0  0  0  0  0  0  0  0  0  0
   -2.3369    0.6003   -7.7575 C   0  0  0  0  0  0  0  0  0  0  0  0
   -1.6515   -0.5252   -7.2624 C   0  0  0  0  0  0  0  0  0  0  0  0
   -1.3639   -0.6665   -5.9156 C   0  0  0  0  0  0  0  0  0  0  0  0
   -0.6410   -1.9223   -5.7244 C   0  0  0  0  0  0  0  0  0  0  0  0
   -0.2289   -2.3563   -4.6170 O   0  0  0  0  0  0  0  0  0  0  0  0
   -0.4489   -2.6312   -7.0299 C   0  0  0  0  0  0  0  0  0  0  0  0
   -1.1165   -1.6820   -7.9772 C   0  0  0  0  0  0  0  0  0  0  0  0
   -1.1955   -1.8619   -9.2209 O   0  0  0  0  0  0  0  0  0  0  0  0
   -2.6331    0.7552   -9.1903 C   0  0  0  0  0  0  0  0  0  0  0  0
   -1.8167    1.5287  -10.0383 C   0  0  0  0  0  0  0  0  0  0  0  0
   -0.6026    2.2864   -9.7430 C   0  0  0  0  0  0  0  0  0  0  0  0
   -0.0661    2.3768   -8.6070 O   0  0  0  0  0  0  0  0  0  0  0  0
   -0.0718    2.9448  -10.9816 C   0  0  0  0  0  0  0  0  0  0  0  0
   -1.0751    2.4982  -12.0008 C   0  0  0  0  0  0  0  0  0  0  0  0
   -1.0389    2.8063  -13.2212 O   0  0  0  0  0  0  0  0  0  0  0  0
   -2.0926    1.6578  -11.3889 C   0  0  0  0  0  0  0  0  0  0  0  0
   -3.1936    1.0279  -11.9835 C   0  0  0  0  0  0  0  0  0  0  0  0
   -4.0075    0.2590  -11.1405 C   0  0  0  0  0  0  0  0  0  0  0  0
   -3.7409    0.1250   -9.7889 C   0  0  0  0  0  0  0  0  0  0  0  0
   -4.7681   -0.7334   -9.2013 C   0  0  0  0  0  0  0  0  0  0  0  0
   -4.8287   -1.0567   -7.9858 O   0  0  0  0  0  0  0  0  0  0  0  0
   -5.7492   -1.1803  -10.2435 C   0  0  0  0  0  0  0  0  0  0  0  0
   -5.2032   -0.5053  -11.4662 C   0  0  0  0  0  0  0  0  0  0  0  0
   -5.7084   -0.5917  -12.6167 O   0  0  0  0  0  0  0  0  0  0  0  0
    5.3402    0.9222   11.0766 H   0  0  0  0  0  0  0  0  0  0  0  0
    0.5740    2.1023   11.0300 H   0  0  0  0  0  0  0  0  0  0  0  0
    0.4792    0.3907   11.6955 H   0  0  0  0  0  0  0  0  0  0  0  0
    7.2849   -1.5653    7.2984 H   0  0  0  0  0  0  0  0  0  0  0  0
    7.3044    0.1519    6.6385 H   0  0  0  0  0  0  0  0  0  0  0  0
    1.7422   -2.5472    8.7765 H   0  0  0  0  0  0  0  0  0  0  0  0
    0.4146   -5.6560   10.4135 H   0  0  0  0  0  0  0  0  0  0  0  0
    0.5101   -3.8548   10.4563 H   0  0  0  0  0  0  0  0  0  0  0  0
    1.8583   -4.8320    9.7147 H   0  0  0  0  0  0  0  0  0  0  0  0
   -1.3792   -5.2606    4.1786 H   0  0  0  0  0  0  0  0  0  0  0  0
   -2.6448   -6.0479    5.1941 H   0  0  0  0  0  0  0  0  0  0  0  0
   -2.7367   -4.2744    4.8868 H   0  0  0  0  0  0  0  0  0  0  0  0
   -0.7254   -2.9053    4.4583 H   0  0  0  0  0  0  0  0  0  0  0  0
   -1.3505    3.4191    2.8702 H   0  0  0  0  0  0  0  0  0  0  0  0
   -2.8262    2.3674    3.1806 H   0  0  0  0  0  0  0  0  0  0  0  0
    1.5541   -4.3904    1.1066 H   0  0  0  0  0  0  0  0  0  0  0  0
    3.0084   -3.3271    0.7346 H   0  0  0  0  0  0  0  0  0  0  0  0
   -4.5073   -2.3919   -1.5797 H   0  0  0  0  0  0  0  0  0  0  0  0
   -5.1404   -0.7042   -1.2194 H   0  0  0  0  0  0  0  0  0  0  0  0
    2.4493    2.3715   -2.7914 H   0  0  0  0  0  0  0  0  0  0  0  0
    3.0382    0.6631   -3.1306 H   0  0  0  0  0  0  0  0  0  0  0  0
   -4.6706    3.6775   -5.4573 H   0  0  0  0  0  0  0  0  0  0  0  0
   -3.0627    4.5311   -5.7171 H   0  0  0  0  0  0  0  0  0  0  0  0
   -0.9658   -3.6143   -7.0263 H   0  0  0  0  0  0  0  0  0  0  0  0
    0.6306   -2.7328   -7.2684 H   0  0  0  0  0  0  0  0  0  0  0  0
    0.9402    2.5618  -11.2298 H   0  0  0  0  0  0  0  0  0  0  0  0
   -0.0796    4.0498  -10.8765 H   0  0  0  0  0  0  0  0  0  0  0  0
   -3.4034    1.1284  -13.0403 H   0  0  0  0  0  0  0  0  0  0  0  0
   -5.7283   -2.2846  -10.3585 H   0  0  0  0  0  0  0  0  0  0  0  0
   -6.7700   -0.8097  -10.0105 H   0  0  0  0  0  0  0  0  0  0  0  0
  1  2  2  0
  2  3  1  0
  3  4  2  0
  3  5  1  0
  5  6  1  0
  6  7  2  0
  6  8  1  0
  8  9  2  0
  9 10  1  0
 10 11  2  0
 11 12  1  0
 12 13  2  0
 12 14  1  0
 14 15  1  0
 15 16  2  0
  9 17  1  0
 17 18  1  0
 18 19  1  0
 19 20  2  0
 20 21  1  0
 21 22  1  0
 22 23  2  0
 23 24  1  0
 24 25  1  0
 23 26  1  0
 26 27  1  0
 27 28  1  0
 26 29  2  0
 19 30  1  0
 30 31  2  0
 31 32  1  0
 32 33  2  0
 32 34  1  0
 34 35  1  0
 35 36  2  0
 35 37  1  0
 37 38  2  0
 38 39  1  0
 39 40  2  0
 40 41  1  0
 41 42  2  0
 41 43  1  0
 43 44  1  0
 44 45  2  0
 38 46  1  0
 46 47  2  0
 47 48  1  0
 48 49  2  0
 48 50  1  0
 50 51  1  0
 51 52  2  0
 51 53  1  0
 53 54  2  0
 54 55  1  0
 55 56  2  0
 56 57  1  0
 57 58  2  0
 57 59  1  0
 59 60  1  0
 60 61  2  0
 54 62  1  0
 62 63  2  0
 63 64  1  0
 64 65  2  0
 64 66  1  0
 66 67  1  0
 67 68  2  0
 67 69  1  0
 69 70  2  0
 70 71  1  0
 71 72  2  0
 72 73  1  0
 73 74  2  0
 73 75  1  0
 75 76  1  0
 76 77  2  0
 70 78  1  0
 78 79  2  0
 79 80  1  0
 80 81  2  0
 80 82  1  0
 82 83  1  0
 83 84  2  0
 83 85  1  0
 85 86  2  0
 86 87  1  0
 87 88  2  0
 88 89  1  0
 89 90  2  0
 89 91  1  0
 91 92  1  0
 92 93  2  0
 11  1  1  0
 21 17  2  0
 40 30  1  0
 56 46  1  0
 72 62  1  0
 88 78  1  0
  8  2  1  0
 15 10  1  0
 29 20  1  0
 37 31  1  0
 44 39  1  0
 53 47  1  0
 60 55  1  0
 69 63  1  0
 76 71  1  0
 85 79  1  0
 92 87  1  0
  1 94  1  0
  5 95  1  0
  5 96  1  0
 14 97  1  0
 14 98  1  0
 22 99  1  0
 25100  1  0
 25101  1  0
 25102  1  0
 28103  1  0
 28104  1  0
 28105  1  0
 29106  1  0
 34107  1  0
 34108  1  0
 43109  1  0
 43110  1  0
 50111  1  0
 50112  1  0
 59113  1  0
 59114  1  0
 66115  1  0
 66116  1  0
 75117  1  0
 75118  1  0
 82119  1  0
 82120  1  0
 86121  1  0
 91122  1  0
 91123  1  0
M  END

