
     RDKit          3D

191211  0  0  0  0  0  0  0  0999 V2000
    3.9249   -8.3839   14.2195 C   0  0  0  0  0  0  0  0  0  0  0  0
    2.8237   -7.9358   13.0282 S   0  0  0  0  0  0  0  0  0  0  0  0
    3.7824   -6.7762   12.2705 C   0  0  0  0  0  0  0  0  0  0  0  0
    5.0129   -6.7444   12.9373 C   0  0  0  0  0  0  0  0  0  0  0  0
    5.0796   -7.6393   14.0186 C   0  0  0  0  0  0  0  0  0  0  0  0
    6.2443   -7.7640   14.7763 C   0  0  0  0  0  0  0  0  0  0  0  0
    7.3761   -6.9903   14.4435 C   0  0  0  0  0  0  0  0  0  0  0  0
    8.5785   -7.0869   15.1610 O   0  0  0  0  0  0  0  0  0  0  0  0
    8.7917   -7.9702   16.2592 C   0  0  0  0  0  0  0  0  0  0  0  0
    7.3211   -6.0980   13.3522 C   0  0  0  0  0  0  0  0  0  0  0  0
    8.4695   -5.3498   13.0472 O   0  0  0  0  0  0  0  0  0  0  0  0
    8.5523   -4.3885   12.0008 C   0  0  0  0  0  0  0  0  0  0  0  0
    6.1373   -5.9838   12.5912 C   0  0  0  0  0  0  0  0  0  0  0  0
    3.3721   -6.0073   11.0838 C   0  0  0  0  0  0  0  0  0  0  0  0
    2.6043   -6.5115   10.0353 C   0  0  0  0  0  0  0  0  0  0  0  0
    2.4082   -5.5780    9.0038 C   0  0  0  0  0  0  0  0  0  0  0  0
    1.7570   -5.8139    7.7738 C   0  0  0  0  0  0  0  0  0  0  0  0
    1.0773   -7.0888    7.4770 C   0  0  0  0  0  0  0  0  0  0  0  0
    1.3944   -8.0621    6.1410 S   0  0  0  0  0  0  0  0  0  0  0  0
    0.1820   -9.1866    6.4380 C   0  0  0  0  0  0  0  0  0  0  0  0
   -0.2039  -10.2853    5.4932 C   0  0  0  0  0  0  0  0  0  0  0  0
   -1.2963   -9.8115    4.5382 C   0  0  0  0  0  0  0  0  0  0  0  0
   -0.5066   -8.8014    7.5883 C   0  0  0  0  0  0  0  0  0  0  0  0
   -1.9086   -9.6636    8.2136 Cl  0  0  0  0  0  0  0  0  0  0  0  0
   -0.0036   -7.6289    8.1723 C   0  0  0  0  0  0  0  0  0  0  0  0
   -0.7489   -6.8533    9.5654 Cl  0  0  0  0  0  0  0  0  0  0  0  0
    1.8078   -4.7772    6.8237 C   0  0  0  0  0  0  0  0  0  0  0  0
    2.4273   -3.5495    7.0795 C   0  0  0  0  0  0  0  0  0  0  0  0
    3.0212   -3.2932    8.3297 C   0  0  0  0  0  0  0  0  0  0  0  0
    3.6347   -1.9934    8.6535 C   0  0  0  0  0  0  0  0  0  0  0  0
    4.9785   -1.3363    7.8811 S   0  0  0  0  0  0  0  0  0  0  0  0
    5.0083    0.0976    8.7640 C   0  0  0  0  0  0  0  0  0  0  0  0
    5.9494    1.2354    8.5140 C   0  0  0  0  0  0  0  0  0  0  0  0
    5.4190    2.1421    7.4055 C   0  0  0  0  0  0  0  0  0  0  0  0
    3.9448    0.0870    9.6642 C   0  0  0  0  0  0  0  0  0  0  0  0
    3.1830   -1.0895    9.6111 C   0  0  0  0  0  0  0  0  0  0  0  0
    1.7637   -1.3654   10.6143 Cl  0  0  0  0  0  0  0  0  0  0  0  0
    3.5757    1.4181   10.7529 Cl  0  0  0  0  0  0  0  0  0  0  0  0
    3.0085   -4.3400    9.2629 C   0  0  0  0  0  0  0  0  0  0  0  0
    3.7749   -4.4003   10.7568 S   0  0  0  0  0  0  0  0  0  0  0  0
    2.3922   -2.6738    5.9829 C   0  0  0  0  0  0  0  0  0  0  0  0
    1.7651   -3.2250    4.8681 C   0  0  0  0  0  0  0  0  0  0  0  0
    1.2155   -4.7719    5.2482 S   0  0  0  0  0  0  0  0  0  0  0  0
    1.7074   -2.6107    3.5349 C   0  0  0  0  0  0  0  0  0  0  0  0
    1.0207   -3.1180    2.4331 C   0  0  0  0  0  0  0  0  0  0  0  0
    1.2226   -2.3616    1.2679 C   0  0  0  0  0  0  0  0  0  0  0  0
    0.6687   -2.6155   -0.0034 C   0  0  0  0  0  0  0  0  0  0  0  0
   -0.2844   -3.7173   -0.2336 C   0  0  0  0  0  0  0  0  0  0  0  0
   -1.7932   -3.8469    0.5016 S   0  0  0  0  0  0  0  0  0  0  0  0
   -2.2635   -5.2543   -0.2931 C   0  0  0  0  0  0  0  0  0  0  0  0
   -3.6009   -5.9150   -0.1348 C   0  0  0  0  0  0  0  0  0  0  0  0
   -4.5854   -5.3939   -1.1747 C   0  0  0  0  0  0  0  0  0  0  0  0
   -1.2470   -5.6293   -1.1703 C   0  0  0  0  0  0  0  0  0  0  0  0
   -1.3508   -7.0228   -2.2339 Cl  0  0  0  0  0  0  0  0  0  0  0  0
   -0.1360   -4.7736   -1.1318 C   0  0  0  0  0  0  0  0  0  0  0  0
    1.3183   -5.0410   -2.0855 Cl  0  0  0  0  0  0  0  0  0  0  0  0
    1.0269   -1.7300   -1.0367 C   0  0  0  0  0  0  0  0  0  0  0  0
    1.8810   -0.6430   -0.8372 C   0  0  0  0  0  0  0  0  0  0  0  0
    2.4483   -0.4026    0.4285 C   0  0  0  0  0  0  0  0  0  0  0  0
    3.4199    0.6820    0.6520 C   0  0  0  0  0  0  0  0  0  0  0  0
    3.0712    2.3263    0.5831 S   0  0  0  0  0  0  0  0  0  0  0  0
    4.6472    2.8522    0.8491 C   0  0  0  0  0  0  0  0  0  0  0  0
    5.0797    4.2873    0.8251 C   0  0  0  0  0  0  0  0  0  0  0  0
    5.4777    4.7071   -0.5838 C   0  0  0  0  0  0  0  0  0  0  0  0
    5.4762    1.7375    0.9702 C   0  0  0  0  0  0  0  0  0  0  0  0
    4.7852    0.5219    0.8701 C   0  0  0  0  0  0  0  0  0  0  0  0
    5.5773   -1.0474    0.9453 Cl  0  0  0  0  0  0  0  0  0  0  0  0
    7.2183    1.8389    1.1944 Cl  0  0  0  0  0  0  0  0  0  0  0  0
    2.0889   -1.2803    1.4602 C   0  0  0  0  0  0  0  0  0  0  0  0
    2.5772   -1.2394    3.0696 S   0  0  0  0  0  0  0  0  0  0  0  0
    2.0533    0.1459   -1.9832 C   0  0  0  0  0  0  0  0  0  0  0  0
    1.3410   -0.3268   -3.0875 C   0  0  0  0  0  0  0  0  0  0  0  0
    0.4714   -1.6984   -2.6238 S   0  0  0  0  0  0  0  0  0  0  0  0
    1.1504    0.3803   -4.3664 C   0  0  0  0  0  0  0  0  0  0  0  0
   -0.2872    0.3119   -5.2377 S   0  0  0  0  0  0  0  0  0  0  0  0
    0.0654    1.5363   -6.3316 C   0  0  0  0  0  0  0  0  0  0  0  0
    1.3351    2.0298   -6.0287 C   0  0  0  0  0  0  0  0  0  0  0  0
    1.9550    1.3654   -4.9536 C   0  0  0  0  0  0  0  0  0  0  0  0
    3.2656    1.6965   -4.5918 C   0  0  0  0  0  0  0  0  0  0  0  0
    3.9322    2.7485   -5.2524 C   0  0  0  0  0  0  0  0  0  0  0  0
    5.2338    3.1343   -4.8950 O   0  0  0  0  0  0  0  0  0  0  0  0
    5.9822    2.5544   -3.8296 C   0  0  0  0  0  0  0  0  0  0  0  0
    3.2942    3.4392   -6.3025 C   0  0  0  0  0  0  0  0  0  0  0  0
    3.9916    4.4848   -6.9293 O   0  0  0  0  0  0  0  0  0  0  0  0
    3.4666    5.2834   -7.9853 C   0  0  0  0  0  0  0  0  0  0  0  0
    1.9900    3.0679   -6.6992 C   0  0  0  0  0  0  0  0  0  0  0  0
   -0.9270    2.0937   -7.2532 C   0  0  0  0  0  0  0  0  0  0  0  0
   -1.8289    1.3261   -7.9819 C   0  0  0  0  0  0  0  0  0  0  0  0
   -2.9127    2.0715   -8.4715 C   0  0  0  0  0  0  0  0  0  0  0  0
   -4.0204    1.5668   -9.1845 C   0  0  0  0  0  0  0  0  0  0  0  0
   -4.1174    0.1512   -9.5830 C   0  0  0  0  0  0  0  0  0  0  0  0
   -4.1705   -1.1561   -8.5228 S   0  0  0  0  0  0  0  0  0  0  0  0
   -4.2540   -2.3456   -9.7084 C   0  0  0  0  0  0  0  0  0  0  0  0
   -4.2397   -3.8185   -9.4382 C   0  0  0  0  0  0  0  0  0  0  0  0
   -2.8131   -4.3554   -9.4417 C   0  0  0  0  0  0  0  0  0  0  0  0
   -4.2233   -1.7308  -10.9599 C   0  0  0  0  0  0  0  0  0  0  0  0
   -4.2482   -2.6143  -12.4799 Cl  0  0  0  0  0  0  0  0  0  0  0  0
   -4.1558   -0.3314  -10.8894 C   0  0  0  0  0  0  0  0  0  0  0  0
   -4.0715    0.7054  -12.3086 Cl  0  0  0  0  0  0  0  0  0  0  0  0
   -5.0625    2.4664   -9.4587 C   0  0  0  0  0  0  0  0  0  0  0  0
   -5.0173    3.8109   -9.0709 C   0  0  0  0  0  0  0  0  0  0  0  0
   -3.8866    4.3301   -8.4079 C   0  0  0  0  0  0  0  0  0  0  0  0
   -3.8376    5.7233   -7.9316 C   0  0  0  0  0  0  0  0  0  0  0  0
   -3.8136    6.1843   -6.3132 S   0  0  0  0  0  0  0  0  0  0  0  0
   -3.8245    7.8418   -6.5978 C   0  0  0  0  0  0  0  0  0  0  0  0
   -3.8711    8.8885   -5.5247 C   0  0  0  0  0  0  0  0  0  0  0  0
   -5.3121    9.2475   -5.1814 C   0  0  0  0  0  0  0  0  0  0  0  0
   -3.8713    8.0579   -7.9742 C   0  0  0  0  0  0  0  0  0  0  0  0
   -3.8722    6.8710   -8.7224 C   0  0  0  0  0  0  0  0  0  0  0  0
   -3.8943    6.8354  -10.4798 Cl  0  0  0  0  0  0  0  0  0  0  0  0
   -3.9270    9.6564   -8.7045 Cl  0  0  0  0  0  0  0  0  0  0  0  0
   -2.8527    3.4236   -8.1141 C   0  0  0  0  0  0  0  0  0  0  0  0
   -1.4590    3.6934   -7.2101 S   0  0  0  0  0  0  0  0  0  0  0  0
   -6.2202    4.4911   -9.3103 C   0  0  0  0  0  0  0  0  0  0  0  0
   -7.2089    3.6733   -9.8553 C   0  0  0  0  0  0  0  0  0  0  0  0
   -6.5881    2.1233  -10.0833 S   0  0  0  0  0  0  0  0  0  0  0  0
   -8.6158    4.0398  -10.0700 C   0  0  0  0  0  0  0  0  0  0  0  0
   -9.5504    3.5100  -11.3669 S   0  0  0  0  0  0  0  0  0  0  0  0
  -10.9921    4.2518  -10.9045 C   0  0  0  0  0  0  0  0  0  0  0  0
  -10.7560    4.9114   -9.7046 C   0  0  0  0  0  0  0  0  0  0  0  0
   -9.4412    4.7913   -9.2288 C   0  0  0  0  0  0  0  0  0  0  0  0
   -9.0923    5.3412   -7.9884 C   0  0  0  0  0  0  0  0  0  0  0  0
  -10.0551    6.0583   -7.2466 C   0  0  0  0  0  0  0  0  0  0  0  0
   -9.7453    6.6386   -6.0060 O   0  0  0  0  0  0  0  0  0  0  0  0
   -8.4584    6.5996   -5.3958 C   0  0  0  0  0  0  0  0  0  0  0  0
  -11.3666    6.2010   -7.7446 C   0  0  0  0  0  0  0  0  0  0  0  0
  -12.2880    6.9299   -6.9764 O   0  0  0  0  0  0  0  0  0  0  0  0
  -13.6418    7.1640   -7.3500 C   0  0  0  0  0  0  0  0  0  0  0  0
  -11.7192    5.6139   -8.9792 C   0  0  0  0  0  0  0  0  0  0  0  0
    3.7690   -9.1352   14.9819 H   0  0  0  0  0  0  0  0  0  0  0  0
    6.2685   -8.4658   15.6000 H   0  0  0  0  0  0  0  0  0  0  0  0
    8.6394   -9.0221   15.9374 H   0  0  0  0  0  0  0  0  0  0  0  0
    8.1005   -7.7210   17.0913 H   0  0  0  0  0  0  0  0  0  0  0  0
    9.8353   -7.8576   16.6169 H   0  0  0  0  0  0  0  0  0  0  0  0
    7.8070   -3.5814   12.1637 H   0  0  0  0  0  0  0  0  0  0  0  0
    9.5679   -3.9397   12.0013 H   0  0  0  0  0  0  0  0  0  0  0  0
    8.3820   -4.8759   11.0180 H   0  0  0  0  0  0  0  0  0  0  0  0
    6.1118   -5.3378   11.7310 H   0  0  0  0  0  0  0  0  0  0  0  0
    2.2521   -7.5346   10.0011 H   0  0  0  0  0  0  0  0  0  0  0  0
   -0.5636  -11.1680    6.0645 H   0  0  0  0  0  0  0  0  0  0  0  0
    0.6864  -10.5965    4.9052 H   0  0  0  0  0  0  0  0  0  0  0  0
   -0.9480   -8.9248    3.9672 H   0  0  0  0  0  0  0  0  0  0  0  0
   -2.2152   -9.5495    5.1028 H   0  0  0  0  0  0  0  0  0  0  0  0
   -1.5388  -10.6216    3.8187 H   0  0  0  0  0  0  0  0  0  0  0  0
    6.9457    0.8390    8.2205 H   0  0  0  0  0  0  0  0  0  0  0  0
    6.0903    1.8268    9.4472 H   0  0  0  0  0  0  0  0  0  0  0  0
    5.5457    1.6485    6.4185 H   0  0  0  0  0  0  0  0  0  0  0  0
    5.9939    3.0916    7.3965 H   0  0  0  0  0  0  0  0  0  0  0  0
    4.3446    2.3773    7.5629 H   0  0  0  0  0  0  0  0  0  0  0  0
    2.8263   -1.6826    5.9867 H   0  0  0  0  0  0  0  0  0  0  0  0
    0.4101   -4.0094    2.4771 H   0  0  0  0  0  0  0  0  0  0  0  0
   -3.4923   -7.0167   -0.2394 H   0  0  0  0  0  0  0  0  0  0  0  0
   -3.9982   -5.7090    0.8823 H   0  0  0  0  0  0  0  0  0  0  0  0
   -5.5761   -5.8683   -1.0196 H   0  0  0  0  0  0  0  0  0  0  0  0
   -4.2322   -5.6359   -2.1993 H   0  0  0  0  0  0  0  0  0  0  0  0
   -4.7003   -4.2926   -1.0775 H   0  0  0  0  0  0  0  0  0  0  0  0
    4.2438    4.9289    1.1763 H   0  0  0  0  0  0  0  0  0  0  0  0
    5.9377    4.4354    1.5138 H   0  0  0  0  0  0  0  0  0  0  0  0
    6.3411    4.1020   -0.9336 H   0  0  0  0  0  0  0  0  0  0  0  0
    4.6268    4.5693   -1.2865 H   0  0  0  0  0  0  0  0  0  0  0  0
    5.7709    5.7762   -0.5863 H   0  0  0  0  0  0  0  0  0  0  0  0
    2.6043    1.0731   -1.9787 H   0  0  0  0  0  0  0  0  0  0  0  0
    3.7800    1.1200   -3.8384 H   0  0  0  0  0  0  0  0  0  0  0  0
    5.4268    2.6538   -2.8744 H   0  0  0  0  0  0  0  0  0  0  0  0
    6.1793    1.4838   -4.0441 H   0  0  0  0  0  0  0  0  0  0  0  0
    6.9521    3.0845   -3.7331 H   0  0  0  0  0  0  0  0  0  0  0  0
    3.2441    4.6490   -8.8710 H   0  0  0  0  0  0  0  0  0  0  0  0
    2.5471    5.8070   -7.6480 H   0  0  0  0  0  0  0  0  0  0  0  0
    4.2227    6.0423   -8.2735 H   0  0  0  0  0  0  0  0  0  0  0  0
    1.5000    3.5686   -7.5212 H   0  0  0  0  0  0  0  0  0  0  0  0
   -1.7307    0.2557   -8.0924 H   0  0  0  0  0  0  0  0  0  0  0  0
   -4.7032   -4.0149   -8.4472 H   0  0  0  0  0  0  0  0  0  0  0  0
   -4.8427   -4.3516  -10.2038 H   0  0  0  0  0  0  0  0  0  0  0  0
   -2.8245   -5.4451   -9.2295 H   0  0  0  0  0  0  0  0  0  0  0  0
   -2.3432   -4.1898  -10.4336 H   0  0  0  0  0  0  0  0  0  0  0  0
   -2.2087   -3.8464   -8.6593 H   0  0  0  0  0  0  0  0  0  0  0  0
   -3.3609    8.5028   -4.6145 H   0  0  0  0  0  0  0  0  0  0  0  0
   -3.3266    9.7979   -5.8593 H   0  0  0  0  0  0  0  0  0  0  0  0
   -5.3230    9.9990   -4.3657 H   0  0  0  0  0  0  0  0  0  0  0  0
   -5.8245    9.6737   -6.0694 H   0  0  0  0  0  0  0  0  0  0  0  0
   -5.8611    8.3465   -4.8375 H   0  0  0  0  0  0  0  0  0  0  0  0
   -6.3799    5.5339   -9.0665 H   0  0  0  0  0  0  0  0  0  0  0  0
  -11.9354    4.2003  -11.4358 H   0  0  0  0  0  0  0  0  0  0  0  0
   -8.1011    5.1940   -7.5889 H   0  0  0  0  0  0  0  0  0  0  0  0
   -8.4937    7.1547   -4.4376 H   0  0  0  0  0  0  0  0  0  0  0  0
   -7.7099    7.0795   -6.0612 H   0  0  0  0  0  0  0  0  0  0  0  0
   -8.1669    5.5484   -5.1846 H   0  0  0  0  0  0  0  0  0  0  0  0
  -13.6829    7.7116   -8.3151 H   0  0  0  0  0  0  0  0  0  0  0  0
  -14.1311    7.7831   -6.5704 H   0  0  0  0  0  0  0  0  0  0  0  0
  -14.1875    6.2000   -7.4315 H   0  0  0  0  0  0  0  0  0  0  0  0
  -12.7263    5.6901   -9.3690 H   0  0  0  0  0  0  0  0  0  0  0  0
  1  2  1  0
  2  3  1  0
  3  4  2  0
  4  5  1  0
  5  6  1  0
  6  7  2  0
  7  8  1  0
  8  9  1  0
  7 10  1  0
 10 11  1  0
 11 12  1  0
 10 13  2  0
  3 14  1  0
 14 15  2  0
 15 16  1  0
 16 17  2  0
 17 18  1  0
 18 19  1  0
 19 20  1  0
 20 21  1  0
 21 22  1  0
 20 23  2  0
 23 24  1  0
 23 25  1  0
 25 26  1  0
 17 27  1  0
 27 28  2  0
 28 29  1  0
 29 30  1  0
 30 31  1  0
 31 32  1  0
 32 33  1  0
 33 34  1  0
 32 35  2  0
 35 36  1  0
 36 37  1  0
 35 38  1  0
 29 39  2  0
 39 40  1  0
 28 41  1  0
 41 42  2  0
 42 43  1  0
 42 44  1  0
 44 45  2  0
 45 46  1  0
 46 47  2  0
 47 48  1  0
 48 49  1  0
 49 50  1  0
 50 51  1  0
 51 52  1  0
 50 53  2  0
 53 54  1  0
 53 55  1  0
 55 56  1  0
 47 57  1  0
 57 58  2  0
 58 59  1  0
 59 60  1  0
 60 61  1  0
 61 62  1  0
 62 63  1  0
 63 64  1  0
 62 65  2  0
 65 66  1  0
 66 67  1  0
 65 68  1  0
 59 69  2  0
 69 70  1  0
 58 71  1  0
 71 72  2  0
 72 73  1  0
 72 74  1  0
 74 75  1  0
 75 76  1  0
 76 77  2  0
 77 78  1  0
 78 79  1  0
 79 80  2  0
 80 81  1  0
 81 82  1  0
 80 83  1  0
 83 84  1  0
 84 85  1  0
 83 86  2  0
 76 87  1  0
 87 88  2  0
 88 89  1  0
 89 90  2  0
 90 91  1  0
 91 92  1  0
 92 93  1  0
 93 94  1  0
 94 95  1  0
 93 96  2  0
 96 97  1  0
 96 98  1  0
 98 99  1  0
 90100  1  0
100101  2  0
101102  1  0
102103  1  0
103104  1  0
104105  1  0
105106  1  0
106107  1  0
105108  2  0
108109  1  0
109110  1  0
108111  1  0
102112  2  0
112113  1  0
101114  1  0
114115  2  0
115116  1  0
115117  1  0
117118  1  0
118119  1  0
119120  2  0
120121  1  0
121122  1  0
122123  2  0
123124  1  0
124125  1  0
123126  1  0
126127  1  0
127128  1  0
126129  2  0
  5  1  2  0
 40 14  1  0
 70 44  1  0
 78 74  2  0
113 87  1  0
121117  2  0
 13  4  1  0
 39 16  1  0
 69 46  1  0
 86 77  1  0
112 89  1  0
129120  1  0
 25 18  2  0
 43 27  1  0
 55 48  2  0
 73 57  1  0
 98 91  2  0
116100  1  0
 36 30  2  0
 66 60  2  0
109103  2  0
  1130  1  0
  6131  1  0
  9132  1  0
  9133  1  0
  9134  1  0
 12135  1  0
 12136  1  0
 12137  1  0
 13138  1  0
 15139  1  0
 21140  1  0
 21141  1  0
 22142  1  0
 22143  1  0
 22144  1  0
 33145  1  0
 33146  1  0
 34147  1  0
 34148  1  0
 34149  1  0
 41150  1  0
 45151  1  0
 51152  1  0
 51153  1  0
 52154  1  0
 52155  1  0
 52156  1  0
 63157  1  0
 63158  1  0
 64159  1  0
 64160  1  0
 64161  1  0
 71162  1  0
 79163  1  0
 82164  1  0
 82165  1  0
 82166  1  0
 85167  1  0
 85168  1  0
 85169  1  0
 86170  1  0
 88171  1  0
 94172  1  0
 94173  1  0
 95174  1  0
 95175  1  0
 95176  1  0
106177  1  0
106178  1  0
107179  1  0
107180  1  0
107181  1  0
114182  1  0
119183  1  0
122184  1  0
125185  1  0
125186  1  0
125187  1  0
128188  1  0
128189  1  0
128190  1  0
129191  1  0
M  END

