
     RDKit          3D

 92103  0  0  0  0  0  0  0  0999 V2000
    8.2624    3.2027    2.4436 C   0  0  0  0  0  0  0  0  0  0  0  0
    7.1158    3.2571    1.7211 N   0  0  0  0  0  0  0  0  0  0  0  0
    6.1889    2.4903    2.3503 C   0  0  0  0  0  0  0  0  0  0  0  0
    6.7687    1.9374    3.4697 C   0  0  0  0  0  0  0  0  0  0  0  0
    8.0491    2.3888    3.5307 C   0  0  0  0  0  0  0  0  0  0  0  0
    8.8860    2.0342    4.5342 N   0  0  0  0  0  0  0  0  0  0  0  0
    8.4061    1.2025    5.5083 C   0  0  0  0  0  0  0  0  0  0  0  0
    7.0690    0.7359    5.4484 C   0  0  0  0  0  0  0  0  0  0  0  0
    6.2563    1.1144    4.4153 N   0  0  0  0  0  0  0  0  0  0  0  0
    4.8262    2.2388    1.8516 C   0  0  0  0  0  0  0  0  0  0  0  0
    4.0681    0.7334    1.8777 S   0  0  0  0  0  0  0  0  0  0  0  0
    2.6643    1.1989    1.0736 C   0  0  0  0  0  0  0  0  0  0  0  0
    2.7553    2.5664    0.8025 C   0  0  0  0  0  0  0  0  0  0  0  0
    3.9643    3.1446    1.2257 C   0  0  0  0  0  0  0  0  0  0  0  0
    4.1888    4.5151    1.0520 C   0  0  0  0  0  0  0  0  0  0  0  0
    3.2086    5.3082    0.4175 C   0  0  0  0  0  0  0  0  0  0  0  0
    3.4004    6.6797    0.1873 O   0  0  0  0  0  0  0  0  0  0  0  0
    4.5883    7.3942    0.5131 C   0  0  0  0  0  0  0  0  0  0  0  0
    1.9951    4.7283   -0.0016 C   0  0  0  0  0  0  0  0  0  0  0  0
    1.0466    5.5534   -0.6274 O   0  0  0  0  0  0  0  0  0  0  0  0
   -0.1968    5.0983   -1.1524 C   0  0  0  0  0  0  0  0  0  0  0  0
    1.7602    3.3546    0.2138 C   0  0  0  0  0  0  0  0  0  0  0  0
    1.5872    0.2731    0.6867 C   0  0  0  0  0  0  0  0  0  0  0  0
    0.8798   -0.8491    1.7219 S   0  0  0  0  0  0  0  0  0  0  0  0
   -0.1708   -1.5381    0.5975 C   0  0  0  0  0  0  0  0  0  0  0  0
    0.0535   -0.9138   -0.6356 C   0  0  0  0  0  0  0  0  0  0  0  0
    1.0338    0.0935   -0.5841 C   0  0  0  0  0  0  0  0  0  0  0  0
    1.4283    0.7564   -1.7512 C   0  0  0  0  0  0  0  0  0  0  0  0
    0.7941    0.4584   -2.9738 C   0  0  0  0  0  0  0  0  0  0  0  0
    1.1152    1.1390   -4.1593 O   0  0  0  0  0  0  0  0  0  0  0  0
    2.0462    2.2135   -4.2458 C   0  0  0  0  0  0  0  0  0  0  0  0
   -0.1882   -0.5491   -3.0280 C   0  0  0  0  0  0  0  0  0  0  0  0
   -0.7871   -0.8254   -4.2676 O   0  0  0  0  0  0  0  0  0  0  0  0
   -1.8290   -1.7762   -4.4671 C   0  0  0  0  0  0  0  0  0  0  0  0
   -0.5387   -1.2558   -1.8582 C   0  0  0  0  0  0  0  0  0  0  0  0
   -1.1237   -2.6230    0.9000 C   0  0  0  0  0  0  0  0  0  0  0  0
   -2.3529   -2.7560    0.3422 N   0  0  0  0  0  0  0  0  0  0  0  0
   -2.9159   -3.8966    0.8221 C   0  0  0  0  0  0  0  0  0  0  0  0
   -2.0292   -4.4660    1.7220 C   0  0  0  0  0  0  0  0  0  0  0  0
   -0.9256   -3.6683    1.7728 C   0  0  0  0  0  0  0  0  0  0  0  0
    0.1445   -3.9748    2.5444 N   0  0  0  0  0  0  0  0  0  0  0  0
    0.0926   -5.1144    3.2975 C   0  0  0  0  0  0  0  0  0  0  0  0
   -1.0529   -5.9442    3.2483 C   0  0  0  0  0  0  0  0  0  0  0  0
   -2.1079   -5.6071    2.4472 N   0  0  0  0  0  0  0  0  0  0  0  0
   -4.2270   -4.4134    0.3591 C   0  0  0  0  0  0  0  0  0  0  0  0
   -4.9187   -3.8702   -0.6767 N   0  0  0  0  0  0  0  0  0  0  0  0
   -6.0442   -4.6042   -0.8722 C   0  0  0  0  0  0  0  0  0  0  0  0
   -6.0626   -5.6214    0.0613 C   0  0  0  0  0  0  0  0  0  0  0  0
   -4.9395   -5.5051    0.8243 C   0  0  0  0  0  0  0  0  0  0  0  0
   -4.6738   -6.3780    1.8259 N   0  0  0  0  0  0  0  0  0  0  0  0
   -5.5563   -7.3954    2.0585 C   0  0  0  0  0  0  0  0  0  0  0  0
   -6.7160   -7.5207    1.2593 C   0  0  0  0  0  0  0  0  0  0  0  0
   -6.9541   -6.6233    0.2567 N   0  0  0  0  0  0  0  0  0  0  0  0
   -7.0472   -4.3387   -1.9305 C   0  0  0  0  0  0  0  0  0  0  0  0
   -8.2348   -4.9891   -2.0595 N   0  0  0  0  0  0  0  0  0  0  0  0
   -8.8779   -4.4858   -3.1416 C   0  0  0  0  0  0  0  0  0  0  0  0
   -8.0868   -3.5119   -3.6985 C   0  0  0  0  0  0  0  0  0  0  0  0
   -6.9521   -3.4155   -2.9555 C   0  0  0  0  0  0  0  0  0  0  0  0
   -5.9690   -2.5376   -3.2749 N   0  0  0  0  0  0  0  0  0  0  0  0
   -6.1487   -1.7303   -4.3630 C   0  0  0  0  0  0  0  0  0  0  0  0
   -7.3342   -1.8307   -5.1319 C   0  0  0  0  0  0  0  0  0  0  0  0
   -8.2984   -2.7360   -4.7881 N   0  0  0  0  0  0  0  0  0  0  0  0
    9.1824    3.7091    2.1834 H   0  0  0  0  0  0  0  0  0  0  0  0
    6.9936    3.7641    0.8165 H   0  0  0  0  0  0  0  0  0  0  0  0
    9.0502    0.9033    6.3246 H   0  0  0  0  0  0  0  0  0  0  0  0
    6.6885    0.0795    6.2181 H   0  0  0  0  0  0  0  0  0  0  0  0
    5.0969    4.9651    1.4229 H   0  0  0  0  0  0  0  0  0  0  0  0
    4.7621    7.3664    1.6096 H   0  0  0  0  0  0  0  0  0  0  0  0
    5.4567    6.9556   -0.0229 H   0  0  0  0  0  0  0  0  0  0  0  0
    4.4712    8.4517    0.1973 H   0  0  0  0  0  0  0  0  0  0  0  0
   -0.0219    4.3256   -1.9314 H   0  0  0  0  0  0  0  0  0  0  0  0
   -0.7303    5.9544   -1.6144 H   0  0  0  0  0  0  0  0  0  0  0  0
   -0.8275    4.6837   -0.3371 H   0  0  0  0  0  0  0  0  0  0  0  0
    0.8181    2.9069   -0.0678 H   0  0  0  0  0  0  0  0  0  0  0  0
    2.2221    1.4860   -1.7137 H   0  0  0  0  0  0  0  0  0  0  0  0
    2.0795    2.5810   -5.2915 H   0  0  0  0  0  0  0  0  0  0  0  0
    1.7293    3.0490   -3.5864 H   0  0  0  0  0  0  0  0  0  0  0  0
    3.0606    1.8635   -3.9607 H   0  0  0  0  0  0  0  0  0  0  0  0
   -2.7094   -1.5193   -3.8400 H   0  0  0  0  0  0  0  0  0  0  0  0
   -2.1362   -1.7594   -5.5325 H   0  0  0  0  0  0  0  0  0  0  0  0
   -1.4678   -2.7969   -4.2207 H   0  0  0  0  0  0  0  0  0  0  0  0
   -1.2355   -2.0766   -1.9142 H   0  0  0  0  0  0  0  0  0  0  0  0
   -2.8001   -2.0781   -0.3132 H   0  0  0  0  0  0  0  0  0  0  0  0
    0.9281   -5.3808    3.9287 H   0  0  0  0  0  0  0  0  0  0  0  0
   -1.0956   -6.8461    3.8430 H   0  0  0  0  0  0  0  0  0  0  0  0
   -4.6265   -3.0393   -1.2329 H   0  0  0  0  0  0  0  0  0  0  0  0
   -5.3615   -8.1062    2.8495 H   0  0  0  0  0  0  0  0  0  0  0  0
   -7.4131   -8.3282    1.4363 H   0  0  0  0  0  0  0  0  0  0  0  0
   -8.6121   -5.7391   -1.4409 H   0  0  0  0  0  0  0  0  0  0  0  0
   -9.8486   -4.8107   -3.4922 H   0  0  0  0  0  0  0  0  0  0  0  0
   -5.3800   -1.0186   -4.6376 H   0  0  0  0  0  0  0  0  0  0  0  0
   -7.4764   -1.1959   -5.9961 H   0  0  0  0  0  0  0  0  0  0  0  0
  1  2  1  0
  2  3  1  0
  3  4  2  0
  4  5  1  0
  5  6  1  0
  6  7  2  0
  7  8  1  0
  8  9  2  0
  3 10  1  0
 10 11  1  0
 11 12  1  0
 12 13  2  0
 13 14  1  0
 14 15  1  0
 15 16  2  0
 16 17  1  0
 17 18  1  0
 16 19  1  0
 19 20  1  0
 20 21  1  0
 19 22  2  0
 12 23  1  0
 23 24  1  0
 24 25  1  0
 25 26  2  0
 26 27  1  0
 27 28  1  0
 28 29  2  0
 29 30  1  0
 30 31  1  0
 29 32  1  0
 32 33  1  0
 33 34  1  0
 32 35  2  0
 25 36  1  0
 36 37  1  0
 37 38  1  0
 38 39  2  0
 39 40  1  0
 40 41  1  0
 41 42  2  0
 42 43  1  0
 43 44  2  0
 38 45  1  0
 45 46  1  0
 46 47  1  0
 47 48  2  0
 48 49  1  0
 49 50  1  0
 50 51  2  0
 51 52  1  0
 52 53  2  0
 47 54  1  0
 54 55  1  0
 55 56  1  0
 56 57  2  0
 57 58  1  0
 58 59  1  0
 59 60  2  0
 60 61  1  0
 61 62  2  0
  5  1  2  0
 14 10  2  0
 27 23  2  0
 40 36  2  0
 49 45  2  0
 58 54  2  0
  9  4  1  0
 22 13  1  0
 35 26  1  0
 44 39  1  0
 53 48  1  0
 62 57  1  0
  1 63  1  0
  2 64  1  0
  7 65  1  0
  8 66  1  0
 15 67  1  0
 18 68  1  0
 18 69  1  0
 18 70  1  0
 21 71  1  0
 21 72  1  0
 21 73  1  0
 22 74  1  0
 28 75  1  0
 31 76  1  0
 31 77  1  0
 31 78  1  0
 34 79  1  0
 34 80  1  0
 34 81  1  0
 35 82  1  0
 37 83  1  0
 42 84  1  0
 43 85  1  0
 46 86  1  0
 51 87  1  0
 52 88  1  0
 55 89  1  0
 56 90  1  0
 60 91  1  0
 61 92  1  0
M  END

