
     RDKit          3D

191211  0  0  0  0  0  0  0  0999 V2000
    7.0748   -7.2866    8.4080 C   0  0  0  0  0  0  0  0  0  0  0  0
    6.8963   -6.0632    7.7699 C   0  0  0  0  0  0  0  0  0  0  0  0
    5.5454   -5.7375    7.5678 C   0  0  0  0  0  0  0  0  0  0  0  0
    5.0489   -4.5884    6.9193 C   0  0  0  0  0  0  0  0  0  0  0  0
    5.9427   -3.5501    6.3781 C   0  0  0  0  0  0  0  0  0  0  0  0
    6.9211   -2.5429    7.3045 S   0  0  0  0  0  0  0  0  0  0  0  0
    7.5641   -1.6801    6.0109 C   0  0  0  0  0  0  0  0  0  0  0  0
    8.6261   -0.6292    6.1357 C   0  0  0  0  0  0  0  0  0  0  0  0
   10.0141   -1.2514    6.0354 C   0  0  0  0  0  0  0  0  0  0  0  0
    7.0376   -2.1925    4.8262 C   0  0  0  0  0  0  0  0  0  0  0  0
    7.4982   -1.6134    3.2307 Cl  0  0  0  0  0  0  0  0  0  0  0  0
    6.1216   -3.2351    5.0320 C   0  0  0  0  0  0  0  0  0  0  0  0
    5.3423   -4.1068    3.7185 Cl  0  0  0  0  0  0  0  0  0  0  0  0
    3.6548   -4.4850    6.7890 C   0  0  0  0  0  0  0  0  0  0  0  0
    2.7763   -5.4688    7.2523 C   0  0  0  0  0  0  0  0  0  0  0  0
    3.2729   -6.6177    7.9022 C   0  0  0  0  0  0  0  0  0  0  0  0
    2.3786   -7.6840    8.3849 C   0  0  0  0  0  0  0  0  0  0  0  0
    1.4148   -8.6449    7.3950 S   0  0  0  0  0  0  0  0  0  0  0  0
    0.7274   -9.5459    8.6372 C   0  0  0  0  0  0  0  0  0  0  0  0
   -0.3451  -10.5744    8.4409 C   0  0  0  0  0  0  0  0  0  0  0  0
   -1.7273   -9.9352    8.5209 C   0  0  0  0  0  0  0  0  0  0  0  0
    1.2282   -9.0863    9.8547 C   0  0  0  0  0  0  0  0  0  0  0  0
    2.1600   -8.0450    9.7123 C   0  0  0  0  0  0  0  0  0  0  0  0
    2.9066   -7.2243   11.0750 Cl  0  0  0  0  0  0  0  0  0  0  0  0
    0.7177   -9.7181   11.4135 Cl  0  0  0  0  0  0  0  0  0  0  0  0
    4.6680   -6.7133    8.0471 C   0  0  0  0  0  0  0  0  0  0  0  0
    5.5648   -7.9707    8.7159 S   0  0  0  0  0  0  0  0  0  0  0  0
    1.4268   -5.1714    6.9934 C   0  0  0  0  0  0  0  0  0  0  0  0
    1.2559   -3.9467    6.3517 C   0  0  0  0  0  0  0  0  0  0  0  0
    2.7676   -3.2457    6.0805 S   0  0  0  0  0  0  0  0  0  0  0  0
   -0.0094   -3.4513    5.7948 C   0  0  0  0  0  0  0  0  0  0  0  0
   -1.0397   -4.3933    4.8552 S   0  0  0  0  0  0  0  0  0  0  0  0
   -2.0478   -3.1532    4.3304 C   0  0  0  0  0  0  0  0  0  0  0  0
   -1.5595   -1.9589    4.8628 C   0  0  0  0  0  0  0  0  0  0  0  0
   -0.4283   -2.1247    5.6809 C   0  0  0  0  0  0  0  0  0  0  0  0
    0.1956   -1.0144    6.2579 C   0  0  0  0  0  0  0  0  0  0  0  0
   -0.2893    0.2791    5.9802 C   0  0  0  0  0  0  0  0  0  0  0  0
    0.3208    1.4274    6.5121 O   0  0  0  0  0  0  0  0  0  0  0  0
    1.5023    1.4155    7.3088 C   0  0  0  0  0  0  0  0  0  0  0  0
   -1.4104    0.4481    5.1418 C   0  0  0  0  0  0  0  0  0  0  0  0
   -1.8509    1.7559    4.8823 O   0  0  0  0  0  0  0  0  0  0  0  0
   -2.9447    2.0867    4.0322 C   0  0  0  0  0  0  0  0  0  0  0  0
   -2.0458   -0.6792    4.5768 C   0  0  0  0  0  0  0  0  0  0  0  0
   -2.9194   -3.2740    3.1571 C   0  0  0  0  0  0  0  0  0  0  0  0
   -2.3516   -3.6692    1.6369 S   0  0  0  0  0  0  0  0  0  0  0  0
   -3.8030   -3.4958    0.7972 C   0  0  0  0  0  0  0  0  0  0  0  0
   -4.7857   -3.1473    1.7391 C   0  0  0  0  0  0  0  0  0  0  0  0
   -4.2796   -2.9934    3.0464 C   0  0  0  0  0  0  0  0  0  0  0  0
   -5.1137   -2.6062    4.0955 C   0  0  0  0  0  0  0  0  0  0  0  0
   -6.4878   -2.4037    3.8517 C   0  0  0  0  0  0  0  0  0  0  0  0
   -7.3698   -2.0024    4.8685 O   0  0  0  0  0  0  0  0  0  0  0  0
   -6.9766   -1.6891    6.2009 C   0  0  0  0  0  0  0  0  0  0  0  0
   -7.0121   -2.6213    2.5606 C   0  0  0  0  0  0  0  0  0  0  0  0
   -8.3955   -2.4640    2.3748 O   0  0  0  0  0  0  0  0  0  0  0  0
   -9.0761   -2.6850    1.1440 C   0  0  0  0  0  0  0  0  0  0  0  0
   -6.1558   -2.9975    1.5021 C   0  0  0  0  0  0  0  0  0  0  0  0
   -3.8439   -3.4655   -0.6825 C   0  0  0  0  0  0  0  0  0  0  0  0
   -4.7059   -2.7107   -1.4892 C   0  0  0  0  0  0  0  0  0  0  0  0
   -4.2331   -2.5484   -2.8064 C   0  0  0  0  0  0  0  0  0  0  0  0
   -4.7853   -1.6957   -3.7817 C   0  0  0  0  0  0  0  0  0  0  0  0
   -6.0632   -0.9969   -3.5658 C   0  0  0  0  0  0  0  0  0  0  0  0
   -7.5783   -1.7098   -3.7063 S   0  0  0  0  0  0  0  0  0  0  0  0
   -8.4604   -0.3018   -3.4421 C   0  0  0  0  0  0  0  0  0  0  0  0
   -9.9564   -0.2289   -3.3874 C   0  0  0  0  0  0  0  0  0  0  0  0
  -10.4573   -0.4439   -1.9632 C   0  0  0  0  0  0  0  0  0  0  0  0
   -7.5709    0.7483   -3.2142 C   0  0  0  0  0  0  0  0  0  0  0  0
   -8.0781    2.3913   -2.8487 Cl  0  0  0  0  0  0  0  0  0  0  0  0
   -6.2262    0.3593   -3.2899 C   0  0  0  0  0  0  0  0  0  0  0  0
   -4.8821    1.4649   -3.0309 Cl  0  0  0  0  0  0  0  0  0  0  0  0
   -4.0035   -1.4348   -4.9208 C   0  0  0  0  0  0  0  0  0  0  0  0
   -2.7328   -1.9834   -5.1017 C   0  0  0  0  0  0  0  0  0  0  0  0
   -2.2029   -2.8818   -4.1566 C   0  0  0  0  0  0  0  0  0  0  0  0
   -0.7850   -3.2835   -4.1846 C   0  0  0  0  0  0  0  0  0  0  0  0
    0.4926   -2.2347   -3.8780 S   0  0  0  0  0  0  0  0  0  0  0  0
    1.6949   -3.4091   -3.8652 C   0  0  0  0  0  0  0  0  0  0  0  0
    3.1298   -3.1456   -3.5297 C   0  0  0  0  0  0  0  0  0  0  0  0
    3.4059   -3.4338   -2.0581 C   0  0  0  0  0  0  0  0  0  0  0  0
    1.1032   -4.6547   -4.0798 C   0  0  0  0  0  0  0  0  0  0  0  0
   -0.2895   -4.5836   -4.2511 C   0  0  0  0  0  0  0  0  0  0  0  0
   -1.3076   -5.9930   -4.4989 Cl  0  0  0  0  0  0  0  0  0  0  0  0
    2.0041   -6.1629   -4.0976 Cl  0  0  0  0  0  0  0  0  0  0  0  0
   -2.9943   -3.1571   -3.0291 C   0  0  0  0  0  0  0  0  0  0  0  0
   -2.5097   -3.9155   -1.6165 S   0  0  0  0  0  0  0  0  0  0  0  0
   -2.0324   -1.4170   -6.1779 C   0  0  0  0  0  0  0  0  0  0  0  0
   -2.7291   -0.3825   -6.8108 C   0  0  0  0  0  0  0  0  0  0  0  0
   -4.2469   -0.2415   -6.0802 S   0  0  0  0  0  0  0  0  0  0  0  0
   -2.0813    0.7268   -7.5349 C   0  0  0  0  0  0  0  0  0  0  0  0
   -0.6995    0.8421   -7.7093 C   0  0  0  0  0  0  0  0  0  0  0  0
   -0.2632    2.1706   -7.8286 C   0  0  0  0  0  0  0  0  0  0  0  0
    1.0741    2.6107   -7.7656 C   0  0  0  0  0  0  0  0  0  0  0  0
    2.2109    1.6723   -7.7139 C   0  0  0  0  0  0  0  0  0  0  0  0
    2.4953    0.5454   -6.4939 S   0  0  0  0  0  0  0  0  0  0  0  0
    3.8793   -0.1194   -7.1835 C   0  0  0  0  0  0  0  0  0  0  0  0
    4.5933   -1.3282   -6.6556 C   0  0  0  0  0  0  0  0  0  0  0  0
    3.8942   -2.6070   -7.1079 C   0  0  0  0  0  0  0  0  0  0  0  0
    4.1293    0.5273   -8.3944 C   0  0  0  0  0  0  0  0  0  0  0  0
    5.4415    0.0887   -9.4783 Cl  0  0  0  0  0  0  0  0  0  0  0  0
    3.2018    1.5408   -8.6831 C   0  0  0  0  0  0  0  0  0  0  0  0
    3.2396    2.4955  -10.1595 Cl  0  0  0  0  0  0  0  0  0  0  0  0
    1.2774    3.9933   -7.6307 C   0  0  0  0  0  0  0  0  0  0  0  0
    0.2236    4.9147   -7.6069 C   0  0  0  0  0  0  0  0  0  0  0  0
   -1.1065    4.4782   -7.7660 C   0  0  0  0  0  0  0  0  0  0  0  0
   -2.2477    5.4098   -7.7505 C   0  0  0  0  0  0  0  0  0  0  0  0
   -2.7599    6.2995   -6.4161 S   0  0  0  0  0  0  0  0  0  0  0  0
   -4.0605    7.0391   -7.1873 C   0  0  0  0  0  0  0  0  0  0  0  0
   -4.9355    8.0859   -6.5618 C   0  0  0  0  0  0  0  0  0  0  0  0
   -4.3077    9.4671   -6.7103 C   0  0  0  0  0  0  0  0  0  0  0  0
   -4.0980    6.6093   -8.5140 C   0  0  0  0  0  0  0  0  0  0  0  0
   -3.0885    5.6858   -8.8244 C   0  0  0  0  0  0  0  0  0  0  0  0
   -2.8631    4.9996  -10.4267 Cl  0  0  0  0  0  0  0  0  0  0  0  0
   -5.2748    7.1817   -9.6876 Cl  0  0  0  0  0  0  0  0  0  0  0  0
   -1.3131    3.0919   -7.8487 C   0  0  0  0  0  0  0  0  0  0  0  0
   -2.7628    2.2695   -7.6507 S   0  0  0  0  0  0  0  0  0  0  0  0
    0.6351    6.2133   -7.2672 C   0  0  0  0  0  0  0  0  0  0  0  0
    1.9917    6.2869   -6.9680 C   0  0  0  0  0  0  0  0  0  0  0  0
    2.7000    4.7733   -7.1986 S   0  0  0  0  0  0  0  0  0  0  0  0
    2.5987    7.3650   -6.1804 C   0  0  0  0  0  0  0  0  0  0  0  0
    2.7000    8.9787   -6.6434 S   0  0  0  0  0  0  0  0  0  0  0  0
    3.3998    9.5597   -5.2212 C   0  0  0  0  0  0  0  0  0  0  0  0
    3.5371    8.4835   -4.3531 C   0  0  0  0  0  0  0  0  0  0  0  0
    3.0807    7.2650   -4.8759 C   0  0  0  0  0  0  0  0  0  0  0  0
    3.0839    6.1098   -4.0842 C   0  0  0  0  0  0  0  0  0  0  0  0
    3.6030    6.1649   -2.7756 C   0  0  0  0  0  0  0  0  0  0  0  0
    3.6502    5.0303   -1.9488 O   0  0  0  0  0  0  0  0  0  0  0  0
    3.1982    3.7309   -2.3277 C   0  0  0  0  0  0  0  0  0  0  0  0
    4.0958    7.3816   -2.2616 C   0  0  0  0  0  0  0  0  0  0  0  0
    4.6213    7.3817   -0.9588 O   0  0  0  0  0  0  0  0  0  0  0  0
    5.1280    8.5330   -0.2929 C   0  0  0  0  0  0  0  0  0  0  0  0
    4.0438    8.5538   -3.0530 C   0  0  0  0  0  0  0  0  0  0  0  0
    8.0313   -7.7293    8.6525 H   0  0  0  0  0  0  0  0  0  0  0  0
    7.7261   -5.4434    7.4508 H   0  0  0  0  0  0  0  0  0  0  0  0
    8.5039    0.1324    5.3353 H   0  0  0  0  0  0  0  0  0  0  0  0
    8.5259   -0.1156    7.1150 H   0  0  0  0  0  0  0  0  0  0  0  0
   10.7855   -0.4597    6.1448 H   0  0  0  0  0  0  0  0  0  0  0  0
   10.1465   -1.7427    5.0479 H   0  0  0  0  0  0  0  0  0  0  0  0
   10.1581   -2.0037    6.8406 H   0  0  0  0  0  0  0  0  0  0  0  0
   -0.2182  -11.0476    7.4430 H   0  0  0  0  0  0  0  0  0  0  0  0
   -0.2559  -11.3701    9.2107 H   0  0  0  0  0  0  0  0  0  0  0  0
   -2.5039  -10.7079    8.3387 H   0  0  0  0  0  0  0  0  0  0  0  0
   -1.8304   -9.1420    7.7497 H   0  0  0  0  0  0  0  0  0  0  0  0
   -1.8947   -9.4922    9.5247 H   0  0  0  0  0  0  0  0  0  0  0  0
    0.6008   -5.8181    7.2553 H   0  0  0  0  0  0  0  0  0  0  0  0
    1.0461   -1.1559    6.9078 H   0  0  0  0  0  0  0  0  0  0  0  0
    2.3407    0.9582    6.7414 H   0  0  0  0  0  0  0  0  0  0  0  0
    1.3243    0.8519    8.2486 H   0  0  0  0  0  0  0  0  0  0  0  0
    1.7777    2.4589    7.5663 H   0  0  0  0  0  0  0  0  0  0  0  0
   -2.7446    1.7352    2.9992 H   0  0  0  0  0  0  0  0  0  0  0  0
   -3.0674    3.1882    4.0147 H   0  0  0  0  0  0  0  0  0  0  0  0
   -3.8813    1.6309    4.4187 H   0  0  0  0  0  0  0  0  0  0  0  0
   -2.8985   -0.5620    3.9226 H   0  0  0  0  0  0  0  0  0  0  0  0
   -4.6983   -2.4724    5.0858 H   0  0  0  0  0  0  0  0  0  0  0  0
   -6.5257   -2.5789    6.6874 H   0  0  0  0  0  0  0  0  0  0  0  0
   -6.2530   -0.8474    6.1958 H   0  0  0  0  0  0  0  0  0  0  0  0
   -7.8718   -1.3843    6.7794 H   0  0  0  0  0  0  0  0  0  0  0  0
  -10.1578   -2.4863    1.2870 H   0  0  0  0  0  0  0  0  0  0  0  0
   -8.6889   -1.9964    0.3618 H   0  0  0  0  0  0  0  0  0  0  0  0
   -8.9502   -3.7407    0.8187 H   0  0  0  0  0  0  0  0  0  0  0  0
   -6.5644   -3.2171    0.5304 H   0  0  0  0  0  0  0  0  0  0  0  0
   -5.5590   -2.1650   -1.1151 H   0  0  0  0  0  0  0  0  0  0  0  0
  -10.3898   -1.0115   -4.0478 H   0  0  0  0  0  0  0  0  0  0  0  0
  -10.2991    0.7602   -3.7589 H   0  0  0  0  0  0  0  0  0  0  0  0
   -9.9695    0.2680   -1.2614 H   0  0  0  0  0  0  0  0  0  0  0  0
  -10.2419   -1.4857   -1.6416 H   0  0  0  0  0  0  0  0  0  0  0  0
  -11.5548   -0.2827   -1.9293 H   0  0  0  0  0  0  0  0  0  0  0  0
    3.3616   -2.0797   -3.7358 H   0  0  0  0  0  0  0  0  0  0  0  0
    3.7906   -3.7752   -4.1639 H   0  0  0  0  0  0  0  0  0  0  0  0
    2.7427   -2.8184   -1.4140 H   0  0  0  0  0  0  0  0  0  0  0  0
    3.2397   -4.5090   -1.8345 H   0  0  0  0  0  0  0  0  0  0  0  0
    4.4631   -3.1831   -1.8239 H   0  0  0  0  0  0  0  0  0  0  0  0
   -1.0036   -1.6613   -6.4013 H   0  0  0  0  0  0  0  0  0  0  0  0
   -0.0235    0.0065   -7.6103 H   0  0  0  0  0  0  0  0  0  0  0  0
    4.6078   -1.2919   -5.5469 H   0  0  0  0  0  0  0  0  0  0  0  0
    5.6479   -1.3369   -7.0035 H   0  0  0  0  0  0  0  0  0  0  0  0
    4.4562   -3.4921   -6.7430 H   0  0  0  0  0  0  0  0  0  0  0  0
    2.8632   -2.6480   -6.6956 H   0  0  0  0  0  0  0  0  0  0  0  0
    3.8454   -2.6488   -8.2178 H   0  0  0  0  0  0  0  0  0  0  0  0
   -5.9352    8.0815   -7.0423 H   0  0  0  0  0  0  0  0  0  0  0  0
   -5.0719    7.8542   -5.4837 H   0  0  0  0  0  0  0  0  0  0  0  0
   -4.1435    9.7095   -7.7817 H   0  0  0  0  0  0  0  0  0  0  0  0
   -4.9836   10.2332   -6.2713 H   0  0  0  0  0  0  0  0  0  0  0  0
   -3.3376    9.5050   -6.1725 H   0  0  0  0  0  0  0  0  0  0  0  0
   -0.0426    7.0428   -7.1139 H   0  0  0  0  0  0  0  0  0  0  0  0
    3.6748   10.5855   -5.0196 H   0  0  0  0  0  0  0  0  0  0  0  0
    2.6771    5.1859   -4.4677 H   0  0  0  0  0  0  0  0  0  0  0  0
    3.7422    3.3839   -3.2310 H   0  0  0  0  0  0  0  0  0  0  0  0
    2.1066    3.7488   -2.5291 H   0  0  0  0  0  0  0  0  0  0  0  0
    3.3978    3.0171   -1.5045 H   0  0  0  0  0  0  0  0  0  0  0  0
    5.9388    9.0028   -0.8902 H   0  0  0  0  0  0  0  0  0  0  0  0
    4.3091    9.2624   -0.1138 H   0  0  0  0  0  0  0  0  0  0  0  0
    5.5495    8.2250    0.6853 H   0  0  0  0  0  0  0  0  0  0  0  0
    4.3959    9.5030   -2.6717 H   0  0  0  0  0  0  0  0  0  0  0  0
  1  2  2  0
  2  3  1  0
  3  4  2  0
  4  5  1  0
  5  6  1  0
  6  7  1  0
  7  8  1  0
  8  9  1  0
  7 10  2  0
 10 11  1  0
 10 12  1  0
 12 13  1  0
  4 14  1  0
 14 15  2  0
 15 16  1  0
 16 17  1  0
 17 18  1  0
 18 19  1  0
 19 20  1  0
 20 21  1  0
 19 22  2  0
 22 23  1  0
 23 24  1  0
 22 25  1  0
 16 26  2  0
 26 27  1  0
 15 28  1  0
 28 29  2  0
 29 30  1  0
 29 31  1  0
 31 32  1  0
 32 33  1  0
 33 34  2  0
 34 35  1  0
 35 36  1  0
 36 37  2  0
 37 38  1  0
 38 39  1  0
 37 40  1  0
 40 41  1  0
 41 42  1  0
 40 43  2  0
 33 44  1  0
 44 45  1  0
 45 46  1  0
 46 47  2  0
 47 48  1  0
 48 49  1  0
 49 50  2  0
 50 51  1  0
 51 52  1  0
 50 53  1  0
 53 54  1  0
 54 55  1  0
 53 56  2  0
 46 57  1  0
 57 58  2  0
 58 59  1  0
 59 60  2  0
 60 61  1  0
 61 62  1  0
 62 63  1  0
 63 64  1  0
 64 65  1  0
 63 66  2  0
 66 67  1  0
 66 68  1  0
 68 69  1  0
 60 70  1  0
 70 71  2  0
 71 72  1  0
 72 73  1  0
 73 74  1  0
 74 75  1  0
 75 76  1  0
 76 77  1  0
 75 78  2  0
 78 79  1  0
 79 80  1  0
 78 81  1  0
 72 82  2  0
 82 83  1  0
 71 84  1  0
 84 85  2  0
 85 86  1  0
 85 87  1  0
 87 88  2  0
 88 89  1  0
 89 90  2  0
 90 91  1  0
 91 92  1  0
 92 93  1  0
 93 94  1  0
 94 95  1  0
 93 96  2  0
 96 97  1  0
 96 98  1  0
 98 99  1  0
 90100  1  0
100101  2  0
101102  1  0
102103  1  0
103104  1  0
104105  1  0
105106  1  0
106107  1  0
105108  2  0
108109  1  0
109110  1  0
108111  1  0
102112  2  0
112113  1  0
101114  1  0
114115  2  0
115116  1  0
115117  1  0
117118  1  0
118119  1  0
119120  2  0
120121  1  0
121122  1  0
122123  2  0
123124  1  0
124125  1  0
123126  1  0
126127  1  0
127128  1  0
126129  2  0
 27  1  1  0
 35 31  2  0
 48 44  2  0
 83 57  1  0
113 87  1  0
121117  2  0
 26  3  1  0
 43 34  1  0
 56 47  1  0
 82 59  1  0
112 89  1  0
129120  1  0
 12  5  2  0
 30 14  1  0
 68 61  2  0
 86 70  1  0
 98 91  2  0
116100  1  0
 23 17  2  0
 79 73  2  0
109103  2  0
  1130  1  0
  2131  1  0
  8132  1  0
  8133  1  0
  9134  1  0
  9135  1  0
  9136  1  0
 20137  1  0
 20138  1  0
 21139  1  0
 21140  1  0
 21141  1  0
 28142  1  0
 36143  1  0
 39144  1  0
 39145  1  0
 39146  1  0
 42147  1  0
 42148  1  0
 42149  1  0
 43150  1  0
 49151  1  0
 52152  1  0
 52153  1  0
 52154  1  0
 55155  1  0
 55156  1  0
 55157  1  0
 56158  1  0
 58159  1  0
 64160  1  0
 64161  1  0
 65162  1  0
 65163  1  0
 65164  1  0
 76165  1  0
 76166  1  0
 77167  1  0
 77168  1  0
 77169  1  0
 84170  1  0
 88171  1  0
 94172  1  0
 94173  1  0
 95174  1  0
 95175  1  0
 95176  1  0
106177  1  0
106178  1  0
107179  1  0
107180  1  0
107181  1  0
114182  1  0
119183  1  0
122184  1  0
125185  1  0
125186  1  0
125187  1  0
128188  1  0
128189  1  0
128190  1  0
129191  1  0
M  END

