
     RDKit          3D

244267  0  0  0  0  0  0  0  0999 V2000
    2.9766   -2.2148    8.6785 C   0  0  0  0  0  0  0  0  0  0  0  0
    1.4383   -2.6790    8.2001 S   0  0  0  0  0  0  0  0  0  0  0  0
    1.1542   -1.4198    7.1063 C   0  0  0  0  0  0  0  0  0  0  0  0
    2.2823   -0.5955    7.1190 C   0  0  0  0  0  0  0  0  0  0  0  0
    3.2962   -1.0560    7.9780 C   0  0  0  0  0  0  0  0  0  0  0  0
    4.5166   -0.3870    8.0637 C   0  0  0  0  0  0  0  0  0  0  0  0
    4.7217    0.7846    7.3014 C   0  0  0  0  0  0  0  0  0  0  0  0
    5.9347    1.4867    7.3303 O   0  0  0  0  0  0  0  0  0  0  0  0
    7.0742    1.0922    8.0855 C   0  0  0  0  0  0  0  0  0  0  0  0
    3.6885    1.2812    6.4767 C   0  0  0  0  0  0  0  0  0  0  0  0
    3.9200    2.4656    5.7506 O   0  0  0  0  0  0  0  0  0  0  0  0
    2.9912    3.0621    4.8452 C   0  0  0  0  0  0  0  0  0  0  0  0
    2.4593    0.5914    6.4034 C   0  0  0  0  0  0  0  0  0  0  0  0
    0.0245   -1.4017    6.1606 C   0  0  0  0  0  0  0  0  0  0  0  0
   -1.2122   -2.0136    6.3654 C   0  0  0  0  0  0  0  0  0  0  0  0
   -2.0368   -1.9622    5.2310 C   0  0  0  0  0  0  0  0  0  0  0  0
   -3.3397   -2.4860    5.1248 C   0  0  0  0  0  0  0  0  0  0  0  0
   -3.9237   -3.2937    6.2065 C   0  0  0  0  0  0  0  0  0  0  0  0
   -4.7930   -2.7277    7.1466 C   0  0  0  0  0  0  0  0  0  0  0  0
   -5.2563   -3.4939    8.2222 C   0  0  0  0  0  0  0  0  0  0  0  0
   -4.8484   -4.8299    8.3624 C   0  0  0  0  0  0  0  0  0  0  0  0
   -5.4474   -5.8055    9.7450 S   0  0  0  0  0  0  0  0  0  0  0  0
   -3.9402   -5.6039   10.7617 C   0  0  0  0  0  0  0  0  0  0  0  0
   -3.8916   -4.2253   11.4143 C   0  0  0  0  0  0  0  0  0  0  0  0
   -3.9930   -5.3994    7.4090 C   0  0  0  0  0  0  0  0  0  0  0  0
   -3.5941   -6.6917    7.5304 F   0  0  0  0  0  0  0  0  0  0  0  0
   -3.5232   -4.6305    6.3460 C   0  0  0  0  0  0  0  0  0  0  0  0
   -3.9948   -2.3278    3.8937 C   0  0  0  0  0  0  0  0  0  0  0  0
   -3.3756   -1.7336    2.7906 C   0  0  0  0  0  0  0  0  0  0  0  0
   -2.0651   -1.2093    2.8876 C   0  0  0  0  0  0  0  0  0  0  0  0
   -1.3694   -0.6147    1.7124 C   0  0  0  0  0  0  0  0  0  0  0  0
   -1.9855    0.3670    0.9226 C   0  0  0  0  0  0  0  0  0  0  0  0
   -1.4481    0.7044   -0.3189 C   0  0  0  0  0  0  0  0  0  0  0  0
   -0.2447    0.1334   -0.7390 C   0  0  0  0  0  0  0  0  0  0  0  0
    0.3146    0.4017   -2.4288 S   0  0  0  0  0  0  0  0  0  0  0  0
   -0.0024   -1.3056   -3.0334 C   0  0  0  0  0  0  0  0  0  0  0  0
   -1.3493   -1.8847   -2.5814 C   0  0  0  0  0  0  0  0  0  0  0  0
    0.4636   -0.7109    0.1227 C   0  0  0  0  0  0  0  0  0  0  0  0
   -0.1175   -1.1172    1.3221 C   0  0  0  0  0  0  0  0  0  0  0  0
    1.6618   -1.2161   -0.2427 F   0  0  0  0  0  0  0  0  0  0  0  0
   -1.4352   -1.3362    4.1374 C   0  0  0  0  0  0  0  0  0  0  0  0
    0.1059   -0.8415    4.5759 S   0  0  0  0  0  0  0  0  0  0  0  0
   -4.1882   -1.7326    1.6487 C   0  0  0  0  0  0  0  0  0  0  0  0
   -5.4637   -2.2244    1.8724 C   0  0  0  0  0  0  0  0  0  0  0  0
   -5.5808   -2.7540    3.4793 S   0  0  0  0  0  0  0  0  0  0  0  0
   -6.5666   -1.9272    0.9552 C   0  0  0  0  0  0  0  0  0  0  0  0
   -6.7065   -0.3875    0.3067 S   0  0  0  0  0  0  0  0  0  0  0  0
   -7.3976   -0.7810   -1.1709 C   0  0  0  0  0  0  0  0  0  0  0  0
   -7.5669   -2.1669   -1.1699 C   0  0  0  0  0  0  0  0  0  0  0  0
   -7.0958   -2.8039    0.0042 C   0  0  0  0  0  0  0  0  0  0  0  0
   -7.1191   -4.1986    0.1081 C   0  0  0  0  0  0  0  0  0  0  0  0
   -7.6738   -4.9607   -0.9446 C   0  0  0  0  0  0  0  0  0  0  0  0
   -7.7771   -6.3589   -0.8762 O   0  0  0  0  0  0  0  0  0  0  0  0
   -7.3925   -7.1370    0.2451 C   0  0  0  0  0  0  0  0  0  0  0  0
   -8.1503   -4.3239   -2.1069 C   0  0  0  0  0  0  0  0  0  0  0  0
   -8.6996   -5.1243   -3.1230 O   0  0  0  0  0  0  0  0  0  0  0  0
   -9.2705   -4.6232   -4.3296 C   0  0  0  0  0  0  0  0  0  0  0  0
   -8.0846   -2.9214   -2.2232 C   0  0  0  0  0  0  0  0  0  0  0  0
   -7.1659    0.0861   -2.3432 C   0  0  0  0  0  0  0  0  0  0  0  0
   -6.3618   -0.3153   -3.4212 C   0  0  0  0  0  0  0  0  0  0  0  0
   -5.6590    0.7389   -4.0300 C   0  0  0  0  0  0  0  0  0  0  0  0
   -4.5988    0.6079   -4.9633 C   0  0  0  0  0  0  0  0  0  0  0  0
   -4.2799   -0.7111   -5.5766 C   0  0  0  0  0  0  0  0  0  0  0  0
   -3.0034   -1.2677   -5.4497 C   0  0  0  0  0  0  0  0  0  0  0  0
   -2.7339   -2.5583   -5.9014 C   0  0  0  0  0  0  0  0  0  0  0  0
   -3.7303   -3.3030   -6.5399 C   0  0  0  0  0  0  0  0  0  0  0  0
   -3.3915   -4.9842   -7.0798 S   0  0  0  0  0  0  0  0  0  0  0  0
   -2.6545   -4.5193   -8.6849 C   0  0  0  0  0  0  0  0  0  0  0  0
   -1.1551   -4.2848   -8.5385 C   0  0  0  0  0  0  0  0  0  0  0  0
   -5.0106   -2.7469   -6.6991 C   0  0  0  0  0  0  0  0  0  0  0  0
   -6.0034   -3.4698   -7.2749 F   0  0  0  0  0  0  0  0  0  0  0  0
   -5.2843   -1.4584   -6.2186 C   0  0  0  0  0  0  0  0  0  0  0  0
   -3.7776    1.7470   -5.1456 C   0  0  0  0  0  0  0  0  0  0  0  0
   -3.9906    2.9544   -4.4615 C   0  0  0  0  0  0  0  0  0  0  0  0
   -5.1196    3.1128   -3.6312 C   0  0  0  0  0  0  0  0  0  0  0  0
   -5.3785    4.3496   -2.8788 C   0  0  0  0  0  0  0  0  0  0  0  0
   -6.4630    5.1636   -3.2284 C   0  0  0  0  0  0  0  0  0  0  0  0
   -6.7769    6.2860   -2.4615 C   0  0  0  0  0  0  0  0  0  0  0  0
   -6.0196    6.5982   -1.3267 C   0  0  0  0  0  0  0  0  0  0  0  0
   -6.4221    8.0722   -0.3767 S   0  0  0  0  0  0  0  0  0  0  0  0
   -7.6333    7.2274    0.6973 C   0  0  0  0  0  0  0  0  0  0  0  0
   -8.2483    8.2286    1.6663 C   0  0  0  0  0  0  0  0  0  0  0  0
   -4.9325    5.7865   -0.9701 C   0  0  0  0  0  0  0  0  0  0  0  0
   -4.6146    4.6641   -1.7411 C   0  0  0  0  0  0  0  0  0  0  0  0
   -4.1894    6.0725    0.1312 F   0  0  0  0  0  0  0  0  0  0  0  0
   -5.9272    1.9796   -3.4321 C   0  0  0  0  0  0  0  0  0  0  0  0
   -7.0345    1.7579   -2.1919 S   0  0  0  0  0  0  0  0  0  0  0  0
   -2.9147    3.8586   -4.5737 C   0  0  0  0  0  0  0  0  0  0  0  0
   -1.8537    3.3653   -5.3373 C   0  0  0  0  0  0  0  0  0  0  0  0
   -2.2938    1.8393   -5.9208 S   0  0  0  0  0  0  0  0  0  0  0  0
   -0.4339    3.7176   -5.1065 C   0  0  0  0  0  0  0  0  0  0  0  0
    0.0555    3.9486   -3.8241 C   0  0  0  0  0  0  0  0  0  0  0  0
    1.4026    3.5628   -3.6522 C   0  0  0  0  0  0  0  0  0  0  0  0
    2.0576    3.4165   -2.4023 C   0  0  0  0  0  0  0  0  0  0  0  0
    1.4507    3.9612   -1.1558 C   0  0  0  0  0  0  0  0  0  0  0  0
    1.0552    5.3099   -1.1166 C   0  0  0  0  0  0  0  0  0  0  0  0
    0.3907    5.8202    0.0014 C   0  0  0  0  0  0  0  0  0  0  0  0
    0.1421    5.0013    1.1091 C   0  0  0  0  0  0  0  0  0  0  0  0
   -0.7270    5.6633    2.5346 S   0  0  0  0  0  0  0  0  0  0  0  0
    0.7797    6.2229    3.4062 C   0  0  0  0  0  0  0  0  0  0  0  0
    1.2110    7.5984    2.9137 C   0  0  0  0  0  0  0  0  0  0  0  0
    0.5491    3.6614    1.0870 C   0  0  0  0  0  0  0  0  0  0  0  0
    0.3001    2.8484    2.1455 F   0  0  0  0  0  0  0  0  0  0  0  0
    1.1943    3.1440   -0.0403 C   0  0  0  0  0  0  0  0  0  0  0  0
    3.2256    2.6173   -2.4005 C   0  0  0  0  0  0  0  0  0  0  0  0
    3.7649    2.0733   -3.5688 C   0  0  0  0  0  0  0  0  0  0  0  0
    3.2030    2.3686   -4.8256 C   0  0  0  0  0  0  0  0  0  0  0  0
    3.8710    1.9380   -6.0767 C   0  0  0  0  0  0  0  0  0  0  0  0
    5.1745    2.3934   -6.3437 C   0  0  0  0  0  0  0  0  0  0  0  0
    5.8260    2.0178   -7.5228 C   0  0  0  0  0  0  0  0  0  0  0  0
    5.1808    1.1962   -8.4497 C   0  0  0  0  0  0  0  0  0  0  0  0
    6.0138    0.7646   -9.9826 S   0  0  0  0  0  0  0  0  0  0  0  0
    5.6072    2.3289  -10.8427 C   0  0  0  0  0  0  0  0  0  0  0  0
    4.1481    2.3608  -11.2763 C   0  0  0  0  0  0  0  0  0  0  0  0
    3.8929    0.7138   -8.1763 C   0  0  0  0  0  0  0  0  0  0  0  0
    3.2417    1.0773   -6.9925 C   0  0  0  0  0  0  0  0  0  0  0  0
    3.2677   -0.1094   -9.0587 F   0  0  0  0  0  0  0  0  0  0  0  0
    1.9829    3.0680   -4.8247 C   0  0  0  0  0  0  0  0  0  0  0  0
    0.8274    3.1094   -6.0514 S   0  0  0  0  0  0  0  0  0  0  0  0
    4.7262    1.0760   -3.3302 C   0  0  0  0  0  0  0  0  0  0  0  0
    4.9508    0.8328   -1.9797 C   0  0  0  0  0  0  0  0  0  0  0  0
    3.9819    1.8850   -1.0814 S   0  0  0  0  0  0  0  0  0  0  0  0
    5.3310   -0.4841   -1.4660 C   0  0  0  0  0  0  0  0  0  0  0  0
    6.4500   -0.7803   -0.6904 C   0  0  0  0  0  0  0  0  0  0  0  0
    6.4069   -2.0802   -0.1455 C   0  0  0  0  0  0  0  0  0  0  0  0
    7.3665   -2.6670    0.7183 C   0  0  0  0  0  0  0  0  0  0  0  0
    8.5458   -1.9222    1.2223 C   0  0  0  0  0  0  0  0  0  0  0  0
    9.8379   -2.4453    1.0657 C   0  0  0  0  0  0  0  0  0  0  0  0
   10.9435   -1.7620    1.5826 C   0  0  0  0  0  0  0  0  0  0  0  0
   10.7745   -0.5318    2.2303 C   0  0  0  0  0  0  0  0  0  0  0  0
   12.2083    0.3493    2.8569 S   0  0  0  0  0  0  0  0  0  0  0  0
   12.4353    1.3793    1.3640 C   0  0  0  0  0  0  0  0  0  0  0  0
   13.0934    0.5852    0.2393 C   0  0  0  0  0  0  0  0  0  0  0  0
    9.4848   -0.0054    2.4033 C   0  0  0  0  0  0  0  0  0  0  0  0
    9.3073    1.1898    3.0102 F   0  0  0  0  0  0  0  0  0  0  0  0
    8.3769   -0.7031    1.9029 C   0  0  0  0  0  0  0  0  0  0  0  0
    7.0992   -3.9839    1.1541 C   0  0  0  0  0  0  0  0  0  0  0  0
    5.9198   -4.6674    0.8247 C   0  0  0  0  0  0  0  0  0  0  0  0
    4.9457   -4.0588    0.0100 C   0  0  0  0  0  0  0  0  0  0  0  0
    3.5830   -4.6214   -0.0947 C   0  0  0  0  0  0  0  0  0  0  0  0
    2.5517   -4.0596    0.6797 C   0  0  0  0  0  0  0  0  0  0  0  0
    1.2934   -4.6607    0.7163 C   0  0  0  0  0  0  0  0  0  0  0  0
    1.0464   -5.8219   -0.0254 C   0  0  0  0  0  0  0  0  0  0  0  0
   -0.5456   -6.6481    0.1319 S   0  0  0  0  0  0  0  0  0  0  0  0
   -1.4292   -5.5643   -1.0464 C   0  0  0  0  0  0  0  0  0  0  0  0
   -1.1072   -5.9474   -2.4848 C   0  0  0  0  0  0  0  0  0  0  0  0
    2.0655   -6.3792   -0.8110 C   0  0  0  0  0  0  0  0  0  0  0  0
    3.3327   -5.7839   -0.8378 C   0  0  0  0  0  0  0  0  0  0  0  0
    1.8575   -7.5317   -1.4892 F   0  0  0  0  0  0  0  0  0  0  0  0
    5.2446   -2.7828   -0.4962 C   0  0  0  0  0  0  0  0  0  0  0  0
    4.2974   -1.8163   -1.4840 S   0  0  0  0  0  0  0  0  0  0  0  0
    5.8030   -5.9145    1.4607 C   0  0  0  0  0  0  0  0  0  0  0  0
    6.8908   -6.2175    2.2696 C   0  0  0  0  0  0  0  0  0  0  0  0
    7.9874   -4.9339    2.2230 S   0  0  0  0  0  0  0  0  0  0  0  0
    3.6066   -2.7302    9.3957 H   0  0  0  0  0  0  0  0  0  0  0  0
    5.2962   -0.7777    8.7063 H   0  0  0  0  0  0  0  0  0  0  0  0
    6.8338    1.0821    9.1712 H   0  0  0  0  0  0  0  0  0  0  0  0
    7.8940    1.8203    7.9081 H   0  0  0  0  0  0  0  0  0  0  0  0
    7.4187    0.0863    7.7600 H   0  0  0  0  0  0  0  0  0  0  0  0
    3.4533    3.9603    4.3912 H   0  0  0  0  0  0  0  0  0  0  0  0
    2.7451    2.3477    4.0287 H   0  0  0  0  0  0  0  0  0  0  0  0
    2.0667    3.3621    5.3830 H   0  0  0  0  0  0  0  0  0  0  0  0
    1.6536    0.9959    5.8078 H   0  0  0  0  0  0  0  0  0  0  0  0
   -1.5004   -2.4701    7.3045 H   0  0  0  0  0  0  0  0  0  0  0  0
   -5.1034   -1.6944    7.0577 H   0  0  0  0  0  0  0  0  0  0  0  0
   -5.9220   -3.0515    8.9495 H   0  0  0  0  0  0  0  0  0  0  0  0
   -3.9627   -6.3762   11.5553 H   0  0  0  0  0  0  0  0  0  0  0  0
   -3.0257   -5.7658   10.1493 H   0  0  0  0  0  0  0  0  0  0  0  0
   -4.8322   -4.0266   11.9679 H   0  0  0  0  0  0  0  0  0  0  0  0
   -3.7488   -3.4383   10.6458 H   0  0  0  0  0  0  0  0  0  0  0  0
   -3.0404   -4.1797   12.1224 H   0  0  0  0  0  0  0  0  0  0  0  0
   -2.8348   -5.0711    5.6298 H   0  0  0  0  0  0  0  0  0  0  0  0
   -2.9251    0.8081    1.2254 H   0  0  0  0  0  0  0  0  0  0  0  0
   -1.9849    1.3892   -0.9706 H   0  0  0  0  0  0  0  0  0  0  0  0
    0.0259   -1.2789   -4.1399 H   0  0  0  0  0  0  0  0  0  0  0  0
    0.8203   -1.9715   -2.6924 H   0  0  0  0  0  0  0  0  0  0  0  0
   -1.5933   -2.7780   -3.1881 H   0  0  0  0  0  0  0  0  0  0  0  0
   -1.3023   -2.2012   -1.5206 H   0  0  0  0  0  0  0  0  0  0  0  0
   -2.1574   -1.1342   -2.6881 H   0  0  0  0  0  0  0  0  0  0  0  0
    0.3923   -1.8643    1.9180 H   0  0  0  0  0  0  0  0  0  0  0  0
   -3.8913   -1.3399    0.6913 H   0  0  0  0  0  0  0  0  0  0  0  0
   -6.7397   -4.6702    0.9971 H   0  0  0  0  0  0  0  0  0  0  0  0
   -6.3041   -7.0313    0.4315 H   0  0  0  0  0  0  0  0  0  0  0  0
   -7.6193   -8.2073    0.0390 H   0  0  0  0  0  0  0  0  0  0  0  0
   -7.9671   -6.8232    1.1403 H   0  0  0  0  0  0  0  0  0  0  0  0
   -9.6587   -5.4755   -4.9286 H   0  0  0  0  0  0  0  0  0  0  0  0
  -10.1176   -3.9459   -4.0985 H   0  0  0  0  0  0  0  0  0  0  0  0
   -8.4969   -4.0912   -4.9229 H   0  0  0  0  0  0  0  0  0  0  0  0
   -8.4393   -2.4186   -3.1087 H   0  0  0  0  0  0  0  0  0  0  0  0
   -6.1391   -1.3565   -3.6132 H   0  0  0  0  0  0  0  0  0  0  0  0
   -2.2081   -0.7161   -4.9604 H   0  0  0  0  0  0  0  0  0  0  0  0
   -1.7521   -2.9843   -5.7475 H   0  0  0  0  0  0  0  0  0  0  0  0
   -2.8106   -5.3578   -9.3993 H   0  0  0  0  0  0  0  0  0  0  0  0
   -3.1516   -3.6150   -9.0993 H   0  0  0  0  0  0  0  0  0  0  0  0
   -0.9530   -3.4133   -7.8833 H   0  0  0  0  0  0  0  0  0  0  0  0
   -0.7032   -4.0753   -9.5352 H   0  0  0  0  0  0  0  0  0  0  0  0
   -0.6689   -5.1862   -8.1031 H   0  0  0  0  0  0  0  0  0  0  0  0
   -6.2806   -1.0549   -6.3213 H   0  0  0  0  0  0  0  0  0  0  0  0
   -7.0709    4.9196   -4.0903 H   0  0  0  0  0  0  0  0  0  0  0  0
   -7.6085    6.9135   -2.7533 H   0  0  0  0  0  0  0  0  0  0  0  0
   -8.4426    6.7799    0.0800 H   0  0  0  0  0  0  0  0  0  0  0  0
   -7.1219    6.4258    1.2693 H   0  0  0  0  0  0  0  0  0  0  0  0
   -8.7756    9.0317    1.1056 H   0  0  0  0  0  0  0  0  0  0  0  0
   -7.4495    8.6696    2.3000 H   0  0  0  0  0  0  0  0  0  0  0  0
   -8.9867    7.7072    2.3171 H   0  0  0  0  0  0  0  0  0  0  0  0
   -3.7896    4.0232   -1.4412 H   0  0  0  0  0  0  0  0  0  0  0  0
   -2.8520    4.7789   -4.0144 H   0  0  0  0  0  0  0  0  0  0  0  0
   -0.5937    4.1954   -2.9933 H   0  0  0  0  0  0  0  0  0  0  0  0
    1.2446    5.9610   -1.9589 H   0  0  0  0  0  0  0  0  0  0  0  0
    0.0631    6.8494    0.0045 H   0  0  0  0  0  0  0  0  0  0  0  0
    0.5464    6.2926    4.4899 H   0  0  0  0  0  0  0  0  0  0  0  0
    1.6065    5.4901    3.2789 H   0  0  0  0  0  0  0  0  0  0  0  0
    2.0163    7.9949    3.5664 H   0  0  0  0  0  0  0  0  0  0  0  0
    0.3553    8.3032    2.9412 H   0  0  0  0  0  0  0  0  0  0  0  0
    1.6004    7.5387    1.8778 H   0  0  0  0  0  0  0  0  0  0  0  0
    1.4687    2.1017   -0.0472 H   0  0  0  0  0  0  0  0  0  0  0  0
    5.6777    3.0464   -5.6469 H   0  0  0  0  0  0  0  0  0  0  0  0
    6.8226    2.3807   -7.7203 H   0  0  0  0  0  0  0  0  0  0  0  0
    6.2474    2.3973  -11.7496 H   0  0  0  0  0  0  0  0  0  0  0  0
    5.8293    3.2041  -10.1962 H   0  0  0  0  0  0  0  0  0  0  0  0
    3.9083    1.4661  -11.8919 H   0  0  0  0  0  0  0  0  0  0  0  0
    3.9668    3.2723  -11.8832 H   0  0  0  0  0  0  0  0  0  0  0  0
    3.4781    2.3948  -10.3932 H   0  0  0  0  0  0  0  0  0  0  0  0
    2.2541    0.6827   -6.7851 H   0  0  0  0  0  0  0  0  0  0  0  0
    5.1285    0.4363   -4.1117 H   0  0  0  0  0  0  0  0  0  0  0  0
    7.2421   -0.0746   -0.5204 H   0  0  0  0  0  0  0  0  0  0  0  0
    9.9946   -3.3873    0.5573 H   0  0  0  0  0  0  0  0  0  0  0  0
   11.9347   -2.1817    1.4664 H   0  0  0  0  0  0  0  0  0  0  0  0
   11.4623    1.7930    1.0216 H   0  0  0  0  0  0  0  0  0  0  0  0
   13.0958    2.2306    1.6314 H   0  0  0  0  0  0  0  0  0  0  0  0
   13.3507    1.2689   -0.5977 H   0  0  0  0  0  0  0  0  0  0  0  0
   14.0233    0.1011    0.6055 H   0  0  0  0  0  0  0  0  0  0  0  0
   12.3973   -0.1926   -0.1452 H   0  0  0  0  0  0  0  0  0  0  0  0
    7.3850   -0.2907    2.0551 H   0  0  0  0  0  0  0  0  0  0  0  0
    2.7421   -3.1869    1.2911 H   0  0  0  0  0  0  0  0  0  0  0  0
    0.5171   -4.2423    1.3459 H   0  0  0  0  0  0  0  0  0  0  0  0
   -2.5203   -5.6859   -0.8805 H   0  0  0  0  0  0  0  0  0  0  0  0
   -1.1707   -4.5001   -0.8608 H   0  0  0  0  0  0  0  0  0  0  0  0
   -1.7550   -5.3675   -3.1762 H   0  0  0  0  0  0  0  0  0  0  0  0
   -0.0437   -5.7155   -2.7130 H   0  0  0  0  0  0  0  0  0  0  0  0
   -1.2924   -7.0324   -2.6420 H   0  0  0  0  0  0  0  0  0  0  0  0
    4.1301   -6.2419   -1.4064 H   0  0  0  0  0  0  0  0  0  0  0  0
    4.9576   -6.5750    1.3523 H   0  0  0  0  0  0  0  0  0  0  0  0
    7.0075   -7.1195    2.8529 H   0  0  0  0  0  0  0  0  0  0  0  0
  1  2  1  0
  2  3  1  0
  3  4  2  0
  4  5  1  0
  5  6  1  0
  6  7  2  0
  7  8  1  0
  8  9  1  0
  7 10  1  0
 10 11  1  0
 11 12  1  0
 10 13  2  0
  3 14  1  0
 14 15  2  0
 15 16  1  0
 16 17  2  0
 17 18  1  0
 18 19  2  0
 19 20  1  0
 20 21  2  0
 21 22  1  0
 22 23  1  0
 23 24  1  0
 21 25  1  0
 25 26  1  0
 25 27  2  0
 17 28  1  0
 28 29  2  0
 29 30  1  0
 30 31  1  0
 31 32  2  0
 32 33  1  0
 33 34  2  0
 34 35  1  0
 35 36  1  0
 36 37  1  0
 34 38  1  0
 38 39  2  0
 38 40  1  0
 30 41  2  0
 41 42  1  0
 29 43  1  0
 43 44  2  0
 44 45  1  0
 44 46  1  0
 46 47  1  0
 47 48  1  0
 48 49  2  0
 49 50  1  0
 50 51  1  0
 51 52  2  0
 52 53  1  0
 53 54  1  0
 52 55  1  0
 55 56  1  0
 56 57  1  0
 55 58  2  0
 48 59  1  0
 59 60  2  0
 60 61  1  0
 61 62  2  0
 62 63  1  0
 63 64  2  0
 64 65  1  0
 65 66  2  0
 66 67  1  0
 67 68  1  0
 68 69  1  0
 66 70  1  0
 70 71  1  0
 70 72  2  0
 62 73  1  0
 73 74  2  0
 74 75  1  0
 75 76  1  0
 76 77  2  0
 77 78  1  0
 78 79  2  0
 79 80  1  0
 80 81  1  0
 81 82  1  0
 79 83  1  0
 83 84  2  0
 83 85  1  0
 75 86  2  0
 86 87  1  0
 74 88  1  0
 88 89  2  0
 89 90  1  0
 89 91  1  0
 91 92  2  0
 92 93  1  0
 93 94  2  0
 94 95  1  0
 95 96  2  0
 96 97  1  0
 97 98  2  0
 98 99  1  0
 99100  1  0
100101  1  0
 98102  1  0
102103  1  0
102104  2  0
 94105  1  0
105106  2  0
106107  1  0
107108  1  0
108109  2  0
109110  1  0
110111  2  0
111112  1  0
112113  1  0
113114  1  0
111115  1  0
115116  2  0
115117  1  0
107118  2  0
118119  1  0
106120  1  0
120121  2  0
121122  1  0
121123  1  0
123124  2  0
124125  1  0
125126  2  0
126127  1  0
127128  2  0
128129  1  0
129130  2  0
130131  1  0
131132  1  0
132133  1  0
130134  1  0
134135  1  0
134136  2  0
126137  1  0
137138  2  0
138139  1  0
139140  1  0
140141  2  0
141142  1  0
142143  2  0
143144  1  0
144145  1  0
145146  1  0
143147  1  0
147148  2  0
147149  1  0
139150  2  0
150151  1  0
138152  1  0
152153  2  0
153154  1  0
  5  1  2  0
 42 14  1  0
 50 46  2  0
 87 59  1  0
119 91  1  0
151123  1  0
 13  4  1  0
 41 16  1  0
 58 49  1  0
 86 61  1  0
118 93  1  0
150125  1  0
 27 18  1  0
 45 28  1  0
 72 63  1  0
 90 73  1  0
104 95  1  0
122105  1  0
136127  1  0
154137  1  0
 39 31  1  0
 84 76  1  0
116108  1  0
148140  1  0
  1155  1  0
  6156  1  0
  9157  1  0
  9158  1  0
  9159  1  0
 12160  1  0
 12161  1  0
 12162  1  0
 13163  1  0
 15164  1  0
 19165  1  0
 20166  1  0
 23167  1  0
 23168  1  0
 24169  1  0
 24170  1  0
 24171  1  0
 27172  1  0
 32173  1  0
 33174  1  0
 36175  1  0
 36176  1  0
 37177  1  0
 37178  1  0
 37179  1  0
 39180  1  0
 43181  1  0
 51182  1  0
 54183  1  0
 54184  1  0
 54185  1  0
 57186  1  0
 57187  1  0
 57188  1  0
 58189  1  0
 60190  1  0
 64191  1  0
 65192  1  0
 68193  1  0
 68194  1  0
 69195  1  0
 69196  1  0
 69197  1  0
 72198  1  0
 77199  1  0
 78200  1  0
 81201  1  0
 81202  1  0
 82203  1  0
 82204  1  0
 82205  1  0
 84206  1  0
 88207  1  0
 92208  1  0
 96209  1  0
 97210  1  0
100211  1  0
100212  1  0
101213  1  0
101214  1  0
101215  1  0
104216  1  0
109217  1  0
110218  1  0
113219  1  0
113220  1  0
114221  1  0
114222  1  0
114223  1  0
116224  1  0
120225  1  0
124226  1  0
128227  1  0
129228  1  0
132229  1  0
132230  1  0
133231  1  0
133232  1  0
133233  1  0
136234  1  0
141235  1  0
142236  1  0
145237  1  0
145238  1  0
146239  1  0
146240  1  0
146241  1  0
148242  1  0
152243  1  0
153244  1  0
M  END

