
     RDKit          3D

 84 95  0  0  0  0  0  0  0  0999 V2000
    6.9250   -3.8453   12.0869 C   0  0  0  0  0  0  0  0  0  0  0  0
    6.8604   -2.9989   11.0708 C   0  0  0  0  0  0  0  0  0  0  0  0
    6.0019   -3.4626   10.0609 C   0  0  0  0  0  0  0  0  0  0  0  0
    5.5126   -4.7305   10.5464 C   0  0  0  0  0  0  0  0  0  0  0  0
    4.7021   -5.5065    9.9751 O   0  0  0  0  0  0  0  0  0  0  0  0
    6.0965   -4.9482   11.8009 O   0  0  0  0  0  0  0  0  0  0  0  0
    5.9198   -2.5820    9.0710 C   0  0  0  0  0  0  0  0  0  0  0  0
    6.7429   -1.4764    9.3669 O   0  0  0  0  0  0  0  0  0  0  0  0
    7.3408   -1.7221   10.6103 C   0  0  0  0  0  0  0  0  0  0  0  0
    8.1408   -0.9520   11.2028 O   0  0  0  0  0  0  0  0  0  0  0  0
    5.0984   -2.7110    7.8642 C   0  0  0  0  0  0  0  0  0  0  0  0
    4.9472   -1.7846    6.9276 C   0  0  0  0  0  0  0  0  0  0  0  0
    4.0522   -2.2109    5.9319 C   0  0  0  0  0  0  0  0  0  0  0  0
    3.6580   -3.5398    6.3316 C   0  0  0  0  0  0  0  0  0  0  0  0
    2.8546   -4.3047    5.7388 O   0  0  0  0  0  0  0  0  0  0  0  0
    4.3179   -3.8348    7.5320 O   0  0  0  0  0  0  0  0  0  0  0  0
    3.8483   -1.2552    5.0362 C   0  0  0  0  0  0  0  0  0  0  0  0
    4.6164   -0.1271    5.3851 O   0  0  0  0  0  0  0  0  0  0  0  0
    5.3051   -0.4354    6.5628 C   0  0  0  0  0  0  0  0  0  0  0  0
    6.0941    0.3358    7.1663 O   0  0  0  0  0  0  0  0  0  0  0  0
    2.9618   -1.3326    3.8728 C   0  0  0  0  0  0  0  0  0  0  0  0
    2.6928   -0.3415    3.0349 C   0  0  0  0  0  0  0  0  0  0  0  0
    1.7860   -0.7457    2.0405 C   0  0  0  0  0  0  0  0  0  0  0  0
    1.4879   -2.1255    2.3500 C   0  0  0  0  0  0  0  0  0  0  0  0
    0.6722   -2.8799    1.7582 O   0  0  0  0  0  0  0  0  0  0  0  0
    2.2386   -2.4753    3.4806 O   0  0  0  0  0  0  0  0  0  0  0  0
    1.4662    0.2753    1.2511 C   0  0  0  0  0  0  0  0  0  0  0  0
    2.1438    1.4297    1.6892 O   0  0  0  0  0  0  0  0  0  0  0  0
    2.9204    1.0629    2.7943 C   0  0  0  0  0  0  0  0  0  0  0  0
    3.6602    1.8397    3.4551 O   0  0  0  0  0  0  0  0  0  0  0  0
    0.5289    0.2620    0.1205 C   0  0  0  0  0  0  0  0  0  0  0  0
   -0.5833    1.4872   -0.1771 S   0  0  0  0  0  0  0  0  0  0  0  0
   -1.1814    0.8803   -1.6283 C   0  0  0  0  0  0  0  0  0  0  0  0
   -0.4538   -0.2737   -1.9399 C   0  0  0  0  0  0  0  0  0  0  0  0
    0.4908   -0.6257   -0.9576 C   0  0  0  0  0  0  0  0  0  0  0  0
    1.3337   -1.7248   -1.1513 C   0  0  0  0  0  0  0  0  0  0  0  0
    1.2124   -2.5000   -2.3228 C   0  0  0  0  0  0  0  0  0  0  0  0
    2.0011   -3.6434   -2.5356 O   0  0  0  0  0  0  0  0  0  0  0  0
    2.8830   -4.2012   -1.5715 C   0  0  0  0  0  0  0  0  0  0  0  0
    0.2877   -2.1302   -3.3198 C   0  0  0  0  0  0  0  0  0  0  0  0
    0.2177   -2.9174   -4.4797 O   0  0  0  0  0  0  0  0  0  0  0  0
   -0.6832   -2.6904   -5.5615 C   0  0  0  0  0  0  0  0  0  0  0  0
   -0.5346   -0.9983   -3.1343 C   0  0  0  0  0  0  0  0  0  0  0  0
   -2.2049    1.5658   -2.4418 C   0  0  0  0  0  0  0  0  0  0  0  0
   -2.2279    3.2280   -2.7011 S   0  0  0  0  0  0  0  0  0  0  0  0
   -3.5939    3.2706   -3.6798 C   0  0  0  0  0  0  0  0  0  0  0  0
   -4.0878    1.9672   -3.7876 C   0  0  0  0  0  0  0  0  0  0  0  0
   -3.3238    1.0191   -3.0800 C   0  0  0  0  0  0  0  0  0  0  0  0
   -3.7476   -0.3121   -3.0000 C   0  0  0  0  0  0  0  0  0  0  0  0
   -4.9112   -0.7171   -3.6862 C   0  0  0  0  0  0  0  0  0  0  0  0
   -5.3548   -2.0501   -3.6674 O   0  0  0  0  0  0  0  0  0  0  0  0
   -4.6964   -3.1091   -2.9819 C   0  0  0  0  0  0  0  0  0  0  0  0
   -5.6597    0.2270   -4.4180 C   0  0  0  0  0  0  0  0  0  0  0  0
   -6.7980   -0.2262   -5.1044 O   0  0  0  0  0  0  0  0  0  0  0  0
   -7.6155    0.5774   -5.9492 C   0  0  0  0  0  0  0  0  0  0  0  0
   -5.2597    1.5806   -4.4466 C   0  0  0  0  0  0  0  0  0  0  0  0
   -4.1647    4.5163   -4.2112 C   0  0  0  0  0  0  0  0  0  0  0  0
   -4.6972    4.6954   -5.4249 C   0  0  0  0  0  0  0  0  0  0  0  0
   -4.8662    6.0915   -5.6716 C   0  0  0  0  0  0  0  0  0  0  0  0
   -4.4565    6.7354   -4.4456 C   0  0  0  0  0  0  0  0  0  0  0  0
   -4.3707    7.9740   -4.2374 O   0  0  0  0  0  0  0  0  0  0  0  0
   -4.0578    5.7462   -3.5471 O   0  0  0  0  0  0  0  0  0  0  0  0
   -4.5687    6.3800   -6.9361 C   0  0  0  0  0  0  0  0  0  0  0  0
   -4.3156    5.1990   -7.6449 O   0  0  0  0  0  0  0  0  0  0  0  0
   -4.3432    4.1521   -6.7234 C   0  0  0  0  0  0  0  0  0  0  0  0
   -4.0200    2.9635   -6.9842 O   0  0  0  0  0  0  0  0  0  0  0  0
    7.5073   -3.7184   12.9920 H   0  0  0  0  0  0  0  0  0  0  0  0
    2.0832   -1.9668   -0.4148 H   0  0  0  0  0  0  0  0  0  0  0  0
    2.3223   -4.4624   -0.6482 H   0  0  0  0  0  0  0  0  0  0  0  0
    3.3298   -5.1280   -1.9838 H   0  0  0  0  0  0  0  0  0  0  0  0
    3.7034   -3.4856   -1.3416 H   0  0  0  0  0  0  0  0  0  0  0  0
   -0.5228   -3.4715   -6.3314 H   0  0  0  0  0  0  0  0  0  0  0  0
   -0.4909   -1.6954   -6.0198 H   0  0  0  0  0  0  0  0  0  0  0  0
   -1.7315   -2.7503   -5.2023 H   0  0  0  0  0  0  0  0  0  0  0  0
   -1.2097   -0.6774   -3.9138 H   0  0  0  0  0  0  0  0  0  0  0  0
   -3.1829   -1.0221   -2.4137 H   0  0  0  0  0  0  0  0  0  0  0  0
   -3.6571   -3.2182   -3.3621 H   0  0  0  0  0  0  0  0  0  0  0  0
   -4.6876   -2.9059   -1.8896 H   0  0  0  0  0  0  0  0  0  0  0  0
   -5.2473   -4.0575   -3.1592 H   0  0  0  0  0  0  0  0  0  0  0  0
   -7.0149    0.9828   -6.7877 H   0  0  0  0  0  0  0  0  0  0  0  0
   -8.4337   -0.0469   -6.3682 H   0  0  0  0  0  0  0  0  0  0  0  0
   -8.0610    1.4048   -5.3666 H   0  0  0  0  0  0  0  0  0  0  0  0
   -5.8566    2.3162   -4.9662 H   0  0  0  0  0  0  0  0  0  0  0  0
   -4.4264    7.3753   -7.3379 H   0  0  0  0  0  0  0  0  0  0  0  0
  1  2  2  0
  2  3  1  0
  3  4  1  0
  4  5  2  0
  4  6  1  0
  3  7  2  0
  7  8  1  0
  8  9  1  0
  9 10  2  0
  7 11  1  0
 11 12  2  0
 12 13  1  0
 13 14  1  0
 14 15  2  0
 14 16  1  0
 13 17  2  0
 17 18  1  0
 18 19  1  0
 19 20  2  0
 17 21  1  0
 21 22  2  0
 22 23  1  0
 23 24  1  0
 24 25  2  0
 24 26  1  0
 23 27  2  0
 27 28  1  0
 28 29  1  0
 29 30  2  0
 27 31  1  0
 31 32  1  0
 32 33  1  0
 33 34  2  0
 34 35  1  0
 35 36  1  0
 36 37  2  0
 37 38  1  0
 38 39  1  0
 37 40  1  0
 40 41  1  0
 41 42  1  0
 40 43  2  0
 33 44  1  0
 44 45  1  0
 45 46  1  0
 46 47  2  0
 47 48  1  0
 48 49  1  0
 49 50  2  0
 50 51  1  0
 51 52  1  0
 50 53  1  0
 53 54  1  0
 54 55  1  0
 53 56  2  0
 46 57  1  0
 57 58  2  0
 58 59  1  0
 59 60  1  0
 60 61  2  0
 60 62  1  0
 59 63  2  0
 63 64  1  0
 64 65  1  0
 65 66  2  0
  6  1  1  0
 16 11  1  0
 26 21  1  0
 35 31  2  0
 48 44  2  0
 62 57  1  0
  9  2  1  0
 19 12  1  0
 29 22  1  0
 43 34  1  0
 56 47  1  0
 65 58  1  0
  1 67  1  0
 36 68  1  0
 39 69  1  0
 39 70  1  0
 39 71  1  0
 42 72  1  0
 42 73  1  0
 42 74  1  0
 43 75  1  0
 49 76  1  0
 52 77  1  0
 52 78  1  0
 52 79  1  0
 55 80  1  0
 55 81  1  0
 55 82  1  0
 56 83  1  0
 63 84  1  0
M  END

