
     RDKit          3D

191211  0  0  0  0  0  0  0  0999 V2000
    7.1372   -5.3547   -5.9871 C   0  0  0  0  0  0  0  0  0  0  0  0
    6.8151   -4.2197   -6.7291 C   0  0  0  0  0  0  0  0  0  0  0  0
    5.6064   -3.6270   -6.3357 C   0  0  0  0  0  0  0  0  0  0  0  0
    5.0140   -2.4796   -6.9019 C   0  0  0  0  0  0  0  0  0  0  0  0
    5.6094   -1.7879   -8.0559 C   0  0  0  0  0  0  0  0  0  0  0  0
    4.9459   -1.7687   -9.6004 S   0  0  0  0  0  0  0  0  0  0  0  0
    6.1624   -0.8492  -10.3104 C   0  0  0  0  0  0  0  0  0  0  0  0
    6.1586   -0.3964  -11.7371 C   0  0  0  0  0  0  0  0  0  0  0  0
    5.4945    0.9699  -11.8657 C   0  0  0  0  0  0  0  0  0  0  0  0
    7.1000   -0.5226   -9.3306 C   0  0  0  0  0  0  0  0  0  0  0  0
    8.5106    0.4795   -9.6374 Cl  0  0  0  0  0  0  0  0  0  0  0  0
    6.7952   -1.0573   -8.0681 C   0  0  0  0  0  0  0  0  0  0  0  0
    7.7825   -0.7978   -6.6378 Cl  0  0  0  0  0  0  0  0  0  0  0  0
    3.7830   -2.0648   -6.3642 C   0  0  0  0  0  0  0  0  0  0  0  0
    3.1497   -2.7581   -5.3290 C   0  0  0  0  0  0  0  0  0  0  0  0
    3.7339   -3.9073   -4.7676 C   0  0  0  0  0  0  0  0  0  0  0  0
    3.0729   -4.6571   -3.6829 C   0  0  0  0  0  0  0  0  0  0  0  0
    2.7886   -4.0570   -2.1386 S   0  0  0  0  0  0  0  0  0  0  0  0
    1.9784   -5.4128   -1.5581 C   0  0  0  0  0  0  0  0  0  0  0  0
    1.4934   -5.5788   -0.1492 C   0  0  0  0  0  0  0  0  0  0  0  0
    2.5987   -6.1525    0.7323 C   0  0  0  0  0  0  0  0  0  0  0  0
    1.9394   -6.3703   -2.5728 C   0  0  0  0  0  0  0  0  0  0  0  0
    2.5416   -5.9426   -3.7656 C   0  0  0  0  0  0  0  0  0  0  0  0
    2.5717   -6.9114   -5.2334 Cl  0  0  0  0  0  0  0  0  0  0  0  0
    1.2165   -7.9613   -2.3762 Cl  0  0  0  0  0  0  0  0  0  0  0  0
    4.9709   -4.3123   -5.2962 C   0  0  0  0  0  0  0  0  0  0  0  0
    5.9212   -5.6314   -4.8523 S   0  0  0  0  0  0  0  0  0  0  0  0
    1.8997   -2.2198   -4.9960 C   0  0  0  0  0  0  0  0  0  0  0  0
    1.5782   -1.0922   -5.7470 C   0  0  0  0  0  0  0  0  0  0  0  0
    2.8137   -0.7664   -6.8467 S   0  0  0  0  0  0  0  0  0  0  0  0
    0.2692   -0.4437   -5.7150 C   0  0  0  0  0  0  0  0  0  0  0  0
   -0.0155    0.7401   -5.0354 C   0  0  0  0  0  0  0  0  0  0  0  0
   -1.3901    0.9098   -4.8000 C   0  0  0  0  0  0  0  0  0  0  0  0
   -1.9861    1.9059   -3.9991 C   0  0  0  0  0  0  0  0  0  0  0  0
   -1.1976    2.9926   -3.3972 C   0  0  0  0  0  0  0  0  0  0  0  0
   -0.6100    4.3145   -4.2517 S   0  0  0  0  0  0  0  0  0  0  0  0
   -0.0588    5.1656   -2.9116 C   0  0  0  0  0  0  0  0  0  0  0  0
    0.6443    6.4871   -2.9746 C   0  0  0  0  0  0  0  0  0  0  0  0
    2.1422    6.2894   -3.1699 C   0  0  0  0  0  0  0  0  0  0  0  0
   -0.3194    4.4171   -1.7646 C   0  0  0  0  0  0  0  0  0  0  0  0
    0.0522    4.9668   -0.1373 Cl  0  0  0  0  0  0  0  0  0  0  0  0
   -0.9528    3.1934   -2.0375 C   0  0  0  0  0  0  0  0  0  0  0  0
   -1.3464    2.0101   -0.7941 Cl  0  0  0  0  0  0  0  0  0  0  0  0
   -3.3572    1.7567   -3.7079 C   0  0  0  0  0  0  0  0  0  0  0  0
   -4.1137    0.6867   -4.1893 C   0  0  0  0  0  0  0  0  0  0  0  0
   -3.5347   -0.2740   -5.0299 C   0  0  0  0  0  0  0  0  0  0  0  0
   -4.3007   -1.4364   -5.4985 C   0  0  0  0  0  0  0  0  0  0  0  0
   -5.4748   -1.3726   -6.6961 S   0  0  0  0  0  0  0  0  0  0  0  0
   -5.8825   -3.0066   -6.6332 C   0  0  0  0  0  0  0  0  0  0  0  0
   -6.9237   -3.6572   -7.4939 C   0  0  0  0  0  0  0  0  0  0  0  0
   -6.6508   -3.4096   -8.9751 C   0  0  0  0  0  0  0  0  0  0  0  0
   -5.1198   -3.6165   -5.6322 C   0  0  0  0  0  0  0  0  0  0  0  0
   -4.2306   -2.7336   -4.9984 C   0  0  0  0  0  0  0  0  0  0  0  0
   -3.1810   -3.2072   -3.6685 Cl  0  0  0  0  0  0  0  0  0  0  0  0
   -5.2638   -5.3142   -5.1884 Cl  0  0  0  0  0  0  0  0  0  0  0  0
   -2.1667   -0.1432   -5.3014 C   0  0  0  0  0  0  0  0  0  0  0  0
   -1.1627   -1.2765   -6.0186 S   0  0  0  0  0  0  0  0  0  0  0  0
   -5.3598    0.5605   -3.5582 C   0  0  0  0  0  0  0  0  0  0  0  0
   -5.5643    1.4867   -2.5372 C   0  0  0  0  0  0  0  0  0  0  0  0
   -4.2425    2.5426   -2.5175 S   0  0  0  0  0  0  0  0  0  0  0  0
   -6.1654    1.0619   -1.2663 C   0  0  0  0  0  0  0  0  0  0  0  0
   -5.7400   -0.4178   -0.6021 S   0  0  0  0  0  0  0  0  0  0  0  0
   -5.9904   -0.0657    1.0175 C   0  0  0  0  0  0  0  0  0  0  0  0
   -6.4367    1.2626    1.0627 C   0  0  0  0  0  0  0  0  0  0  0  0
   -6.5163    1.8875   -0.2001 C   0  0  0  0  0  0  0  0  0  0  0  0
   -6.8472    3.2413   -0.3019 C   0  0  0  0  0  0  0  0  0  0  0  0
   -7.1435    3.9773    0.8654 C   0  0  0  0  0  0  0  0  0  0  0  0
   -7.4896    5.3371    0.8140 O   0  0  0  0  0  0  0  0  0  0  0  0
   -7.5576    6.1068   -0.3842 C   0  0  0  0  0  0  0  0  0  0  0  0
   -7.0934    3.3494    2.1268 C   0  0  0  0  0  0  0  0  0  0  0  0
   -7.4126    4.1118    3.2617 O   0  0  0  0  0  0  0  0  0  0  0  0
   -7.3942    3.6185    4.5982 C   0  0  0  0  0  0  0  0  0  0  0  0
   -6.7297    1.9882    2.2238 C   0  0  0  0  0  0  0  0  0  0  0  0
   -5.2525   -0.7841    2.0808 C   0  0  0  0  0  0  0  0  0  0  0  0
   -4.1972    0.0102    3.1331 S   0  0  0  0  0  0  0  0  0  0  0  0
   -3.2362   -1.3026    3.5457 C   0  0  0  0  0  0  0  0  0  0  0  0
   -3.6946   -2.3973    2.8198 C   0  0  0  0  0  0  0  0  0  0  0  0
   -4.8232   -2.1210    2.0252 C   0  0  0  0  0  0  0  0  0  0  0  0
   -5.3589   -3.1162    1.1989 C   0  0  0  0  0  0  0  0  0  0  0  0
   -4.7380   -4.3840    1.1362 C   0  0  0  0  0  0  0  0  0  0  0  0
   -5.2191   -5.4002    0.2968 O   0  0  0  0  0  0  0  0  0  0  0  0
   -6.2893   -5.2381   -0.6300 C   0  0  0  0  0  0  0  0  0  0  0  0
   -3.5939   -4.6496    1.9178 C   0  0  0  0  0  0  0  0  0  0  0  0
   -2.9909   -5.9133    1.8041 O   0  0  0  0  0  0  0  0  0  0  0  0
   -1.7950   -6.3022    2.4653 C   0  0  0  0  0  0  0  0  0  0  0  0
   -3.0779   -3.6525    2.7706 C   0  0  0  0  0  0  0  0  0  0  0  0
   -1.9029   -1.1466    4.1280 C   0  0  0  0  0  0  0  0  0  0  0  0
   -0.7950   -0.7026    3.4127 C   0  0  0  0  0  0  0  0  0  0  0  0
    0.2661   -0.3101    4.2415 C   0  0  0  0  0  0  0  0  0  0  0  0
    1.4782    0.2690    3.8178 C   0  0  0  0  0  0  0  0  0  0  0  0
    1.7948    0.4554    2.3843 C   0  0  0  0  0  0  0  0  0  0  0  0
    1.9812   -0.7941    1.2687 S   0  0  0  0  0  0  0  0  0  0  0  0
    2.3673    0.1877   -0.0474 C   0  0  0  0  0  0  0  0  0  0  0  0
    2.7349   -0.3139   -1.4128 C   0  0  0  0  0  0  0  0  0  0  0  0
    4.1917   -0.7585   -1.4457 C   0  0  0  0  0  0  0  0  0  0  0  0
    2.3782    1.5140    0.3794 C   0  0  0  0  0  0  0  0  0  0  0  0
    2.8138    2.8631   -0.6583 Cl  0  0  0  0  0  0  0  0  0  0  0  0
    2.0304    1.6675    1.7321 C   0  0  0  0  0  0  0  0  0  0  0  0
    1.8418    3.2423    2.4985 Cl  0  0  0  0  0  0  0  0  0  0  0  0
    2.3445    0.7239    4.8290 C   0  0  0  0  0  0  0  0  0  0  0  0
    2.0415    0.6215    6.1895 C   0  0  0  0  0  0  0  0  0  0  0  0
    0.8531   -0.0048    6.6121 C   0  0  0  0  0  0  0  0  0  0  0  0
    0.5303   -0.1769    8.0422 C   0  0  0  0  0  0  0  0  0  0  0  0
   -0.8359    0.4371    8.8120 S   0  0  0  0  0  0  0  0  0  0  0  0
   -0.4962   -0.2055   10.3292 C   0  0  0  0  0  0  0  0  0  0  0  0
   -1.3995   -0.1033   11.5219 C   0  0  0  0  0  0  0  0  0  0  0  0
   -2.4116   -1.2433   11.5340 C   0  0  0  0  0  0  0  0  0  0  0  0
    0.6863   -0.9382   10.2462 C   0  0  0  0  0  0  0  0  0  0  0  0
    1.2674   -0.9159    8.9683 C   0  0  0  0  0  0  0  0  0  0  0  0
    2.7320   -1.8003    8.5587 Cl  0  0  0  0  0  0  0  0  0  0  0  0
    1.3632   -1.8353   11.5977 Cl  0  0  0  0  0  0  0  0  0  0  0  0
   -0.0268   -0.4360    5.6055 C   0  0  0  0  0  0  0  0  0  0  0  0
   -1.5918   -1.0415    5.7791 S   0  0  0  0  0  0  0  0  0  0  0  0
    2.9681    1.2898    7.0123 C   0  0  0  0  0  0  0  0  0  0  0  0
    3.9909    1.9235    6.2976 C   0  0  0  0  0  0  0  0  0  0  0  0
    3.7753    1.5867    4.6589 S   0  0  0  0  0  0  0  0  0  0  0  0
    4.9688    2.8644    6.8906 C   0  0  0  0  0  0  0  0  0  0  0  0
    5.3630    2.8723    8.5317 S   0  0  0  0  0  0  0  0  0  0  0  0
    6.3163    4.2550    8.5346 C   0  0  0  0  0  0  0  0  0  0  0  0
    6.3264    4.7517    7.2399 C   0  0  0  0  0  0  0  0  0  0  0  0
    5.5935    3.9863    6.3119 C   0  0  0  0  0  0  0  0  0  0  0  0
    5.5226    4.4117    4.9748 C   0  0  0  0  0  0  0  0  0  0  0  0
    6.1832    5.5952    4.5732 C   0  0  0  0  0  0  0  0  0  0  0  0
    6.1661    6.0351    3.2400 O   0  0  0  0  0  0  0  0  0  0  0  0
    5.6482    5.2861    2.1469 C   0  0  0  0  0  0  0  0  0  0  0  0
    6.8783    6.3709    5.5237 C   0  0  0  0  0  0  0  0  0  0  0  0
    7.4747    7.5642    5.0929 O   0  0  0  0  0  0  0  0  0  0  0  0
    8.1129    8.5011    5.9559 C   0  0  0  0  0  0  0  0  0  0  0  0
    6.9588    5.9370    6.8620 C   0  0  0  0  0  0  0  0  0  0  0  0
    8.0207   -5.9625   -6.1223 H   0  0  0  0  0  0  0  0  0  0  0  0
    7.4464   -3.8424   -7.5223 H   0  0  0  0  0  0  0  0  0  0  0  0
    7.2010   -0.3426  -12.1214 H   0  0  0  0  0  0  0  0  0  0  0  0
    5.6035   -1.1326  -12.3576 H   0  0  0  0  0  0  0  0  0  0  0  0
    4.4430    0.9201  -11.5100 H   0  0  0  0  0  0  0  0  0  0  0  0
    6.0437    1.7297  -11.2725 H   0  0  0  0  0  0  0  0  0  0  0  0
    5.4914    1.2846  -12.9317 H   0  0  0  0  0  0  0  0  0  0  0  0
    0.6086   -6.2512   -0.1239 H   0  0  0  0  0  0  0  0  0  0  0  0
    1.1842   -4.5898    0.2525 H   0  0  0  0  0  0  0  0  0  0  0  0
    3.4688   -5.4617    0.7569 H   0  0  0  0  0  0  0  0  0  0  0  0
    2.9251   -7.1405    0.3451 H   0  0  0  0  0  0  0  0  0  0  0  0
    2.2218   -6.2794    1.7678 H   0  0  0  0  0  0  0  0  0  0  0  0
    1.2298   -2.6468   -4.2605 H   0  0  0  0  0  0  0  0  0  0  0  0
    0.7494    1.3913   -4.6321 H   0  0  0  0  0  0  0  0  0  0  0  0
    0.2410    7.0808   -3.8221 H   0  0  0  0  0  0  0  0  0  0  0  0
    0.4624    7.0652   -2.0424 H   0  0  0  0  0  0  0  0  0  0  0  0
    2.6494    7.2776   -3.1991 H   0  0  0  0  0  0  0  0  0  0  0  0
    2.3405    5.7622   -4.1284 H   0  0  0  0  0  0  0  0  0  0  0  0
    2.5661    5.6967   -2.3327 H   0  0  0  0  0  0  0  0  0  0  0  0
   -7.9199   -3.2416   -7.2301 H   0  0  0  0  0  0  0  0  0  0  0  0
   -6.9520   -4.7507   -7.3186 H   0  0  0  0  0  0  0  0  0  0  0  0
   -6.7390   -2.3279   -9.2096 H   0  0  0  0  0  0  0  0  0  0  0  0
   -7.3930   -3.9582   -9.5888 H   0  0  0  0  0  0  0  0  0  0  0  0
   -5.6311   -3.7576   -9.2411 H   0  0  0  0  0  0  0  0  0  0  0  0
   -5.9953   -0.3080   -3.6824 H   0  0  0  0  0  0  0  0  0  0  0  0
   -6.8848    3.7040   -1.2796 H   0  0  0  0  0  0  0  0  0  0  0  0
   -8.3337    5.6917   -1.0603 H   0  0  0  0  0  0  0  0  0  0  0  0
   -6.5701    6.1190   -0.8928 H   0  0  0  0  0  0  0  0  0  0  0  0
   -7.8344    7.1513   -0.1317 H   0  0  0  0  0  0  0  0  0  0  0  0
   -7.6830    4.4378    5.2878 H   0  0  0  0  0  0  0  0  0  0  0  0
   -8.1232    2.7870    4.7105 H   0  0  0  0  0  0  0  0  0  0  0  0
   -6.3734    3.2741    4.8638 H   0  0  0  0  0  0  0  0  0  0  0  0
   -6.6843    1.4941    3.1845 H   0  0  0  0  0  0  0  0  0  0  0  0
   -6.2413   -2.9048    0.6107 H   0  0  0  0  0  0  0  0  0  0  0  0
   -7.2250   -4.9751   -0.0936 H   0  0  0  0  0  0  0  0  0  0  0  0
   -6.4511   -6.1953   -1.1668 H   0  0  0  0  0  0  0  0  0  0  0  0
   -6.0360   -4.4525   -1.3734 H   0  0  0  0  0  0  0  0  0  0  0  0
   -1.9553   -6.3164    3.5627 H   0  0  0  0  0  0  0  0  0  0  0  0
   -1.5131   -7.3231    2.1341 H   0  0  0  0  0  0  0  0  0  0  0  0
   -0.9679   -5.6034    2.2057 H   0  0  0  0  0  0  0  0  0  0  0  0
   -2.1985   -3.8376    3.3727 H   0  0  0  0  0  0  0  0  0  0  0  0
   -0.8002   -0.5972    2.3353 H   0  0  0  0  0  0  0  0  0  0  0  0
    2.0804   -1.1680   -1.6761 H   0  0  0  0  0  0  0  0  0  0  0  0
    2.5728    0.4789   -2.1696 H   0  0  0  0  0  0  0  0  0  0  0  0
    4.3603   -1.5784   -0.7177 H   0  0  0  0  0  0  0  0  0  0  0  0
    4.4449   -1.1288   -2.4636 H   0  0  0  0  0  0  0  0  0  0  0  0
    4.8610    0.0910   -1.1982 H   0  0  0  0  0  0  0  0  0  0  0  0
   -1.9351    0.8680   11.4904 H   0  0  0  0  0  0  0  0  0  0  0  0
   -0.7977   -0.1309   12.4559 H   0  0  0  0  0  0  0  0  0  0  0  0
   -3.0518   -1.2008   10.6248 H   0  0  0  0  0  0  0  0  0  0  0  0
   -1.8899   -2.2245   11.5676 H   0  0  0  0  0  0  0  0  0  0  0  0
   -3.0615   -1.1608   12.4329 H   0  0  0  0  0  0  0  0  0  0  0  0
    2.8549    1.3783    8.0867 H   0  0  0  0  0  0  0  0  0  0  0  0
    6.8002    4.6963    9.3982 H   0  0  0  0  0  0  0  0  0  0  0  0
    4.9652    3.8536    4.2462 H   0  0  0  0  0  0  0  0  0  0  0  0
    6.1691    4.3074    2.0783 H   0  0  0  0  0  0  0  0  0  0  0  0
    5.8272    5.8488    1.2065 H   0  0  0  0  0  0  0  0  0  0  0  0
    4.5537    5.1356    2.2663 H   0  0  0  0  0  0  0  0  0  0  0  0
    8.4496    9.3730    5.3568 H   0  0  0  0  0  0  0  0  0  0  0  0
    9.0005    8.0369    6.4436 H   0  0  0  0  0  0  0  0  0  0  0  0
    7.3981    8.8576    6.7272 H   0  0  0  0  0  0  0  0  0  0  0  0
    7.4921    6.5116    7.6084 H   0  0  0  0  0  0  0  0  0  0  0  0
  1  2  2  0
  2  3  1  0
  3  4  2  0
  4  5  1  0
  5  6  1  0
  6  7  1  0
  7  8  1  0
  8  9  1  0
  7 10  2  0
 10 11  1  0
 10 12  1  0
 12 13  1  0
  4 14  1  0
 14 15  2  0
 15 16  1  0
 16 17  1  0
 17 18  1  0
 18 19  1  0
 19 20  1  0
 20 21  1  0
 19 22  2  0
 22 23  1  0
 23 24  1  0
 22 25  1  0
 16 26  2  0
 26 27  1  0
 15 28  1  0
 28 29  2  0
 29 30  1  0
 29 31  1  0
 31 32  2  0
 32 33  1  0
 33 34  2  0
 34 35  1  0
 35 36  1  0
 36 37  1  0
 37 38  1  0
 38 39  1  0
 37 40  2  0
 40 41  1  0
 40 42  1  0
 42 43  1  0
 34 44  1  0
 44 45  2  0
 45 46  1  0
 46 47  1  0
 47 48  1  0
 48 49  1  0
 49 50  1  0
 50 51  1  0
 49 52  2  0
 52 53  1  0
 53 54  1  0
 52 55  1  0
 46 56  2  0
 56 57  1  0
 45 58  1  0
 58 59  2  0
 59 60  1  0
 59 61  1  0
 61 62  1  0
 62 63  1  0
 63 64  2  0
 64 65  1  0
 65 66  1  0
 66 67  2  0
 67 68  1  0
 68 69  1  0
 67 70  1  0
 70 71  1  0
 71 72  1  0
 70 73  2  0
 63 74  1  0
 74 75  1  0
 75 76  1  0
 76 77  2  0
 77 78  1  0
 78 79  1  0
 79 80  2  0
 80 81  1  0
 81 82  1  0
 80 83  1  0
 83 84  1  0
 84 85  1  0
 83 86  2  0
 76 87  1  0
 87 88  2  0
 88 89  1  0
 89 90  2  0
 90 91  1  0
 91 92  1  0
 92 93  1  0
 93 94  1  0
 94 95  1  0
 93 96  2  0
 96 97  1  0
 96 98  1  0
 98 99  1  0
 90100  1  0
100101  2  0
101102  1  0
102103  1  0
103104  1  0
104105  1  0
105106  1  0
106107  1  0
105108  2  0
108109  1  0
109110  1  0
108111  1  0
102112  2  0
112113  1  0
101114  1  0
114115  2  0
115116  1  0
115117  1  0
117118  1  0
118119  1  0
119120  2  0
120121  1  0
121122  1  0
122123  2  0
123124  1  0
124125  1  0
123126  1  0
126127  1  0
127128  1  0
126129  2  0
 27  1  1  0
 57 31  1  0
 65 61  2  0
 78 74  2  0
113 87  1  0
121117  2  0
 26  3  1  0
 56 33  1  0
 73 64  1  0
 86 77  1  0
112 89  1  0
129120  1  0
 12  5  2  0
 30 14  1  0
 42 35  2  0
 60 44  1  0
 98 91  2  0
116100  1  0
 23 17  2  0
 53 47  2  0
109103  2  0
  1130  1  0
  2131  1  0
  8132  1  0
  8133  1  0
  9134  1  0
  9135  1  0
  9136  1  0
 20137  1  0
 20138  1  0
 21139  1  0
 21140  1  0
 21141  1  0
 28142  1  0
 32143  1  0
 38144  1  0
 38145  1  0
 39146  1  0
 39147  1  0
 39148  1  0
 50149  1  0
 50150  1  0
 51151  1  0
 51152  1  0
 51153  1  0
 58154  1  0
 66155  1  0
 69156  1  0
 69157  1  0
 69158  1  0
 72159  1  0
 72160  1  0
 72161  1  0
 73162  1  0
 79163  1  0
 82164  1  0
 82165  1  0
 82166  1  0
 85167  1  0
 85168  1  0
 85169  1  0
 86170  1  0
 88171  1  0
 94172  1  0
 94173  1  0
 95174  1  0
 95175  1  0
 95176  1  0
106177  1  0
106178  1  0
107179  1  0
107180  1  0
107181  1  0
114182  1  0
119183  1  0
122184  1  0
125185  1  0
125186  1  0
125187  1  0
128188  1  0
128189  1  0
128190  1  0
129191  1  0
M  END

