
     RDKit          3D

124135  0  0  0  0  0  0  0  0999 V2000
    2.5386    2.3862   -0.6293 C   0  0  0  0  0  0  0  0  0  0  0  0
    2.1210    1.9830    0.5624 C   0  0  0  0  0  0  0  0  0  0  0  0
    3.2690    1.6626    1.4121 C   0  0  0  0  0  0  0  0  0  0  0  0
    4.3827    1.8775    0.7213 C   0  0  0  0  0  0  0  0  0  0  0  0
    3.9973    2.3551   -0.6067 C   0  0  0  0  0  0  0  0  0  0  0  0
    4.8155    2.7801   -1.5751 C   0  0  0  0  0  0  0  0  0  0  0  0
    4.4204    3.3502   -2.8649 C   0  0  0  0  0  0  0  0  0  0  0  0
    5.5202    3.7400   -3.4942 C   0  0  0  0  0  0  0  0  0  0  0  0
    6.6676    3.4356   -2.6452 C   0  0  0  0  0  0  0  0  0  0  0  0
    6.2714    2.8610   -1.5172 C   0  0  0  0  0  0  0  0  0  0  0  0
    8.0251    3.7207   -2.9732 N   0  0  0  0  0  0  0  0  0  0  0  0
    0.7558    2.0348    0.9843 N   0  0  0  0  0  0  0  0  0  0  0  0
    0.3954    1.8631    2.3564 C   0  0  0  0  0  0  0  0  0  0  0  0
    0.1011    0.6961    2.9112 C   0  0  0  0  0  0  0  0  0  0  0  0
   -0.4849    0.9216    4.2349 C   0  0  0  0  0  0  0  0  0  0  0  0
   -0.5671    2.2294    4.4446 C   0  0  0  0  0  0  0  0  0  0  0  0
   -0.0291    2.9231    3.2735 C   0  0  0  0  0  0  0  0  0  0  0  0
    0.0406    4.2502    3.1039 C   0  0  0  0  0  0  0  0  0  0  0  0
    0.6200    4.9814    1.9733 C   0  0  0  0  0  0  0  0  0  0  0  0
    0.4634    6.2788    2.1988 C   0  0  0  0  0  0  0  0  0  0  0  0
   -0.2277    6.4458    3.4747 C   0  0  0  0  0  0  0  0  0  0  0  0
   -0.4746    5.2633    4.0222 C   0  0  0  0  0  0  0  0  0  0  0  0
   -0.6143    7.6997    4.0357 N   0  0  0  0  0  0  0  0  0  0  0  0
    0.1804   -0.5660    2.2401 N   0  0  0  0  0  0  0  0  0  0  0  0
   -0.5487   -1.6978    2.7178 C   0  0  0  0  0  0  0  0  0  0  0  0
   -1.8414   -1.9011    2.5007 C   0  0  0  0  0  0  0  0  0  0  0  0
   -2.2915   -3.0447    3.2976 C   0  0  0  0  0  0  0  0  0  0  0  0
   -1.2652   -3.4994    4.0053 C   0  0  0  0  0  0  0  0  0  0  0  0
   -0.0895   -2.6775    3.7021 C   0  0  0  0  0  0  0  0  0  0  0  0
    1.1187   -2.7794    4.2740 C   0  0  0  0  0  0  0  0  0  0  0  0
    2.3094   -1.9655    4.0078 C   0  0  0  0  0  0  0  0  0  0  0  0
    3.2701   -2.3645    4.8293 C   0  0  0  0  0  0  0  0  0  0  0  0
    2.7492   -3.4503    5.6574 C   0  0  0  0  0  0  0  0  0  0  0  0
    1.4903   -3.7100    5.3373 C   0  0  0  0  0  0  0  0  0  0  0  0
    3.4777   -4.1207    6.6839 N   0  0  0  0  0  0  0  0  0  0  0  0
   -2.6818   -1.0345    1.7264 N   0  0  0  0  0  0  0  0  0  0  0  0
   -4.0859   -1.2632    1.5918 C   0  0  0  0  0  0  0  0  0  0  0  0
   -4.6225   -2.3087    0.9626 C   0  0  0  0  0  0  0  0  0  0  0  0
   -6.0059   -2.4755    1.4009 C   0  0  0  0  0  0  0  0  0  0  0  0
   -6.3005   -1.5254    2.2767 C   0  0  0  0  0  0  0  0  0  0  0  0
   -5.1194   -0.6799    2.4522 C   0  0  0  0  0  0  0  0  0  0  0  0
   -5.0358    0.3988    3.2456 C   0  0  0  0  0  0  0  0  0  0  0  0
   -3.9147    1.3326    3.3760 C   0  0  0  0  0  0  0  0  0  0  0  0
   -4.2541    2.2643    4.2556 C   0  0  0  0  0  0  0  0  0  0  0  0
   -5.6037    1.9771    4.7296 C   0  0  0  0  0  0  0  0  0  0  0  0
   -6.0803    0.8911    4.1399 C   0  0  0  0  0  0  0  0  0  0  0  0
   -6.3172    2.7544    5.6884 N   0  0  0  0  0  0  0  0  0  0  0  0
   -3.9185   -3.2774    0.1725 N   0  0  0  0  0  0  0  0  0  0  0  0
   -2.9646   -2.9459   -0.8538 C   0  0  0  0  0  0  0  0  0  0  0  0
   -2.5254   -1.3865   -1.3287 S   0  0  0  0  0  0  0  0  0  0  0  0
   -1.4668   -1.8418   -2.5532 C   0  0  0  0  0  0  0  0  0  0  0  0
   -1.4484   -3.2373   -2.6163 C   0  0  0  0  0  0  0  0  0  0  0  0
   -2.2885   -3.8543   -1.6745 C   0  0  0  0  0  0  0  0  0  0  0  0
   -2.3688   -5.2513   -1.6109 C   0  0  0  0  0  0  0  0  0  0  0  0
   -1.5963   -6.0345   -2.4961 C   0  0  0  0  0  0  0  0  0  0  0  0
   -1.6393   -7.4368   -2.4723 O   0  0  0  0  0  0  0  0  0  0  0  0
   -2.4666   -8.2057   -1.6040 C   0  0  0  0  0  0  0  0  0  0  0  0
   -0.7499   -5.4126   -3.4365 C   0  0  0  0  0  0  0  0  0  0  0  0
   -0.0109   -6.2290   -4.3066 O   0  0  0  0  0  0  0  0  0  0  0  0
    0.8301   -5.7417   -5.3480 C   0  0  0  0  0  0  0  0  0  0  0  0
   -0.6683   -4.0068   -3.4853 C   0  0  0  0  0  0  0  0  0  0  0  0
   -0.6283   -0.9051   -3.3114 C   0  0  0  0  0  0  0  0  0  0  0  0
    0.4590    0.1763   -2.6167 S   0  0  0  0  0  0  0  0  0  0  0  0
    1.0569    0.8218   -4.0544 C   0  0  0  0  0  0  0  0  0  0  0  0
    0.3884    0.1977   -5.1021 C   0  0  0  0  0  0  0  0  0  0  0  0
   -0.5519   -0.7596   -4.6957 C   0  0  0  0  0  0  0  0  0  0  0  0
   -1.3281   -1.4342   -5.6416 C   0  0  0  0  0  0  0  0  0  0  0  0
   -1.1440   -1.1603   -7.0139 C   0  0  0  0  0  0  0  0  0  0  0  0
   -1.9028   -1.8055   -8.0061 O   0  0  0  0  0  0  0  0  0  0  0  0
   -2.9448   -2.7387   -7.7420 C   0  0  0  0  0  0  0  0  0  0  0  0
   -0.1828   -0.2097   -7.4211 C   0  0  0  0  0  0  0  0  0  0  0  0
   -0.0398    0.0380   -8.7946 O   0  0  0  0  0  0  0  0  0  0  0  0
    0.8618    0.9894   -9.3534 C   0  0  0  0  0  0  0  0  0  0  0  0
    0.5900    0.4710   -6.4546 C   0  0  0  0  0  0  0  0  0  0  0  0
    1.9057    2.7364   -1.4324 H   0  0  0  0  0  0  0  0  0  0  0  0
    3.2300    1.3202    2.4391 H   0  0  0  0  0  0  0  0  0  0  0  0
    5.3856    1.7521    1.1020 H   0  0  0  0  0  0  0  0  0  0  0  0
    3.4162    3.4607   -3.2494 H   0  0  0  0  0  0  0  0  0  0  0  0
    5.5525    4.2155   -4.4669 H   0  0  0  0  0  0  0  0  0  0  0  0
    6.9154    2.5506   -0.7035 H   0  0  0  0  0  0  0  0  0  0  0  0
    8.2618    4.2112   -3.8651 H   0  0  0  0  0  0  0  0  0  0  0  0
    8.7999    3.4552   -2.3235 H   0  0  0  0  0  0  0  0  0  0  0  0
    0.0291    2.3845    0.3214 H   0  0  0  0  0  0  0  0  0  0  0  0
   -0.8352    0.1605    4.9206 H   0  0  0  0  0  0  0  0  0  0  0  0
   -0.9721    2.6855    5.3385 H   0  0  0  0  0  0  0  0  0  0  0  0
    1.1144    4.5735    1.1069 H   0  0  0  0  0  0  0  0  0  0  0  0
    0.7914    7.0721    1.5364 H   0  0  0  0  0  0  0  0  0  0  0  0
   -0.9905    5.0999    4.9569 H   0  0  0  0  0  0  0  0  0  0  0  0
   -0.3478    8.5925    3.5663 H   0  0  0  0  0  0  0  0  0  0  0  0
   -1.2089    7.7314    4.8892 H   0  0  0  0  0  0  0  0  0  0  0  0
    0.6208   -0.6281    1.2952 H   0  0  0  0  0  0  0  0  0  0  0  0
   -3.2946   -3.4469    3.3391 H   0  0  0  0  0  0  0  0  0  0  0  0
   -1.3141   -4.3268    4.6976 H   0  0  0  0  0  0  0  0  0  0  0  0
    2.4216   -1.1806    3.2787 H   0  0  0  0  0  0  0  0  0  0  0  0
    4.2686   -1.9519    4.8707 H   0  0  0  0  0  0  0  0  0  0  0  0
    0.8617   -4.4561    5.8060 H   0  0  0  0  0  0  0  0  0  0  0  0
    3.0260   -4.8672    7.2591 H   0  0  0  0  0  0  0  0  0  0  0  0
    4.4693   -3.8577    6.8811 H   0  0  0  0  0  0  0  0  0  0  0  0
   -2.2754   -0.1780    1.2891 H   0  0  0  0  0  0  0  0  0  0  0  0
   -6.6816   -3.2605    1.0879 H   0  0  0  0  0  0  0  0  0  0  0  0
   -7.2553   -1.4172    2.7751 H   0  0  0  0  0  0  0  0  0  0  0  0
   -2.9812    1.3202    2.8370 H   0  0  0  0  0  0  0  0  0  0  0  0
   -3.6333    3.1017    4.5478 H   0  0  0  0  0  0  0  0  0  0  0  0
   -7.0548    0.4562    4.3144 H   0  0  0  0  0  0  0  0  0  0  0  0
   -5.8772    3.6026    6.1096 H   0  0  0  0  0  0  0  0  0  0  0  0
   -7.2750    2.4749    5.9960 H   0  0  0  0  0  0  0  0  0  0  0  0
   -4.2554   -4.2616    0.2414 H   0  0  0  0  0  0  0  0  0  0  0  0
   -3.0115   -5.7260   -0.8865 H   0  0  0  0  0  0  0  0  0  0  0  0
   -2.2027   -8.0036   -0.5466 H   0  0  0  0  0  0  0  0  0  0  0  0
   -2.3094   -9.2843   -1.8137 H   0  0  0  0  0  0  0  0  0  0  0  0
   -3.5363   -7.9643   -1.7865 H   0  0  0  0  0  0  0  0  0  0  0  0
    1.6433   -5.1221   -4.9256 H   0  0  0  0  0  0  0  0  0  0  0  0
    1.2780   -6.6008   -5.8862 H   0  0  0  0  0  0  0  0  0  0  0  0
    0.2291   -5.1454   -6.0712 H   0  0  0  0  0  0  0  0  0  0  0  0
   -0.0091   -3.5187   -4.1889 H   0  0  0  0  0  0  0  0  0  0  0  0
    1.8162    1.5883   -4.1422 H   0  0  0  0  0  0  0  0  0  0  0  0
   -2.0651   -2.1548   -5.3151 H   0  0  0  0  0  0  0  0  0  0  0  0
   -3.3924   -3.0621   -8.7034 H   0  0  0  0  0  0  0  0  0  0  0  0
   -2.5375   -3.6298   -7.2161 H   0  0  0  0  0  0  0  0  0  0  0  0
   -3.7373   -2.2600   -7.1314 H   0  0  0  0  0  0  0  0  0  0  0  0
    0.6368    2.0054   -8.9597 H   0  0  0  0  0  0  0  0  0  0  0  0
    0.7365    1.0029  -10.4568 H   0  0  0  0  0  0  0  0  0  0  0  0
    1.9086    0.7098   -9.1149 H   0  0  0  0  0  0  0  0  0  0  0  0
    1.3261    1.2070   -6.7459 H   0  0  0  0  0  0  0  0  0  0  0  0
  1  2  2  0
  2  3  1  0
  3  4  2  0
  4  5  1  0
  5  6  2  0
  6  7  1  0
  7  8  2  0
  8  9  1  0
  9 10  2  0
  9 11  1  0
  2 12  1  0
 12 13  1  0
 13 14  2  0
 14 15  1  0
 15 16  2  0
 16 17  1  0
 17 18  2  0
 18 19  1  0
 19 20  2  0
 20 21  1  0
 21 22  2  0
 21 23  1  0
 14 24  1  0
 24 25  1  0
 25 26  2  0
 26 27  1  0
 27 28  2  0
 28 29  1  0
 29 30  2  0
 30 31  1  0
 31 32  2  0
 32 33  1  0
 33 34  2  0
 33 35  1  0
 26 36  1  0
 36 37  1  0
 37 38  2  0
 38 39  1  0
 39 40  2  0
 40 41  1  0
 41 42  2  0
 42 43  1  0
 43 44  2  0
 44 45  1  0
 45 46  2  0
 45 47  1  0
 38 48  1  0
 48 49  1  0
 49 50  1  0
 50 51  1  0
 51 52  2  0
 52 53  1  0
 53 54  1  0
 54 55  2  0
 55 56  1  0
 56 57  1  0
 55 58  1  0
 58 59  1  0
 59 60  1  0
 58 61  2  0
 51 62  1  0
 62 63  1  0
 63 64  1  0
 64 65  2  0
 65 66  1  0
 66 67  1  0
 67 68  2  0
 68 69  1  0
 69 70  1  0
 68 71  1  0
 71 72  1  0
 72 73  1  0
 71 74  2  0
  5  1  1  0
 10  6  1  0
 17 13  1  0
 22 18  1  0
 29 25  1  0
 34 30  1  0
 41 37  1  0
 46 42  1  0
 53 49  2  0
 66 62  2  0
 61 52  1  0
 74 65  1  0
  1 75  1  0
  3 76  1  0
  4 77  1  0
  7 78  1  0
  8 79  1  0
 10 80  1  0
 11 81  1  0
 11 82  1  0
 12 83  1  0
 15 84  1  0
 16 85  1  0
 19 86  1  0
 20 87  1  0
 22 88  1  0
 23 89  1  0
 23 90  1  0
 24 91  1  0
 27 92  1  0
 28 93  1  0
 31 94  1  0
 32 95  1  0
 34 96  1  0
 35 97  1  0
 35 98  1  0
 36 99  1  0
 39100  1  0
 40101  1  0
 43102  1  0
 44103  1  0
 46104  1  0
 47105  1  0
 47106  1  0
 48107  1  0
 54108  1  0
 57109  1  0
 57110  1  0
 57111  1  0
 60112  1  0
 60113  1  0
 60114  1  0
 61115  1  0
 64116  1  0
 67117  1  0
 70118  1  0
 70119  1  0
 70120  1  0
 73121  1  0
 73122  1  0
 73123  1  0
 74124  1  0
M  END

