
     RDKit          3D

191211  0  0  0  0  0  0  0  0999 V2000
    6.1950   -9.4282    9.9543 C   0  0  0  0  0  0  0  0  0  0  0  0
    7.0500   -8.5469    9.2988 C   0  0  0  0  0  0  0  0  0  0  0  0
    6.3774   -7.4892    8.6684 C   0  0  0  0  0  0  0  0  0  0  0  0
    6.9695   -6.4351    7.9427 C   0  0  0  0  0  0  0  0  0  0  0  0
    8.4162   -6.3875    7.6585 C   0  0  0  0  0  0  0  0  0  0  0  0
    9.4477   -5.1409    8.1192 S   0  0  0  0  0  0  0  0  0  0  0  0
   10.8166   -5.7482    7.3517 C   0  0  0  0  0  0  0  0  0  0  0  0
   12.1415   -5.0557    7.2984 C   0  0  0  0  0  0  0  0  0  0  0  0
   12.2536   -4.1928    6.0452 C   0  0  0  0  0  0  0  0  0  0  0  0
   10.4717   -6.9261    6.6900 C   0  0  0  0  0  0  0  0  0  0  0  0
   11.5930   -7.8423    5.6934 Cl  0  0  0  0  0  0  0  0  0  0  0  0
    9.1266   -7.2838    6.8632 C   0  0  0  0  0  0  0  0  0  0  0  0
    8.3906   -8.6797    6.0825 Cl  0  0  0  0  0  0  0  0  0  0  0  0
    6.1038   -5.4570    7.4282 C   0  0  0  0  0  0  0  0  0  0  0  0
    4.7129   -5.5279    7.5776 C   0  0  0  0  0  0  0  0  0  0  0  0
    4.1244   -6.5841    8.2972 C   0  0  0  0  0  0  0  0  0  0  0  0
    2.6697   -6.6813    8.4849 C   0  0  0  0  0  0  0  0  0  0  0  0
    1.7732   -5.7242    9.5355 S   0  0  0  0  0  0  0  0  0  0  0  0
    0.2973   -6.4790    9.2452 C   0  0  0  0  0  0  0  0  0  0  0  0
   -0.9724   -6.1728    9.9799 C   0  0  0  0  0  0  0  0  0  0  0  0
   -1.1308   -7.0939   11.1853 C   0  0  0  0  0  0  0  0  0  0  0  0
    0.4994   -7.5194    8.3352 C   0  0  0  0  0  0  0  0  0  0  0  0
    1.8301   -7.6299    7.9067 C   0  0  0  0  0  0  0  0  0  0  0  0
    2.3798   -8.8289    6.7471 Cl  0  0  0  0  0  0  0  0  0  0  0  0
   -0.7831   -8.5926    7.7862 Cl  0  0  0  0  0  0  0  0  0  0  0  0
    4.9912   -7.5464    8.8364 C   0  0  0  0  0  0  0  0  0  0  0  0
    4.6050   -8.8959    9.7614 S   0  0  0  0  0  0  0  0  0  0  0  0
    4.0314   -4.5156    6.8865 C   0  0  0  0  0  0  0  0  0  0  0  0
    4.8912   -3.6454    6.2160 C   0  0  0  0  0  0  0  0  0  0  0  0
    6.4870   -4.1353    6.4663 S   0  0  0  0  0  0  0  0  0  0  0  0
    4.4917   -2.6124    5.2553 C   0  0  0  0  0  0  0  0  0  0  0  0
    5.3189   -1.6028    4.7646 C   0  0  0  0  0  0  0  0  0  0  0  0
    4.7543   -0.9126    3.6802 C   0  0  0  0  0  0  0  0  0  0  0  0
    5.3763    0.1035    2.9159 C   0  0  0  0  0  0  0  0  0  0  0  0
    6.6612    0.6999    3.3253 C   0  0  0  0  0  0  0  0  0  0  0  0
    8.0634    0.7182    2.3912 S   0  0  0  0  0  0  0  0  0  0  0  0
    9.0186    1.5301    3.5150 C   0  0  0  0  0  0  0  0  0  0  0  0
   10.4702    1.8466    3.3259 C   0  0  0  0  0  0  0  0  0  0  0  0
   11.3449    0.7244    3.8724 C   0  0  0  0  0  0  0  0  0  0  0  0
    8.2505    1.7890    4.6488 C   0  0  0  0  0  0  0  0  0  0  0  0
    8.8705    2.6005    6.0787 Cl  0  0  0  0  0  0  0  0  0  0  0  0
    6.9271    1.3328    4.5386 C   0  0  0  0  0  0  0  0  0  0  0  0
    5.7160    1.5825    5.7922 Cl  0  0  0  0  0  0  0  0  0  0  0  0
    4.7190    0.4989    1.7358 C   0  0  0  0  0  0  0  0  0  0  0  0
    3.4857   -0.0420    1.3562 C   0  0  0  0  0  0  0  0  0  0  0  0
    2.8313   -0.9887    2.1612 C   0  0  0  0  0  0  0  0  0  0  0  0
    1.5551   -1.5960    1.7497 C   0  0  0  0  0  0  0  0  0  0  0  0
    0.0408   -1.0937    2.2627 S   0  0  0  0  0  0  0  0  0  0  0  0
   -0.8348   -2.2353    1.3807 C   0  0  0  0  0  0  0  0  0  0  0  0
   -2.3322   -2.2830    1.2786 C   0  0  0  0  0  0  0  0  0  0  0  0
   -3.0019   -2.1785    2.6462 C   0  0  0  0  0  0  0  0  0  0  0  0
    0.0698   -3.0221    0.6615 C   0  0  0  0  0  0  0  0  0  0  0  0
    1.4076   -2.6667    0.8736 C   0  0  0  0  0  0  0  0  0  0  0  0
    2.7575   -3.4405    0.0605 Cl  0  0  0  0  0  0  0  0  0  0  0  0
   -0.4117   -4.3196   -0.4199 Cl  0  0  0  0  0  0  0  0  0  0  0  0
    3.4995   -1.4096    3.3152 C   0  0  0  0  0  0  0  0  0  0  0  0
    3.0680   -2.6663    4.3484 S   0  0  0  0  0  0  0  0  0  0  0  0
    3.0381    0.4120    0.1173 C   0  0  0  0  0  0  0  0  0  0  0  0
    3.9088    1.3132   -0.4825 C   0  0  0  0  0  0  0  0  0  0  0  0
    5.2343    1.5748    0.5313 S   0  0  0  0  0  0  0  0  0  0  0  0
    3.7137    1.8046   -1.8491 C   0  0  0  0  0  0  0  0  0  0  0  0
    3.2323    0.9636   -2.8458 C   0  0  0  0  0  0  0  0  0  0  0  0
    2.4559    1.6128   -3.8122 C   0  0  0  0  0  0  0  0  0  0  0  0
    1.6125    0.9623   -4.7305 C   0  0  0  0  0  0  0  0  0  0  0  0
    1.5893   -0.5132   -4.8320 C   0  0  0  0  0  0  0  0  0  0  0  0
    0.3500   -1.4973   -4.2527 S   0  0  0  0  0  0  0  0  0  0  0  0
    1.1281   -2.9591   -4.5503 C   0  0  0  0  0  0  0  0  0  0  0  0
    0.5193   -4.3081   -4.3080 C   0  0  0  0  0  0  0  0  0  0  0  0
   -0.3171   -4.7422   -5.5054 C   0  0  0  0  0  0  0  0  0  0  0  0
    2.3739   -2.6937   -5.1227 C   0  0  0  0  0  0  0  0  0  0  0  0
    3.5050   -3.9500   -5.6023 Cl  0  0  0  0  0  0  0  0  0  0  0  0
    2.6392   -1.3239   -5.2625 C   0  0  0  0  0  0  0  0  0  0  0  0
    4.1347   -0.6916   -5.9350 Cl  0  0  0  0  0  0  0  0  0  0  0  0
    0.6381    1.7529   -5.3522 C   0  0  0  0  0  0  0  0  0  0  0  0
    0.5247    3.1330   -5.1401 C   0  0  0  0  0  0  0  0  0  0  0  0
    1.4488    3.8028   -4.3024 C   0  0  0  0  0  0  0  0  0  0  0  0
    1.4212    5.2650   -4.0796 C   0  0  0  0  0  0  0  0  0  0  0  0
    0.1250    6.1518   -3.4709 S   0  0  0  0  0  0  0  0  0  0  0  0
    0.9029    7.6451   -3.4732 C   0  0  0  0  0  0  0  0  0  0  0  0
    0.2553    8.9529   -3.1346 C   0  0  0  0  0  0  0  0  0  0  0  0
   -0.2676    9.6364   -4.3941 C   0  0  0  0  0  0  0  0  0  0  0  0
    2.2014    7.4678   -3.9488 C   0  0  0  0  0  0  0  0  0  0  0  0
    2.4965    6.1340   -4.2776 C   0  0  0  0  0  0  0  0  0  0  0  0
    4.0432    5.6304   -4.9512 Cl  0  0  0  0  0  0  0  0  0  0  0  0
    3.3535    8.7807   -4.1480 Cl  0  0  0  0  0  0  0  0  0  0  0  0
    2.3777    2.9951   -3.6139 C   0  0  0  0  0  0  0  0  0  0  0  0
    3.2288    3.3843   -2.2064 S   0  0  0  0  0  0  0  0  0  0  0  0
   -0.6607    3.6712   -5.6798 C   0  0  0  0  0  0  0  0  0  0  0  0
   -1.4857    2.7049   -6.2641 C   0  0  0  0  0  0  0  0  0  0  0  0
   -0.7127    1.2127   -6.1782 S   0  0  0  0  0  0  0  0  0  0  0  0
   -2.9519    2.8123   -6.3413 C   0  0  0  0  0  0  0  0  0  0  0  0
   -3.9670    1.6475   -5.6656 S   0  0  0  0  0  0  0  0  0  0  0  0
   -5.3861    2.5404   -5.6876 C   0  0  0  0  0  0  0  0  0  0  0  0
   -5.0907    3.7829   -6.2539 C   0  0  0  0  0  0  0  0  0  0  0  0
   -3.7360    3.9375   -6.6111 C   0  0  0  0  0  0  0  0  0  0  0  0
   -3.2882    5.1248   -7.1967 C   0  0  0  0  0  0  0  0  0  0  0  0
   -4.1972    6.1844   -7.4015 C   0  0  0  0  0  0  0  0  0  0  0  0
   -3.8018    7.3930   -7.9947 O   0  0  0  0  0  0  0  0  0  0  0  0
   -2.5427    7.6123   -8.6176 C   0  0  0  0  0  0  0  0  0  0  0  0
   -5.5447    6.0427   -7.0146 C   0  0  0  0  0  0  0  0  0  0  0  0
   -6.4005    7.1408   -7.1946 O   0  0  0  0  0  0  0  0  0  0  0  0
   -7.7461    7.1962   -6.7330 C   0  0  0  0  0  0  0  0  0  0  0  0
   -5.9994    4.8237   -6.4685 C   0  0  0  0  0  0  0  0  0  0  0  0
   -6.6197    2.0854   -5.0239 C   0  0  0  0  0  0  0  0  0  0  0  0
   -7.1899    0.5048   -5.1095 S   0  0  0  0  0  0  0  0  0  0  0  0
   -8.3516    0.6061   -3.8916 C   0  0  0  0  0  0  0  0  0  0  0  0
   -8.2888    1.9046   -3.3780 C   0  0  0  0  0  0  0  0  0  0  0  0
   -7.3007    2.7127   -3.9746 C   0  0  0  0  0  0  0  0  0  0  0  0
   -7.0104    3.9734   -3.4439 C   0  0  0  0  0  0  0  0  0  0  0  0
   -7.7923    4.4868   -2.3890 C   0  0  0  0  0  0  0  0  0  0  0  0
   -7.5470    5.7522   -1.8359 O   0  0  0  0  0  0  0  0  0  0  0  0
   -6.4770    6.6089   -2.2291 C   0  0  0  0  0  0  0  0  0  0  0  0
   -8.8477    3.7190   -1.8583 C   0  0  0  0  0  0  0  0  0  0  0  0
   -9.6436    4.2892   -0.8550 O   0  0  0  0  0  0  0  0  0  0  0  0
  -10.7508    3.6359   -0.2365 C   0  0  0  0  0  0  0  0  0  0  0  0
   -9.0788    2.4122   -2.3401 C   0  0  0  0  0  0  0  0  0  0  0  0
   -8.9906   -0.5718   -3.2649 C   0  0  0  0  0  0  0  0  0  0  0  0
   -9.0213   -0.8562   -1.6001 S   0  0  0  0  0  0  0  0  0  0  0  0
   -9.5862   -2.4378   -1.6490 C   0  0  0  0  0  0  0  0  0  0  0  0
   -9.7363   -2.7791   -2.9854 C   0  0  0  0  0  0  0  0  0  0  0  0
   -9.4124   -1.7511   -3.8886 C   0  0  0  0  0  0  0  0  0  0  0  0
   -9.5377   -1.9653   -5.2649 C   0  0  0  0  0  0  0  0  0  0  0  0
   -9.9602   -3.2287   -5.7392 C   0  0  0  0  0  0  0  0  0  0  0  0
  -10.1147   -3.4957   -7.1084 O   0  0  0  0  0  0  0  0  0  0  0  0
   -9.9384   -2.5343   -8.1420 C   0  0  0  0  0  0  0  0  0  0  0  0
  -10.2426   -4.2673   -4.8258 C   0  0  0  0  0  0  0  0  0  0  0  0
  -10.6183   -5.5191   -5.3387 O   0  0  0  0  0  0  0  0  0  0  0  0
  -10.8626   -6.6748   -4.5447 C   0  0  0  0  0  0  0  0  0  0  0  0
  -10.1388   -4.0335   -3.4390 C   0  0  0  0  0  0  0  0  0  0  0  0
    6.5006  -10.3043   10.5094 H   0  0  0  0  0  0  0  0  0  0  0  0
    8.1258   -8.6738    9.2942 H   0  0  0  0  0  0  0  0  0  0  0  0
   12.9607   -5.8065    7.3109 H   0  0  0  0  0  0  0  0  0  0  0  0
   12.2589   -4.4095    8.1959 H   0  0  0  0  0  0  0  0  0  0  0  0
   11.4563   -3.4218    6.0346 H   0  0  0  0  0  0  0  0  0  0  0  0
   12.1653   -4.8224    5.1345 H   0  0  0  0  0  0  0  0  0  0  0  0
   13.2426   -3.6850    6.0291 H   0  0  0  0  0  0  0  0  0  0  0  0
   -1.8429   -6.2916    9.3006 H   0  0  0  0  0  0  0  0  0  0  0  0
   -0.9542   -5.1192   10.3283 H   0  0  0  0  0  0  0  0  0  0  0  0
   -0.2719   -6.9682   11.8759 H   0  0  0  0  0  0  0  0  0  0  0  0
   -1.1831   -8.1554   10.8602 H   0  0  0  0  0  0  0  0  0  0  0  0
   -2.0648   -6.8417   11.7303 H   0  0  0  0  0  0  0  0  0  0  0  0
    2.9515   -4.4418    6.8350 H   0  0  0  0  0  0  0  0  0  0  0  0
    6.3156   -1.4233    5.1420 H   0  0  0  0  0  0  0  0  0  0  0  0
   10.7164    2.7992    3.8409 H   0  0  0  0  0  0  0  0  0  0  0  0
   10.6805    1.9796    2.2449 H   0  0  0  0  0  0  0  0  0  0  0  0
   11.1586    0.5798    4.9592 H   0  0  0  0  0  0  0  0  0  0  0  0
   11.1351   -0.2223    3.3329 H   0  0  0  0  0  0  0  0  0  0  0  0
   12.4146    0.9839    3.7269 H   0  0  0  0  0  0  0  0  0  0  0  0
   -2.6784   -1.4433    0.6336 H   0  0  0  0  0  0  0  0  0  0  0  0
   -2.6588   -3.2336    0.8044 H   0  0  0  0  0  0  0  0  0  0  0  0
   -2.6284   -2.9805    3.3215 H   0  0  0  0  0  0  0  0  0  0  0  0
   -4.0993   -2.2973    2.5319 H   0  0  0  0  0  0  0  0  0  0  0  0
   -2.8030   -1.1849    3.0993 H   0  0  0  0  0  0  0  0  0  0  0  0
    2.1235    0.0713   -0.3557 H   0  0  0  0  0  0  0  0  0  0  0  0
    3.2903   -0.1136   -2.7584 H   0  0  0  0  0  0  0  0  0  0  0  0
    1.3125   -5.0590   -4.1243 H   0  0  0  0  0  0  0  0  0  0  0  0
   -0.1250   -4.2676   -3.4048 H   0  0  0  0  0  0  0  0  0  0  0  0
   -0.7834   -5.7291   -5.2978 H   0  0  0  0  0  0  0  0  0  0  0  0
   -1.1205   -4.0008   -5.7100 H   0  0  0  0  0  0  0  0  0  0  0  0
    0.3308   -4.8389   -6.4052 H   0  0  0  0  0  0  0  0  0  0  0  0
   -0.5875    8.7821   -2.4301 H   0  0  0  0  0  0  0  0  0  0  0  0
    0.9906    9.6142   -2.6319 H   0  0  0  0  0  0  0  0  0  0  0  0
    0.5568    9.7770   -5.1295 H   0  0  0  0  0  0  0  0  0  0  0  0
   -0.6773   10.6332   -4.1336 H   0  0  0  0  0  0  0  0  0  0  0  0
   -1.0719    9.0272   -4.8560 H   0  0  0  0  0  0  0  0  0  0  0  0
   -0.9848    4.6874   -5.5148 H   0  0  0  0  0  0  0  0  0  0  0  0
   -2.2553    5.2172   -7.4980 H   0  0  0  0  0  0  0  0  0  0  0  0
   -1.7231    7.5362   -7.8727 H   0  0  0  0  0  0  0  0  0  0  0  0
   -2.3866    6.8739   -9.4317 H   0  0  0  0  0  0  0  0  0  0  0  0
   -2.5221    8.6309   -9.0554 H   0  0  0  0  0  0  0  0  0  0  0  0
   -8.1658    8.1986   -6.9627 H   0  0  0  0  0  0  0  0  0  0  0  0
   -7.7791    7.0409   -5.6336 H   0  0  0  0  0  0  0  0  0  0  0  0
   -8.3628    6.4318   -7.2467 H   0  0  0  0  0  0  0  0  0  0  0  0
   -7.0372    4.6913   -6.2057 H   0  0  0  0  0  0  0  0  0  0  0  0
   -6.1827    4.5447   -3.8309 H   0  0  0  0  0  0  0  0  0  0  0  0
   -6.5734    6.8737   -3.3022 H   0  0  0  0  0  0  0  0  0  0  0  0
   -6.5185    7.5381   -1.6277 H   0  0  0  0  0  0  0  0  0  0  0  0
   -5.5029    6.1093   -2.0431 H   0  0  0  0  0  0  0  0  0  0  0  0
  -11.4971    3.3520   -1.0049 H   0  0  0  0  0  0  0  0  0  0  0  0
  -10.4060    2.7403    0.3157 H   0  0  0  0  0  0  0  0  0  0  0  0
  -11.2314    4.3338    0.4758 H   0  0  0  0  0  0  0  0  0  0  0  0
   -9.8724    1.8085   -1.9288 H   0  0  0  0  0  0  0  0  0  0  0  0
   -9.7666   -3.0805   -0.7964 H   0  0  0  0  0  0  0  0  0  0  0  0
   -9.3222   -1.1640   -5.9557 H   0  0  0  0  0  0  0  0  0  0  0  0
  -10.6338   -1.6816   -7.9886 H   0  0  0  0  0  0  0  0  0  0  0  0
  -10.1682   -3.0123   -9.1155 H   0  0  0  0  0  0  0  0  0  0  0  0
   -8.8865   -2.1760   -8.1535 H   0  0  0  0  0  0  0  0  0  0  0  0
  -11.1190   -7.5234   -5.2105 H   0  0  0  0  0  0  0  0  0  0  0  0
   -9.9530   -6.9372   -3.9659 H   0  0  0  0  0  0  0  0  0  0  0  0
  -11.7151   -6.4933   -3.8556 H   0  0  0  0  0  0  0  0  0  0  0  0
  -10.3605   -4.8119   -2.7214 H   0  0  0  0  0  0  0  0  0  0  0  0
  1  2  2  0
  2  3  1  0
  3  4  2  0
  4  5  1  0
  5  6  1  0
  6  7  1  0
  7  8  1  0
  8  9  1  0
  7 10  2  0
 10 11  1  0
 10 12  1  0
 12 13  1  0
  4 14  1  0
 14 15  2  0
 15 16  1  0
 16 17  1  0
 17 18  1  0
 18 19  1  0
 19 20  1  0
 20 21  1  0
 19 22  2  0
 22 23  1  0
 23 24  1  0
 22 25  1  0
 16 26  2  0
 26 27  1  0
 15 28  1  0
 28 29  2  0
 29 30  1  0
 29 31  1  0
 31 32  2  0
 32 33  1  0
 33 34  2  0
 34 35  1  0
 35 36  1  0
 36 37  1  0
 37 38  1  0
 38 39  1  0
 37 40  2  0
 40 41  1  0
 40 42  1  0
 42 43  1  0
 34 44  1  0
 44 45  2  0
 45 46  1  0
 46 47  1  0
 47 48  1  0
 48 49  1  0
 49 50  1  0
 50 51  1  0
 49 52  2  0
 52 53  1  0
 53 54  1  0
 52 55  1  0
 46 56  2  0
 56 57  1  0
 45 58  1  0
 58 59  2  0
 59 60  1  0
 59 61  1  0
 61 62  2  0
 62 63  1  0
 63 64  2  0
 64 65  1  0
 65 66  1  0
 66 67  1  0
 67 68  1  0
 68 69  1  0
 67 70  2  0
 70 71  1  0
 70 72  1  0
 72 73  1  0
 64 74  1  0
 74 75  2  0
 75 76  1  0
 76 77  1  0
 77 78  1  0
 78 79  1  0
 79 80  1  0
 80 81  1  0
 79 82  2  0
 82 83  1  0
 83 84  1  0
 82 85  1  0
 76 86  2  0
 86 87  1  0
 75 88  1  0
 88 89  2  0
 89 90  1  0
 89 91  1  0
 91 92  1  0
 92 93  1  0
 93 94  2  0
 94 95  1  0
 95 96  1  0
 96 97  2  0
 97 98  1  0
 98 99  1  0
 97100  1  0
100101  1  0
101102  1  0
100103  2  0
 93104  1  0
104105  1  0
105106  1  0
106107  2  0
107108  1  0
108109  1  0
109110  2  0
110111  1  0
111112  1  0
110113  1  0
113114  1  0
114115  1  0
113116  2  0
106117  1  0
117118  1  0
118119  1  0
119120  2  0
120121  1  0
121122  1  0
122123  2  0
123124  1  0
124125  1  0
123126  1  0
126127  1  0
127128  1  0
126129  2  0
 27  1  1  0
 57 31  1  0
 87 61  1  0
 95 91  2  0
108104  2  0
121117  2  0
 26  3  1  0
 56 33  1  0
 86 63  1  0
103 94  1  0
116107  1  0
129120  1  0
 12  5  2  0
 30 14  1  0
 42 35  2  0
 60 44  1  0
 72 65  2  0
 90 74  1  0
 23 17  2  0
 53 47  2  0
 83 77  2  0
  1130  1  0
  2131  1  0
  8132  1  0
  8133  1  0
  9134  1  0
  9135  1  0
  9136  1  0
 20137  1  0
 20138  1  0
 21139  1  0
 21140  1  0
 21141  1  0
 28142  1  0
 32143  1  0
 38144  1  0
 38145  1  0
 39146  1  0
 39147  1  0
 39148  1  0
 50149  1  0
 50150  1  0
 51151  1  0
 51152  1  0
 51153  1  0
 58154  1  0
 62155  1  0
 68156  1  0
 68157  1  0
 69158  1  0
 69159  1  0
 69160  1  0
 80161  1  0
 80162  1  0
 81163  1  0
 81164  1  0
 81165  1  0
 88166  1  0
 96167  1  0
 99168  1  0
 99169  1  0
 99170  1  0
102171  1  0
102172  1  0
102173  1  0
103174  1  0
109175  1  0
112176  1  0
112177  1  0
112178  1  0
115179  1  0
115180  1  0
115181  1  0
116182  1  0
119183  1  0
122184  1  0
125185  1  0
125186  1  0
125187  1  0
128188  1  0
128189  1  0
128190  1  0
129191  1  0
M  END

