
     RDKit          3D

 96103  0  0  0  0  0  0  0  0999 V2000
    5.4700   -1.4606    2.6261 C   0  0  0  0  0  0  0  0  0  0  0  0
    6.0427   -2.7473    1.6989 S   0  0  0  0  0  0  0  0  0  0  0  0
    5.0207   -2.4847    0.3884 C   0  0  0  0  0  0  0  0  0  0  0  0
    4.9895   -3.2824   -0.8023 N   0  0  0  0  0  4  0  0  0  0  0  0
    5.8063   -4.3876   -0.9167 O   0  0  0  0  0  1  0  0  0  0  0  0
    4.2170   -2.9933   -1.7408 O   0  0  0  0  0  0  0  0  0  0  0  0
    4.2071   -1.3923    0.6512 C   0  0  0  0  0  0  0  0  0  0  0  0
    4.4681   -0.8054    1.9110 C   0  0  0  0  0  0  0  0  0  0  0  0
    3.7183    0.3283    2.4970 C   0  0  0  0  0  0  0  0  0  0  0  0
    2.8722    1.0790    1.7886 C   0  0  0  0  0  0  0  0  0  0  0  0
    2.0078    2.1119    2.3951 C   0  0  0  0  0  0  0  0  0  0  0  0
    1.5390    3.5042    1.5662 S   0  0  0  0  0  0  0  0  0  0  0  0
    0.5736    4.1177    2.7956 C   0  0  0  0  0  0  0  0  0  0  0  0
   -0.1736    5.3354    2.7258 N   0  0  0  0  0  4  0  0  0  0  0  0
   -0.9516    5.7404    3.7898 O   0  0  0  0  0  1  0  0  0  0  0  0
   -0.1222    6.0410    1.6986 O   0  0  0  0  0  0  0  0  0  0  0  0
    0.5806    3.2384    3.8695 C   0  0  0  0  0  0  0  0  0  0  0  0
    1.3681    2.1013    3.6489 C   0  0  0  0  0  0  0  0  0  0  0  0
    1.4856    1.0597    4.6899 C   0  0  0  0  0  0  0  0  0  0  0  0
    1.3068   -0.2571    4.5099 C   0  0  0  0  0  0  0  0  0  0  0  0
    0.8509   -0.9034    3.2601 C   0  0  0  0  0  0  0  0  0  0  0  0
   -0.3151   -0.3213    2.1947 S   0  0  0  0  0  0  0  0  0  0  0  0
   -0.4025   -1.6721    1.1813 C   0  0  0  0  0  0  0  0  0  0  0  0
    0.5101   -2.6140    1.6798 C   0  0  0  0  0  0  0  0  0  0  0  0
    1.2035   -2.1806    2.8276 C   0  0  0  0  0  0  0  0  0  0  0  0
    2.1830   -2.9897    3.4154 C   0  0  0  0  0  0  0  0  0  0  0  0
    2.4630   -4.2555    2.8634 C   0  0  0  0  0  0  0  0  0  0  0  0
    3.4548   -5.0944    3.3933 O   0  0  0  0  0  0  0  0  0  0  0  0
    4.2395   -4.7933    4.5432 C   0  0  0  0  0  0  0  0  0  0  0  0
    1.7403   -4.7137    1.7477 C   0  0  0  0  0  0  0  0  0  0  0  0
    2.0387   -5.9941    1.2509 O   0  0  0  0  0  0  0  0  0  0  0  0
    1.3824   -6.6120    0.1475 C   0  0  0  0  0  0  0  0  0  0  0  0
    0.7541   -3.8943    1.1622 C   0  0  0  0  0  0  0  0  0  0  0  0
   -1.2287   -1.7668   -0.0508 C   0  0  0  0  0  0  0  0  0  0  0  0
   -0.7464   -2.5486   -1.4681 S   0  0  0  0  0  0  0  0  0  0  0  0
   -2.0533   -2.1134   -2.4272 C   0  0  0  0  0  0  0  0  0  0  0  0
   -2.8883   -1.3046   -1.6578 C   0  0  0  0  0  0  0  0  0  0  0  0
   -2.4367   -1.1126   -0.3381 C   0  0  0  0  0  0  0  0  0  0  0  0
   -3.2008   -0.3471    0.5517 C   0  0  0  0  0  0  0  0  0  0  0  0
   -4.3800    0.2844    0.1028 C   0  0  0  0  0  0  0  0  0  0  0  0
   -5.1556    1.0960    0.9471 O   0  0  0  0  0  0  0  0  0  0  0  0
   -4.8341    1.3996    2.3056 C   0  0  0  0  0  0  0  0  0  0  0  0
   -4.8082    0.1149   -1.2256 C   0  0  0  0  0  0  0  0  0  0  0  0
   -5.9650    0.7940   -1.6413 O   0  0  0  0  0  0  0  0  0  0  0  0
   -6.4312    0.8455   -2.9863 C   0  0  0  0  0  0  0  0  0  0  0  0
   -4.0752   -0.7103   -2.0988 C   0  0  0  0  0  0  0  0  0  0  0  0
   -2.1611   -2.4102   -3.8668 C   0  0  0  0  0  0  0  0  0  0  0  0
   -2.1673   -3.9671   -4.5000 S   0  0  0  0  0  0  0  0  0  0  0  0
   -2.4191   -3.4932   -6.0938 C   0  0  0  0  0  0  0  0  0  0  0  0
   -2.4913   -4.3879   -7.2087 N   0  0  0  0  0  4  0  0  0  0  0  0
   -2.3353   -5.7396   -7.0157 O   0  0  0  0  0  1  0  0  0  0  0  0
   -2.6790   -3.9509   -8.3631 O   0  0  0  0  0  0  0  0  0  0  0  0
   -2.4921   -2.1060   -6.1636 C   0  0  0  0  0  0  0  0  0  0  0  0
   -2.3205   -1.4889   -4.9174 C   0  0  0  0  0  0  0  0  0  0  0  0
   -2.2804   -0.0168   -4.7782 C   0  0  0  0  0  0  0  0  0  0  0  0
   -1.4667    0.5740   -3.8986 C   0  0  0  0  0  0  0  0  0  0  0  0
   -1.4879    2.0169   -3.6035 C   0  0  0  0  0  0  0  0  0  0  0  0
   -2.5036    3.1603   -4.3200 S   0  0  0  0  0  0  0  0  0  0  0  0
   -2.0539    4.4386   -3.3189 C   0  0  0  0  0  0  0  0  0  0  0  0
   -2.5727    5.7715   -3.3970 N   0  0  0  0  0  4  0  0  0  0  0  0
   -2.1219    6.7505   -2.5383 O   0  0  0  0  0  1  0  0  0  0  0  0
   -3.4290    6.0602   -4.2568 O   0  0  0  0  0  0  0  0  0  0  0  0
   -1.1195    3.9938   -2.3950 C   0  0  0  0  0  0  0  0  0  0  0  0
   -0.7875    2.6412   -2.5589 C   0  0  0  0  0  0  0  0  0  0  0  0
    0.1582    1.9739   -1.6474 C   0  0  0  0  0  0  0  0  0  0  0  0
    1.1585    1.2109   -2.0896 C   0  0  0  0  0  0  0  0  0  0  0  0
    5.8051   -1.2141    3.6250 H   0  0  0  0  0  0  0  0  0  0  0  0
    3.4359   -1.0649   -0.0376 H   0  0  0  0  0  0  0  0  0  0  0  0
    3.8610    0.5359    3.5522 H   0  0  0  0  0  0  0  0  0  0  0  0
    2.8240    0.9713    0.7155 H   0  0  0  0  0  0  0  0  0  0  0  0
    0.0162    3.4051    4.7778 H   0  0  0  0  0  0  0  0  0  0  0  0
    1.7249    1.3994    5.6888 H   0  0  0  0  0  0  0  0  0  0  0  0
    1.4911   -0.8993    5.3657 H   0  0  0  0  0  0  0  0  0  0  0  0
    2.7305   -2.6324    4.2777 H   0  0  0  0  0  0  0  0  0  0  0  0
    4.9210   -5.6442    4.7478 H   0  0  0  0  0  0  0  0  0  0  0  0
    4.8494   -3.8818    4.3708 H   0  0  0  0  0  0  0  0  0  0  0  0
    3.5783   -4.6447    5.4233 H   0  0  0  0  0  0  0  0  0  0  0  0
    0.3016   -6.7364    0.3706 H   0  0  0  0  0  0  0  0  0  0  0  0
    1.8284   -7.6150   -0.0178 H   0  0  0  0  0  0  0  0  0  0  0  0
    1.5196   -6.0057   -0.7720 H   0  0  0  0  0  0  0  0  0  0  0  0
    0.1699   -4.2696    0.3410 H   0  0  0  0  0  0  0  0  0  0  0  0
   -2.9060   -0.2512    1.5828 H   0  0  0  0  0  0  0  0  0  0  0  0
   -3.8394    1.8863    2.3653 H   0  0  0  0  0  0  0  0  0  0  0  0
   -4.8395    0.4779    2.9213 H   0  0  0  0  0  0  0  0  0  0  0  0
   -5.6004    2.0909    2.7141 H   0  0  0  0  0  0  0  0  0  0  0  0
   -5.6443    1.2524   -3.6530 H   0  0  0  0  0  0  0  0  0  0  0  0
   -6.7237   -0.1687   -3.3239 H   0  0  0  0  0  0  0  0  0  0  0  0
   -7.3193    1.5092   -3.0418 H   0  0  0  0  0  0  0  0  0  0  0  0
   -4.4206   -0.8841   -3.1070 H   0  0  0  0  0  0  0  0  0  0  0  0
   -2.6223   -1.5589   -7.0911 H   0  0  0  0  0  0  0  0  0  0  0  0
   -2.9329    0.5795   -5.4097 H   0  0  0  0  0  0  0  0  0  0  0  0
   -0.7893   -0.0365   -3.3284 H   0  0  0  0  0  0  0  0  0  0  0  0
   -0.6892    4.6257   -1.6257 H   0  0  0  0  0  0  0  0  0  0  0  0
    0.0767    2.1727   -0.5854 H   0  0  0  0  0  0  0  0  0  0  0  0
    1.3158    1.0446   -3.1479 H   0  0  0  0  0  0  0  0  0  0  0  0
    1.8333    0.7471   -1.3845 H   0  0  0  0  0  0  0  0  0  0  0  0
  1  2  1  0
  2  3  1  0
  3  4  1  0
  4  5  1  0
  4  6  2  0
  3  7  2  0
  7  8  1  0
  8  9  1  0
  9 10  2  3
 10 11  1  0
 11 12  1  0
 12 13  1  0
 13 14  1  0
 14 15  1  0
 14 16  2  0
 13 17  2  0
 17 18  1  0
 18 19  1  0
 19 20  2  3
 20 21  1  0
 21 22  1  0
 22 23  1  0
 23 24  2  0
 24 25  1  0
 25 26  1  0
 26 27  2  0
 27 28  1  0
 28 29  1  0
 27 30  1  0
 30 31  1  0
 31 32  1  0
 30 33  2  0
 23 34  1  0
 34 35  1  0
 35 36  1  0
 36 37  2  0
 37 38  1  0
 38 39  1  0
 39 40  2  0
 40 41  1  0
 41 42  1  0
 40 43  1  0
 43 44  1  0
 44 45  1  0
 43 46  2  0
 36 47  1  0
 47 48  1  0
 48 49  1  0
 49 50  1  0
 50 51  1  0
 50 52  2  0
 49 53  2  0
 53 54  1  0
 54 55  1  0
 55 56  2  3
 56 57  1  0
 57 58  1  0
 58 59  1  0
 59 60  1  0
 60 61  1  0
 60 62  2  0
 59 63  2  0
 63 64  1  0
 64 65  1  0
 65 66  2  3
  8  1  2  0
 18 11  2  0
 25 21  2  0
 38 34  2  0
 54 47  2  0
 64 57  2  0
 33 24  1  0
 46 37  1  0
  1 67  1  0
  7 68  1  0
  9 69  1  0
 10 70  1  0
 17 71  1  0
 19 72  1  0
 20 73  1  0
 26 74  1  0
 29 75  1  0
 29 76  1  0
 29 77  1  0
 32 78  1  0
 32 79  1  0
 32 80  1  0
 33 81  1  0
 39 82  1  0
 42 83  1  0
 42 84  1  0
 42 85  1  0
 45 86  1  0
 45 87  1  0
 45 88  1  0
 46 89  1  0
 53 90  1  0
 55 91  1  0
 56 92  1  0
 63 93  1  0
 65 94  1  0
 66 95  1  0
 66 96  1  0
M  CHG  8   4   1   5  -1  14   1  15  -1  50   1  51  -1  60   1  61  -1
M  END

