
     RDKit          3D

128139  0  0  0  0  0  0  0  0999 V2000
   -0.1617    3.6485  -10.3134 C   0  0  0  0  0  0  0  0  0  0  0  0
    1.0171    2.8186   -9.4467 S   0  0  0  0  0  0  0  0  0  0  0  0
    0.5261    3.2833   -7.9014 C   0  0  0  0  0  0  0  0  0  0  0  0
   -0.6017    4.0959   -8.0500 C   0  0  0  0  0  0  0  0  0  0  0  0
   -0.9743    4.2935   -9.3898 C   0  0  0  0  0  0  0  0  0  0  0  0
   -2.0800    5.0783   -9.7170 C   0  0  0  0  0  0  0  0  0  0  0  0
   -2.8360    5.6762   -8.6840 C   0  0  0  0  0  0  0  0  0  0  0  0
   -3.9652    6.4661   -8.9540 O   0  0  0  0  0  0  0  0  0  0  0  0
   -4.4518    6.7578  -10.2604 C   0  0  0  0  0  0  0  0  0  0  0  0
   -2.4605    5.4899   -7.3381 C   0  0  0  0  0  0  0  0  0  0  0  0
   -3.2371    6.1042   -6.3426 O   0  0  0  0  0  0  0  0  0  0  0  0
   -3.0044    5.9754   -4.9434 C   0  0  0  0  0  0  0  0  0  0  0  0
   -1.3305    4.7036   -7.0218 C   0  0  0  0  0  0  0  0  0  0  0  0
    1.1117    2.7736   -6.6448 C   0  0  0  0  0  0  0  0  0  0  0  0
    0.2214    2.1673   -5.3467 S   0  0  0  0  0  0  0  0  0  0  0  0
    1.5238    1.6516   -4.4147 C   0  0  0  0  0  0  0  0  0  0  0  0
    2.6924    1.9124   -5.1370 C   0  0  0  0  0  0  0  0  0  0  0  0
    2.4646    2.5534   -6.3683 C   0  0  0  0  0  0  0  0  0  0  0  0
    3.5419    2.9284   -7.1785 C   0  0  0  0  0  0  0  0  0  0  0  0
    4.8592    2.6194   -6.7770 C   0  0  0  0  0  0  0  0  0  0  0  0
    5.9744    2.9780   -7.5510 O   0  0  0  0  0  0  0  0  0  0  0  0
    5.9049    3.6636   -8.7980 C   0  0  0  0  0  0  0  0  0  0  0  0
    5.0833    1.9278   -5.5704 C   0  0  0  0  0  0  0  0  0  0  0  0
    6.4078    1.6289   -5.2127 O   0  0  0  0  0  0  0  0  0  0  0  0
    6.7880    0.9536   -4.0179 C   0  0  0  0  0  0  0  0  0  0  0  0
    3.9915    1.5583   -4.7571 C   0  0  0  0  0  0  0  0  0  0  0  0
    1.3978    1.0510   -3.0738 C   0  0  0  0  0  0  0  0  0  0  0  0
    0.2847   -0.1453   -2.6666 S   0  0  0  0  0  0  0  0  0  0  0  0
    0.6983   -0.2802   -1.0349 C   0  0  0  0  0  0  0  0  0  0  0  0
    1.7142    0.6491   -0.7820 C   0  0  0  0  0  0  0  0  0  0  0  0
    2.0864    1.4038   -1.9094 C   0  0  0  0  0  0  0  0  0  0  0  0
    3.0180    2.4408   -1.7866 C   0  0  0  0  0  0  0  0  0  0  0  0
    3.6556    2.6656   -0.5500 C   0  0  0  0  0  0  0  0  0  0  0  0
    4.6276    3.6660   -0.3922 O   0  0  0  0  0  0  0  0  0  0  0  0
    5.0411    4.5568   -1.4229 C   0  0  0  0  0  0  0  0  0  0  0  0
    3.3231    1.8744    0.5672 C   0  0  0  0  0  0  0  0  0  0  0  0
    3.9814    2.1299    1.7807 O   0  0  0  0  0  0  0  0  0  0  0  0
    3.6895    1.4694    3.0084 C   0  0  0  0  0  0  0  0  0  0  0  0
    2.3478    0.8624    0.4476 C   0  0  0  0  0  0  0  0  0  0  0  0
   -0.0531   -1.0776   -0.0423 C   0  0  0  0  0  0  0  0  0  0  0  0
   -0.5393   -0.5115    1.4666 S   0  0  0  0  0  0  0  0  0  0  0  0
   -1.4158   -1.8654    1.9520 C   0  0  0  0  0  0  0  0  0  0  0  0
   -1.3380   -2.8010    0.9127 C   0  0  0  0  0  0  0  0  0  0  0  0
   -0.5769   -2.3666   -0.1914 C   0  0  0  0  0  0  0  0  0  0  0  0
   -0.3581   -3.2222   -1.2775 C   0  0  0  0  0  0  0  0  0  0  0  0
   -0.9340   -4.5107   -1.2796 C   0  0  0  0  0  0  0  0  0  0  0  0
   -0.7246   -5.4158   -2.3326 O   0  0  0  0  0  0  0  0  0  0  0  0
    0.1095   -5.1671   -3.4580 C   0  0  0  0  0  0  0  0  0  0  0  0
   -1.7416   -4.9229   -0.2025 C   0  0  0  0  0  0  0  0  0  0  0  0
   -2.3137   -6.2058   -0.2527 O   0  0  0  0  0  0  0  0  0  0  0  0
   -3.1495   -6.7561    0.7605 C   0  0  0  0  0  0  0  0  0  0  0  0
   -1.9462   -4.0607    0.8944 C   0  0  0  0  0  0  0  0  0  0  0  0
   -1.9529   -2.0688    3.3162 C   0  0  0  0  0  0  0  0  0  0  0  0
   -1.8216   -3.5039    4.1879 S   0  0  0  0  0  0  0  0  0  0  0  0
   -2.4268   -2.9428    5.6542 C   0  0  0  0  0  0  0  0  0  0  0  0
   -2.7374   -1.5901    5.4834 C   0  0  0  0  0  0  0  0  0  0  0  0
   -2.4832   -1.1063    4.1846 C   0  0  0  0  0  0  0  0  0  0  0  0
   -2.7905    0.2193    3.8568 C   0  0  0  0  0  0  0  0  0  0  0  0
   -3.2992    1.0868    4.8472 C   0  0  0  0  0  0  0  0  0  0  0  0
   -3.6216    2.4241    4.5654 O   0  0  0  0  0  0  0  0  0  0  0  0
   -3.5235    3.0246    3.2787 C   0  0  0  0  0  0  0  0  0  0  0  0
   -3.4939    0.6182    6.1609 C   0  0  0  0  0  0  0  0  0  0  0  0
   -3.9664    1.5232    7.1242 O   0  0  0  0  0  0  0  0  0  0  0  0
   -4.1917    1.2009    8.4941 C   0  0  0  0  0  0  0  0  0  0  0  0
   -3.2177   -0.7287    6.4761 C   0  0  0  0  0  0  0  0  0  0  0  0
   -2.7259   -3.8010    6.8192 C   0  0  0  0  0  0  0  0  0  0  0  0
   -4.1599   -3.7456    7.7067 S   0  0  0  0  0  0  0  0  0  0  0  0
   -3.8741   -5.0854    8.6815 C   0  0  0  0  0  0  0  0  0  0  0  0
   -2.6441   -5.6108    8.3084 C   0  0  0  0  0  0  0  0  0  0  0  0
   -1.9981   -4.9043    7.2791 C   0  0  0  0  0  0  0  0  0  0  0  0
   -0.7400   -5.3195    6.8276 C   0  0  0  0  0  0  0  0  0  0  0  0
   -0.1442   -6.4730    7.3830 C   0  0  0  0  0  0  0  0  0  0  0  0
    1.1093   -6.9397    6.9549 O   0  0  0  0  0  0  0  0  0  0  0  0
    1.8763   -6.3490    5.9104 C   0  0  0  0  0  0  0  0  0  0  0  0
   -0.8088   -7.1914    8.3982 C   0  0  0  0  0  0  0  0  0  0  0  0
   -0.1873   -8.3409    8.9126 O   0  0  0  0  0  0  0  0  0  0  0  0
   -0.7363   -9.1629    9.9377 C   0  0  0  0  0  0  0  0  0  0  0  0
   -2.0645   -6.7491    8.8683 C   0  0  0  0  0  0  0  0  0  0  0  0
   -0.2735    3.6627  -11.3900 H   0  0  0  0  0  0  0  0  0  0  0  0
   -2.3493    5.2103  -10.7563 H   0  0  0  0  0  0  0  0  0  0  0  0
   -4.7323    5.8192  -10.7817 H   0  0  0  0  0  0  0  0  0  0  0  0
   -5.3531    7.3991  -10.1741 H   0  0  0  0  0  0  0  0  0  0  0  0
   -3.6802    7.3046  -10.8421 H   0  0  0  0  0  0  0  0  0  0  0  0
   -3.7813    6.5454   -4.3938 H   0  0  0  0  0  0  0  0  0  0  0  0
   -2.0078    6.3888   -4.6824 H   0  0  0  0  0  0  0  0  0  0  0  0
   -3.0678    4.9079   -4.6428 H   0  0  0  0  0  0  0  0  0  0  0  0
   -1.0193    4.5828   -5.9965 H   0  0  0  0  0  0  0  0  0  0  0  0
    3.3640    3.4703   -8.0955 H   0  0  0  0  0  0  0  0  0  0  0  0
    5.4403    4.6633   -8.6590 H   0  0  0  0  0  0  0  0  0  0  0  0
    6.9319    3.8014   -9.1931 H   0  0  0  0  0  0  0  0  0  0  0  0
    5.3204    3.0667   -9.5305 H   0  0  0  0  0  0  0  0  0  0  0  0
    7.8934    0.8718   -3.9847 H   0  0  0  0  0  0  0  0  0  0  0  0
    6.4479    1.5267   -3.1285 H   0  0  0  0  0  0  0  0  0  0  0  0
    6.3548   -0.0681   -4.0035 H   0  0  0  0  0  0  0  0  0  0  0  0
    4.1522    1.0039   -3.8446 H   0  0  0  0  0  0  0  0  0  0  0  0
    3.2367    3.0697   -2.6364 H   0  0  0  0  0  0  0  0  0  0  0  0
    5.4542    3.9849   -2.2809 H   0  0  0  0  0  0  0  0  0  0  0  0
    5.8358    5.2253   -1.0311 H   0  0  0  0  0  0  0  0  0  0  0  0
    4.1838    5.1786   -1.7547 H   0  0  0  0  0  0  0  0  0  0  0  0
    2.6276    1.6375    3.2896 H   0  0  0  0  0  0  0  0  0  0  0  0
    4.3379    1.8867    3.8051 H   0  0  0  0  0  0  0  0  0  0  0  0
    3.8930    0.3820    2.9187 H   0  0  0  0  0  0  0  0  0  0  0  0
    2.1035    0.2415    1.2948 H   0  0  0  0  0  0  0  0  0  0  0  0
    0.2723   -2.9050   -2.0942 H   0  0  0  0  0  0  0  0  0  0  0  0
    0.1092   -6.0612   -4.1138 H   0  0  0  0  0  0  0  0  0  0  0  0
    1.1518   -4.9715   -3.1263 H   0  0  0  0  0  0  0  0  0  0  0  0
   -0.2773   -4.3005   -4.0361 H   0  0  0  0  0  0  0  0  0  0  0  0
   -4.0685   -6.1410    0.8742 H   0  0  0  0  0  0  0  0  0  0  0  0
   -2.6018   -6.8070    1.7243 H   0  0  0  0  0  0  0  0  0  0  0  0
   -3.4472   -7.7838    0.4662 H   0  0  0  0  0  0  0  0  0  0  0  0
   -2.5819   -4.3655    1.7102 H   0  0  0  0  0  0  0  0  0  0  0  0
   -2.6582    0.5685    2.8446 H   0  0  0  0  0  0  0  0  0  0  0  0
   -2.4712    2.9996    2.9249 H   0  0  0  0  0  0  0  0  0  0  0  0
   -3.8507    4.0831    3.3468 H   0  0  0  0  0  0  0  0  0  0  0  0
   -4.1821    2.4952    2.5596 H   0  0  0  0  0  0  0  0  0  0  0  0
   -4.5651    2.1004    9.0224 H   0  0  0  0  0  0  0  0  0  0  0  0
   -4.9547    0.3971    8.5765 H   0  0  0  0  0  0  0  0  0  0  0  0
   -3.2410    0.8783    8.9703 H   0  0  0  0  0  0  0  0  0  0  0  0
   -3.3517   -1.0912    7.4849 H   0  0  0  0  0  0  0  0  0  0  0  0
   -4.5343   -5.4752    9.4451 H   0  0  0  0  0  0  0  0  0  0  0  0
   -0.2232   -4.7495    6.0721 H   0  0  0  0  0  0  0  0  0  0  0  0
    2.8176   -6.9201    5.7873 H   0  0  0  0  0  0  0  0  0  0  0  0
    2.1308   -5.3003    6.1696 H   0  0  0  0  0  0  0  0  0  0  0  0
    1.3105   -6.3832    4.9564 H   0  0  0  0  0  0  0  0  0  0  0  0
   -0.8654   -8.5751   10.8715 H   0  0  0  0  0  0  0  0  0  0  0  0
   -1.7130   -9.5819    9.6118 H   0  0  0  0  0  0  0  0  0  0  0  0
   -0.0412  -10.0028   10.1389 H   0  0  0  0  0  0  0  0  0  0  0  0
   -2.5882   -7.2809    9.6495 H   0  0  0  0  0  0  0  0  0  0  0  0
  1  2  1  0
  2  3  1  0
  3  4  2  0
  4  5  1  0
  5  6  1  0
  6  7  2  0
  7  8  1  0
  8  9  1  0
  7 10  1  0
 10 11  1  0
 11 12  1  0
 10 13  2  0
  3 14  1  0
 14 15  1  0
 15 16  1  0
 16 17  2  0
 17 18  1  0
 18 19  1  0
 19 20  2  0
 20 21  1  0
 21 22  1  0
 20 23  1  0
 23 24  1  0
 24 25  1  0
 23 26  2  0
 16 27  1  0
 27 28  1  0
 28 29  1  0
 29 30  2  0
 30 31  1  0
 31 32  1  0
 32 33  2  0
 33 34  1  0
 34 35  1  0
 33 36  1  0
 36 37  1  0
 37 38  1  0
 36 39  2  0
 29 40  1  0
 40 41  1  0
 41 42  1  0
 42 43  2  0
 43 44  1  0
 44 45  1  0
 45 46  2  0
 46 47  1  0
 47 48  1  0
 46 49  1  0
 49 50  1  0
 50 51  1  0
 49 52  2  0
 42 53  1  0
 53 54  1  0
 54 55  1  0
 55 56  2  0
 56 57  1  0
 57 58  1  0
 58 59  2  0
 59 60  1  0
 60 61  1  0
 59 62  1  0
 62 63  1  0
 63 64  1  0
 62 65  2  0
 55 66  1  0
 66 67  1  0
 67 68  1  0
 68 69  2  0
 69 70  1  0
 70 71  1  0
 71 72  2  0
 72 73  1  0
 73 74  1  0
 72 75  1  0
 75 76  1  0
 76 77  1  0
 75 78  2  0
  5  1  2  0
 18 14  2  0
 31 27  2  0
 44 40  2  0
 57 53  2  0
 70 66  2  0
 13  4  1  0
 26 17  1  0
 39 30  1  0
 52 43  1  0
 65 56  1  0
 78 69  1  0
  1 79  1  0
  6 80  1  0
  9 81  1  0
  9 82  1  0
  9 83  1  0
 12 84  1  0
 12 85  1  0
 12 86  1  0
 13 87  1  0
 19 88  1  0
 22 89  1  0
 22 90  1  0
 22 91  1  0
 25 92  1  0
 25 93  1  0
 25 94  1  0
 26 95  1  0
 32 96  1  0
 35 97  1  0
 35 98  1  0
 35 99  1  0
 38100  1  0
 38101  1  0
 38102  1  0
 39103  1  0
 45104  1  0
 48105  1  0
 48106  1  0
 48107  1  0
 51108  1  0
 51109  1  0
 51110  1  0
 52111  1  0
 58112  1  0
 61113  1  0
 61114  1  0
 61115  1  0
 64116  1  0
 64117  1  0
 64118  1  0
 65119  1  0
 68120  1  0
 71121  1  0
 74122  1  0
 74123  1  0
 74124  1  0
 77125  1  0
 77126  1  0
 77127  1  0
 78128  1  0
M  END

