
     RDKit          3D

120131  0  0  0  0  0  0  0  0999 V2000
    7.2247   -2.1426   -0.6202 C   0  0  0  0  0  0  0  0  0  0  0  0
    6.9819   -3.4940   -1.5954 S   0  0  0  0  0  0  0  0  0  0  0  0
    6.2125   -2.6918   -2.8585 C   0  0  0  0  0  0  0  0  0  0  0  0
    6.1475   -1.3368   -2.5392 C   0  0  0  0  0  0  0  0  0  0  0  0
    6.7079   -1.0389   -1.2924 C   0  0  0  0  0  0  0  0  0  0  0  0
    6.7324    0.3430   -0.7878 C   0  0  0  0  0  0  0  0  0  0  0  0
    7.0415    0.5895    0.4063 O   0  0  0  0  0  0  0  0  0  0  0  0
    6.3926    1.4682   -1.7308 C   0  0  0  0  0  0  0  0  0  0  0  0
    5.2804    1.0725   -2.7246 C   0  0  0  0  0  0  0  0  0  0  0  0
    5.5400   -0.2684   -3.3575 C   0  0  0  0  0  0  0  0  0  0  0  0
    5.1986   -0.4784   -4.5514 O   0  0  0  0  0  0  0  0  0  0  0  0
    5.6520   -3.3525   -4.0451 C   0  0  0  0  0  0  0  0  0  0  0  0
    4.3392   -3.4677   -4.3029 C   0  0  0  0  0  0  0  0  0  0  0  0
    3.2344   -3.1106   -3.3722 C   0  0  0  0  0  0  0  0  0  0  0  0
    3.3505   -2.9549   -1.6993 S   0  0  0  0  0  0  0  0  0  0  0  0
    1.7111   -2.8563   -1.3376 C   0  0  0  0  0  0  0  0  0  0  0  0
    1.0243   -2.9358   -2.5589 C   0  0  0  0  0  0  0  0  0  0  0  0
    1.8699   -3.0695   -3.6824 C   0  0  0  0  0  0  0  0  0  0  0  0
    1.3264   -3.1619   -4.9698 C   0  0  0  0  0  0  0  0  0  0  0  0
   -0.0727   -3.1353   -5.1420 C   0  0  0  0  0  0  0  0  0  0  0  0
   -0.6647   -3.2138   -6.4131 O   0  0  0  0  0  0  0  0  0  0  0  0
    0.0566   -3.3556   -7.6343 C   0  0  0  0  0  0  0  0  0  0  0  0
   -0.9180   -3.0338   -4.0212 C   0  0  0  0  0  0  0  0  0  0  0  0
   -2.3053   -3.0202   -4.2369 O   0  0  0  0  0  0  0  0  0  0  0  0
   -3.2808   -2.9052   -3.2052 C   0  0  0  0  0  0  0  0  0  0  0  0
   -0.3673   -2.9530   -2.7263 C   0  0  0  0  0  0  0  0  0  0  0  0
    1.1477   -2.7002    0.0261 C   0  0  0  0  0  0  0  0  0  0  0  0
   -0.2308   -1.8024    0.3971 S   0  0  0  0  0  0  0  0  0  0  0  0
   -0.2333   -2.0577    2.0553 C   0  0  0  0  0  0  0  0  0  0  0  0
    0.8920   -2.8222    2.3653 C   0  0  0  0  0  0  0  0  0  0  0  0
    1.6594   -3.1871    1.2410 C   0  0  0  0  0  0  0  0  0  0  0  0
    2.8042   -3.9817    1.4082 C   0  0  0  0  0  0  0  0  0  0  0  0
    3.2128   -4.3655    2.7024 C   0  0  0  0  0  0  0  0  0  0  0  0
    4.3853   -5.1104    2.9201 O   0  0  0  0  0  0  0  0  0  0  0  0
    5.2665   -5.5457    1.8896 C   0  0  0  0  0  0  0  0  0  0  0  0
    2.4407   -3.9969    3.8224 C   0  0  0  0  0  0  0  0  0  0  0  0
    2.8808   -4.4031    5.0930 O   0  0  0  0  0  0  0  0  0  0  0  0
    2.1648   -4.1831    6.3007 C   0  0  0  0  0  0  0  0  0  0  0  0
    1.2650   -3.2376    3.6487 C   0  0  0  0  0  0  0  0  0  0  0  0
   -1.2198   -1.4975    2.9909 C   0  0  0  0  0  0  0  0  0  0  0  0
   -0.8300   -0.5299    4.3115 S   0  0  0  0  0  0  0  0  0  0  0  0
   -2.4087   -0.1859    4.7734 C   0  0  0  0  0  0  0  0  0  0  0  0
   -3.2795   -0.8551    3.9059 C   0  0  0  0  0  0  0  0  0  0  0  0
   -2.6136   -1.5747    2.8996 C   0  0  0  0  0  0  0  0  0  0  0  0
   -3.3915   -2.3491    1.9093 C   0  0  0  0  0  0  0  0  0  0  0  0
   -2.8435   -3.2110    1.1714 O   0  0  0  0  0  0  0  0  0  0  0  0
   -4.8686   -2.0935    1.7957 C   0  0  0  0  0  0  0  0  0  0  0  0
   -5.5087   -1.9226    3.1841 C   0  0  0  0  0  0  0  0  0  0  0  0
   -4.7554   -0.9263    4.0251 C   0  0  0  0  0  0  0  0  0  0  0  0
   -5.3737   -0.2284    4.8697 O   0  0  0  0  0  0  0  0  0  0  0  0
   -2.7522    0.6658    5.9235 C   0  0  0  0  0  0  0  0  0  0  0  0
   -3.4172    1.8262    5.8375 C   0  0  0  0  0  0  0  0  0  0  0  0
   -3.8127    2.4875    4.5728 C   0  0  0  0  0  0  0  0  0  0  0  0
   -2.9505    2.4222    3.1268 S   0  0  0  0  0  0  0  0  0  0  0  0
   -3.8806    3.5191    2.2543 C   0  0  0  0  0  0  0  0  0  0  0  0
   -4.8883    3.9843    3.1068 C   0  0  0  0  0  0  0  0  0  0  0  0
   -4.8579    3.4056    4.3933 C   0  0  0  0  0  0  0  0  0  0  0  0
   -5.9094    3.7409    5.3830 C   0  0  0  0  0  0  0  0  0  0  0  0
   -5.9032    3.2308    6.5353 O   0  0  0  0  0  0  0  0  0  0  0  0
   -7.0725    4.6098    4.9744 C   0  0  0  0  0  0  0  0  0  0  0  0
   -6.6817    5.6368    3.8991 C   0  0  0  0  0  0  0  0  0  0  0  0
   -5.9258    4.9860    2.7747 C   0  0  0  0  0  0  0  0  0  0  0  0
   -6.1698    5.3105    1.5822 O   0  0  0  0  0  0  0  0  0  0  0  0
   -3.5924    3.9555    0.8710 C   0  0  0  0  0  0  0  0  0  0  0  0
   -2.8693    3.1964    0.0368 C   0  0  0  0  0  0  0  0  0  0  0  0
   -2.5587    3.6044   -1.3531 C   0  0  0  0  0  0  0  0  0  0  0  0
   -3.0532    5.0418   -2.0786 S   0  0  0  0  0  0  0  0  0  0  0  0
   -2.4232    4.7550   -3.6173 C   0  0  0  0  0  0  0  0  0  0  0  0
   -1.8094    3.4909   -3.5879 C   0  0  0  0  0  0  0  0  0  0  0  0
   -1.8710    2.8610   -2.3250 C   0  0  0  0  0  0  0  0  0  0  0  0
   -1.2506    1.5276   -2.1373 C   0  0  0  0  0  0  0  0  0  0  0  0
   -0.9952    1.0734   -0.9936 O   0  0  0  0  0  0  0  0  0  0  0  0
   -0.9021    0.7114   -3.3512 C   0  0  0  0  0  0  0  0  0  0  0  0
   -0.2909    1.5911   -4.4505 C   0  0  0  0  0  0  0  0  0  0  0  0
   -1.1411    2.8025   -4.7213 C   0  0  0  0  0  0  0  0  0  0  0  0
   -1.2621    3.2191   -5.9040 O   0  0  0  0  0  0  0  0  0  0  0  0
   -2.4904    5.7067   -4.7522 C   0  0  0  0  0  0  0  0  0  0  0  0
   -3.0807    6.8958   -4.6578 C   0  0  0  0  0  0  0  0  0  0  0  0
    7.6972   -2.1380    0.3505 H   0  0  0  0  0  0  0  0  0  0  0  0
    7.3106    1.7497   -2.2907 H   0  0  0  0  0  0  0  0  0  0  0  0
    6.0608    2.3577   -1.1530 H   0  0  0  0  0  0  0  0  0  0  0  0
    4.3097    1.0205   -2.1867 H   0  0  0  0  0  0  0  0  0  0  0  0
    5.1963    1.8567   -3.5099 H   0  0  0  0  0  0  0  0  0  0  0  0
    6.3542   -3.7599   -4.7607 H   0  0  0  0  0  0  0  0  0  0  0  0
    4.0678   -3.9225   -5.2453 H   0  0  0  0  0  0  0  0  0  0  0  0
    1.9780   -3.2393   -5.8262 H   0  0  0  0  0  0  0  0  0  0  0  0
    0.7324   -2.4841   -7.7809 H   0  0  0  0  0  0  0  0  0  0  0  0
    0.6434   -4.2983   -7.6233 H   0  0  0  0  0  0  0  0  0  0  0  0
   -0.6625   -3.3961   -8.4770 H   0  0  0  0  0  0  0  0  0  0  0  0
   -3.2077   -3.7657   -2.5078 H   0  0  0  0  0  0  0  0  0  0  0  0
   -3.1427   -1.9522   -2.6506 H   0  0  0  0  0  0  0  0  0  0  0  0
   -4.2923   -2.9054   -3.6613 H   0  0  0  0  0  0  0  0  0  0  0  0
   -1.0189   -2.9278   -1.8712 H   0  0  0  0  0  0  0  0  0  0  0  0
    3.3699   -4.3145    0.5571 H   0  0  0  0  0  0  0  0  0  0  0  0
    6.1142   -6.0945    2.3473 H   0  0  0  0  0  0  0  0  0  0  0  0
    5.6689   -4.6719    1.3341 H   0  0  0  0  0  0  0  0  0  0  0  0
    4.7341   -6.2302    1.1948 H   0  0  0  0  0  0  0  0  0  0  0  0
    2.0439   -3.0943    6.4821 H   0  0  0  0  0  0  0  0  0  0  0  0
    2.7355   -4.6228    7.1448 H   0  0  0  0  0  0  0  0  0  0  0  0
    1.1722   -4.6808    6.2509 H   0  0  0  0  0  0  0  0  0  0  0  0
    0.6565   -2.9690    4.5000 H   0  0  0  0  0  0  0  0  0  0  0  0
   -5.0218   -1.1648    1.2044 H   0  0  0  0  0  0  0  0  0  0  0  0
   -5.3637   -2.9341    1.2593 H   0  0  0  0  0  0  0  0  0  0  0  0
   -5.5051   -2.9005    3.7084 H   0  0  0  0  0  0  0  0  0  0  0  0
   -6.5638   -1.6036    3.0665 H   0  0  0  0  0  0  0  0  0  0  0  0
   -2.4195    0.3386    6.9017 H   0  0  0  0  0  0  0  0  0  0  0  0
   -3.6352    2.3387    6.7644 H   0  0  0  0  0  0  0  0  0  0  0  0
   -7.4685    5.1498    5.8611 H   0  0  0  0  0  0  0  0  0  0  0  0
   -7.8801    3.9564    4.5786 H   0  0  0  0  0  0  0  0  0  0  0  0
   -6.0365    6.4193    4.3551 H   0  0  0  0  0  0  0  0  0  0  0  0
   -7.5995    6.1297    3.5100 H   0  0  0  0  0  0  0  0  0  0  0  0
   -3.9790    4.9065    0.5376 H   0  0  0  0  0  0  0  0  0  0  0  0
   -2.5340    2.2294    0.3798 H   0  0  0  0  0  0  0  0  0  0  0  0
   -0.1774   -0.0864   -3.0820 H   0  0  0  0  0  0  0  0  0  0  0  0
   -1.8254    0.2270   -3.7361 H   0  0  0  0  0  0  0  0  0  0  0  0
   -0.1818    0.9855   -5.3775 H   0  0  0  0  0  0  0  0  0  0  0  0
    0.7216    1.9231   -4.1363 H   0  0  0  0  0  0  0  0  0  0  0  0
   -2.0336    5.4546   -5.6938 H   0  0  0  0  0  0  0  0  0  0  0  0
   -3.0943    7.5557   -5.5137 H   0  0  0  0  0  0  0  0  0  0  0  0
   -3.5444    7.2345   -3.7434 H   0  0  0  0  0  0  0  0  0  0  0  0
  1  2  1  0
  2  3  1  0
  3  4  2  0
  4  5  1  0
  5  6  1  0
  6  7  2  0
  6  8  1  0
  8  9  1  0
  9 10  1  0
 10 11  2  0
  3 12  1  0
 12 13  2  3
 13 14  1  0
 14 15  1  0
 15 16  1  0
 16 17  2  0
 17 18  1  0
 18 19  1  0
 19 20  2  0
 20 21  1  0
 21 22  1  0
 20 23  1  0
 23 24  1  0
 24 25  1  0
 23 26  2  0
 16 27  1  0
 27 28  1  0
 28 29  1  0
 29 30  2  0
 30 31  1  0
 31 32  1  0
 32 33  2  0
 33 34  1  0
 34 35  1  0
 33 36  1  0
 36 37  1  0
 37 38  1  0
 36 39  2  0
 29 40  1  0
 40 41  1  0
 41 42  1  0
 42 43  2  0
 43 44  1  0
 44 45  1  0
 45 46  2  0
 45 47  1  0
 47 48  1  0
 48 49  1  0
 49 50  2  0
 42 51  1  0
 51 52  2  3
 52 53  1  0
 53 54  1  0
 54 55  1  0
 55 56  2  0
 56 57  1  0
 57 58  1  0
 58 59  2  0
 58 60  1  0
 60 61  1  0
 61 62  1  0
 62 63  2  0
 55 64  1  0
 64 65  2  3
 65 66  1  0
 66 67  1  0
 67 68  1  0
 68 69  2  0
 69 70  1  0
 70 71  1  0
 71 72  2  0
 71 73  1  0
 73 74  1  0
 74 75  1  0
 75 76  2  0
 68 77  1  0
 77 78  2  3
  5  1  2  0
 18 14  2  0
 31 27  2  0
 44 40  2  0
 57 53  2  0
 70 66  2  0
 10  4  1  0
 26 17  1  0
 39 30  1  0
 49 43  1  0
 62 56  1  0
 75 69  1  0
  1 79  1  0
  8 80  1  0
  8 81  1  0
  9 82  1  0
  9 83  1  0
 12 84  1  0
 13 85  1  0
 19 86  1  0
 22 87  1  0
 22 88  1  0
 22 89  1  0
 25 90  1  0
 25 91  1  0
 25 92  1  0
 26 93  1  0
 32 94  1  0
 35 95  1  0
 35 96  1  0
 35 97  1  0
 38 98  1  0
 38 99  1  0
 38100  1  0
 39101  1  0
 47102  1  0
 47103  1  0
 48104  1  0
 48105  1  0
 51106  1  0
 52107  1  0
 60108  1  0
 60109  1  0
 61110  1  0
 61111  1  0
 64112  1  0
 65113  1  0
 73114  1  0
 73115  1  0
 74116  1  0
 74117  1  0
 77118  1  0
 78119  1  0
 78120  1  0
M  END

