
     RDKit          3D

 84 91  0  0  0  0  0  0  0  0999 V2000
   -2.4612    9.0908   -9.0338 C   0  0  0  0  0  0  0  0  0  0  0  0
   -1.5290    8.7896   -8.1087 N   0  0  0  0  0  0  0  0  0  0  0  0
   -2.1462    8.8216   -6.9144 C   0  0  0  0  0  0  0  0  0  0  0  0
   -3.4775    9.1530   -7.0617 C   0  0  0  0  0  0  0  0  0  0  0  0
   -3.6813    9.3112   -8.4263 C   0  0  0  0  0  0  0  0  0  0  0  0
   -1.4839    8.5834   -5.6582 C   0  0  0  0  0  0  0  0  0  0  0  0
   -0.9379    8.3704   -4.6056 C   0  0  0  0  0  0  0  0  0  0  0  0
   -0.2920    8.0978   -3.3523 C   0  0  0  0  0  0  0  0  0  0  0  0
    0.9824    7.6674   -3.2469 N   0  0  0  0  0  0  0  0  0  0  0  0
    1.1863    7.4295   -1.9386 C   0  0  0  0  0  0  0  0  0  0  0  0
    0.0455    7.7045   -1.2047 C   0  0  0  0  0  0  0  0  0  0  0  0
   -0.9072    8.1381   -2.1114 C   0  0  0  0  0  0  0  0  0  0  0  0
    2.3672    6.7954   -1.4135 C   0  0  0  0  0  0  0  0  0  0  0  0
    3.3206    6.2137   -0.9592 C   0  0  0  0  0  0  0  0  0  0  0  0
    4.4059    5.4566   -0.4053 C   0  0  0  0  0  0  0  0  0  0  0  0
    4.2916    4.1611   -0.0682 N   0  0  0  0  0  0  0  0  0  0  0  0
    5.4830    3.7955    0.4298 C   0  0  0  0  0  0  0  0  0  0  0  0
    6.3671    4.8585    0.4173 C   0  0  0  0  0  0  0  0  0  0  0  0
    5.6743    5.9281   -0.1279 C   0  0  0  0  0  0  0  0  0  0  0  0
    5.7368    2.4817    0.9471 C   0  0  0  0  0  0  0  0  0  0  0  0
    5.8441    1.3549    1.3580 C   0  0  0  0  0  0  0  0  0  0  0  0
    5.8364   -0.0040    1.8281 C   0  0  0  0  0  0  0  0  0  0  0  0
    4.7045   -0.7163    1.9507 N   0  0  0  0  0  0  0  0  0  0  0  0
    5.0570   -1.9236    2.4184 C   0  0  0  0  0  0  0  0  0  0  0  0
    6.4259   -1.9927    2.5960 C   0  0  0  0  0  0  0  0  0  0  0  0
    6.9290   -0.7584    2.2172 C   0  0  0  0  0  0  0  0  0  0  0  0
    4.0959   -2.9522    2.6995 C   0  0  0  0  0  0  0  0  0  0  0  0
    3.2128   -3.7443    2.9017 C   0  0  0  0  0  0  0  0  0  0  0  0
    2.0813   -4.6022    3.1025 C   0  0  0  0  0  0  0  0  0  0  0  0
    0.9224   -4.3492    4.2918 S   0  0  0  0  0  0  0  0  0  0  0  0
   -0.2437   -5.4042    3.6723 C   0  0  0  0  0  0  0  0  0  0  0  0
    0.2628   -5.9604    2.4970 C   0  0  0  0  0  0  0  0  0  0  0  0
    1.5574   -5.5036    2.1768 C   0  0  0  0  0  0  0  0  0  0  0  0
    2.1740   -5.9054    0.9841 C   0  0  0  0  0  0  0  0  0  0  0  0
    1.4834   -6.7579    0.0952 C   0  0  0  0  0  0  0  0  0  0  0  0
    2.0482   -7.1771   -1.1219 O   0  0  0  0  0  0  0  0  0  0  0  0
    3.3477   -6.8106   -1.5776 C   0  0  0  0  0  0  0  0  0  0  0  0
    0.1842   -7.2077    0.4101 C   0  0  0  0  0  0  0  0  0  0  0  0
   -0.4702   -8.0473   -0.5084 O   0  0  0  0  0  0  0  0  0  0  0  0
   -1.7821   -8.5659   -0.3217 C   0  0  0  0  0  0  0  0  0  0  0  0
   -0.4285   -6.8077    1.6176 C   0  0  0  0  0  0  0  0  0  0  0  0
   -1.6011   -5.5699    4.2238 C   0  0  0  0  0  0  0  0  0  0  0  0
   -2.3172   -7.0505    4.6146 S   0  0  0  0  0  0  0  0  0  0  0  0
   -3.7664   -6.4344    5.2193 C   0  0  0  0  0  0  0  0  0  0  0  0
   -3.6997   -5.0459    5.1146 C   0  0  0  0  0  0  0  0  0  0  0  0
   -2.5022   -4.5615    4.5657 C   0  0  0  0  0  0  0  0  0  0  0  0
   -2.3211   -3.1893    4.3784 C   0  0  0  0  0  0  0  0  0  0  0  0
   -3.3439   -2.2914    4.7580 C   0  0  0  0  0  0  0  0  0  0  0  0
   -3.2230   -0.9047    4.5742 O   0  0  0  0  0  0  0  0  0  0  0  0
   -2.0949   -0.2645    3.9845 C   0  0  0  0  0  0  0  0  0  0  0  0
   -4.5318   -2.7789    5.3332 C   0  0  0  0  0  0  0  0  0  0  0  0
   -5.5025   -1.8457    5.7241 O   0  0  0  0  0  0  0  0  0  0  0  0
   -6.7487   -2.1808    6.3277 C   0  0  0  0  0  0  0  0  0  0  0  0
   -4.7122   -4.1683    5.5074 C   0  0  0  0  0  0  0  0  0  0  0  0
   -2.2694    9.1337  -10.1039 H   0  0  0  0  0  0  0  0  0  0  0  0
   -0.5215    8.5839   -8.2863 H   0  0  0  0  0  0  0  0  0  0  0  0
   -4.2121    9.2721   -6.2744 H   0  0  0  0  0  0  0  0  0  0  0  0
   -4.6041    9.5840   -8.9169 H   0  0  0  0  0  0  0  0  0  0  0  0
    1.6579    7.5054   -4.0301 H   0  0  0  0  0  0  0  0  0  0  0  0
   -0.0950    7.5658   -0.1375 H   0  0  0  0  0  0  0  0  0  0  0  0
   -1.9382    8.4044   -1.8972 H   0  0  0  0  0  0  0  0  0  0  0  0
    3.4392    3.5619   -0.1619 H   0  0  0  0  0  0  0  0  0  0  0  0
    7.3835    4.8636    0.7861 H   0  0  0  0  0  0  0  0  0  0  0  0
    6.0497    6.9327   -0.2815 H   0  0  0  0  0  0  0  0  0  0  0  0
    3.7334   -0.3854    1.7520 H   0  0  0  0  0  0  0  0  0  0  0  0
    7.0014   -2.8327    2.9595 H   0  0  0  0  0  0  0  0  0  0  0  0
    7.9692   -0.4497    2.2316 H   0  0  0  0  0  0  0  0  0  0  0  0
    3.1681   -5.5410    0.7488 H   0  0  0  0  0  0  0  0  0  0  0  0
    3.5144   -7.2490   -2.5861 H   0  0  0  0  0  0  0  0  0  0  0  0
    3.4202   -5.6995   -1.6597 H   0  0  0  0  0  0  0  0  0  0  0  0
    4.1234   -7.2016   -0.8782 H   0  0  0  0  0  0  0  0  0  0  0  0
   -2.0562   -9.1834   -1.1997 H   0  0  0  0  0  0  0  0  0  0  0  0
   -1.8110   -9.2094    0.5838 H   0  0  0  0  0  0  0  0  0  0  0  0
   -2.5062   -7.7363   -0.2275 H   0  0  0  0  0  0  0  0  0  0  0  0
   -1.4361   -7.1242    1.8590 H   0  0  0  0  0  0  0  0  0  0  0  0
   -4.6018   -7.0086    5.6194 H   0  0  0  0  0  0  0  0  0  0  0  0
   -1.4105   -2.8275    3.9211 H   0  0  0  0  0  0  0  0  0  0  0  0
   -1.1931   -0.4424    4.6038 H   0  0  0  0  0  0  0  0  0  0  0  0
   -2.2795    0.8314    3.9270 H   0  0  0  0  0  0  0  0  0  0  0  0
   -1.9366   -0.6463    2.9575 H   0  0  0  0  0  0  0  0  0  0  0  0
   -6.5862   -2.7339    7.2756 H   0  0  0  0  0  0  0  0  0  0  0  0
   -7.3588   -2.7968    5.6286 H   0  0  0  0  0  0  0  0  0  0  0  0
   -7.2961   -1.2451    6.5542 H   0  0  0  0  0  0  0  0  0  0  0  0
   -5.6231   -4.5627    5.9328 H   0  0  0  0  0  0  0  0  0  0  0  0
  1  2  1  0
  2  3  1  0
  3  4  2  0
  4  5  1  0
  3  6  1  0
  6  7  3  0
  7  8  1  0
  8  9  1  0
  9 10  1  0
 10 11  2  0
 11 12  1  0
 10 13  1  0
 13 14  3  0
 14 15  1  0
 15 16  1  0
 16 17  1  0
 17 18  2  0
 18 19  1  0
 17 20  1  0
 20 21  3  0
 21 22  1  0
 22 23  1  0
 23 24  1  0
 24 25  2  0
 25 26  1  0
 24 27  1  0
 27 28  3  0
 28 29  1  0
 29 30  1  0
 30 31  1  0
 31 32  2  0
 32 33  1  0
 33 34  1  0
 34 35  2  0
 35 36  1  0
 36 37  1  0
 35 38  1  0
 38 39  1  0
 39 40  1  0
 38 41  2  0
 31 42  1  0
 42 43  1  0
 43 44  1  0
 44 45  2  0
 45 46  1  0
 46 47  1  0
 47 48  2  0
 48 49  1  0
 49 50  1  0
 48 51  1  0
 51 52  1  0
 52 53  1  0
 51 54  2  0
  5  1  2  0
 12  8  2  0
 19 15  2  0
 26 22  2  0
 33 29  2  0
 46 42  2  0
 41 32  1  0
 54 45  1  0
  1 55  1  0
  2 56  1  0
  4 57  1  0
  5 58  1  0
  9 59  1  0
 11 60  1  0
 12 61  1  0
 16 62  1  0
 18 63  1  0
 19 64  1  0
 23 65  1  0
 25 66  1  0
 26 67  1  0
 34 68  1  0
 37 69  1  0
 37 70  1  0
 37 71  1  0
 40 72  1  0
 40 73  1  0
 40 74  1  0
 41 75  1  0
 44 76  1  0
 47 77  1  0
 50 78  1  0
 50 79  1  0
 50 80  1  0
 53 81  1  0
 53 82  1  0
 53 83  1  0
 54 84  1  0
M  END

