
     RDKit          3D

136147  0  0  0  0  0  0  0  0999 V2000
    7.0231    4.7939    4.1517 C   0  0  0  0  0  0  0  0  0  0  0  0
    6.0880    3.7780    5.1225 S   0  0  0  0  0  0  0  0  0  0  0  0
    5.0321    3.2217    3.9224 C   0  0  0  0  0  0  0  0  0  0  0  0
    5.4002    3.8641    2.7449 C   0  0  0  0  0  0  0  0  0  0  0  0
    6.4960    4.7151    2.8726 C   0  0  0  0  0  0  0  0  0  0  0  0
    6.9666    5.3907    1.7981 N   0  0  0  0  0  0  0  0  0  0  0  0
    6.3705    5.2485    0.5766 C   0  0  0  0  0  0  0  0  0  0  0  0
    6.9668    5.9916   -0.5907 C   0  0  0  0  0  0  0  0  0  0  0  0
    8.0952    5.1819   -1.2288 C   0  0  0  0  0  0  0  0  0  0  0  0
    8.6356    5.8965   -2.3061 O   0  0  0  0  0  0  0  0  0  0  0  0
    5.2547    4.3705    0.4404 C   0  0  0  0  0  0  0  0  0  0  0  0
    4.5451    4.1814   -0.8807 C   0  0  0  0  0  0  0  0  0  0  0  0
    3.4868    3.1771   -0.7850 N   0  0  0  0  0  0  0  0  0  0  0  0
    4.7999    3.7031    1.5410 N   0  0  0  0  0  0  0  0  0  0  0  0
    3.8861    2.3029    4.0994 C   0  0  0  0  0  0  0  0  0  0  0  0
    2.4849    2.3619    3.1636 S   0  0  0  0  0  0  0  0  0  0  0  0
    1.6892    1.0644    3.8714 C   0  0  0  0  0  0  0  0  0  0  0  0
    2.5398    0.5227    4.8400 C   0  0  0  0  0  0  0  0  0  0  0  0
    3.7588    1.2166    4.9787 C   0  0  0  0  0  0  0  0  0  0  0  0
    4.7367    0.7410    5.8627 C   0  0  0  0  0  0  0  0  0  0  0  0
    4.4851   -0.4173    6.6300 C   0  0  0  0  0  0  0  0  0  0  0  0
    5.4293   -0.9283    7.5348 O   0  0  0  0  0  0  0  0  0  0  0  0
    6.7434   -0.4122    7.7118 C   0  0  0  0  0  0  0  0  0  0  0  0
    3.2619   -1.1019    6.4948 C   0  0  0  0  0  0  0  0  0  0  0  0
    3.0400   -2.2352    7.2927 O   0  0  0  0  0  0  0  0  0  0  0  0
    1.8230   -2.9737    7.3265 C   0  0  0  0  0  0  0  0  0  0  0  0
    2.3032   -0.6470    5.5698 C   0  0  0  0  0  0  0  0  0  0  0  0
    0.4294    0.5000    3.3621 C   0  0  0  0  0  0  0  0  0  0  0  0
    0.1569    0.1608    1.7459 S   0  0  0  0  0  0  0  0  0  0  0  0
   -1.3574   -0.5600    1.9164 C   0  0  0  0  0  0  0  0  0  0  0  0
   -1.6743   -0.5557    3.2834 C   0  0  0  0  0  0  0  0  0  0  0  0
   -0.6837    0.0607    4.0796 C   0  0  0  0  0  0  0  0  0  0  0  0
   -0.8627    0.2044    5.4572 C   0  0  0  0  0  0  0  0  0  0  0  0
   -1.9934   -0.3651    6.0728 C   0  0  0  0  0  0  0  0  0  0  0  0
   -2.2033   -0.2745    7.4591 O   0  0  0  0  0  0  0  0  0  0  0  0
   -1.3428    0.4105    8.3622 C   0  0  0  0  0  0  0  0  0  0  0  0
   -2.9486   -1.0497    5.2967 C   0  0  0  0  0  0  0  0  0  0  0  0
   -4.0364   -1.6304    5.9683 O   0  0  0  0  0  0  0  0  0  0  0  0
   -5.1324   -2.2637    5.3255 C   0  0  0  0  0  0  0  0  0  0  0  0
   -2.7912   -1.1444    3.8930 C   0  0  0  0  0  0  0  0  0  0  0  0
   -2.1116   -1.0604    0.7484 C   0  0  0  0  0  0  0  0  0  0  0  0
   -1.3625   -1.5587   -0.6741 S   0  0  0  0  0  0  0  0  0  0  0  0
   -2.7123   -1.5940   -1.6786 C   0  0  0  0  0  0  0  0  0  0  0  0
   -3.7951   -1.1961   -0.8928 C   0  0  0  0  0  0  0  0  0  0  0  0
   -3.4643   -0.9109    0.4409 C   0  0  0  0  0  0  0  0  0  0  0  0
   -4.4231   -0.5031    1.3044 N   0  0  0  0  0  0  0  0  0  0  0  0
   -5.7215   -0.3846    0.9030 C   0  0  0  0  0  0  0  0  0  0  0  0
   -6.7482   -0.0584    1.9610 C   0  0  0  0  0  0  0  0  0  0  0  0
   -7.6071   -1.2759    2.3268 C   0  0  0  0  0  0  0  0  0  0  0  0
   -6.7997   -2.3980    2.5556 O   0  0  0  0  0  0  0  0  0  0  0  0
   -6.0546   -0.6449   -0.4611 C   0  0  0  0  0  0  0  0  0  0  0  0
   -7.4407   -0.4497   -1.0205 C   0  0  0  0  0  0  0  0  0  0  0  0
   -7.9322   -1.6989   -1.5992 N   0  0  0  0  0  0  0  0  0  0  0  0
   -5.0719   -1.0478   -1.3205 N   0  0  0  0  0  0  0  0  0  0  0  0
   -2.6257   -1.9063   -3.1217 C   0  0  0  0  0  0  0  0  0  0  0  0
   -1.2992   -2.6940   -3.8152 S   0  0  0  0  0  0  0  0  0  0  0  0
   -1.7228   -2.5015   -5.4347 C   0  0  0  0  0  0  0  0  0  0  0  0
   -2.9177   -1.7901   -5.4461 C   0  0  0  0  0  0  0  0  0  0  0  0
   -3.4182   -1.4632   -4.1818 C   0  0  0  0  0  0  0  0  0  0  0  0
   -4.5482   -0.7247   -4.0763 N   0  0  0  0  0  0  0  0  0  0  0  0
   -5.2085   -0.2907   -5.1913 C   0  0  0  0  0  0  0  0  0  0  0  0
   -6.5053    0.4556   -4.9931 C   0  0  0  0  0  0  0  0  0  0  0  0
   -7.7197   -0.4133   -5.3297 C   0  0  0  0  0  0  0  0  0  0  0  0
   -7.6788   -1.6098   -4.6022 O   0  0  0  0  0  0  0  0  0  0  0  0
   -4.6768   -0.5970   -6.4802 C   0  0  0  0  0  0  0  0  0  0  0  0
   -5.3455   -0.1717   -7.7732 C   0  0  0  0  0  0  0  0  0  0  0  0
   -4.3655    0.1956   -8.7957 N   0  0  0  0  0  0  0  0  0  0  0  0
   -3.5489   -1.3594   -6.5619 N   0  0  0  0  0  0  0  0  0  0  0  0
   -0.9156   -2.9224   -6.6006 C   0  0  0  0  0  0  0  0  0  0  0  0
   -1.4117   -2.8894   -8.2179 S   0  0  0  0  0  0  0  0  0  0  0  0
    0.0222   -3.4464   -8.9108 C   0  0  0  0  0  0  0  0  0  0  0  0
    0.9071   -3.6629   -7.8665 C   0  0  0  0  0  0  0  0  0  0  0  0
    0.3992   -3.3832   -6.5988 C   0  0  0  0  0  0  0  0  0  0  0  0
    1.1819   -3.5423   -5.5035 N   0  0  0  0  0  0  0  0  0  0  0  0
    2.4721   -3.9713   -5.6272 C   0  0  0  0  0  0  0  0  0  0  0  0
    3.2717   -4.1628   -4.3631 C   0  0  0  0  0  0  0  0  0  0  0  0
    2.9269   -5.4893   -3.6835 C   0  0  0  0  0  0  0  0  0  0  0  0
    3.2810   -6.5664   -4.5080 O   0  0  0  0  0  0  0  0  0  0  0  0
    2.9936   -4.2509   -6.9263 C   0  0  0  0  0  0  0  0  0  0  0  0
    4.4238   -4.6923   -7.1304 C   0  0  0  0  0  0  0  0  0  0  0  0
    4.6960   -4.9942   -8.5356 N   0  0  0  0  0  0  0  0  0  0  0  0
    2.1849   -4.0841   -8.0150 N   0  0  0  0  0  0  0  0  0  0  0  0
    7.8631    5.3960    4.4671 H   0  0  0  0  0  0  0  0  0  0  0  0
    7.3748    6.9623   -0.2309 H   0  0  0  0  0  0  0  0  0  0  0  0
    6.1994    6.2366   -1.3558 H   0  0  0  0  0  0  0  0  0  0  0  0
    7.6987    4.2042   -1.5858 H   0  0  0  0  0  0  0  0  0  0  0  0
    8.8947    4.9935   -0.4738 H   0  0  0  0  0  0  0  0  0  0  0  0
    9.3230    5.3047   -2.7103 H   0  0  0  0  0  0  0  0  0  0  0  0
    5.2804    3.8513   -1.6461 H   0  0  0  0  0  0  0  0  0  0  0  0
    4.1050    5.1520   -1.2107 H   0  0  0  0  0  0  0  0  0  0  0  0
    3.0986    3.0285   -1.7462 H   0  0  0  0  0  0  0  0  0  0  0  0
    2.7084    3.5796   -0.2123 H   0  0  0  0  0  0  0  0  0  0  0  0
    5.6878    1.2381    5.9412 H   0  0  0  0  0  0  0  0  0  0  0  0
    7.3097   -0.4734    6.7583 H   0  0  0  0  0  0  0  0  0  0  0  0
    6.6976    0.6425    8.0577 H   0  0  0  0  0  0  0  0  0  0  0  0
    7.2693   -1.0149    8.4805 H   0  0  0  0  0  0  0  0  0  0  0  0
    1.6208   -3.4311    6.3337 H   0  0  0  0  0  0  0  0  0  0  0  0
    0.9821   -2.3071    7.6187 H   0  0  0  0  0  0  0  0  0  0  0  0
    1.9088   -3.7849    8.0798 H   0  0  0  0  0  0  0  0  0  0  0  0
    1.3939   -1.2057    5.4148 H   0  0  0  0  0  0  0  0  0  0  0  0
   -0.1254    0.7386    6.0412 H   0  0  0  0  0  0  0  0  0  0  0  0
   -1.7495    0.3181    9.3924 H   0  0  0  0  0  0  0  0  0  0  0  0
   -1.2928    1.4863    8.0939 H   0  0  0  0  0  0  0  0  0  0  0  0
   -0.3281   -0.0407    8.3397 H   0  0  0  0  0  0  0  0  0  0  0  0
   -5.6493   -1.5348    4.6686 H   0  0  0  0  0  0  0  0  0  0  0  0
   -4.7844   -3.1408    4.7401 H   0  0  0  0  0  0  0  0  0  0  0  0
   -5.8511   -2.6175    6.0958 H   0  0  0  0  0  0  0  0  0  0  0  0
   -3.4993   -1.7001    3.2989 H   0  0  0  0  0  0  0  0  0  0  0  0
   -7.3908    0.7891    1.6399 H   0  0  0  0  0  0  0  0  0  0  0  0
   -6.2263    0.2819    2.8814 H   0  0  0  0  0  0  0  0  0  0  0  0
   -8.3276   -1.5042    1.5135 H   0  0  0  0  0  0  0  0  0  0  0  0
   -8.1916   -1.0361    3.2442 H   0  0  0  0  0  0  0  0  0  0  0  0
   -7.4051   -3.1158    2.8835 H   0  0  0  0  0  0  0  0  0  0  0  0
   -8.1702   -0.0788   -0.2708 H   0  0  0  0  0  0  0  0  0  0  0  0
   -7.3871    0.3225   -1.8141 H   0  0  0  0  0  0  0  0  0  0  0  0
   -8.1588   -2.3463   -0.8114 H   0  0  0  0  0  0  0  0  0  0  0  0
   -8.8348   -1.4918   -2.0808 H   0  0  0  0  0  0  0  0  0  0  0  0
   -6.5840    0.7821   -3.9369 H   0  0  0  0  0  0  0  0  0  0  0  0
   -6.5193    1.3868   -5.5950 H   0  0  0  0  0  0  0  0  0  0  0  0
   -8.6446    0.1470   -5.0735 H   0  0  0  0  0  0  0  0  0  0  0  0
   -7.7415   -0.6356   -6.4194 H   0  0  0  0  0  0  0  0  0  0  0  0
   -8.4897   -2.1185   -4.8618 H   0  0  0  0  0  0  0  0  0  0  0  0
   -6.0160    0.6950   -7.6268 H   0  0  0  0  0  0  0  0  0  0  0  0
   -5.9653   -1.0147   -8.1477 H   0  0  0  0  0  0  0  0  0  0  0  0
   -3.8003   -0.6503   -9.0525 H   0  0  0  0  0  0  0  0  0  0  0  0
   -3.7123    0.9155   -8.4010 H   0  0  0  0  0  0  0  0  0  0  0  0
    0.2148   -3.5967   -9.9652 H   0  0  0  0  0  0  0  0  0  0  0  0
    3.0304   -3.3345   -3.6646 H   0  0  0  0  0  0  0  0  0  0  0  0
    4.3638   -4.1124   -4.5491 H   0  0  0  0  0  0  0  0  0  0  0  0
    1.8371   -5.5234   -3.4607 H   0  0  0  0  0  0  0  0  0  0  0  0
    3.4857   -5.5596   -2.7229 H   0  0  0  0  0  0  0  0  0  0  0  0
    3.0344   -7.3878   -4.0095 H   0  0  0  0  0  0  0  0  0  0  0  0
    5.1130   -3.8905   -6.7813 H   0  0  0  0  0  0  0  0  0  0  0  0
    4.6128   -5.6051   -6.5276 H   0  0  0  0  0  0  0  0  0  0  0  0
    4.7351   -4.0888   -9.0633 H   0  0  0  0  0  0  0  0  0  0  0  0
    5.6544   -5.4070   -8.5882 H   0  0  0  0  0  0  0  0  0  0  0  0
  1  2  1  0
  2  3  1  0
  3  4  2  0
  4  5  1  0
  5  6  1  0
  6  7  2  0
  7  8  1  0
  8  9  1  0
  9 10  1  0
  7 11  1  0
 11 12  1  0
 12 13  1  0
 11 14  2  0
  3 15  1  0
 15 16  1  0
 16 17  1  0
 17 18  2  0
 18 19  1  0
 19 20  1  0
 20 21  2  0
 21 22  1  0
 22 23  1  0
 21 24  1  0
 24 25  1  0
 25 26  1  0
 24 27  2  0
 17 28  1  0
 28 29  1  0
 29 30  1  0
 30 31  2  0
 31 32  1  0
 32 33  1  0
 33 34  2  0
 34 35  1  0
 35 36  1  0
 34 37  1  0
 37 38  1  0
 38 39  1  0
 37 40  2  0
 30 41  1  0
 41 42  1  0
 42 43  1  0
 43 44  2  0
 44 45  1  0
 45 46  1  0
 46 47  2  0
 47 48  1  0
 48 49  1  0
 49 50  1  0
 47 51  1  0
 51 52  1  0
 52 53  1  0
 51 54  2  0
 43 55  1  0
 55 56  1  0
 56 57  1  0
 57 58  2  0
 58 59  1  0
 59 60  1  0
 60 61  2  0
 61 62  1  0
 62 63  1  0
 63 64  1  0
 61 65  1  0
 65 66  1  0
 66 67  1  0
 65 68  2  0
 57 69  1  0
 69 70  1  0
 70 71  1  0
 71 72  2  0
 72 73  1  0
 73 74  1  0
 74 75  2  0
 75 76  1  0
 76 77  1  0
 77 78  1  0
 75 79  1  0
 79 80  1  0
 80 81  1  0
 79 82  2  0
  5  1  2  0
 19 15  2  0
 32 28  2  0
 45 41  2  0
 59 55  2  0
 73 69  2  0
 14  4  1  0
 27 18  1  0
 40 31  1  0
 54 44  1  0
 68 58  1  0
 82 72  1  0
  1 83  1  0
  8 84  1  0
  8 85  1  0
  9 86  1  0
  9 87  1  0
 10 88  1  0
 12 89  1  0
 12 90  1  0
 13 91  1  0
 13 92  1  0
 20 93  1  0
 23 94  1  0
 23 95  1  0
 23 96  1  0
 26 97  1  0
 26 98  1  0
 26 99  1  0
 27100  1  0
 33101  1  0
 36102  1  0
 36103  1  0
 36104  1  0
 39105  1  0
 39106  1  0
 39107  1  0
 40108  1  0
 48109  1  0
 48110  1  0
 49111  1  0
 49112  1  0
 50113  1  0
 52114  1  0
 52115  1  0
 53116  1  0
 53117  1  0
 62118  1  0
 62119  1  0
 63120  1  0
 63121  1  0
 64122  1  0
 66123  1  0
 66124  1  0
 67125  1  0
 67126  1  0
 71127  1  0
 76128  1  0
 76129  1  0
 77130  1  0
 77131  1  0
 78132  1  0
 80133  1  0
 80134  1  0
 81135  1  0
 81136  1  0
M  END

