
     RDKit          3D

273299  0  0  0  0  0  0  0  0999 V2000
   -2.7807    8.7920    7.0252 C   0  0  0  0  0  0  0  0  0  0  0  0
   -1.7560    7.9576    6.5946 C   0  0  0  0  0  0  0  0  0  0  0  0
   -2.1983    6.9013    5.7831 C   0  0  0  0  0  0  0  0  0  0  0  0
   -1.3986    5.8792    5.2250 C   0  0  0  0  0  0  0  0  0  0  0  0
    0.0520    5.7836    5.4965 C   0  0  0  0  0  0  0  0  0  0  0  0
    0.9246    6.8169    5.1167 C   0  0  0  0  0  0  0  0  0  0  0  0
    2.2862    6.7398    5.4393 C   0  0  0  0  0  0  0  0  0  0  0  0
    2.7879    5.6232    6.1229 C   0  0  0  0  0  0  0  0  0  0  0  0
    4.5260    5.5453    6.5671 S   0  0  0  0  0  0  0  0  0  0  0  0
    4.2768    6.1368    8.2819 C   0  0  0  0  0  0  0  0  0  0  0  0
    5.1435    5.3359    9.2378 C   0  0  0  0  0  0  0  0  0  0  0  0
    1.9252    4.5705    6.4637 C   0  0  0  0  0  0  0  0  0  0  0  0
    2.4026    3.4777    7.1137 F   0  0  0  0  0  0  0  0  0  0  0  0
    0.5654    4.6572    6.1627 C   0  0  0  0  0  0  0  0  0  0  0  0
   -2.0726    4.8854    4.4921 C   0  0  0  0  0  0  0  0  0  0  0  0
   -3.4645    4.8578    4.3493 C   0  0  0  0  0  0  0  0  0  0  0  0
   -4.2579    5.8886    4.8860 C   0  0  0  0  0  0  0  0  0  0  0  0
   -5.7170    5.9515    4.6810 C   0  0  0  0  0  0  0  0  0  0  0  0
   -6.5715    5.0156    5.2861 C   0  0  0  0  0  0  0  0  0  0  0  0
   -7.9523    5.0920    5.0788 C   0  0  0  0  0  0  0  0  0  0  0  0
   -8.4887    6.0997    4.2675 C   0  0  0  0  0  0  0  0  0  0  0  0
  -10.2674    6.1634    3.9759 S   0  0  0  0  0  0  0  0  0  0  0  0
  -10.6540    7.1570    5.4608 C   0  0  0  0  0  0  0  0  0  0  0  0
  -10.3705    8.6320    5.2240 C   0  0  0  0  0  0  0  0  0  0  0  0
   -7.6378    7.0240    3.6487 C   0  0  0  0  0  0  0  0  0  0  0  0
   -6.2593    6.9565    3.8664 C   0  0  0  0  0  0  0  0  0  0  0  0
   -8.1375    7.9895    2.8326 F   0  0  0  0  0  0  0  0  0  0  0  0
   -3.5843    6.9030    5.5934 C   0  0  0  0  0  0  0  0  0  0  0  0
   -4.2424    8.2150    6.4133 S   0  0  0  0  0  0  0  0  0  0  0  0
   -3.9281    3.7228    3.6600 C   0  0  0  0  0  0  0  0  0  0  0  0
   -2.8921    2.8968    3.2294 C   0  0  0  0  0  0  0  0  0  0  0  0
   -1.4141    3.5448    3.7248 S   0  0  0  0  0  0  0  0  0  0  0  0
   -3.0293    1.5225    2.7407 C   0  0  0  0  0  0  0  0  0  0  0  0
   -3.8010    0.5499    3.3682 C   0  0  0  0  0  0  0  0  0  0  0  0
   -3.3930   -0.7577    3.0582 C   0  0  0  0  0  0  0  0  0  0  0  0
   -3.8025   -1.9439    3.7126 C   0  0  0  0  0  0  0  0  0  0  0  0
   -4.8750   -1.9521    4.7315 C   0  0  0  0  0  0  0  0  0  0  0  0
   -4.7842   -1.1513    5.8857 C   0  0  0  0  0  0  0  0  0  0  0  0
   -5.8553   -1.0896    6.7843 C   0  0  0  0  0  0  0  0  0  0  0  0
   -7.0236   -1.8272    6.5420 C   0  0  0  0  0  0  0  0  0  0  0  0
   -8.4138   -1.7030    7.6727 S   0  0  0  0  0  0  0  0  0  0  0  0
   -9.1324   -0.2093    6.9015 C   0  0  0  0  0  0  0  0  0  0  0  0
   -9.8727   -0.5470    5.6128 C   0  0  0  0  0  0  0  0  0  0  0  0
   -7.0949   -2.6698    5.4220 C   0  0  0  0  0  0  0  0  0  0  0  0
   -8.2033   -3.4170    5.1916 F   0  0  0  0  0  0  0  0  0  0  0  0
   -6.0264   -2.7255    4.5179 C   0  0  0  0  0  0  0  0  0  0  0  0
   -3.1279   -3.1282    3.3572 C   0  0  0  0  0  0  0  0  0  0  0  0
   -2.1700   -3.1690    2.3413 C   0  0  0  0  0  0  0  0  0  0  0  0
   -1.7402   -1.9843    1.7071 C   0  0  0  0  0  0  0  0  0  0  0  0
   -0.5714   -1.9516    0.7880 C   0  0  0  0  0  0  0  0  0  0  0  0
    0.6655   -2.5147    1.1675 C   0  0  0  0  0  0  0  0  0  0  0  0
    1.7135   -2.5956    0.2502 C   0  0  0  0  0  0  0  0  0  0  0  0
    1.5596   -2.0650   -1.0348 C   0  0  0  0  0  0  0  0  0  0  0  0
    2.8622   -2.2710   -2.2476 S   0  0  0  0  0  0  0  0  0  0  0  0
    2.0609   -3.6828   -3.0896 C   0  0  0  0  0  0  0  0  0  0  0  0
    2.2956   -4.9717   -2.3183 C   0  0  0  0  0  0  0  0  0  0  0  0
    0.3853   -1.3896   -1.3761 C   0  0  0  0  0  0  0  0  0  0  0  0
   -0.6875   -1.3586   -0.4823 C   0  0  0  0  0  0  0  0  0  0  0  0
    0.2662   -0.7806   -2.5804 F   0  0  0  0  0  0  0  0  0  0  0  0
   -2.3718   -0.7960    2.1010 C   0  0  0  0  0  0  0  0  0  0  0  0
   -1.8979    0.7783    1.7451 S   0  0  0  0  0  0  0  0  0  0  0  0
   -1.5697   -4.4284    2.2080 C   0  0  0  0  0  0  0  0  0  0  0  0
   -1.8791   -5.3152    3.2370 C   0  0  0  0  0  0  0  0  0  0  0  0
   -3.0616   -4.5841    4.2106 S   0  0  0  0  0  0  0  0  0  0  0  0
   -0.7813   -6.1337    3.7679 C   0  0  0  0  0  0  0  0  0  0  0  0
    0.1179   -5.5132    4.6367 C   0  0  0  0  0  0  0  0  0  0  0  0
    1.4675   -5.7568    4.3309 C   0  0  0  0  0  0  0  0  0  0  0  0
    2.5463   -4.9510    4.7568 C   0  0  0  0  0  0  0  0  0  0  0  0
    2.3585   -3.8946    5.7688 C   0  0  0  0  0  0  0  0  0  0  0  0
    2.1279   -2.5647    5.3804 C   0  0  0  0  0  0  0  0  0  0  0  0
    1.8840   -1.5853    6.3513 C   0  0  0  0  0  0  0  0  0  0  0  0
    1.8836   -1.9253    7.7112 C   0  0  0  0  0  0  0  0  0  0  0  0
    1.5320   -0.6686    8.9483 S   0  0  0  0  0  0  0  0  0  0  0  0
    3.2350   -0.0180    8.9729 C   0  0  0  0  0  0  0  0  0  0  0  0
    3.3713    1.0358   10.0686 C   0  0  0  0  0  0  0  0  0  0  0  0
    2.1233   -3.2517    8.1007 C   0  0  0  0  0  0  0  0  0  0  0  0
    2.1085   -3.5997    9.4118 F   0  0  0  0  0  0  0  0  0  0  0  0
    2.3448   -4.2334    7.1290 C   0  0  0  0  0  0  0  0  0  0  0  0
    3.7592   -5.0910    4.0666 C   0  0  0  0  0  0  0  0  0  0  0  0
    3.9447   -6.0391    3.0590 C   0  0  0  0  0  0  0  0  0  0  0  0
    2.8741   -6.8761    2.6510 C   0  0  0  0  0  0  0  0  0  0  0  0
    2.9588   -7.7319    1.4401 C   0  0  0  0  0  0  0  0  0  0  0  0
    3.3008   -7.1648    0.1975 C   0  0  0  0  0  0  0  0  0  0  0  0
    3.4473   -7.9748   -0.9292 C   0  0  0  0  0  0  0  0  0  0  0  0
    3.1942   -9.3468   -0.8494 C   0  0  0  0  0  0  0  0  0  0  0  0
    3.4224  -10.3725   -2.3065 S   0  0  0  0  0  0  0  0  0  0  0  0
    1.8078   -9.9843   -3.0696 C   0  0  0  0  0  0  0  0  0  0  0  0
    0.6660  -10.6533   -2.3081 C   0  0  0  0  0  0  0  0  0  0  0  0
    2.8135   -9.9139    0.3768 C   0  0  0  0  0  0  0  0  0  0  0  0
    2.6898   -9.1064    1.5149 C   0  0  0  0  0  0  0  0  0  0  0  0
    2.5825  -11.2467    0.4702 F   0  0  0  0  0  0  0  0  0  0  0  0
    1.6406   -6.6894    3.3038 C   0  0  0  0  0  0  0  0  0  0  0  0
    0.1198   -7.1246    2.7361 S   0  0  0  0  0  0  0  0  0  0  0  0
    5.1644   -5.8825    2.3800 C   0  0  0  0  0  0  0  0  0  0  0  0
    5.8626   -4.7262    2.7342 C   0  0  0  0  0  0  0  0  0  0  0  0
    5.0353   -3.9932    4.0156 S   0  0  0  0  0  0  0  0  0  0  0  0
    6.6844   -3.9833    1.7507 C   0  0  0  0  0  0  0  0  0  0  0  0
    6.6547   -2.5859    1.6227 C   0  0  0  0  0  0  0  0  0  0  0  0
    6.8241   -2.1350    0.2982 C   0  0  0  0  0  0  0  0  0  0  0  0
    6.5683   -0.8287   -0.1731 C   0  0  0  0  0  0  0  0  0  0  0  0
    6.3849    0.3164    0.7367 C   0  0  0  0  0  0  0  0  0  0  0  0
    5.2415    0.4230    1.5452 C   0  0  0  0  0  0  0  0  0  0  0  0
    5.0950    1.5114    2.4123 C   0  0  0  0  0  0  0  0  0  0  0  0
    6.0790    2.5111    2.4613 C   0  0  0  0  0  0  0  0  0  0  0  0
    5.8803    3.9051    3.5797 S   0  0  0  0  0  0  0  0  0  0  0  0
    5.1856    5.0290    2.3172 C   0  0  0  0  0  0  0  0  0  0  0  0
    3.6821    4.8341    2.1826 C   0  0  0  0  0  0  0  0  0  0  0  0
    7.2276    2.4009    1.6621 C   0  0  0  0  0  0  0  0  0  0  0  0
    8.1916    3.3535    1.7145 F   0  0  0  0  0  0  0  0  0  0  0  0
    7.3718    1.3121    0.7968 C   0  0  0  0  0  0  0  0  0  0  0  0
    6.4130   -0.6745   -1.5655 C   0  0  0  0  0  0  0  0  0  0  0  0
    6.5672   -1.7374   -2.4652 C   0  0  0  0  0  0  0  0  0  0  0  0
    6.9539   -3.0158   -1.9982 C   0  0  0  0  0  0  0  0  0  0  0  0
    7.0627   -4.1942   -2.8876 C   0  0  0  0  0  0  0  0  0  0  0  0
    5.9600   -4.6333   -3.6362 C   0  0  0  0  0  0  0  0  0  0  0  0
    6.0628   -5.7679   -4.4469 C   0  0  0  0  0  0  0  0  0  0  0  0
    7.2714   -6.4716   -4.5204 C   0  0  0  0  0  0  0  0  0  0  0  0
    7.4233   -7.8766   -5.6364 S   0  0  0  0  0  0  0  0  0  0  0  0
    7.6396   -6.8673   -7.1478 C   0  0  0  0  0  0  0  0  0  0  0  0
    9.0085   -6.2147   -7.2053 C   0  0  0  0  0  0  0  0  0  0  0  0
    8.3654   -6.0638   -3.7427 C   0  0  0  0  0  0  0  0  0  0  0  0
    8.2564   -4.9340   -2.9268 C   0  0  0  0  0  0  0  0  0  0  0  0
    9.5313   -6.7563   -3.7801 F   0  0  0  0  0  0  0  0  0  0  0  0
    7.0527   -3.1759   -0.6075 C   0  0  0  0  0  0  0  0  0  0  0  0
    7.0370   -4.6279    0.2278 S   0  0  0  0  0  0  0  0  0  0  0  0
    6.1328   -1.4273   -3.7634 C   0  0  0  0  0  0  0  0  0  0  0  0
    5.5655   -0.1585   -3.8666 C   0  0  0  0  0  0  0  0  0  0  0  0
    5.7021    0.6168   -2.3718 S   0  0  0  0  0  0  0  0  0  0  0  0
    4.5211    0.1741   -4.8498 C   0  0  0  0  0  0  0  0  0  0  0  0
    4.0400    1.4556   -5.1261 C   0  0  0  0  0  0  0  0  0  0  0  0
    2.7961    1.4450   -5.7889 C   0  0  0  0  0  0  0  0  0  0  0  0
    2.0310    2.5745   -6.1490 C   0  0  0  0  0  0  0  0  0  0  0  0
    2.4877    3.9601   -5.8974 C   0  0  0  0  0  0  0  0  0  0  0  0
    2.7184    4.3973   -4.5803 C   0  0  0  0  0  0  0  0  0  0  0  0
    3.0793    5.7241   -4.3325 C   0  0  0  0  0  0  0  0  0  0  0  0
    3.1794    6.6348   -5.3919 C   0  0  0  0  0  0  0  0  0  0  0  0
    3.6048    8.3466   -5.0526 S   0  0  0  0  0  0  0  0  0  0  0  0
    1.9244    8.8411   -4.5267 C   0  0  0  0  0  0  0  0  0  0  0  0
    1.0595    9.2089   -5.7229 C   0  0  0  0  0  0  0  0  0  0  0  0
    2.9574    6.2048   -6.7060 C   0  0  0  0  0  0  0  0  0  0  0  0
    3.0671    7.0701   -7.7427 F   0  0  0  0  0  0  0  0  0  0  0  0
    2.6145    4.8706   -6.9563 C   0  0  0  0  0  0  0  0  0  0  0  0
    0.7687    2.3241   -6.7256 C   0  0  0  0  0  0  0  0  0  0  0  0
    0.2540    1.0352   -6.8898 C   0  0  0  0  0  0  0  0  0  0  0  0
    1.0089   -0.0902   -6.5040 C   0  0  0  0  0  0  0  0  0  0  0  0
    0.3877   -1.4283   -6.4045 C   0  0  0  0  0  0  0  0  0  0  0  0
   -0.5865   -1.6611   -5.4166 C   0  0  0  0  0  0  0  0  0  0  0  0
   -1.0972   -2.9455   -5.2148 C   0  0  0  0  0  0  0  0  0  0  0  0
   -0.6898   -4.0024   -6.0351 C   0  0  0  0  0  0  0  0  0  0  0  0
   -1.2884   -5.6682   -5.7115 S   0  0  0  0  0  0  0  0  0  0  0  0
   -2.9467   -5.4386   -6.4503 C   0  0  0  0  0  0  0  0  0  0  0  0
   -3.9908   -5.3523   -5.3429 C   0  0  0  0  0  0  0  0  0  0  0  0
    0.2408   -3.7687   -7.0617 C   0  0  0  0  0  0  0  0  0  0  0  0
    0.7920   -2.4892   -7.2310 C   0  0  0  0  0  0  0  0  0  0  0  0
    0.6496   -4.7855   -7.8622 F   0  0  0  0  0  0  0  0  0  0  0  0
    2.3014    0.1520   -6.0071 C   0  0  0  0  0  0  0  0  0  0  0  0
    3.4046   -0.9609   -5.4144 S   0  0  0  0  0  0  0  0  0  0  0  0
   -1.0366    1.0138   -7.4331 C   0  0  0  0  0  0  0  0  0  0  0  0
   -1.5481    2.2907   -7.6679 C   0  0  0  0  0  0  0  0  0  0  0  0
   -0.3849    3.4327   -7.2316 S   0  0  0  0  0  0  0  0  0  0  0  0
   -2.8372    2.6165   -8.3082 C   0  0  0  0  0  0  0  0  0  0  0  0
   -3.0683    3.9451   -9.3189 S   0  0  0  0  0  0  0  0  0  0  0  0
   -4.6605    3.6223   -9.7422 C   0  0  0  0  0  0  0  0  0  0  0  0
   -5.0424    2.4585   -9.0835 C   0  0  0  0  0  0  0  0  0  0  0  0
   -4.0386    1.8980   -8.2726 C   0  0  0  0  0  0  0  0  0  0  0  0
   -4.3171    0.7641   -7.4998 C   0  0  0  0  0  0  0  0  0  0  0  0
   -5.5834    0.1442   -7.5993 C   0  0  0  0  0  0  0  0  0  0  0  0
   -5.8978   -1.0260   -6.8872 O   0  0  0  0  0  0  0  0  0  0  0  0
   -4.9828   -1.7402   -6.0610 C   0  0  0  0  0  0  0  0  0  0  0  0
   -6.5783    0.7005   -8.4293 C   0  0  0  0  0  0  0  0  0  0  0  0
   -7.8306    0.0658   -8.4860 O   0  0  0  0  0  0  0  0  0  0  0  0
   -8.9156    0.4927   -9.3016 C   0  0  0  0  0  0  0  0  0  0  0  0
   -6.3055    1.8709   -9.1698 C   0  0  0  0  0  0  0  0  0  0  0  0
   -2.6553    9.6551    7.6660 H   0  0  0  0  0  0  0  0  0  0  0  0
   -0.7228    8.1140    6.8816 H   0  0  0  0  0  0  0  0  0  0  0  0
    0.5524    7.6811    4.5876 H   0  0  0  0  0  0  0  0  0  0  0  0
    2.9488    7.5464    5.1633 H   0  0  0  0  0  0  0  0  0  0  0  0
    4.5597    7.2087    8.3338 H   0  0  0  0  0  0  0  0  0  0  0  0
    3.2154    6.0390    8.6057 H   0  0  0  0  0  0  0  0  0  0  0  0
    4.8609    4.2615    9.1849 H   0  0  0  0  0  0  0  0  0  0  0  0
    4.9951    5.6940   10.2789 H   0  0  0  0  0  0  0  0  0  0  0  0
    6.2202    5.4455    8.9740 H   0  0  0  0  0  0  0  0  0  0  0  0
   -0.0902    3.8516    6.4604 H   0  0  0  0  0  0  0  0  0  0  0  0
   -6.1675    4.2317    5.9130 H   0  0  0  0  0  0  0  0  0  0  0  0
   -8.6067    4.3686    5.5517 H   0  0  0  0  0  0  0  0  0  0  0  0
  -11.7370    7.0301    5.6806 H   0  0  0  0  0  0  0  0  0  0  0  0
  -10.0772    6.7903    6.3391 H   0  0  0  0  0  0  0  0  0  0  0  0
   -9.2779    8.8103    5.1441 H   0  0  0  0  0  0  0  0  0  0  0  0
  -10.8757    8.9822    4.2977 H   0  0  0  0  0  0  0  0  0  0  0  0
  -10.7566    9.2218    6.0812 H   0  0  0  0  0  0  0  0  0  0  0  0
   -5.6074    7.6770    3.3797 H   0  0  0  0  0  0  0  0  0  0  0  0
   -4.9693    3.4877    3.4978 H   0  0  0  0  0  0  0  0  0  0  0  0
   -4.5365    0.7976    4.1190 H   0  0  0  0  0  0  0  0  0  0  0  0
   -3.8980   -0.5622    6.0770 H   0  0  0  0  0  0  0  0  0  0  0  0
   -5.7867   -0.4510    7.6564 H   0  0  0  0  0  0  0  0  0  0  0  0
   -8.3374    0.5444    6.7028 H   0  0  0  0  0  0  0  0  0  0  0  0
   -9.8521    0.2327    7.6251 H   0  0  0  0  0  0  0  0  0  0  0  0
  -10.5977   -1.3723    5.7852 H   0  0  0  0  0  0  0  0  0  0  0  0
   -9.1579   -0.8375    4.8131 H   0  0  0  0  0  0  0  0  0  0  0  0
  -10.4317    0.3481    5.2710 H   0  0  0  0  0  0  0  0  0  0  0  0
   -6.1079   -3.3536    3.6425 H   0  0  0  0  0  0  0  0  0  0  0  0
    0.8017   -2.9297    2.1552 H   0  0  0  0  0  0  0  0  0  0  0  0
    2.6330   -3.0992    0.5246 H   0  0  0  0  0  0  0  0  0  0  0  0
    2.4992   -3.7777   -4.1034 H   0  0  0  0  0  0  0  0  0  0  0  0
    0.9717   -3.5069   -3.2078 H   0  0  0  0  0  0  0  0  0  0  0  0
    1.7339   -4.9520   -1.3600 H   0  0  0  0  0  0  0  0  0  0  0  0
    1.9442   -5.8392   -2.9150 H   0  0  0  0  0  0  0  0  0  0  0  0
    3.3797   -5.0923   -2.1095 H   0  0  0  0  0  0  0  0  0  0  0  0
   -1.6126   -0.8872   -0.7794 H   0  0  0  0  0  0  0  0  0  0  0  0
   -0.7760   -4.6365    1.5079 H   0  0  0  0  0  0  0  0  0  0  0  0
   -0.1884   -4.7018    5.2797 H   0  0  0  0  0  0  0  0  0  0  0  0
    2.1244   -2.2890    4.3339 H   0  0  0  0  0  0  0  0  0  0  0  0
    1.6982   -0.5644    6.0458 H   0  0  0  0  0  0  0  0  0  0  0  0
    3.4592    0.4476    7.9891 H   0  0  0  0  0  0  0  0  0  0  0  0
    3.9593   -0.8405    9.1611 H   0  0  0  0  0  0  0  0  0  0  0  0
    2.6272    1.8479    9.9171 H   0  0  0  0  0  0  0  0  0  0  0  0
    3.2065    0.5674   11.0636 H   0  0  0  0  0  0  0  0  0  0  0  0
    4.3914    1.4696   10.0466 H   0  0  0  0  0  0  0  0  0  0  0  0
    2.4981   -5.2592    7.4361 H   0  0  0  0  0  0  0  0  0  0  0  0
    3.4850   -6.1022    0.1177 H   0  0  0  0  0  0  0  0  0  0  0  0
    3.7577   -7.5377   -1.8719 H   0  0  0  0  0  0  0  0  0  0  0  0
    1.8165  -10.3763   -4.1107 H   0  0  0  0  0  0  0  0  0  0  0  0
    1.6498   -8.8863   -3.1060 H   0  0  0  0  0  0  0  0  0  0  0  0
    0.4514  -10.1076   -1.3616 H   0  0  0  0  0  0  0  0  0  0  0  0
   -0.2550  -10.6450   -2.9261 H   0  0  0  0  0  0  0  0  0  0  0  0
    0.9196  -11.7063   -2.0794 H   0  0  0  0  0  0  0  0  0  0  0  0
    2.4168   -9.5592    2.4586 H   0  0  0  0  0  0  0  0  0  0  0  0
    5.4495   -6.4961    1.5391 H   0  0  0  0  0  0  0  0  0  0  0  0
    6.3413   -1.9387    2.4306 H   0  0  0  0  0  0  0  0  0  0  0  0
    4.4699   -0.3326    1.5001 H   0  0  0  0  0  0  0  0  0  0  0  0
    4.2161    1.5815    3.0407 H   0  0  0  0  0  0  0  0  0  0  0  0
    5.3757    6.0745    2.6441 H   0  0  0  0  0  0  0  0  0  0  0  0
    5.6861    4.8842    1.3343 H   0  0  0  0  0  0  0  0  0  0  0  0
    3.2854    5.5194    1.4063 H   0  0  0  0  0  0  0  0  0  0  0  0
    3.1800    5.0491    3.1471 H   0  0  0  0  0  0  0  0  0  0  0  0
    3.4514    3.7912    1.8748 H   0  0  0  0  0  0  0  0  0  0  0  0
    8.2602    1.2414    0.1825 H   0  0  0  0  0  0  0  0  0  0  0  0
    5.0253   -4.0949   -3.6029 H   0  0  0  0  0  0  0  0  0  0  0  0
    5.2082   -6.0860   -5.0347 H   0  0  0  0  0  0  0  0  0  0  0  0
    7.5231   -7.5428   -8.0222 H   0  0  0  0  0  0  0  0  0  0  0  0
    6.8398   -6.0945   -7.2067 H   0  0  0  0  0  0  0  0  0  0  0  0
    9.8094   -6.9876   -7.1644 H   0  0  0  0  0  0  0  0  0  0  0  0
    9.1056   -5.6466   -8.1538 H   0  0  0  0  0  0  0  0  0  0  0  0
    9.1394   -5.4984   -6.3670 H   0  0  0  0  0  0  0  0  0  0  0  0
    9.1033   -4.6302   -2.3261 H   0  0  0  0  0  0  0  0  0  0  0  0
    6.0943   -2.1402   -4.5730 H   0  0  0  0  0  0  0  0  0  0  0  0
    4.5517    2.3504   -4.7974 H   0  0  0  0  0  0  0  0  0  0  0  0
    2.6114    3.7165   -3.7435 H   0  0  0  0  0  0  0  0  0  0  0  0
    3.2499    6.0542   -3.3153 H   0  0  0  0  0  0  0  0  0  0  0  0
    1.4412    8.0317   -3.9343 H   0  0  0  0  0  0  0  0  0  0  0  0
    2.0206    9.7302   -3.8665 H   0  0  0  0  0  0  0  0  0  0  0  0
    0.0541    9.5155   -5.3714 H   0  0  0  0  0  0  0  0  0  0  0  0
    1.5128   10.0558   -6.2763 H   0  0  0  0  0  0  0  0  0  0  0  0
    0.9414    8.3414   -6.4017 H   0  0  0  0  0  0  0  0  0  0  0  0
    2.4227    4.5522   -7.9724 H   0  0  0  0  0  0  0  0  0  0  0  0
   -0.9248   -0.8533   -4.7853 H   0  0  0  0  0  0  0  0  0  0  0  0
   -1.7997   -3.1249   -4.4072 H   0  0  0  0  0  0  0  0  0  0  0  0
   -3.1750   -6.3215   -7.0853 H   0  0  0  0  0  0  0  0  0  0  0  0
   -2.9947   -4.5299   -7.0880 H   0  0  0  0  0  0  0  0  0  0  0  0
   -3.8527   -4.4268   -4.7420 H   0  0  0  0  0  0  0  0  0  0  0  0
   -5.0106   -5.3544   -5.7844 H   0  0  0  0  0  0  0  0  0  0  0  0
   -3.9029   -6.2290   -4.6635 H   0  0  0  0  0  0  0  0  0  0  0  0
    1.5424   -2.3287   -7.9976 H   0  0  0  0  0  0  0  0  0  0  0  0
   -1.5480    0.0990   -7.6990 H   0  0  0  0  0  0  0  0  0  0  0  0
   -5.2792    4.2091  -10.4093 H   0  0  0  0  0  0  0  0  0  0  0  0
   -3.5877    0.3806   -6.8099 H   0  0  0  0  0  0  0  0  0  0  0  0
   -5.4915   -2.6491   -5.6701 H   0  0  0  0  0  0  0  0  0  0  0  0
   -4.6717   -1.1100   -5.2021 H   0  0  0  0  0  0  0  0  0  0  0  0
   -4.0976   -2.0545   -6.6496 H   0  0  0  0  0  0  0  0  0  0  0  0
   -9.7735   -0.1946   -9.1526 H   0  0  0  0  0  0  0  0  0  0  0  0
   -8.6192    0.4698  -10.3713 H   0  0  0  0  0  0  0  0  0  0  0  0
   -9.2309    1.5198   -9.0110 H   0  0  0  0  0  0  0  0  0  0  0  0
   -7.0526    2.3231   -9.8058 H   0  0  0  0  0  0  0  0  0  0  0  0
  1  2  2  0
  2  3  1  0
  3  4  2  0
  4  5  1  0
  5  6  2  0
  6  7  1  0
  7  8  2  0
  8  9  1  0
  9 10  1  0
 10 11  1  0
  8 12  1  0
 12 13  1  0
 12 14  2  0
  4 15  1  0
 15 16  2  0
 16 17  1  0
 17 18  1  0
 18 19  2  0
 19 20  1  0
 20 21  2  0
 21 22  1  0
 22 23  1  0
 23 24  1  0
 21 25  1  0
 25 26  2  0
 25 27  1  0
 17 28  2  0
 28 29  1  0
 16 30  1  0
 30 31  2  0
 31 32  1  0
 31 33  1  0
 33 34  2  0
 34 35  1  0
 35 36  2  0
 36 37  1  0
 37 38  2  0
 38 39  1  0
 39 40  2  0
 40 41  1  0
 41 42  1  0
 42 43  1  0
 40 44  1  0
 44 45  1  0
 44 46  2  0
 36 47  1  0
 47 48  2  0
 48 49  1  0
 49 50  1  0
 50 51  2  0
 51 52  1  0
 52 53  2  0
 53 54  1  0
 54 55  1  0
 55 56  1  0
 53 57  1  0
 57 58  2  0
 57 59  1  0
 49 60  2  0
 60 61  1  0
 48 62  1  0
 62 63  2  0
 63 64  1  0
 63 65  1  0
 65 66  2  0
 66 67  1  0
 67 68  2  0
 68 69  1  0
 69 70  2  0
 70 71  1  0
 71 72  2  0
 72 73  1  0
 73 74  1  0
 74 75  1  0
 72 76  1  0
 76 77  1  0
 76 78  2  0
 68 79  1  0
 79 80  2  0
 80 81  1  0
 81 82  1  0
 82 83  2  0
 83 84  1  0
 84 85  2  0
 85 86  1  0
 86 87  1  0
 87 88  1  0
 85 89  1  0
 89 90  2  0
 89 91  1  0
 81 92  2  0
 92 93  1  0
 80 94  1  0
 94 95  2  0
 95 96  1  0
 95 97  1  0
 97 98  2  0
 98 99  1  0
 99100  2  0
100101  1  0
101102  2  0
102103  1  0
103104  2  0
104105  1  0
105106  1  0
106107  1  0
104108  1  0
108109  1  0
108110  2  0
100111  1  0
111112  2  0
112113  1  0
113114  1  0
114115  2  0
115116  1  0
116117  2  0
117118  1  0
118119  1  0
119120  1  0
117121  1  0
121122  2  0
121123  1  0
113124  2  0
124125  1  0
112126  1  0
126127  2  0
127128  1  0
127129  1  0
129130  2  0
130131  1  0
131132  2  0
132133  1  0
133134  2  0
134135  1  0
135136  2  0
136137  1  0
137138  1  0
138139  1  0
136140  1  0
140141  1  0
140142  2  0
132143  1  0
143144  2  0
144145  1  0
145146  1  0
146147  2  0
147148  1  0
148149  2  0
149150  1  0
150151  1  0
151152  1  0
149153  1  0
153154  2  0
153155  1  0
145156  2  0
156157  1  0
144158  1  0
158159  2  0
159160  1  0
159161  1  0
161162  1  0
162163  1  0
163164  2  0
164165  1  0
165166  1  0
166167  2  0
167168  1  0
168169  1  0
167170  1  0
170171  1  0
171172  1  0
170173  2  0
 29  1  1  0
 61 33  1  0
 93 65  1  0
125 97  1  0
157129  1  0
165161  2  0
 28  3  1  0
 60 35  1  0
 92 67  1  0
124 99  1  0
156131  1  0
173164  1  0
 14  5  1  0
 32 15  1  0
 46 37  1  0
 64 47  1  0
 78 69  1  0
 96 79  1  0
110101  1  0
128111  1  0
142133  1  0
160143  1  0
 26 18  1  0
 58 50  1  0
 90 82  1  0
122114  1  0
154146  1  0
  1174  1  0
  2175  1  0
  6176  1  0
  7177  1  0
 10178  1  0
 10179  1  0
 11180  1  0
 11181  1  0
 11182  1  0
 14183  1  0
 19184  1  0
 20185  1  0
 23186  1  0
 23187  1  0
 24188  1  0
 24189  1  0
 24190  1  0
 26191  1  0
 30192  1  0
 34193  1  0
 38194  1  0
 39195  1  0
 42196  1  0
 42197  1  0
 43198  1  0
 43199  1  0
 43200  1  0
 46201  1  0
 51202  1  0
 52203  1  0
 55204  1  0
 55205  1  0
 56206  1  0
 56207  1  0
 56208  1  0
 58209  1  0
 62210  1  0
 66211  1  0
 70212  1  0
 71213  1  0
 74214  1  0
 74215  1  0
 75216  1  0
 75217  1  0
 75218  1  0
 78219  1  0
 83220  1  0
 84221  1  0
 87222  1  0
 87223  1  0
 88224  1  0
 88225  1  0
 88226  1  0
 90227  1  0
 94228  1  0
 98229  1  0
102230  1  0
103231  1  0
106232  1  0
106233  1  0
107234  1  0
107235  1  0
107236  1  0
110237  1  0
115238  1  0
116239  1  0
119240  1  0
119241  1  0
120242  1  0
120243  1  0
120244  1  0
122245  1  0
126246  1  0
130247  1  0
134248  1  0
135249  1  0
138250  1  0
138251  1  0
139252  1  0
139253  1  0
139254  1  0
142255  1  0
147256  1  0
148257  1  0
151258  1  0
151259  1  0
152260  1  0
152261  1  0
152262  1  0
154263  1  0
158264  1  0
163265  1  0
166266  1  0
169267  1  0
169268  1  0
169269  1  0
172270  1  0
172271  1  0
172272  1  0
173273  1  0
M  END

