
     RDKit          3D

170187  0  0  0  0  0  0  0  0999 V2000
    4.6449    0.8877   11.3605 C   0  0  0  0  0  0  0  0  0  0  0  0
    3.8442   -0.5759   11.1233 S   0  0  0  0  0  0  0  0  0  0  0  0
    4.2084   -0.7527    9.4897 C   0  0  0  0  0  0  0  0  0  0  0  0
    4.9510    0.3656    9.0943 C   0  0  0  0  0  0  0  0  0  0  0  0
    5.1891    1.2712   10.1397 C   0  0  0  0  0  0  0  0  0  0  0  0
    5.8891    2.4556    9.9110 C   0  0  0  0  0  0  0  0  0  0  0  0
    6.3443    2.7538    8.6085 C   0  0  0  0  0  0  0  0  0  0  0  0
    7.0367    3.9404    8.3194 O   0  0  0  0  0  0  0  0  0  0  0  0
    7.2115    5.0155    9.2348 C   0  0  0  0  0  0  0  0  0  0  0  0
    6.0896    1.8574    7.5494 C   0  0  0  0  0  0  0  0  0  0  0  0
    6.5371    2.2036    6.2635 O   0  0  0  0  0  0  0  0  0  0  0  0
    6.2277    1.4792    5.0776 C   0  0  0  0  0  0  0  0  0  0  0  0
    5.3893    0.6568    7.7937 C   0  0  0  0  0  0  0  0  0  0  0  0
    3.7341   -1.8552    8.6425 C   0  0  0  0  0  0  0  0  0  0  0  0
    2.4079   -2.2717    8.5503 C   0  0  0  0  0  0  0  0  0  0  0  0
    2.2020   -3.2066    7.5223 C   0  0  0  0  0  0  0  0  0  0  0  0
    0.9536   -3.6881    7.0706 C   0  0  0  0  0  0  0  0  0  0  0  0
   -0.3090   -3.3267    7.7438 C   0  0  0  0  0  0  0  0  0  0  0  0
   -1.5713   -2.4719    7.0306 S   0  0  0  0  0  0  0  0  0  0  0  0
   -2.5680   -2.4532    8.3860 C   0  0  0  0  0  0  0  0  0  0  0  0
   -3.9061   -1.7848    8.4513 C   0  0  0  0  0  0  0  0  0  0  0  0
   -3.7800   -0.3681    9.0051 C   0  0  0  0  0  0  0  0  0  0  0  0
   -1.9135   -3.1011    9.4293 C   0  0  0  0  0  0  0  0  0  0  0  0
   -2.5941   -3.2850   11.0394 Cl  0  0  0  0  0  0  0  0  0  0  0  0
   -0.6480   -3.5953    9.0701 C   0  0  0  0  0  0  0  0  0  0  0  0
    0.3853   -4.4948   10.1754 Cl  0  0  0  0  0  0  0  0  0  0  0  0
    0.9584   -4.4310    5.8716 C   0  0  0  0  0  0  0  0  0  0  0  0
    2.1340   -4.7159    5.1675 C   0  0  0  0  0  0  0  0  0  0  0  0
    3.3828   -4.2989    5.6644 C   0  0  0  0  0  0  0  0  0  0  0  0
    4.6362   -4.5566    4.9363 C   0  0  0  0  0  0  0  0  0  0  0  0
    5.0607   -3.8551    3.4681 S   0  0  0  0  0  0  0  0  0  0  0  0
    6.5638   -4.5998    3.3460 C   0  0  0  0  0  0  0  0  0  0  0  0
    7.5473   -4.3456    2.2468 C   0  0  0  0  0  0  0  0  0  0  0  0
    8.5733   -3.2991    2.6698 C   0  0  0  0  0  0  0  0  0  0  0  0
    6.7647   -5.3904    4.4781 C   0  0  0  0  0  0  0  0  0  0  0  0
    5.6817   -5.3665    5.3685 C   0  0  0  0  0  0  0  0  0  0  0  0
    5.6434   -6.2736    6.8745 Cl  0  0  0  0  0  0  0  0  0  0  0  0
    8.2303   -6.3176    4.7606 Cl  0  0  0  0  0  0  0  0  0  0  0  0
    3.3777   -3.5291    6.8367 C   0  0  0  0  0  0  0  0  0  0  0  0
    4.6613   -2.6638    7.4887 S   0  0  0  0  0  0  0  0  0  0  0  0
    1.9032   -5.3114    3.9195 C   0  0  0  0  0  0  0  0  0  0  0  0
    0.5522   -5.4929    3.6402 C   0  0  0  0  0  0  0  0  0  0  0  0
   -0.3555   -4.9291    4.9463 S   0  0  0  0  0  0  0  0  0  0  0  0
    0.0196   -5.5202    2.2797 C   0  0  0  0  0  0  0  0  0  0  0  0
    0.3172   -4.2799    1.1872 S   0  0  0  0  0  0  0  0  0  0  0  0
   -0.9160   -4.6494    0.1060 C   0  0  0  0  0  0  0  0  0  0  0  0
   -1.5976   -5.7634    0.5973 C   0  0  0  0  0  0  0  0  0  0  0  0
   -1.0769   -6.2447    1.8133 C   0  0  0  0  0  0  0  0  0  0  0  0
   -1.6631   -7.3363    2.4555 C   0  0  0  0  0  0  0  0  0  0  0  0
   -2.7800   -7.9676    1.8674 C   0  0  0  0  0  0  0  0  0  0  0  0
   -3.3711   -9.1044    2.4427 O   0  0  0  0  0  0  0  0  0  0  0  0
   -2.8628   -9.7874    3.5834 C   0  0  0  0  0  0  0  0  0  0  0  0
   -3.3245   -7.4653    0.6659 C   0  0  0  0  0  0  0  0  0  0  0  0
   -4.4525   -8.1110    0.1331 O   0  0  0  0  0  0  0  0  0  0  0  0
   -5.1179   -7.7131   -1.0611 C   0  0  0  0  0  0  0  0  0  0  0  0
   -2.7290   -6.3541    0.0288 C   0  0  0  0  0  0  0  0  0  0  0  0
   -1.3631   -3.7224   -0.9387 C   0  0  0  0  0  0  0  0  0  0  0  0
   -1.1280   -3.9475   -2.5972 S   0  0  0  0  0  0  0  0  0  0  0  0
   -1.5201   -2.3717   -3.0544 C   0  0  0  0  0  0  0  0  0  0  0  0
   -1.7996   -1.6369   -1.9044 C   0  0  0  0  0  0  0  0  0  0  0  0
   -1.7174   -2.3876   -0.7271 C   0  0  0  0  0  0  0  0  0  0  0  0
   -1.9400   -1.7820    0.5153 C   0  0  0  0  0  0  0  0  0  0  0  0
   -2.2229   -0.3993    0.5771 C   0  0  0  0  0  0  0  0  0  0  0  0
   -2.4303    0.2607    1.7997 O   0  0  0  0  0  0  0  0  0  0  0  0
   -2.3732   -0.3678    3.0770 C   0  0  0  0  0  0  0  0  0  0  0  0
   -2.2856    0.3607   -0.6105 C   0  0  0  0  0  0  0  0  0  0  0  0
   -2.5534    1.7343   -0.5087 O   0  0  0  0  0  0  0  0  0  0  0  0
   -2.6100    2.6290   -1.6184 C   0  0  0  0  0  0  0  0  0  0  0  0
   -2.0798   -0.2664   -1.8572 C   0  0  0  0  0  0  0  0  0  0  0  0
   -1.3281   -1.7924   -4.3843 C   0  0  0  0  0  0  0  0  0  0  0  0
   -0.2606   -0.9552   -4.6943 C   0  0  0  0  0  0  0  0  0  0  0  0
   -0.5201   -0.1155   -5.7859 C   0  0  0  0  0  0  0  0  0  0  0  0
    0.3097    0.9282   -6.2429 C   0  0  0  0  0  0  0  0  0  0  0  0
    1.6123    1.2087   -5.6245 C   0  0  0  0  0  0  0  0  0  0  0  0
    1.8274    1.9697   -4.1413 S   0  0  0  0  0  0  0  0  0  0  0  0
    3.5138    1.8894   -4.1405 C   0  0  0  0  0  0  0  0  0  0  0  0
    4.4066    2.3228   -3.0096 C   0  0  0  0  0  0  0  0  0  0  0  0
    3.9356    3.6258   -2.3675 C   0  0  0  0  0  0  0  0  0  0  0  0
    3.9202    1.2125   -5.2915 C   0  0  0  0  0  0  0  0  0  0  0  0
    5.5978    0.8366   -5.6602 Cl  0  0  0  0  0  0  0  0  0  0  0  0
    2.8534    0.8477   -6.1296 C   0  0  0  0  0  0  0  0  0  0  0  0
    3.0605   -0.0104   -7.6490 Cl  0  0  0  0  0  0  0  0  0  0  0  0
   -0.2060    1.7529   -7.2572 C   0  0  0  0  0  0  0  0  0  0  0  0
   -1.4829    1.5685   -7.7957 C   0  0  0  0  0  0  0  0  0  0  0  0
   -2.3071    0.5208   -7.3453 C   0  0  0  0  0  0  0  0  0  0  0  0
   -3.7011    0.3867   -7.7951 C   0  0  0  0  0  0  0  0  0  0  0  0
   -4.9334    1.4600   -7.4045 S   0  0  0  0  0  0  0  0  0  0  0  0
   -6.1589    0.6096   -8.1872 C   0  0  0  0  0  0  0  0  0  0  0  0
   -7.6044    0.9995   -8.1691 C   0  0  0  0  0  0  0  0  0  0  0  0
   -8.3601    0.2258   -7.0929 C   0  0  0  0  0  0  0  0  0  0  0  0
   -5.6131   -0.5448   -8.7473 C   0  0  0  0  0  0  0  0  0  0  0  0
   -4.2354   -0.6694   -8.5254 C   0  0  0  0  0  0  0  0  0  0  0  0
   -3.2736   -2.0231   -9.1072 Cl  0  0  0  0  0  0  0  0  0  0  0  0
   -6.5579   -1.7325   -9.6333 Cl  0  0  0  0  0  0  0  0  0  0  0  0
   -1.7903   -0.3074   -6.3369 C   0  0  0  0  0  0  0  0  0  0  0  0
   -2.6022   -1.4821   -5.4452 S   0  0  0  0  0  0  0  0  0  0  0  0
   -1.8357    2.5517   -8.7323 C   0  0  0  0  0  0  0  0  0  0  0  0
   -0.8530    3.5263   -8.8893 C   0  0  0  0  0  0  0  0  0  0  0  0
    0.4757    3.1448   -7.9164 S   0  0  0  0  0  0  0  0  0  0  0  0
   -0.9732    4.7504   -9.6973 C   0  0  0  0  0  0  0  0  0  0  0  0
    0.2788    5.4282  -10.5989 S   0  0  0  0  0  0  0  0  0  0  0  0
   -0.5791    6.7526  -11.1922 C   0  0  0  0  0  0  0  0  0  0  0  0
   -1.8631    6.6904  -10.6615 C   0  0  0  0  0  0  0  0  0  0  0  0
   -2.0902    5.5845   -9.8277 C   0  0  0  0  0  0  0  0  0  0  0  0
   -3.3216    5.4400   -9.1769 C   0  0  0  0  0  0  0  0  0  0  0  0
   -4.3394    6.3936   -9.3861 C   0  0  0  0  0  0  0  0  0  0  0  0
   -5.5944    6.2866   -8.7621 O   0  0  0  0  0  0  0  0  0  0  0  0
   -5.9868    5.2060   -7.9198 C   0  0  0  0  0  0  0  0  0  0  0  0
   -4.1080    7.4984  -10.2327 C   0  0  0  0  0  0  0  0  0  0  0  0
   -5.1407    8.4343  -10.3963 O   0  0  0  0  0  0  0  0  0  0  0  0
   -5.0104    9.6603  -11.1101 C   0  0  0  0  0  0  0  0  0  0  0  0
   -2.8598    7.6438  -10.8767 C   0  0  0  0  0  0  0  0  0  0  0  0
    4.7006    1.4434   12.2873 H   0  0  0  0  0  0  0  0  0  0  0  0
    6.0533    3.1390   10.7360 H   0  0  0  0  0  0  0  0  0  0  0  0
    7.7833    4.6758   10.1226 H   0  0  0  0  0  0  0  0  0  0  0  0
    7.7777    5.8260    8.7318 H   0  0  0  0  0  0  0  0  0  0  0  0
    6.2222    5.4122    9.5349 H   0  0  0  0  0  0  0  0  0  0  0  0
    5.1283    1.4129    4.9444 H   0  0  0  0  0  0  0  0  0  0  0  0
    6.6653    0.4606    5.1233 H   0  0  0  0  0  0  0  0  0  0  0  0
    6.6556    2.0131    4.2065 H   0  0  0  0  0  0  0  0  0  0  0  0
    5.1649   -0.0151    6.9818 H   0  0  0  0  0  0  0  0  0  0  0  0
    1.6137   -1.8430    9.1486 H   0  0  0  0  0  0  0  0  0  0  0  0
   -4.5927   -2.3729    9.0954 H   0  0  0  0  0  0  0  0  0  0  0  0
   -4.3531   -1.7407    7.4363 H   0  0  0  0  0  0  0  0  0  0  0  0
   -3.3338   -0.3847   10.0215 H   0  0  0  0  0  0  0  0  0  0  0  0
   -4.7903    0.0918    9.0679 H   0  0  0  0  0  0  0  0  0  0  0  0
   -3.1458    0.2554    8.3357 H   0  0  0  0  0  0  0  0  0  0  0  0
    8.0667   -5.2903    1.9815 H   0  0  0  0  0  0  0  0  0  0  0  0
    7.0094   -3.9820    1.3467 H   0  0  0  0  0  0  0  0  0  0  0  0
    8.0655   -2.3647    2.9930 H   0  0  0  0  0  0  0  0  0  0  0  0
    9.1924   -3.6869    3.5064 H   0  0  0  0  0  0  0  0  0  0  0  0
    9.2402   -3.0665    1.8140 H   0  0  0  0  0  0  0  0  0  0  0  0
    2.6772   -5.5041    3.1885 H   0  0  0  0  0  0  0  0  0  0  0  0
   -1.2428   -7.6938    3.3841 H   0  0  0  0  0  0  0  0  0  0  0  0
   -1.8269  -10.1385    3.3891 H   0  0  0  0  0  0  0  0  0  0  0  0
   -3.5006  -10.6748    3.7907 H   0  0  0  0  0  0  0  0  0  0  0  0
   -2.8829   -9.1190    4.4703 H   0  0  0  0  0  0  0  0  0  0  0  0
   -4.4255   -7.7864   -1.9246 H   0  0  0  0  0  0  0  0  0  0  0  0
   -5.4969   -6.6745   -0.9595 H   0  0  0  0  0  0  0  0  0  0  0  0
   -5.9769   -8.3921   -1.2373 H   0  0  0  0  0  0  0  0  0  0  0  0
   -3.1325   -5.9613   -0.8944 H   0  0  0  0  0  0  0  0  0  0  0  0
   -1.8937   -2.3741    1.4181 H   0  0  0  0  0  0  0  0  0  0  0  0
   -2.5486    0.3954    3.8631 H   0  0  0  0  0  0  0  0  0  0  0  0
   -1.3707   -0.8183    3.2402 H   0  0  0  0  0  0  0  0  0  0  0  0
   -3.1614   -1.1474    3.1532 H   0  0  0  0  0  0  0  0  0  0  0  0
   -2.8253    3.6530   -1.2503 H   0  0  0  0  0  0  0  0  0  0  0  0
   -3.4199    2.3216   -2.3127 H   0  0  0  0  0  0  0  0  0  0  0  0
   -1.6340    2.6378   -2.1487 H   0  0  0  0  0  0  0  0  0  0  0  0
   -2.1245    0.3036   -2.7754 H   0  0  0  0  0  0  0  0  0  0  0  0
    0.6255   -0.8846   -4.0772 H   0  0  0  0  0  0  0  0  0  0  0  0
    4.4370    1.5262   -2.2404 H   0  0  0  0  0  0  0  0  0  0  0  0
    5.4401    2.4820   -3.3837 H   0  0  0  0  0  0  0  0  0  0  0  0
    2.9487    3.4821   -1.8825 H   0  0  0  0  0  0  0  0  0  0  0  0
    4.6661    3.9416   -1.5942 H   0  0  0  0  0  0  0  0  0  0  0  0
    3.8611    4.4282   -3.1331 H   0  0  0  0  0  0  0  0  0  0  0  0
   -8.0621    0.8004   -9.1613 H   0  0  0  0  0  0  0  0  0  0  0  0
   -7.6915    2.0877   -7.9613 H   0  0  0  0  0  0  0  0  0  0  0  0
   -9.4268    0.5338   -7.0915 H   0  0  0  0  0  0  0  0  0  0  0  0
   -7.9241    0.4334   -6.0921 H   0  0  0  0  0  0  0  0  0  0  0  0
   -8.3094   -0.8652   -7.2939 H   0  0  0  0  0  0  0  0  0  0  0  0
   -2.7737    2.5622   -9.2673 H   0  0  0  0  0  0  0  0  0  0  0  0
   -0.1912    7.5215  -11.8462 H   0  0  0  0  0  0  0  0  0  0  0  0
   -3.4826    4.6198   -8.4941 H   0  0  0  0  0  0  0  0  0  0  0  0
   -5.3075    5.1344   -7.0436 H   0  0  0  0  0  0  0  0  0  0  0  0
   -7.0174    5.3931   -7.5539 H   0  0  0  0  0  0  0  0  0  0  0  0
   -5.9763    4.2557   -8.4943 H   0  0  0  0  0  0  0  0  0  0  0  0
   -5.9684   10.2158  -11.0502 H   0  0  0  0  0  0  0  0  0  0  0  0
   -4.7813    9.4604  -12.1779 H   0  0  0  0  0  0  0  0  0  0  0  0
   -4.2101   10.2810  -10.6540 H   0  0  0  0  0  0  0  0  0  0  0  0
   -2.6573    8.4864  -11.5254 H   0  0  0  0  0  0  0  0  0  0  0  0
  1  2  1  0
  2  3  1  0
  3  4  2  0
  4  5  1  0
  5  6  1  0
  6  7  2  0
  7  8  1  0
  8  9  1  0
  7 10  1  0
 10 11  1  0
 11 12  1  0
 10 13  2  0
  3 14  1  0
 14 15  2  0
 15 16  1  0
 16 17  2  0
 17 18  1  0
 18 19  1  0
 19 20  1  0
 20 21  1  0
 21 22  1  0
 20 23  2  0
 23 24  1  0
 23 25  1  0
 25 26  1  0
 17 27  1  0
 27 28  2  0
 28 29  1  0
 29 30  1  0
 30 31  1  0
 31 32  1  0
 32 33  1  0
 33 34  1  0
 32 35  2  0
 35 36  1  0
 36 37  1  0
 35 38  1  0
 29 39  2  0
 39 40  1  0
 28 41  1  0
 41 42  2  0
 42 43  1  0
 42 44  1  0
 44 45  1  0
 45 46  1  0
 46 47  2  0
 47 48  1  0
 48 49  1  0
 49 50  2  0
 50 51  1  0
 51 52  1  0
 50 53  1  0
 53 54  1  0
 54 55  1  0
 53 56  2  0
 46 57  1  0
 57 58  1  0
 58 59  1  0
 59 60  2  0
 60 61  1  0
 61 62  1  0
 62 63  2  0
 63 64  1  0
 64 65  1  0
 63 66  1  0
 66 67  1  0
 67 68  1  0
 66 69  2  0
 59 70  1  0
 70 71  2  0
 71 72  1  0
 72 73  2  0
 73 74  1  0
 74 75  1  0
 75 76  1  0
 76 77  1  0
 77 78  1  0
 76 79  2  0
 79 80  1  0
 79 81  1  0
 81 82  1  0
 73 83  1  0
 83 84  2  0
 84 85  1  0
 85 86  1  0
 86 87  1  0
 87 88  1  0
 88 89  1  0
 89 90  1  0
 88 91  2  0
 91 92  1  0
 92 93  1  0
 91 94  1  0
 85 95  2  0
 95 96  1  0
 84 97  1  0
 97 98  2  0
 98 99  1  0
 98100  1  0
100101  1  0
101102  1  0
102103  2  0
103104  1  0
104105  1  0
105106  2  0
106107  1  0
107108  1  0
106109  1  0
109110  1  0
110111  1  0
109112  2  0
  5  1  2  0
 40 14  1  0
 48 44  2  0
 61 57  2  0
 96 70  1  0
104100  2  0
 13  4  1  0
 39 16  1  0
 56 47  1  0
 69 60  1  0
 95 72  1  0
112103  1  0
 25 18  2  0
 43 27  1  0
 81 74  2  0
 99 83  1  0
 36 30  2  0
 92 86  2  0
  1113  1  0
  6114  1  0
  9115  1  0
  9116  1  0
  9117  1  0
 12118  1  0
 12119  1  0
 12120  1  0
 13121  1  0
 15122  1  0
 21123  1  0
 21124  1  0
 22125  1  0
 22126  1  0
 22127  1  0
 33128  1  0
 33129  1  0
 34130  1  0
 34131  1  0
 34132  1  0
 41133  1  0
 49134  1  0
 52135  1  0
 52136  1  0
 52137  1  0
 55138  1  0
 55139  1  0
 55140  1  0
 56141  1  0
 62142  1  0
 65143  1  0
 65144  1  0
 65145  1  0
 68146  1  0
 68147  1  0
 68148  1  0
 69149  1  0
 71150  1  0
 77151  1  0
 77152  1  0
 78153  1  0
 78154  1  0
 78155  1  0
 89156  1  0
 89157  1  0
 90158  1  0
 90159  1  0
 90160  1  0
 97161  1  0
102162  1  0
105163  1  0
108164  1  0
108165  1  0
108166  1  0
111167  1  0
111168  1  0
111169  1  0
112170  1  0
M  END

