
     RDKit          3D

148159  0  0  0  0  0  0  0  0999 V2000
    0.2896    3.9972    5.7390 C   0  0  0  0  0  0  0  0  0  0  0  0
   -1.3253    3.5183    5.7618 S   0  0  0  0  0  0  0  0  0  0  0  0
   -1.1571    2.3015    6.9093 C   0  0  0  0  0  0  0  0  0  0  0  0
    0.1693    2.2938    7.3402 C   0  0  0  0  0  0  0  0  0  0  0  0
    0.9735    3.2437    6.6905 C   0  0  0  0  0  0  0  0  0  0  0  0
    2.4353    3.4505    7.0117 C   0  0  0  0  0  0  0  0  0  0  0  0
    2.8823    2.6758    8.2757 C   0  0  2  0  0  0  0  0  0  0  0  0
    4.3945    2.5585    8.3621 C   0  0  0  0  0  0  0  0  0  0  0  0
    4.9834    3.2103    9.2151 O   0  0  0  0  0  0  0  0  0  0  0  0
    5.2091    1.6348    7.4808 C   0  0  0  0  0  0  0  0  0  0  0  0
    4.5023    1.2198    6.3635 F   0  0  0  0  0  0  0  0  0  0  0  0
    5.5763    0.5238    8.2159 F   0  0  0  0  0  0  0  0  0  0  0  0
    6.3516    2.2869    7.0630 F   0  0  0  0  0  0  0  0  0  0  0  0
    2.2002    1.2980    8.3834 C   0  0  0  0  0  0  0  0  0  0  0  0
    0.6796    1.4546    8.4768 C   0  0  0  0  0  0  0  0  0  0  0  0
   -2.2747    1.6956    7.6388 C   0  0  0  0  0  0  0  0  0  0  0  0
   -2.9583    0.6069    7.2577 C   0  0  0  0  0  0  0  0  0  0  0  0
   -2.7799   -0.1509    5.9955 C   0  0  0  0  0  0  0  0  0  0  0  0
   -2.1615    0.4386    4.5443 S   0  0  0  0  0  0  0  0  0  0  0  0
   -2.5249   -0.8850    3.5662 C   0  0  0  0  0  0  0  0  0  0  0  0
   -3.1343   -1.8434    4.3918 C   0  0  0  0  0  0  0  0  0  0  0  0
   -3.2693   -1.4365    5.7355 C   0  0  0  0  0  0  0  0  0  0  0  0
   -3.8347   -2.2979    6.6842 C   0  0  0  0  0  0  0  0  0  0  0  0
   -4.2665   -3.5832    6.2961 C   0  0  0  0  0  0  0  0  0  0  0  0
   -4.7981   -4.4995    7.2197 O   0  0  0  0  0  0  0  0  0  0  0  0
   -4.9132   -4.2640    8.6193 C   0  0  0  0  0  0  0  0  0  0  0  0
   -4.1708   -3.9768    4.9483 C   0  0  0  0  0  0  0  0  0  0  0  0
   -4.6171   -5.2647    4.6000 O   0  0  0  0  0  0  0  0  0  0  0  0
   -4.5001   -5.8400    3.2999 C   0  0  0  0  0  0  0  0  0  0  0  0
   -3.6316   -3.0919    3.9911 C   0  0  0  0  0  0  0  0  0  0  0  0
   -2.1899   -1.0004    2.1250 C   0  0  0  0  0  0  0  0  0  0  0  0
   -1.7621   -2.4400    1.3474 S   0  0  0  0  0  0  0  0  0  0  0  0
   -1.5965   -1.8203   -0.1979 C   0  0  0  0  0  0  0  0  0  0  0  0
   -1.8387   -0.4539   -0.1393 C   0  0  0  0  0  0  0  0  0  0  0  0
   -2.1749    0.0125    1.1484 C   0  0  0  0  0  0  0  0  0  0  0  0
   -2.4998    1.3645    1.3267 C   0  0  0  0  0  0  0  0  0  0  0  0
   -2.4179    2.2563    0.2344 C   0  0  0  0  0  0  0  0  0  0  0  0
   -2.6933    3.6275    0.3761 O   0  0  0  0  0  0  0  0  0  0  0  0
   -3.1484    4.2409    1.5735 C   0  0  0  0  0  0  0  0  0  0  0  0
   -2.0315    1.7862   -1.0377 C   0  0  0  0  0  0  0  0  0  0  0  0
   -1.9435    2.7085   -2.0917 O   0  0  0  0  0  0  0  0  0  0  0  0
   -1.5243    2.3819   -3.4146 C   0  0  0  0  0  0  0  0  0  0  0  0
   -1.7582    0.4186   -1.2261 C   0  0  0  0  0  0  0  0  0  0  0  0
   -1.5071   -2.6479   -1.4013 C   0  0  0  0  0  0  0  0  0  0  0  0
   -0.2405   -3.6890   -1.7549 S   0  0  0  0  0  0  0  0  0  0  0  0
   -0.9064   -4.3043   -3.1764 C   0  0  0  0  0  0  0  0  0  0  0  0
   -2.1654   -3.7336   -3.3684 C   0  0  0  0  0  0  0  0  0  0  0  0
   -2.5087   -2.8116   -2.3637 C   0  0  0  0  0  0  0  0  0  0  0  0
   -3.8208   -2.0739   -2.3530 C   0  0  0  0  0  0  0  0  0  0  0  0
   -4.9061   -2.8172   -3.1483 C   0  0  2  0  0  0  0  0  0  0  0  0
   -5.4945   -3.9664   -2.3445 C   0  0  0  0  0  0  0  0  0  0  0  0
   -4.9544   -5.0670   -2.3576 O   0  0  0  0  0  0  0  0  0  0  0  0
   -6.7171   -3.7813   -1.4818 C   0  0  0  0  0  0  0  0  0  0  0  0
   -7.0766   -2.4489   -1.3915 F   0  0  0  0  0  0  0  0  0  0  0  0
   -6.4555   -4.2526   -0.2052 F   0  0  0  0  0  0  0  0  0  0  0  0
   -7.7620   -4.4977   -2.0282 F   0  0  0  0  0  0  0  0  0  0  0  0
   -4.3753   -3.2513   -4.5350 C   0  0  0  0  0  0  0  0  0  0  0  0
   -3.1060   -4.1288   -4.4816 C   0  0  0  0  0  0  0  0  0  0  0  0
   -0.3041   -5.3714   -3.9895 C   0  0  0  0  0  0  0  0  0  0  0  0
    0.9954   -5.4165   -4.3020 C   0  0  0  0  0  0  0  0  0  0  0  0
    1.9189   -4.2836   -4.1249 C   0  0  0  0  0  0  0  0  0  0  0  0
    1.6148   -2.7025   -4.6141 S   0  0  0  0  0  0  0  0  0  0  0  0
    3.1461   -2.0859   -4.2854 C   0  0  0  0  0  0  0  0  0  0  0  0
    3.9263   -3.1352   -3.7825 C   0  0  0  0  0  0  0  0  0  0  0  0
    3.2428   -4.3591   -3.6980 C   0  0  0  0  0  0  0  0  0  0  0  0
    3.9134   -5.6305   -3.2331 C   0  0  0  0  0  0  0  0  0  0  0  0
    5.1934   -5.3951   -2.3710 C   0  0  2  0  0  0  0  0  0  0  0  0
    5.0996   -6.0901   -1.0242 C   0  0  0  0  0  0  0  0  0  0  0  0
    5.9393   -6.9306   -0.7366 O   0  0  0  0  0  0  0  0  0  0  0  0
    4.0344   -5.7455   -0.0039 C   0  0  0  0  0  0  0  0  0  0  0  0
    4.6384   -5.1444    1.0855 F   0  0  0  0  0  0  0  0  0  0  0  0
    3.0849   -4.8817   -0.5219 F   0  0  0  0  0  0  0  0  0  0  0  0
    3.4039   -6.9025    0.4123 F   0  0  0  0  0  0  0  0  0  0  0  0
    5.5961   -3.9144   -2.1527 C   0  0  0  0  0  0  0  0  0  0  0  0
    5.3722   -3.0545   -3.3988 C   0  0  0  0  0  0  0  0  0  0  0  0
    3.5854   -0.6933   -4.5090 C   0  0  0  0  0  0  0  0  0  0  0  0
    2.7567    0.2687   -4.9437 C   0  0  0  0  0  0  0  0  0  0  0  0
    3.2167    1.6606   -5.1541 C   0  0  0  0  0  0  0  0  0  0  0  0
    4.7350    2.2620   -4.7505 S   0  0  0  0  0  0  0  0  0  0  0  0
    4.5025    3.8271   -5.3023 C   0  0  0  0  0  0  0  0  0  0  0  0
    3.2145    3.9058   -5.8531 C   0  0  0  0  0  0  0  0  0  0  0  0
    2.4855    2.6961   -5.7448 C   0  0  0  0  0  0  0  0  0  0  0  0
    1.1266    2.5106   -6.3806 C   0  0  0  0  0  0  0  0  0  0  0  0
    0.4624    3.8614   -6.6998 C   0  0  2  0  0  0  0  0  0  0  0  0
   -0.8237    3.6971   -7.4880 C   0  0  0  0  0  0  0  0  0  0  0  0
   -1.8230    4.2889   -7.1001 O   0  0  0  0  0  0  0  0  0  0  0  0
   -0.9320    2.8205   -8.7136 C   0  0  0  0  0  0  0  0  0  0  0  0
   -1.0366    1.4991   -8.3280 F   0  0  0  0  0  0  0  0  0  0  0  0
   -2.0624    3.1579   -9.4391 F   0  0  0  0  0  0  0  0  0  0  0  0
    0.1729    2.9732   -9.5242 F   0  0  0  0  0  0  0  0  0  0  0  0
    1.4527    4.7980   -7.4174 C   0  0  0  0  0  0  0  0  0  0  0  0
    2.6357    5.1381   -6.5013 C   0  0  0  0  0  0  0  0  0  0  0  0
    5.5666    4.8469   -5.2629 C   0  0  0  0  0  0  0  0  0  0  0  0
    5.3394    6.1348   -5.0489 C   0  0  0  0  0  0  0  0  0  0  0  0
    0.7090    4.7820    5.1166 H   0  0  0  0  0  0  0  0  0  0  0  0
    2.6075    4.5421    7.1888 H   0  0  0  0  0  0  0  0  0  0  0  0
    3.0420    3.1678    6.1169 H   0  0  0  0  0  0  0  0  0  0  0  0
    2.5394    3.2689    9.1549 H   0  0  0  0  0  0  0  0  0  0  0  0
    2.4345    0.6635    7.5033 H   0  0  0  0  0  0  0  0  0  0  0  0
    2.5655    0.7722    9.2909 H   0  0  0  0  0  0  0  0  0  0  0  0
    0.4044    1.9522    9.4367 H   0  0  0  0  0  0  0  0  0  0  0  0
    0.2049    0.4511    8.4570 H   0  0  0  0  0  0  0  0  0  0  0  0
   -2.5073    2.1258    8.6083 H   0  0  0  0  0  0  0  0  0  0  0  0
   -3.7129    0.2536    7.9514 H   0  0  0  0  0  0  0  0  0  0  0  0
   -3.9122   -1.9907    7.7162 H   0  0  0  0  0  0  0  0  0  0  0  0
   -5.3504   -5.1645    9.1021 H   0  0  0  0  0  0  0  0  0  0  0  0
   -5.5879   -3.4014    8.8037 H   0  0  0  0  0  0  0  0  0  0  0  0
   -3.9109   -4.0770    9.0614 H   0  0  0  0  0  0  0  0  0  0  0  0
   -3.4366   -5.8585    2.9856 H   0  0  0  0  0  0  0  0  0  0  0  0
   -4.8757   -6.8848    3.3333 H   0  0  0  0  0  0  0  0  0  0  0  0
   -5.1088   -5.2693    2.5688 H   0  0  0  0  0  0  0  0  0  0  0  0
   -3.6231   -3.3823    2.9551 H   0  0  0  0  0  0  0  0  0  0  0  0
   -2.8311    1.7190    2.2898 H   0  0  0  0  0  0  0  0  0  0  0  0
   -2.4044    4.1000    2.3856 H   0  0  0  0  0  0  0  0  0  0  0  0
   -3.2784    5.3281    1.3959 H   0  0  0  0  0  0  0  0  0  0  0  0
   -4.1276    3.8103    1.8711 H   0  0  0  0  0  0  0  0  0  0  0  0
   -0.4923    1.9760   -3.3954 H   0  0  0  0  0  0  0  0  0  0  0  0
   -1.5348    3.3001   -4.0391 H   0  0  0  0  0  0  0  0  0  0  0  0
   -2.2199    1.6401   -3.8671 H   0  0  0  0  0  0  0  0  0  0  0  0
   -1.4715    0.0368   -2.1989 H   0  0  0  0  0  0  0  0  0  0  0  0
   -3.6645   -1.0695   -2.8051 H   0  0  0  0  0  0  0  0  0  0  0  0
   -4.1622   -1.9268   -1.3060 H   0  0  0  0  0  0  0  0  0  0  0  0
   -5.7222   -2.0929   -3.3447 H   0  0  0  0  0  0  0  0  0  0  0  0
   -4.1392   -2.3338   -5.1174 H   0  0  0  0  0  0  0  0  0  0  0  0
   -5.1729   -3.7963   -5.0871 H   0  0  0  0  0  0  0  0  0  0  0  0
   -2.5725   -4.0530   -5.4560 H   0  0  0  0  0  0  0  0  0  0  0  0
   -3.3967   -5.1909   -4.3446 H   0  0  0  0  0  0  0  0  0  0  0  0
   -0.9387   -6.1881   -4.2988 H   0  0  0  0  0  0  0  0  0  0  0  0
    1.3845   -6.3120   -4.7702 H   0  0  0  0  0  0  0  0  0  0  0  0
    4.1895   -6.2163   -4.1353 H   0  0  0  0  0  0  0  0  0  0  0  0
    3.1680   -6.2362   -2.6744 H   0  0  0  0  0  0  0  0  0  0  0  0
    6.0424   -5.8645   -2.9293 H   0  0  0  0  0  0  0  0  0  0  0  0
    5.0159   -3.4643   -1.3198 H   0  0  0  0  0  0  0  0  0  0  0  0
    6.6718   -3.8655   -1.8725 H   0  0  0  0  0  0  0  0  0  0  0  0
    5.6691   -2.0164   -3.1553 H   0  0  0  0  0  0  0  0  0  0  0  0
    5.9990   -3.4209   -4.2396 H   0  0  0  0  0  0  0  0  0  0  0  0
    4.6211   -0.4450   -4.3160 H   0  0  0  0  0  0  0  0  0  0  0  0
    1.7215    0.0286   -5.1544 H   0  0  0  0  0  0  0  0  0  0  0  0
    1.2725    1.9206   -7.3134 H   0  0  0  0  0  0  0  0  0  0  0  0
    0.4633    1.9352   -5.6995 H   0  0  0  0  0  0  0  0  0  0  0  0
    0.2001    4.3375   -5.7263 H   0  0  0  0  0  0  0  0  0  0  0  0
    1.8457    4.3157   -8.3404 H   0  0  0  0  0  0  0  0  0  0  0  0
    0.9424    5.7423   -7.7132 H   0  0  0  0  0  0  0  0  0  0  0  0
    3.4165    5.6505   -7.1015 H   0  0  0  0  0  0  0  0  0  0  0  0
    2.2839    5.8286   -5.7097 H   0  0  0  0  0  0  0  0  0  0  0  0
    6.5956    4.5090   -5.3130 H   0  0  0  0  0  0  0  0  0  0  0  0
    6.1688    6.8259   -4.9987 H   0  0  0  0  0  0  0  0  0  0  0  0
    4.3470    6.5207   -4.8776 H   0  0  0  0  0  0  0  0  0  0  0  0
  1  2  1  0
  2  3  1  0
  3  4  2  0
  4  5  1  0
  5  6  1  0
  6  7  1  0
  7  8  1  0
  8  9  2  0
  8 10  1  0
 10 11  1  0
 10 12  1  0
 10 13  1  0
  7 14  1  0
 14 15  1  0
  3 16  1  0
 16 17  2  3
 17 18  1  0
 18 19  1  0
 19 20  1  0
 20 21  2  0
 21 22  1  0
 22 23  1  0
 23 24  2  0
 24 25  1  0
 25 26  1  0
 24 27  1  0
 27 28  1  0
 28 29  1  0
 27 30  2  0
 20 31  1  0
 31 32  1  0
 32 33  1  0
 33 34  2  0
 34 35  1  0
 35 36  1  0
 36 37  2  0
 37 38  1  0
 38 39  1  0
 37 40  1  0
 40 41  1  0
 41 42  1  0
 40 43  2  0
 33 44  1  0
 44 45  1  0
 45 46  1  0
 46 47  2  0
 47 48  1  0
 48 49  1  0
 49 50  1  0
 50 51  1  0
 51 52  2  0
 51 53  1  0
 53 54  1  0
 53 55  1  0
 53 56  1  0
 50 57  1  0
 57 58  1  0
 46 59  1  0
 59 60  2  3
 60 61  1  0
 61 62  1  0
 62 63  1  0
 63 64  2  0
 64 65  1  0
 65 66  1  0
 66 67  1  0
 67 68  1  0
 68 69  2  0
 68 70  1  0
 70 71  1  0
 70 72  1  0
 70 73  1  0
 67 74  1  0
 74 75  1  0
 63 76  1  0
 76 77  2  3
 77 78  1  0
 78 79  1  0
 79 80  1  0
 80 81  2  0
 81 82  1  0
 82 83  1  0
 83 84  1  0
 84 85  1  0
 85 86  2  0
 85 87  1  0
 87 88  1  0
 87 89  1  0
 87 90  1  0
 84 91  1  0
 91 92  1  0
 80 93  1  0
 93 94  2  3
  5  1  2  0
 22 18  2  0
 35 31  2  0
 48 44  2  0
 65 61  2  0
 82 78  2  0
 15  4  1  0
 30 21  1  0
 43 34  1  0
 58 47  1  0
 75 64  1  0
 92 81  1  0
  1 95  1  0
  6 96  1  0
  6 97  1  0
  7 98  1  1
 14 99  1  0
 14100  1  0
 15101  1  0
 15102  1  0
 16103  1  0
 17104  1  0
 23105  1  0
 26106  1  0
 26107  1  0
 26108  1  0
 29109  1  0
 29110  1  0
 29111  1  0
 30112  1  0
 36113  1  0
 39114  1  0
 39115  1  0
 39116  1  0
 42117  1  0
 42118  1  0
 42119  1  0
 43120  1  0
 49121  1  0
 49122  1  0
 50123  1  6
 57124  1  0
 57125  1  0
 58126  1  0
 58127  1  0
 59128  1  0
 60129  1  0
 66130  1  0
 66131  1  0
 67132  1  6
 74133  1  0
 74134  1  0
 75135  1  0
 75136  1  0
 76137  1  0
 77138  1  0
 83139  1  0
 83140  1  0
 84141  1  1
 91142  1  0
 91143  1  0
 92144  1  0
 92145  1  0
 93146  1  0
 94147  1  0
 94148  1  0
M  END

