
     RDKit          3D

103109  0  0  0  0  0  0  0  0999 V2000
    4.5785   -6.1365    5.7999 C   0  0  0  0  0  0  0  0  0  0  0  0
    5.0302   -5.4822    4.8908 C   0  0  0  0  0  0  0  0  0  0  0  0
    5.5431   -4.6865    3.8036 C   0  0  0  0  0  0  0  0  0  0  0  0
    5.0508   -3.4818    3.4585 N   0  0  0  0  0  0  0  0  0  0  0  0
    5.7260   -3.0939    2.3599 C   0  0  0  0  0  0  0  0  0  0  0  0
    6.6480   -4.0594    1.9941 C   0  0  0  0  0  0  0  0  0  0  0  0
    6.5252   -5.0797    2.9183 C   0  0  0  0  0  0  0  0  0  0  0  0
    5.4042   -1.9147    1.6072 C   0  0  0  0  0  0  0  0  0  0  0  0
    5.0931   -0.9384    0.9672 C   0  0  0  0  0  0  0  0  0  0  0  0
    4.6850    0.2090    0.2008 C   0  0  0  0  0  0  0  0  0  0  0  0
    4.6035    1.4133    0.7541 C   0  0  0  0  0  0  0  0  0  0  0  0
    4.0613    2.5250    0.0193 C   0  0  0  0  0  0  0  0  0  0  0  0
    3.5509    3.4224   -0.5946 C   0  0  0  0  0  0  0  0  0  0  0  0
    2.8680    4.4559   -1.3185 C   0  0  0  0  0  0  0  0  0  0  0  0
    1.6698    4.2660   -1.8939 N   0  0  0  0  0  0  0  0  0  0  0  0
    1.2646    5.4781   -2.3263 C   0  0  0  0  0  0  0  0  0  0  0  0
    2.2096    6.4483   -2.0314 C   0  0  0  0  0  0  0  0  0  0  0  0
    3.2416    5.7892   -1.3789 C   0  0  0  0  0  0  0  0  0  0  0  0
   -0.0710    5.7285   -2.7995 C   0  0  0  0  0  0  0  0  0  0  0  0
   -1.2222    5.8477   -3.1276 C   0  0  0  0  0  0  0  0  0  0  0  0
   -2.6107    5.8648   -3.4868 C   0  0  0  0  0  0  0  0  0  0  0  0
   -3.4536    4.8919   -3.1110 C   0  0  0  0  0  0  0  0  0  0  0  0
   -3.0544    3.6909   -2.3513 C   0  0  0  0  0  0  0  0  0  0  0  0
   -3.8495    3.1579   -0.9679 S   0  0  0  0  0  0  0  0  0  0  0  0
   -2.8641    1.8222   -0.6737 C   0  0  0  0  0  0  0  0  0  0  0  0
   -1.9206    1.7438   -1.6932 C   0  0  0  0  0  0  0  0  0  0  0  0
   -2.0307    2.7802   -2.6372 C   0  0  0  0  0  0  0  0  0  0  0  0
   -1.2187    2.7816   -3.7772 C   0  0  0  0  0  0  0  0  0  0  0  0
   -0.2342    1.7831   -3.9353 C   0  0  0  0  0  0  0  0  0  0  0  0
    0.6568    1.7897   -5.0272 O   0  0  0  0  0  0  0  0  0  0  0  0
    0.7521    2.8423   -5.9792 C   0  0  0  0  0  0  0  0  0  0  0  0
   -0.1355    0.7329   -2.9958 C   0  0  0  0  0  0  0  0  0  0  0  0
    0.7888   -0.2925   -3.2542 O   0  0  0  0  0  0  0  0  0  0  0  0
    1.0524   -1.3975   -2.3853 C   0  0  0  0  0  0  0  0  0  0  0  0
   -0.9895    0.7104   -1.8707 C   0  0  0  0  0  0  0  0  0  0  0  0
   -3.1809    0.7891    0.2720 C   0  0  0  0  0  0  0  0  0  0  0  0
   -3.5088   -0.1015    1.0099 C   0  0  0  0  0  0  0  0  0  0  0  0
   -3.9801   -1.1946    1.8112 C   0  0  0  0  0  0  0  0  0  0  0  0
   -5.2555   -1.6139    1.7998 N   0  0  0  0  0  0  0  0  0  0  0  0
   -5.2752   -2.7926    2.4442 C   0  0  0  0  0  0  0  0  0  0  0  0
   -4.0087   -3.1261    2.8813 C   0  0  0  0  0  0  0  0  0  0  0  0
   -3.1778   -2.0989    2.4776 C   0  0  0  0  0  0  0  0  0  0  0  0
   -6.3599   -3.7250    2.3119 C   0  0  0  0  0  0  0  0  0  0  0  0
   -7.2126   -4.5442    2.0847 C   0  0  0  0  0  0  0  0  0  0  0  0
   -8.1286   -5.5846    1.6665 C   0  0  0  0  0  0  0  0  0  0  0  0
   -7.7684   -6.4733    0.7292 C   0  0  0  0  0  0  0  0  0  0  0  0
   -6.4662   -6.3981    0.0998 C   0  0  0  0  0  0  0  0  0  0  0  0
   -5.3641   -6.2610   -0.3699 C   0  0  0  0  0  0  0  0  0  0  0  0
   -4.0446   -6.0136   -0.8922 C   0  0  0  0  0  0  0  0  0  0  0  0
   -2.9616   -5.7835   -0.1237 N   0  0  0  0  0  0  0  0  0  0  0  0
   -1.9440   -5.5404   -0.9752 C   0  0  0  0  0  0  0  0  0  0  0  0
   -2.3844   -5.5784   -2.2819 C   0  0  0  0  0  0  0  0  0  0  0  0
   -3.7352   -5.8761   -2.2302 C   0  0  0  0  0  0  0  0  0  0  0  0
   -0.5728   -5.3432   -0.5706 C   0  0  0  0  0  0  0  0  0  0  0  0
    0.5937   -5.2335   -0.2827 C   0  0  0  0  0  0  0  0  0  0  0  0
    2.0016   -5.1806    0.0129 C   0  0  0  0  0  0  0  0  0  0  0  0
    2.6105   -4.1331    0.5657 C   0  0  0  0  0  0  0  0  0  0  0  0
    1.9344   -2.9204    0.9484 C   0  0  0  0  0  0  0  0  0  0  0  0
    1.4282   -1.8819    1.2936 C   0  0  0  0  0  0  0  0  0  0  0  0
    0.8409   -0.6444    1.7290 C   0  0  0  0  0  0  0  0  0  0  0  0
    0.9633    0.5216    1.0657 N   0  0  0  0  0  0  0  0  0  0  0  0
    0.2906    1.4384    1.7862 C   0  0  0  0  0  0  0  0  0  0  0  0
   -0.2454    0.8656    2.9294 C   0  0  0  0  0  0  0  0  0  0  0  0
    0.1216   -0.4685    2.8978 C   0  0  0  0  0  0  0  0  0  0  0  0
    0.2042    2.8322    1.4490 C   0  0  0  0  0  0  0  0  0  0  0  0
    0.1273    4.0067    1.2001 C   0  0  0  0  0  0  0  0  0  0  0  0
    0.0628    5.4143    0.9124 C   0  0  0  0  0  0  0  0  0  0  0  0
   -1.0158    5.9698    0.3609 C   0  0  0  0  0  0  0  0  0  0  0  0
    4.1766   -6.7052    6.5976 H   0  0  0  0  0  0  0  0  0  0  0  0
    4.2637   -2.9879    3.9247 H   0  0  0  0  0  0  0  0  0  0  0  0
    7.2976   -4.0506    1.1381 H   0  0  0  0  0  0  0  0  0  0  0  0
    7.0572   -6.0278    2.9330 H   0  0  0  0  0  0  0  0  0  0  0  0
    4.4030    0.0704   -0.8269 H   0  0  0  0  0  0  0  0  0  0  0  0
    4.8704    1.5624    1.7929 H   0  0  0  0  0  0  0  0  0  0  0  0
    1.1142    3.3830   -1.9132 H   0  0  0  0  0  0  0  0  0  0  0  0
    2.1159    7.5208   -2.1818 H   0  0  0  0  0  0  0  0  0  0  0  0
    4.1264    6.2358   -0.9459 H   0  0  0  0  0  0  0  0  0  0  0  0
   -2.9952    6.7289   -4.0078 H   0  0  0  0  0  0  0  0  0  0  0  0
   -4.5091    5.0275   -3.2993 H   0  0  0  0  0  0  0  0  0  0  0  0
   -1.3453    3.5407   -4.5299 H   0  0  0  0  0  0  0  0  0  0  0  0
    1.6439    2.6719   -6.6173 H   0  0  0  0  0  0  0  0  0  0  0  0
    0.8928    3.8230   -5.4615 H   0  0  0  0  0  0  0  0  0  0  0  0
   -0.1641    2.8715   -6.6053 H   0  0  0  0  0  0  0  0  0  0  0  0
    1.7310   -2.1057   -2.9005 H   0  0  0  0  0  0  0  0  0  0  0  0
    0.1171   -1.9290   -2.1383 H   0  0  0  0  0  0  0  0  0  0  0  0
    1.5495   -1.0463   -1.4628 H   0  0  0  0  0  0  0  0  0  0  0  0
   -0.9271   -0.0838   -1.1395 H   0  0  0  0  0  0  0  0  0  0  0  0
   -6.0418   -1.1790    1.2654 H   0  0  0  0  0  0  0  0  0  0  0  0
   -3.7037   -4.0571    3.3351 H   0  0  0  0  0  0  0  0  0  0  0  0
   -2.0988   -2.0868    2.5575 H   0  0  0  0  0  0  0  0  0  0  0  0
   -9.1170   -5.6368    2.0937 H   0  0  0  0  0  0  0  0  0  0  0  0
   -8.4726   -7.2442    0.4174 H   0  0  0  0  0  0  0  0  0  0  0  0
   -2.9125   -5.7899    0.9238 H   0  0  0  0  0  0  0  0  0  0  0  0
   -1.7874   -5.4309   -3.1700 H   0  0  0  0  0  0  0  0  0  0  0  0
   -4.4138   -5.9817   -3.0671 H   0  0  0  0  0  0  0  0  0  0  0  0
    2.5934   -6.0495   -0.2234 H   0  0  0  0  0  0  0  0  0  0  0  0
    3.6736   -4.1967    0.7525 H   0  0  0  0  0  0  0  0  0  0  0  0
    1.5023    0.6903    0.1845 H   0  0  0  0  0  0  0  0  0  0  0  0
   -0.8136    1.3612    3.7088 H   0  0  0  0  0  0  0  0  0  0  0  0
   -0.1098   -1.2211    3.6401 H   0  0  0  0  0  0  0  0  0  0  0  0
    0.9282    6.0331    1.1310 H   0  0  0  0  0  0  0  0  0  0  0  0
   -1.8847    5.3713    0.1191 H   0  0  0  0  0  0  0  0  0  0  0  0
   -1.0281    7.0257    0.1309 H   0  0  0  0  0  0  0  0  0  0  0  0
  1  2  3  0
  2  3  1  0
  3  4  1  0
  4  5  1  0
  5  6  2  0
  6  7  1  0
  5  8  1  0
  8  9  3  0
  9 10  1  0
 10 11  2  3
 11 12  1  0
 12 13  3  0
 13 14  1  0
 14 15  1  0
 15 16  1  0
 16 17  2  0
 17 18  1  0
 16 19  1  0
 19 20  3  0
 20 21  1  0
 21 22  2  3
 22 23  1  0
 23 24  1  0
 24 25  1  0
 25 26  2  0
 26 27  1  0
 27 28  1  0
 28 29  2  0
 29 30  1  0
 30 31  1  0
 29 32  1  0
 32 33  1  0
 33 34  1  0
 32 35  2  0
 25 36  1  0
 36 37  3  0
 37 38  1  0
 38 39  1  0
 39 40  1  0
 40 41  2  0
 41 42  1  0
 40 43  1  0
 43 44  3  0
 44 45  1  0
 45 46  2  3
 46 47  1  0
 47 48  3  0
 48 49  1  0
 49 50  1  0
 50 51  1  0
 51 52  2  0
 52 53  1  0
 51 54  1  0
 54 55  3  0
 55 56  1  0
 56 57  2  3
 57 58  1  0
 58 59  3  0
 59 60  1  0
 60 61  1  0
 61 62  1  0
 62 63  2  0
 63 64  1  0
 62 65  1  0
 65 66  3  0
 66 67  1  0
 67 68  2  3
  7  3  2  0
 18 14  2  0
 27 23  2  0
 42 38  2  0
 53 49  2  0
 64 60  2  0
 35 26  1  0
  1 69  1  0
  4 70  1  0
  6 71  1  0
  7 72  1  0
 10 73  1  0
 11 74  1  0
 15 75  1  0
 17 76  1  0
 18 77  1  0
 21 78  1  0
 22 79  1  0
 28 80  1  0
 31 81  1  0
 31 82  1  0
 31 83  1  0
 34 84  1  0
 34 85  1  0
 34 86  1  0
 35 87  1  0
 39 88  1  0
 41 89  1  0
 42 90  1  0
 45 91  1  0
 46 92  1  0
 50 93  1  0
 52 94  1  0
 53 95  1  0
 56 96  1  0
 57 97  1  0
 61 98  1  0
 63 99  1  0
 64100  1  0
 67101  1  0
 68102  1  0
 68103  1  0
M  END

