
     RDKit          3D

215235  0  0  0  0  0  0  0  0999 V2000
    1.2928   -4.5551   12.7104 C   0  0  0  0  0  0  0  0  0  0  0  0
    1.9454   -3.7714   11.7621 C   0  0  0  0  0  0  0  0  0  0  0  0
    1.3146   -3.7843   10.5087 C   0  0  0  0  0  0  0  0  0  0  0  0
    1.7217   -3.0695    9.3698 C   0  0  0  0  0  0  0  0  0  0  0  0
    2.8685   -2.1423    9.3929 C   0  0  0  0  0  0  0  0  0  0  0  0
    4.0411   -2.4485    8.6907 C   0  0  0  0  0  0  0  0  0  0  0  0
    5.0984   -1.5331    8.6574 C   0  0  0  0  0  0  0  0  0  0  0  0
    4.9770   -0.2972    9.3060 C   0  0  0  0  0  0  0  0  0  0  0  0
    6.3084    0.9047    9.2059 S   0  0  0  0  0  0  0  0  0  0  0  0
    5.6492    1.7497    7.7253 C   0  0  0  0  0  0  0  0  0  0  0  0
    6.0780    1.0249    6.4575 C   0  0  0  0  0  0  0  0  0  0  0  0
    3.8105    0.0030   10.0227 C   0  0  0  0  0  0  0  0  0  0  0  0
    3.6883    1.1900   10.6668 F   0  0  0  0  0  0  0  0  0  0  0  0
    2.7616   -0.9179   10.0666 C   0  0  0  0  0  0  0  0  0  0  0  0
    0.9461   -3.2235    8.2116 C   0  0  0  0  0  0  0  0  0  0  0  0
   -0.1964   -4.0300    8.1629 C   0  0  0  0  0  0  0  0  0  0  0  0
   -0.6183   -4.7366    9.3132 C   0  0  0  0  0  0  0  0  0  0  0  0
   -1.8547   -5.5487    9.3320 C   0  0  0  0  0  0  0  0  0  0  0  0
   -1.8110   -6.9005    9.7085 C   0  0  0  0  0  0  0  0  0  0  0  0
   -2.9834   -7.6550    9.7564 C   0  0  0  0  0  0  0  0  0  0  0  0
   -4.2104   -7.0737    9.4153 C   0  0  0  0  0  0  0  0  0  0  0  0
   -5.7020   -8.0747    9.4236 S   0  0  0  0  0  0  0  0  0  0  0  0
   -5.6131   -8.5082    7.6488 C   0  0  0  0  0  0  0  0  0  0  0  0
   -4.5759   -9.5960    7.3889 C   0  0  0  0  0  0  0  0  0  0  0  0
   -4.2674   -5.7174    9.0693 C   0  0  0  0  0  0  0  0  0  0  0  0
   -3.0928   -4.9585    9.0289 C   0  0  0  0  0  0  0  0  0  0  0  0
   -5.4526   -5.1350    8.7641 F   0  0  0  0  0  0  0  0  0  0  0  0
    0.1759   -4.5961   10.4679 C   0  0  0  0  0  0  0  0  0  0  0  0
   -0.0605   -5.2653   11.9946 S   0  0  0  0  0  0  0  0  0  0  0  0
   -0.8240   -4.0110    6.9029 C   0  0  0  0  0  0  0  0  0  0  0  0
   -0.1971   -3.1514    6.0029 C   0  0  0  0  0  0  0  0  0  0  0  0
    1.1576   -2.4620    6.7313 S   0  0  0  0  0  0  0  0  0  0  0  0
   -0.6491   -2.8429    4.6407 C   0  0  0  0  0  0  0  0  0  0  0  0
   -0.9732   -3.9851    3.4394 S   0  0  0  0  0  0  0  0  0  0  0  0
   -1.2253   -2.8807    2.1902 C   0  0  0  0  0  0  0  0  0  0  0  0
   -1.0468   -1.5962    2.7005 C   0  0  0  0  0  0  0  0  0  0  0  0
   -0.7343   -1.5719    4.0655 C   0  0  0  0  0  0  0  0  0  0  0  0
   -0.5421   -0.3540    4.7244 C   0  0  0  0  0  0  0  0  0  0  0  0
   -0.6204    0.8519    3.9997 C   0  0  0  0  0  0  0  0  0  0  0  0
   -0.4156    2.0971    4.6144 O   0  0  0  0  0  0  0  0  0  0  0  0
   -0.0518    2.2739    5.9794 C   0  0  0  0  0  0  0  0  0  0  0  0
   -0.9054    0.8249    2.6191 C   0  0  0  0  0  0  0  0  0  0  0  0
   -0.9737    2.0471    1.9323 O   0  0  0  0  0  0  0  0  0  0  0  0
   -1.2856    2.1785    0.5497 C   0  0  0  0  0  0  0  0  0  0  0  0
   -1.1195   -0.4076    1.9670 C   0  0  0  0  0  0  0  0  0  0  0  0
   -1.4605   -3.2104    0.7810 C   0  0  0  0  0  0  0  0  0  0  0  0
   -0.4352   -3.3659   -0.1468 C   0  0  0  0  0  0  0  0  0  0  0  0
   -0.8592   -3.1789   -1.4748 C   0  0  0  0  0  0  0  0  0  0  0  0
   -0.0394   -3.1508   -2.6241 C   0  0  0  0  0  0  0  0  0  0  0  0
    1.3792   -3.5549   -2.5786 C   0  0  0  0  0  0  0  0  0  0  0  0
    2.3185   -2.8062   -1.8529 C   0  0  0  0  0  0  0  0  0  0  0  0
    3.6411   -3.2488   -1.7455 C   0  0  0  0  0  0  0  0  0  0  0  0
    4.0417   -4.4268   -2.3883 C   0  0  0  0  0  0  0  0  0  0  0  0
    5.7471   -4.9793   -2.2524 S   0  0  0  0  0  0  0  0  0  0  0  0
    6.3551   -4.0048   -3.6732 C   0  0  0  0  0  0  0  0  0  0  0  0
    5.9929   -4.6690   -4.9949 C   0  0  0  0  0  0  0  0  0  0  0  0
    3.1053   -5.1829   -3.1041 C   0  0  0  0  0  0  0  0  0  0  0  0
    3.4696   -6.3483   -3.6931 F   0  0  0  0  0  0  0  0  0  0  0  0
    1.7809   -4.7409   -3.2121 C   0  0  0  0  0  0  0  0  0  0  0  0
   -0.6424   -2.7287   -3.8223 C   0  0  0  0  0  0  0  0  0  0  0  0
   -2.0035   -2.4264   -3.9164 C   0  0  0  0  0  0  0  0  0  0  0  0
   -2.8462   -2.5763   -2.7926 C   0  0  0  0  0  0  0  0  0  0  0  0
   -4.3202   -2.4965   -2.8834 C   0  0  0  0  0  0  0  0  0  0  0  0
   -5.0813   -3.6433   -2.6038 C   0  0  0  0  0  0  0  0  0  0  0  0
   -6.4690   -3.6239   -2.7477 C   0  0  0  0  0  0  0  0  0  0  0  0
   -7.1110   -2.4645   -3.1900 C   0  0  0  0  0  0  0  0  0  0  0  0
   -8.8914   -2.4788   -3.4401 S   0  0  0  0  0  0  0  0  0  0  0  0
   -8.8030   -2.9922   -5.1940 C   0  0  0  0  0  0  0  0  0  0  0  0
   -8.7097   -4.5076   -5.3206 C   0  0  0  0  0  0  0  0  0  0  0  0
   -6.3641   -1.3046   -3.4412 C   0  0  0  0  0  0  0  0  0  0  0  0
   -4.9749   -1.3157   -3.2738 C   0  0  0  0  0  0  0  0  0  0  0  0
   -6.9777   -0.1696   -3.8629 F   0  0  0  0  0  0  0  0  0  0  0  0
   -2.2264   -2.9076   -1.5762 C   0  0  0  0  0  0  0  0  0  0  0  0
   -2.8958   -2.8555   -0.0325 S   0  0  0  0  0  0  0  0  0  0  0  0
   -2.3600   -1.8641   -5.1550 C   0  0  0  0  0  0  0  0  0  0  0  0
   -1.2758   -1.6633   -6.0192 C   0  0  0  0  0  0  0  0  0  0  0  0
    0.1116   -2.2637   -5.2527 S   0  0  0  0  0  0  0  0  0  0  0  0
   -1.2334   -0.5784   -7.0261 C   0  0  0  0  0  0  0  0  0  0  0  0
   -0.0477    0.6088   -6.9342 S   0  0  0  0  0  0  0  0  0  0  0  0
   -0.9073    1.9145   -7.5596 C   0  0  0  0  0  0  0  0  0  0  0  0
   -2.1644    1.4109   -7.9027 C   0  0  0  0  0  0  0  0  0  0  0  0
   -2.3430    0.0394   -7.6246 C   0  0  0  0  0  0  0  0  0  0  0  0
   -3.5813   -0.5658   -7.8502 C   0  0  0  0  0  0  0  0  0  0  0  0
   -4.6666    0.2123   -8.3054 C   0  0  0  0  0  0  0  0  0  0  0  0
   -5.9463   -0.3387   -8.4748 O   0  0  0  0  0  0  0  0  0  0  0  0
   -6.3139   -1.6382   -8.0378 C   0  0  0  0  0  0  0  0  0  0  0  0
   -4.4919    1.5848   -8.5692 C   0  0  0  0  0  0  0  0  0  0  0  0
   -5.6000    2.3180   -9.0170 O   0  0  0  0  0  0  0  0  0  0  0  0
   -5.5836    3.7115   -9.2991 C   0  0  0  0  0  0  0  0  0  0  0  0
   -3.2313    2.1854   -8.3670 C   0  0  0  0  0  0  0  0  0  0  0  0
   -0.6856    3.2452   -6.9736 C   0  0  0  0  0  0  0  0  0  0  0  0
    0.6055    3.7309   -6.7478 C   0  0  0  0  0  0  0  0  0  0  0  0
    0.7546    4.3696   -5.5042 C   0  0  0  0  0  0  0  0  0  0  0  0
    1.9846    4.7014   -4.9100 C   0  0  0  0  0  0  0  0  0  0  0  0
    3.2422    4.6906   -5.6818 C   0  0  0  0  0  0  0  0  0  0  0  0
    4.2272    3.7215   -5.4417 C   0  0  0  0  0  0  0  0  0  0  0  0
    5.4156    3.7310   -6.1780 C   0  0  0  0  0  0  0  0  0  0  0  0
    5.6247    4.7064   -7.1612 C   0  0  0  0  0  0  0  0  0  0  0  0
    7.1735    4.7489   -8.0697 S   0  0  0  0  0  0  0  0  0  0  0  0
    6.5647    3.7737   -9.4903 C   0  0  0  0  0  0  0  0  0  0  0  0
    6.6252    2.2812   -9.1896 C   0  0  0  0  0  0  0  0  0  0  0  0
    4.6416    5.6784   -7.3988 C   0  0  0  0  0  0  0  0  0  0  0  0
    4.8396    6.6395   -8.3339 F   0  0  0  0  0  0  0  0  0  0  0  0
    3.4528    5.6638   -6.6666 C   0  0  0  0  0  0  0  0  0  0  0  0
    1.9737    4.9493   -3.5285 C   0  0  0  0  0  0  0  0  0  0  0  0
    0.7991    4.9375   -2.7690 C   0  0  0  0  0  0  0  0  0  0  0  0
   -0.4502    4.7156   -3.3846 C   0  0  0  0  0  0  0  0  0  0  0  0
   -1.6926    4.6117   -2.5821 C   0  0  0  0  0  0  0  0  0  0  0  0
   -2.4174    3.4084   -2.5343 C   0  0  0  0  0  0  0  0  0  0  0  0
   -3.5771    3.3142   -1.7602 C   0  0  0  0  0  0  0  0  0  0  0  0
   -4.0141    4.4136   -1.0135 C   0  0  0  0  0  0  0  0  0  0  0  0
   -5.4980    4.2753   -0.0132 S   0  0  0  0  0  0  0  0  0  0  0  0
   -6.5987    4.7851   -1.3736 C   0  0  0  0  0  0  0  0  0  0  0  0
   -8.0460    4.7752   -0.9053 C   0  0  0  0  0  0  0  0  0  0  0  0
   -3.2846    5.6107   -1.0409 C   0  0  0  0  0  0  0  0  0  0  0  0
   -2.1329    5.7108   -1.8259 C   0  0  0  0  0  0  0  0  0  0  0  0
   -3.6892    6.6773   -0.3082 F   0  0  0  0  0  0  0  0  0  0  0  0
   -0.4298    4.4241   -4.7636 C   0  0  0  0  0  0  0  0  0  0  0  0
   -1.6510    3.7279   -5.6745 S   0  0  0  0  0  0  0  0  0  0  0  0
    1.0418    4.9676   -1.3833 C   0  0  0  0  0  0  0  0  0  0  0  0
    2.3958    4.9885   -1.0697 C   0  0  0  0  0  0  0  0  0  0  0  0
    3.2964    5.0037   -2.4951 S   0  0  0  0  0  0  0  0  0  0  0  0
    2.9310    4.5818    0.2313 C   0  0  0  0  0  0  0  0  0  0  0  0
    2.7791    5.4457    1.6660 S   0  0  0  0  0  0  0  0  0  0  0  0
    3.5486    4.3193    2.6618 C   0  0  0  0  0  0  0  0  0  0  0  0
    3.9102    3.2340    1.8684 C   0  0  0  0  0  0  0  0  0  0  0  0
    3.5615    3.3724    0.5197 C   0  0  0  0  0  0  0  0  0  0  0  0
    3.8018    2.3346   -0.3849 C   0  0  0  0  0  0  0  0  0  0  0  0
    4.4497    1.1628    0.0558 C   0  0  0  0  0  0  0  0  0  0  0  0
    4.7480    0.1107   -0.8239 O   0  0  0  0  0  0  0  0  0  0  0  0
    4.4661    0.1352   -2.2213 C   0  0  0  0  0  0  0  0  0  0  0  0
    4.8237    1.0326    1.4108 C   0  0  0  0  0  0  0  0  0  0  0  0
    5.4863   -0.1401    1.8057 O   0  0  0  0  0  0  0  0  0  0  0  0
    5.9421   -0.4052    3.1272 C   0  0  0  0  0  0  0  0  0  0  0  0
    4.5377    2.0745    2.3254 C   0  0  0  0  0  0  0  0  0  0  0  0
    1.6044   -4.6838   13.7378 H   0  0  0  0  0  0  0  0  0  0  0  0
    2.8450   -3.2114   11.9821 H   0  0  0  0  0  0  0  0  0  0  0  0
    4.1337   -3.3911    8.1654 H   0  0  0  0  0  0  0  0  0  0  0  0
    6.0033   -1.7782    8.1170 H   0  0  0  0  0  0  0  0  0  0  0  0
    4.5420    1.8278    7.7659 H   0  0  0  0  0  0  0  0  0  0  0  0
    6.0600    2.7804    7.7037 H   0  0  0  0  0  0  0  0  0  0  0  0
    5.7973    1.6299    5.5723 H   0  0  0  0  0  0  0  0  0  0  0  0
    7.1781    0.8769    6.4515 H   0  0  0  0  0  0  0  0  0  0  0  0
    5.5767    0.0402    6.3876 H   0  0  0  0  0  0  0  0  0  0  0  0
    1.8572   -0.6689   10.6056 H   0  0  0  0  0  0  0  0  0  0  0  0
   -0.8666   -7.3696    9.9592 H   0  0  0  0  0  0  0  0  0  0  0  0
   -2.9369   -8.6970   10.0433 H   0  0  0  0  0  0  0  0  0  0  0  0
   -6.6096   -8.8855    7.3405 H   0  0  0  0  0  0  0  0  0  0  0  0
   -5.3812   -7.6093    7.0382 H   0  0  0  0  0  0  0  0  0  0  0  0
   -4.7469  -10.4605    8.0618 H   0  0  0  0  0  0  0  0  0  0  0  0
   -4.6530   -9.9376    6.3353 H   0  0  0  0  0  0  0  0  0  0  0  0
   -3.5523   -9.2021    7.5470 H   0  0  0  0  0  0  0  0  0  0  0  0
   -3.1491   -3.9102    8.7636 H   0  0  0  0  0  0  0  0  0  0  0  0
   -1.7188   -4.5668    6.6584 H   0  0  0  0  0  0  0  0  0  0  0  0
   -0.3604   -0.3384    5.7872 H   0  0  0  0  0  0  0  0  0  0  0  0
    0.0835    3.3548    6.1879 H   0  0  0  0  0  0  0  0  0  0  0  0
    0.9037    1.7478    6.1911 H   0  0  0  0  0  0  0  0  0  0  0  0
   -0.8548    1.8873    6.6424 H   0  0  0  0  0  0  0  0  0  0  0  0
   -2.2888    1.7471    0.3376 H   0  0  0  0  0  0  0  0  0  0  0  0
   -0.5180    1.6726   -0.0745 H   0  0  0  0  0  0  0  0  0  0  0  0
   -1.3042    3.2552    0.2901 H   0  0  0  0  0  0  0  0  0  0  0  0
   -1.3362   -0.4435    0.9095 H   0  0  0  0  0  0  0  0  0  0  0  0
    0.5973   -3.5097    0.1454 H   0  0  0  0  0  0  0  0  0  0  0  0
    2.0216   -1.8890   -1.3593 H   0  0  0  0  0  0  0  0  0  0  0  0
    4.3549   -2.6785   -1.1664 H   0  0  0  0  0  0  0  0  0  0  0  0
    5.9520   -2.9701   -3.6413 H   0  0  0  0  0  0  0  0  0  0  0  0
    7.4602   -3.9400   -3.5939 H   0  0  0  0  0  0  0  0  0  0  0  0
    6.3104   -5.7346   -4.9928 H   0  0  0  0  0  0  0  0  0  0  0  0
    6.5072   -4.1458   -5.8267 H   0  0  0  0  0  0  0  0  0  0  0  0
    4.9000   -4.6096   -5.1698 H   0  0  0  0  0  0  0  0  0  0  0  0
    1.0623   -5.3384   -3.7598 H   0  0  0  0  0  0  0  0  0  0  0  0
   -4.5906   -4.5589   -2.2933 H   0  0  0  0  0  0  0  0  0  0  0  0
   -7.0397   -4.5188   -2.5348 H   0  0  0  0  0  0  0  0  0  0  0  0
   -7.9364   -2.5204   -5.6951 H   0  0  0  0  0  0  0  0  0  0  0  0
   -9.7238   -2.6440   -5.7087 H   0  0  0  0  0  0  0  0  0  0  0  0
   -8.7316   -4.7911   -6.3948 H   0  0  0  0  0  0  0  0  0  0  0  0
   -7.7603   -4.8797   -4.8843 H   0  0  0  0  0  0  0  0  0  0  0  0
   -9.5676   -4.9894   -4.8065 H   0  0  0  0  0  0  0  0  0  0  0  0
   -4.4088   -0.4116   -3.4678 H   0  0  0  0  0  0  0  0  0  0  0  0
   -3.3431   -1.4652   -5.3516 H   0  0  0  0  0  0  0  0  0  0  0  0
   -3.6992   -1.6254   -7.6692 H   0  0  0  0  0  0  0  0  0  0  0  0
   -6.0677   -1.7582   -6.9639 H   0  0  0  0  0  0  0  0  0  0  0  0
   -7.4072   -1.7762   -8.1757 H   0  0  0  0  0  0  0  0  0  0  0  0
   -5.7810   -2.4083   -8.6342 H   0  0  0  0  0  0  0  0  0  0  0  0
   -4.8639    3.9245  -10.1166 H   0  0  0  0  0  0  0  0  0  0  0  0
   -6.5961    4.0331   -9.6216 H   0  0  0  0  0  0  0  0  0  0  0  0
   -5.3062    4.2831   -8.3858 H   0  0  0  0  0  0  0  0  0  0  0  0
   -3.0825    3.2414   -8.5563 H   0  0  0  0  0  0  0  0  0  0  0  0
    1.4488    3.4359   -7.3612 H   0  0  0  0  0  0  0  0  0  0  0  0
    4.0716    2.9589   -4.6895 H   0  0  0  0  0  0  0  0  0  0  0  0
    6.1712    2.9792   -5.9848 H   0  0  0  0  0  0  0  0  0  0  0  0
    7.2180    3.9869  -10.3607 H   0  0  0  0  0  0  0  0  0  0  0  0
    5.5273    4.0677   -9.7644 H   0  0  0  0  0  0  0  0  0  0  0  0
    7.6522    1.9945   -8.8806 H   0  0  0  0  0  0  0  0  0  0  0  0
    5.9136    2.0206   -8.3824 H   0  0  0  0  0  0  0  0  0  0  0  0
    6.3564    1.7064  -10.1001 H   0  0  0  0  0  0  0  0  0  0  0  0
    2.7004    6.4239   -6.8532 H   0  0  0  0  0  0  0  0  0  0  0  0
   -2.0692    2.5358   -3.0728 H   0  0  0  0  0  0  0  0  0  0  0  0
   -4.1272    2.3816   -1.7317 H   0  0  0  0  0  0  0  0  0  0  0  0
   -6.4876    4.0810   -2.2269 H   0  0  0  0  0  0  0  0  0  0  0  0
   -6.3306    5.8107   -1.7107 H   0  0  0  0  0  0  0  0  0  0  0  0
   -8.1834    5.4940   -0.0702 H   0  0  0  0  0  0  0  0  0  0  0  0
   -8.7111    5.0688   -1.7441 H   0  0  0  0  0  0  0  0  0  0  0  0
   -8.3297    3.7581   -0.5645 H   0  0  0  0  0  0  0  0  0  0  0  0
   -1.5782    6.6412   -1.8426 H   0  0  0  0  0  0  0  0  0  0  0  0
    0.2757    4.8491   -0.6275 H   0  0  0  0  0  0  0  0  0  0  0  0
    3.7107    4.4172    3.7262 H   0  0  0  0  0  0  0  0  0  0  0  0
    3.4813    2.4309   -1.4103 H   0  0  0  0  0  0  0  0  0  0  0  0
    3.3706    0.1931   -2.3843 H   0  0  0  0  0  0  0  0  0  0  0  0
    4.8578   -0.7866   -2.6950 H   0  0  0  0  0  0  0  0  0  0  0  0
    4.9663    1.0065   -2.6962 H   0  0  0  0  0  0  0  0  0  0  0  0
    6.6662    0.3751    3.4365 H   0  0  0  0  0  0  0  0  0  0  0  0
    6.4590   -1.3854    3.1449 H   0  0  0  0  0  0  0  0  0  0  0  0
    5.0824   -0.4416    3.8265 H   0  0  0  0  0  0  0  0  0  0  0  0
    4.7977    1.9875    3.3694 H   0  0  0  0  0  0  0  0  0  0  0  0
  1  2  2  0
  2  3  1  0
  3  4  2  0
  4  5  1  0
  5  6  2  0
  6  7  1  0
  7  8  2  0
  8  9  1  0
  9 10  1  0
 10 11  1  0
  8 12  1  0
 12 13  1  0
 12 14  2  0
  4 15  1  0
 15 16  2  0
 16 17  1  0
 17 18  1  0
 18 19  2  0
 19 20  1  0
 20 21  2  0
 21 22  1  0
 22 23  1  0
 23 24  1  0
 21 25  1  0
 25 26  2  0
 25 27  1  0
 17 28  2  0
 28 29  1  0
 16 30  1  0
 30 31  2  0
 31 32  1  0
 31 33  1  0
 33 34  1  0
 34 35  1  0
 35 36  2  0
 36 37  1  0
 37 38  1  0
 38 39  2  0
 39 40  1  0
 40 41  1  0
 39 42  1  0
 42 43  1  0
 43 44  1  0
 42 45  2  0
 35 46  1  0
 46 47  2  0
 47 48  1  0
 48 49  2  0
 49 50  1  0
 50 51  2  0
 51 52  1  0
 52 53  2  0
 53 54  1  0
 54 55  1  0
 55 56  1  0
 53 57  1  0
 57 58  1  0
 57 59  2  0
 49 60  1  0
 60 61  2  0
 61 62  1  0
 62 63  1  0
 63 64  2  0
 64 65  1  0
 65 66  2  0
 66 67  1  0
 67 68  1  0
 68 69  1  0
 66 70  1  0
 70 71  2  0
 70 72  1  0
 62 73  2  0
 73 74  1  0
 61 75  1  0
 75 76  2  0
 76 77  1  0
 76 78  1  0
 78 79  1  0
 79 80  1  0
 80 81  2  0
 81 82  1  0
 82 83  1  0
 83 84  2  0
 84 85  1  0
 85 86  1  0
 84 87  1  0
 87 88  1  0
 88 89  1  0
 87 90  2  0
 80 91  1  0
 91 92  2  0
 92 93  1  0
 93 94  2  0
 94 95  1  0
 95 96  2  0
 96 97  1  0
 97 98  2  0
 98 99  1  0
 99100  1  0
100101  1  0
 98102  1  0
102103  1  0
102104  2  0
 94105  1  0
105106  2  0
106107  1  0
107108  1  0
108109  2  0
109110  1  0
110111  2  0
111112  1  0
112113  1  0
113114  1  0
111115  1  0
115116  2  0
115117  1  0
107118  2  0
118119  1  0
106120  1  0
120121  2  0
121122  1  0
121123  1  0
123124  1  0
124125  1  0
125126  2  0
126127  1  0
127128  1  0
128129  2  0
129130  1  0
130131  1  0
129132  1  0
132133  1  0
133134  1  0
132135  2  0
 29  1  1  0
 37 33  2  0
 74 46  1  0
 82 78  2  0
119 91  1  0
127123  2  0
 28  3  1  0
 45 36  1  0
 73 48  1  0
 90 81  1  0
118 93  1  0
135126  1  0
 14  5  1  0
 32 15  1  0
 59 50  1  0
 77 60  1  0
104 95  1  0
122105  1  0
 26 18  1  0
 71 63  1  0
116108  1  0
  1136  1  0
  2137  1  0
  6138  1  0
  7139  1  0
 10140  1  0
 10141  1  0
 11142  1  0
 11143  1  0
 11144  1  0
 14145  1  0
 19146  1  0
 20147  1  0
 23148  1  0
 23149  1  0
 24150  1  0
 24151  1  0
 24152  1  0
 26153  1  0
 30154  1  0
 38155  1  0
 41156  1  0
 41157  1  0
 41158  1  0
 44159  1  0
 44160  1  0
 44161  1  0
 45162  1  0
 47163  1  0
 51164  1  0
 52165  1  0
 55166  1  0
 55167  1  0
 56168  1  0
 56169  1  0
 56170  1  0
 59171  1  0
 64172  1  0
 65173  1  0
 68174  1  0
 68175  1  0
 69176  1  0
 69177  1  0
 69178  1  0
 71179  1  0
 75180  1  0
 83181  1  0
 86182  1  0
 86183  1  0
 86184  1  0
 89185  1  0
 89186  1  0
 89187  1  0
 90188  1  0
 92189  1  0
 96190  1  0
 97191  1  0
100192  1  0
100193  1  0
101194  1  0
101195  1  0
101196  1  0
104197  1  0
109198  1  0
110199  1  0
113200  1  0
113201  1  0
114202  1  0
114203  1  0
114204  1  0
116205  1  0
120206  1  0
125207  1  0
128208  1  0
131209  1  0
131210  1  0
131211  1  0
134212  1  0
134213  1  0
134214  1  0
135215  1  0
M  END

