
     RDKit          3D

148163  0  0  0  0  0  0  0  0999 V2000
   -0.2521    1.4178   10.4495 C   0  0  0  0  0  0  0  0  0  0  0  0
   -1.1584    0.1863    9.7217 S   0  0  0  0  0  0  0  0  0  0  0  0
   -0.6485    0.4120    8.1213 C   0  0  0  0  0  0  0  0  0  0  0  0
    0.1985    1.5076    8.1674 C   0  0  0  0  0  0  0  0  0  0  0  0
    1.0545    2.3688    7.0129 S   0  0  0  0  0  0  0  0  0  0  0  0
    1.7347    3.4652    8.1290 C   0  0  0  0  0  0  0  0  0  0  0  0
    2.6329    4.5695    7.7362 C   0  0  0  0  0  0  0  0  0  0  0  0
    2.8839    5.7473    8.4405 C   0  0  0  0  0  0  0  0  0  0  0  0
    3.7525    6.6221    7.7770 C   0  0  0  0  0  0  0  0  0  0  0  0
    4.1747    6.1463    6.5421 C   0  0  0  0  0  0  0  0  0  0  0  0
    5.0620    6.8434    5.6051 C   0  0  0  0  0  0  0  0  0  0  0  0
    5.5616    7.9578    5.9213 O   0  0  0  0  0  0  0  0  0  0  0  0
    5.3408    6.2670    4.3625 O   0  0  0  0  0  0  0  0  0  0  0  0
    6.1937    6.8839    3.4045 C   0  0  0  0  0  0  0  0  0  0  0  0
    6.2498    6.0291    2.1491 C   0  0  0  0  0  0  0  0  0  0  0  0
    3.4719    4.6427    6.2770 S   0  0  0  0  0  0  0  0  0  0  0  0
    1.2948    3.1372    9.4275 C   0  0  0  0  0  0  0  0  0  0  0  0
    0.4280    2.0428    9.4155 C   0  0  0  0  0  0  0  0  0  0  0  0
    1.8169    3.9059   10.9214 Cl  0  0  0  0  0  0  0  0  0  0  0  0
   -1.1594   -0.2859    6.9291 C   0  0  0  0  0  0  0  0  0  0  0  0
   -1.5777    0.4804    5.4704 S   0  0  0  0  0  0  0  0  0  0  0  0
   -2.3166   -0.8414    4.7203 C   0  0  0  0  0  0  0  0  0  0  0  0
   -2.2068   -1.8909    5.6157 C   0  0  0  0  0  0  0  0  0  0  0  0
   -2.5718   -3.5197    5.5016 S   0  0  0  0  0  0  0  0  0  0  0  0
   -1.9203   -3.9132    7.0190 C   0  0  0  0  0  0  0  0  0  0  0  0
   -1.9411   -5.2820    7.5696 C   0  0  0  0  0  0  0  0  0  0  0  0
   -1.8655   -5.6479    8.9130 C   0  0  0  0  0  0  0  0  0  0  0  0
   -2.0123   -7.0242    9.1267 C   0  0  0  0  0  0  0  0  0  0  0  0
   -2.2227   -7.7433    7.9561 C   0  0  0  0  0  0  0  0  0  0  0  0
   -2.4588   -9.1877    7.8573 C   0  0  0  0  0  0  0  0  0  0  0  0
   -2.4395   -9.9014    8.8981 O   0  0  0  0  0  0  0  0  0  0  0  0
   -2.7211   -9.7571    6.6063 O   0  0  0  0  0  0  0  0  0  0  0  0
   -2.9391  -11.1523    6.4073 C   0  0  0  0  0  0  0  0  0  0  0  0
   -1.6215  -11.9161    6.4664 C   0  0  0  0  0  0  0  0  0  0  0  0
   -2.2249   -6.6724    6.6610 S   0  0  0  0  0  0  0  0  0  0  0  0
   -1.3616   -2.7606    7.6073 C   0  0  0  0  0  0  0  0  0  0  0  0
   -1.5680   -1.6189    6.8095 C   0  0  0  0  0  0  0  0  0  0  0  0
   -0.2560   -2.8175    8.9742 Cl  0  0  0  0  0  0  0  0  0  0  0  0
   -2.8087   -0.9056    3.3369 C   0  0  0  0  0  0  0  0  0  0  0  0
   -1.9174   -0.4201    1.9906 S   0  0  0  0  0  0  0  0  0  0  0  0
   -2.9781   -1.0148    0.8254 C   0  0  0  0  0  0  0  0  0  0  0  0
   -4.0668   -1.5878    1.4828 C   0  0  0  0  0  0  0  0  0  0  0  0
   -3.9728   -1.5300    2.8815 C   0  0  0  0  0  0  0  0  0  0  0  0
   -4.9987   -2.0455    3.6797 C   0  0  0  0  0  0  0  0  0  0  0  0
   -6.1139   -2.6618    3.0708 C   0  0  0  0  0  0  0  0  0  0  0  0
   -7.1528   -3.2267    3.8269 O   0  0  0  0  0  0  0  0  0  0  0  0
   -7.1608   -3.3094    5.2488 C   0  0  0  0  0  0  0  0  0  0  0  0
   -6.2053   -2.7209    1.6646 C   0  0  0  0  0  0  0  0  0  0  0  0
   -7.3282   -3.3428    1.0962 O   0  0  0  0  0  0  0  0  0  0  0  0
   -7.5373   -3.5043   -0.3033 C   0  0  0  0  0  0  0  0  0  0  0  0
   -5.1823   -2.1653    0.8688 C   0  0  0  0  0  0  0  0  0  0  0  0
   -2.7036   -1.0412   -0.6186 C   0  0  0  0  0  0  0  0  0  0  0  0
   -2.3815    0.3178   -1.5638 S   0  0  0  0  0  0  0  0  0  0  0  0
   -2.2063   -0.5075   -3.0220 C   0  0  0  0  0  0  0  0  0  0  0  0
   -2.3914   -1.8666   -2.7855 C   0  0  0  0  0  0  0  0  0  0  0  0
   -2.6613   -2.1685   -1.4442 C   0  0  0  0  0  0  0  0  0  0  0  0
   -2.8258   -3.4978   -1.0399 C   0  0  0  0  0  0  0  0  0  0  0  0
   -2.7625   -4.5309   -2.0002 C   0  0  0  0  0  0  0  0  0  0  0  0
   -2.9475   -5.8781   -1.6499 O   0  0  0  0  0  0  0  0  0  0  0  0
   -3.2439   -6.3356   -0.3344 C   0  0  0  0  0  0  0  0  0  0  0  0
   -2.5084   -4.2217   -3.3527 C   0  0  0  0  0  0  0  0  0  0  0  0
   -2.4497   -5.2778   -4.2762 O   0  0  0  0  0  0  0  0  0  0  0  0
   -2.2093   -5.1166   -5.6706 C   0  0  0  0  0  0  0  0  0  0  0  0
   -2.3178   -2.8800   -3.7449 C   0  0  0  0  0  0  0  0  0  0  0  0
   -1.9221    0.1110   -4.3178 C   0  0  0  0  0  0  0  0  0  0  0  0
   -3.1122    0.6304   -5.4059 S   0  0  0  0  0  0  0  0  0  0  0  0
   -2.1008    0.8802   -6.7369 C   0  0  0  0  0  0  0  0  0  0  0  0
   -0.8368    0.4897   -6.3292 C   0  0  0  0  0  0  0  0  0  0  0  0
    0.6110    0.2683   -7.1372 S   0  0  0  0  0  0  0  0  0  0  0  0
    1.4398   -0.3464   -5.7816 C   0  0  0  0  0  0  0  0  0  0  0  0
    2.8619   -0.7533   -5.8211 C   0  0  0  0  0  0  0  0  0  0  0  0
    3.6580   -0.7857   -6.9655 C   0  0  0  0  0  0  0  0  0  0  0  0
    4.9751   -1.1974   -6.7252 C   0  0  0  0  0  0  0  0  0  0  0  0
    5.2247   -1.4860   -5.3892 C   0  0  0  0  0  0  0  0  0  0  0  0
    6.4982   -1.9363   -4.8182 C   0  0  0  0  0  0  0  0  0  0  0  0
    7.4969   -2.1195   -5.5663 O   0  0  0  0  0  0  0  0  0  0  0  0
    6.5903   -2.1572   -3.4411 O   0  0  0  0  0  0  0  0  0  0  0  0
    7.7881   -2.5944   -2.8086 C   0  0  0  0  0  0  0  0  0  0  0  0
    7.5592   -2.7018   -1.3098 C   0  0  0  0  0  0  0  0  0  0  0  0
    3.8135   -1.2309   -4.5151 S   0  0  0  0  0  0  0  0  0  0  0  0
    0.5539   -0.4056   -4.6834 C   0  0  0  0  0  0  0  0  0  0  0  0
   -0.7224    0.0667   -5.0238 C   0  0  0  0  0  0  0  0  0  0  0  0
    0.9569   -1.0111   -3.0803 Cl  0  0  0  0  0  0  0  0  0  0  0  0
   -2.5344    1.1741   -8.1049 C   0  0  0  0  0  0  0  0  0  0  0  0
   -3.7126    0.3015   -8.9531 S   0  0  0  0  0  0  0  0  0  0  0  0
   -3.5598    1.0806  -10.4463 C   0  0  0  0  0  0  0  0  0  0  0  0
   -2.5721    2.0290  -10.2552 C   0  0  0  0  0  0  0  0  0  0  0  0
   -1.9254    3.1990  -11.2571 S   0  0  0  0  0  0  0  0  0  0  0  0
   -0.8951    3.8464  -10.0648 C   0  0  0  0  0  0  0  0  0  0  0  0
    0.0040    4.9937  -10.3089 C   0  0  0  0  0  0  0  0  0  0  0  0
   -0.0474    5.8336  -11.4196 C   0  0  0  0  0  0  0  0  0  0  0  0
    0.9417    6.8246  -11.4211 C   0  0  0  0  0  0  0  0  0  0  0  0
    1.7828    6.7628  -10.3164 C   0  0  0  0  0  0  0  0  0  0  0  0
    2.9094    7.6577  -10.0308 C   0  0  0  0  0  0  0  0  0  0  0  0
    3.1692    8.6143  -10.8115 O   0  0  0  0  0  0  0  0  0  0  0  0
    3.6879    7.4391   -8.8908 O   0  0  0  0  0  0  0  0  0  0  0  0
    4.7799    8.2792   -8.5336 C   0  0  0  0  0  0  0  0  0  0  0  0
    5.4451    7.7420   -7.2763 C   0  0  0  0  0  0  0  0  0  0  0  0
    1.2972    5.4810   -9.3448 S   0  0  0  0  0  0  0  0  0  0  0  0
   -1.0728    3.1390   -8.8566 C   0  0  0  0  0  0  0  0  0  0  0  0
   -2.0098    2.1034   -8.9989 C   0  0  0  0  0  0  0  0  0  0  0  0
   -0.3728    3.6078   -7.3106 Cl  0  0  0  0  0  0  0  0  0  0  0  0
   -0.2293    1.6786   11.4988 H   0  0  0  0  0  0  0  0  0  0  0  0
    2.4300    6.0031    9.3855 H   0  0  0  0  0  0  0  0  0  0  0  0
    4.0437    7.5829    8.1810 H   0  0  0  0  0  0  0  0  0  0  0  0
    7.2168    6.9881    3.8258 H   0  0  0  0  0  0  0  0  0  0  0  0
    5.8008    7.8917    3.1445 H   0  0  0  0  0  0  0  0  0  0  0  0
    5.2351    5.9367    1.7088 H   0  0  0  0  0  0  0  0  0  0  0  0
    6.9255    6.5004    1.4049 H   0  0  0  0  0  0  0  0  0  0  0  0
    6.6345    5.0167    2.3965 H   0  0  0  0  0  0  0  0  0  0  0  0
   -1.7569   -4.9492    9.7290 H   0  0  0  0  0  0  0  0  0  0  0  0
   -1.9930   -7.4730   10.1115 H   0  0  0  0  0  0  0  0  0  0  0  0
   -3.6492  -11.5465    7.1669 H   0  0  0  0  0  0  0  0  0  0  0  0
   -3.3917  -11.2994    5.4044 H   0  0  0  0  0  0  0  0  0  0  0  0
   -0.9140  -11.5091    5.7130 H   0  0  0  0  0  0  0  0  0  0  0  0
   -1.8029  -12.9893    6.2471 H   0  0  0  0  0  0  0  0  0  0  0  0
   -1.1689  -11.8298    7.4762 H   0  0  0  0  0  0  0  0  0  0  0  0
   -4.9346   -1.9601    4.7554 H   0  0  0  0  0  0  0  0  0  0  0  0
   -6.2819   -3.8913    5.6012 H   0  0  0  0  0  0  0  0  0  0  0  0
   -7.1485   -2.2901    5.6905 H   0  0  0  0  0  0  0  0  0  0  0  0
   -8.0856   -3.8272    5.5755 H   0  0  0  0  0  0  0  0  0  0  0  0
   -8.4900   -4.0471   -0.4670 H   0  0  0  0  0  0  0  0  0  0  0  0
   -6.7088   -4.0968   -0.7474 H   0  0  0  0  0  0  0  0  0  0  0  0
   -7.6032   -2.5114   -0.7967 H   0  0  0  0  0  0  0  0  0  0  0  0
   -5.2523   -2.1810   -0.2098 H   0  0  0  0  0  0  0  0  0  0  0  0
   -2.9947   -3.7254    0.0029 H   0  0  0  0  0  0  0  0  0  0  0  0
   -2.4198   -6.0650    0.3592 H   0  0  0  0  0  0  0  0  0  0  0  0
   -3.3467   -7.4396   -0.3501 H   0  0  0  0  0  0  0  0  0  0  0  0
   -4.1998   -5.8932    0.0172 H   0  0  0  0  0  0  0  0  0  0  0  0
   -2.2140   -6.1140   -6.1557 H   0  0  0  0  0  0  0  0  0  0  0  0
   -3.0093   -4.4953   -6.1267 H   0  0  0  0  0  0  0  0  0  0  0  0
   -1.2175   -4.6446   -5.8365 H   0  0  0  0  0  0  0  0  0  0  0  0
   -2.1126   -2.6259   -4.7760 H   0  0  0  0  0  0  0  0  0  0  0  0
    3.3027   -0.5210   -7.9524 H   0  0  0  0  0  0  0  0  0  0  0  0
    5.7204   -1.2776   -7.5065 H   0  0  0  0  0  0  0  0  0  0  0  0
    8.0827   -3.5886   -3.2092 H   0  0  0  0  0  0  0  0  0  0  0  0
    8.6042   -1.8648   -3.0036 H   0  0  0  0  0  0  0  0  0  0  0  0
    6.7566   -3.4406   -1.1004 H   0  0  0  0  0  0  0  0  0  0  0  0
    7.2599   -1.7131   -0.9011 H   0  0  0  0  0  0  0  0  0  0  0  0
    8.4938   -3.0315   -0.8086 H   0  0  0  0  0  0  0  0  0  0  0  0
   -4.1172    0.8892  -11.3523 H   0  0  0  0  0  0  0  0  0  0  0  0
   -0.7801    5.7396  -12.2101 H   0  0  0  0  0  0  0  0  0  0  0  0
    1.0395    7.5593  -12.2097 H   0  0  0  0  0  0  0  0  0  0  0  0
    4.4103    9.3103   -8.3422 H   0  0  0  0  0  0  0  0  0  0  0  0
    5.5228    8.3037   -9.3602 H   0  0  0  0  0  0  0  0  0  0  0  0
    4.7120    7.7096   -6.4429 H   0  0  0  0  0  0  0  0  0  0  0  0
    5.8333    6.7179   -7.4613 H   0  0  0  0  0  0  0  0  0  0  0  0
    6.2900    8.4022   -6.9885 H   0  0  0  0  0  0  0  0  0  0  0  0
  1  2  1  0
  2  3  1  0
  3  4  2  0
  4  5  1  0
  5  6  1  0
  6  7  1  0
  7  8  2  0
  8  9  1  0
  9 10  2  0
 10 11  1  0
 11 12  2  0
 11 13  1  0
 13 14  1  0
 14 15  1  0
 10 16  1  0
  6 17  2  0
 17 18  1  0
 17 19  1  0
  3 20  1  0
 20 21  1  0
 21 22  1  0
 22 23  2  0
 23 24  1  0
 24 25  1  0
 25 26  1  0
 26 27  2  0
 27 28  1  0
 28 29  2  0
 29 30  1  0
 30 31  2  0
 30 32  1  0
 32 33  1  0
 33 34  1  0
 29 35  1  0
 25 36  2  0
 36 37  1  0
 36 38  1  0
 22 39  1  0
 39 40  1  0
 40 41  1  0
 41 42  2  0
 42 43  1  0
 43 44  1  0
 44 45  2  0
 45 46  1  0
 46 47  1  0
 45 48  1  0
 48 49  1  0
 49 50  1  0
 48 51  2  0
 41 52  1  0
 52 53  1  0
 53 54  1  0
 54 55  2  0
 55 56  1  0
 56 57  1  0
 57 58  2  0
 58 59  1  0
 59 60  1  0
 58 61  1  0
 61 62  1  0
 62 63  1  0
 61 64  2  0
 54 65  1  0
 65 66  1  0
 66 67  1  0
 67 68  2  0
 68 69  1  0
 69 70  1  0
 70 71  1  0
 71 72  2  0
 72 73  1  0
 73 74  2  0
 74 75  1  0
 75 76  2  0
 75 77  1  0
 77 78  1  0
 78 79  1  0
 74 80  1  0
 70 81  2  0
 81 82  1  0
 81 83  1  0
 67 84  1  0
 84 85  1  0
 85 86  1  0
 86 87  2  0
 87 88  1  0
 88 89  1  0
 89 90  1  0
 90 91  2  0
 91 92  1  0
 92 93  2  0
 93 94  1  0
 94 95  2  0
 94 96  1  0
 96 97  1  0
 97 98  1  0
 93 99  1  0
 89100  2  0
100101  1  0
100102  1  0
 18  1  2  0
 37 20  2  0
 43 39  2  0
 56 52  2  0
 82 65  2  0
101 84  2  0
 18  4  1  0
 37 23  1  0
 51 42  1  0
 64 55  1  0
 82 68  1  0
101 87  1  0
 16  7  1  0
 35 26  1  0
 80 71  1  0
 99 90  1  0
  1103  1  0
  8104  1  0
  9105  1  0
 14106  1  0
 14107  1  0
 15108  1  0
 15109  1  0
 15110  1  0
 27111  1  0
 28112  1  0
 33113  1  0
 33114  1  0
 34115  1  0
 34116  1  0
 34117  1  0
 44118  1  0
 47119  1  0
 47120  1  0
 47121  1  0
 50122  1  0
 50123  1  0
 50124  1  0
 51125  1  0
 57126  1  0
 60127  1  0
 60128  1  0
 60129  1  0
 63130  1  0
 63131  1  0
 63132  1  0
 64133  1  0
 72134  1  0
 73135  1  0
 78136  1  0
 78137  1  0
 79138  1  0
 79139  1  0
 79140  1  0
 86141  1  0
 91142  1  0
 92143  1  0
 97144  1  0
 97145  1  0
 98146  1  0
 98147  1  0
 98148  1  0
M  END

