
     RDKit          3D

163179  0  0  0  0  0  0  0  0999 V2000
   -4.4351   -5.8562  -11.2985 C   0  0  0  0  0  0  0  0  0  0  0  0
   -4.1871   -6.2347   -9.9835 C   0  0  0  0  0  0  0  0  0  0  0  0
   -4.8914   -5.4658   -9.0402 C   0  0  0  0  0  0  0  0  0  0  0  0
   -4.8316   -5.5978   -7.6351 C   0  0  0  0  0  0  0  0  0  0  0  0
   -3.9370   -6.6134   -6.9569 C   0  0  0  0  0  0  0  0  0  0  0  0
   -2.5217   -6.0656   -6.8005 C   0  0  0  0  0  0  0  0  0  0  0  0
   -5.5772   -4.6693   -6.8856 C   0  0  0  0  0  0  0  0  0  0  0  0
   -6.3620   -3.6692   -7.4730 C   0  0  0  0  0  0  0  0  0  0  0  0
   -6.4591   -3.5671   -8.8781 C   0  0  0  0  0  0  0  0  0  0  0  0
   -7.2875   -2.4942   -9.5507 C   0  0  0  0  0  0  0  0  0  0  0  0
   -6.5213   -1.1773   -9.6271 C   0  0  0  0  0  0  0  0  0  0  0  0
   -5.6913   -4.4787   -9.6290 C   0  0  0  0  0  0  0  0  0  0  0  0
   -5.5221   -4.5685  -11.3010 S   0  0  0  0  0  0  0  0  0  0  0  0
   -6.9623   -2.8149   -6.5310 C   0  0  0  0  0  0  0  0  0  0  0  0
   -6.6489   -3.1489   -5.2139 C   0  0  0  0  0  0  0  0  0  0  0  0
   -5.6368   -4.4992   -5.2134 S   0  0  0  0  0  0  0  0  0  0  0  0
   -7.0097   -2.3774   -4.0141 C   0  0  0  0  0  0  0  0  0  0  0  0
   -7.4315   -1.0480   -3.9930 C   0  0  0  0  0  0  0  0  0  0  0  0
   -7.5114   -0.5160   -2.6930 C   0  0  0  0  0  0  0  0  0  0  0  0
   -7.7883    0.8273   -2.3514 C   0  0  0  0  0  0  0  0  0  0  0  0
   -8.1368    1.8658   -3.3935 C   0  0  0  0  0  0  0  0  0  0  0  0
   -9.6146    1.7810   -3.7630 C   0  0  0  0  0  0  0  0  0  0  0  0
   -7.7031    1.1608   -0.9839 C   0  0  0  0  0  0  0  0  0  0  0  0
   -7.3802    0.2251    0.0060 C   0  0  0  0  0  0  0  0  0  0  0  0
   -7.1409   -1.1250   -0.3319 C   0  0  0  0  0  0  0  0  0  0  0  0
   -6.7382   -2.1540    0.6994 C   0  0  0  0  0  0  0  0  0  0  0  0
   -5.2285   -2.1344    0.9331 C   0  0  0  0  0  0  0  0  0  0  0  0
   -7.1879   -1.4492   -1.7001 C   0  0  0  0  0  0  0  0  0  0  0  0
   -6.7672   -2.9046   -2.4308 S   0  0  0  0  0  0  0  0  0  0  0  0
   -7.2070    0.8010    1.2767 C   0  0  0  0  0  0  0  0  0  0  0  0
   -7.3531    2.1900    1.2800 C   0  0  0  0  0  0  0  0  0  0  0  0
   -7.7418    2.6929   -0.2844 S   0  0  0  0  0  0  0  0  0  0  0  0
   -6.8162    3.0752    2.3275 C   0  0  0  0  0  0  0  0  0  0  0  0
   -6.4101    2.6529    3.5934 C   0  0  0  0  0  0  0  0  0  0  0  0
   -5.4793    3.5183    4.1968 C   0  0  0  0  0  0  0  0  0  0  0  0
   -4.7339    3.2441    5.3670 C   0  0  0  0  0  0  0  0  0  0  0  0
   -5.0360    2.0483    6.2454 C   0  0  0  0  0  0  0  0  0  0  0  0
   -6.2803    2.2994    7.0926 C   0  0  0  0  0  0  0  0  0  0  0  0
   -3.6336    4.0879    5.6203 C   0  0  0  0  0  0  0  0  0  0  0  0
   -3.3101    5.1776    4.8022 C   0  0  0  0  0  0  0  0  0  0  0  0
   -4.1312    5.5217    3.7064 C   0  0  0  0  0  0  0  0  0  0  0  0
   -3.7851    6.6590    2.7720 C   0  0  0  0  0  0  0  0  0  0  0  0
   -2.8151    6.2027    1.6839 C   0  0  0  0  0  0  0  0  0  0  0  0
   -5.1913    4.6426    3.4153 C   0  0  0  0  0  0  0  0  0  0  0  0
   -6.0777    4.5535    1.9897 S   0  0  0  0  0  0  0  0  0  0  0  0
   -2.0380    5.7126    5.0705 C   0  0  0  0  0  0  0  0  0  0  0  0
   -1.3378    5.0148    6.0565 C   0  0  0  0  0  0  0  0  0  0  0  0
   -2.3402    3.7941    6.6526 S   0  0  0  0  0  0  0  0  0  0  0  0
    0.1340    4.9595    6.1558 C   0  0  0  0  0  0  0  0  0  0  0  0
    1.0085    5.4349    5.1742 C   0  0  0  0  0  0  0  0  0  0  0  0
    2.2713    4.8175    5.2037 C   0  0  0  0  0  0  0  0  0  0  0  0
    3.2786    4.9423    4.2204 C   0  0  0  0  0  0  0  0  0  0  0  0
    3.1581    5.8998    3.0562 C   0  0  0  0  0  0  0  0  0  0  0  0
    2.4028    5.2608    1.8931 C   0  0  0  0  0  0  0  0  0  0  0  0
    4.3397    4.0204    4.2899 C   0  0  0  0  0  0  0  0  0  0  0  0
    4.4516    3.0638    5.3043 C   0  0  0  0  0  0  0  0  0  0  0  0
    3.4979    3.0094    6.3452 C   0  0  0  0  0  0  0  0  0  0  0  0
    3.5480    1.9550    7.4280 C   0  0  0  0  0  0  0  0  0  0  0  0
    2.8499    0.6749    6.9784 C   0  0  0  0  0  0  0  0  0  0  0  0
    2.4033    3.8883    6.2418 C   0  0  0  0  0  0  0  0  0  0  0  0
    0.9583    3.8242    7.0972 S   0  0  0  0  0  0  0  0  0  0  0  0
    5.4811    2.1326    5.0750 C   0  0  0  0  0  0  0  0  0  0  0  0
    6.1668    2.3547    3.8801 C   0  0  0  0  0  0  0  0  0  0  0  0
    5.5018    3.7028    3.1156 S   0  0  0  0  0  0  0  0  0  0  0  0
    7.0435    1.3790    3.2106 C   0  0  0  0  0  0  0  0  0  0  0  0
    6.9301    1.0094    1.5712 S   0  0  0  0  0  0  0  0  0  0  0  0
    7.9660   -0.3164    1.5730 C   0  0  0  0  0  0  0  0  0  0  0  0
    8.4456   -0.4768    2.8777 C   0  0  0  0  0  0  0  0  0  0  0  0
    7.9274    0.4623    3.7906 C   0  0  0  0  0  0  0  0  0  0  0  0
    8.3318    0.4429    5.1296 C   0  0  0  0  0  0  0  0  0  0  0  0
    9.2421   -0.5414    5.5703 C   0  0  0  0  0  0  0  0  0  0  0  0
    9.6581   -0.6223    6.9078 O   0  0  0  0  0  0  0  0  0  0  0  0
    9.1946    0.2316    7.9496 C   0  0  0  0  0  0  0  0  0  0  0  0
    9.7632   -1.4788    4.6564 C   0  0  0  0  0  0  0  0  0  0  0  0
   10.6645   -2.4442    5.1339 O   0  0  0  0  0  0  0  0  0  0  0  0
   11.2205   -3.4899    4.3444 C   0  0  0  0  0  0  0  0  0  0  0  0
    9.3796   -1.4290    3.3009 C   0  0  0  0  0  0  0  0  0  0  0  0
    8.1799   -1.1898    0.4056 C   0  0  0  0  0  0  0  0  0  0  0  0
    8.2858   -2.5807    0.4281 C   0  0  0  0  0  0  0  0  0  0  0  0
    8.3907   -3.1469   -0.8539 C   0  0  0  0  0  0  0  0  0  0  0  0
    8.5288   -4.5202   -1.1526 C   0  0  0  0  0  0  0  0  0  0  0  0
    8.5688   -5.5777   -0.0727 C   0  0  0  0  0  0  0  0  0  0  0  0
    7.1575   -5.9686    0.3556 C   0  0  0  0  0  0  0  0  0  0  0  0
    8.5902   -4.8637   -2.5164 C   0  0  0  0  0  0  0  0  0  0  0  0
    8.5308   -3.9144   -3.5438 C   0  0  0  0  0  0  0  0  0  0  0  0
    8.3789   -2.5421   -3.2448 C   0  0  0  0  0  0  0  0  0  0  0  0
    8.3109   -1.4817   -4.3213 C   0  0  0  0  0  0  0  0  0  0  0  0
    9.7099   -1.0101   -4.7028 C   0  0  0  0  0  0  0  0  0  0  0  0
    8.3298   -2.1969   -1.8801 C   0  0  0  0  0  0  0  0  0  0  0  0
    8.1629   -0.6665   -1.1980 S   0  0  0  0  0  0  0  0  0  0  0  0
    8.6337   -4.4868   -4.8247 C   0  0  0  0  0  0  0  0  0  0  0  0
    8.7613   -5.8719   -4.7995 C   0  0  0  0  0  0  0  0  0  0  0  0
    8.7535   -6.3938   -3.1971 S   0  0  0  0  0  0  0  0  0  0  0  0
   -3.9920   -6.3102  -12.1746 H   0  0  0  0  0  0  0  0  0  0  0  0
   -3.5035   -7.0341   -9.7330 H   0  0  0  0  0  0  0  0  0  0  0  0
   -3.9097   -7.5592   -7.5369 H   0  0  0  0  0  0  0  0  0  0  0  0
   -4.3353   -6.8771   -5.9553 H   0  0  0  0  0  0  0  0  0  0  0  0
   -2.5327   -5.1443   -6.1789 H   0  0  0  0  0  0  0  0  0  0  0  0
   -2.0853   -5.8303   -7.7941 H   0  0  0  0  0  0  0  0  0  0  0  0
   -1.8789   -6.8218   -6.3016 H   0  0  0  0  0  0  0  0  0  0  0  0
   -7.5754   -2.8063  -10.5767 H   0  0  0  0  0  0  0  0  0  0  0  0
   -8.2396   -2.3411   -8.9982 H   0  0  0  0  0  0  0  0  0  0  0  0
   -5.5868   -1.3099  -10.2132 H   0  0  0  0  0  0  0  0  0  0  0  0
   -6.2643   -0.8160   -8.6093 H   0  0  0  0  0  0  0  0  0  0  0  0
   -7.1511   -0.4100  -10.1258 H   0  0  0  0  0  0  0  0  0  0  0  0
   -7.5801   -1.9666   -6.7905 H   0  0  0  0  0  0  0  0  0  0  0  0
   -7.6077   -0.4757   -4.8924 H   0  0  0  0  0  0  0  0  0  0  0  0
   -7.5155    1.7304   -4.3025 H   0  0  0  0  0  0  0  0  0  0  0  0
   -7.9179    2.8911   -3.0264 H   0  0  0  0  0  0  0  0  0  0  0  0
   -9.8480    0.7899   -4.2076 H   0  0  0  0  0  0  0  0  0  0  0  0
   -9.8573    2.5690   -4.5054 H   0  0  0  0  0  0  0  0  0  0  0  0
  -10.2465    1.9349   -2.8623 H   0  0  0  0  0  0  0  0  0  0  0  0
   -7.0425   -3.1709    0.3725 H   0  0  0  0  0  0  0  0  0  0  0  0
   -7.2666   -1.9694    1.6589 H   0  0  0  0  0  0  0  0  0  0  0  0
   -4.9025   -1.1342    1.2887 H   0  0  0  0  0  0  0  0  0  0  0  0
   -4.9621   -2.8904    1.7024 H   0  0  0  0  0  0  0  0  0  0  0  0
   -4.6910   -2.3787   -0.0086 H   0  0  0  0  0  0  0  0  0  0  0  0
   -6.8630    0.2481    2.1390 H   0  0  0  0  0  0  0  0  0  0  0  0
   -6.6885    1.6914    4.0032 H   0  0  0  0  0  0  0  0  0  0  0  0
   -5.1802    1.1387    5.6256 H   0  0  0  0  0  0  0  0  0  0  0  0
   -4.1916    1.8206    6.9284 H   0  0  0  0  0  0  0  0  0  0  0  0
   -6.1214    3.1771    7.7562 H   0  0  0  0  0  0  0  0  0  0  0  0
   -7.1642    2.4873    6.4469 H   0  0  0  0  0  0  0  0  0  0  0  0
   -6.4869    1.4091    7.7253 H   0  0  0  0  0  0  0  0  0  0  0  0
   -4.7081    7.0578    2.2967 H   0  0  0  0  0  0  0  0  0  0  0  0
   -3.3409    7.5037    3.3408 H   0  0  0  0  0  0  0  0  0  0  0  0
   -2.5538    7.0653    1.0357 H   0  0  0  0  0  0  0  0  0  0  0  0
   -3.2840    5.4177    1.0550 H   0  0  0  0  0  0  0  0  0  0  0  0
   -1.8831    5.7973    2.1305 H   0  0  0  0  0  0  0  0  0  0  0  0
   -1.5832    6.4898    4.4735 H   0  0  0  0  0  0  0  0  0  0  0  0
    0.6925    6.0972    4.3812 H   0  0  0  0  0  0  0  0  0  0  0  0
    4.1675    6.2076    2.7102 H   0  0  0  0  0  0  0  0  0  0  0  0
    2.6408    6.8303    3.3697 H   0  0  0  0  0  0  0  0  0  0  0  0
    2.9247    4.3413    1.5497 H   0  0  0  0  0  0  0  0  0  0  0  0
    1.3676    4.9974    2.1972 H   0  0  0  0  0  0  0  0  0  0  0  0
    2.3527    5.9755    1.0432 H   0  0  0  0  0  0  0  0  0  0  0  0
    4.6016    1.7305    7.7008 H   0  0  0  0  0  0  0  0  0  0  0  0
    3.0617    2.3326    8.3529 H   0  0  0  0  0  0  0  0  0  0  0  0
    1.7759    0.8717    6.7733 H   0  0  0  0  0  0  0  0  0  0  0  0
    3.3250    0.2714    6.0595 H   0  0  0  0  0  0  0  0  0  0  0  0
    2.9233   -0.0892    7.7810 H   0  0  0  0  0  0  0  0  0  0  0  0
    5.6408    1.2560    5.6880 H   0  0  0  0  0  0  0  0  0  0  0  0
    7.9678    1.1948    5.8126 H   0  0  0  0  0  0  0  0  0  0  0  0
    8.0923    0.1385    8.0579 H   0  0  0  0  0  0  0  0  0  0  0  0
    9.6739   -0.0688    8.9032 H   0  0  0  0  0  0  0  0  0  0  0  0
    9.4720    1.2840    7.7294 H   0  0  0  0  0  0  0  0  0  0  0  0
   11.8702   -4.1207    4.9841 H   0  0  0  0  0  0  0  0  0  0  0  0
   11.8365   -3.0651    3.5243 H   0  0  0  0  0  0  0  0  0  0  0  0
   10.4102   -4.1245    3.9250 H   0  0  0  0  0  0  0  0  0  0  0  0
    9.8260   -2.1041    2.5871 H   0  0  0  0  0  0  0  0  0  0  0  0
    8.2353   -3.1621    1.3382 H   0  0  0  0  0  0  0  0  0  0  0  0
    9.1404   -5.2114    0.8071 H   0  0  0  0  0  0  0  0  0  0  0  0
    9.1031   -6.4837   -0.4300 H   0  0  0  0  0  0  0  0  0  0  0  0
    7.2111   -6.7465    1.1459 H   0  0  0  0  0  0  0  0  0  0  0  0
    6.6168   -5.0884    0.7611 H   0  0  0  0  0  0  0  0  0  0  0  0
    6.5940   -6.3768   -0.5106 H   0  0  0  0  0  0  0  0  0  0  0  0
    7.7135   -0.6128   -3.9760 H   0  0  0  0  0  0  0  0  0  0  0  0
    7.7912   -1.8691   -5.2219 H   0  0  0  0  0  0  0  0  0  0  0  0
    9.6374   -0.2213   -5.4813 H   0  0  0  0  0  0  0  0  0  0  0  0
   10.3084   -1.8551   -5.1056 H   0  0  0  0  0  0  0  0  0  0  0  0
   10.2290   -0.5862   -3.8159 H   0  0  0  0  0  0  0  0  0  0  0  0
    8.6224   -3.9279   -5.7506 H   0  0  0  0  0  0  0  0  0  0  0  0
    8.8520   -6.5102   -5.6689 H   0  0  0  0  0  0  0  0  0  0  0  0
  1  2  2  0
  2  3  1  0
  3  4  2  0
  4  5  1  0
  5  6  1  0
  4  7  1  0
  7  8  2  0
  8  9  1  0
  9 10  1  0
 10 11  1  0
  9 12  2  0
 12 13  1  0
  8 14  1  0
 14 15  2  0
 15 16  1  0
 15 17  1  0
 17 18  2  0
 18 19  1  0
 19 20  2  0
 20 21  1  0
 21 22  1  0
 20 23  1  0
 23 24  2  0
 24 25  1  0
 25 26  1  0
 26 27  1  0
 25 28  2  0
 28 29  1  0
 24 30  1  0
 30 31  2  0
 31 32  1  0
 31 33  1  0
 33 34  2  0
 34 35  1  0
 35 36  2  0
 36 37  1  0
 37 38  1  0
 36 39  1  0
 39 40  2  0
 40 41  1  0
 41 42  1  0
 42 43  1  0
 41 44  2  0
 44 45  1  0
 40 46  1  0
 46 47  2  0
 47 48  1  0
 47 49  1  0
 49 50  2  0
 50 51  1  0
 51 52  2  0
 52 53  1  0
 53 54  1  0
 52 55  1  0
 55 56  2  0
 56 57  1  0
 57 58  1  0
 58 59  1  0
 57 60  2  0
 60 61  1  0
 56 62  1  0
 62 63  2  0
 63 64  1  0
 63 65  1  0
 65 66  1  0
 66 67  1  0
 67 68  2  0
 68 69  1  0
 69 70  1  0
 70 71  2  0
 71 72  1  0
 72 73  1  0
 71 74  1  0
 74 75  1  0
 75 76  1  0
 74 77  2  0
 67 78  1  0
 78 79  2  0
 79 80  1  0
 80 81  2  0
 81 82  1  0
 82 83  1  0
 81 84  1  0
 84 85  2  0
 85 86  1  0
 86 87  1  0
 87 88  1  0
 86 89  2  0
 89 90  1  0
 85 91  1  0
 91 92  2  0
 92 93  1  0
 13  1  1  0
 29 17  1  0
 45 33  1  0
 61 49  1  0
 69 65  2  0
 90 78  1  0
 12  3  1  0
 28 19  1  0
 44 35  1  0
 60 51  1  0
 77 68  1  0
 89 80  1  0
 16  7  1  0
 32 23  1  0
 48 39  1  0
 64 55  1  0
 93 84  1  0
  1 94  1  0
  2 95  1  0
  5 96  1  0
  5 97  1  0
  6 98  1  0
  6 99  1  0
  6100  1  0
 10101  1  0
 10102  1  0
 11103  1  0
 11104  1  0
 11105  1  0
 14106  1  0
 18107  1  0
 21108  1  0
 21109  1  0
 22110  1  0
 22111  1  0
 22112  1  0
 26113  1  0
 26114  1  0
 27115  1  0
 27116  1  0
 27117  1  0
 30118  1  0
 34119  1  0
 37120  1  0
 37121  1  0
 38122  1  0
 38123  1  0
 38124  1  0
 42125  1  0
 42126  1  0
 43127  1  0
 43128  1  0
 43129  1  0
 46130  1  0
 50131  1  0
 53132  1  0
 53133  1  0
 54134  1  0
 54135  1  0
 54136  1  0
 58137  1  0
 58138  1  0
 59139  1  0
 59140  1  0
 59141  1  0
 62142  1  0
 70143  1  0
 73144  1  0
 73145  1  0
 73146  1  0
 76147  1  0
 76148  1  0
 76149  1  0
 77150  1  0
 79151  1  0
 82152  1  0
 82153  1  0
 83154  1  0
 83155  1  0
 83156  1  0
 87157  1  0
 87158  1  0
 88159  1  0
 88160  1  0
 88161  1  0
 91162  1  0
 92163  1  0
M  END

