
     RDKit          3D

244267  0  0  0  0  0  0  0  0999 V2000
    0.0764    5.5779   -6.6321 C   0  0  0  0  0  0  0  0  0  0  0  0
   -0.6945    6.2526   -5.2923 S   0  0  0  0  0  0  0  0  0  0  0  0
   -1.8738    5.0637   -5.1069 C   0  0  0  0  0  0  0  0  0  0  0  0
   -1.6557    4.0905   -6.0871 C   0  0  0  0  0  0  0  0  0  0  0  0
   -0.5807    4.3926   -6.9398 C   0  0  0  0  0  0  0  0  0  0  0  0
   -0.2347    3.5333   -7.9838 C   0  0  0  0  0  0  0  0  0  0  0  0
   -0.9693    2.3395   -8.1746 C   0  0  0  0  0  0  0  0  0  0  0  0
   -0.6774    1.4492   -9.2200 O   0  0  0  0  0  0  0  0  0  0  0  0
    0.3062    1.6772  -10.2229 C   0  0  0  0  0  0  0  0  0  0  0  0
   -2.0257    2.0157   -7.2990 C   0  0  0  0  0  0  0  0  0  0  0  0
   -2.7263    0.8166   -7.5142 O   0  0  0  0  0  0  0  0  0  0  0  0
   -3.8292    0.3724   -6.7286 C   0  0  0  0  0  0  0  0  0  0  0  0
   -2.3579    2.8880   -6.2413 C   0  0  0  0  0  0  0  0  0  0  0  0
   -2.9380    5.0881   -4.0933 C   0  0  0  0  0  0  0  0  0  0  0  0
   -4.2423    4.6423   -4.2810 C   0  0  0  0  0  0  0  0  0  0  0  0
   -4.9826    4.5858   -3.0921 C   0  0  0  0  0  0  0  0  0  0  0  0
   -6.2563    4.0064   -2.9481 C   0  0  0  0  0  0  0  0  0  0  0  0
   -6.9407    3.3765   -4.0977 C   0  0  0  0  0  0  0  0  0  0  0  0
   -7.0615    1.9789   -4.1648 C   0  0  0  0  0  0  0  0  0  0  0  0
   -7.6558    1.3797   -5.2777 C   0  0  0  0  0  0  0  0  0  0  0  0
   -8.1121    2.1660   -6.3407 C   0  0  0  0  0  0  0  0  0  0  0  0
   -8.8882    1.3892   -7.7604 S   0  0  0  0  0  0  0  0  0  0  0  0
  -10.6076    1.6851   -7.1974 C   0  0  0  0  0  0  0  0  0  0  0  0
  -11.4188    2.3170   -8.3198 C   0  0  0  0  0  0  0  0  0  0  0  0
   -7.9680    3.5632   -6.2866 C   0  0  0  0  0  0  0  0  0  0  0  0
   -8.4019    4.3391   -7.3109 F   0  0  0  0  0  0  0  0  0  0  0  0
   -7.3901    4.1620   -5.1652 C   0  0  0  0  0  0  0  0  0  0  0  0
   -6.7524    3.8810   -1.6367 C   0  0  0  0  0  0  0  0  0  0  0  0
   -6.0341    4.3087   -0.5155 C   0  0  0  0  0  0  0  0  0  0  0  0
   -4.7657    4.9154   -0.6619 C   0  0  0  0  0  0  0  0  0  0  0  0
   -3.9269    5.2476    0.5097 C   0  0  0  0  0  0  0  0  0  0  0  0
   -4.3469    6.2166    1.4345 C   0  0  0  0  0  0  0  0  0  0  0  0
   -3.5635    6.5053    2.5570 C   0  0  0  0  0  0  0  0  0  0  0  0
   -2.3509    5.8346    2.7607 C   0  0  0  0  0  0  0  0  0  0  0  0
   -1.3649    6.1901    4.2212 S   0  0  0  0  0  0  0  0  0  0  0  0
   -0.5144    7.6496    3.5223 C   0  0  0  0  0  0  0  0  0  0  0  0
    0.5968    7.2424    2.5646 C   0  0  0  0  0  0  0  0  0  0  0  0
   -1.9332    4.8573    1.8480 C   0  0  0  0  0  0  0  0  0  0  0  0
   -2.7190    4.5662    0.7282 C   0  0  0  0  0  0  0  0  0  0  0  0
   -0.7752    4.1780    2.0474 F   0  0  0  0  0  0  0  0  0  0  0  0
   -4.2663    5.0280   -1.9749 C   0  0  0  0  0  0  0  0  0  0  0  0
   -2.7213    5.4898   -2.4679 S   0  0  0  0  0  0  0  0  0  0  0  0
   -6.5916    3.8649    0.6964 C   0  0  0  0  0  0  0  0  0  0  0  0
   -7.7176    3.0503    0.5305 C   0  0  0  0  0  0  0  0  0  0  0  0
   -8.0582    2.9586   -1.1244 S   0  0  0  0  0  0  0  0  0  0  0  0
   -8.0660    1.9793    1.4848 C   0  0  0  0  0  0  0  0  0  0  0  0
   -8.3166    0.6693    1.0629 C   0  0  0  0  0  0  0  0  0  0  0  0
   -7.8587   -0.3041    1.9640 C   0  0  0  0  0  0  0  0  0  0  0  0
   -7.6874   -1.6673    1.6642 C   0  0  0  0  0  0  0  0  0  0  0  0
   -8.3071   -2.2889    0.4727 C   0  0  0  0  0  0  0  0  0  0  0  0
   -9.7061   -2.3293    0.3616 C   0  0  0  0  0  0  0  0  0  0  0  0
  -10.3100   -3.0460   -0.6742 C   0  0  0  0  0  0  0  0  0  0  0  0
   -9.5242   -3.7291   -1.6090 C   0  0  0  0  0  0  0  0  0  0  0  0
  -10.3100   -4.7643   -2.8459 S   0  0  0  0  0  0  0  0  0  0  0  0
  -10.5299   -6.2022   -1.7328 C   0  0  0  0  0  0  0  0  0  0  0  0
   -9.2260   -6.9708   -1.5442 C   0  0  0  0  0  0  0  0  0  0  0  0
   -8.1266   -3.6205   -1.5540 C   0  0  0  0  0  0  0  0  0  0  0  0
   -7.3496   -4.2412   -2.4784 F   0  0  0  0  0  0  0  0  0  0  0  0
   -7.5218   -2.8977   -0.5211 C   0  0  0  0  0  0  0  0  0  0  0  0
   -6.8416   -2.3960    2.5203 C   0  0  0  0  0  0  0  0  0  0  0  0
   -6.2757   -1.8484    3.6730 C   0  0  0  0  0  0  0  0  0  0  0  0
   -6.5771   -0.5275    4.0521 C   0  0  0  0  0  0  0  0  0  0  0  0
   -6.1057    0.0443    5.3301 C   0  0  0  0  0  0  0  0  0  0  0  0
   -6.6049   -0.4747    6.5330 C   0  0  0  0  0  0  0  0  0  0  0  0
   -6.2766    0.1263    7.7494 C   0  0  0  0  0  0  0  0  0  0  0  0
   -5.4402    1.2482    7.7754 C   0  0  0  0  0  0  0  0  0  0  0  0
   -5.1438    2.0900    9.3362 S   0  0  0  0  0  0  0  0  0  0  0  0
   -3.6611    1.1255    9.7918 C   0  0  0  0  0  0  0  0  0  0  0  0
   -2.4158    1.9808    9.6315 C   0  0  0  0  0  0  0  0  0  0  0  0
   -4.8978    1.7418    6.5791 C   0  0  0  0  0  0  0  0  0  0  0  0
   -5.2246    1.1368    5.3608 C   0  0  0  0  0  0  0  0  0  0  0  0
   -4.0908    2.8305    6.5877 F   0  0  0  0  0  0  0  0  0  0  0  0
   -7.3293    0.2355    3.1394 C   0  0  0  0  0  0  0  0  0  0  0  0
   -7.4239    1.9089    3.0492 S   0  0  0  0  0  0  0  0  0  0  0  0
   -5.2637   -2.6497    4.2331 C   0  0  0  0  0  0  0  0  0  0  0  0
   -5.0066   -3.8110    3.4953 C   0  0  0  0  0  0  0  0  0  0  0  0
   -6.0987   -3.8639    2.2102 S   0  0  0  0  0  0  0  0  0  0  0  0
   -3.6876   -4.4732    3.4438 C   0  0  0  0  0  0  0  0  0  0  0  0
   -2.2607   -3.6636    3.8414 S   0  0  0  0  0  0  0  0  0  0  0  0
   -1.1912   -4.6573    3.0123 C   0  0  0  0  0  0  0  0  0  0  0  0
   -1.9417   -5.6674    2.4044 C   0  0  0  0  0  0  0  0  0  0  0  0
   -3.3251   -5.5709    2.6487 C   0  0  0  0  0  0  0  0  0  0  0  0
   -4.2032   -6.5096    2.0958 C   0  0  0  0  0  0  0  0  0  0  0  0
   -3.7025   -7.5334    1.2637 C   0  0  0  0  0  0  0  0  0  0  0  0
   -4.5510   -8.4785    0.6604 O   0  0  0  0  0  0  0  0  0  0  0  0
   -5.9718   -8.4707    0.7699 C   0  0  0  0  0  0  0  0  0  0  0  0
   -2.3189   -7.6252    1.0159 C   0  0  0  0  0  0  0  0  0  0  0  0
   -1.8635   -8.6528    0.1743 O   0  0  0  0  0  0  0  0  0  0  0  0
   -0.5038   -8.8309   -0.2178 C   0  0  0  0  0  0  0  0  0  0  0  0
   -1.4332   -6.6974    1.6050 C   0  0  0  0  0  0  0  0  0  0  0  0
    0.2143   -4.3056    2.7579 C   0  0  0  0  0  0  0  0  0  0  0  0
    1.0719   -3.7107    3.6816 C   0  0  0  0  0  0  0  0  0  0  0  0
    2.3182   -3.3609    3.1292 C   0  0  0  0  0  0  0  0  0  0  0  0
    3.4057   -2.7574    3.8056 C   0  0  0  0  0  0  0  0  0  0  0  0
    3.3210   -2.3525    5.2287 C   0  0  0  0  0  0  0  0  0  0  0  0
    3.0052   -3.2842    6.2306 C   0  0  0  0  0  0  0  0  0  0  0  0
    2.8703   -2.8730    7.5617 C   0  0  0  0  0  0  0  0  0  0  0  0
    3.0557   -1.5279    7.9064 C   0  0  0  0  0  0  0  0  0  0  0  0
    2.8586   -1.0037    9.6130 S   0  0  0  0  0  0  0  0  0  0  0  0
    1.1747   -0.3238    9.3820 C   0  0  0  0  0  0  0  0  0  0  0  0
    0.1267   -1.4291    9.3691 C   0  0  0  0  0  0  0  0  0  0  0  0
    3.4200   -0.6016    6.9182 C   0  0  0  0  0  0  0  0  0  0  0  0
    3.6359    0.6970    7.2395 F   0  0  0  0  0  0  0  0  0  0  0  0
    3.5342   -1.0094    5.5879 C   0  0  0  0  0  0  0  0  0  0  0  0
    4.5487   -2.4723    3.0328 C   0  0  0  0  0  0  0  0  0  0  0  0
    4.6002   -2.6881    1.6515 C   0  0  0  0  0  0  0  0  0  0  0  0
    3.5061   -3.2591    0.9719 C   0  0  0  0  0  0  0  0  0  0  0  0
    3.4981   -3.4013   -0.4995 C   0  0  0  0  0  0  0  0  0  0  0  0
    4.4347   -4.2246   -1.1443 C   0  0  0  0  0  0  0  0  0  0  0  0
    4.4816   -4.2823   -2.5388 C   0  0  0  0  0  0  0  0  0  0  0  0
    3.6045   -3.5044   -3.3046 C   0  0  0  0  0  0  0  0  0  0  0  0
    3.7037   -3.5442   -5.0987 S   0  0  0  0  0  0  0  0  0  0  0  0
    4.8109   -2.0947   -5.2390 C   0  0  0  0  0  0  0  0  0  0  0  0
    6.2668   -2.4938   -5.0410 C   0  0  0  0  0  0  0  0  0  0  0  0
    2.6455   -2.7053   -2.6667 C   0  0  0  0  0  0  0  0  0  0  0  0
    2.5932   -2.6538   -1.2716 C   0  0  0  0  0  0  0  0  0  0  0  0
    1.7776   -1.9584   -3.3953 F   0  0  0  0  0  0  0  0  0  0  0  0
    2.3910   -3.6138    1.7528 C   0  0  0  0  0  0  0  0  0  0  0  0
    0.9568   -4.3200    1.2412 S   0  0  0  0  0  0  0  0  0  0  0  0
    5.7988   -2.2487    1.0660 C   0  0  0  0  0  0  0  0  0  0  0  0
    6.7057   -1.7511    1.9985 C   0  0  0  0  0  0  0  0  0  0  0  0
    6.0180   -1.8156    3.5373 S   0  0  0  0  0  0  0  0  0  0  0  0
    8.0271   -1.1983    1.6849 C   0  0  0  0  0  0  0  0  0  0  0  0
    8.3578   -0.5362    0.5043 C   0  0  0  0  0  0  0  0  0  0  0  0
    9.6844   -0.0839    0.4866 C   0  0  0  0  0  0  0  0  0  0  0  0
   10.3091    0.6364   -0.5534 C   0  0  0  0  0  0  0  0  0  0  0  0
    9.5659    1.0859   -1.7500 C   0  0  0  0  0  0  0  0  0  0  0  0
    8.4716    1.9559   -1.6133 C   0  0  0  0  0  0  0  0  0  0  0  0
    7.7877    2.4113   -2.7418 C   0  0  0  0  0  0  0  0  0  0  0  0
    8.1896    2.0025   -4.0201 C   0  0  0  0  0  0  0  0  0  0  0  0
    7.3491    2.6488   -5.4634 S   0  0  0  0  0  0  0  0  0  0  0  0
    8.4615    4.0875   -5.6062 C   0  0  0  0  0  0  0  0  0  0  0  0
    7.9357    5.0504   -6.6569 C   0  0  0  0  0  0  0  0  0  0  0  0
    9.2671    1.1176   -4.1630 C   0  0  0  0  0  0  0  0  0  0  0  0
    9.6566    0.7059   -5.3948 F   0  0  0  0  0  0  0  0  0  0  0  0
    9.9545    0.6645   -3.0308 C   0  0  0  0  0  0  0  0  0  0  0  0
   11.6684    0.9533   -0.3742 C   0  0  0  0  0  0  0  0  0  0  0  0
   12.3861    0.5798    0.7652 C   0  0  0  0  0  0  0  0  0  0  0  0
   11.7583   -0.1366    1.8026 C   0  0  0  0  0  0  0  0  0  0  0  0
   12.5088   -0.6300    2.9701 C   0  0  0  0  0  0  0  0  0  0  0  0
   13.3522   -1.7408    2.8335 C   0  0  0  0  0  0  0  0  0  0  0  0
   14.0397   -2.2422    3.9410 C   0  0  0  0  0  0  0  0  0  0  0  0
   13.9140   -1.6182    5.1893 C   0  0  0  0  0  0  0  0  0  0  0  0
   14.7999   -2.2761    6.6072 S   0  0  0  0  0  0  0  0  0  0  0  0
   16.3142   -1.2887    6.3375 C   0  0  0  0  0  0  0  0  0  0  0  0
   17.2613   -1.9937    5.3757 C   0  0  0  0  0  0  0  0  0  0  0  0
   13.0694   -0.5061    5.3308 C   0  0  0  0  0  0  0  0  0  0  0  0
   12.3647   -0.0167    4.2231 C   0  0  0  0  0  0  0  0  0  0  0  0
   12.9212    0.0945    6.5377 F   0  0  0  0  0  0  0  0  0  0  0  0
   10.3980   -0.4341    1.6381 C   0  0  0  0  0  0  0  0  0  0  0  0
    9.3782   -1.2597    2.6960 S   0  0  0  0  0  0  0  0  0  0  0  0
   13.7181    1.0238    0.7480 C   0  0  0  0  0  0  0  0  0  0  0  0
   14.0398    1.7496   -0.3957 C   0  0  0  0  0  0  0  0  0  0  0  0
   12.6789    1.8391   -1.3884 S   0  0  0  0  0  0  0  0  0  0  0  0
    0.9298    5.9921   -7.1517 H   0  0  0  0  0  0  0  0  0  0  0  0
    0.5865    3.7961   -8.6388 H   0  0  0  0  0  0  0  0  0  0  0  0
    1.3134    1.7368   -9.7614 H   0  0  0  0  0  0  0  0  0  0  0  0
    0.2934    0.8315  -10.9402 H   0  0  0  0  0  0  0  0  0  0  0  0
    0.0780    2.6155  -10.7693 H   0  0  0  0  0  0  0  0  0  0  0  0
   -4.6468    1.1220   -6.7645 H   0  0  0  0  0  0  0  0  0  0  0  0
   -4.2105   -0.5837   -7.1422 H   0  0  0  0  0  0  0  0  0  0  0  0
   -3.5094    0.2062   -5.6789 H   0  0  0  0  0  0  0  0  0  0  0  0
   -3.1282    2.6136   -5.5418 H   0  0  0  0  0  0  0  0  0  0  0  0
   -4.6231    4.3207   -5.2394 H   0  0  0  0  0  0  0  0  0  0  0  0
   -6.6903    1.3592   -3.3587 H   0  0  0  0  0  0  0  0  0  0  0  0
   -7.7507    0.3007   -5.3185 H   0  0  0  0  0  0  0  0  0  0  0  0
  -10.6495    2.3566   -6.3107 H   0  0  0  0  0  0  0  0  0  0  0  0
  -11.0614    0.7124   -6.9121 H   0  0  0  0  0  0  0  0  0  0  0  0
  -12.4654    2.4791   -7.9846 H   0  0  0  0  0  0  0  0  0  0  0  0
  -10.9795    3.2987   -8.5997 H   0  0  0  0  0  0  0  0  0  0  0  0
  -11.4284    1.6498   -9.2068 H   0  0  0  0  0  0  0  0  0  0  0  0
   -7.2897    5.2405   -5.1272 H   0  0  0  0  0  0  0  0  0  0  0  0
   -5.2824    6.7400    1.2875 H   0  0  0  0  0  0  0  0  0  0  0  0
   -3.8997    7.2515    3.2672 H   0  0  0  0  0  0  0  0  0  0  0  0
   -0.0686    8.2187    4.3642 H   0  0  0  0  0  0  0  0  0  0  0  0
   -1.2425    8.3129    3.0082 H   0  0  0  0  0  0  0  0  0  0  0  0
    0.1704    6.7930    1.6458 H   0  0  0  0  0  0  0  0  0  0  0  0
    1.1810    8.1401    2.2728 H   0  0  0  0  0  0  0  0  0  0  0  0
    1.2810    6.5175    3.0525 H   0  0  0  0  0  0  0  0  0  0  0  0
   -2.3983    3.7936    0.0412 H   0  0  0  0  0  0  0  0  0  0  0  0
   -6.0893    3.9836    1.6482 H   0  0  0  0  0  0  0  0  0  0  0  0
   -8.6157    0.4260    0.0507 H   0  0  0  0  0  0  0  0  0  0  0  0
  -10.3268   -1.8480    1.1081 H   0  0  0  0  0  0  0  0  0  0  0  0
  -11.3894   -3.1058   -0.7244 H   0  0  0  0  0  0  0  0  0  0  0  0
  -11.2803   -6.8818   -2.1891 H   0  0  0  0  0  0  0  0  0  0  0  0
  -10.9240   -5.8781   -0.7447 H   0  0  0  0  0  0  0  0  0  0  0  0
   -9.4215   -7.8947   -0.9600 H   0  0  0  0  0  0  0  0  0  0  0  0
   -8.4910   -6.3587   -0.9833 H   0  0  0  0  0  0  0  0  0  0  0  0
   -8.7997   -7.2555   -2.5282 H   0  0  0  0  0  0  0  0  0  0  0  0
   -6.4403   -2.8315   -0.4854 H   0  0  0  0  0  0  0  0  0  0  0  0
   -7.2856   -1.3173    6.5212 H   0  0  0  0  0  0  0  0  0  0  0  0
   -6.7003   -0.2596    8.6671 H   0  0  0  0  0  0  0  0  0  0  0  0
   -3.7577    0.8261   10.8561 H   0  0  0  0  0  0  0  0  0  0  0  0
   -3.5651    0.1990    9.1866 H   0  0  0  0  0  0  0  0  0  0  0  0
   -2.2781    2.2640    8.5679 H   0  0  0  0  0  0  0  0  0  0  0  0
   -2.5054    2.9005   10.2477 H   0  0  0  0  0  0  0  0  0  0  0  0
   -1.5250    1.4144    9.9744 H   0  0  0  0  0  0  0  0  0  0  0  0
   -4.8200    1.5367    4.4404 H   0  0  0  0  0  0  0  0  0  0  0  0
   -4.6289   -2.3159    5.0458 H   0  0  0  0  0  0  0  0  0  0  0  0
   -5.2584   -6.4600    2.3243 H   0  0  0  0  0  0  0  0  0  0  0  0
   -6.3834   -9.3238    0.1959 H   0  0  0  0  0  0  0  0  0  0  0  0
   -6.2717   -8.5847    1.8314 H   0  0  0  0  0  0  0  0  0  0  0  0
   -6.3801   -7.5253    0.3543 H   0  0  0  0  0  0  0  0  0  0  0  0
   -0.4370   -9.6925   -0.9148 H   0  0  0  0  0  0  0  0  0  0  0  0
   -0.1322   -7.9185   -0.7331 H   0  0  0  0  0  0  0  0  0  0  0  0
    0.1223   -9.0440    0.6741 H   0  0  0  0  0  0  0  0  0  0  0  0
   -0.3683   -6.7785    1.4450 H   0  0  0  0  0  0  0  0  0  0  0  0
    0.7864   -3.5299    4.7075 H   0  0  0  0  0  0  0  0  0  0  0  0
    2.8537   -4.3281    5.9808 H   0  0  0  0  0  0  0  0  0  0  0  0
    2.6156   -3.5988    8.3235 H   0  0  0  0  0  0  0  0  0  0  0  0
    1.1158    0.2671    8.4394 H   0  0  0  0  0  0  0  0  0  0  0  0
    0.9612    0.3643   10.2281 H   0  0  0  0  0  0  0  0  0  0  0  0
    0.1468   -1.9948   10.3271 H   0  0  0  0  0  0  0  0  0  0  0  0
   -0.8835   -0.9804    9.2333 H   0  0  0  0  0  0  0  0  0  0  0  0
    0.3077   -2.1307    8.5267 H   0  0  0  0  0  0  0  0  0  0  0  0
    3.7712   -0.2728    4.8294 H   0  0  0  0  0  0  0  0  0  0  0  0
    5.1422   -4.8046   -0.5623 H   0  0  0  0  0  0  0  0  0  0  0  0
    5.2130   -4.9150   -3.0269 H   0  0  0  0  0  0  0  0  0  0  0  0
    4.6929   -1.6744   -6.2595 H   0  0  0  0  0  0  0  0  0  0  0  0
    4.5292   -1.3023   -4.5140 H   0  0  0  0  0  0  0  0  0  0  0  0
    6.4473   -2.8154   -3.9951 H   0  0  0  0  0  0  0  0  0  0  0  0
    6.5299   -3.3232   -5.7299 H   0  0  0  0  0  0  0  0  0  0  0  0
    6.9228   -1.6250   -5.2594 H   0  0  0  0  0  0  0  0  0  0  0  0
    1.8715   -2.0034   -0.7907 H   0  0  0  0  0  0  0  0  0  0  0  0
    6.0096   -2.2982    0.0068 H   0  0  0  0  0  0  0  0  0  0  0  0
    7.6530   -0.3773   -0.3022 H   0  0  0  0  0  0  0  0  0  0  0  0
    8.1635    2.2996   -0.6329 H   0  0  0  0  0  0  0  0  0  0  0  0
    6.9588    3.0985   -2.6235 H   0  0  0  0  0  0  0  0  0  0  0  0
    9.4796    3.7423   -5.8894 H   0  0  0  0  0  0  0  0  0  0  0  0
    8.5187    4.6145   -4.6286 H   0  0  0  0  0  0  0  0  0  0  0  0
    8.6361    5.9043   -6.7664 H   0  0  0  0  0  0  0  0  0  0  0  0
    7.8405    4.5375   -7.6369 H   0  0  0  0  0  0  0  0  0  0  0  0
    6.9427    5.4381   -6.3479 H   0  0  0  0  0  0  0  0  0  0  0  0
   10.7912   -0.0126   -3.1527 H   0  0  0  0  0  0  0  0  0  0  0  0
   13.4656   -2.2256    1.8728 H   0  0  0  0  0  0  0  0  0  0  0  0
   14.6742   -3.1125    3.8264 H   0  0  0  0  0  0  0  0  0  0  0  0
   16.0653   -0.2758    5.9574 H   0  0  0  0  0  0  0  0  0  0  0  0
   16.8261   -1.1686    7.3163 H   0  0  0  0  0  0  0  0  0  0  0  0
   17.4802   -3.0192    5.7382 H   0  0  0  0  0  0  0  0  0  0  0  0
   16.8175   -2.0472    4.3615 H   0  0  0  0  0  0  0  0  0  0  0  0
   18.2125   -1.4270    5.3086 H   0  0  0  0  0  0  0  0  0  0  0  0
   11.7087    0.8355    4.3402 H   0  0  0  0  0  0  0  0  0  0  0  0
   14.4274    0.8461    1.5497 H   0  0  0  0  0  0  0  0  0  0  0  0
   15.0025    2.1969   -0.6040 H   0  0  0  0  0  0  0  0  0  0  0  0
  1  2  1  0
  2  3  1  0
  3  4  2  0
  4  5  1  0
  5  6  1  0
  6  7  2  0
  7  8  1  0
  8  9  1  0
  7 10  1  0
 10 11  1  0
 11 12  1  0
 10 13  2  0
  3 14  1  0
 14 15  2  0
 15 16  1  0
 16 17  2  0
 17 18  1  0
 18 19  2  0
 19 20  1  0
 20 21  2  0
 21 22  1  0
 22 23  1  0
 23 24  1  0
 21 25  1  0
 25 26  1  0
 25 27  2  0
 17 28  1  0
 28 29  2  0
 29 30  1  0
 30 31  1  0
 31 32  2  0
 32 33  1  0
 33 34  2  0
 34 35  1  0
 35 36  1  0
 36 37  1  0
 34 38  1  0
 38 39  2  0
 38 40  1  0
 30 41  2  0
 41 42  1  0
 29 43  1  0
 43 44  2  0
 44 45  1  0
 44 46  1  0
 46 47  2  0
 47 48  1  0
 48 49  2  0
 49 50  1  0
 50 51  2  0
 51 52  1  0
 52 53  2  0
 53 54  1  0
 54 55  1  0
 55 56  1  0
 53 57  1  0
 57 58  1  0
 57 59  2  0
 49 60  1  0
 60 61  2  0
 61 62  1  0
 62 63  1  0
 63 64  2  0
 64 65  1  0
 65 66  2  0
 66 67  1  0
 67 68  1  0
 68 69  1  0
 66 70  1  0
 70 71  2  0
 70 72  1  0
 62 73  2  0
 73 74  1  0
 61 75  1  0
 75 76  2  0
 76 77  1  0
 76 78  1  0
 78 79  1  0
 79 80  1  0
 80 81  2  0
 81 82  1  0
 82 83  1  0
 83 84  2  0
 84 85  1  0
 85 86  1  0
 84 87  1  0
 87 88  1  0
 88 89  1  0
 87 90  2  0
 80 91  1  0
 91 92  2  0
 92 93  1  0
 93 94  2  0
 94 95  1  0
 95 96  2  0
 96 97  1  0
 97 98  2  0
 98 99  1  0
 99100  1  0
100101  1  0
 98102  1  0
102103  1  0
102104  2  0
 94105  1  0
105106  2  0
106107  1  0
107108  1  0
108109  2  0
109110  1  0
110111  2  0
111112  1  0
112113  1  0
113114  1  0
111115  1  0
115116  2  0
115117  1  0
107118  2  0
118119  1  0
106120  1  0
120121  2  0
121122  1  0
121123  1  0
123124  2  0
124125  1  0
125126  2  0
126127  1  0
127128  2  0
128129  1  0
129130  2  0
130131  1  0
131132  1  0
132133  1  0
130134  1  0
134135  1  0
134136  2  0
126137  1  0
137138  2  0
138139  1  0
139140  1  0
140141  2  0
141142  1  0
142143  2  0
143144  1  0
144145  1  0
145146  1  0
143147  1  0
147148  2  0
147149  1  0
139150  2  0
150151  1  0
138152  1  0
152153  2  0
153154  1  0
  5  1  2  0
 42 14  1  0
 74 46  1  0
 82 78  2  0
119 91  1  0
151123  1  0
 13  4  1  0
 41 16  1  0
 73 48  1  0
 90 81  1  0
118 93  1  0
150125  1  0
 27 18  1  0
 45 28  1  0
 59 50  1  0
 77 60  1  0
104 95  1  0
122105  1  0
136127  1  0
154137  1  0
 39 31  1  0
 71 63  1  0
116108  1  0
148140  1  0
  1155  1  0
  6156  1  0
  9157  1  0
  9158  1  0
  9159  1  0
 12160  1  0
 12161  1  0
 12162  1  0
 13163  1  0
 15164  1  0
 19165  1  0
 20166  1  0
 23167  1  0
 23168  1  0
 24169  1  0
 24170  1  0
 24171  1  0
 27172  1  0
 32173  1  0
 33174  1  0
 36175  1  0
 36176  1  0
 37177  1  0
 37178  1  0
 37179  1  0
 39180  1  0
 43181  1  0
 47182  1  0
 51183  1  0
 52184  1  0
 55185  1  0
 55186  1  0
 56187  1  0
 56188  1  0
 56189  1  0
 59190  1  0
 64191  1  0
 65192  1  0
 68193  1  0
 68194  1  0
 69195  1  0
 69196  1  0
 69197  1  0
 71198  1  0
 75199  1  0
 83200  1  0
 86201  1  0
 86202  1  0
 86203  1  0
 89204  1  0
 89205  1  0
 89206  1  0
 90207  1  0
 92208  1  0
 96209  1  0
 97210  1  0
100211  1  0
100212  1  0
101213  1  0
101214  1  0
101215  1  0
104216  1  0
109217  1  0
110218  1  0
113219  1  0
113220  1  0
114221  1  0
114222  1  0
114223  1  0
116224  1  0
120225  1  0
124226  1  0
128227  1  0
129228  1  0
132229  1  0
132230  1  0
133231  1  0
133232  1  0
133233  1  0
136234  1  0
141235  1  0
142236  1  0
145237  1  0
145238  1  0
146239  1  0
146240  1  0
146241  1  0
148242  1  0
152243  1  0
153244  1  0
M  END

