
     RDKit          3D

 93104  0  0  0  0  0  0  0  0999 V2000
    8.8235   -1.9677   -1.8868 C   0  0  0  0  0  0  0  0  0  0  0  0
    9.2039   -2.9022   -2.7874 N   0  0  0  0  0  0  0  0  0  0  0  0
    8.2673   -2.7910   -3.7359 C   0  0  0  0  0  0  0  0  0  0  0  0
    7.6709   -3.7966   -4.3898 N   0  0  0  0  0  0  0  0  0  0  0  0
    6.3713   -3.4076   -4.4315 C   0  0  0  0  0  0  0  0  0  0  0  0
    6.1454   -2.2092   -3.8244 N   0  0  0  0  0  0  0  0  0  0  0  0
    7.3706   -1.8481   -3.4093 C   0  0  0  0  0  0  0  0  0  0  0  0
    7.6591   -1.3382   -2.2028 N   0  0  0  0  0  0  0  0  0  0  0  0
    5.2961   -4.2724   -4.9525 C   0  0  0  0  0  0  0  0  0  0  0  0
    4.0205   -4.2835   -4.5426 C   0  0  0  0  0  0  0  0  0  0  0  0
    3.4700   -3.5314   -3.4040 C   0  0  0  0  0  0  0  0  0  0  0  0
    4.1358   -3.3243   -2.2345 N   0  0  0  0  0  0  0  0  0  0  0  0
    3.1952   -2.7831   -1.4506 C   0  0  0  0  0  0  0  0  0  0  0  0
    3.0060   -3.0147   -0.1433 N   0  0  0  0  0  0  0  0  0  0  0  0
    1.6491   -3.0552   -0.0458 C   0  0  0  0  0  0  0  0  0  0  0  0
    1.0119   -2.9319   -1.2428 N   0  0  0  0  0  0  0  0  0  0  0  0
    2.0309   -2.7158   -2.0929 C   0  0  0  0  0  0  0  0  0  0  0  0
    2.1460   -3.2225   -3.3299 N   0  0  0  0  0  0  0  0  0  0  0  0
    0.9121   -3.3574    1.1917 C   0  0  0  0  0  0  0  0  0  0  0  0
    1.4574   -3.2402    2.4105 C   0  0  0  0  0  0  0  0  0  0  0  0
    0.6580   -3.4098    3.6348 C   0  0  0  0  0  0  0  0  0  0  0  0
    1.1596   -3.1952    4.8876 N   0  0  0  0  0  0  0  0  0  0  0  0
    0.0565   -3.2024    5.6575 C   0  0  0  0  0  0  0  0  0  0  0  0
   -0.2261   -2.3544    6.6623 N   0  0  0  0  0  0  0  0  0  0  0  0
   -1.5403   -2.0721    6.4547 C   0  0  0  0  0  0  0  0  0  0  0  0
   -2.0721   -2.6888    5.3637 N   0  0  0  0  0  0  0  0  0  0  0  0
   -1.0333   -3.4047    4.9062 C   0  0  0  0  0  0  0  0  0  0  0  0
   -0.6917   -3.5312    3.6134 N   0  0  0  0  0  0  0  0  0  0  0  0
   -2.2609   -1.0381    7.2121 C   0  0  0  0  0  0  0  0  0  0  0  0
   -3.0116   -0.0855    6.6246 C   0  0  0  0  0  0  0  0  0  0  0  0
   -3.0098    0.2126    5.1664 C   0  0  0  0  0  0  0  0  0  0  0  0
   -4.3912    0.4236    4.2275 S   0  0  0  0  0  0  0  0  0  0  0  0
   -3.6257    0.9182    2.8152 C   0  0  0  0  0  0  0  0  0  0  0  0
   -2.2509    0.9963    3.0910 C   0  0  0  0  0  0  0  0  0  0  0  0
   -1.9114    0.5964    4.3923 C   0  0  0  0  0  0  0  0  0  0  0  0
   -0.5782    0.6828    4.8425 C   0  0  0  0  0  0  0  0  0  0  0  0
    0.4068    1.2494    4.0002 C   0  0  0  0  0  0  0  0  0  0  0  0
    1.7375    1.4110    4.4141 O   0  0  0  0  0  0  0  0  0  0  0  0
    2.2750    0.9281    5.6418 C   0  0  0  0  0  0  0  0  0  0  0  0
    0.0447    1.7056    2.7065 C   0  0  0  0  0  0  0  0  0  0  0  0
    1.0280    2.3532    1.9332 O   0  0  0  0  0  0  0  0  0  0  0  0
    0.7751    3.0536    0.7167 C   0  0  0  0  0  0  0  0  0  0  0  0
   -1.2781    1.5413    2.2441 C   0  0  0  0  0  0  0  0  0  0  0  0
   -4.3205    1.2320    1.5505 C   0  0  0  0  0  0  0  0  0  0  0  0
   -3.8021    0.9773    0.3129 N   0  0  0  0  0  0  0  0  0  0  0  0
   -4.8319    1.2383   -0.4989 C   0  0  0  0  0  0  0  0  0  0  0  0
   -5.1675    0.6112   -1.6286 N   0  0  0  0  0  0  0  0  0  0  0  0
   -6.5299    0.6161   -1.5713 C   0  0  0  0  0  0  0  0  0  0  0  0
   -7.0289    1.1301   -0.4116 N   0  0  0  0  0  0  0  0  0  0  0  0
   -5.9119    1.5417    0.2100 C   0  0  0  0  0  0  0  0  0  0  0  0
   -5.6520    1.5283    1.5304 N   0  0  0  0  0  0  0  0  0  0  0  0
   -7.3768   -0.1556   -2.5015 C   0  0  0  0  0  0  0  0  0  0  0  0
   -7.2873   -0.0900   -3.8374 C   0  0  0  0  0  0  0  0  0  0  0  0
   -6.5426    0.9297   -4.6008 C   0  0  0  0  0  0  0  0  0  0  0  0
   -6.2770    0.7854   -5.9316 N   0  0  0  0  0  0  0  0  0  0  0  0
   -5.7232    1.9568   -6.2378 C   0  0  0  0  0  0  0  0  0  0  0  0
   -4.7278    2.2138   -7.1003 N   0  0  0  0  0  0  0  0  0  0  0  0
   -4.0717    3.2343   -6.4815 C   0  0  0  0  0  0  0  0  0  0  0  0
   -4.5681    3.5488   -5.2430 N   0  0  0  0  0  0  0  0  0  0  0  0
   -5.6268    2.7277   -5.1632 C   0  0  0  0  0  0  0  0  0  0  0  0
   -6.1153    2.1085   -4.0689 N   0  0  0  0  0  0  0  0  0  0  0  0
   -2.8948    3.8785   -7.0756 C   0  0  0  0  0  0  0  0  0  0  0  0
   -2.4144    5.0241   -6.6154 C   0  0  0  0  0  0  0  0  0  0  0  0
    9.2833   -1.8692   -0.9258 H   0  0  0  0  0  0  0  0  0  0  0  0
    9.8710   -3.6931   -2.6400 H   0  0  0  0  0  0  0  0  0  0  0  0
    8.0479   -4.7517   -4.5829 H   0  0  0  0  0  0  0  0  0  0  0  0
    5.5866   -4.9871   -5.7077 H   0  0  0  0  0  0  0  0  0  0  0  0
    3.3391   -4.9208   -5.0897 H   0  0  0  0  0  0  0  0  0  0  0  0
    5.0660   -3.7109   -1.9491 H   0  0  0  0  0  0  0  0  0  0  0  0
    3.7156   -3.3055    0.5544 H   0  0  0  0  0  0  0  0  0  0  0  0
   -0.1277   -3.6487    1.0681 H   0  0  0  0  0  0  0  0  0  0  0  0
    2.4717   -2.8754    2.5325 H   0  0  0  0  0  0  0  0  0  0  0  0
    2.1024   -2.8222    5.1374 H   0  0  0  0  0  0  0  0  0  0  0  0
    0.4373   -1.8750    7.3035 H   0  0  0  0  0  0  0  0  0  0  0  0
   -2.2188   -1.0751    8.2915 H   0  0  0  0  0  0  0  0  0  0  0  0
   -3.6317    0.5335    7.2526 H   0  0  0  0  0  0  0  0  0  0  0  0
   -0.3292    0.3756    5.8542 H   0  0  0  0  0  0  0  0  0  0  0  0
    1.6325    1.2413    6.4899 H   0  0  0  0  0  0  0  0  0  0  0  0
    3.2903    1.3486    5.7743 H   0  0  0  0  0  0  0  0  0  0  0  0
    2.3518   -0.1691    5.6145 H   0  0  0  0  0  0  0  0  0  0  0  0
    1.6905    3.6069    0.4036 H   0  0  0  0  0  0  0  0  0  0  0  0
    0.5064    2.3219   -0.0860 H   0  0  0  0  0  0  0  0  0  0  0  0
   -0.0314    3.8039    0.8737 H   0  0  0  0  0  0  0  0  0  0  0  0
   -1.5509    1.9035    1.2665 H   0  0  0  0  0  0  0  0  0  0  0  0
   -2.9178    0.4795    0.0595 H   0  0  0  0  0  0  0  0  0  0  0  0
   -4.5513    0.0913   -2.2896 H   0  0  0  0  0  0  0  0  0  0  0  0
   -8.0571   -0.8685   -2.0616 H   0  0  0  0  0  0  0  0  0  0  0  0
   -7.8454   -0.8027   -4.4247 H   0  0  0  0  0  0  0  0  0  0  0  0
   -6.3562   -0.0731   -6.5220 H   0  0  0  0  0  0  0  0  0  0  0  0
   -4.4497    1.6769   -7.9533 H   0  0  0  0  0  0  0  0  0  0  0  0
   -2.4382    3.4414   -7.9580 H   0  0  0  0  0  0  0  0  0  0  0  0
   -1.5635    5.4841   -7.1001 H   0  0  0  0  0  0  0  0  0  0  0  0
   -2.8368    5.5067   -5.7459 H   0  0  0  0  0  0  0  0  0  0  0  0
  1  2  1  0
  2  3  1  0
  3  4  1  0
  4  5  1  0
  5  6  2  0
  6  7  1  0
  7  8  1  0
  5  9  1  0
  9 10  2  3
 10 11  1  0
 11 12  1  0
 12 13  1  0
 13 14  1  0
 14 15  1  0
 15 16  2  0
 16 17  1  0
 17 18  1  0
 15 19  1  0
 19 20  2  3
 20 21  1  0
 21 22  1  0
 22 23  1  0
 23 24  1  0
 24 25  1  0
 25 26  2  0
 26 27  1  0
 27 28  1  0
 25 29  1  0
 29 30  2  3
 30 31  1  0
 31 32  1  0
 32 33  1  0
 33 34  2  0
 34 35  1  0
 35 36  1  0
 36 37  2  0
 37 38  1  0
 38 39  1  0
 37 40  1  0
 40 41  1  0
 41 42  1  0
 40 43  2  0
 33 44  1  0
 44 45  1  0
 45 46  1  0
 46 47  1  0
 47 48  1  0
 48 49  2  0
 49 50  1  0
 50 51  1  0
 48 52  1  0
 52 53  2  3
 53 54  1  0
 54 55  1  0
 55 56  1  0
 56 57  1  0
 57 58  1  0
 58 59  2  0
 59 60  1  0
 60 61  1  0
 58 62  1  0
 62 63  2  3
  8  1  2  0
 18 11  2  0
 28 21  2  0
 35 31  2  0
 51 44  2  0
 61 54  2  0
  7  3  2  0
 17 13  2  0
 27 23  2  0
 43 34  1  0
 50 46  2  0
 60 56  2  0
  1 64  1  0
  2 65  1  0
  4 66  1  0
  9 67  1  0
 10 68  1  0
 12 69  1  0
 14 70  1  0
 19 71  1  0
 20 72  1  0
 22 73  1  0
 24 74  1  0
 29 75  1  0
 30 76  1  0
 36 77  1  0
 39 78  1  0
 39 79  1  0
 39 80  1  0
 42 81  1  0
 42 82  1  0
 42 83  1  0
 43 84  1  0
 45 85  1  0
 47 86  1  0
 52 87  1  0
 53 88  1  0
 55 89  1  0
 57 90  1  0
 62 91  1  0
 63 92  1  0
 63 93  1  0
M  END

