
     RDKit          3D

116123  0  0  0  0  0  0  0  0999 V2000
    9.9696   -1.6748    1.7672 C   0  0  0  0  0  0  0  0  0  0  0  0
    8.8824   -2.3690    2.8551 S   0  0  0  0  0  0  0  0  0  0  0  0
    7.4859   -2.0595    1.9676 C   0  0  0  0  0  0  0  0  0  0  0  0
    7.8533   -1.3833    0.8074 C   0  0  0  0  0  0  0  0  0  0  0  0
    9.2338   -1.1768    0.6950 C   0  0  0  0  0  0  0  0  0  0  0  0
    9.7653   -0.5114   -0.4115 C   0  0  0  0  0  0  0  0  0  0  0  0
    8.8962   -0.0377   -1.4201 C   0  0  0  0  0  0  0  0  0  0  0  0
    9.3732    0.6489   -2.5517 O   0  0  0  0  0  0  0  0  0  0  0  0
   10.7477    0.9053   -2.8216 C   0  0  0  0  0  0  0  0  0  0  0  0
    7.5027   -0.2333   -1.2976 C   0  0  0  0  0  0  0  0  0  0  0  0
    6.6683    0.2440   -2.3203 O   0  0  0  0  0  0  0  0  0  0  0  0
    5.2470    0.1331   -2.3230 C   0  0  0  0  0  0  0  0  0  0  0  0
    6.9804   -0.9049   -0.1740 C   0  0  0  0  0  0  0  0  0  0  0  0
    6.1217   -2.4337    2.3555 C   0  0  0  0  0  0  0  0  0  0  0  0
    5.2004   -1.5589    3.4638 S   0  0  0  0  0  0  0  0  0  0  0  0
    3.6941   -2.1791    3.0198 C   0  0  0  0  0  0  0  0  0  0  0  0
    3.9004   -3.0583    1.9527 C   0  0  0  0  0  0  0  0  0  0  0  0
    5.2469   -3.2004    1.5862 C   0  0  0  0  0  0  0  0  0  0  0  0
    5.5997   -3.9582    0.4611 C   0  0  0  0  0  0  0  0  0  0  0  0
    4.5890   -4.5626   -0.3167 C   0  0  0  0  0  0  0  0  0  0  0  0
    4.8849   -5.3105   -1.4666 O   0  0  0  0  0  0  0  0  0  0  0  0
    6.1012   -5.1997   -2.1984 C   0  0  0  0  0  0  0  0  0  0  0  0
    3.2364   -4.3967    0.0353 C   0  0  0  0  0  0  0  0  0  0  0  0
    2.2606   -4.9574   -0.7998 O   0  0  0  0  0  0  0  0  0  0  0  0
    0.8790   -4.6232   -0.7467 C   0  0  0  0  0  0  0  0  0  0  0  0
    2.8931   -3.6498    1.1813 C   0  0  0  0  0  0  0  0  0  0  0  0
    2.4112   -1.5088    3.2806 C   0  0  0  0  0  0  0  0  0  0  0  0
    2.1461   -0.2861    2.6422 C   0  0  0  0  0  0  0  0  0  0  0  0
    3.2177    0.3876    2.0288 O   0  0  0  0  0  0  0  0  0  0  0  0
    3.2147    1.7528    1.6133 C   0  0  0  0  0  0  0  0  0  0  0  0
    0.8245    0.1931    2.5927 C   0  0  0  0  0  0  0  0  0  0  0  0
    0.5167    1.2886    1.8516 F   0  0  0  0  0  0  0  0  0  0  0  0
   -0.2165   -0.5345    3.1958 C   0  0  0  0  0  0  0  0  0  0  0  0
    0.0728   -1.6767    3.9667 C   0  0  0  0  0  0  0  0  0  0  0  0
   -0.9854   -2.2844    4.6674 O   0  0  0  0  0  0  0  0  0  0  0  0
   -0.8790   -3.4145    5.5332 C   0  0  0  0  0  0  0  0  0  0  0  0
    1.3920   -2.1856    3.9687 C   0  0  0  0  0  0  0  0  0  0  0  0
    1.6907   -3.3638    4.5666 F   0  0  0  0  0  0  0  0  0  0  0  0
   -1.6145   -0.2047    2.8359 C   0  0  0  0  0  0  0  0  0  0  0  0
   -2.3461   -1.1006    2.0323 C   0  0  0  0  0  0  0  0  0  0  0  0
   -1.7954   -2.3751    1.7934 O   0  0  0  0  0  0  0  0  0  0  0  0
   -2.4559   -3.4676    1.1637 C   0  0  0  0  0  0  0  0  0  0  0  0
   -3.5556   -0.6730    1.4508 C   0  0  0  0  0  0  0  0  0  0  0  0
   -4.2231   -1.4696    0.5756 F   0  0  0  0  0  0  0  0  0  0  0  0
   -4.0105    0.6421    1.6383 C   0  0  0  0  0  0  0  0  0  0  0  0
   -3.3392    1.4910    2.5498 C   0  0  0  0  0  0  0  0  0  0  0  0
   -3.7977    2.7768    2.8904 O   0  0  0  0  0  0  0  0  0  0  0  0
   -5.1705    3.1716    2.9061 C   0  0  0  0  0  0  0  0  0  0  0  0
   -2.1346    1.0652    3.1214 C   0  0  0  0  0  0  0  0  0  0  0  0
   -1.4463    1.9129    3.9334 F   0  0  0  0  0  0  0  0  0  0  0  0
   -4.9643    1.1840    0.6460 C   0  0  0  0  0  0  0  0  0  0  0  0
   -6.3127    0.7815    0.6410 C   0  0  0  0  0  0  0  0  0  0  0  0
   -6.7716    0.0154    1.7303 O   0  0  0  0  0  0  0  0  0  0  0  0
   -8.1084   -0.4428    1.9261 C   0  0  0  0  0  0  0  0  0  0  0  0
   -7.1353    1.1503   -0.4475 C   0  0  0  0  0  0  0  0  0  0  0  0
   -8.4237    0.7341   -0.5278 F   0  0  0  0  0  0  0  0  0  0  0  0
   -6.6130    1.9119   -1.5032 C   0  0  0  0  0  0  0  0  0  0  0  0
   -5.2772    2.3413   -1.4776 C   0  0  0  0  0  0  0  0  0  0  0  0
   -4.8065    3.1074   -2.5598 O   0  0  0  0  0  0  0  0  0  0  0  0
   -3.4392    3.2457   -2.9529 C   0  0  0  0  0  0  0  0  0  0  0  0
   -4.4579    1.9764   -0.3956 C   0  0  0  0  0  0  0  0  0  0  0  0
   -3.1505    2.3456   -0.3569 F   0  0  0  0  0  0  0  0  0  0  0  0
   -7.4063    2.1399   -2.7276 C   0  0  0  0  0  0  0  0  0  0  0  0
   -7.4993    1.1147   -3.6911 C   0  0  0  0  0  0  0  0  0  0  0  0
   -6.9334   -0.1354   -3.3844 O   0  0  0  0  0  0  0  0  0  0  0  0
   -6.4912   -1.0924   -4.3447 C   0  0  0  0  0  0  0  0  0  0  0  0
   -8.1333    1.3849   -4.9244 C   0  0  0  0  0  0  0  0  0  0  0  0
   -8.2874    0.4229   -5.8639 F   0  0  0  0  0  0  0  0  0  0  0  0
   -8.6220    2.6653   -5.1985 C   0  0  0  0  0  0  0  0  0  0  0  0
   -8.4999    3.6962   -4.2494 C   0  0  0  0  0  0  0  0  0  0  0  0
   -8.9364    5.0039   -4.5057 O   0  0  0  0  0  0  0  0  0  0  0  0
   -9.4429    5.4511   -5.7623 C   0  0  0  0  0  0  0  0  0  0  0  0
   -7.9085    3.4211   -3.0099 C   0  0  0  0  0  0  0  0  0  0  0  0
   -7.7714    4.4207   -2.1009 F   0  0  0  0  0  0  0  0  0  0  0  0
   11.0424   -1.6172    1.8861 H   0  0  0  0  0  0  0  0  0  0  0  0
   10.8332   -0.3624   -0.4766 H   0  0  0  0  0  0  0  0  0  0  0  0
   11.1913    1.5120   -1.9993 H   0  0  0  0  0  0  0  0  0  0  0  0
   10.8281    1.4809   -3.7662 H   0  0  0  0  0  0  0  0  0  0  0  0
   11.2976   -0.0507   -2.9327 H   0  0  0  0  0  0  0  0  0  0  0  0
    4.8221    0.6852   -1.4604 H   0  0  0  0  0  0  0  0  0  0  0  0
    4.9481   -0.9374   -2.2752 H   0  0  0  0  0  0  0  0  0  0  0  0
    4.8500    0.5719   -3.2631 H   0  0  0  0  0  0  0  0  0  0  0  0
    5.9132   -1.0373   -0.0600 H   0  0  0  0  0  0  0  0  0  0  0  0
    6.6412   -4.0655    0.1941 H   0  0  0  0  0  0  0  0  0  0  0  0
    6.2393   -4.1479   -2.5367 H   0  0  0  0  0  0  0  0  0  0  0  0
    6.9695   -5.5170   -1.5831 H   0  0  0  0  0  0  0  0  0  0  0  0
    6.0514   -5.8584   -3.0931 H   0  0  0  0  0  0  0  0  0  0  0  0
    0.7477   -3.5220   -0.8370 H   0  0  0  0  0  0  0  0  0  0  0  0
    0.3506   -5.1124   -1.5934 H   0  0  0  0  0  0  0  0  0  0  0  0
    0.4289   -4.9839    0.2016 H   0  0  0  0  0  0  0  0  0  0  0  0
    1.8561   -3.5108    1.4569 H   0  0  0  0  0  0  0  0  0  0  0  0
    4.2577    2.0613    1.3873 H   0  0  0  0  0  0  0  0  0  0  0  0
    2.6173    1.8626    0.6815 H   0  0  0  0  0  0  0  0  0  0  0  0
    2.8120    2.4019    2.4200 H   0  0  0  0  0  0  0  0  0  0  0  0
   -1.8397   -3.5446    6.0721 H   0  0  0  0  0  0  0  0  0  0  0  0
   -0.0763   -3.2655    6.2834 H   0  0  0  0  0  0  0  0  0  0  0  0
   -0.6942   -4.3297    4.9304 H   0  0  0  0  0  0  0  0  0  0  0  0
   -1.8080   -4.3688    1.2458 H   0  0  0  0  0  0  0  0  0  0  0  0
   -3.4180   -3.6834    1.6808 H   0  0  0  0  0  0  0  0  0  0  0  0
   -2.6179   -3.2547    0.0880 H   0  0  0  0  0  0  0  0  0  0  0  0
   -5.8121    2.3308    3.2408 H   0  0  0  0  0  0  0  0  0  0  0  0
   -5.2916    4.0126    3.6152 H   0  0  0  0  0  0  0  0  0  0  0  0
   -5.4757    3.5209    1.8975 H   0  0  0  0  0  0  0  0  0  0  0  0
   -8.8242    0.4088    1.9065 H   0  0  0  0  0  0  0  0  0  0  0  0
   -8.1750   -0.9312    2.9224 H   0  0  0  0  0  0  0  0  0  0  0  0
   -8.3689   -1.1982    1.1552 H   0  0  0  0  0  0  0  0  0  0  0  0
   -2.9697    2.2395   -3.0592 H   0  0  0  0  0  0  0  0  0  0  0  0
   -2.8851    3.8648   -2.2168 H   0  0  0  0  0  0  0  0  0  0  0  0
   -3.4047    3.7561   -3.9384 H   0  0  0  0  0  0  0  0  0  0  0  0
   -5.8421   -0.6002   -5.1022 H   0  0  0  0  0  0  0  0  0  0  0  0
   -7.3590   -1.5849   -4.8329 H   0  0  0  0  0  0  0  0  0  0  0  0
   -5.8941   -1.8630   -3.8215 H   0  0  0  0  0  0  0  0  0  0  0  0
   -9.0869    2.8480   -6.1595 H   0  0  0  0  0  0  0  0  0  0  0  0
  -10.3814    4.9096   -6.0111 H   0  0  0  0  0  0  0  0  0  0  0  0
   -9.6658    6.5363   -5.6994 H   0  0  0  0  0  0  0  0  0  0  0  0
   -8.6865    5.2886   -6.5589 H   0  0  0  0  0  0  0  0  0  0  0  0
  1  2  1  0
  2  3  1  0
  3  4  2  0
  4  5  1  0
  5  6  1  0
  6  7  2  0
  7  8  1  0
  8  9  1  0
  7 10  1  0
 10 11  1  0
 11 12  1  0
 10 13  2  0
  3 14  1  0
 14 15  1  0
 15 16  1  0
 16 17  2  0
 17 18  1  0
 18 19  1  0
 19 20  2  0
 20 21  1  0
 21 22  1  0
 20 23  1  0
 23 24  1  0
 24 25  1  0
 23 26  2  0
 16 27  1  0
 27 28  2  0
 28 29  1  0
 29 30  1  0
 28 31  1  0
 31 32  1  0
 31 33  2  0
 33 34  1  0
 34 35  1  0
 35 36  1  0
 34 37  2  0
 37 38  1  0
 33 39  1  0
 39 40  2  0
 40 41  1  0
 41 42  1  0
 40 43  1  0
 43 44  1  0
 43 45  2  0
 45 46  1  0
 46 47  1  0
 47 48  1  0
 46 49  2  0
 49 50  1  0
 45 51  1  0
 51 52  2  0
 52 53  1  0
 53 54  1  0
 52 55  1  0
 55 56  1  0
 55 57  2  0
 57 58  1  0
 58 59  1  0
 59 60  1  0
 58 61  2  0
 61 62  1  0
 57 63  1  0
 63 64  2  0
 64 65  1  0
 65 66  1  0
 64 67  1  0
 67 68  1  0
 67 69  2  0
 69 70  1  0
 70 71  1  0
 71 72  1  0
 70 73  2  0
 73 74  1  0
  5  1  2  0
 18 14  2  0
 37 27  1  0
 49 39  1  0
 61 51  1  0
 73 63  1  0
 13  4  1  0
 26 17  1  0
  1 75  1  0
  6 76  1  0
  9 77  1  0
  9 78  1  0
  9 79  1  0
 12 80  1  0
 12 81  1  0
 12 82  1  0
 13 83  1  0
 19 84  1  0
 22 85  1  0
 22 86  1  0
 22 87  1  0
 25 88  1  0
 25 89  1  0
 25 90  1  0
 26 91  1  0
 30 92  1  0
 30 93  1  0
 30 94  1  0
 36 95  1  0
 36 96  1  0
 36 97  1  0
 42 98  1  0
 42 99  1  0
 42100  1  0
 48101  1  0
 48102  1  0
 48103  1  0
 54104  1  0
 54105  1  0
 54106  1  0
 60107  1  0
 60108  1  0
 60109  1  0
 66110  1  0
 66111  1  0
 66112  1  0
 69113  1  0
 72114  1  0
 72115  1  0
 72116  1  0
M  END

