
     RDKit          3D

212235  0  0  0  0  0  0  0  0999 V2000
    0.4350   -4.3685    8.9705 C   0  0  0  0  0  0  0  0  0  0  0  0
    0.0007   -3.0705    8.7132 C   0  0  0  0  0  0  0  0  0  0  0  0
   -1.1270   -3.0190    7.8818 C   0  0  0  0  0  0  0  0  0  0  0  0
   -1.7794   -1.8580    7.4317 C   0  0  0  0  0  0  0  0  0  0  0  0
   -1.3563   -0.5071    7.8413 C   0  0  0  0  0  0  0  0  0  0  0  0
   -0.7885    0.6737    6.7867 S   0  0  0  0  0  0  0  0  0  0  0  0
   -0.7131    1.9108    7.9240 C   0  0  0  0  0  0  0  0  0  0  0  0
   -0.3715    3.3369    7.5964 C   0  0  0  0  0  0  0  0  0  0  0  0
   -1.5949    4.0729    7.0594 C   0  0  0  0  0  0  0  0  0  0  0  0
   -1.1618    1.4203    9.1498 C   0  0  0  0  0  0  0  0  0  0  0  0
   -1.3485    2.4119   10.5871 Cl  0  0  0  0  0  0  0  0  0  0  0  0
   -1.5207    0.0628    9.1028 C   0  0  0  0  0  0  0  0  0  0  0  0
   -2.2213   -0.8001   10.4628 Cl  0  0  0  0  0  0  0  0  0  0  0  0
   -2.8612   -2.0388    6.5553 C   0  0  0  0  0  0  0  0  0  0  0  0
   -3.2996   -3.2962    6.1289 C   0  0  0  0  0  0  0  0  0  0  0  0
   -2.6698   -4.4625    6.6163 C   0  0  0  0  0  0  0  0  0  0  0  0
   -3.1720   -5.8170    6.3238 C   0  0  0  0  0  0  0  0  0  0  0  0
   -3.0355   -6.6158    4.8463 S   0  0  0  0  0  0  0  0  0  0  0  0
   -3.6360   -8.0939    5.3895 C   0  0  0  0  0  0  0  0  0  0  0  0
   -3.7547   -9.3360    4.5555 C   0  0  0  0  0  0  0  0  0  0  0  0
   -5.1891   -9.5474    4.0853 C   0  0  0  0  0  0  0  0  0  0  0  0
   -3.9615   -7.9738    6.7397 C   0  0  0  0  0  0  0  0  0  0  0  0
   -3.6897   -6.7038    7.2665 C   0  0  0  0  0  0  0  0  0  0  0  0
   -3.9819   -6.2713    8.9491 Cl  0  0  0  0  0  0  0  0  0  0  0  0
   -4.6199   -9.2898    7.7020 Cl  0  0  0  0  0  0  0  0  0  0  0  0
   -1.5732   -4.2803    7.4840 C   0  0  0  0  0  0  0  0  0  0  0  0
   -0.5769   -5.4536    8.1649 S   0  0  0  0  0  0  0  0  0  0  0  0
   -4.3756   -3.2253    5.2154 C   0  0  0  0  0  0  0  0  0  0  0  0
   -4.7791   -1.9119    4.9529 C   0  0  0  0  0  0  0  0  0  0  0  0
   -3.8131   -0.8568    5.8486 S   0  0  0  0  0  0  0  0  0  0  0  0
   -5.7024   -1.4596    3.8984 C   0  0  0  0  0  0  0  0  0  0  0  0
   -6.0455   -0.1227    3.6968 C   0  0  0  0  0  0  0  0  0  0  0  0
   -6.5596    0.1287    2.4176 C   0  0  0  0  0  0  0  0  0  0  0  0
   -6.8355    1.3979    1.8680 C   0  0  0  0  0  0  0  0  0  0  0  0
   -6.7897    2.6267    2.6773 C   0  0  0  0  0  0  0  0  0  0  0  0
   -5.4093    3.3167    3.3489 S   0  0  0  0  0  0  0  0  0  0  0  0
   -6.1951    4.6051    4.0908 C   0  0  0  0  0  0  0  0  0  0  0  0
   -5.5232    5.6333    4.9551 C   0  0  0  0  0  0  0  0  0  0  0  0
   -5.7096    5.3102    6.4338 C   0  0  0  0  0  0  0  0  0  0  0  0
   -7.5613    4.4999    3.8369 C   0  0  0  0  0  0  0  0  0  0  0  0
   -8.7577    5.6106    4.4810 Cl  0  0  0  0  0  0  0  0  0  0  0  0
   -7.8930    3.3983    3.0336 C   0  0  0  0  0  0  0  0  0  0  0  0
   -9.5415    2.9860    2.5855 Cl  0  0  0  0  0  0  0  0  0  0  0  0
   -7.0958    1.4486    0.4907 C   0  0  0  0  0  0  0  0  0  0  0  0
   -7.1437    0.3044   -0.3109 C   0  0  0  0  0  0  0  0  0  0  0  0
   -7.0034   -0.9736    0.2679 C   0  0  0  0  0  0  0  0  0  0  0  0
   -7.2061   -2.2089   -0.5017 C   0  0  0  0  0  0  0  0  0  0  0  0
   -6.1688   -2.8340   -1.6699 S   0  0  0  0  0  0  0  0  0  0  0  0
   -7.1279   -4.1707   -2.0526 C   0  0  0  0  0  0  0  0  0  0  0  0
   -6.7877   -5.2108   -3.0787 C   0  0  0  0  0  0  0  0  0  0  0  0
   -6.2605   -6.4858   -2.4321 C   0  0  0  0  0  0  0  0  0  0  0  0
   -8.2709   -4.1461   -1.2562 C   0  0  0  0  0  0  0  0  0  0  0  0
   -8.3148   -3.0446   -0.3891 C   0  0  0  0  0  0  0  0  0  0  0  0
   -9.6567   -2.7193    0.6942 Cl  0  0  0  0  0  0  0  0  0  0  0  0
   -9.5567   -5.3344   -1.3702 Cl  0  0  0  0  0  0  0  0  0  0  0  0
   -6.6679   -1.0218    1.6334 C   0  0  0  0  0  0  0  0  0  0  0  0
   -6.1115   -2.3466    2.5211 S   0  0  0  0  0  0  0  0  0  0  0  0
   -7.1776    0.5958   -1.6871 C   0  0  0  0  0  0  0  0  0  0  0  0
   -7.0933    1.9702   -1.9605 C   0  0  0  0  0  0  0  0  0  0  0  0
   -7.0881    2.8086   -0.4874 S   0  0  0  0  0  0  0  0  0  0  0  0
   -6.5164    2.5451   -3.1965 C   0  0  0  0  0  0  0  0  0  0  0  0
   -5.8975    1.7731   -4.1906 C   0  0  0  0  0  0  0  0  0  0  0  0
   -4.8766    2.4596   -4.8648 C   0  0  0  0  0  0  0  0  0  0  0  0
   -3.9308    1.8744   -5.7239 C   0  0  0  0  0  0  0  0  0  0  0  0
   -4.0694    0.5080   -6.2434 C   0  0  0  0  0  0  0  0  0  0  0  0
   -3.7246   -0.8938   -5.3846 S   0  0  0  0  0  0  0  0  0  0  0  0
   -3.8804   -1.9376   -6.6986 C   0  0  0  0  0  0  0  0  0  0  0  0
   -3.7539   -3.4301   -6.6204 C   0  0  0  0  0  0  0  0  0  0  0  0
   -5.1297   -4.0827   -6.5130 C   0  0  0  0  0  0  0  0  0  0  0  0
   -4.1982   -1.1912   -7.8303 C   0  0  0  0  0  0  0  0  0  0  0  0
   -4.3810   -1.8898   -9.4351 Cl  0  0  0  0  0  0  0  0  0  0  0  0
   -4.2951    0.1817   -7.5769 C   0  0  0  0  0  0  0  0  0  0  0  0
   -4.6781    1.3788   -8.8069 Cl  0  0  0  0  0  0  0  0  0  0  0  0
   -2.7641    2.6019   -5.9715 C   0  0  0  0  0  0  0  0  0  0  0  0
   -2.5607    3.8982   -5.4863 C   0  0  0  0  0  0  0  0  0  0  0  0
   -3.6079    4.5666   -4.8061 C   0  0  0  0  0  0  0  0  0  0  0  0
   -3.5638    6.0105   -4.4814 C   0  0  0  0  0  0  0  0  0  0  0  0
   -2.3330    6.8241   -3.6654 S   0  0  0  0  0  0  0  0  0  0  0  0
   -2.9035    8.3798   -3.9532 C   0  0  0  0  0  0  0  0  0  0  0  0
   -2.2052    9.6397   -3.5241 C   0  0  0  0  0  0  0  0  0  0  0  0
   -2.4366    9.9178   -2.0430 C   0  0  0  0  0  0  0  0  0  0  0  0
   -4.0942    8.2822   -4.6692 C   0  0  0  0  0  0  0  0  0  0  0  0
   -4.4696    6.9600   -4.9544 C   0  0  0  0  0  0  0  0  0  0  0  0
   -5.8836    6.5511   -5.9159 Cl  0  0  0  0  0  0  0  0  0  0  0  0
   -5.0275    9.6704   -5.2128 Cl  0  0  0  0  0  0  0  0  0  0  0  0
   -4.7311    3.7877   -4.4649 C   0  0  0  0  0  0  0  0  0  0  0  0
   -5.8558    4.1083   -3.2611 S   0  0  0  0  0  0  0  0  0  0  0  0
   -1.2243    4.3229   -5.6121 C   0  0  0  0  0  0  0  0  0  0  0  0
   -0.3698    3.3354   -6.1156 C   0  0  0  0  0  0  0  0  0  0  0  0
   -1.3049    1.9877   -6.5095 S   0  0  0  0  0  0  0  0  0  0  0  0
    1.0522    3.1746   -5.7359 C   0  0  0  0  0  0  0  0  0  0  0  0
    1.6554    1.6908   -5.2515 S   0  0  0  0  0  0  0  0  0  0  0  0
    3.1367    2.1885   -4.6472 C   0  0  0  0  0  0  0  0  0  0  0  0
    3.2041    3.5779   -4.8551 C   0  0  0  0  0  0  0  0  0  0  0  0
    2.0362    4.1237   -5.4443 C   0  0  0  0  0  0  0  0  0  0  0  0
    1.9534    5.4936   -5.7068 C   0  0  0  0  0  0  0  0  0  0  0  0
    3.0310    6.3403   -5.3664 C   0  0  0  0  0  0  0  0  0  0  0  0
    2.9798    7.7280   -5.5747 O   0  0  0  0  0  0  0  0  0  0  0  0
    1.8340    8.4327   -6.0469 C   0  0  0  0  0  0  0  0  0  0  0  0
    4.2045    5.7922   -4.8126 C   0  0  0  0  0  0  0  0  0  0  0  0
    5.2631    6.6632   -4.5152 O   0  0  0  0  0  0  0  0  0  0  0  0
    6.5004    6.2650   -3.9288 C   0  0  0  0  0  0  0  0  0  0  0  0
    4.2964    4.4052   -4.5764 C   0  0  0  0  0  0  0  0  0  0  0  0
    4.0372    1.2446   -3.9458 C   0  0  0  0  0  0  0  0  0  0  0  0
    5.0316    1.5148   -2.9874 C   0  0  0  0  0  0  0  0  0  0  0  0
    5.5459    0.3491   -2.3869 C   0  0  0  0  0  0  0  0  0  0  0  0
    6.5480    0.2761   -1.3945 C   0  0  0  0  0  0  0  0  0  0  0  0
    7.2117    1.4736   -0.8590 C   0  0  0  0  0  0  0  0  0  0  0  0
    8.8240    1.8757   -1.1270 S   0  0  0  0  0  0  0  0  0  0  0  0
    8.8749    3.1474   -0.0251 C   0  0  0  0  0  0  0  0  0  0  0  0
   10.0854    3.9954    0.2450 C   0  0  0  0  0  0  0  0  0  0  0  0
   10.0122    5.3053   -0.5311 C   0  0  0  0  0  0  0  0  0  0  0  0
    7.6198    3.2710    0.5695 C   0  0  0  0  0  0  0  0  0  0  0  0
    7.2471    4.4545    1.8181 Cl  0  0  0  0  0  0  0  0  0  0  0  0
    6.6935    2.3239    0.1113 C   0  0  0  0  0  0  0  0  0  0  0  0
    5.0712    2.1552    0.7625 Cl  0  0  0  0  0  0  0  0  0  0  0  0
    6.8556   -1.0020   -0.8863 C   0  0  0  0  0  0  0  0  0  0  0  0
    6.1908   -2.1590   -1.3034 C   0  0  0  0  0  0  0  0  0  0  0  0
    5.2112   -2.0903   -2.3092 C   0  0  0  0  0  0  0  0  0  0  0  0
    4.4675   -3.2765   -2.7624 C   0  0  0  0  0  0  0  0  0  0  0  0
    3.3612   -4.1328   -1.8272 S   0  0  0  0  0  0  0  0  0  0  0  0
    2.9201   -5.2216   -3.0331 C   0  0  0  0  0  0  0  0  0  0  0  0
    1.9606   -6.3565   -2.8382 C   0  0  0  0  0  0  0  0  0  0  0  0
    2.7086   -7.6425   -2.5074 C   0  0  0  0  0  0  0  0  0  0  0  0
    3.6508   -4.9334   -4.1863 C   0  0  0  0  0  0  0  0  0  0  0  0
    4.5093   -3.8353   -4.0373 C   0  0  0  0  0  0  0  0  0  0  0  0
    5.5716   -3.2508   -5.3120 Cl  0  0  0  0  0  0  0  0  0  0  0  0
    3.5183   -5.8606   -5.6752 Cl  0  0  0  0  0  0  0  0  0  0  0  0
    4.9331   -0.8228   -2.8400 C   0  0  0  0  0  0  0  0  0  0  0  0
    3.7928   -0.4287   -3.9957 S   0  0  0  0  0  0  0  0  0  0  0  0
    6.6000   -3.3147   -0.6185 C   0  0  0  0  0  0  0  0  0  0  0  0
    7.6027   -3.0720    0.3199 C   0  0  0  0  0  0  0  0  0  0  0  0
    7.9443   -1.4166    0.3260 S   0  0  0  0  0  0  0  0  0  0  0  0
    8.2131   -4.0467    1.2517 C   0  0  0  0  0  0  0  0  0  0  0  0
    8.8521   -3.6145    2.7536 S   0  0  0  0  0  0  0  0  0  0  0  0
    9.2810   -5.1527    3.2697 C   0  0  0  0  0  0  0  0  0  0  0  0
    8.9369   -6.0416    2.2570 C   0  0  0  0  0  0  0  0  0  0  0  0
    8.3533   -5.4372    1.1265 C   0  0  0  0  0  0  0  0  0  0  0  0
    8.0170   -6.2258    0.0184 C   0  0  0  0  0  0  0  0  0  0  0  0
    8.1948   -7.6261    0.0729 C   0  0  0  0  0  0  0  0  0  0  0  0
    7.7945   -8.4662   -0.9790 O   0  0  0  0  0  0  0  0  0  0  0  0
    7.0988   -8.0280   -2.1412 C   0  0  0  0  0  0  0  0  0  0  0  0
    8.7830   -8.2182    1.2086 C   0  0  0  0  0  0  0  0  0  0  0  0
    8.9898   -9.6080    1.1996 O   0  0  0  0  0  0  0  0  0  0  0  0
    9.6096  -10.3431    2.2499 C   0  0  0  0  0  0  0  0  0  0  0  0
    9.1559   -7.4182    2.3085 C   0  0  0  0  0  0  0  0  0  0  0  0
    1.2931   -4.6348    9.5781 H   0  0  0  0  0  0  0  0  0  0  0  0
    0.5068   -2.1959    9.1054 H   0  0  0  0  0  0  0  0  0  0  0  0
    0.4317    3.3527    6.8292 H   0  0  0  0  0  0  0  0  0  0  0  0
    0.0108    3.8581    8.4972 H   0  0  0  0  0  0  0  0  0  0  0  0
   -2.0135    3.5393    6.1762 H   0  0  0  0  0  0  0  0  0  0  0  0
   -2.3762    4.1405    7.8485 H   0  0  0  0  0  0  0  0  0  0  0  0
   -1.3065    5.1009    6.7523 H   0  0  0  0  0  0  0  0  0  0  0  0
   -3.0849   -9.2573    3.6757 H   0  0  0  0  0  0  0  0  0  0  0  0
   -3.4287  -10.2152    5.1509 H   0  0  0  0  0  0  0  0  0  0  0  0
   -5.8744   -9.6495    4.9537 H   0  0  0  0  0  0  0  0  0  0  0  0
   -5.2435  -10.4759    3.4834 H   0  0  0  0  0  0  0  0  0  0  0  0
   -5.5177   -8.6913    3.4561 H   0  0  0  0  0  0  0  0  0  0  0  0
   -4.8115   -4.0878    4.7367 H   0  0  0  0  0  0  0  0  0  0  0  0
   -5.8268    0.6626    4.4123 H   0  0  0  0  0  0  0  0  0  0  0  0
   -4.4341    5.6584    4.7274 H   0  0  0  0  0  0  0  0  0  0  0  0
   -5.9427    6.6357    4.7314 H   0  0  0  0  0  0  0  0  0  0  0  0
   -6.7877    5.3288    6.7056 H   0  0  0  0  0  0  0  0  0  0  0  0
   -5.2893    4.3086    6.6699 H   0  0  0  0  0  0  0  0  0  0  0  0
   -5.1831    6.0728    7.0467 H   0  0  0  0  0  0  0  0  0  0  0  0
   -6.0085   -4.8134   -3.7590 H   0  0  0  0  0  0  0  0  0  0  0  0
   -7.6915   -5.4442   -3.6818 H   0  0  0  0  0  0  0  0  0  0  0  0
   -5.3133   -6.2760   -1.8915 H   0  0  0  0  0  0  0  0  0  0  0  0
   -6.0589   -7.2388   -3.2209 H   0  0  0  0  0  0  0  0  0  0  0  0
   -7.0073   -6.9086   -1.7279 H   0  0  0  0  0  0  0  0  0  0  0  0
   -7.1140   -0.1718   -2.4458 H   0  0  0  0  0  0  0  0  0  0  0  0
   -6.0489    0.7084   -4.2924 H   0  0  0  0  0  0  0  0  0  0  0  0
   -3.2235   -3.8132   -7.5200 H   0  0  0  0  0  0  0  0  0  0  0  0
   -3.1423   -3.6978   -5.7322 H   0  0  0  0  0  0  0  0  0  0  0  0
   -5.0148   -5.1669   -6.2972 H   0  0  0  0  0  0  0  0  0  0  0  0
   -5.7096   -3.6141   -5.6943 H   0  0  0  0  0  0  0  0  0  0  0  0
   -5.6870   -3.9622   -7.4639 H   0  0  0  0  0  0  0  0  0  0  0  0
   -1.1151    9.5332   -3.7077 H   0  0  0  0  0  0  0  0  0  0  0  0
   -2.5632   10.5044   -4.1240 H   0  0  0  0  0  0  0  0  0  0  0  0
   -3.5196   10.0686   -1.8445 H   0  0  0  0  0  0  0  0  0  0  0  0
   -2.0571    9.0784   -1.4239 H   0  0  0  0  0  0  0  0  0  0  0  0
   -1.8919   10.8465   -1.7641 H   0  0  0  0  0  0  0  0  0  0  0  0
   -0.8626    5.2555   -5.2365 H   0  0  0  0  0  0  0  0  0  0  0  0
    1.0803    5.8899   -6.1956 H   0  0  0  0  0  0  0  0  0  0  0  0
    0.9704    8.2643   -5.3639 H   0  0  0  0  0  0  0  0  0  0  0  0
    1.5820    8.0979   -7.0771 H   0  0  0  0  0  0  0  0  0  0  0  0
    2.0581    9.5166   -6.0705 H   0  0  0  0  0  0  0  0  0  0  0  0
    7.1309    7.1642   -3.7768 H   0  0  0  0  0  0  0  0  0  0  0  0
    6.3191    5.7911   -2.9407 H   0  0  0  0  0  0  0  0  0  0  0  0
    7.0344    5.5654   -4.6026 H   0  0  0  0  0  0  0  0  0  0  0  0
    5.2196    3.9896   -4.2172 H   0  0  0  0  0  0  0  0  0  0  0  0
    5.3221    2.5036   -2.6691 H   0  0  0  0  0  0  0  0  0  0  0  0
   10.1660    4.2097    1.3328 H   0  0  0  0  0  0  0  0  0  0  0  0
   11.0009    3.4406   -0.0554 H   0  0  0  0  0  0  0  0  0  0  0  0
    9.1196    5.8919   -0.2241 H   0  0  0  0  0  0  0  0  0  0  0  0
   10.9246    5.9107   -0.3309 H   0  0  0  0  0  0  0  0  0  0  0  0
    9.9561    5.0953   -1.6197 H   0  0  0  0  0  0  0  0  0  0  0  0
    1.2651   -6.1152   -2.0054 H   0  0  0  0  0  0  0  0  0  0  0  0
    1.3553   -6.5064   -3.7555 H   0  0  0  0  0  0  0  0  0  0  0  0
    3.3878   -7.4883   -1.6389 H   0  0  0  0  0  0  0  0  0  0  0  0
    1.9819   -8.4419   -2.2607 H   0  0  0  0  0  0  0  0  0  0  0  0
    3.3137   -7.9689   -3.3807 H   0  0  0  0  0  0  0  0  0  0  0  0
    6.1178   -4.2706   -0.7540 H   0  0  0  0  0  0  0  0  0  0  0  0
    9.7400   -5.4010    4.2187 H   0  0  0  0  0  0  0  0  0  0  0  0
    7.6611   -5.7747   -0.8880 H   0  0  0  0  0  0  0  0  0  0  0  0
    7.7508   -7.3637   -2.7468 H   0  0  0  0  0  0  0  0  0  0  0  0
    6.8195   -8.9110   -2.7530 H   0  0  0  0  0  0  0  0  0  0  0  0
    6.1727   -7.4867   -1.8490 H   0  0  0  0  0  0  0  0  0  0  0  0
    9.6615  -11.4142    1.9584 H   0  0  0  0  0  0  0  0  0  0  0  0
   10.6422   -9.9710    2.4142 H   0  0  0  0  0  0  0  0  0  0  0  0
    9.0180  -10.2501    3.1837 H   0  0  0  0  0  0  0  0  0  0  0  0
    9.6025   -7.8526    3.1939 H   0  0  0  0  0  0  0  0  0  0  0  0
  1  2  2  0
  2  3  1  0
  3  4  2  0
  4  5  1  0
  5  6  1  0
  6  7  1  0
  7  8  1  0
  8  9  1  0
  7 10  2  0
 10 11  1  0
 10 12  1  0
 12 13  1  0
  4 14  1  0
 14 15  2  0
 15 16  1  0
 16 17  1  0
 17 18  1  0
 18 19  1  0
 19 20  1  0
 20 21  1  0
 19 22  2  0
 22 23  1  0
 23 24  1  0
 22 25  1  0
 16 26  2  0
 26 27  1  0
 15 28  1  0
 28 29  2  0
 29 30  1  0
 29 31  1  0
 31 32  2  0
 32 33  1  0
 33 34  2  0
 34 35  1  0
 35 36  1  0
 36 37  1  0
 37 38  1  0
 38 39  1  0
 37 40  2  0
 40 41  1  0
 40 42  1  0
 42 43  1  0
 34 44  1  0
 44 45  2  0
 45 46  1  0
 46 47  1  0
 47 48  1  0
 48 49  1  0
 49 50  1  0
 50 51  1  0
 49 52  2  0
 52 53  1  0
 53 54  1  0
 52 55  1  0
 46 56  2  0
 56 57  1  0
 45 58  1  0
 58 59  2  0
 59 60  1  0
 59 61  1  0
 61 62  2  0
 62 63  1  0
 63 64  2  0
 64 65  1  0
 65 66  1  0
 66 67  1  0
 67 68  1  0
 68 69  1  0
 67 70  2  0
 70 71  1  0
 70 72  1  0
 72 73  1  0
 64 74  1  0
 74 75  2  0
 75 76  1  0
 76 77  1  0
 77 78  1  0
 78 79  1  0
 79 80  1  0
 80 81  1  0
 79 82  2  0
 82 83  1  0
 83 84  1  0
 82 85  1  0
 76 86  2  0
 86 87  1  0
 75 88  1  0
 88 89  2  0
 89 90  1  0
 89 91  1  0
 91 92  1  0
 92 93  1  0
 93 94  2  0
 94 95  1  0
 95 96  1  0
 96 97  2  0
 97 98  1  0
 98 99  1  0
 97100  1  0
100101  1  0
101102  1  0
100103  2  0
 93104  1  0
104105  2  0
105106  1  0
106107  2  0
107108  1  0
108109  1  0
109110  1  0
110111  1  0
111112  1  0
110113  2  0
113114  1  0
113115  1  0
115116  1  0
107117  1  0
117118  2  0
118119  1  0
119120  1  0
120121  1  0
121122  1  0
122123  1  0
123124  1  0
122125  2  0
125126  1  0
126127  1  0
125128  1  0
119129  2  0
129130  1  0
118131  1  0
131132  2  0
132133  1  0
132134  1  0
134135  1  0
135136  1  0
136137  2  0
137138  1  0
138139  1  0
139140  2  0
140141  1  0
141142  1  0
140143  1  0
143144  1  0
144145  1  0
143146  2  0
 27  1  1  0
 57 31  1  0
 87 61  1  0
 95 91  2  0
130104  1  0
138134  2  0
 26  3  1  0
 56 33  1  0
 86 63  1  0
103 94  1  0
129106  1  0
146137  1  0
 12  5  2  0
 30 14  1  0
 42 35  2  0
 60 44  1  0
 72 65  2  0
 90 74  1  0
115108  2  0
133117  1  0
 23 17  2  0
 53 47  2  0
 83 77  2  0
126120  2  0
  1147  1  0
  2148  1  0
  8149  1  0
  8150  1  0
  9151  1  0
  9152  1  0
  9153  1  0
 20154  1  0
 20155  1  0
 21156  1  0
 21157  1  0
 21158  1  0
 28159  1  0
 32160  1  0
 38161  1  0
 38162  1  0
 39163  1  0
 39164  1  0
 39165  1  0
 50166  1  0
 50167  1  0
 51168  1  0
 51169  1  0
 51170  1  0
 58171  1  0
 62172  1  0
 68173  1  0
 68174  1  0
 69175  1  0
 69176  1  0
 69177  1  0
 80178  1  0
 80179  1  0
 81180  1  0
 81181  1  0
 81182  1  0
 88183  1  0
 96184  1  0
 99185  1  0
 99186  1  0
 99187  1  0
102188  1  0
102189  1  0
102190  1  0
103191  1  0
105192  1  0
111193  1  0
111194  1  0
112195  1  0
112196  1  0
112197  1  0
123198  1  0
123199  1  0
124200  1  0
124201  1  0
124202  1  0
131203  1  0
136204  1  0
139205  1  0
142206  1  0
142207  1  0
142208  1  0
145209  1  0
145210  1  0
145211  1  0
146212  1  0
M  END

