
     RDKit          3D

113124  0  0  0  0  0  0  0  0999 V2000
    2.5408    2.5285    2.6232 C   0  0  0  0  0  0  0  0  0  0  0  0
    1.9708    1.5935    1.3381 S   0  0  0  0  0  0  0  0  0  0  0  0
    3.0035    2.1922    0.1383 C   0  0  0  0  0  0  0  0  0  0  0  0
    3.7999    3.1489    0.7647 C   0  0  0  0  0  0  0  0  0  0  0  0
    3.5492    3.3140    2.0969 C   0  0  0  0  0  0  0  0  0  0  0  0
    4.4268    4.3162    2.7324 C   0  0  0  0  0  0  0  0  0  0  0  0
    5.3921    4.7140    1.5924 C   0  0  0  0  0  0  0  0  0  0  0  0
    4.9008    4.0268    0.2964 C   0  0  0  0  0  0  0  0  0  0  0  0
    3.0127    1.7030   -1.2520 C   0  0  0  0  0  0  0  0  0  0  0  0
    3.6261    2.3199   -2.2689 C   0  0  0  0  0  0  0  0  0  0  0  0
    3.4659    1.8611   -3.6610 C   0  0  0  0  0  0  0  0  0  0  0  0
    2.7182    0.4309   -4.1741 S   0  0  0  0  0  0  0  0  0  0  0  0
    2.6210    0.8091   -5.8232 C   0  0  0  0  0  0  0  0  0  0  0  0
    3.2700    2.0245   -5.9726 C   0  0  0  0  0  0  0  0  0  0  0  0
    3.7124    2.5984   -4.8156 C   0  0  0  0  0  0  0  0  0  0  0  0
    4.2990    3.9383   -5.0318 C   0  0  0  0  0  0  0  0  0  0  0  0
    4.2166    4.1192   -6.5682 C   0  0  0  0  0  0  0  0  0  0  0  0
    3.5126    2.8748   -7.1582 C   0  0  0  0  0  0  0  0  0  0  0  0
    1.9697    0.0294   -6.8956 C   0  0  0  0  0  0  0  0  0  0  0  0
    0.8882   -0.7513   -6.7361 C   0  0  0  0  0  0  0  0  0  0  0  0
    0.0857   -0.8450   -5.5019 C   0  0  0  0  0  0  0  0  0  0  0  0
   -0.4668    0.4296   -4.5286 S   0  0  0  0  0  0  0  0  0  0  0  0
   -1.1393   -0.5288   -3.3015 C   0  0  0  0  0  0  0  0  0  0  0  0
   -0.9803   -1.8445   -3.7027 C   0  0  0  0  0  0  0  0  0  0  0  0
   -0.3349   -2.0133   -4.8899 C   0  0  0  0  0  0  0  0  0  0  0  0
   -0.1069   -3.4336   -5.2154 C   0  0  0  0  0  0  0  0  0  0  0  0
   -0.8100   -4.1789   -4.0547 C   0  0  0  0  0  0  0  0  0  0  0  0
   -1.2889   -3.1222   -3.0331 C   0  0  0  0  0  0  0  0  0  0  0  0
   -1.6151   -0.0885   -1.9800 C   0  0  0  0  0  0  0  0  0  0  0  0
   -1.5275    1.1830   -1.5755 C   0  0  0  0  0  0  0  0  0  0  0  0
   -1.9298    1.5947   -0.2232 C   0  0  0  0  0  0  0  0  0  0  0  0
   -2.3703    0.5917    1.0675 S   0  0  0  0  0  0  0  0  0  0  0  0
   -2.6468    1.8104    2.2141 C   0  0  0  0  0  0  0  0  0  0  0  0
   -2.3722    3.0070    1.5622 C   0  0  0  0  0  0  0  0  0  0  0  0
   -1.9839    2.8917    0.2614 C   0  0  0  0  0  0  0  0  0  0  0  0
   -1.7000    4.1951   -0.3691 C   0  0  0  0  0  0  0  0  0  0  0  0
   -1.9993    5.2072    0.7634 C   0  0  0  0  0  0  0  0  0  0  0  0
   -2.4436    4.4116    2.0121 C   0  0  0  0  0  0  0  0  0  0  0  0
   -3.0956    1.6920    3.6190 C   0  0  0  0  0  0  0  0  0  0  0  0
   -3.2488    0.5619    4.3244 C   0  0  0  0  0  0  0  0  0  0  0  0
   -2.9999   -0.7967    3.8261 C   0  0  0  0  0  0  0  0  0  0  0  0
   -1.7817   -1.7921    4.3946 S   0  0  0  0  0  0  0  0  0  0  0  0
   -2.1977   -3.1901    3.5479 C   0  0  0  0  0  0  0  0  0  0  0  0
   -3.3557   -2.8795    2.7986 C   0  0  0  0  0  0  0  0  0  0  0  0
   -3.8080   -1.5560    2.9849 C   0  0  0  0  0  0  0  0  0  0  0  0
   -4.9725   -1.0992    2.3633 C   0  0  0  0  0  0  0  0  0  0  0  0
   -5.6861   -1.9551    1.5044 C   0  0  0  0  0  0  0  0  0  0  0  0
   -6.8529   -1.5349    0.8475 O   0  0  0  0  0  0  0  0  0  0  0  0
   -7.4260   -0.2359    0.9659 C   0  0  0  0  0  0  0  0  0  0  0  0
   -5.2279   -3.2671    1.2792 C   0  0  0  0  0  0  0  0  0  0  0  0
   -5.9614   -4.0878    0.4026 O   0  0  0  0  0  0  0  0  0  0  0  0
   -5.6357   -5.4342    0.0860 C   0  0  0  0  0  0  0  0  0  0  0  0
   -4.0636   -3.7278    1.9322 C   0  0  0  0  0  0  0  0  0  0  0  0
   -1.4552   -4.4751    3.6763 C   0  0  0  0  0  0  0  0  0  0  0  0
   -1.7882   -5.9484    2.9147 S   0  0  0  0  0  0  0  0  0  0  0  0
   -0.5586   -6.8853    3.5833 C   0  0  0  0  0  0  0  0  0  0  0  0
    0.1387   -6.0251    4.4287 C   0  0  0  0  0  0  0  0  0  0  0  0
   -0.3399   -4.7387    4.4771 C   0  0  0  0  0  0  0  0  0  0  0  0
    0.4505   -3.8789    5.3906 C   0  0  0  0  0  0  0  0  0  0  0  0
    1.5624   -4.8194    5.9055 C   0  0  0  0  0  0  0  0  0  0  0  0
    1.3217   -6.2166    5.2947 C   0  0  0  0  0  0  0  0  0  0  0  0
   -0.3394   -8.3089    3.2593 C   0  0  0  0  0  0  0  0  0  0  0  0
    0.5963   -9.0801    3.8142 C   0  0  0  0  0  0  0  0  0  0  0  0
    2.2010    2.5087    3.6502 H   0  0  0  0  0  0  0  0  0  0  0  0
    3.8225    5.1884    3.0612 H   0  0  0  0  0  0  0  0  0  0  0  0
    4.9748    3.8728    3.5913 H   0  0  0  0  0  0  0  0  0  0  0  0
    5.4122    5.8193    1.4618 H   0  0  0  0  0  0  0  0  0  0  0  0
    6.4204    4.3679    1.8356 H   0  0  0  0  0  0  0  0  0  0  0  0
    5.7082    3.4277   -0.1735 H   0  0  0  0  0  0  0  0  0  0  0  0
    4.5064    4.7839   -0.4147 H   0  0  0  0  0  0  0  0  0  0  0  0
    2.4209    0.8184   -1.4439 H   0  0  0  0  0  0  0  0  0  0  0  0
    4.1693    3.2369   -2.1103 H   0  0  0  0  0  0  0  0  0  0  0  0
    5.3544    3.9591   -4.6782 H   0  0  0  0  0  0  0  0  0  0  0  0
    3.6980    4.7097   -4.5009 H   0  0  0  0  0  0  0  0  0  0  0  0
    5.2373    4.2137   -6.9954 H   0  0  0  0  0  0  0  0  0  0  0  0
    3.6505    5.0426   -6.8144 H   0  0  0  0  0  0  0  0  0  0  0  0
    4.1685    2.3450   -7.8811 H   0  0  0  0  0  0  0  0  0  0  0  0
    2.5520    3.1565   -7.6422 H   0  0  0  0  0  0  0  0  0  0  0  0
    2.4090    0.0851   -7.8843 H   0  0  0  0  0  0  0  0  0  0  0  0
    0.5756   -1.3630   -7.5734 H   0  0  0  0  0  0  0  0  0  0  0  0
    0.9858   -3.6482   -5.2229 H   0  0  0  0  0  0  0  0  0  0  0  0
   -0.5601   -3.6878   -6.1991 H   0  0  0  0  0  0  0  0  0  0  0  0
   -1.6798   -4.7522   -4.4447 H   0  0  0  0  0  0  0  0  0  0  0  0
   -0.1053   -4.8877   -3.5748 H   0  0  0  0  0  0  0  0  0  0  0  0
   -0.7220   -3.2027   -2.0807 H   0  0  0  0  0  0  0  0  0  0  0  0
   -2.3798   -3.2067   -2.8506 H   0  0  0  0  0  0  0  0  0  0  0  0
   -1.9986   -0.8461   -1.3065 H   0  0  0  0  0  0  0  0  0  0  0  0
   -1.1310    1.9415   -2.2370 H   0  0  0  0  0  0  0  0  0  0  0  0
   -0.6325    4.2439   -0.6814 H   0  0  0  0  0  0  0  0  0  0  0  0
   -2.3687    4.3587   -1.2394 H   0  0  0  0  0  0  0  0  0  0  0  0
   -2.8074    5.9012    0.4539 H   0  0  0  0  0  0  0  0  0  0  0  0
   -1.0913    5.8003    0.9950 H   0  0  0  0  0  0  0  0  0  0  0  0
   -1.7498    4.5849    2.8676 H   0  0  0  0  0  0  0  0  0  0  0  0
   -3.4860    4.6623    2.2991 H   0  0  0  0  0  0  0  0  0  0  0  0
   -3.2803    2.6178    4.1469 H   0  0  0  0  0  0  0  0  0  0  0  0
   -3.5087    0.6519    5.3718 H   0  0  0  0  0  0  0  0  0  0  0  0
   -5.3018   -0.0848    2.5274 H   0  0  0  0  0  0  0  0  0  0  0  0
   -7.7155   -0.0392    2.0188 H   0  0  0  0  0  0  0  0  0  0  0  0
   -6.7015    0.5341    0.6284 H   0  0  0  0  0  0  0  0  0  0  0  0
   -8.3310   -0.1784    0.3234 H   0  0  0  0  0  0  0  0  0  0  0  0
   -6.4003   -5.8443   -0.6034 H   0  0  0  0  0  0  0  0  0  0  0  0
   -4.6512   -5.4770   -0.4179 H   0  0  0  0  0  0  0  0  0  0  0  0
   -5.6285   -6.0543    1.0017 H   0  0  0  0  0  0  0  0  0  0  0  0
   -3.7431   -4.7345    1.7630 H   0  0  0  0  0  0  0  0  0  0  0  0
   -0.1847   -3.5220    6.2318 H   0  0  0  0  0  0  0  0  0  0  0  0
    0.8877   -3.0202    4.8359 H   0  0  0  0  0  0  0  0  0  0  0  0
    1.5301   -4.8743    7.0168 H   0  0  0  0  0  0  0  0  0  0  0  0
    2.5591   -4.4347    5.5939 H   0  0  0  0  0  0  0  0  0  0  0  0
    2.1985   -6.5366    4.6946 H   0  0  0  0  0  0  0  0  0  0  0  0
    1.0955   -6.9592    6.0924 H   0  0  0  0  0  0  0  0  0  0  0  0
   -0.9869   -8.7550    2.5186 H   0  0  0  0  0  0  0  0  0  0  0  0
    1.2772   -8.7255    4.5653 H   0  0  0  0  0  0  0  0  0  0  0  0
    0.6868  -10.1149    3.5151 H   0  0  0  0  0  0  0  0  0  0  0  0
  1  2  1  0
  2  3  1  0
  3  4  2  0
  4  5  1  0
  5  6  1  0
  6  7  1  0
  7  8  1  0
  3  9  1  0
  9 10  2  3
 10 11  1  0
 11 12  1  0
 12 13  1  0
 13 14  2  0
 14 15  1  0
 15 16  1  0
 16 17  1  0
 17 18  1  0
 13 19  1  0
 19 20  2  3
 20 21  1  0
 21 22  1  0
 22 23  1  0
 23 24  2  0
 24 25  1  0
 25 26  1  0
 26 27  1  0
 27 28  1  0
 23 29  1  0
 29 30  2  3
 30 31  1  0
 31 32  1  0
 32 33  1  0
 33 34  2  0
 34 35  1  0
 35 36  1  0
 36 37  1  0
 37 38  1  0
 33 39  1  0
 39 40  2  3
 40 41  1  0
 41 42  1  0
 42 43  1  0
 43 44  2  0
 44 45  1  0
 45 46  1  0
 46 47  2  0
 47 48  1  0
 48 49  1  0
 47 50  1  0
 50 51  1  0
 51 52  1  0
 50 53  2  0
 43 54  1  0
 54 55  1  0
 55 56  1  0
 56 57  2  0
 57 58  1  0
 58 59  1  0
 59 60  1  0
 60 61  1  0
 56 62  1  0
 62 63  2  3
  5  1  2  0
 15 11  2  0
 25 21  2  0
 35 31  2  0
 45 41  2  0
 58 54  2  0
  8  4  1  0
 18 14  1  0
 28 24  1  0
 38 34  1  0
 53 44  1  0
 61 57  1  0
  1 64  1  0
  6 65  1  0
  6 66  1  0
  7 67  1  0
  7 68  1  0
  8 69  1  0
  8 70  1  0
  9 71  1  0
 10 72  1  0
 16 73  1  0
 16 74  1  0
 17 75  1  0
 17 76  1  0
 18 77  1  0
 18 78  1  0
 19 79  1  0
 20 80  1  0
 26 81  1  0
 26 82  1  0
 27 83  1  0
 27 84  1  0
 28 85  1  0
 28 86  1  0
 29 87  1  0
 30 88  1  0
 36 89  1  0
 36 90  1  0
 37 91  1  0
 37 92  1  0
 38 93  1  0
 38 94  1  0
 39 95  1  0
 40 96  1  0
 46 97  1  0
 49 98  1  0
 49 99  1  0
 49100  1  0
 52101  1  0
 52102  1  0
 52103  1  0
 53104  1  0
 59105  1  0
 59106  1  0
 60107  1  0
 60108  1  0
 61109  1  0
 61110  1  0
 62111  1  0
 63112  1  0
 63113  1  0
M  END

