
     RDKit          3D

191211  0  0  0  0  0  0  0  0999 V2000
   -5.5093    2.0086   -8.5677 C   0  0  0  0  0  0  0  0  0  0  0  0
   -3.8343    2.0708   -8.7053 S   0  0  0  0  0  0  0  0  0  0  0  0
   -3.5178    0.4401   -8.4060 C   0  0  0  0  0  0  0  0  0  0  0  0
   -4.7550   -0.1802   -8.1738 C   0  0  0  0  0  0  0  0  0  0  0  0
   -5.8489    0.6986   -8.2592 C   0  0  0  0  0  0  0  0  0  0  0  0
   -7.1491    0.2516   -8.0246 C   0  0  0  0  0  0  0  0  0  0  0  0
   -7.3697   -1.1060   -7.7035 C   0  0  0  0  0  0  0  0  0  0  0  0
   -8.6539   -1.6112   -7.4451 O   0  0  0  0  0  0  0  0  0  0  0  0
   -9.8478   -0.8361   -7.4797 C   0  0  0  0  0  0  0  0  0  0  0  0
   -6.2789   -1.9976   -7.6300 C   0  0  0  0  0  0  0  0  0  0  0  0
   -6.5348   -3.3371   -7.2904 O   0  0  0  0  0  0  0  0  0  0  0  0
   -5.5329   -4.3338   -7.1171 C   0  0  0  0  0  0  0  0  0  0  0  0
   -4.9711   -1.5351   -7.8904 C   0  0  0  0  0  0  0  0  0  0  0  0
   -2.1672   -0.1312   -8.1868 C   0  0  0  0  0  0  0  0  0  0  0  0
   -1.8115   -1.2622   -6.9919 S   0  0  0  0  0  0  0  0  0  0  0  0
   -0.1511   -1.3143   -7.2106 C   0  0  0  0  0  0  0  0  0  0  0  0
    0.1718   -0.4225   -8.2315 C   0  0  0  0  0  0  0  0  0  0  0  0
   -0.9481    0.2360   -8.7816 C   0  0  0  0  0  0  0  0  0  0  0  0
   -0.7799    1.1207   -9.8535 C   0  0  0  0  0  0  0  0  0  0  0  0
    0.5151    1.3642  -10.3647 C   0  0  0  0  0  0  0  0  0  0  0  0
    0.7356    2.2324  -11.4474 O   0  0  0  0  0  0  0  0  0  0  0  0
   -0.2913    2.9059  -12.1665 C   0  0  0  0  0  0  0  0  0  0  0  0
    1.6314    0.7194   -9.7955 C   0  0  0  0  0  0  0  0  0  0  0  0
    2.9020    0.9983  -10.3211 O   0  0  0  0  0  0  0  0  0  0  0  0
    4.1177    0.4302   -9.8400 C   0  0  0  0  0  0  0  0  0  0  0  0
    1.4546   -0.1891   -8.7321 C   0  0  0  0  0  0  0  0  0  0  0  0
    0.7456   -2.1512   -6.4067 C   0  0  0  0  0  0  0  0  0  0  0  0
    1.8932   -1.7194   -5.7461 C   0  0  0  0  0  0  0  0  0  0  0  0
    2.3636   -2.6572   -4.8084 C   0  0  0  0  0  0  0  0  0  0  0  0
    3.4283   -2.4745   -3.8996 C   0  0  0  0  0  0  0  0  0  0  0  0
    4.2061   -1.2227   -3.8482 C   0  0  0  0  0  0  0  0  0  0  0  0
    5.8545   -1.1110   -4.1633 S   0  0  0  0  0  0  0  0  0  0  0  0
    5.9788    0.5425   -3.8772 C   0  0  0  0  0  0  0  0  0  0  0  0
    7.2348    1.3409   -4.0571 C   0  0  0  0  0  0  0  0  0  0  0  0
    7.3536    1.8337   -5.4957 C   0  0  0  0  0  0  0  0  0  0  0  0
    4.7187    1.0335   -3.5356 C   0  0  0  0  0  0  0  0  0  0  0  0
    4.4029    2.7226   -3.1656 Cl  0  0  0  0  0  0  0  0  0  0  0  0
    3.7277    0.0396   -3.5039 C   0  0  0  0  0  0  0  0  0  0  0  0
    2.0676    0.3513   -3.0139 Cl  0  0  0  0  0  0  0  0  0  0  0  0
    3.6439   -3.4954   -2.9585 C   0  0  0  0  0  0  0  0  0  0  0  0
    2.8546   -4.6495   -2.9078 C   0  0  0  0  0  0  0  0  0  0  0  0
    1.8263   -4.8588   -3.8470 C   0  0  0  0  0  0  0  0  0  0  0  0
    0.9733   -6.0647   -3.8151 C   0  0  0  0  0  0  0  0  0  0  0  0
   -0.7021   -6.0659   -3.6381 S   0  0  0  0  0  0  0  0  0  0  0  0
   -0.8957   -7.7325   -3.7482 C   0  0  0  0  0  0  0  0  0  0  0  0
   -2.2131   -8.4417   -3.6580 C   0  0  0  0  0  0  0  0  0  0  0  0
   -2.4680   -8.9421   -2.2422 C   0  0  0  0  0  0  0  0  0  0  0  0
    0.3592   -8.3193   -3.9037 C   0  0  0  0  0  0  0  0  0  0  0  0
    1.4073   -7.3844   -3.9452 C   0  0  0  0  0  0  0  0  0  0  0  0
    3.0849   -7.8364   -4.2081 Cl  0  0  0  0  0  0  0  0  0  0  0  0
    0.6069  -10.0541   -4.0541 Cl  0  0  0  0  0  0  0  0  0  0  0  0
    1.5941   -3.8239   -4.7682 C   0  0  0  0  0  0  0  0  0  0  0  0
    0.3294   -3.6874   -5.8609 S   0  0  0  0  0  0  0  0  0  0  0  0
    3.0550   -5.4053   -1.7442 C   0  0  0  0  0  0  0  0  0  0  0  0
    3.9826   -4.8458   -0.8720 C   0  0  0  0  0  0  0  0  0  0  0  0
    4.5766   -3.4219   -1.5596 S   0  0  0  0  0  0  0  0  0  0  0  0
    3.8678   -5.0084    0.5786 C   0  0  0  0  0  0  0  0  0  0  0  0
    2.4173   -4.7506    1.3750 S   0  0  0  0  0  0  0  0  0  0  0  0
    3.0221   -4.6022    2.9345 C   0  0  0  0  0  0  0  0  0  0  0  0
    4.4116   -4.8011    2.8511 C   0  0  0  0  0  0  0  0  0  0  0  0
    4.8806   -4.9794    1.5328 C   0  0  0  0  0  0  0  0  0  0  0  0
    6.2482   -5.1012    1.2668 C   0  0  0  0  0  0  0  0  0  0  0  0
    7.1676   -5.0714    2.3354 C   0  0  0  0  0  0  0  0  0  0  0  0
    8.5541   -5.1796    2.1258 O   0  0  0  0  0  0  0  0  0  0  0  0
    9.1741   -5.2515    0.8471 C   0  0  0  0  0  0  0  0  0  0  0  0
    6.7014   -4.9434    3.6621 C   0  0  0  0  0  0  0  0  0  0  0  0
    7.6474   -4.9303    4.6990 O   0  0  0  0  0  0  0  0  0  0  0  0
    7.3348   -4.7374    6.0762 C   0  0  0  0  0  0  0  0  0  0  0  0
    5.3181   -4.8276    3.9178 C   0  0  0  0  0  0  0  0  0  0  0  0
    2.2283   -3.9434    3.9991 C   0  0  0  0  0  0  0  0  0  0  0  0
    2.7307   -3.1491    5.0358 C   0  0  0  0  0  0  0  0  0  0  0  0
    1.7687   -2.3011    5.6100 C   0  0  0  0  0  0  0  0  0  0  0  0
    2.0244   -1.3137    6.5797 C   0  0  0  0  0  0  0  0  0  0  0  0
    3.3313   -1.2359    7.2563 C   0  0  0  0  0  0  0  0  0  0  0  0
    3.9411   -2.4477    8.2513 S   0  0  0  0  0  0  0  0  0  0  0  0
    5.4419   -1.7315    8.5071 C   0  0  0  0  0  0  0  0  0  0  0  0
    6.5051   -2.2937    9.4004 C   0  0  0  0  0  0  0  0  0  0  0  0
    6.2154   -1.9497   10.8571 C   0  0  0  0  0  0  0  0  0  0  0  0
    5.4829   -0.5232    7.8114 C   0  0  0  0  0  0  0  0  0  0  0  0
    6.8782    0.5471    7.7992 Cl  0  0  0  0  0  0  0  0  0  0  0  0
    4.3060   -0.2517    7.0974 C   0  0  0  0  0  0  0  0  0  0  0  0
    4.1291    1.1337    6.0276 Cl  0  0  0  0  0  0  0  0  0  0  0  0
    0.9967   -0.3907    6.8324 C   0  0  0  0  0  0  0  0  0  0  0  0
   -0.2423   -0.4489    6.1837 C   0  0  0  0  0  0  0  0  0  0  0  0
   -0.5219   -1.4811    5.2657 C   0  0  0  0  0  0  0  0  0  0  0  0
   -1.7828   -1.5147    4.5033 C   0  0  0  0  0  0  0  0  0  0  0  0
   -1.9221   -1.1645    2.8653 S   0  0  0  0  0  0  0  0  0  0  0  0
   -3.5938   -1.3415    2.7849 C   0  0  0  0  0  0  0  0  0  0  0  0
   -4.4042   -1.2046    1.5299 C   0  0  0  0  0  0  0  0  0  0  0  0
   -4.4235   -2.5171    0.7539 C   0  0  0  0  0  0  0  0  0  0  0  0
   -4.0656   -1.6921    4.0488 C   0  0  0  0  0  0  0  0  0  0  0  0
   -3.0508   -1.7705    5.0171 C   0  0  0  0  0  0  0  0  0  0  0  0
   -3.3452   -2.1831    6.6997 Cl  0  0  0  0  0  0  0  0  0  0  0  0
   -5.7594   -2.0084    4.4013 Cl  0  0  0  0  0  0  0  0  0  0  0  0
    0.5149   -2.3925    5.0027 C   0  0  0  0  0  0  0  0  0  0  0  0
    0.5864   -3.5652    3.8054 S   0  0  0  0  0  0  0  0  0  0  0  0
   -1.0394    0.6861    6.4142 C   0  0  0  0  0  0  0  0  0  0  0  0
   -0.4308    1.6237    7.2500 C   0  0  0  0  0  0  0  0  0  0  0  0
    1.0885    1.0454    7.6984 S   0  0  0  0  0  0  0  0  0  0  0  0
   -0.7207    3.0522    7.1604 C   0  0  0  0  0  0  0  0  0  0  0  0
   -1.5912    3.7866    7.9605 C   0  0  0  0  0  0  0  0  0  0  0  0
   -1.6761    5.1354    7.5608 C   0  0  0  0  0  0  0  0  0  0  0  0
   -2.4920    6.1337    8.1308 C   0  0  0  0  0  0  0  0  0  0  0  0
   -3.3270    5.8805    9.3191 C   0  0  0  0  0  0  0  0  0  0  0  0
   -5.0020    6.0353    9.3631 S   0  0  0  0  0  0  0  0  0  0  0  0
   -5.1745    5.6473   10.9903 C   0  0  0  0  0  0  0  0  0  0  0  0
   -6.4899    5.5486   11.7029 C   0  0  0  0  0  0  0  0  0  0  0  0
   -7.0314    4.1254   11.6355 C   0  0  0  0  0  0  0  0  0  0  0  0
   -3.9156    5.3727   11.5211 C   0  0  0  0  0  0  0  0  0  0  0  0
   -3.6492    4.9159   13.1970 Cl  0  0  0  0  0  0  0  0  0  0  0  0
   -2.8765    5.5116   10.5862 C   0  0  0  0  0  0  0  0  0  0  0  0
   -1.1785    5.3222   10.9984 Cl  0  0  0  0  0  0  0  0  0  0  0  0
   -2.4826    7.3958    7.5056 C   0  0  0  0  0  0  0  0  0  0  0  0
   -1.6919    7.6796    6.3868 C   0  0  0  0  0  0  0  0  0  0  0  0
   -0.8612    6.6893    5.8281 C   0  0  0  0  0  0  0  0  0  0  0  0
   -0.0345    6.9355    4.6310 C   0  0  0  0  0  0  0  0  0  0  0  0
    1.6424    6.7855    4.5791 S   0  0  0  0  0  0  0  0  0  0  0  0
    1.7988    7.0721    2.9274 C   0  0  0  0  0  0  0  0  0  0  0  0
    3.0879    6.9697    2.1680 C   0  0  0  0  0  0  0  0  0  0  0  0
    3.3063    5.5495    1.6555 C   0  0  0  0  0  0  0  0  0  0  0  0
    0.5275    7.2638    2.3872 C   0  0  0  0  0  0  0  0  0  0  0  0
   -0.4999    7.1898    3.3421 C   0  0  0  0  0  0  0  0  0  0  0  0
   -2.2075    7.2956    2.9325 Cl  0  0  0  0  0  0  0  0  0  0  0  0
    0.2325    7.5173    0.6724 Cl  0  0  0  0  0  0  0  0  0  0  0  0
   -0.8797    5.4287    6.4456 C   0  0  0  0  0  0  0  0  0  0  0  0
   -0.0750    4.0394    5.9615 S   0  0  0  0  0  0  0  0  0  0  0  0
   -1.8170    9.0082    5.9435 C   0  0  0  0  0  0  0  0  0  0  0  0
   -2.7069    9.7573    6.7065 C   0  0  0  0  0  0  0  0  0  0  0  0
   -3.3305    8.7847    7.9351 S   0  0  0  0  0  0  0  0  0  0  0  0
   -6.1896    2.8413   -8.6752 H   0  0  0  0  0  0  0  0  0  0  0  0
   -7.9716    0.9533   -8.0803 H   0  0  0  0  0  0  0  0  0  0  0  0
  -10.7133   -1.4923   -7.2552 H   0  0  0  0  0  0  0  0  0  0  0  0
   -9.8042   -0.0306   -6.7158 H   0  0  0  0  0  0  0  0  0  0  0  0
   -9.9906   -0.3968   -8.4900 H   0  0  0  0  0  0  0  0  0  0  0  0
   -6.0168   -5.2848   -6.8113 H   0  0  0  0  0  0  0  0  0  0  0  0
   -4.9918   -4.5016   -8.0718 H   0  0  0  0  0  0  0  0  0  0  0  0
   -4.8203   -4.0242   -6.3234 H   0  0  0  0  0  0  0  0  0  0  0  0
   -4.1464   -2.2262   -7.8943 H   0  0  0  0  0  0  0  0  0  0  0  0
   -1.6396    1.5930  -10.3015 H   0  0  0  0  0  0  0  0  0  0  0  0
   -0.9850    2.1692  -12.6234 H   0  0  0  0  0  0  0  0  0  0  0  0
   -0.8472    3.5873  -11.4888 H   0  0  0  0  0  0  0  0  0  0  0  0
    0.1694    3.5080  -12.9755 H   0  0  0  0  0  0  0  0  0  0  0  0
    4.9678    0.8418  -10.4212 H   0  0  0  0  0  0  0  0  0  0  0  0
    4.2606    0.6838   -8.7667 H   0  0  0  0  0  0  0  0  0  0  0  0
    4.0994   -0.6733   -9.9711 H   0  0  0  0  0  0  0  0  0  0  0  0
    2.2974   -0.7195   -8.3156 H   0  0  0  0  0  0  0  0  0  0  0  0
    2.3154   -0.7299   -5.8733 H   0  0  0  0  0  0  0  0  0  0  0  0
    8.1120    0.7049   -3.8135 H   0  0  0  0  0  0  0  0  0  0  0  0
    7.2376    2.2088   -3.3654 H   0  0  0  0  0  0  0  0  0  0  0  0
    8.2974    2.4042   -5.6148 H   0  0  0  0  0  0  0  0  0  0  0  0
    7.3672    0.9715   -6.1972 H   0  0  0  0  0  0  0  0  0  0  0  0
    6.4992    2.4958   -5.7455 H   0  0  0  0  0  0  0  0  0  0  0  0
   -3.0274   -7.7427   -3.9507 H   0  0  0  0  0  0  0  0  0  0  0  0
   -2.2296   -9.2965   -4.3667 H   0  0  0  0  0  0  0  0  0  0  0  0
   -3.4756   -9.4051   -2.1930 H   0  0  0  0  0  0  0  0  0  0  0  0
   -2.4308   -8.0958   -1.5210 H   0  0  0  0  0  0  0  0  0  0  0  0
   -1.7112   -9.7033   -1.9581 H   0  0  0  0  0  0  0  0  0  0  0  0
    2.4268   -6.2404   -1.4639 H   0  0  0  0  0  0  0  0  0  0  0  0
    6.5837   -5.2228    0.2445 H   0  0  0  0  0  0  0  0  0  0  0  0
   10.2740   -5.2959    0.9820 H   0  0  0  0  0  0  0  0  0  0  0  0
    8.8470   -6.1684    0.3129 H   0  0  0  0  0  0  0  0  0  0  0  0
    8.9267   -4.3492    0.2482 H   0  0  0  0  0  0  0  0  0  0  0  0
    6.8021   -3.7716    6.2208 H   0  0  0  0  0  0  0  0  0  0  0  0
    8.2766   -4.7120    6.6637 H   0  0  0  0  0  0  0  0  0  0  0  0
    6.7105   -5.5771    6.4494 H   0  0  0  0  0  0  0  0  0  0  0  0
    4.9593   -4.8134    4.9354 H   0  0  0  0  0  0  0  0  0  0  0  0
    3.7769   -3.0615    5.2791 H   0  0  0  0  0  0  0  0  0  0  0  0
    7.5022   -1.8947    9.1132 H   0  0  0  0  0  0  0  0  0  0  0  0
    6.5364   -3.3975    9.2801 H   0  0  0  0  0  0  0  0  0  0  0  0
    5.2739   -2.4377   11.1856 H   0  0  0  0  0  0  0  0  0  0  0  0
    6.1229   -0.8497   10.9847 H   0  0  0  0  0  0  0  0  0  0  0  0
    7.0461   -2.3156   11.4952 H   0  0  0  0  0  0  0  0  0  0  0  0
   -5.4448   -0.9069    1.7773 H   0  0  0  0  0  0  0  0  0  0  0  0
   -3.9681   -0.4048    0.8964 H   0  0  0  0  0  0  0  0  0  0  0  0
   -4.9070   -3.3157    1.3557 H   0  0  0  0  0  0  0  0  0  0  0  0
   -4.9983   -2.3823   -0.1873 H   0  0  0  0  0  0  0  0  0  0  0  0
   -3.3869   -2.8272    0.4960 H   0  0  0  0  0  0  0  0  0  0  0  0
   -1.9647    0.8845    5.8859 H   0  0  0  0  0  0  0  0  0  0  0  0
   -2.1479    3.3543    8.7816 H   0  0  0  0  0  0  0  0  0  0  0  0
   -6.3707    5.8545   12.7641 H   0  0  0  0  0  0  0  0  0  0  0  0
   -7.2174    6.2425   11.2293 H   0  0  0  0  0  0  0  0  0  0  0  0
   -7.1212    3.7974   10.5774 H   0  0  0  0  0  0  0  0  0  0  0  0
   -8.0347    4.0892   12.1096 H   0  0  0  0  0  0  0  0  0  0  0  0
   -6.3530    3.4319   12.1766 H   0  0  0  0  0  0  0  0  0  0  0  0
    3.0800    7.6781    1.3115 H   0  0  0  0  0  0  0  0  0  0  0  0
    3.9316    7.2530    2.8315 H   0  0  0  0  0  0  0  0  0  0  0  0
    4.2347    5.5147    1.0502 H   0  0  0  0  0  0  0  0  0  0  0  0
    3.4067    4.8444    2.5068 H   0  0  0  0  0  0  0  0  0  0  0  0
    2.4546    5.2305    1.0164 H   0  0  0  0  0  0  0  0  0  0  0  0
   -1.2801    9.4195    5.0982 H   0  0  0  0  0  0  0  0  0  0  0  0
   -2.9527   10.7978    6.5410 H   0  0  0  0  0  0  0  0  0  0  0  0
  1  2  1  0
  2  3  1  0
  3  4  2  0
  4  5  1  0
  5  6  1  0
  6  7  2  0
  7  8  1  0
  8  9  1  0
  7 10  1  0
 10 11  1  0
 11 12  1  0
 10 13  2  0
  3 14  1  0
 14 15  1  0
 15 16  1  0
 16 17  2  0
 17 18  1  0
 18 19  1  0
 19 20  2  0
 20 21  1  0
 21 22  1  0
 20 23  1  0
 23 24  1  0
 24 25  1  0
 23 26  2  0
 16 27  1  0
 27 28  2  0
 28 29  1  0
 29 30  2  0
 30 31  1  0
 31 32  1  0
 32 33  1  0
 33 34  1  0
 34 35  1  0
 33 36  2  0
 36 37  1  0
 36 38  1  0
 38 39  1  0
 30 40  1  0
 40 41  2  0
 41 42  1  0
 42 43  1  0
 43 44  1  0
 44 45  1  0
 45 46  1  0
 46 47  1  0
 45 48  2  0
 48 49  1  0
 49 50  1  0
 48 51  1  0
 42 52  2  0
 52 53  1  0
 41 54  1  0
 54 55  2  0
 55 56  1  0
 55 57  1  0
 57 58  1  0
 58 59  1  0
 59 60  2  0
 60 61  1  0
 61 62  1  0
 62 63  2  0
 63 64  1  0
 64 65  1  0
 63 66  1  0
 66 67  1  0
 67 68  1  0
 66 69  2  0
 59 70  1  0
 70 71  2  0
 71 72  1  0
 72 73  2  0
 73 74  1  0
 74 75  1  0
 75 76  1  0
 76 77  1  0
 77 78  1  0
 76 79  2  0
 79 80  1  0
 79 81  1  0
 81 82  1  0
 73 83  1  0
 83 84  2  0
 84 85  1  0
 85 86  1  0
 86 87  1  0
 87 88  1  0
 88 89  1  0
 89 90  1  0
 88 91  2  0
 91 92  1  0
 92 93  1  0
 91 94  1  0
 85 95  2  0
 95 96  1  0
 84 97  1  0
 97 98  2  0
 98 99  1  0
 98100  1  0
100101  2  0
101102  1  0
102103  2  0
103104  1  0
104105  1  0
105106  1  0
106107  1  0
107108  1  0
106109  2  0
109110  1  0
109111  1  0
111112  1  0
103113  1  0
113114  2  0
114115  1  0
115116  1  0
116117  1  0
117118  1  0
118119  1  0
119120  1  0
118121  2  0
121122  1  0
122123  1  0
121124  1  0
115125  2  0
125126  1  0
114127  1  0
127128  2  0
128129  1  0
  5  1  2  0
 18 14  2  0
 53 27  1  0
 61 57  2  0
 96 70  1  0
126100  1  0
 13  4  1  0
 26 17  1  0
 52 29  1  0
 69 60  1  0
 95 72  1  0
125102  1  0
 38 31  2  0
 56 40  1  0
 81 74  2  0
 99 83  1  0
111104  2  0
129113  1  0
 49 43  2  0
 92 86  2  0
122116  2  0
  1130  1  0
  6131  1  0
  9132  1  0
  9133  1  0
  9134  1  0
 12135  1  0
 12136  1  0
 12137  1  0
 13138  1  0
 19139  1  0
 22140  1  0
 22141  1  0
 22142  1  0
 25143  1  0
 25144  1  0
 25145  1  0
 26146  1  0
 28147  1  0
 34148  1  0
 34149  1  0
 35150  1  0
 35151  1  0
 35152  1  0
 46153  1  0
 46154  1  0
 47155  1  0
 47156  1  0
 47157  1  0
 54158  1  0
 62159  1  0
 65160  1  0
 65161  1  0
 65162  1  0
 68163  1  0
 68164  1  0
 68165  1  0
 69166  1  0
 71167  1  0
 77168  1  0
 77169  1  0
 78170  1  0
 78171  1  0
 78172  1  0
 89173  1  0
 89174  1  0
 90175  1  0
 90176  1  0
 90177  1  0
 97178  1  0
101179  1  0
107180  1  0
107181  1  0
108182  1  0
108183  1  0
108184  1  0
119185  1  0
119186  1  0
120187  1  0
120188  1  0
120189  1  0
127190  1  0
128191  1  0
M  END

