
     RDKit          3D

119130  0  0  0  0  0  0  0  0999 V2000
    7.4088   -8.6876    2.8154 C   0  0  0  0  0  0  0  0  0  0  0  0
    7.0347   -8.0334    1.7212 C   0  0  0  0  0  0  0  0  0  0  0  0
    6.5358   -8.5858    0.5413 C   0  0  0  0  0  0  0  0  0  0  0  0
    6.2325   -7.7247   -0.5246 C   0  0  0  0  0  0  0  0  0  0  0  0
    6.4421   -6.3372   -0.4030 C   0  0  0  0  0  0  0  0  0  0  0  0
    6.9524   -5.7943    0.7879 C   0  0  0  0  0  0  0  0  0  0  0  0
    7.2218   -6.6597    1.8556 C   0  0  0  0  0  0  0  0  0  0  0  0
    7.7063   -6.3745    3.0676 C   0  0  0  0  0  0  0  0  0  0  0  0
    7.8797   -7.6610    3.7309 C   0  0  0  0  0  0  0  0  0  0  0  0
    8.3394   -7.8505    4.8874 O   0  0  0  0  0  0  0  0  0  0  0  0
    8.0807   -5.0669    3.6414 C   0  0  0  0  0  0  0  0  0  0  0  0
    7.3038   -3.9747    3.6613 C   0  0  0  0  0  0  0  0  0  0  0  0
    5.9185   -3.8981    3.1616 C   0  0  0  0  0  0  0  0  0  0  0  0
    5.3606   -2.6282    2.2082 S   0  0  0  0  0  0  0  0  0  0  0  0
    3.7672   -3.1490    2.0800 C   0  0  0  0  0  0  0  0  0  0  0  0
    3.6431   -4.3370    2.7987 C   0  0  0  0  0  0  0  0  0  0  0  0
    4.8319   -4.7391    3.4329 C   0  0  0  0  0  0  0  0  0  0  0  0
    4.8267   -5.8361    4.3006 C   0  0  0  0  0  0  0  0  0  0  0  0
    3.6457   -6.5918    4.4636 C   0  0  0  0  0  0  0  0  0  0  0  0
    3.5919   -7.7087    5.3129 O   0  0  0  0  0  0  0  0  0  0  0  0
    4.6338   -8.0990    6.1967 C   0  0  0  0  0  0  0  0  0  0  0  0
    2.4732   -6.2276    3.7715 C   0  0  0  0  0  0  0  0  0  0  0  0
    1.3224   -7.0115    3.9562 O   0  0  0  0  0  0  0  0  0  0  0  0
    0.0497   -6.7152    3.3938 C   0  0  0  0  0  0  0  0  0  0  0  0
    2.4734   -5.0904    2.9365 C   0  0  0  0  0  0  0  0  0  0  0  0
    2.6893   -2.3380    1.4954 C   0  0  0  0  0  0  0  0  0  0  0  0
    2.7292   -1.6719   -0.0491 S   0  0  0  0  0  0  0  0  0  0  0  0
    1.3252   -0.7451    0.0828 C   0  0  0  0  0  0  0  0  0  0  0  0
    0.8110   -0.9377    1.3721 C   0  0  0  0  0  0  0  0  0  0  0  0
    1.5745   -1.8192    2.1578 C   0  0  0  0  0  0  0  0  0  0  0  0
    1.2336   -2.0531    3.4955 C   0  0  0  0  0  0  0  0  0  0  0  0
    0.0923   -1.4346    4.0444 C   0  0  0  0  0  0  0  0  0  0  0  0
   -0.3142   -1.6716    5.3671 O   0  0  0  0  0  0  0  0  0  0  0  0
    0.3151   -2.5942    6.2521 C   0  0  0  0  0  0  0  0  0  0  0  0
   -0.6703   -0.5463    3.2631 C   0  0  0  0  0  0  0  0  0  0  0  0
   -1.7898    0.0621    3.8515 O   0  0  0  0  0  0  0  0  0  0  0  0
   -2.6848    0.9377    3.1711 C   0  0  0  0  0  0  0  0  0  0  0  0
   -0.2979   -0.2860    1.9270 C   0  0  0  0  0  0  0  0  0  0  0  0
    0.7587    0.1023   -0.9878 C   0  0  0  0  0  0  0  0  0  0  0  0
   -0.8849    0.2159   -1.3452 S   0  0  0  0  0  0  0  0  0  0  0  0
   -0.7706    1.3882   -2.5409 C   0  0  0  0  0  0  0  0  0  0  0  0
    0.5763    1.7337   -2.6689 C   0  0  0  0  0  0  0  0  0  0  0  0
    1.4330    1.0045   -1.8214 C   0  0  0  0  0  0  0  0  0  0  0  0
    2.8069    1.2791   -1.8075 C   0  0  0  0  0  0  0  0  0  0  0  0
    3.3296    2.2757   -2.6605 C   0  0  0  0  0  0  0  0  0  0  0  0
    4.7022    2.5684   -2.7052 O   0  0  0  0  0  0  0  0  0  0  0  0
    5.7001    1.8881   -1.9508 C   0  0  0  0  0  0  0  0  0  0  0  0
    2.4659    3.0194   -3.4885 C   0  0  0  0  0  0  0  0  0  0  0  0
    3.0230    4.0161   -4.3073 O   0  0  0  0  0  0  0  0  0  0  0  0
    2.2775    4.8360   -5.2033 C   0  0  0  0  0  0  0  0  0  0  0  0
    1.0821    2.7575   -3.4766 C   0  0  0  0  0  0  0  0  0  0  0  0
   -1.9308    2.0897   -3.1134 C   0  0  0  0  0  0  0  0  0  0  0  0
   -2.1827    2.3680   -4.3917 C   0  0  0  0  0  0  0  0  0  0  0  0
   -1.4518    1.9793   -5.5201 C   0  0  0  0  0  0  0  0  0  0  0  0
   -1.8653    2.4418   -6.7781 C   0  0  0  0  0  0  0  0  0  0  0  0
   -2.9895    3.2795   -6.8963 C   0  0  0  0  0  0  0  0  0  0  0  0
   -3.7270    3.6487   -5.7606 C   0  0  0  0  0  0  0  0  0  0  0  0
   -3.3270    3.1574   -4.5100 C   0  0  0  0  0  0  0  0  0  0  0  0
   -3.8649    3.3875   -3.3048 C   0  0  0  0  0  0  0  0  0  0  0  0
   -2.9915    2.7266   -2.3487 C   0  0  0  0  0  0  0  0  0  0  0  0
   -3.1164    2.7289   -1.0955 O   0  0  0  0  0  0  0  0  0  0  0  0
   -5.0316    4.2103   -2.9398 C   0  0  0  0  0  0  0  0  0  0  0  0
   -6.1722    4.1929   -3.6342 C   0  0  0  0  0  0  0  0  0  0  0  0
   -7.3534    4.9918   -3.2428 C   0  0  0  0  0  0  0  0  0  0  0  0
   -8.3772    5.3259   -4.0321 C   0  0  0  0  0  0  0  0  0  0  0  0
   -8.5524    5.0296   -5.3907 C   0  0  0  0  0  0  0  0  0  0  0  0
   -9.7298    5.4530   -6.0249 C   0  0  0  0  0  0  0  0  0  0  0  0
  -10.7173    6.1503   -5.3058 C   0  0  0  0  0  0  0  0  0  0  0  0
  -10.5329    6.4467   -3.9467 C   0  0  0  0  0  0  0  0  0  0  0  0
   -9.3407    6.0478   -3.3252 C   0  0  0  0  0  0  0  0  0  0  0  0
   -8.9651    6.2142   -2.0519 C   0  0  0  0  0  0  0  0  0  0  0  0
   -7.6896    5.5241   -1.9220 C   0  0  0  0  0  0  0  0  0  0  0  0
   -7.0338    5.3779   -0.8572 O   0  0  0  0  0  0  0  0  0  0  0  0
   -9.6737    6.8901   -0.9469 C   0  0  0  0  0  0  0  0  0  0  0  0
  -10.3210    8.0435   -1.1019 C   0  0  0  0  0  0  0  0  0  0  0  0
    7.3805   -9.7588    2.9778 H   0  0  0  0  0  0  0  0  0  0  0  0
    6.3954   -9.6552    0.4422 H   0  0  0  0  0  0  0  0  0  0  0  0
    5.8478   -8.1317   -1.4515 H   0  0  0  0  0  0  0  0  0  0  0  0
    6.2174   -5.6862   -1.2357 H   0  0  0  0  0  0  0  0  0  0  0  0
    7.1438   -4.7316    0.8585 H   0  0  0  0  0  0  0  0  0  0  0  0
    9.0499   -5.0040    4.1209 H   0  0  0  0  0  0  0  0  0  0  0  0
    7.7356   -3.0564    4.0394 H   0  0  0  0  0  0  0  0  0  0  0  0
    5.7165   -6.0841    4.8587 H   0  0  0  0  0  0  0  0  0  0  0  0
    5.5475   -8.3613    5.6229 H   0  0  0  0  0  0  0  0  0  0  0  0
    4.8528   -7.2811    6.9145 H   0  0  0  0  0  0  0  0  0  0  0  0
    4.3086   -8.9933    6.7688 H   0  0  0  0  0  0  0  0  0  0  0  0
   -0.3000   -5.7190    3.7443 H   0  0  0  0  0  0  0  0  0  0  0  0
    0.1067   -6.7351    2.2845 H   0  0  0  0  0  0  0  0  0  0  0  0
   -0.6818   -7.4836    3.7231 H   0  0  0  0  0  0  0  0  0  0  0  0
    1.5791   -4.7892    2.4086 H   0  0  0  0  0  0  0  0  0  0  0  0
    1.8509   -2.6935    4.1062 H   0  0  0  0  0  0  0  0  0  0  0  0
    0.2845   -3.6180    5.8217 H   0  0  0  0  0  0  0  0  0  0  0  0
    1.3675   -2.2903    6.4353 H   0  0  0  0  0  0  0  0  0  0  0  0
   -0.2302   -2.5952    7.2177 H   0  0  0  0  0  0  0  0  0  0  0  0
   -2.1466    1.8424    2.8235 H   0  0  0  0  0  0  0  0  0  0  0  0
   -3.4883    1.2503    3.8689 H   0  0  0  0  0  0  0  0  0  0  0  0
   -3.1496    0.4120    2.3108 H   0  0  0  0  0  0  0  0  0  0  0  0
   -0.8505    0.4344    1.3470 H   0  0  0  0  0  0  0  0  0  0  0  0
    3.4604    0.7491   -1.1323 H   0  0  0  0  0  0  0  0  0  0  0  0
    6.6952    2.3111   -2.2000 H   0  0  0  0  0  0  0  0  0  0  0  0
    5.6997    0.8069   -2.2062 H   0  0  0  0  0  0  0  0  0  0  0  0
    5.5177    2.0257   -0.8648 H   0  0  0  0  0  0  0  0  0  0  0  0
    2.9698    5.5258   -5.7289 H   0  0  0  0  0  0  0  0  0  0  0  0
    1.5329    5.4397   -4.6414 H   0  0  0  0  0  0  0  0  0  0  0  0
    1.7653    4.2036   -5.9603 H   0  0  0  0  0  0  0  0  0  0  0  0
    0.4107    3.3519   -4.0766 H   0  0  0  0  0  0  0  0  0  0  0  0
   -0.5794    1.3433   -5.4345 H   0  0  0  0  0  0  0  0  0  0  0  0
   -1.3064    2.1638   -7.6634 H   0  0  0  0  0  0  0  0  0  0  0  0
   -3.2858    3.6475   -7.8702 H   0  0  0  0  0  0  0  0  0  0  0  0
   -4.5677    4.3193   -5.8699 H   0  0  0  0  0  0  0  0  0  0  0  0
   -4.9553    4.7859   -2.0291 H   0  0  0  0  0  0  0  0  0  0  0  0
   -6.2511    3.5627   -4.5093 H   0  0  0  0  0  0  0  0  0  0  0  0
   -7.8060    4.4879   -5.9556 H   0  0  0  0  0  0  0  0  0  0  0  0
   -9.8831    5.2339   -7.0736 H   0  0  0  0  0  0  0  0  0  0  0  0
  -11.6307    6.4526   -5.8013 H   0  0  0  0  0  0  0  0  0  0  0  0
  -11.3200    6.9502   -3.4031 H   0  0  0  0  0  0  0  0  0  0  0  0
   -9.5805    6.4788    0.0498 H   0  0  0  0  0  0  0  0  0  0  0  0
  -10.3497    8.5540   -2.0533 H   0  0  0  0  0  0  0  0  0  0  0  0
  -10.7901    8.5180   -0.2513 H   0  0  0  0  0  0  0  0  0  0  0  0
  1  2  2  0
  2  3  1  0
  3  4  2  0
  4  5  1  0
  5  6  2  0
  6  7  1  0
  7  8  2  0
  8  9  1  0
  9 10  2  0
  8 11  1  0
 11 12  2  3
 12 13  1  0
 13 14  1  0
 14 15  1  0
 15 16  2  0
 16 17  1  0
 17 18  1  0
 18 19  2  0
 19 20  1  0
 20 21  1  0
 19 22  1  0
 22 23  1  0
 23 24  1  0
 22 25  2  0
 15 26  1  0
 26 27  1  0
 27 28  1  0
 28 29  2  0
 29 30  1  0
 30 31  1  0
 31 32  2  0
 32 33  1  0
 33 34  1  0
 32 35  1  0
 35 36  1  0
 36 37  1  0
 35 38  2  0
 28 39  1  0
 39 40  1  0
 40 41  1  0
 41 42  2  0
 42 43  1  0
 43 44  1  0
 44 45  2  0
 45 46  1  0
 46 47  1  0
 45 48  1  0
 48 49  1  0
 49 50  1  0
 48 51  2  0
 41 52  1  0
 52 53  2  0
 53 54  1  0
 54 55  2  0
 55 56  1  0
 56 57  2  0
 57 58  1  0
 58 59  2  0
 59 60  1  0
 60 61  2  0
 59 62  1  0
 62 63  2  3
 63 64  1  0
 64 65  2  0
 65 66  1  0
 66 67  2  0
 67 68  1  0
 68 69  2  0
 69 70  1  0
 70 71  2  0
 71 72  1  0
 72 73  2  0
 71 74  1  0
 74 75  2  3
  9  1  1  0
 17 13  2  0
 30 26  2  0
 43 39  2  0
 60 52  1  0
 72 64  1  0
  7  2  1  0
 25 16  1  0
 38 29  1  0
 51 42  1  0
 58 53  1  0
 70 65  1  0
  1 76  1  0
  3 77  1  0
  4 78  1  0
  5 79  1  0
  6 80  1  0
 11 81  1  0
 12 82  1  0
 18 83  1  0
 21 84  1  0
 21 85  1  0
 21 86  1  0
 24 87  1  0
 24 88  1  0
 24 89  1  0
 25 90  1  0
 31 91  1  0
 34 92  1  0
 34 93  1  0
 34 94  1  0
 37 95  1  0
 37 96  1  0
 37 97  1  0
 38 98  1  0
 44 99  1  0
 47100  1  0
 47101  1  0
 47102  1  0
 50103  1  0
 50104  1  0
 50105  1  0
 51106  1  0
 54107  1  0
 55108  1  0
 56109  1  0
 57110  1  0
 62111  1  0
 63112  1  0
 66113  1  0
 67114  1  0
 68115  1  0
 69116  1  0
 74117  1  0
 75118  1  0
 75119  1  0
M  END

