
     RDKit          3D

124135  0  0  0  0  0  0  0  0999 V2000
    7.6629   -4.5463   -4.2148 C   0  0  0  0  0  0  0  0  0  0  0  0
    6.0679   -4.0363   -4.3652 S   0  0  0  0  0  0  0  0  0  0  0  0
    5.6496   -4.2446   -2.7517 C   0  0  0  0  0  0  0  0  0  0  0  0
    6.7666   -4.7095   -2.0603 C   0  0  0  0  0  0  0  0  0  0  0  0
    7.8845   -4.9291   -2.8926 C   0  0  0  0  0  0  0  0  0  0  0  0
    9.2208   -5.4477   -2.3710 C   0  0  2  0  0  0  0  0  0  0  0  0
    9.7570   -6.6068   -3.2412 C   0  0  0  0  0  0  0  0  0  0  0  0
    8.7739   -7.5607   -3.4222 F   0  0  0  0  0  0  0  0  0  0  0  0
   10.8508   -7.2002   -2.6333 F   0  0  0  0  0  0  0  0  0  0  0  0
   10.1650   -6.1361   -4.4749 F   0  0  0  0  0  0  0  0  0  0  0  0
    9.1326   -5.8979   -0.8876 C   0  0  0  0  0  0  0  0  0  0  0  0
    8.2107   -4.9989   -0.0532 C   0  0  0  0  0  0  0  0  0  0  0  0
    6.7814   -5.0606   -0.5979 C   0  0  0  0  0  0  0  0  0  0  0  0
    4.3179   -3.9765   -2.1910 C   0  0  0  0  0  0  0  0  0  0  0  0
    3.9963   -2.8699   -0.9702 S   0  0  0  0  0  0  0  0  0  0  0  0
    2.3448   -3.1756   -0.8291 C   0  0  0  0  0  0  0  0  0  0  0  0
    2.0163   -4.1512   -1.7788 C   0  0  0  0  0  0  0  0  0  0  0  0
    3.1174   -4.5918   -2.5369 C   0  0  0  0  0  0  0  0  0  0  0  0
    2.9623   -5.5777   -3.5146 C   0  0  0  0  0  0  0  0  0  0  0  0
    1.6826   -6.1145   -3.7619 C   0  0  0  0  0  0  0  0  0  0  0  0
    1.4623   -7.0740   -4.7644 O   0  0  0  0  0  0  0  0  0  0  0  0
    2.4751   -7.5926   -5.6199 C   0  0  0  0  0  0  0  0  0  0  0  0
    0.5772   -5.6846   -2.9995 C   0  0  0  0  0  0  0  0  0  0  0  0
   -0.6790   -6.2494   -3.2762 O   0  0  0  0  0  0  0  0  0  0  0  0
   -1.8893   -5.8801   -2.6271 C   0  0  0  0  0  0  0  0  0  0  0  0
    0.7520   -4.7108   -1.9915 C   0  0  0  0  0  0  0  0  0  0  0  0
    1.4318   -2.4176    0.0563 C   0  0  0  0  0  0  0  0  0  0  0  0
   -0.0920   -1.8548   -0.3966 S   0  0  0  0  0  0  0  0  0  0  0  0
   -0.3882   -0.9075    0.9605 C   0  0  0  0  0  0  0  0  0  0  0  0
    0.7492   -0.9597    1.7718 C   0  0  0  0  0  0  0  0  0  0  0  0
    1.7430   -1.8321    1.2926 C   0  0  0  0  0  0  0  0  0  0  0  0
    2.9050   -2.0538    2.0423 C   0  0  0  0  0  0  0  0  0  0  0  0
    3.1076   -1.3423    3.2430 C   0  0  0  0  0  0  0  0  0  0  0  0
    4.2438   -1.5472    4.0442 O   0  0  0  0  0  0  0  0  0  0  0  0
    5.2615   -2.5022    3.7685 C   0  0  0  0  0  0  0  0  0  0  0  0
    2.1573   -0.3929    3.6679 C   0  0  0  0  0  0  0  0  0  0  0  0
    2.4146    0.3223    4.8496 O   0  0  0  0  0  0  0  0  0  0  0  0
    1.5366    1.2931    5.4101 C   0  0  0  0  0  0  0  0  0  0  0  0
    0.9801   -0.1908    2.9171 C   0  0  0  0  0  0  0  0  0  0  0  0
   -1.6067   -0.1042    1.1553 C   0  0  0  0  0  0  0  0  0  0  0  0
   -2.2638    0.8859   -0.0314 S   0  0  0  0  0  0  0  0  0  0  0  0
   -3.5430    1.4838    0.8808 C   0  0  0  0  0  0  0  0  0  0  0  0
   -3.4464    0.9318    2.1658 C   0  0  0  0  0  0  0  0  0  0  0  0
   -2.4044   -0.0052    2.3023 C   0  0  0  0  0  0  0  0  0  0  0  0
   -2.3120   -0.8954    3.5338 C   0  0  2  0  0  0  0  0  0  0  0  0
   -3.0188   -2.2397    3.2600 C   0  0  0  0  0  0  0  0  0  0  0  0
   -4.3654   -2.0370    3.0059 F   0  0  0  0  0  0  0  0  0  0  0  0
   -2.4511   -2.8698    2.1674 F   0  0  0  0  0  0  0  0  0  0  0  0
   -2.8881   -3.0746    4.3571 F   0  0  0  0  0  0  0  0  0  0  0  0
   -2.8789   -0.2076    4.8203 C   0  0  0  0  0  0  0  0  0  0  0  0
   -3.3485    1.2458    4.6130 C   0  0  0  0  0  0  0  0  0  0  0  0
   -4.2407    1.3492    3.3703 C   0  0  0  0  0  0  0  0  0  0  0  0
   -4.4800    2.5074    0.3823 C   0  0  0  0  0  0  0  0  0  0  0  0
   -3.9634    3.8362   -0.4908 S   0  0  0  0  0  0  0  0  0  0  0  0
   -5.4434    4.6017   -0.6925 C   0  0  0  0  0  0  0  0  0  0  0  0
   -6.3992    3.7847   -0.0540 C   0  0  0  0  0  0  0  0  0  0  0  0
   -5.8814    2.5671    0.4618 C   0  0  0  0  0  0  0  0  0  0  0  0
   -6.7980    1.4398    0.9536 C   0  0  2  0  0  0  0  0  0  0  0  0
   -6.6227    0.1408    0.1244 C   0  0  0  0  0  0  0  0  0  0  0  0
   -6.6913    0.4222   -1.2305 F   0  0  0  0  0  0  0  0  0  0  0  0
   -5.4139   -0.4650    0.3905 F   0  0  0  0  0  0  0  0  0  0  0  0
   -7.6202   -0.7699    0.4404 F   0  0  0  0  0  0  0  0  0  0  0  0
   -8.2954    1.8458    0.9477 C   0  0  0  0  0  0  0  0  0  0  0  0
   -8.4952    3.3305    1.2386 C   0  0  0  0  0  0  0  0  0  0  0  0
   -7.8480    4.1591    0.1293 C   0  0  0  0  0  0  0  0  0  0  0  0
   -5.6908    5.8187   -1.5306 C   0  0  0  0  0  0  0  0  0  0  0  0
   -7.2150    6.2562   -2.1113 S   0  0  0  0  0  0  0  0  0  0  0  0
   -6.7598    7.5586   -3.0494 C   0  0  0  0  0  0  0  0  0  0  0  0
   -5.3840    7.6915   -2.9432 C   0  0  0  0  0  0  0  0  0  0  0  0
   -4.7662    6.7292   -2.1040 C   0  0  0  0  0  0  0  0  0  0  0  0
   -3.2716    6.7978   -1.8238 C   0  0  2  0  0  0  0  0  0  0  0  0
   -2.9977    7.4499   -0.4461 C   0  0  0  0  0  0  0  0  0  0  0  0
   -1.6371    7.6254   -0.2575 F   0  0  0  0  0  0  0  0  0  0  0  0
   -3.6232    8.6751   -0.3404 F   0  0  0  0  0  0  0  0  0  0  0  0
   -3.4708    6.6389    0.5695 F   0  0  0  0  0  0  0  0  0  0  0  0
   -2.5246    7.5143   -2.9794 C   0  0  0  0  0  0  0  0  0  0  0  0
   -3.1737    8.8478   -3.3634 C   0  0  0  0  0  0  0  0  0  0  0  0
   -4.6247    8.6526   -3.8162 C   0  0  0  0  0  0  0  0  0  0  0  0
    8.3778   -4.5838   -5.0251 H   0  0  0  0  0  0  0  0  0  0  0  0
    9.9443   -4.6073   -2.4243 H   0  0  0  0  0  0  0  0  0  0  0  0
    8.7528   -6.9448   -0.8241 H   0  0  0  0  0  0  0  0  0  0  0  0
   10.1480   -5.8832   -0.4398 H   0  0  0  0  0  0  0  0  0  0  0  0
    8.5835   -3.9527   -0.0784 H   0  0  0  0  0  0  0  0  0  0  0  0
    8.2128   -5.3479    1.0020 H   0  0  0  0  0  0  0  0  0  0  0  0
    6.1434   -4.3695   -0.0114 H   0  0  0  0  0  0  0  0  0  0  0  0
    6.3839   -6.0881   -0.4779 H   0  0  0  0  0  0  0  0  0  0  0  0
    3.8202   -5.9149   -4.0758 H   0  0  0  0  0  0  0  0  0  0  0  0
    2.0122   -8.2997   -6.3395 H   0  0  0  0  0  0  0  0  0  0  0  0
    3.2355   -8.1378   -5.0215 H   0  0  0  0  0  0  0  0  0  0  0  0
    2.9545   -6.7680   -6.1920 H   0  0  0  0  0  0  0  0  0  0  0  0
   -1.8262   -6.1076   -1.5419 H   0  0  0  0  0  0  0  0  0  0  0  0
   -2.7261   -6.4628   -3.0642 H   0  0  0  0  0  0  0  0  0  0  0  0
   -2.0916   -4.7994   -2.7824 H   0  0  0  0  0  0  0  0  0  0  0  0
   -0.0825   -4.4101   -1.3795 H   0  0  0  0  0  0  0  0  0  0  0  0
    3.6246   -2.7880    1.7190 H   0  0  0  0  0  0  0  0  0  0  0  0
    6.0127   -2.4759    4.5820 H   0  0  0  0  0  0  0  0  0  0  0  0
    5.7665   -2.2583    2.8099 H   0  0  0  0  0  0  0  0  0  0  0  0
    4.8282   -3.5245    3.7222 H   0  0  0  0  0  0  0  0  0  0  0  0
    1.3910    2.1334    4.6994 H   0  0  0  0  0  0  0  0  0  0  0  0
    0.5604    0.8272    5.6588 H   0  0  0  0  0  0  0  0  0  0  0  0
    1.9884    1.6948    6.3404 H   0  0  0  0  0  0  0  0  0  0  0  0
    0.2506    0.5481    3.2238 H   0  0  0  0  0  0  0  0  0  0  0  0
   -1.2545   -1.1426    3.7342 H   0  0  0  0  0  0  0  0  0  0  0  0
   -3.7404   -0.7838    5.2304 H   0  0  0  0  0  0  0  0  0  0  0  0
   -2.0977   -0.2156    5.6128 H   0  0  0  0  0  0  0  0  0  0  0  0
   -3.9173    1.5813    5.5064 H   0  0  0  0  0  0  0  0  0  0  0  0
   -2.4630    1.9117    4.4994 H   0  0  0  0  0  0  0  0  0  0  0  0
   -4.6025    2.3921    3.2587 H   0  0  0  0  0  0  0  0  0  0  0  0
   -5.1005    0.6637    3.5086 H   0  0  0  0  0  0  0  0  0  0  0  0
   -6.5461    1.2234    2.0026 H   0  0  0  0  0  0  0  0  0  0  0  0
   -8.8425    1.2518    1.7121 H   0  0  0  0  0  0  0  0  0  0  0  0
   -8.7610    1.6200   -0.0383 H   0  0  0  0  0  0  0  0  0  0  0  0
   -9.5828    3.5555    1.2841 H   0  0  0  0  0  0  0  0  0  0  0  0
   -8.0471    3.5876    2.2242 H   0  0  0  0  0  0  0  0  0  0  0  0
   -8.3952    3.9900   -0.8230 H   0  0  0  0  0  0  0  0  0  0  0  0
   -7.9289    5.2298    0.4132 H   0  0  0  0  0  0  0  0  0  0  0  0
   -7.4163    8.1582   -3.6649 H   0  0  0  0  0  0  0  0  0  0  0  0
   -2.8474    5.7785   -1.8130 H   0  0  0  0  0  0  0  0  0  0  0  0
   -1.4604    7.6872   -2.7122 H   0  0  0  0  0  0  0  0  0  0  0  0
   -2.5250    6.8474   -3.8735 H   0  0  0  0  0  0  0  0  0  0  0  0
   -2.5955    9.3041   -4.1969 H   0  0  0  0  0  0  0  0  0  0  0  0
   -3.1335    9.5611   -2.5144 H   0  0  0  0  0  0  0  0  0  0  0  0
   -4.6301    8.2527   -4.8563 H   0  0  0  0  0  0  0  0  0  0  0  0
   -5.1405    9.6363   -3.8269 H   0  0  0  0  0  0  0  0  0  0  0  0
  1  2  1  0
  2  3  1  0
  3  4  2  0
  4  5  1  0
  5  6  1  0
  6  7  1  0
  7  8  1  0
  7  9  1  0
  7 10  1  0
  6 11  1  0
 11 12  1  0
 12 13  1  0
  3 14  1  0
 14 15  1  0
 15 16  1  0
 16 17  2  0
 17 18  1  0
 18 19  1  0
 19 20  2  0
 20 21  1  0
 21 22  1  0
 20 23  1  0
 23 24  1  0
 24 25  1  0
 23 26  2  0
 16 27  1  0
 27 28  1  0
 28 29  1  0
 29 30  2  0
 30 31  1  0
 31 32  1  0
 32 33  2  0
 33 34  1  0
 34 35  1  0
 33 36  1  0
 36 37  1  0
 37 38  1  0
 36 39  2  0
 29 40  1  0
 40 41  1  0
 41 42  1  0
 42 43  2  0
 43 44  1  0
 44 45  1  0
 45 46  1  0
 46 47  1  0
 46 48  1  0
 46 49  1  0
 45 50  1  0
 50 51  1  0
 51 52  1  0
 42 53  1  0
 53 54  1  0
 54 55  1  0
 55 56  2  0
 56 57  1  0
 57 58  1  0
 58 59  1  0
 59 60  1  0
 59 61  1  0
 59 62  1  0
 58 63  1  0
 63 64  1  0
 64 65  1  0
 55 66  1  0
 66 67  1  0
 67 68  1  0
 68 69  2  0
 69 70  1  0
 70 71  1  0
 71 72  1  0
 72 73  1  0
 72 74  1  0
 72 75  1  0
 71 76  1  0
 76 77  1  0
 77 78  1  0
  5  1  2  0
 18 14  2  0
 31 27  2  0
 44 40  2  0
 57 53  2  0
 70 66  2  0
 13  4  1  0
 26 17  1  0
 39 30  1  0
 52 43  1  0
 65 56  1  0
 78 69  1  0
  1 79  1  0
  6 80  1  1
 11 81  1  0
 11 82  1  0
 12 83  1  0
 12 84  1  0
 13 85  1  0
 13 86  1  0
 19 87  1  0
 22 88  1  0
 22 89  1  0
 22 90  1  0
 25 91  1  0
 25 92  1  0
 25 93  1  0
 26 94  1  0
 32 95  1  0
 35 96  1  0
 35 97  1  0
 35 98  1  0
 38 99  1  0
 38100  1  0
 38101  1  0
 39102  1  0
 45103  1  1
 50104  1  0
 50105  1  0
 51106  1  0
 51107  1  0
 52108  1  0
 52109  1  0
 58110  1  1
 63111  1  0
 63112  1  0
 64113  1  0
 64114  1  0
 65115  1  0
 65116  1  0
 68117  1  0
 71118  1  1
 76119  1  0
 76120  1  0
 77121  1  0
 77122  1  0
 78123  1  0
 78124  1  0
M  END

