
     RDKit          3D

 78 89  0  0  0  0  0  0  0  0999 V2000
    7.7267    4.4480    7.5335 C   0  0  0  0  0  0  0  0  0  0  0  0
    6.6552    4.7681    6.8239 C   0  0  0  0  0  0  0  0  0  0  0  0
    6.4703    3.9161    5.7170 C   0  0  0  0  0  0  0  0  0  0  0  0
    7.5667    2.9739    5.7852 C   0  0  0  0  0  0  0  0  0  0  0  0
    7.7624    1.9747    5.0464 O   0  0  0  0  0  0  0  0  0  0  0  0
    8.3721    3.3185    6.9190 N   0  0  0  0  0  0  0  0  0  0  0  0
    5.3306    4.2046    5.0915 C   0  0  0  0  0  0  0  0  0  0  0  0
    4.7014    5.2790    5.7518 O   0  0  0  0  0  0  0  0  0  0  0  0
    5.5098    5.6398    6.8347 C   0  0  0  0  0  0  0  0  0  0  0  0
    5.2526    6.5493    7.6654 O   0  0  0  0  0  0  0  0  0  0  0  0
    4.7714    3.5292    3.9120 C   0  0  0  0  0  0  0  0  0  0  0  0
    3.5003    3.5795    3.5292 C   0  0  0  0  0  0  0  0  0  0  0  0
    3.2773    2.8206    2.3648 C   0  0  0  0  0  0  0  0  0  0  0  0
    4.5616    2.2508    2.0249 C   0  0  0  0  0  0  0  0  0  0  0  0
    4.8158    1.4538    1.0851 O   0  0  0  0  0  0  0  0  0  0  0  0
    5.5168    2.7108    2.9876 N   0  0  0  0  0  0  0  0  0  0  0  0
    1.9854    2.8028    2.0505 C   0  0  0  0  0  0  0  0  0  0  0  0
    1.2686    3.5542    3.0013 O   0  0  0  0  0  0  0  0  0  0  0  0
    2.1944    4.0494    3.9270 C   0  0  0  0  0  0  0  0  0  0  0  0
    1.9102    4.7507    4.9321 O   0  0  0  0  0  0  0  0  0  0  0  0
    1.3604    2.0829    0.9329 C   0  0  0  0  0  0  0  0  0  0  0  0
   -0.0515    1.1807    1.0714 S   0  0  0  0  0  0  0  0  0  0  0  0
   -0.1329    0.6713   -0.5336 C   0  0  0  0  0  0  0  0  0  0  0  0
    0.9587    1.2229   -1.2120 C   0  0  0  0  0  0  0  0  0  0  0  0
    1.7796    2.0244   -0.3985 C   0  0  0  0  0  0  0  0  0  0  0  0
    2.8649    2.7122   -0.9497 C   0  0  0  0  0  0  0  0  0  0  0  0
    3.1808    2.5399   -2.3132 C   0  0  0  0  0  0  0  0  0  0  0  0
    4.2688    3.1969   -2.9094 O   0  0  0  0  0  0  0  0  0  0  0  0
    5.1485    4.0842   -2.2258 C   0  0  0  0  0  0  0  0  0  0  0  0
    2.3965    1.6872   -3.1151 C   0  0  0  0  0  0  0  0  0  0  0  0
    2.7583    1.5271   -4.4621 O   0  0  0  0  0  0  0  0  0  0  0  0
    2.0616    0.7056   -5.3934 C   0  0  0  0  0  0  0  0  0  0  0  0
    1.2802    1.0259   -2.5597 C   0  0  0  0  0  0  0  0  0  0  0  0
   -1.2380   -0.1218   -1.1002 C   0  0  0  0  0  0  0  0  0  0  0  0
   -1.8875   -1.1053   -0.4863 C   0  0  0  0  0  0  0  0  0  0  0  0
   -2.9083   -1.6459   -1.2966 C   0  0  0  0  0  0  0  0  0  0  0  0
   -2.8534   -0.8908   -2.5302 C   0  0  0  0  0  0  0  0  0  0  0  0
   -3.5478   -1.0651   -3.5646 O   0  0  0  0  0  0  0  0  0  0  0  0
   -1.8130    0.0843   -2.4055 N   0  0  0  0  0  0  0  0  0  0  0  0
   -3.4932   -2.6771   -0.6917 C   0  0  0  0  0  0  0  0  0  0  0  0
   -2.8883   -2.8777    0.5643 O   0  0  0  0  0  0  0  0  0  0  0  0
   -1.8876   -1.9121    0.7102 C   0  0  0  0  0  0  0  0  0  0  0  0
   -1.1165   -1.8119    1.6994 O   0  0  0  0  0  0  0  0  0  0  0  0
   -4.5851   -3.5097   -1.2165 C   0  0  0  0  0  0  0  0  0  0  0  0
   -4.8858   -4.7347   -0.8008 C   0  0  0  0  0  0  0  0  0  0  0  0
   -5.9703   -5.2819   -1.5171 C   0  0  0  0  0  0  0  0  0  0  0  0
   -6.3567   -4.2538   -2.4609 C   0  0  0  0  0  0  0  0  0  0  0  0
   -7.2521   -4.3230   -3.3414 O   0  0  0  0  0  0  0  0  0  0  0  0
   -5.4960   -3.1263   -2.2646 N   0  0  0  0  0  0  0  0  0  0  0  0
   -6.1849   -6.5448   -1.1533 C   0  0  0  0  0  0  0  0  0  0  0  0
   -5.2525   -6.9023   -0.1597 O   0  0  0  0  0  0  0  0  0  0  0  0
   -4.4345   -5.7915    0.0715 C   0  0  0  0  0  0  0  0  0  0  0  0
   -3.4680   -5.7566    0.8768 O   0  0  0  0  0  0  0  0  0  0  0  0
   -7.2006   -7.4619   -1.6919 C   0  0  0  0  0  0  0  0  0  0  0  0
   -7.1810   -8.7850   -1.5711 C   0  0  0  0  0  0  0  0  0  0  0  0
   -8.3217   -9.3714   -2.1469 C   0  0  0  0  0  0  0  0  0  0  0  0
   -9.1107   -8.2784   -2.6570 C   0  0  0  0  0  0  0  0  0  0  0  0
  -10.2363   -8.3501   -3.2157 O   0  0  0  0  0  0  0  0  0  0  0  0
   -8.4063   -7.0623   -2.3775 N   0  0  0  0  0  0  0  0  0  0  0  0
   -8.3168  -10.6884   -2.0071 C   0  0  0  0  0  0  0  0  0  0  0  0
   -7.1427  -11.0630   -1.3242 O   0  0  0  0  0  0  0  0  0  0  0  0
   -6.4251   -9.8943   -1.0415 C   0  0  0  0  0  0  0  0  0  0  0  0
   -5.3230   -9.8478   -0.4357 O   0  0  0  0  0  0  0  0  0  0  0  0
    8.0441    4.9212    8.4528 H   0  0  0  0  0  0  0  0  0  0  0  0
    9.2139    2.8101    7.2708 H   0  0  0  0  0  0  0  0  0  0  0  0
    6.5487    2.5715    2.9479 H   0  0  0  0  0  0  0  0  0  0  0  0
    3.4467    3.3804   -0.3333 H   0  0  0  0  0  0  0  0  0  0  0  0
    5.9150    4.4534   -2.9373 H   0  0  0  0  0  0  0  0  0  0  0  0
    4.5824    4.9540   -1.8312 H   0  0  0  0  0  0  0  0  0  0  0  0
    5.6600    3.5523   -1.3957 H   0  0  0  0  0  0  0  0  0  0  0  0
    1.0130    1.0546   -5.5012 H   0  0  0  0  0  0  0  0  0  0  0  0
    2.5626    0.7724   -6.3807 H   0  0  0  0  0  0  0  0  0  0  0  0
    2.0796   -0.3521   -5.0566 H   0  0  0  0  0  0  0  0  0  0  0  0
    0.6883    0.3556   -3.1635 H   0  0  0  0  0  0  0  0  0  0  0  0
   -1.5925    0.8455   -3.0847 H   0  0  0  0  0  0  0  0  0  0  0  0
   -5.5975   -2.1894   -2.7098 H   0  0  0  0  0  0  0  0  0  0  0  0
   -8.7852   -6.0964   -2.4818 H   0  0  0  0  0  0  0  0  0  0  0  0
   -9.0841  -11.3677   -2.3523 H   0  0  0  0  0  0  0  0  0  0  0  0
  1  2  2  0
  2  3  1  0
  3  4  1  0
  4  5  2  0
  4  6  1  0
  3  7  2  0
  7  8  1  0
  8  9  1  0
  9 10  2  0
  7 11  1  0
 11 12  2  0
 12 13  1  0
 13 14  1  0
 14 15  2  0
 14 16  1  0
 13 17  2  0
 17 18  1  0
 18 19  1  0
 19 20  2  0
 17 21  1  0
 21 22  1  0
 22 23  1  0
 23 24  2  0
 24 25  1  0
 25 26  1  0
 26 27  2  0
 27 28  1  0
 28 29  1  0
 27 30  1  0
 30 31  1  0
 31 32  1  0
 30 33  2  0
 23 34  1  0
 34 35  2  0
 35 36  1  0
 36 37  1  0
 37 38  2  0
 37 39  1  0
 36 40  2  0
 40 41  1  0
 41 42  1  0
 42 43  2  0
 40 44  1  0
 44 45  2  0
 45 46  1  0
 46 47  1  0
 47 48  2  0
 47 49  1  0
 46 50  2  0
 50 51  1  0
 51 52  1  0
 52 53  2  0
 50 54  1  0
 54 55  2  0
 55 56  1  0
 56 57  1  0
 57 58  2  0
 57 59  1  0
 56 60  2  0
 60 61  1  0
 61 62  1  0
 62 63  2  0
  6  1  1  0
 16 11  1  0
 25 21  2  0
 39 34  1  0
 49 44  1  0
 59 54  1  0
  9  2  1  0
 19 12  1  0
 33 24  1  0
 42 35  1  0
 52 45  1  0
 62 55  1  0
  1 64  1  0
  6 65  1  0
 16 66  1  0
 26 67  1  0
 29 68  1  0
 29 69  1  0
 29 70  1  0
 32 71  1  0
 32 72  1  0
 32 73  1  0
 33 74  1  0
 39 75  1  0
 49 76  1  0
 59 77  1  0
 60 78  1  0
M  END

