
     RDKit          3D

173179  0  0  0  0  0  0  0  0999 V2000
    5.4234    3.0369    7.2630 C   0  0  0  0  0  0  0  0  0  0  0  0
    4.7578    2.7670    8.7824 S   0  0  0  0  0  0  0  0  0  0  0  0
    3.1938    3.2389    8.3907 C   0  0  0  0  0  0  0  0  0  0  0  0
    3.1680    3.6489    7.0566 C   0  0  0  0  0  0  0  0  0  0  0  0
    4.4338    3.5443    6.4255 C   0  0  0  0  0  0  0  0  0  0  0  0
    4.7682    4.0529    5.0467 C   0  0  0  0  0  0  0  0  0  0  0  0
    5.0023    2.8956    4.0760 C   0  0  0  0  0  0  0  0  0  0  0  0
    2.0182    4.1902    6.4630 O   0  0  0  0  0  0  0  0  0  0  0  0
    1.4010    3.6423    5.2986 C   0  0  0  0  0  0  0  0  0  0  0  0
    0.3545    4.6109    4.7829 C   0  0  0  0  0  0  0  0  0  0  0  0
   -1.3773    5.5330    3.3632 S   0  0  0  0  0  4  0  0  0  0  0  0
    2.1861    4.7885    1.9834 O   0  0  0  0  0  0  0  0  0  0  0  0
   -0.7253    4.6027    2.2360 O   0  0  0  0  0  0  0  0  0  0  0  0
   -0.4427    7.8433    2.1823 O   0  0  0  0  0  0  0  0  0  0  0  0
    2.1067    3.3284    9.3757 C   0  0  0  0  0  0  0  0  0  0  0  0
    0.9262    2.7057    9.2655 C   0  0  0  0  0  0  0  0  0  0  0  0
    0.5795    1.7127    8.2210 C   0  0  0  0  0  0  0  0  0  0  0  0
    1.6632    0.6420    7.4849 S   0  0  0  0  0  0  0  0  0  0  0  0
    0.5200   -0.1591    6.5515 C   0  0  0  0  0  0  0  0  0  0  0  0
   -0.7395    0.3667    6.8294 C   0  0  0  0  0  0  0  0  0  0  0  0
   -0.7192    1.4206    7.7676 C   0  0  0  0  0  0  0  0  0  0  0  0
   -1.9619    2.0893    8.2986 C   0  0  0  0  0  0  0  0  0  0  0  0
   -2.5331    1.3241    9.4869 C   0  0  0  0  0  0  0  0  0  0  0  0
   -1.9095   -0.1479    6.2680 O   0  0  0  0  0  0  0  0  0  0  0  0
   -2.5238    0.4100    5.1116 C   0  0  0  0  0  0  0  0  0  0  0  0
   -3.6347   -0.5109    4.6365 C   0  0  0  0  0  0  0  0  0  0  0  0
   -4.8344   -0.6801    2.5561 S   0  0  0  0  0  4  0  0  0  0  0  0
   -5.7008    0.8450    3.2600 O   0  0  0  0  0  0  0  0  0  0  0  0
   -6.6148   -2.1811    3.8222 O   0  0  0  0  0  0  0  0  0  0  0  0
   -4.3712   -2.9088    1.6526 O   0  0  0  0  0  0  0  0  0  0  0  0
    0.8089   -1.1960    5.5577 C   0  0  0  0  0  0  0  0  0  0  0  0
    0.6632   -0.9097    4.2615 C   0  0  0  0  0  0  0  0  0  0  0  0
    0.6430   -1.9395    3.2131 C   0  0  0  0  0  0  0  0  0  0  0  0
   -0.5187   -1.9637    2.0025 S   0  0  0  0  0  0  0  0  0  0  0  0
    0.1790   -3.1726    1.0714 C   0  0  0  0  0  0  0  0  0  0  0  0
    1.3489   -3.5899    1.7102 C   0  0  0  0  0  0  0  0  0  0  0  0
    1.6167   -2.8927    2.9024 C   0  0  0  0  0  0  0  0  0  0  0  0
    2.8006   -3.1273    3.6130 C   0  0  0  0  0  0  0  0  0  0  0  0
    3.7226   -4.0861    3.1422 C   0  0  0  0  0  0  0  0  0  0  0  0
    4.8933   -4.3727    3.8586 O   0  0  0  0  0  0  0  0  0  0  0  0
    5.2441   -3.7987    5.1131 C   0  0  0  0  0  0  0  0  0  0  0  0
    3.4356   -4.7975    1.9377 C   0  0  0  0  0  0  0  0  0  0  0  0
    4.3051   -5.7370    1.3589 O   0  0  0  0  0  0  0  0  0  0  0  0
    5.5779   -6.1419    1.8533 C   0  0  0  0  0  0  0  0  0  0  0  0
    2.2364   -4.5561    1.2433 C   0  0  0  0  0  0  0  0  0  0  0  0
   -0.3396   -3.5661   -0.2476 C   0  0  0  0  0  0  0  0  0  0  0  0
   -1.9557   -3.9317   -0.5178 S   0  0  0  0  0  0  0  0  0  0  0  0
   -1.8829   -3.9078   -2.1895 C   0  0  0  0  0  0  0  0  0  0  0  0
   -0.5746   -3.6177   -2.5691 C   0  0  0  0  0  0  0  0  0  0  0  0
    0.2939   -3.3924   -1.4858 C   0  0  0  0  0  0  0  0  0  0  0  0
    1.7394   -2.9695   -1.6628 C   0  0  0  0  0  0  0  0  0  0  0  0
    1.8938   -1.7283   -2.5494 C   0  0  0  0  0  0  0  0  0  0  0  0
   -0.1593   -3.5504   -3.9026 O   0  0  0  0  0  0  0  0  0  0  0  0
    0.1257   -4.7280   -4.6634 C   0  0  0  0  0  0  0  0  0  0  0  0
   -1.1621   -5.3288   -5.2146 C   0  0  0  0  0  0  0  0  0  0  0  0
   -2.9080   -5.5749   -1.7737 S   0  0  0  0  0  4  0  0  0  0  0  0
   -0.0177   -6.9986   -1.3604 O   0  0  0  0  0  0  0  0  0  0  0  0
   -3.0587   -9.6260   -2.5895 O   0  0  0  0  0  0  0  0  0  0  0  0
   -2.8652   -7.3463   -2.0139 O   0  0  0  0  0  0  0  0  0  0  0  0
   -3.0650   -3.9204   -3.0699 C   0  0  0  0  0  0  0  0  0  0  0  0
   -3.4356   -2.8634   -3.8116 C   0  0  0  0  0  0  0  0  0  0  0  0
   -2.7690   -1.5491   -3.7453 C   0  0  0  0  0  0  0  0  0  0  0  0
   -1.9713   -0.8274   -5.0372 S   0  0  0  0  0  0  0  0  0  0  0  0
   -1.5116    0.5803   -4.2223 C   0  0  0  0  0  0  0  0  0  0  0  0
   -1.9504    0.4759   -2.8989 C   0  0  0  0  0  0  0  0  0  0  0  0
   -2.7047   -0.6841   -2.6437 C   0  0  0  0  0  0  0  0  0  0  0  0
   -3.4147   -0.9150   -1.3312 C   0  0  0  0  0  0  0  0  0  0  0  0
   -4.5508    0.0853   -1.1239 C   0  0  0  0  0  0  0  0  0  0  0  0
   -1.7098    1.4414   -1.9096 O   0  0  0  0  0  0  0  0  0  0  0  0
   -0.4102    1.6767   -1.3681 C   0  0  0  0  0  0  0  0  0  0  0  0
   -0.2272    0.8855   -0.0896 C   0  0  0  0  0  0  0  0  0  0  0  0
    3.2881    1.1752    0.9100 S   0  0  0  0  0  4  0  0  0  0  0  0
    4.1932   -1.0581    0.5725 O   0  0  0  0  0  0  0  0  0  0  0  0
    3.1700    1.5582   -2.5327 O   0  0  0  0  0  0  0  0  0  0  0  0
    2.6890    0.2107    1.9302 O   0  0  0  0  0  0  0  0  0  0  0  0
   -0.7492    1.7182   -4.7854 C   0  0  0  0  0  0  0  0  0  0  0  0
   -0.8331    2.1708   -6.0464 C   0  0  0  0  0  0  0  0  0  0  0  0
   -1.8086    1.7140   -7.0493 C   0  0  0  0  0  0  0  0  0  0  0  0
   -3.4746    1.6294   -6.7960 S   0  0  0  0  0  0  0  0  0  0  0  0
   -3.8832    1.1715   -8.3637 C   0  0  0  0  0  0  0  0  0  0  0  0
   -2.7056    1.1049   -9.1113 C   0  0  0  0  0  0  0  0  0  0  0  0
   -1.5389    1.4534   -8.3964 C   0  0  0  0  0  0  0  0  0  0  0  0
   -0.1463    1.4276   -8.9840 C   0  0  0  0  0  0  0  0  0  0  0  0
   -0.0457    2.1577  -10.3304 C   0  0  0  0  0  0  0  0  0  0  0  0
   -2.6863    0.7264  -10.4524 O   0  0  0  0  0  0  0  0  0  0  0  0
   -2.8697   -0.6267  -10.8602 C   0  0  0  0  0  0  0  0  0  0  0  0
   -1.6614   -1.4612  -10.4630 C   0  0  0  0  0  0  0  0  0  0  0  0
   -0.7366   -2.0735   -7.7135 S   0  0  0  0  0  4  0  0  0  0  0  0
    1.6612   -0.3385   -5.7840 O   0  0  0  0  0  0  0  0  0  0  0  0
    1.9497   -1.8742   -9.5177 O   0  0  0  0  0  0  0  0  0  0  0  0
   -0.6437   -2.3649   -7.9003 O   0  0  0  0  0  0  0  0  0  0  0  0
   -5.2526    0.9301   -8.8795 C   0  0  0  0  0  0  0  0  0  0  0  0
   -6.3237    0.9065   -8.0831 C   0  0  0  0  0  0  0  0  0  0  0  0
    6.4585    2.8912    6.9981 H   0  0  0  0  0  0  0  0  0  0  0  0
    5.6888    4.6753    5.1030 H   0  0  0  0  0  0  0  0  0  0  0  0
    3.9715    4.7210    4.6638 H   0  0  0  0  0  0  0  0  0  0  0  0
    4.1052    2.2603    4.0198 H   0  0  0  0  0  0  0  0  0  0  0  0
    5.2331    3.3040    3.0717 H   0  0  0  0  0  0  0  0  0  0  0  0
    5.8632    2.2849    4.4198 H   0  0  0  0  0  0  0  0  0  0  0  0
    2.1311    3.4518    4.4937 H   0  0  0  0  0  0  0  0  0  0  0  0
    0.9034    2.6771    5.5440 H   0  0  0  0  0  0  0  0  0  0  0  0
   -0.4531    4.7436    5.5387 H   0  0  0  0  0  0  0  0  0  0  0  0
    0.8216    5.5951    4.5676 H   0  0  0  0  0  0  0  0  0  0  0  0
    2.2267    5.7701    1.8693 H   0  0  0  0  0  0  0  0  0  0  0  0
   -1.1795    3.8043    1.8629 H   0  0  0  0  0  0  0  0  0  0  0  0
    0.4711    8.0505    1.8610 H   0  0  0  0  0  0  0  0  0  0  0  0
    2.2962    3.9051   10.2669 H   0  0  0  0  0  0  0  0  0  0  0  0
    0.1822    2.9048   10.0277 H   0  0  0  0  0  0  0  0  0  0  0  0
   -2.7303    2.1518    7.5022 H   0  0  0  0  0  0  0  0  0  0  0  0
   -1.7303    3.1311    8.6005 H   0  0  0  0  0  0  0  0  0  0  0  0
   -2.9132    0.3332    9.1580 H   0  0  0  0  0  0  0  0  0  0  0  0
   -1.7531    1.1767   10.2683 H   0  0  0  0  0  0  0  0  0  0  0  0
   -3.3571    1.9113    9.9200 H   0  0  0  0  0  0  0  0  0  0  0  0
   -1.7825    0.5202    4.2954 H   0  0  0  0  0  0  0  0  0  0  0  0
   -2.9468    1.4130    5.3393 H   0  0  0  0  0  0  0  0  0  0  0  0
   -4.4053   -0.6311    5.4260 H   0  0  0  0  0  0  0  0  0  0  0  0
   -3.2155   -1.5070    4.3643 H   0  0  0  0  0  0  0  0  0  0  0  0
   -5.9877    0.5746    2.3537 H   0  0  0  0  0  0  0  0  0  0  0  0
   -7.3571   -2.0462    3.1783 H   0  0  0  0  0  0  0  0  0  0  0  0
   -5.0326   -2.6893    0.9500 H   0  0  0  0  0  0  0  0  0  0  0  0
    0.9701   -2.2145    5.8796 H   0  0  0  0  0  0  0  0  0  0  0  0
    0.4056    0.1001    3.9548 H   0  0  0  0  0  0  0  0  0  0  0  0
    2.9854   -2.5870    4.5304 H   0  0  0  0  0  0  0  0  0  0  0  0
    5.4044   -2.6996    5.0110 H   0  0  0  0  0  0  0  0  0  0  0  0
    6.1880   -4.2589    5.4642 H   0  0  0  0  0  0  0  0  0  0  0  0
    4.4541   -3.9861    5.8621 H   0  0  0  0  0  0  0  0  0  0  0  0
    5.4577   -6.6537    2.8291 H   0  0  0  0  0  0  0  0  0  0  0  0
    6.0314   -6.8583    1.1359 H   0  0  0  0  0  0  0  0  0  0  0  0
    6.2541   -5.2708    1.9449 H   0  0  0  0  0  0  0  0  0  0  0  0
    2.0394   -5.0844    0.3172 H   0  0  0  0  0  0  0  0  0  0  0  0
    2.2012   -2.7223   -0.6887 H   0  0  0  0  0  0  0  0  0  0  0  0
    2.3123   -3.8144   -2.1055 H   0  0  0  0  0  0  0  0  0  0  0  0
    2.9397   -1.3468   -2.4696 H   0  0  0  0  0  0  0  0  0  0  0  0
    1.6999   -1.9759   -3.6118 H   0  0  0  0  0  0  0  0  0  0  0  0
    1.1995   -0.9287   -2.2180 H   0  0  0  0  0  0  0  0  0  0  0  0
    0.7917   -4.4465   -5.5129 H   0  0  0  0  0  0  0  0  0  0  0  0
    0.6532   -5.4743   -4.0264 H   0  0  0  0  0  0  0  0  0  0  0  0
   -0.9205   -6.2476   -5.7962 H   0  0  0  0  0  0  0  0  0  0  0  0
   -1.6667   -4.5960   -5.8768 H   0  0  0  0  0  0  0  0  0  0  0  0
    0.0140   -6.6149   -0.4523 H   0  0  0  0  0  0  0  0  0  0  0  0
   -2.6206  -10.3638   -2.1001 H   0  0  0  0  0  0  0  0  0  0  0  0
   -2.9946   -6.9023   -1.1363 H   0  0  0  0  0  0  0  0  0  0  0  0
   -3.6696   -4.8200   -3.1038 H   0  0  0  0  0  0  0  0  0  0  0  0
   -4.2581   -2.9830   -4.5044 H   0  0  0  0  0  0  0  0  0  0  0  0
   -2.6815   -0.8329   -0.4987 H   0  0  0  0  0  0  0  0  0  0  0  0
   -3.8531   -1.9341   -1.2865 H   0  0  0  0  0  0  0  0  0  0  0  0
   -5.3665   -0.0881   -1.8605 H   0  0  0  0  0  0  0  0  0  0  0  0
   -4.1881    1.1314   -1.2137 H   0  0  0  0  0  0  0  0  0  0  0  0
   -4.9649   -0.0430   -0.0958 H   0  0  0  0  0  0  0  0  0  0  0  0
    0.3859    1.3961   -2.0903 H   0  0  0  0  0  0  0  0  0  0  0  0
   -0.3218    2.7547   -1.1472 H   0  0  0  0  0  0  0  0  0  0  0  0
   -1.0400    1.1090    0.6384 H   0  0  0  0  0  0  0  0  0  0  0  0
   -0.2091   -0.2024   -0.3183 H   0  0  0  0  0  0  0  0  0  0  0  0
    4.5578   -1.9049    0.2023 H   0  0  0  0  0  0  0  0  0  0  0  0
    3.0337    1.8748   -1.6031 H   0  0  0  0  0  0  0  0  0  0  0  0
    2.9678    1.1178    2.2115 H   0  0  0  0  0  0  0  0  0  0  0  0
   -0.0712    2.2405   -4.1311 H   0  0  0  0  0  0  0  0  0  0  0  0
   -0.1544    2.9575   -6.3405 H   0  0  0  0  0  0  0  0  0  0  0  0
    0.5778    1.9064   -8.2874 H   0  0  0  0  0  0  0  0  0  0  0  0
    0.1895    0.3756   -9.1015 H   0  0  0  0  0  0  0  0  0  0  0  0
   -0.6617    3.0892  -10.3115 H   0  0  0  0  0  0  0  0  0  0  0  0
   -0.3979    1.4990  -11.1522 H   0  0  0  0  0  0  0  0  0  0  0  0
    1.0120    2.4273  -10.5277 H   0  0  0  0  0  0  0  0  0  0  0  0
   -2.9747   -0.6578  -11.9607 H   0  0  0  0  0  0  0  0  0  0  0  0
   -3.7789   -1.0494  -10.4020 H   0  0  0  0  0  0  0  0  0  0  0  0
   -0.7348   -1.0515  -10.9279 H   0  0  0  0  0  0  0  0  0  0  0  0
   -1.7890   -2.5167  -10.7811 H   0  0  0  0  0  0  0  0  0  0  0  0
    1.7906    0.2183   -4.9698 H   0  0  0  0  0  0  0  0  0  0  0  0
    2.2340   -1.3383  -10.3023 H   0  0  0  0  0  0  0  0  0  0  0  0
    0.0452   -3.0597   -7.7507 H   0  0  0  0  0  0  0  0  0  0  0  0
   -5.3855    0.7379   -9.9367 H   0  0  0  0  0  0  0  0  0  0  0  0
   -6.2445    1.0774   -7.0161 H   0  0  0  0  0  0  0  0  0  0  0  0
   -7.3001    0.7094   -8.5092 H   0  0  0  0  0  0  0  0  0  0  0  0
  1  2  1  0
  2  3  1  0
  3  4  2  0
  4  5  1  0
  5  6  1  0
  6  7  1  0
  4  8  1  0
  8  9  1  0
  9 10  1  0
 10 11  1  0
 11 12  1  0
 11 13  1  0
 11 14  1  0
  3 15  1  0
 15 16  2  3
 16 17  1  0
 17 18  1  0
 18 19  1  0
 19 20  2  0
 20 21  1  0
 21 22  1  0
 22 23  1  0
 20 24  1  0
 24 25  1  0
 25 26  1  0
 26 27  1  0
 27 28  1  0
 27 29  1  0
 27 30  1  0
 19 31  1  0
 31 32  2  3
 32 33  1  0
 33 34  1  0
 34 35  1  0
 35 36  2  0
 36 37  1  0
 37 38  1  0
 38 39  2  0
 39 40  1  0
 40 41  1  0
 39 42  1  0
 42 43  1  0
 43 44  1  0
 42 45  2  0
 35 46  1  0
 46 47  1  0
 47 48  1  0
 48 49  2  0
 49 50  1  0
 50 51  1  0
 51 52  1  0
 49 53  1  0
 53 54  1  0
 54 55  1  0
 55 56  1  0
 56 57  1  0
 56 58  1  0
 56 59  1  0
 48 60  1  0
 60 61  2  3
 61 62  1  0
 62 63  1  0
 63 64  1  0
 64 65  2  0
 65 66  1  0
 66 67  1  0
 67 68  1  0
 65 69  1  0
 69 70  1  0
 70 71  1  0
 71 72  1  0
 72 73  1  0
 72 74  1  0
 72 75  1  0
 64 76  1  0
 76 77  2  3
 77 78  1  0
 78 79  1  0
 79 80  1  0
 80 81  2  0
 81 82  1  0
 82 83  1  0
 83 84  1  0
 81 85  1  0
 85 86  1  0
 86 87  1  0
 87 88  1  0
 88 89  1  0
 88 90  1  0
 88 91  1  0
 80 92  1  0
 92 93  2  3
  5  1  2  0
 21 17  2  0
 37 33  2  0
 50 46  2  0
 66 62  2  0
 82 78  2  0
 45 36  1  0
  1 94  1  0
  6 95  1  0
  6 96  1  0
  7 97  1  0
  7 98  1  0
  7 99  1  0
  9100  1  0
  9101  1  0
 10102  1  0
 10103  1  0
 12104  1  0
 13105  1  0
 14106  1  0
 15107  1  0
 16108  1  0
 22109  1  0
 22110  1  0
 23111  1  0
 23112  1  0
 23113  1  0
 25114  1  0
 25115  1  0
 26116  1  0
 26117  1  0
 28118  1  0
 29119  1  0
 30120  1  0
 31121  1  0
 32122  1  0
 38123  1  0
 41124  1  0
 41125  1  0
 41126  1  0
 44127  1  0
 44128  1  0
 44129  1  0
 45130  1  0
 51131  1  0
 51132  1  0
 52133  1  0
 52134  1  0
 52135  1  0
 54136  1  0
 54137  1  0
 55138  1  0
 55139  1  0
 57140  1  0
 58141  1  0
 59142  1  0
 60143  1  0
 61144  1  0
 67145  1  0
 67146  1  0
 68147  1  0
 68148  1  0
 68149  1  0
 70150  1  0
 70151  1  0
 71152  1  0
 71153  1  0
 73154  1  0
 74155  1  0
 75156  1  0
 76157  1  0
 77158  1  0
 83159  1  0
 83160  1  0
 84161  1  0
 84162  1  0
 84163  1  0
 86164  1  0
 86165  1  0
 87166  1  0
 87167  1  0
 89168  1  0
 90169  1  0
 91170  1  0
 92171  1  0
 93172  1  0
 93173  1  0
M  END

