
     RDKit          3D

191211  0  0  0  0  0  0  0  0999 V2000
    2.7728    0.9080    9.2165 C   0  0  0  0  0  0  0  0  0  0  0  0
    1.3235    0.0730    9.4201 S   0  0  0  0  0  0  0  0  0  0  0  0
    1.2907   -0.6790    7.9101 C   0  0  0  0  0  0  0  0  0  0  0  0
    2.4409   -0.2790    7.2187 C   0  0  0  0  0  0  0  0  0  0  0  0
    3.2605    0.5900    7.9551 C   0  0  0  0  0  0  0  0  0  0  0  0
    4.4623    1.0621    7.4247 C   0  0  0  0  0  0  0  0  0  0  0  0
    4.8444    0.6768    6.1228 C   0  0  0  0  0  0  0  0  0  0  0  0
    6.0480    1.1058    5.5428 O   0  0  0  0  0  0  0  0  0  0  0  0
    7.0419    1.8713    6.2201 C   0  0  0  0  0  0  0  0  0  0  0  0
    4.0036   -0.1595    5.3596 C   0  0  0  0  0  0  0  0  0  0  0  0
    4.4006   -0.4825    4.0526 O   0  0  0  0  0  0  0  0  0  0  0  0
    3.6628   -1.3174    3.1655 C   0  0  0  0  0  0  0  0  0  0  0  0
    2.7969   -0.6399    5.9109 C   0  0  0  0  0  0  0  0  0  0  0  0
    0.3316   -1.7254    7.5113 C   0  0  0  0  0  0  0  0  0  0  0  0
    0.7638   -3.1662    6.7748 S   0  0  0  0  0  0  0  0  0  0  0  0
   -0.7806   -3.8045    6.5783 C   0  0  0  0  0  0  0  0  0  0  0  0
   -1.6792   -2.8856    7.1316 C   0  0  0  0  0  0  0  0  0  0  0  0
   -1.0596   -1.7249    7.6440 C   0  0  0  0  0  0  0  0  0  0  0  0
   -1.8316   -0.6849    8.1706 C   0  0  0  0  0  0  0  0  0  0  0  0
   -3.2341   -0.8198    8.2303 C   0  0  0  0  0  0  0  0  0  0  0  0
   -4.0538    0.1967    8.7488 O   0  0  0  0  0  0  0  0  0  0  0  0
   -3.5906    1.4771    9.1552 C   0  0  0  0  0  0  0  0  0  0  0  0
   -3.8525   -1.9940    7.7632 C   0  0  0  0  0  0  0  0  0  0  0  0
   -5.2507   -2.0886    7.8545 O   0  0  0  0  0  0  0  0  0  0  0  0
   -6.0166   -3.2076    7.4136 C   0  0  0  0  0  0  0  0  0  0  0  0
   -3.0681   -3.0305    7.2064 C   0  0  0  0  0  0  0  0  0  0  0  0
   -1.0555   -4.9065    5.6378 C   0  0  0  0  0  0  0  0  0  0  0  0
   -0.0486   -5.7305    5.1316 C   0  0  0  0  0  0  0  0  0  0  0  0
   -0.3549   -6.2906    3.8809 C   0  0  0  0  0  0  0  0  0  0  0  0
    0.5727   -6.9119    3.0197 C   0  0  0  0  0  0  0  0  0  0  0  0
    1.9862   -7.0407    3.4100 C   0  0  0  0  0  0  0  0  0  0  0  0
    3.1181   -5.8169    3.2063 S   0  0  0  0  0  0  0  0  0  0  0  0
    4.3149   -6.5101    4.1623 C   0  0  0  0  0  0  0  0  0  0  0  0
    5.6115   -5.8376    4.4988 C   0  0  0  0  0  0  0  0  0  0  0  0
    5.4147   -4.8019    5.6015 C   0  0  0  0  0  0  0  0  0  0  0  0
    3.8270   -7.7111    4.6809 C   0  0  0  0  0  0  0  0  0  0  0  0
    4.7290   -8.7296    5.7919 Cl  0  0  0  0  0  0  0  0  0  0  0  0
    2.5179   -8.0055    4.2619 C   0  0  0  0  0  0  0  0  0  0  0  0
    1.6106   -9.4111    4.8041 Cl  0  0  0  0  0  0  0  0  0  0  0  0
    0.1635   -7.1294    1.6942 C   0  0  0  0  0  0  0  0  0  0  0  0
   -1.1183   -6.7961    1.2414 C   0  0  0  0  0  0  0  0  0  0  0  0
   -2.0586   -6.2078    2.1109 C   0  0  0  0  0  0  0  0  0  0  0  0
   -3.3216   -5.6416    1.6010 C   0  0  0  0  0  0  0  0  0  0  0  0
   -3.6350   -3.9960    1.4469 S   0  0  0  0  0  0  0  0  0  0  0  0
   -5.1551   -4.1666    0.7427 C   0  0  0  0  0  0  0  0  0  0  0  0
   -6.0583   -3.0201    0.3960 C   0  0  0  0  0  0  0  0  0  0  0  0
   -6.7916   -2.5188    1.6348 C   0  0  0  0  0  0  0  0  0  0  0  0
   -5.4405   -5.5277    0.6272 C   0  0  0  0  0  0  0  0  0  0  0  0
   -4.4067   -6.3532    1.0985 C   0  0  0  0  0  0  0  0  0  0  0  0
   -4.4776   -8.1095    1.0714 Cl  0  0  0  0  0  0  0  0  0  0  0  0
   -6.9398   -6.1585   -0.0450 Cl  0  0  0  0  0  0  0  0  0  0  0  0
   -1.6311   -5.9519    3.4257 C   0  0  0  0  0  0  0  0  0  0  0  0
   -2.3517   -4.9323    4.5534 S   0  0  0  0  0  0  0  0  0  0  0  0
   -1.2341   -6.8402   -0.1559 C   0  0  0  0  0  0  0  0  0  0  0  0
   -0.0362   -7.1348   -0.8093 C   0  0  0  0  0  0  0  0  0  0  0  0
    1.1475   -7.4269    0.3618 S   0  0  0  0  0  0  0  0  0  0  0  0
    0.2661   -6.6423   -2.1655 C   0  0  0  0  0  0  0  0  0  0  0  0
   -0.7106   -6.1948   -3.0599 C   0  0  0  0  0  0  0  0  0  0  0  0
   -0.2488   -5.1964   -3.9322 C   0  0  0  0  0  0  0  0  0  0  0  0
   -1.0616   -4.3695   -4.7311 C   0  0  0  0  0  0  0  0  0  0  0  0
   -2.5135   -4.5861   -4.8461 C   0  0  0  0  0  0  0  0  0  0  0  0
   -3.2794   -5.2538   -6.1851 S   0  0  0  0  0  0  0  0  0  0  0  0
   -4.8361   -5.1788   -5.5463 C   0  0  0  0  0  0  0  0  0  0  0  0
   -6.0606   -5.7063   -6.2294 C   0  0  0  0  0  0  0  0  0  0  0  0
   -6.3639   -7.1286   -5.7707 C   0  0  0  0  0  0  0  0  0  0  0  0
   -4.7724   -4.6375   -4.2634 C   0  0  0  0  0  0  0  0  0  0  0  0
   -6.1794   -4.4088   -3.2360 Cl  0  0  0  0  0  0  0  0  0  0  0  0
   -3.4674   -4.3006   -3.8728 C   0  0  0  0  0  0  0  0  0  0  0  0
   -3.0779   -3.5871   -2.3156 Cl  0  0  0  0  0  0  0  0  0  0  0  0
   -0.4617   -3.2275   -5.2806 C   0  0  0  0  0  0  0  0  0  0  0  0
    0.8866   -2.9144   -5.0824 C   0  0  0  0  0  0  0  0  0  0  0  0
    1.7189   -3.7845   -4.3482 C   0  0  0  0  0  0  0  0  0  0  0  0
    3.1163   -3.4466   -4.0304 C   0  0  0  0  0  0  0  0  0  0  0  0
    3.5997   -2.1649   -3.0540 S   0  0  0  0  0  0  0  0  0  0  0  0
    5.2492   -2.4879   -3.1463 C   0  0  0  0  0  0  0  0  0  0  0  0
    6.3123   -1.6347   -2.5237 C   0  0  0  0  0  0  0  0  0  0  0  0
    6.5326   -0.3704   -3.3438 C   0  0  0  0  0  0  0  0  0  0  0  0
    5.4447   -3.6125   -3.9469 C   0  0  0  0  0  0  0  0  0  0  0  0
    4.2438   -4.1621   -4.4264 C   0  0  0  0  0  0  0  0  0  0  0  0
    4.1703   -5.5885   -5.4500 Cl  0  0  0  0  0  0  0  0  0  0  0  0
    7.0242   -4.2836   -4.3260 Cl  0  0  0  0  0  0  0  0  0  0  0  0
    1.1104   -4.9131   -3.7756 C   0  0  0  0  0  0  0  0  0  0  0  0
    1.7217   -5.8722   -2.5385 S   0  0  0  0  0  0  0  0  0  0  0  0
    1.2232   -1.6209   -5.5221 C   0  0  0  0  0  0  0  0  0  0  0  0
    0.1333   -0.9098   -6.0223 C   0  0  0  0  0  0  0  0  0  0  0  0
   -1.2334   -1.8980   -5.9541 S   0  0  0  0  0  0  0  0  0  0  0  0
    0.0567    0.5596   -6.0690 C   0  0  0  0  0  0  0  0  0  0  0  0
   -1.1640    1.4189   -5.3093 S   0  0  0  0  0  0  0  0  0  0  0  0
   -0.4962    2.9566   -5.4442 C   0  0  0  0  0  0  0  0  0  0  0  0
    0.7235    2.8149   -6.1321 C   0  0  0  0  0  0  0  0  0  0  0  0
    1.0326    1.4749   -6.4582 C   0  0  0  0  0  0  0  0  0  0  0  0
    2.2099    1.1599   -7.1416 C   0  0  0  0  0  0  0  0  0  0  0  0
    3.0970    2.1927   -7.5126 C   0  0  0  0  0  0  0  0  0  0  0  0
    4.2850    1.9366   -8.2181 O   0  0  0  0  0  0  0  0  0  0  0  0
    4.7097    0.6425   -8.6355 C   0  0  0  0  0  0  0  0  0  0  0  0
    2.7915    3.5290   -7.1970 C   0  0  0  0  0  0  0  0  0  0  0  0
    3.7065    4.5260   -7.5772 O   0  0  0  0  0  0  0  0  0  0  0  0
    3.5725    5.9091   -7.2649 C   0  0  0  0  0  0  0  0  0  0  0  0
    1.5891    3.8411   -6.5288 C   0  0  0  0  0  0  0  0  0  0  0  0
   -1.1304    4.1333   -4.7976 C   0  0  0  0  0  0  0  0  0  0  0  0
   -0.5511    5.3564   -4.4355 C   0  0  0  0  0  0  0  0  0  0  0  0
   -1.4240    6.1910   -3.7113 C   0  0  0  0  0  0  0  0  0  0  0  0
   -1.1243    7.4726   -3.2015 C   0  0  0  0  0  0  0  0  0  0  0  0
    0.1472    8.1569   -3.5116 C   0  0  0  0  0  0  0  0  0  0  0  0
    1.2691    8.6716   -2.3670 S   0  0  0  0  0  0  0  0  0  0  0  0
    2.3815    9.2929   -3.4673 C   0  0  0  0  0  0  0  0  0  0  0  0
    3.6414   10.0077   -3.0866 C   0  0  0  0  0  0  0  0  0  0  0  0
    3.4099   11.5132   -3.0246 C   0  0  0  0  0  0  0  0  0  0  0  0
    1.8767    9.1208   -4.7539 C   0  0  0  0  0  0  0  0  0  0  0  0
    2.7047    9.6773   -6.2046 Cl  0  0  0  0  0  0  0  0  0  0  0  0
    0.6274    8.4798   -4.7801 C   0  0  0  0  0  0  0  0  0  0  0  0
   -0.2748    8.1950   -6.2616 Cl  0  0  0  0  0  0  0  0  0  0  0  0
   -2.0945    8.0663   -2.3740 C   0  0  0  0  0  0  0  0  0  0  0  0
   -3.3107    7.4437   -2.0691 C   0  0  0  0  0  0  0  0  0  0  0  0
   -3.6221    6.1829   -2.6065 C   0  0  0  0  0  0  0  0  0  0  0  0
   -4.8297    5.4430   -2.2164 C   0  0  0  0  0  0  0  0  0  0  0  0
   -5.0444    4.7328   -0.7094 S   0  0  0  0  0  0  0  0  0  0  0  0
   -6.4766    3.9339   -1.0825 C   0  0  0  0  0  0  0  0  0  0  0  0
   -7.1609    2.9574   -0.1737 C   0  0  0  0  0  0  0  0  0  0  0  0
   -6.5873    1.5551   -0.3605 C   0  0  0  0  0  0  0  0  0  0  0  0
   -6.7954    4.1974   -2.4157 C   0  0  0  0  0  0  0  0  0  0  0  0
   -5.8698    5.0429   -3.0518 C   0  0  0  0  0  0  0  0  0  0  0  0
   -6.0061    5.5414   -4.7326 Cl  0  0  0  0  0  0  0  0  0  0  0  0
   -8.1921    3.5073   -3.2355 Cl  0  0  0  0  0  0  0  0  0  0  0  0
   -2.6582    5.5958   -3.4394 C   0  0  0  0  0  0  0  0  0  0  0  0
   -2.6885    4.0758   -4.1409 S   0  0  0  0  0  0  0  0  0  0  0  0
   -4.1245    8.2081   -1.2176 C   0  0  0  0  0  0  0  0  0  0  0  0
   -3.5596    9.4305   -0.8680 C   0  0  0  0  0  0  0  0  0  0  0  0
   -2.0516    9.5634   -1.6064 S   0  0  0  0  0  0  0  0  0  0  0  0
    3.2455    1.5547    9.9434 H   0  0  0  0  0  0  0  0  0  0  0  0
    5.0812    1.7194    8.0159 H   0  0  0  0  0  0  0  0  0  0  0  0
    6.6333    2.8649    6.5021 H   0  0  0  0  0  0  0  0  0  0  0  0
    7.9142    2.0204    5.5503 H   0  0  0  0  0  0  0  0  0  0  0  0
    7.3873    1.3316    7.1267 H   0  0  0  0  0  0  0  0  0  0  0  0
    4.1903   -1.3641    2.1920 H   0  0  0  0  0  0  0  0  0  0  0  0
    3.5838   -2.3428    3.5803 H   0  0  0  0  0  0  0  0  0  0  0  0
    2.6501   -0.8993    2.9919 H   0  0  0  0  0  0  0  0  0  0  0  0
    2.1386   -1.2597    5.3238 H   0  0  0  0  0  0  0  0  0  0  0  0
   -1.3547    0.2174    8.5216 H   0  0  0  0  0  0  0  0  0  0  0  0
   -4.4574    2.0935    9.4712 H   0  0  0  0  0  0  0  0  0  0  0  0
   -3.0814    1.9904    8.3104 H   0  0  0  0  0  0  0  0  0  0  0  0
   -2.8909    1.3784   10.0128 H   0  0  0  0  0  0  0  0  0  0  0  0
   -7.0928   -2.9995    7.5824 H   0  0  0  0  0  0  0  0  0  0  0  0
   -5.7312   -4.1147    7.9896 H   0  0  0  0  0  0  0  0  0  0  0  0
   -5.8506   -3.3762    6.3293 H   0  0  0  0  0  0  0  0  0  0  0  0
   -3.5361   -3.9414    6.8621 H   0  0  0  0  0  0  0  0  0  0  0  0
    0.9347   -5.7965    5.5820 H   0  0  0  0  0  0  0  0  0  0  0  0
    5.9989   -5.3357    3.5856 H   0  0  0  0  0  0  0  0  0  0  0  0
    6.3645   -6.5838    4.8204 H   0  0  0  0  0  0  0  0  0  0  0  0
    6.3209   -4.1685    5.6785 H   0  0  0  0  0  0  0  0  0  0  0  0
    5.2431   -5.3022    6.5755 H   0  0  0  0  0  0  0  0  0  0  0  0
    4.5529   -4.1413    5.3745 H   0  0  0  0  0  0  0  0  0  0  0  0
   -6.8005   -3.3254   -0.3700 H   0  0  0  0  0  0  0  0  0  0  0  0
   -5.4511   -2.1947   -0.0329 H   0  0  0  0  0  0  0  0  0  0  0  0
   -7.4274   -1.6484    1.3635 H   0  0  0  0  0  0  0  0  0  0  0  0
   -6.0675   -2.1998    2.4146 H   0  0  0  0  0  0  0  0  0  0  0  0
   -7.4400   -3.3195    2.0441 H   0  0  0  0  0  0  0  0  0  0  0  0
   -2.1124   -6.4815   -0.6768 H   0  0  0  0  0  0  0  0  0  0  0  0
   -1.7540   -6.4611   -2.9724 H   0  0  0  0  0  0  0  0  0  0  0  0
   -5.9017   -5.7016   -7.3302 H   0  0  0  0  0  0  0  0  0  0  0  0
   -6.9277   -5.0483   -6.0060 H   0  0  0  0  0  0  0  0  0  0  0  0
   -7.2731   -7.5005   -6.2902 H   0  0  0  0  0  0  0  0  0  0  0  0
   -5.5142   -7.8053   -6.0115 H   0  0  0  0  0  0  0  0  0  0  0  0
   -6.5474   -7.1495   -4.6740 H   0  0  0  0  0  0  0  0  0  0  0  0
    5.9976   -1.3557   -1.4968 H   0  0  0  0  0  0  0  0  0  0  0  0
    7.2659   -2.1938   -2.4508 H   0  0  0  0  0  0  0  0  0  0  0  0
    6.8328   -0.6296   -4.3831 H   0  0  0  0  0  0  0  0  0  0  0  0
    7.3415    0.2358   -2.8831 H   0  0  0  0  0  0  0  0  0  0  0  0
    5.6041    0.2396   -3.3816 H   0  0  0  0  0  0  0  0  0  0  0  0
    2.1894   -1.1643   -5.3542 H   0  0  0  0  0  0  0  0  0  0  0  0
    2.4172    0.1358   -7.4054 H   0  0  0  0  0  0  0  0  0  0  0  0
    5.6597    0.7388   -9.1982 H   0  0  0  0  0  0  0  0  0  0  0  0
    4.8820   -0.0053   -7.7508 H   0  0  0  0  0  0  0  0  0  0  0  0
    3.9475    0.1874   -9.3043 H   0  0  0  0  0  0  0  0  0  0  0  0
    2.6546    6.3208   -7.7341 H   0  0  0  0  0  0  0  0  0  0  0  0
    3.5347    6.0504   -6.1652 H   0  0  0  0  0  0  0  0  0  0  0  0
    4.4503    6.4586   -7.6593 H   0  0  0  0  0  0  0  0  0  0  0  0
    1.3254    4.8697   -6.3751 H   0  0  0  0  0  0  0  0  0  0  0  0
    0.4817    5.6150   -4.5983 H   0  0  0  0  0  0  0  0  0  0  0  0
    4.4454    9.7808   -3.8180 H   0  0  0  0  0  0  0  0  0  0  0  0
    3.9770    9.6537   -2.0897 H   0  0  0  0  0  0  0  0  0  0  0  0
    3.1585   11.9045   -4.0314 H   0  0  0  0  0  0  0  0  0  0  0  0
    4.3316   12.0162   -2.6680 H   0  0  0  0  0  0  0  0  0  0  0  0
    2.5815   11.7516   -2.3210 H   0  0  0  0  0  0  0  0  0  0  0  0
   -7.0146    3.2786    0.8798 H   0  0  0  0  0  0  0  0  0  0  0  0
   -8.2527    2.9497   -0.3799 H   0  0  0  0  0  0  0  0  0  0  0  0
   -6.7358    1.2178   -1.4070 H   0  0  0  0  0  0  0  0  0  0  0  0
   -7.1037    0.8485    0.3184 H   0  0  0  0  0  0  0  0  0  0  0  0
   -5.5035    1.5497   -0.1229 H   0  0  0  0  0  0  0  0  0  0  0  0
   -5.0999    7.8932   -0.8705 H   0  0  0  0  0  0  0  0  0  0  0  0
   -4.0179   10.1728   -0.2276 H   0  0  0  0  0  0  0  0  0  0  0  0
  1  2  1  0
  2  3  1  0
  3  4  2  0
  4  5  1  0
  5  6  1  0
  6  7  2  0
  7  8  1  0
  8  9  1  0
  7 10  1  0
 10 11  1  0
 11 12  1  0
 10 13  2  0
  3 14  1  0
 14 15  1  0
 15 16  1  0
 16 17  2  0
 17 18  1  0
 18 19  1  0
 19 20  2  0
 20 21  1  0
 21 22  1  0
 20 23  1  0
 23 24  1  0
 24 25  1  0
 23 26  2  0
 16 27  1  0
 27 28  2  0
 28 29  1  0
 29 30  2  0
 30 31  1  0
 31 32  1  0
 32 33  1  0
 33 34  1  0
 34 35  1  0
 33 36  2  0
 36 37  1  0
 36 38  1  0
 38 39  1  0
 30 40  1  0
 40 41  2  0
 41 42  1  0
 42 43  1  0
 43 44  1  0
 44 45  1  0
 45 46  1  0
 46 47  1  0
 45 48  2  0
 48 49  1  0
 49 50  1  0
 48 51  1  0
 42 52  2  0
 52 53  1  0
 41 54  1  0
 54 55  2  0
 55 56  1  0
 55 57  1  0
 57 58  2  0
 58 59  1  0
 59 60  2  0
 60 61  1  0
 61 62  1  0
 62 63  1  0
 63 64  1  0
 64 65  1  0
 63 66  2  0
 66 67  1  0
 66 68  1  0
 68 69  1  0
 60 70  1  0
 70 71  2  0
 71 72  1  0
 72 73  1  0
 73 74  1  0
 74 75  1  0
 75 76  1  0
 76 77  1  0
 75 78  2  0
 78 79  1  0
 79 80  1  0
 78 81  1  0
 72 82  2  0
 82 83  1  0
 71 84  1  0
 84 85  2  0
 85 86  1  0
 85 87  1  0
 87 88  1  0
 88 89  1  0
 89 90  2  0
 90 91  1  0
 91 92  1  0
 92 93  2  0
 93 94  1  0
 94 95  1  0
 93 96  1  0
 96 97  1  0
 97 98  1  0
 96 99  2  0
 89100  1  0
100101  2  0
101102  1  0
102103  2  0
103104  1  0
104105  1  0
105106  1  0
106107  1  0
107108  1  0
106109  2  0
109110  1  0
109111  1  0
111112  1  0
103113  1  0
113114  2  0
114115  1  0
115116  1  0
116117  1  0
117118  1  0
118119  1  0
119120  1  0
118121  2  0
121122  1  0
122123  1  0
121124  1  0
115125  2  0
125126  1  0
114127  1  0
127128  2  0
128129  1  0
  5  1  2  0
 18 14  2  0
 53 27  1  0
 83 57  1  0
 91 87  2  0
126100  1  0
 13  4  1  0
 26 17  1  0
 52 29  1  0
 82 59  1  0
 99 90  1  0
125102  1  0
 38 31  2  0
 56 40  1  0
 68 61  2  0
 86 70  1  0
111104  2  0
129113  1  0
 49 43  2  0
 79 73  2  0
122116  2  0
  1130  1  0
  6131  1  0
  9132  1  0
  9133  1  0
  9134  1  0
 12135  1  0
 12136  1  0
 12137  1  0
 13138  1  0
 19139  1  0
 22140  1  0
 22141  1  0
 22142  1  0
 25143  1  0
 25144  1  0
 25145  1  0
 26146  1  0
 28147  1  0
 34148  1  0
 34149  1  0
 35150  1  0
 35151  1  0
 35152  1  0
 46153  1  0
 46154  1  0
 47155  1  0
 47156  1  0
 47157  1  0
 54158  1  0
 58159  1  0
 64160  1  0
 64161  1  0
 65162  1  0
 65163  1  0
 65164  1  0
 76165  1  0
 76166  1  0
 77167  1  0
 77168  1  0
 77169  1  0
 84170  1  0
 92171  1  0
 95172  1  0
 95173  1  0
 95174  1  0
 98175  1  0
 98176  1  0
 98177  1  0
 99178  1  0
101179  1  0
107180  1  0
107181  1  0
108182  1  0
108183  1  0
108184  1  0
119185  1  0
119186  1  0
120187  1  0
120188  1  0
120189  1  0
127190  1  0
128191  1  0
M  END

