
     RDKit          3D

191211  0  0  0  0  0  0  0  0999 V2000
    6.3816  -10.3556   12.6747 C   0  0  0  0  0  0  0  0  0  0  0  0
    7.1559   -9.3380   12.1239 C   0  0  0  0  0  0  0  0  0  0  0  0
    6.6116   -8.8085   10.9427 C   0  0  0  0  0  0  0  0  0  0  0  0
    7.1580   -7.7748   10.1599 C   0  0  0  0  0  0  0  0  0  0  0  0
    8.4229   -7.1082   10.5161 C   0  0  0  0  0  0  0  0  0  0  0  0
    9.9393   -7.8328   10.4459 S   0  0  0  0  0  0  0  0  0  0  0  0
   10.8107   -6.4651   10.8983 C   0  0  0  0  0  0  0  0  0  0  0  0
   12.3054   -6.3919   10.9661 C   0  0  0  0  0  0  0  0  0  0  0  0
   12.8821   -5.8873    9.6467 C   0  0  0  0  0  0  0  0  0  0  0  0
    9.9186   -5.4112   11.0928 C   0  0  0  0  0  0  0  0  0  0  0  0
   10.4182   -3.7875   11.5445 Cl  0  0  0  0  0  0  0  0  0  0  0  0
    8.5798   -5.7729   10.8830 C   0  0  0  0  0  0  0  0  0  0  0  0
    7.2349   -4.6595   11.0884 Cl  0  0  0  0  0  0  0  0  0  0  0  0
    6.4441   -7.4056    9.0076 C   0  0  0  0  0  0  0  0  0  0  0  0
    5.2396   -8.0071    8.6334 C   0  0  0  0  0  0  0  0  0  0  0  0
    4.6773   -9.0235    9.4343 C   0  0  0  0  0  0  0  0  0  0  0  0
    3.3869   -9.6546    9.1048 C   0  0  0  0  0  0  0  0  0  0  0  0
    3.0960  -10.6093    7.7499 S   0  0  0  0  0  0  0  0  0  0  0  0
    1.4931  -10.9630    8.1222 C   0  0  0  0  0  0  0  0  0  0  0  0
    0.5722  -11.7640    7.2523 C   0  0  0  0  0  0  0  0  0  0  0  0
   -0.1927  -10.8557    6.2939 C   0  0  0  0  0  0  0  0  0  0  0  0
    1.1565  -10.3142    9.3095 C   0  0  0  0  0  0  0  0  0  0  0  0
    2.2195   -9.5865    9.8637 C   0  0  0  0  0  0  0  0  0  0  0  0
    2.0711   -8.6295   11.3323 Cl  0  0  0  0  0  0  0  0  0  0  0  0
   -0.4452  -10.3800   10.0335 Cl  0  0  0  0  0  0  0  0  0  0  0  0
    5.3996   -9.4041   10.5804 C   0  0  0  0  0  0  0  0  0  0  0  0
    5.0241  -10.5971   11.7059 S   0  0  0  0  0  0  0  0  0  0  0  0
    4.6946   -7.4637    7.4544 C   0  0  0  0  0  0  0  0  0  0  0  0
    5.4857   -6.4546    6.8936 C   0  0  0  0  0  0  0  0  0  0  0  0
    6.8335   -6.2249    7.8843 S   0  0  0  0  0  0  0  0  0  0  0  0
    5.1127   -5.6342    5.7178 C   0  0  0  0  0  0  0  0  0  0  0  0
    3.5279   -5.5244    5.1319 S   0  0  0  0  0  0  0  0  0  0  0  0
    3.8077   -4.3288    3.9859 C   0  0  0  0  0  0  0  0  0  0  0  0
    5.1553   -3.9859    4.0419 C   0  0  0  0  0  0  0  0  0  0  0  0
    5.8945   -4.7139    4.9929 C   0  0  0  0  0  0  0  0  0  0  0  0
    7.2712   -4.4774    5.1257 C   0  0  0  0  0  0  0  0  0  0  0  0
    7.8925   -3.4721    4.3517 C   0  0  0  0  0  0  0  0  0  0  0  0
    9.2549   -3.1642    4.4921 O   0  0  0  0  0  0  0  0  0  0  0  0
   10.1155   -3.7241    5.4800 C   0  0  0  0  0  0  0  0  0  0  0  0
    7.1420   -2.7435    3.4097 C   0  0  0  0  0  0  0  0  0  0  0  0
    7.7975   -1.7577    2.6534 O   0  0  0  0  0  0  0  0  0  0  0  0
    7.1659   -0.9437    1.6699 C   0  0  0  0  0  0  0  0  0  0  0  0
    5.7694   -3.0123    3.2473 C   0  0  0  0  0  0  0  0  0  0  0  0
    2.7707   -3.6087    3.2439 C   0  0  0  0  0  0  0  0  0  0  0  0
    2.1204   -4.0724    2.1029 C   0  0  0  0  0  0  0  0  0  0  0  0
    1.3880   -3.0627    1.4526 C   0  0  0  0  0  0  0  0  0  0  0  0
    0.7041   -3.1786    0.2231 C   0  0  0  0  0  0  0  0  0  0  0  0
    0.6244   -4.4595   -0.5001 C   0  0  0  0  0  0  0  0  0  0  0  0
   -0.2187   -5.8124    0.0431 S   0  0  0  0  0  0  0  0  0  0  0  0
    0.1545   -6.7936   -1.2743 C   0  0  0  0  0  0  0  0  0  0  0  0
   -0.3513   -8.1914   -1.4661 C   0  0  0  0  0  0  0  0  0  0  0  0
   -1.6182   -8.1972   -2.3146 C   0  0  0  0  0  0  0  0  0  0  0  0
    0.9384   -6.0636   -2.1675 C   0  0  0  0  0  0  0  0  0  0  0  0
    1.5283   -6.7110   -3.6930 Cl  0  0  0  0  0  0  0  0  0  0  0  0
    1.2118   -4.7591   -1.7285 C   0  0  0  0  0  0  0  0  0  0  0  0
    2.2409   -3.6398   -2.6151 Cl  0  0  0  0  0  0  0  0  0  0  0  0
    0.1489   -2.0001   -0.3114 C   0  0  0  0  0  0  0  0  0  0  0  0
    0.2463   -0.7662    0.3399 C   0  0  0  0  0  0  0  0  0  0  0  0
    0.9034   -0.6535    1.5785 C   0  0  0  0  0  0  0  0  0  0  0  0
    1.0736    0.6495    2.2505 C   0  0  0  0  0  0  0  0  0  0  0  0
    2.5482    1.4326    2.4615 S   0  0  0  0  0  0  0  0  0  0  0  0
    1.9142    2.8210    3.1712 C   0  0  0  0  0  0  0  0  0  0  0  0
    2.7204    4.0194    3.5697 C   0  0  0  0  0  0  0  0  0  0  0  0
    2.8954    4.9685    2.3898 C   0  0  0  0  0  0  0  0  0  0  0  0
    0.5260    2.6994    3.2260 C   0  0  0  0  0  0  0  0  0  0  0  0
    0.0556    1.4784    2.7182 C   0  0  0  0  0  0  0  0  0  0  0  0
   -1.6465    1.0334    2.6944 Cl  0  0  0  0  0  0  0  0  0  0  0  0
   -0.5372    3.9541    3.8477 Cl  0  0  0  0  0  0  0  0  0  0  0  0
    1.4756   -1.8229    2.0977 C   0  0  0  0  0  0  0  0  0  0  0  0
    2.4452   -1.9703    3.4602 S   0  0  0  0  0  0  0  0  0  0  0  0
   -0.2870    0.2924   -0.4038 C   0  0  0  0  0  0  0  0  0  0  0  0
   -0.7818   -0.1041   -1.6423 C   0  0  0  0  0  0  0  0  0  0  0  0
   -0.6184   -1.7777   -1.7980 S   0  0  0  0  0  0  0  0  0  0  0  0
   -1.2831    0.8100   -2.6805 C   0  0  0  0  0  0  0  0  0  0  0  0
   -2.6548    0.5409   -3.6200 S   0  0  0  0  0  0  0  0  0  0  0  0
   -2.6709    2.0450   -4.3840 C   0  0  0  0  0  0  0  0  0  0  0  0
   -1.5872    2.7855   -3.9059 C   0  0  0  0  0  0  0  0  0  0  0  0
   -0.8024    2.0910   -2.9733 C   0  0  0  0  0  0  0  0  0  0  0  0
    0.3605    2.6733   -2.4563 C   0  0  0  0  0  0  0  0  0  0  0  0
    0.7016    3.9921   -2.8173 C   0  0  0  0  0  0  0  0  0  0  0  0
    1.8339    4.6333   -2.2885 O   0  0  0  0  0  0  0  0  0  0  0  0
    2.7207    4.0488   -1.3391 C   0  0  0  0  0  0  0  0  0  0  0  0
   -0.1055    4.7030   -3.7263 C   0  0  0  0  0  0  0  0  0  0  0  0
    0.2593    6.0206   -4.0433 O   0  0  0  0  0  0  0  0  0  0  0  0
   -0.4951    6.8843   -4.8864 C   0  0  0  0  0  0  0  0  0  0  0  0
   -1.2408    4.0853   -4.2931 C   0  0  0  0  0  0  0  0  0  0  0  0
   -3.7418    2.5280   -5.2723 C   0  0  0  0  0  0  0  0  0  0  0  0
   -4.5621    3.9763   -5.0638 S   0  0  0  0  0  0  0  0  0  0  0  0
   -5.5814    3.8611   -6.4003 C   0  0  0  0  0  0  0  0  0  0  0  0
   -5.2814    2.6468   -7.0467 C   0  0  0  0  0  0  0  0  0  0  0  0
   -4.2632    1.9063   -6.4063 C   0  0  0  0  0  0  0  0  0  0  0  0
   -3.8214    0.6911   -6.9391 C   0  0  0  0  0  0  0  0  0  0  0  0
   -4.4028    0.1975   -8.1241 C   0  0  0  0  0  0  0  0  0  0  0  0
   -4.0026   -1.0207   -8.6966 O   0  0  0  0  0  0  0  0  0  0  0  0
   -3.0163   -1.8878   -8.1447 C   0  0  0  0  0  0  0  0  0  0  0  0
   -5.4108    0.9354   -8.7724 C   0  0  0  0  0  0  0  0  0  0  0  0
   -5.9537    0.4147   -9.9591 O   0  0  0  0  0  0  0  0  0  0  0  0
   -6.9790    1.0443  -10.7222 C   0  0  0  0  0  0  0  0  0  0  0  0
   -5.8456    2.1647   -8.2345 C   0  0  0  0  0  0  0  0  0  0  0  0
   -6.5628    4.9156   -6.7457 C   0  0  0  0  0  0  0  0  0  0  0  0
   -6.5566    6.1964   -6.1909 C   0  0  0  0  0  0  0  0  0  0  0  0
   -7.6203    7.0018   -6.6259 C   0  0  0  0  0  0  0  0  0  0  0  0
   -7.8587    8.3420   -6.2581 C   0  0  0  0  0  0  0  0  0  0  0  0
   -6.9811    9.0580   -5.3116 C   0  0  0  0  0  0  0  0  0  0  0  0
   -6.6870    8.5830   -3.7229 S   0  0  0  0  0  0  0  0  0  0  0  0
   -5.5809    9.8000   -3.3701 C   0  0  0  0  0  0  0  0  0  0  0  0
   -4.8083    9.9007   -2.0894 C   0  0  0  0  0  0  0  0  0  0  0  0
   -3.4800    9.1600   -2.2022 C   0  0  0  0  0  0  0  0  0  0  0  0
   -5.4110   10.5910   -4.5067 C   0  0  0  0  0  0  0  0  0  0  0  0
   -4.2914   11.9449   -4.5889 Cl  0  0  0  0  0  0  0  0  0  0  0  0
   -6.1982   10.1775   -5.5939 C   0  0  0  0  0  0  0  0  0  0  0  0
   -6.1214   10.9344   -7.1802 Cl  0  0  0  0  0  0  0  0  0  0  0  0
   -8.9789    8.9667   -6.8329 C   0  0  0  0  0  0  0  0  0  0  0  0
   -9.8158    8.3218   -7.7486 C   0  0  0  0  0  0  0  0  0  0  0  0
   -9.5606    6.9914   -8.1378 C   0  0  0  0  0  0  0  0  0  0  0  0
  -10.3686    6.3077   -9.1650 C   0  0  0  0  0  0  0  0  0  0  0  0
  -11.2573    4.9000   -8.9173 S   0  0  0  0  0  0  0  0  0  0  0  0
  -11.8193    4.7637  -10.4985 C   0  0  0  0  0  0  0  0  0  0  0  0
  -12.7616    3.7040  -10.9809 C   0  0  0  0  0  0  0  0  0  0  0  0
  -14.2029    4.1998  -10.9323 C   0  0  0  0  0  0  0  0  0  0  0  0
  -11.3235    5.8340  -11.2422 C   0  0  0  0  0  0  0  0  0  0  0  0
  -10.5022    6.6936  -10.4975 C   0  0  0  0  0  0  0  0  0  0  0  0
   -9.6755    8.0804  -11.1946 Cl  0  0  0  0  0  0  0  0  0  0  0  0
  -11.6776    6.0809  -12.9463 Cl  0  0  0  0  0  0  0  0  0  0  0  0
   -8.4625    6.3540   -7.5336 C   0  0  0  0  0  0  0  0  0  0  0  0
   -7.8961    4.7893   -7.7770 S   0  0  0  0  0  0  0  0  0  0  0  0
  -10.8924    9.1223   -8.1661 C   0  0  0  0  0  0  0  0  0  0  0  0
  -10.8951   10.3863   -7.5852 C   0  0  0  0  0  0  0  0  0  0  0  0
   -9.5747   10.5135   -6.5438 S   0  0  0  0  0  0  0  0  0  0  0  0
    6.6162  -10.9000   13.5800 H   0  0  0  0  0  0  0  0  0  0  0  0
    8.0803   -8.9987   12.5713 H   0  0  0  0  0  0  0  0  0  0  0  0
   12.7171   -7.4010   11.1839 H   0  0  0  0  0  0  0  0  0  0  0  0
   12.6139   -5.7132   11.7899 H   0  0  0  0  0  0  0  0  0  0  0  0
   13.9886   -5.8453    9.7174 H   0  0  0  0  0  0  0  0  0  0  0  0
   12.6010   -6.5693    8.8166 H   0  0  0  0  0  0  0  0  0  0  0  0
   12.5055   -4.8657    9.4256 H   0  0  0  0  0  0  0  0  0  0  0  0
   -0.1466  -12.3291    7.8837 H   0  0  0  0  0  0  0  0  0  0  0  0
    1.1636  -12.4983    6.6666 H   0  0  0  0  0  0  0  0  0  0  0  0
   -0.7561  -10.0821    6.8575 H   0  0  0  0  0  0  0  0  0  0  0  0
    0.5126  -10.3606    5.5929 H   0  0  0  0  0  0  0  0  0  0  0  0
   -0.9120  -11.4625    5.7038 H   0  0  0  0  0  0  0  0  0  0  0  0
    3.7495   -7.7782    7.0334 H   0  0  0  0  0  0  0  0  0  0  0  0
    7.8688   -5.0693    5.7917 H   0  0  0  0  0  0  0  0  0  0  0  0
   11.1165   -3.2532    5.3962 H   0  0  0  0  0  0  0  0  0  0  0  0
    9.7133   -3.5236    6.4970 H   0  0  0  0  0  0  0  0  0  0  0  0
   10.2237   -4.8173    5.3193 H   0  0  0  0  0  0  0  0  0  0  0  0
    6.7564   -1.5769    0.8543 H   0  0  0  0  0  0  0  0  0  0  0  0
    7.9160   -0.2504    1.2371 H   0  0  0  0  0  0  0  0  0  0  0  0
    6.3524   -0.3442    2.1327 H   0  0  0  0  0  0  0  0  0  0  0  0
    5.1860   -2.4757    2.5118 H   0  0  0  0  0  0  0  0  0  0  0  0
    2.2389   -5.0782    1.7212 H   0  0  0  0  0  0  0  0  0  0  0  0
    0.4287   -8.8099   -1.9572 H   0  0  0  0  0  0  0  0  0  0  0  0
   -0.5728   -8.6451   -0.4753 H   0  0  0  0  0  0  0  0  0  0  0  0
   -1.9715   -9.2408   -2.4473 H   0  0  0  0  0  0  0  0  0  0  0  0
   -1.4147   -7.7620   -3.3163 H   0  0  0  0  0  0  0  0  0  0  0  0
   -2.4190   -7.6114   -1.8165 H   0  0  0  0  0  0  0  0  0  0  0  0
    2.2199    4.5552    4.4028 H   0  0  0  0  0  0  0  0  0  0  0  0
    3.7194    3.6913    3.9286 H   0  0  0  0  0  0  0  0  0  0  0  0
    3.4906    4.4780    1.5920 H   0  0  0  0  0  0  0  0  0  0  0  0
    1.9063    5.2680    1.9804 H   0  0  0  0  0  0  0  0  0  0  0  0
    3.4321    5.8810    2.7213 H   0  0  0  0  0  0  0  0  0  0  0  0
   -0.2926    1.3184   -0.0638 H   0  0  0  0  0  0  0  0  0  0  0  0
    1.0076    2.1084   -1.8036 H   0  0  0  0  0  0  0  0  0  0  0  0
    3.5033    4.7862   -1.0688 H   0  0  0  0  0  0  0  0  0  0  0  0
    2.1630    3.7646   -0.4210 H   0  0  0  0  0  0  0  0  0  0  0  0
    3.2129    3.1541   -1.7770 H   0  0  0  0  0  0  0  0  0  0  0  0
   -1.5163    7.0248   -4.4716 H   0  0  0  0  0  0  0  0  0  0  0  0
    0.0073    7.8726   -4.9368 H   0  0  0  0  0  0  0  0  0  0  0  0
   -0.5503    6.4614   -5.9123 H   0  0  0  0  0  0  0  0  0  0  0  0
   -1.8345    4.6056   -5.0292 H   0  0  0  0  0  0  0  0  0  0  0  0
   -3.0266    0.1473   -6.4490 H   0  0  0  0  0  0  0  0  0  0  0  0
   -3.3241   -2.2192   -7.1309 H   0  0  0  0  0  0  0  0  0  0  0  0
   -2.9133   -2.7802   -8.7968 H   0  0  0  0  0  0  0  0  0  0  0  0
   -2.0347   -1.3679   -8.0971 H   0  0  0  0  0  0  0  0  0  0  0  0
   -7.9008    1.1447  -10.1134 H   0  0  0  0  0  0  0  0  0  0  0  0
   -7.2059    0.4206  -11.6110 H   0  0  0  0  0  0  0  0  0  0  0  0
   -6.6390    2.0422  -11.0699 H   0  0  0  0  0  0  0  0  0  0  0  0
   -6.5915    2.7338   -8.7553 H   0  0  0  0  0  0  0  0  0  0  0  0
   -5.7916    6.5360   -5.5050 H   0  0  0  0  0  0  0  0  0  0  0  0
   -4.6245   10.9678   -1.8366 H   0  0  0  0  0  0  0  0  0  0  0  0
   -5.4040    9.4549   -1.2633 H   0  0  0  0  0  0  0  0  0  0  0  0
   -2.9081    9.2738   -1.2577 H   0  0  0  0  0  0  0  0  0  0  0  0
   -3.6573    8.0778   -2.3823 H   0  0  0  0  0  0  0  0  0  0  0  0
   -2.8726    9.5753   -3.0348 H   0  0  0  0  0  0  0  0  0  0  0  0
  -12.5039    3.4159  -12.0225 H   0  0  0  0  0  0  0  0  0  0  0  0
  -12.6630    2.7990  -10.3431 H   0  0  0  0  0  0  0  0  0  0  0  0
  -14.4781    4.4825   -9.8938 H   0  0  0  0  0  0  0  0  0  0  0  0
  -14.3322    5.0795  -11.5979 H   0  0  0  0  0  0  0  0  0  0  0  0
  -14.8846    3.3948  -11.2746 H   0  0  0  0  0  0  0  0  0  0  0  0
  -11.6573    8.7946   -8.8575 H   0  0  0  0  0  0  0  0  0  0  0  0
  -11.6362   11.1546   -7.7621 H   0  0  0  0  0  0  0  0  0  0  0  0
  1  2  2  0
  2  3  1  0
  3  4  2  0
  4  5  1  0
  5  6  1  0
  6  7  1  0
  7  8  1  0
  8  9  1  0
  7 10  2  0
 10 11  1  0
 10 12  1  0
 12 13  1  0
  4 14  1  0
 14 15  2  0
 15 16  1  0
 16 17  1  0
 17 18  1  0
 18 19  1  0
 19 20  1  0
 20 21  1  0
 19 22  2  0
 22 23  1  0
 23 24  1  0
 22 25  1  0
 16 26  2  0
 26 27  1  0
 15 28  1  0
 28 29  2  0
 29 30  1  0
 29 31  1  0
 31 32  1  0
 32 33  1  0
 33 34  2  0
 34 35  1  0
 35 36  1  0
 36 37  2  0
 37 38  1  0
 38 39  1  0
 37 40  1  0
 40 41  1  0
 41 42  1  0
 40 43  2  0
 33 44  1  0
 44 45  2  0
 45 46  1  0
 46 47  2  0
 47 48  1  0
 48 49  1  0
 49 50  1  0
 50 51  1  0
 51 52  1  0
 50 53  2  0
 53 54  1  0
 53 55  1  0
 55 56  1  0
 47 57  1  0
 57 58  2  0
 58 59  1  0
 59 60  1  0
 60 61  1  0
 61 62  1  0
 62 63  1  0
 63 64  1  0
 62 65  2  0
 65 66  1  0
 66 67  1  0
 65 68  1  0
 59 69  2  0
 69 70  1  0
 58 71  1  0
 71 72  2  0
 72 73  1  0
 72 74  1  0
 74 75  1  0
 75 76  1  0
 76 77  2  0
 77 78  1  0
 78 79  1  0
 79 80  2  0
 80 81  1  0
 81 82  1  0
 80 83  1  0
 83 84  1  0
 84 85  1  0
 83 86  2  0
 76 87  1  0
 87 88  1  0
 88 89  1  0
 89 90  2  0
 90 91  1  0
 91 92  1  0
 92 93  2  0
 93 94  1  0
 94 95  1  0
 93 96  1  0
 96 97  1  0
 97 98  1  0
 96 99  2  0
 89100  1  0
100101  2  0
101102  1  0
102103  2  0
103104  1  0
104105  1  0
105106  1  0
106107  1  0
107108  1  0
106109  2  0
109110  1  0
109111  1  0
111112  1  0
103113  1  0
113114  2  0
114115  1  0
115116  1  0
116117  1  0
117118  1  0
118119  1  0
119120  1  0
118121  2  0
121122  1  0
122123  1  0
121124  1  0
115125  2  0
125126  1  0
114127  1  0
127128  2  0
128129  1  0
 27  1  1  0
 35 31  2  0
 70 44  1  0
 78 74  2  0
 91 87  2  0
126100  1  0
 26  3  1  0
 43 34  1  0
 69 46  1  0
 86 77  1  0
 99 90  1  0
125102  1  0
 12  5  2  0
 30 14  1  0
 55 48  2  0
 73 57  1  0
111104  2  0
129113  1  0
 23 17  2  0
 66 60  2  0
122116  2  0
  1130  1  0
  2131  1  0
  8132  1  0
  8133  1  0
  9134  1  0
  9135  1  0
  9136  1  0
 20137  1  0
 20138  1  0
 21139  1  0
 21140  1  0
 21141  1  0
 28142  1  0
 36143  1  0
 39144  1  0
 39145  1  0
 39146  1  0
 42147  1  0
 42148  1  0
 42149  1  0
 43150  1  0
 45151  1  0
 51152  1  0
 51153  1  0
 52154  1  0
 52155  1  0
 52156  1  0
 63157  1  0
 63158  1  0
 64159  1  0
 64160  1  0
 64161  1  0
 71162  1  0
 79163  1  0
 82164  1  0
 82165  1  0
 82166  1  0
 85167  1  0
 85168  1  0
 85169  1  0
 86170  1  0
 92171  1  0
 95172  1  0
 95173  1  0
 95174  1  0
 98175  1  0
 98176  1  0
 98177  1  0
 99178  1  0
101179  1  0
107180  1  0
107181  1  0
108182  1  0
108183  1  0
108184  1  0
119185  1  0
119186  1  0
120187  1  0
120188  1  0
120189  1  0
127190  1  0
128191  1  0
M  END

