
     RDKit          3D

186203  0  0  0  0  0  0  0  0999 V2000
    8.5613   -0.3391   10.7517 C   0  0  0  0  0  0  0  0  0  0  0  0
    7.0996   -0.6501    9.9786 S   0  0  0  0  0  0  0  0  0  0  0  0
    7.7365   -1.3727    8.5960 C   0  0  0  0  0  0  0  0  0  0  0  0
    9.1269   -1.4054    8.7388 C   0  0  0  0  0  0  0  0  0  0  0  0
    9.5771   -0.8071    9.9266 C   0  0  0  0  0  0  0  0  0  0  0  0
   10.9404   -0.7081   10.2046 C   0  0  0  0  0  0  0  0  0  0  0  0
   11.8761   -1.2293    9.2835 C   0  0  0  0  0  0  0  0  0  0  0  0
   13.2596   -1.1208    9.4934 O   0  0  0  0  0  0  0  0  0  0  0  0
   13.8595   -0.4033   10.5680 C   0  0  0  0  0  0  0  0  0  0  0  0
   11.4249   -1.8776    8.1141 C   0  0  0  0  0  0  0  0  0  0  0  0
   12.3844   -2.3972    7.2306 O   0  0  0  0  0  0  0  0  0  0  0  0
   12.0827   -3.0345    5.9948 C   0  0  0  0  0  0  0  0  0  0  0  0
   10.0423   -1.9811    7.8518 C   0  0  0  0  0  0  0  0  0  0  0  0
    6.9311   -1.8037    7.4394 C   0  0  0  0  0  0  0  0  0  0  0  0
    5.4798   -2.6539    7.5603 S   0  0  0  0  0  0  0  0  0  0  0  0
    5.1124   -2.6710    5.9154 C   0  0  0  0  0  0  0  0  0  0  0  0
    6.1238   -1.9800    5.2455 C   0  0  0  0  0  0  0  0  0  0  0  0
    7.1236   -1.4761    6.0932 C   0  0  0  0  0  0  0  0  0  0  0  0
    8.1368   -0.6610    5.5739 C   0  0  0  0  0  0  0  0  0  0  0  0
    8.2070   -0.4324    4.1839 C   0  0  0  0  0  0  0  0  0  0  0  0
    9.2250    0.3458    3.6127 O   0  0  0  0  0  0  0  0  0  0  0  0
   10.2867    0.9557    4.3400 C   0  0  0  0  0  0  0  0  0  0  0  0
    7.2379   -0.9905    3.3271 C   0  0  0  0  0  0  0  0  0  0  0  0
    7.3534   -0.7538    1.9473 O   0  0  0  0  0  0  0  0  0  0  0  0
    6.4577   -1.2642    0.9628 C   0  0  0  0  0  0  0  0  0  0  0  0
    6.1827   -1.7572    3.8655 C   0  0  0  0  0  0  0  0  0  0  0  0
    3.8024   -3.0507    5.3611 C   0  0  0  0  0  0  0  0  0  0  0  0
    2.8466   -2.0283    4.4309 S   0  0  0  0  0  0  0  0  0  0  0  0
    1.5624   -3.0904    4.1938 C   0  0  0  0  0  0  0  0  0  0  0  0
    1.8612   -4.2772    4.8729 C   0  0  0  0  0  0  0  0  0  0  0  0
    3.1097   -4.2531    5.5248 C   0  0  0  0  0  0  0  0  0  0  0  0
    3.5680   -5.3750    6.2242 C   0  0  0  0  0  0  0  0  0  0  0  0
    2.7601   -6.5308    6.2914 C   0  0  0  0  0  0  0  0  0  0  0  0
    3.1718   -7.6849    6.9746 O   0  0  0  0  0  0  0  0  0  0  0  0
    4.4190   -7.8247    7.6485 C   0  0  0  0  0  0  0  0  0  0  0  0
    1.4991   -6.5482    5.6597 C   0  0  0  0  0  0  0  0  0  0  0  0
    0.7285   -7.7210    5.7384 O   0  0  0  0  0  0  0  0  0  0  0  0
   -0.5170   -7.9176    5.0702 C   0  0  0  0  0  0  0  0  0  0  0  0
    1.0430   -5.4080    4.9647 C   0  0  0  0  0  0  0  0  0  0  0  0
    0.4239   -2.7852    3.3139 C   0  0  0  0  0  0  0  0  0  0  0  0
   -0.1970   -3.6685    2.4309 C   0  0  0  0  0  0  0  0  0  0  0  0
   -1.0862   -3.0291    1.5472 C   0  0  0  0  0  0  0  0  0  0  0  0
   -1.7877   -3.6328    0.4799 C   0  0  0  0  0  0  0  0  0  0  0  0
   -1.6779   -5.0802    0.1906 C   0  0  0  0  0  0  0  0  0  0  0  0
   -2.8157   -5.9006    0.2440 C   0  0  0  0  0  0  0  0  0  0  0  0
   -2.7023   -7.2758    0.0228 C   0  0  0  0  0  0  0  0  0  0  0  0
   -1.4499   -7.8458   -0.2395 C   0  0  0  0  0  0  0  0  0  0  0  0
   -1.3124   -9.6188   -0.4883 S   0  0  0  0  0  0  0  0  0  0  0  0
   -0.8549  -10.0012    1.2397 C   0  0  0  0  0  0  0  0  0  0  0  0
   -2.0723   -9.9779    2.1558 C   0  0  0  0  0  0  0  0  0  0  0  0
   -0.3160   -7.0250   -0.3300 C   0  0  0  0  0  0  0  0  0  0  0  0
    0.8994   -7.5594   -0.6053 F   0  0  0  0  0  0  0  0  0  0  0  0
   -0.4309   -5.6488   -0.1176 C   0  0  0  0  0  0  0  0  0  0  0  0
   -2.5497   -2.7808   -0.3398 C   0  0  0  0  0  0  0  0  0  0  0  0
   -2.6150   -1.3966   -0.1347 C   0  0  0  0  0  0  0  0  0  0  0  0
   -1.9151   -0.7931    0.9298 C   0  0  0  0  0  0  0  0  0  0  0  0
   -1.8498    0.6743    1.1080 C   0  0  0  0  0  0  0  0  0  0  0  0
   -2.2202    1.2573    2.3302 C   0  0  0  0  0  0  0  0  0  0  0  0
   -2.0555    2.6286    2.5358 C   0  0  0  0  0  0  0  0  0  0  0  0
   -1.5194    3.4325    1.5203 C   0  0  0  0  0  0  0  0  0  0  0  0
   -1.2483    5.1852    1.8123 S   0  0  0  0  0  0  0  0  0  0  0  0
   -2.8816    5.7121    1.1851 C   0  0  0  0  0  0  0  0  0  0  0  0
   -3.9005    5.7516    2.3205 C   0  0  0  0  0  0  0  0  0  0  0  0
   -1.1595    2.8595    0.2941 C   0  0  0  0  0  0  0  0  0  0  0  0
   -1.3132    1.4846    0.0929 C   0  0  0  0  0  0  0  0  0  0  0  0
   -0.6196    3.6229   -0.6902 F   0  0  0  0  0  0  0  0  0  0  0  0
   -1.1670   -1.6473    1.7554 C   0  0  0  0  0  0  0  0  0  0  0  0
   -0.1126   -1.2204    2.9940 S   0  0  0  0  0  0  0  0  0  0  0  0
   -3.3487   -0.7278   -1.1252 C   0  0  0  0  0  0  0  0  0  0  0  0
   -3.8040   -1.5736   -2.1336 C   0  0  0  0  0  0  0  0  0  0  0  0
   -3.3631   -3.1624   -1.7625 S   0  0  0  0  0  0  0  0  0  0  0  0
   -4.4279   -1.0946   -3.3808 C   0  0  0  0  0  0  0  0  0  0  0  0
   -5.3917    0.2863   -3.4601 S   0  0  0  0  0  0  0  0  0  0  0  0
   -5.4388    0.4304   -5.1336 C   0  0  0  0  0  0  0  0  0  0  0  0
   -4.6761   -0.6105   -5.6676 C   0  0  0  0  0  0  0  0  0  0  0  0
   -4.1018   -1.4521   -4.6967 C   0  0  0  0  0  0  0  0  0  0  0  0
   -3.2144   -2.4634   -5.0885 C   0  0  0  0  0  0  0  0  0  0  0  0
   -2.9319   -2.6601   -6.4564 C   0  0  0  0  0  0  0  0  0  0  0  0
   -2.0309   -3.6453   -6.8933 O   0  0  0  0  0  0  0  0  0  0  0  0
   -1.2328   -4.4458   -6.0293 C   0  0  0  0  0  0  0  0  0  0  0  0
   -3.5510   -1.8488   -7.4274 C   0  0  0  0  0  0  0  0  0  0  0  0
   -3.2553   -2.0901   -8.7796 O   0  0  0  0  0  0  0  0  0  0  0  0
   -3.7478   -1.3082   -9.8645 C   0  0  0  0  0  0  0  0  0  0  0  0
   -4.4276   -0.8192   -7.0287 C   0  0  0  0  0  0  0  0  0  0  0  0
   -5.8784    1.6491   -5.8260 C   0  0  0  0  0  0  0  0  0  0  0  0
   -5.0945    2.3779   -6.7187 C   0  0  0  0  0  0  0  0  0  0  0  0
   -5.6586    3.6172   -7.0587 C   0  0  0  0  0  0  0  0  0  0  0  0
   -5.0714    4.6108   -7.8721 C   0  0  0  0  0  0  0  0  0  0  0  0
   -3.7131    4.4615   -8.4404 C   0  0  0  0  0  0  0  0  0  0  0  0
   -2.6139    4.2319   -7.5966 C   0  0  0  0  0  0  0  0  0  0  0  0
   -1.3265    4.1225   -8.1288 C   0  0  0  0  0  0  0  0  0  0  0  0
   -1.1179    4.2807   -9.5022 C   0  0  0  0  0  0  0  0  0  0  0  0
    0.5453    4.2017  -10.1725 S   0  0  0  0  0  0  0  0  0  0  0  0
    0.9011    5.9820   -9.9453 C   0  0  0  0  0  0  0  0  0  0  0  0
    1.5193    6.2362   -8.5746 C   0  0  0  0  0  0  0  0  0  0  0  0
   -2.2157    4.4897  -10.3549 C   0  0  0  0  0  0  0  0  0  0  0  0
   -2.0286    4.6376  -11.6875 F   0  0  0  0  0  0  0  0  0  0  0  0
   -3.5032    4.5820   -9.8235 C   0  0  0  0  0  0  0  0  0  0  0  0
   -5.8146    5.7937   -8.0580 C   0  0  0  0  0  0  0  0  0  0  0  0
   -7.0575    6.0083   -7.4550 C   0  0  0  0  0  0  0  0  0  0  0  0
   -7.6284    5.0217   -6.6293 C   0  0  0  0  0  0  0  0  0  0  0  0
   -8.9243    5.2204   -5.9571 C   0  0  0  0  0  0  0  0  0  0  0  0
  -10.0821    4.6311   -6.4836 C   0  0  0  0  0  0  0  0  0  0  0  0
  -11.3080    4.7938   -5.8338 C   0  0  0  0  0  0  0  0  0  0  0  0
  -11.3818    5.5358   -4.6483 C   0  0  0  0  0  0  0  0  0  0  0  0
  -12.9522    5.6986   -3.7943 S   0  0  0  0  0  0  0  0  0  0  0  0
  -12.7803    4.1294   -2.8744 C   0  0  0  0  0  0  0  0  0  0  0  0
  -13.5045    4.2320   -1.5388 C   0  0  0  0  0  0  0  0  0  0  0  0
  -10.2262    6.1396   -4.1280 C   0  0  0  0  0  0  0  0  0  0  0  0
   -9.0018    5.9873   -4.7861 C   0  0  0  0  0  0  0  0  0  0  0  0
  -10.2882    6.8744   -2.9919 F   0  0  0  0  0  0  0  0  0  0  0  0
   -6.8965    3.8377   -6.4478 C   0  0  0  0  0  0  0  0  0  0  0  0
   -7.2640    2.5329   -5.4500 S   0  0  0  0  0  0  0  0  0  0  0  0
   -7.6063    7.2688   -7.7448 C   0  0  0  0  0  0  0  0  0  0  0  0
   -6.7922    8.0433   -8.5641 C   0  0  0  0  0  0  0  0  0  0  0  0
   -5.3924    7.1750   -8.9269 S   0  0  0  0  0  0  0  0  0  0  0  0
    8.6858    0.1477   11.7095 H   0  0  0  0  0  0  0  0  0  0  0  0
   11.2592   -0.2268   11.1201 H   0  0  0  0  0  0  0  0  0  0  0  0
   13.5533    0.6639   10.5329 H   0  0  0  0  0  0  0  0  0  0  0  0
   13.5699   -0.8536   11.5405 H   0  0  0  0  0  0  0  0  0  0  0  0
   14.9637   -0.4576   10.4676 H   0  0  0  0  0  0  0  0  0  0  0  0
   11.4859   -3.9534    6.1752 H   0  0  0  0  0  0  0  0  0  0  0  0
   13.0282   -3.3189    5.4916 H   0  0  0  0  0  0  0  0  0  0  0  0
   11.5248   -2.3389    5.3323 H   0  0  0  0  0  0  0  0  0  0  0  0
    9.6823   -2.4949    6.9720 H   0  0  0  0  0  0  0  0  0  0  0  0
    8.8526   -0.2012    6.2377 H   0  0  0  0  0  0  0  0  0  0  0  0
    9.8780    1.6851    5.0696 H   0  0  0  0  0  0  0  0  0  0  0  0
   10.8828    0.1805    4.8643 H   0  0  0  0  0  0  0  0  0  0  0  0
   10.9482    1.4917    3.6290 H   0  0  0  0  0  0  0  0  0  0  0  0
    6.4572   -2.3742    0.9893 H   0  0  0  0  0  0  0  0  0  0  0  0
    6.7940   -0.9329   -0.0407 H   0  0  0  0  0  0  0  0  0  0  0  0
    5.4333   -0.8747    1.1424 H   0  0  0  0  0  0  0  0  0  0  0  0
    5.4323   -2.1908    3.2198 H   0  0  0  0  0  0  0  0  0  0  0  0
    4.5401   -5.3502    6.6964 H   0  0  0  0  0  0  0  0  0  0  0  0
    4.4759   -8.8358    8.0997 H   0  0  0  0  0  0  0  0  0  0  0  0
    4.5009   -7.0666    8.4574 H   0  0  0  0  0  0  0  0  0  0  0  0
    5.2559   -7.7120    6.9275 H   0  0  0  0  0  0  0  0  0  0  0  0
   -0.3897   -7.7909    3.9736 H   0  0  0  0  0  0  0  0  0  0  0  0
   -0.8764   -8.9482    5.2697 H   0  0  0  0  0  0  0  0  0  0  0  0
   -1.2720   -7.1992    5.4521 H   0  0  0  0  0  0  0  0  0  0  0  0
    0.0582   -5.4005    4.5233 H   0  0  0  0  0  0  0  0  0  0  0  0
    0.0505   -4.7173    2.3711 H   0  0  0  0  0  0  0  0  0  0  0  0
   -3.7863   -5.4776    0.4719 H   0  0  0  0  0  0  0  0  0  0  0  0
   -3.5829   -7.9010    0.0730 H   0  0  0  0  0  0  0  0  0  0  0  0
   -0.4141  -11.0203    1.2605 H   0  0  0  0  0  0  0  0  0  0  0  0
   -0.0883   -9.2870    1.6086 H   0  0  0  0  0  0  0  0  0  0  0  0
   -1.7929  -10.3751    3.1552 H   0  0  0  0  0  0  0  0  0  0  0  0
   -2.4427   -8.9396    2.2879 H   0  0  0  0  0  0  0  0  0  0  0  0
   -2.8859  -10.6083    1.7371 H   0  0  0  0  0  0  0  0  0  0  0  0
    0.4537   -5.0276   -0.1801 H   0  0  0  0  0  0  0  0  0  0  0  0
   -2.6153    0.6437    3.1296 H   0  0  0  0  0  0  0  0  0  0  0  0
   -2.3229    3.0599    3.4912 H   0  0  0  0  0  0  0  0  0  0  0  0
   -2.7764    6.7348    0.7663 H   0  0  0  0  0  0  0  0  0  0  0  0
   -3.2377    5.0430    0.3718 H   0  0  0  0  0  0  0  0  0  0  0  0
   -3.5521    6.4431    3.1181 H   0  0  0  0  0  0  0  0  0  0  0  0
   -4.0466    4.7372    2.7534 H   0  0  0  0  0  0  0  0  0  0  0  0
   -4.8773    6.1172    1.9349 H   0  0  0  0  0  0  0  0  0  0  0  0
   -0.9948    1.0483   -0.8455 H   0  0  0  0  0  0  0  0  0  0  0  0
   -3.4855    0.3466   -1.1541 H   0  0  0  0  0  0  0  0  0  0  0  0
   -2.7274   -3.0773   -4.3507 H   0  0  0  0  0  0  0  0  0  0  0  0
   -0.5923   -5.1115   -6.6408 H   0  0  0  0  0  0  0  0  0  0  0  0
   -0.5787   -3.7980   -5.4069 H   0  0  0  0  0  0  0  0  0  0  0  0
   -1.8800   -5.0721   -5.3801 H   0  0  0  0  0  0  0  0  0  0  0  0
   -3.3490   -1.7186  -10.8148 H   0  0  0  0  0  0  0  0  0  0  0  0
   -4.8566   -1.3519   -9.8955 H   0  0  0  0  0  0  0  0  0  0  0  0
   -3.4040   -0.2559   -9.7629 H   0  0  0  0  0  0  0  0  0  0  0  0
   -4.9069   -0.1887   -7.7637 H   0  0  0  0  0  0  0  0  0  0  0  0
   -4.1249    2.0419   -7.0590 H   0  0  0  0  0  0  0  0  0  0  0  0
   -2.7536    4.1459   -6.5267 H   0  0  0  0  0  0  0  0  0  0  0  0
   -0.4903    3.9384   -7.4656 H   0  0  0  0  0  0  0  0  0  0  0  0
   -0.0195    6.5941  -10.0648 H   0  0  0  0  0  0  0  0  0  0  0  0
    1.6252    6.2944  -10.7262 H   0  0  0  0  0  0  0  0  0  0  0  0
    2.4307    5.6147   -8.4398 H   0  0  0  0  0  0  0  0  0  0  0  0
    1.7977    7.3069   -8.4872 H   0  0  0  0  0  0  0  0  0  0  0  0
    0.7920    5.9991   -7.7713 H   0  0  0  0  0  0  0  0  0  0  0  0
   -4.3399    4.7490  -10.4906 H   0  0  0  0  0  0  0  0  0  0  0  0
  -10.0326    4.0413   -7.3911 H   0  0  0  0  0  0  0  0  0  0  0  0
  -12.1971    4.3353   -6.2471 H   0  0  0  0  0  0  0  0  0  0  0  0
  -11.7100    3.8930   -2.6762 H   0  0  0  0  0  0  0  0  0  0  0  0
  -13.2243    3.3064   -3.4736 H   0  0  0  0  0  0  0  0  0  0  0  0
  -14.5799    4.4702   -1.6976 H   0  0  0  0  0  0  0  0  0  0  0  0
  -13.0386    5.0314   -0.9232 H   0  0  0  0  0  0  0  0  0  0  0  0
  -13.4209    3.2678   -0.9914 H   0  0  0  0  0  0  0  0  0  0  0  0
   -8.1138    6.4570   -4.3817 H   0  0  0  0  0  0  0  0  0  0  0  0
   -8.5589    7.6160   -7.3650 H   0  0  0  0  0  0  0  0  0  0  0  0
   -7.0164    9.0432   -8.9072 H   0  0  0  0  0  0  0  0  0  0  0  0
  1  2  1  0
  2  3  1  0
  3  4  2  0
  4  5  1  0
  5  6  1  0
  6  7  2  0
  7  8  1  0
  8  9  1  0
  7 10  1  0
 10 11  1  0
 11 12  1  0
 10 13  2  0
  3 14  1  0
 14 15  1  0
 15 16  1  0
 16 17  2  0
 17 18  1  0
 18 19  1  0
 19 20  2  0
 20 21  1  0
 21 22  1  0
 20 23  1  0
 23 24  1  0
 24 25  1  0
 23 26  2  0
 16 27  1  0
 27 28  1  0
 28 29  1  0
 29 30  2  0
 30 31  1  0
 31 32  1  0
 32 33  2  0
 33 34  1  0
 34 35  1  0
 33 36  1  0
 36 37  1  0
 37 38  1  0
 36 39  2  0
 29 40  1  0
 40 41  2  0
 41 42  1  0
 42 43  2  0
 43 44  1  0
 44 45  2  0
 45 46  1  0
 46 47  2  0
 47 48  1  0
 48 49  1  0
 49 50  1  0
 47 51  1  0
 51 52  1  0
 51 53  2  0
 43 54  1  0
 54 55  2  0
 55 56  1  0
 56 57  1  0
 57 58  2  0
 58 59  1  0
 59 60  2  0
 60 61  1  0
 61 62  1  0
 62 63  1  0
 60 64  1  0
 64 65  2  0
 64 66  1  0
 56 67  2  0
 67 68  1  0
 55 69  1  0
 69 70  2  0
 70 71  1  0
 70 72  1  0
 72 73  1  0
 73 74  1  0
 74 75  2  0
 75 76  1  0
 76 77  1  0
 77 78  2  0
 78 79  1  0
 79 80  1  0
 78 81  1  0
 81 82  1  0
 82 83  1  0
 81 84  2  0
 74 85  1  0
 85 86  2  0
 86 87  1  0
 87 88  2  0
 88 89  1  0
 89 90  2  0
 90 91  1  0
 91 92  2  0
 92 93  1  0
 93 94  1  0
 94 95  1  0
 92 96  1  0
 96 97  1  0
 96 98  2  0
 88 99  1  0
 99100  2  0
100101  1  0
101102  1  0
102103  2  0
103104  1  0
104105  2  0
105106  1  0
106107  1  0
107108  1  0
105109  1  0
109110  2  0
109111  1  0
101112  2  0
112113  1  0
100114  1  0
114115  2  0
115116  1  0
  5  1  2  0
 18 14  2  0
 31 27  2  0
 68 40  1  0
 76 72  2  0
113 85  1  0
 13  4  1  0
 26 17  1  0
 39 30  1  0
 67 42  1  0
 84 75  1  0
112 87  1  0
 53 44  1  0
 71 54  1  0
 98 89  1  0
116 99  1  0
 65 57  1  0
110102  1  0
  1117  1  0
  6118  1  0
  9119  1  0
  9120  1  0
  9121  1  0
 12122  1  0
 12123  1  0
 12124  1  0
 13125  1  0
 19126  1  0
 22127  1  0
 22128  1  0
 22129  1  0
 25130  1  0
 25131  1  0
 25132  1  0
 26133  1  0
 32134  1  0
 35135  1  0
 35136  1  0
 35137  1  0
 38138  1  0
 38139  1  0
 38140  1  0
 39141  1  0
 41142  1  0
 45143  1  0
 46144  1  0
 49145  1  0
 49146  1  0
 50147  1  0
 50148  1  0
 50149  1  0
 53150  1  0
 58151  1  0
 59152  1  0
 62153  1  0
 62154  1  0
 63155  1  0
 63156  1  0
 63157  1  0
 65158  1  0
 69159  1  0
 77160  1  0
 80161  1  0
 80162  1  0
 80163  1  0
 83164  1  0
 83165  1  0
 83166  1  0
 84167  1  0
 86168  1  0
 90169  1  0
 91170  1  0
 94171  1  0
 94172  1  0
 95173  1  0
 95174  1  0
 95175  1  0
 98176  1  0
103177  1  0
104178  1  0
107179  1  0
107180  1  0
108181  1  0
108182  1  0
108183  1  0
110184  1  0
114185  1  0
115186  1  0
M  END

