
     RDKit          3D

118129  0  0  0  0  0  0  0  0999 V2000
   -2.8193    5.1483   -9.5302 C   0  0  0  0  0  0  0  0  0  0  0  0
   -3.6006    4.3973   -8.2482 S   0  0  0  0  0  0  0  0  0  0  0  0
   -2.2347    4.1399   -7.2968 C   0  0  0  0  0  0  0  0  0  0  0  0
   -1.1229    4.6301   -7.9871 C   0  0  0  0  0  0  0  0  0  0  0  0
   -1.4623    5.2150   -9.2267 C   0  0  0  0  0  0  0  0  0  0  0  0
   -0.4448    5.8092  -10.1620 C   0  0  2  0  0  0  0  0  0  0  0  0
   -0.0468    4.5986  -11.4708 S   0  0  0  0  0  0  0  0  0  0  0  0
    0.8251    6.2340   -9.3999 C   0  0  0  0  0  0  0  0  0  0  0  0
    1.3310    5.1193   -8.4696 C   0  0  0  0  0  0  0  0  0  0  0  0
    0.2791    4.6916   -7.4203 C   0  0  1  0  0  0  0  0  0  0  0  0
    0.3106    5.5410   -6.3002 O   0  0  0  0  0  0  0  0  0  0  0  0
   -2.2515    3.5076   -5.9658 C   0  0  0  0  0  0  0  0  0  0  0  0
   -1.2585    2.2238   -5.5215 S   0  0  0  0  0  0  0  0  0  0  0  0
   -1.9710    1.9303   -4.0270 C   0  0  0  0  0  0  0  0  0  0  0  0
   -3.0323    2.8283   -3.8573 C   0  0  0  0  0  0  0  0  0  0  0  0
   -3.1562    3.7538   -4.9178 C   0  0  0  0  0  0  0  0  0  0  0  0
   -4.1845    4.8704   -4.9033 C   0  0  2  0  0  0  0  0  0  0  0  0
   -3.4151    6.4654   -5.3500 S   0  0  0  0  0  0  0  0  0  0  0  0
   -4.8510    5.0245   -3.5242 C   0  0  0  0  0  0  0  0  0  0  0  0
   -5.2266    3.6636   -2.9347 C   0  0  0  0  0  0  0  0  0  0  0  0
   -3.9690    2.8231   -2.6665 C   0  0  1  0  0  0  0  0  0  0  0  0
   -4.3445    1.5143   -2.3163 O   0  0  0  0  0  0  0  0  0  0  0  0
   -1.5090    0.9157   -3.0652 C   0  0  0  0  0  0  0  0  0  0  0  0
   -1.2114    1.2294   -1.4421 S   0  0  0  0  0  0  0  0  0  0  0  0
   -0.6284   -0.2979   -1.0535 C   0  0  0  0  0  0  0  0  0  0  0  0
   -0.6508   -1.0947   -2.2076 C   0  0  0  0  0  0  0  0  0  0  0  0
   -1.2126   -0.4324   -3.3243 C   0  0  0  0  0  0  0  0  0  0  0  0
   -1.4483   -1.1290   -4.6535 C   0  0  2  0  0  0  0  0  0  0  0  0
   -3.1233   -0.7732   -5.3052 S   0  0  0  0  0  0  0  0  0  0  0  0
   -1.3065   -2.6566   -4.5342 C   0  0  0  0  0  0  0  0  0  0  0  0
   -0.0797   -3.0351   -3.7075 C   0  0  0  0  0  0  0  0  0  0  0  0
   -0.2307   -2.5489   -2.2533 C   0  0  1  0  0  0  0  0  0  0  0  0
    0.9958   -2.7132   -1.5930 O   0  0  0  0  0  0  0  0  0  0  0  0
   -0.3793   -0.7504    0.3251 C   0  0  0  0  0  0  0  0  0  0  0  0
    1.1216   -1.1380    0.9749 S   0  0  0  0  0  0  0  0  0  0  0  0
    0.5892   -1.5843    2.5129 C   0  0  0  0  0  0  0  0  0  0  0  0
   -0.8027   -1.3905    2.5423 C   0  0  0  0  0  0  0  0  0  0  0  0
   -1.3311   -0.9176    1.3256 C   0  0  0  0  0  0  0  0  0  0  0  0
   -2.6994   -0.6543    1.1947 C   0  0  0  0  0  0  0  0  0  0  0  0
   -3.5523   -0.8343    2.3016 C   0  0  0  0  0  0  0  0  0  0  0  0
   -4.9219   -0.5306    2.2380 O   0  0  0  0  0  0  0  0  0  0  0  0
   -5.5777    0.0033    1.0921 C   0  0  0  0  0  0  0  0  0  0  0  0
   -3.0348   -1.3222    3.5167 C   0  0  0  0  0  0  0  0  0  0  0  0
   -3.9203   -1.4812    4.5981 O   0  0  0  0  0  0  0  0  0  0  0  0
   -3.5299   -1.8726    5.9086 C   0  0  0  0  0  0  0  0  0  0  0  0
   -1.6597   -1.6250    3.6282 C   0  0  0  0  0  0  0  0  0  0  0  0
    1.4783   -2.0498    3.6091 C   0  0  0  0  0  0  0  0  0  0  0  0
    1.2685   -1.6623    5.2371 S   0  0  0  0  0  0  0  0  0  0  0  0
    2.6311   -2.4387    5.8113 C   0  0  0  0  0  0  0  0  0  0  0  0
    3.3301   -2.9743    4.7308 C   0  0  0  0  0  0  0  0  0  0  0  0
    2.6563   -2.8172    3.4969 C   0  0  0  0  0  0  0  0  0  0  0  0
    3.1856   -3.4246    2.2071 C   0  0  2  0  0  0  0  0  0  0  0  0
    1.8998   -4.4751    1.4406 S   0  0  0  0  0  0  0  0  0  0  0  0
    4.4473   -4.2877    2.4318 C   0  0  0  0  0  0  0  0  0  0  0  0
    5.3790   -3.6655    3.4731 C   0  0  0  0  0  0  0  0  0  0  0  0
    4.6826   -3.6405    4.8447 C   0  0  1  0  0  0  0  0  0  0  0  0
    5.4867   -2.9373    5.7573 O   0  0  0  0  0  0  0  0  0  0  0  0
    2.9324   -2.6229    7.2334 C   0  0  0  0  0  0  0  0  0  0  0  0
    3.2859   -1.3829    8.3115 S   0  0  0  0  0  0  0  0  0  0  0  0
    3.4395   -2.3511    9.6819 C   0  0  0  0  0  0  0  0  0  0  0  0
    3.1995   -3.6675    9.3015 C   0  0  0  0  0  0  0  0  0  0  0  0
    2.9023   -3.8235    7.9411 C   0  0  0  0  0  0  0  0  0  0  0  0
    2.4296   -5.1531    7.4051 C   0  0  2  0  0  0  0  0  0  0  0  0
    0.6081   -5.2268    7.5515 S   0  0  0  0  0  0  0  0  0  0  0  0
    3.0790   -6.3666    8.1379 C   0  0  0  0  0  0  0  0  0  0  0  0
    3.8285   -6.0403    9.4526 C   0  0  0  0  0  0  0  0  0  0  0  0
    3.2075   -4.8567   10.2167 C   0  0  1  0  0  0  0  0  0  0  0  0
    3.9589   -4.5805   11.3692 O   0  0  0  0  0  0  0  0  0  0  0  0
   -3.2861    5.5212  -10.4299 H   0  0  0  0  0  0  0  0  0  0  0  0
   -0.8848    6.7064  -10.6476 H   0  0  0  0  0  0  0  0  0  0  0  0
    0.6485    5.5419  -12.2398 H   0  0  0  0  0  0  0  0  0  0  0  0
    1.6234    6.5077  -10.1215 H   0  0  0  0  0  0  0  0  0  0  0  0
    0.5958    7.1435   -8.8040 H   0  0  0  0  0  0  0  0  0  0  0  0
    1.6171    4.2375   -9.0829 H   0  0  0  0  0  0  0  0  0  0  0  0
    2.2503    5.4653   -7.9507 H   0  0  0  0  0  0  0  0  0  0  0  0
    0.5615    3.6755   -7.0781 H   0  0  0  0  0  0  0  0  0  0  0  0
    0.0873    6.4582   -6.6098 H   0  0  0  0  0  0  0  0  0  0  0  0
   -4.9742    4.6317   -5.6472 H   0  0  0  0  0  0  0  0  0  0  0  0
   -4.6519    7.1373   -5.4241 H   0  0  0  0  0  0  0  0  0  0  0  0
   -5.7705    5.6433   -3.6231 H   0  0  0  0  0  0  0  0  0  0  0  0
   -4.1658    5.5485   -2.8175 H   0  0  0  0  0  0  0  0  0  0  0  0
   -5.7866    3.8102   -1.9855 H   0  0  0  0  0  0  0  0  0  0  0  0
   -5.8984    3.1363   -3.6485 H   0  0  0  0  0  0  0  0  0  0  0  0
   -3.4282    3.2709   -1.8054 H   0  0  0  0  0  0  0  0  0  0  0  0
   -4.7608    1.0974   -3.1182 H   0  0  0  0  0  0  0  0  0  0  0  0
   -0.6909   -0.7534   -5.3780 H   0  0  0  0  0  0  0  0  0  0  0  0
   -2.7288   -1.0068   -6.6385 H   0  0  0  0  0  0  0  0  0  0  0  0
   -1.2056   -3.1002   -5.5485 H   0  0  0  0  0  0  0  0  0  0  0  0
   -2.2148   -3.0940   -4.0586 H   0  0  0  0  0  0  0  0  0  0  0  0
    0.8232   -2.5700   -4.1640 H   0  0  0  0  0  0  0  0  0  0  0  0
    0.0558   -4.1371   -3.7142 H   0  0  0  0  0  0  0  0  0  0  0  0
   -1.0226   -3.1440   -1.7448 H   0  0  0  0  0  0  0  0  0  0  0  0
    1.0979   -3.6882   -1.4242 H   0  0  0  0  0  0  0  0  0  0  0  0
   -3.0895   -0.3045    0.2502 H   0  0  0  0  0  0  0  0  0  0  0  0
   -6.6473    0.1855    1.3372 H   0  0  0  0  0  0  0  0  0  0  0  0
   -5.5187   -0.7166    0.2474 H   0  0  0  0  0  0  0  0  0  0  0  0
   -5.1125    0.9693    0.8022 H   0  0  0  0  0  0  0  0  0  0  0  0
   -4.4237   -1.8654    6.5681 H   0  0  0  0  0  0  0  0  0  0  0  0
   -2.7831   -1.1577    6.3117 H   0  0  0  0  0  0  0  0  0  0  0  0
   -3.1112   -2.9016    5.8904 H   0  0  0  0  0  0  0  0  0  0  0  0
   -1.2794   -2.0466    4.5445 H   0  0  0  0  0  0  0  0  0  0  0  0
    3.4550   -2.6029    1.5083 H   0  0  0  0  0  0  0  0  0  0  0  0
    2.6872   -4.7643    0.3065 H   0  0  0  0  0  0  0  0  0  0  0  0
    4.9916   -4.4146    1.4707 H   0  0  0  0  0  0  0  0  0  0  0  0
    4.1504   -5.2993    2.7870 H   0  0  0  0  0  0  0  0  0  0  0  0
    6.3091   -4.2714    3.5418 H   0  0  0  0  0  0  0  0  0  0  0  0
    5.6577   -2.6311    3.1657 H   0  0  0  0  0  0  0  0  0  0  0  0
    4.5396   -4.6917    5.1882 H   0  0  0  0  0  0  0  0  0  0  0  0
    6.1686   -3.5738    6.0946 H   0  0  0  0  0  0  0  0  0  0  0  0
    3.6656   -2.0009   10.6826 H   0  0  0  0  0  0  0  0  0  0  0  0
    2.6691   -5.2360    6.3267 H   0  0  0  0  0  0  0  0  0  0  0  0
    0.4125   -4.5197    6.3467 H   0  0  0  0  0  0  0  0  0  0  0  0
    2.3156   -7.1506    8.3478 H   0  0  0  0  0  0  0  0  0  0  0  0
    3.8076   -6.8467    7.4456 H   0  0  0  0  0  0  0  0  0  0  0  0
    3.8400   -6.9427   10.1022 H   0  0  0  0  0  0  0  0  0  0  0  0
    4.8877   -5.7934    9.2095 H   0  0  0  0  0  0  0  0  0  0  0  0
    2.1545   -5.0989   10.4958 H   0  0  0  0  0  0  0  0  0  0  0  0
    3.7503   -5.2952   12.0258 H   0  0  0  0  0  0  0  0  0  0  0  0
  1  2  1  0
  2  3  1  0
  3  4  2  0
  4  5  1  0
  5  6  1  0
  6  7  1  0
  6  8  1  0
  8  9  1  0
  9 10  1  0
 10 11  1  0
  3 12  1  0
 12 13  1  0
 13 14  1  0
 14 15  2  0
 15 16  1  0
 16 17  1  0
 17 18  1  0
 17 19  1  0
 19 20  1  0
 20 21  1  0
 21 22  1  0
 14 23  1  0
 23 24  1  0
 24 25  1  0
 25 26  2  0
 26 27  1  0
 27 28  1  0
 28 29  1  0
 28 30  1  0
 30 31  1  0
 31 32  1  0
 32 33  1  0
 25 34  1  0
 34 35  1  0
 35 36  1  0
 36 37  2  0
 37 38  1  0
 38 39  1  0
 39 40  2  0
 40 41  1  0
 41 42  1  0
 40 43  1  0
 43 44  1  0
 44 45  1  0
 43 46  2  0
 36 47  1  0
 47 48  1  0
 48 49  1  0
 49 50  2  0
 50 51  1  0
 51 52  1  0
 52 53  1  0
 52 54  1  0
 54 55  1  0
 55 56  1  0
 56 57  1  0
 49 58  1  0
 58 59  1  0
 59 60  1  0
 60 61  2  0
 61 62  1  0
 62 63  1  0
 63 64  1  0
 63 65  1  0
 65 66  1  0
 66 67  1  0
 67 68  1  0
  5  1  2  0
 16 12  2  0
 27 23  2  0
 38 34  2  0
 51 47  2  0
 62 58  2  0
 10  4  1  0
 21 15  1  0
 32 26  1  0
 46 37  1  0
 56 50  1  0
 67 61  1  0
  1 69  1  0
  6 70  1  6
  7 71  1  0
  8 72  1  0
  8 73  1  0
  9 74  1  0
  9 75  1  0
 10 76  1  1
 11 77  1  0
 17 78  1  6
 18 79  1  0
 19 80  1  0
 19 81  1  0
 20 82  1  0
 20 83  1  0
 21 84  1  1
 22 85  1  0
 28 86  1  6
 29 87  1  0
 30 88  1  0
 30 89  1  0
 31 90  1  0
 31 91  1  0
 32 92  1  1
 33 93  1  0
 39 94  1  0
 42 95  1  0
 42 96  1  0
 42 97  1  0
 45 98  1  0
 45 99  1  0
 45100  1  0
 46101  1  0
 52102  1  6
 53103  1  0
 54104  1  0
 54105  1  0
 55106  1  0
 55107  1  0
 56108  1  1
 57109  1  0
 60110  1  0
 63111  1  6
 64112  1  0
 65113  1  0
 65114  1  0
 66115  1  0
 66116  1  0
 67117  1  1
 68118  1  0
M  END

