
     RDKit          3D

215235  0  0  0  0  0  0  0  0999 V2000
   -0.7472   -3.5121   11.4162 C   0  0  0  0  0  0  0  0  0  0  0  0
    0.3830   -3.1665   10.6796 C   0  0  0  0  0  0  0  0  0  0  0  0
    0.3042   -3.5510    9.3289 C   0  0  0  0  0  0  0  0  0  0  0  0
    1.2890   -3.3439    8.3368 C   0  0  0  0  0  0  0  0  0  0  0  0
    2.5966   -2.7253    8.6460 C   0  0  0  0  0  0  0  0  0  0  0  0
    3.0140   -1.5628    7.9782 C   0  0  0  0  0  0  0  0  0  0  0  0
    4.2520   -0.9837    8.2761 C   0  0  0  0  0  0  0  0  0  0  0  0
    5.0845   -1.5587    9.2457 C   0  0  0  0  0  0  0  0  0  0  0  0
    6.6576   -0.7922    9.6504 S   0  0  0  0  0  0  0  0  0  0  0  0
    7.6639   -1.9121    8.6157 C   0  0  0  0  0  0  0  0  0  0  0  0
    7.7177   -1.4233    7.1749 C   0  0  0  0  0  0  0  0  0  0  0  0
    4.6669   -2.7144    9.9232 C   0  0  0  0  0  0  0  0  0  0  0  0
    5.4603   -3.2796   10.8644 F   0  0  0  0  0  0  0  0  0  0  0  0
    3.4360   -3.3009    9.6160 C   0  0  0  0  0  0  0  0  0  0  0  0
    0.9756   -3.7818    7.0358 C   0  0  0  0  0  0  0  0  0  0  0  0
   -0.2346   -4.4077    6.7227 C   0  0  0  0  0  0  0  0  0  0  0  0
   -1.2112   -4.6269    7.7156 C   0  0  0  0  0  0  0  0  0  0  0  0
   -2.5003   -5.2837    7.4091 C   0  0  0  0  0  0  0  0  0  0  0  0
   -2.5252   -6.5862    6.8860 C   0  0  0  0  0  0  0  0  0  0  0  0
   -3.7407   -7.1858    6.5456 C   0  0  0  0  0  0  0  0  0  0  0  0
   -4.9452   -6.4986    6.7468 C   0  0  0  0  0  0  0  0  0  0  0  0
   -6.5006   -7.2700    6.2881 S   0  0  0  0  0  0  0  0  0  0  0  0
   -6.6734   -8.2394    7.8285 C   0  0  0  0  0  0  0  0  0  0  0  0
   -7.1536   -7.3688    8.9834 C   0  0  0  0  0  0  0  0  0  0  0  0
   -4.9260   -5.1996    7.2750 C   0  0  0  0  0  0  0  0  0  0  0  0
   -3.7081   -4.5967    7.6067 C   0  0  0  0  0  0  0  0  0  0  0  0
   -6.0825   -4.5171    7.4562 F   0  0  0  0  0  0  0  0  0  0  0  0
   -0.9074   -4.1746    9.0109 C   0  0  0  0  0  0  0  0  0  0  0  0
   -1.8471   -4.2815   10.4004 S   0  0  0  0  0  0  0  0  0  0  0  0
   -0.3527   -4.7301    5.3627 C   0  0  0  0  0  0  0  0  0  0  0  0
    0.7697   -4.3906    4.6105 C   0  0  0  0  0  0  0  0  0  0  0  0
    1.9017   -3.6600    5.6341 S   0  0  0  0  0  0  0  0  0  0  0  0
    0.8472   -4.5223    3.1390 C   0  0  0  0  0  0  0  0  0  0  0  0
   -0.5196   -4.7031    2.1689 S   0  0  0  0  0  0  0  0  0  0  0  0
    0.2510   -4.6942    0.6841 C   0  0  0  0  0  0  0  0  0  0  0  0
    1.6187   -4.5181    0.9167 C   0  0  0  0  0  0  0  0  0  0  0  0
    1.9587   -4.4506    2.2845 C   0  0  0  0  0  0  0  0  0  0  0  0
    3.3024   -4.3406    2.6634 C   0  0  0  0  0  0  0  0  0  0  0  0
    4.3045   -4.2367    1.6753 C   0  0  0  0  0  0  0  0  0  0  0  0
    5.6654   -4.1218    2.0094 O   0  0  0  0  0  0  0  0  0  0  0  0
    6.1701   -4.0977    3.3402 C   0  0  0  0  0  0  0  0  0  0  0  0
    3.9526   -4.2471    0.3107 C   0  0  0  0  0  0  0  0  0  0  0  0
    4.9762   -4.1432   -0.6443 O   0  0  0  0  0  0  0  0  0  0  0  0
    4.7710   -4.1809   -2.0541 C   0  0  0  0  0  0  0  0  0  0  0  0
    2.6015   -4.3714   -0.0655 C   0  0  0  0  0  0  0  0  0  0  0  0
   -0.4608   -4.7959   -0.6005 C   0  0  0  0  0  0  0  0  0  0  0  0
   -1.8595   -3.9404   -0.9648 S   0  0  0  0  0  0  0  0  0  0  0  0
   -2.0985   -4.5720   -2.5075 C   0  0  0  0  0  0  0  0  0  0  0  0
   -1.0667   -5.4746   -2.7673 C   0  0  0  0  0  0  0  0  0  0  0  0
   -0.1721   -5.6239   -1.6904 C   0  0  0  0  0  0  0  0  0  0  0  0
    0.8517   -6.5722   -1.7537 C   0  0  0  0  0  0  0  0  0  0  0  0
    1.0198   -7.3418   -2.9225 C   0  0  0  0  0  0  0  0  0  0  0  0
    2.0459   -8.2967   -3.0337 O   0  0  0  0  0  0  0  0  0  0  0  0
    2.9417   -8.6339   -1.9839 C   0  0  0  0  0  0  0  0  0  0  0  0
    0.1392   -7.1749   -4.0096 C   0  0  0  0  0  0  0  0  0  0  0  0
    0.3296   -7.9817   -5.1418 O   0  0  0  0  0  0  0  0  0  0  0  0
   -0.5100   -7.9665   -6.2916 C   0  0  0  0  0  0  0  0  0  0  0  0
   -0.9114   -6.2326   -3.9316 C   0  0  0  0  0  0  0  0  0  0  0  0
   -3.1386   -4.0931   -3.4281 C   0  0  0  0  0  0  0  0  0  0  0  0
   -2.7992   -3.0670   -4.7128 S   0  0  0  0  0  0  0  0  0  0  0  0
   -4.3281   -2.3739   -4.8885 C   0  0  0  0  0  0  0  0  0  0  0  0
   -5.1440   -2.9748   -3.9229 C   0  0  0  0  0  0  0  0  0  0  0  0
   -4.4763   -3.8951   -3.0954 C   0  0  0  0  0  0  0  0  0  0  0  0
   -5.1277   -4.4560   -1.9920 C   0  0  0  0  0  0  0  0  0  0  0  0
   -6.4645   -4.1128   -1.7343 C   0  0  0  0  0  0  0  0  0  0  0  0
   -7.1216   -4.6472   -0.6221 O   0  0  0  0  0  0  0  0  0  0  0  0
   -6.7072   -4.3513    0.7052 C   0  0  0  0  0  0  0  0  0  0  0  0
   -7.1553   -3.2316   -2.5881 C   0  0  0  0  0  0  0  0  0  0  0  0
   -8.4974   -2.9434   -2.2996 O   0  0  0  0  0  0  0  0  0  0  0  0
   -9.3227   -2.0864   -3.0803 C   0  0  0  0  0  0  0  0  0  0  0  0
   -6.4853   -2.6531   -3.6848 C   0  0  0  0  0  0  0  0  0  0  0  0
   -4.4669   -0.9789   -5.3408 C   0  0  0  0  0  0  0  0  0  0  0  0
   -3.6024   -0.3970   -6.2696 C   0  0  0  0  0  0  0  0  0  0  0  0
   -3.3277    0.9603   -6.0070 C   0  0  0  0  0  0  0  0  0  0  0  0
   -2.3159    1.7221   -6.6230 C   0  0  0  0  0  0  0  0  0  0  0  0
   -1.6221    1.2416   -7.8392 C   0  0  0  0  0  0  0  0  0  0  0  0
   -0.2463    0.9545   -7.8233 C   0  0  0  0  0  0  0  0  0  0  0  0
    0.4001    0.5319   -8.9907 C   0  0  0  0  0  0  0  0  0  0  0  0
   -0.3222    0.3902  -10.1828 C   0  0  0  0  0  0  0  0  0  0  0  0
    0.5194   -0.1461  -11.6780 S   0  0  0  0  0  0  0  0  0  0  0  0
    1.0788    1.5239  -12.1774 C   0  0  0  0  0  0  0  0  0  0  0  0
   -0.0613    2.3358  -12.7887 C   0  0  0  0  0  0  0  0  0  0  0  0
   -1.7013    0.6347  -10.1934 C   0  0  0  0  0  0  0  0  0  0  0  0
   -2.4205    0.4612  -11.3307 F   0  0  0  0  0  0  0  0  0  0  0  0
   -2.3462    1.0618   -9.0278 C   0  0  0  0  0  0  0  0  0  0  0  0
   -1.9429    2.9142   -5.9774 C   0  0  0  0  0  0  0  0  0  0  0  0
   -2.5682    3.3760   -4.8137 C   0  0  0  0  0  0  0  0  0  0  0  0
   -3.6691    2.6787   -4.2710 C   0  0  0  0  0  0  0  0  0  0  0  0
   -4.3734    3.1574   -3.0554 C   0  0  0  0  0  0  0  0  0  0  0  0
   -5.0224    4.4022   -3.0730 C   0  0  0  0  0  0  0  0  0  0  0  0
   -5.7916    4.8129   -1.9797 C   0  0  0  0  0  0  0  0  0  0  0  0
   -5.9283    3.9809   -0.8617 C   0  0  0  0  0  0  0  0  0  0  0  0
   -7.0723    4.4331    0.4511 S   0  0  0  0  0  0  0  0  0  0  0  0
   -5.8021    5.0825    1.5911 C   0  0  0  0  0  0  0  0  0  0  0  0
   -5.3999    6.5021    1.2178 C   0  0  0  0  0  0  0  0  0  0  0  0
   -5.2499    2.7550   -0.8216 C   0  0  0  0  0  0  0  0  0  0  0  0
   -4.4616    2.3539   -1.9051 C   0  0  0  0  0  0  0  0  0  0  0  0
   -5.3804    1.9332    0.2485 F   0  0  0  0  0  0  0  0  0  0  0  0
   -4.0027    1.4549   -4.8869 C   0  0  0  0  0  0  0  0  0  0  0  0
   -4.9530    0.2247   -4.2647 S   0  0  0  0  0  0  0  0  0  0  0  0
   -1.8682    4.4257   -4.1855 C   0  0  0  0  0  0  0  0  0  0  0  0
   -0.6796    4.7545   -4.8404 C   0  0  0  0  0  0  0  0  0  0  0  0
   -0.5437    3.8039   -6.2276 S   0  0  0  0  0  0  0  0  0  0  0  0
    0.4918    5.3540   -4.1861 C   0  0  0  0  0  0  0  0  0  0  0  0
    0.4946    6.1766   -3.0523 C   0  0  0  0  0  0  0  0  0  0  0  0
    1.7775    6.3196   -2.4820 C   0  0  0  0  0  0  0  0  0  0  0  0
    2.1101    7.0407   -1.3137 C   0  0  0  0  0  0  0  0  0  0  0  0
    1.1161    7.8501   -0.5728 C   0  0  0  0  0  0  0  0  0  0  0  0
    0.4512    8.9112   -1.2069 C   0  0  0  0  0  0  0  0  0  0  0  0
   -0.4152    9.7336   -0.4805 C   0  0  0  0  0  0  0  0  0  0  0  0
   -0.6153    9.5131    0.8865 C   0  0  0  0  0  0  0  0  0  0  0  0
   -1.6704   10.6203    1.8257 S   0  0  0  0  0  0  0  0  0  0  0  0
   -3.1602    9.5990    1.5963 C   0  0  0  0  0  0  0  0  0  0  0  0
   -4.3251   10.2042    2.3660 C   0  0  0  0  0  0  0  0  0  0  0  0
    0.0322    8.4441    1.5218 C   0  0  0  0  0  0  0  0  0  0  0  0
   -0.1477    8.2249    2.8475 F   0  0  0  0  0  0  0  0  0  0  0  0
    0.8893    7.6150    0.7924 C   0  0  0  0  0  0  0  0  0  0  0  0
    3.4471    6.9527   -0.8715 C   0  0  0  0  0  0  0  0  0  0  0  0
    4.4083    6.1683   -1.5160 C   0  0  0  0  0  0  0  0  0  0  0  0
    4.0756    5.4420   -2.6772 C   0  0  0  0  0  0  0  0  0  0  0  0
    5.0129    4.4801   -3.2971 C   0  0  0  0  0  0  0  0  0  0  0  0
    4.6955    3.1106   -3.3181 C   0  0  0  0  0  0  0  0  0  0  0  0
    5.5861    2.1893   -3.8710 C   0  0  0  0  0  0  0  0  0  0  0  0
    6.8163    2.6194   -4.3784 C   0  0  0  0  0  0  0  0  0  0  0  0
    7.9772    1.4132   -5.0316 S   0  0  0  0  0  0  0  0  0  0  0  0
    8.6160    0.8892   -3.3972 C   0  0  0  0  0  0  0  0  0  0  0  0
    9.5720    1.9200   -2.8136 C   0  0  0  0  0  0  0  0  0  0  0  0
    7.1312    3.9854   -4.3808 C   0  0  0  0  0  0  0  0  0  0  0  0
    6.2320    4.9125   -3.8415 C   0  0  0  0  0  0  0  0  0  0  0  0
    8.3087    4.4165   -4.8950 F   0  0  0  0  0  0  0  0  0  0  0  0
    2.7567    5.5694   -3.1446 C   0  0  0  0  0  0  0  0  0  0  0  0
    2.0588    4.7964   -4.4571 S   0  0  0  0  0  0  0  0  0  0  0  0
    5.6531    6.1722   -0.8621 C   0  0  0  0  0  0  0  0  0  0  0  0
    5.6736    6.9705    0.2735 C   0  0  0  0  0  0  0  0  0  0  0  0
    4.1517    7.6699    0.4775 S   0  0  0  0  0  0  0  0  0  0  0  0
   -0.8905   -3.3120   12.4684 H   0  0  0  0  0  0  0  0  0  0  0  0
    1.2230   -2.6480   11.1174 H   0  0  0  0  0  0  0  0  0  0  0  0
    2.3774   -1.0982    7.2354 H   0  0  0  0  0  0  0  0  0  0  0  0
    4.5608   -0.0852    7.7582 H   0  0  0  0  0  0  0  0  0  0  0  0
    8.6946   -1.9290    9.0277 H   0  0  0  0  0  0  0  0  0  0  0  0
    7.2693   -2.9492    8.6487 H   0  0  0  0  0  0  0  0  0  0  0  0
    8.3586   -2.1028    6.5762 H   0  0  0  0  0  0  0  0  0  0  0  0
    8.1496   -0.3993    7.1367 H   0  0  0  0  0  0  0  0  0  0  0  0
    6.7020   -1.4087    6.7294 H   0  0  0  0  0  0  0  0  0  0  0  0
    3.1332   -4.2002   10.1354 H   0  0  0  0  0  0  0  0  0  0  0  0
   -1.6013   -7.1322    6.7340 H   0  0  0  0  0  0  0  0  0  0  0  0
   -3.7472   -8.1851    6.1327 H   0  0  0  0  0  0  0  0  0  0  0  0
   -7.4224   -9.0398    7.6489 H   0  0  0  0  0  0  0  0  0  0  0  0
   -5.7109   -8.7271    8.0938 H   0  0  0  0  0  0  0  0  0  0  0  0
   -8.0990   -6.8505    8.7133 H   0  0  0  0  0  0  0  0  0  0  0  0
   -6.3826   -6.6159    9.2478 H   0  0  0  0  0  0  0  0  0  0  0  0
   -7.3385   -8.0060    9.8742 H   0  0  0  0  0  0  0  0  0  0  0  0
   -3.7036   -3.5887    8.0022 H   0  0  0  0  0  0  0  0  0  0  0  0
   -1.2325   -5.1824    4.9274 H   0  0  0  0  0  0  0  0  0  0  0  0
    3.5786   -4.3600    3.7007 H   0  0  0  0  0  0  0  0  0  0  0  0
    5.9273   -5.0493    3.8574 H   0  0  0  0  0  0  0  0  0  0  0  0
    7.2728   -3.9786    3.3070 H   0  0  0  0  0  0  0  0  0  0  0  0
    5.7411   -3.2381    3.8974 H   0  0  0  0  0  0  0  0  0  0  0  0
    4.1419   -3.3237   -2.3691 H   0  0  0  0  0  0  0  0  0  0  0  0
    5.7514   -4.1141   -2.5643 H   0  0  0  0  0  0  0  0  0  0  0  0
    4.2870   -5.1381   -2.3430 H   0  0  0  0  0  0  0  0  0  0  0  0
    2.3160   -4.3544   -1.1064 H   0  0  0  0  0  0  0  0  0  0  0  0
    1.4975   -6.7169   -0.9012 H   0  0  0  0  0  0  0  0  0  0  0  0
    3.6263   -9.4321   -2.3323 H   0  0  0  0  0  0  0  0  0  0  0  0
    3.5505   -7.7487   -1.6971 H   0  0  0  0  0  0  0  0  0  0  0  0
    2.3783   -9.0087   -1.1015 H   0  0  0  0  0  0  0  0  0  0  0  0
   -1.5612   -8.1936   -6.0028 H   0  0  0  0  0  0  0  0  0  0  0  0
   -0.4611   -6.9741   -6.7868 H   0  0  0  0  0  0  0  0  0  0  0  0
   -0.1622   -8.7412   -7.0060 H   0  0  0  0  0  0  0  0  0  0  0  0
   -1.6056   -6.1020   -4.7509 H   0  0  0  0  0  0  0  0  0  0  0  0
   -4.6142   -5.1529   -1.3423 H   0  0  0  0  0  0  0  0  0  0  0  0
   -5.6015   -4.4339    0.8169 H   0  0  0  0  0  0  0  0  0  0  0  0
   -7.0309   -3.3203    0.9704 H   0  0  0  0  0  0  0  0  0  0  0  0
   -7.1833   -5.0702    1.4052 H   0  0  0  0  0  0  0  0  0  0  0  0
   -9.4277   -2.4907   -4.1062 H   0  0  0  0  0  0  0  0  0  0  0  0
  -10.3283   -2.0255   -2.6153 H   0  0  0  0  0  0  0  0  0  0  0  0
   -8.8874   -1.0659   -3.1106 H   0  0  0  0  0  0  0  0  0  0  0  0
   -6.9896   -1.9549   -4.3379 H   0  0  0  0  0  0  0  0  0  0  0  0
   -3.0483   -0.9802   -6.9934 H   0  0  0  0  0  0  0  0  0  0  0  0
    0.3268    1.0583   -6.9105 H   0  0  0  0  0  0  0  0  0  0  0  0
    1.4624    0.3239   -8.9691 H   0  0  0  0  0  0  0  0  0  0  0  0
    1.8757    1.4048  -12.9430 H   0  0  0  0  0  0  0  0  0  0  0  0
    1.5136    2.0702  -11.3130 H   0  0  0  0  0  0  0  0  0  0  0  0
   -0.5712    1.7462  -13.5825 H   0  0  0  0  0  0  0  0  0  0  0  0
   -0.7965    2.6153  -12.0050 H   0  0  0  0  0  0  0  0  0  0  0  0
    0.3441    3.2669  -13.2383 H   0  0  0  0  0  0  0  0  0  0  0  0
   -3.4100    1.2578   -9.0525 H   0  0  0  0  0  0  0  0  0  0  0  0
   -4.9580    5.0422   -3.9449 H   0  0  0  0  0  0  0  0  0  0  0  0
   -6.3161    5.7583   -2.0197 H   0  0  0  0  0  0  0  0  0  0  0  0
   -6.2315    5.0922    2.6158 H   0  0  0  0  0  0  0  0  0  0  0  0
   -4.9064    4.4235    1.6027 H   0  0  0  0  0  0  0  0  0  0  0  0
   -4.8752    6.5093    0.2385 H   0  0  0  0  0  0  0  0  0  0  0  0
   -4.7145    6.8987    1.9954 H   0  0  0  0  0  0  0  0  0  0  0  0
   -6.2985    7.1564    1.1634 H   0  0  0  0  0  0  0  0  0  0  0  0
   -3.9446    1.4032   -1.8582 H   0  0  0  0  0  0  0  0  0  0  0  0
   -2.1283    4.8123   -3.2092 H   0  0  0  0  0  0  0  0  0  0  0  0
   -0.4063    6.6009   -2.6264 H   0  0  0  0  0  0  0  0  0  0  0  0
    0.6214    9.1133   -2.2582 H   0  0  0  0  0  0  0  0  0  0  0  0
   -0.9135   10.5552   -0.9779 H   0  0  0  0  0  0  0  0  0  0  0  0
   -3.4198    9.5549    0.5180 H   0  0  0  0  0  0  0  0  0  0  0  0
   -2.9676    8.5711    1.9697 H   0  0  0  0  0  0  0  0  0  0  0  0
   -5.2301    9.5734    2.2352 H   0  0  0  0  0  0  0  0  0  0  0  0
   -4.5443   11.2251    1.9826 H   0  0  0  0  0  0  0  0  0  0  0  0
   -4.0825   10.2671    3.4491 H   0  0  0  0  0  0  0  0  0  0  0  0
    1.3894    6.7942    1.2980 H   0  0  0  0  0  0  0  0  0  0  0  0
    3.7611    2.7591   -2.8971 H   0  0  0  0  0  0  0  0  0  0  0  0
    5.3277    1.1379   -3.8813 H   0  0  0  0  0  0  0  0  0  0  0  0
    7.7763    0.7048   -2.6922 H   0  0  0  0  0  0  0  0  0  0  0  0
    9.1618   -0.0700   -3.5325 H   0  0  0  0  0  0  0  0  0  0  0  0
    9.0398    2.8691   -2.5929 H   0  0  0  0  0  0  0  0  0  0  0  0
   10.4029    2.1178   -3.5259 H   0  0  0  0  0  0  0  0  0  0  0  0
   10.0005    1.5323   -1.8656 H   0  0  0  0  0  0  0  0  0  0  0  0
    6.4874    5.9641   -3.8429 H   0  0  0  0  0  0  0  0  0  0  0  0
    6.5123    5.6023   -1.1868 H   0  0  0  0  0  0  0  0  0  0  0  0
    6.5217    7.1079    0.9310 H   0  0  0  0  0  0  0  0  0  0  0  0
  1  2  2  0
  2  3  1  0
  3  4  2  0
  4  5  1  0
  5  6  2  0
  6  7  1  0
  7  8  2  0
  8  9  1  0
  9 10  1  0
 10 11  1  0
  8 12  1  0
 12 13  1  0
 12 14  2  0
  4 15  1  0
 15 16  2  0
 16 17  1  0
 17 18  1  0
 18 19  2  0
 19 20  1  0
 20 21  2  0
 21 22  1  0
 22 23  1  0
 23 24  1  0
 21 25  1  0
 25 26  2  0
 25 27  1  0
 17 28  2  0
 28 29  1  0
 16 30  1  0
 30 31  2  0
 31 32  1  0
 31 33  1  0
 33 34  1  0
 34 35  1  0
 35 36  2  0
 36 37  1  0
 37 38  1  0
 38 39  2  0
 39 40  1  0
 40 41  1  0
 39 42  1  0
 42 43  1  0
 43 44  1  0
 42 45  2  0
 35 46  1  0
 46 47  1  0
 47 48  1  0
 48 49  2  0
 49 50  1  0
 50 51  1  0
 51 52  2  0
 52 53  1  0
 53 54  1  0
 52 55  1  0
 55 56  1  0
 56 57  1  0
 55 58  2  0
 48 59  1  0
 59 60  1  0
 60 61  1  0
 61 62  2  0
 62 63  1  0
 63 64  1  0
 64 65  2  0
 65 66  1  0
 66 67  1  0
 65 68  1  0
 68 69  1  0
 69 70  1  0
 68 71  2  0
 61 72  1  0
 72 73  2  0
 73 74  1  0
 74 75  2  0
 75 76  1  0
 76 77  2  0
 77 78  1  0
 78 79  2  0
 79 80  1  0
 80 81  1  0
 81 82  1  0
 79 83  1  0
 83 84  1  0
 83 85  2  0
 75 86  1  0
 86 87  2  0
 87 88  1  0
 88 89  1  0
 89 90  2  0
 90 91  1  0
 91 92  2  0
 92 93  1  0
 93 94  1  0
 94 95  1  0
 92 96  1  0
 96 97  2  0
 96 98  1  0
 88 99  2  0
 99100  1  0
 87101  1  0
101102  2  0
102103  1  0
102104  1  0
104105  2  0
105106  1  0
106107  2  0
107108  1  0
108109  2  0
109110  1  0
110111  2  0
111112  1  0
112113  1  0
113114  1  0
111115  1  0
115116  1  0
115117  2  0
107118  1  0
118119  2  0
119120  1  0
120121  1  0
121122  2  0
122123  1  0
123124  2  0
124125  1  0
125126  1  0
126127  1  0
124128  1  0
128129  2  0
128130  1  0
120131  2  0
131132  1  0
119133  1  0
133134  2  0
134135  1  0
 29  1  1  0
 37 33  2  0
 50 46  2  0
 63 59  2  0
100 72  1  0
132104  1  0
 28  3  1  0
 45 36  1  0
 58 49  1  0
 71 62  1  0
 99 74  1  0
131106  1  0
 14  5  1  0
 32 15  1  0
 85 76  1  0
103 86  1  0
117108  1  0
135118  1  0
 26 18  1  0
 97 89  1  0
129121  1  0
  1136  1  0
  2137  1  0
  6138  1  0
  7139  1  0
 10140  1  0
 10141  1  0
 11142  1  0
 11143  1  0
 11144  1  0
 14145  1  0
 19146  1  0
 20147  1  0
 23148  1  0
 23149  1  0
 24150  1  0
 24151  1  0
 24152  1  0
 26153  1  0
 30154  1  0
 38155  1  0
 41156  1  0
 41157  1  0
 41158  1  0
 44159  1  0
 44160  1  0
 44161  1  0
 45162  1  0
 51163  1  0
 54164  1  0
 54165  1  0
 54166  1  0
 57167  1  0
 57168  1  0
 57169  1  0
 58170  1  0
 64171  1  0
 67172  1  0
 67173  1  0
 67174  1  0
 70175  1  0
 70176  1  0
 70177  1  0
 71178  1  0
 73179  1  0
 77180  1  0
 78181  1  0
 81182  1  0
 81183  1  0
 82184  1  0
 82185  1  0
 82186  1  0
 85187  1  0
 90188  1  0
 91189  1  0
 94190  1  0
 94191  1  0
 95192  1  0
 95193  1  0
 95194  1  0
 97195  1  0
101196  1  0
105197  1  0
109198  1  0
110199  1  0
113200  1  0
113201  1  0
114202  1  0
114203  1  0
114204  1  0
117205  1  0
122206  1  0
123207  1  0
126208  1  0
126209  1  0
127210  1  0
127211  1  0
127212  1  0
129213  1  0
133214  1  0
134215  1  0
M  END

