
     RDKit          3D

164179  0  0  0  0  0  0  0  0999 V2000
   -0.2350    5.9115   -2.4401 N   0  0  0  0  0  0  0  0  0  0  0  0
    0.0217    6.2254   -3.8428 C   0  0  0  0  0  0  0  0  0  0  0  0
    0.8169    5.1498   -4.4369 N   0  0  0  0  0  0  0  0  0  0  0  0
    1.4891    4.4950   -3.3117 C   0  0  2  0  0  0  0  0  0  0  0  0
    1.2991    2.9624   -3.3271 C   0  0  0  0  0  0  0  0  0  0  0  0
    1.9918    2.3364   -2.1054 C   0  0  1  0  0  0  0  0  0  0  0  0
    1.7394    3.0911   -0.7889 C   0  0  1  0  0  0  0  0  0  0  0  0
    0.6104    4.1263   -0.9029 C   0  0  0  0  0  0  0  0  0  0  0  0
    0.9346    5.1388   -2.0336 C   0  0  2  0  0  0  0  0  0  0  0  0
    1.4011    2.0593    0.1700 N   0  0  0  0  0  0  0  0  0  0  0  0
    1.3923    0.7501   -0.4692 C   0  0  0  0  0  0  0  0  0  0  0  0
    1.5340    0.9555   -1.9120 N   0  0  0  0  0  0  0  0  0  0  0  0
    1.7361    2.2220    1.5565 C   0  0  0  0  0  0  0  0  0  0  0  0
    0.9940    1.7530    2.5688 C   0  0  0  0  0  0  0  0  0  0  0  0
   -0.3554    1.1525    2.4590 C   0  0  0  0  0  0  0  0  0  0  0  0
   -1.4876    1.4349    1.2413 S   0  0  0  0  0  0  0  0  0  0  0  0
   -2.7758    0.5787    1.9188 C   0  0  0  0  0  0  0  0  0  0  0  0
   -2.3316    0.0732    3.1470 C   0  0  0  0  0  0  0  0  0  0  0  0
   -0.9914    0.3899    3.4426 C   0  0  0  0  0  0  0  0  0  0  0  0
   -0.4068   -0.0599    4.6327 C   0  0  0  0  0  0  0  0  0  0  0  0
   -1.1735   -0.8054    5.5515 C   0  0  0  0  0  0  0  0  0  0  0  0
   -0.6296   -1.2838    6.7543 O   0  0  0  0  0  0  0  0  0  0  0  0
    0.7208   -1.0926    7.1612 C   0  0  0  0  0  0  0  0  0  0  0  0
   -2.5259   -1.0835    5.2768 C   0  0  0  0  0  0  0  0  0  0  0  0
   -3.2638   -1.7959    6.2343 O   0  0  0  0  0  0  0  0  0  0  0  0
   -4.6441   -2.1225    6.1106 C   0  0  0  0  0  0  0  0  0  0  0  0
   -3.1059   -0.6436    4.0693 C   0  0  0  0  0  0  0  0  0  0  0  0
   -4.0471    0.2718    1.2201 C   0  0  0  0  0  0  0  0  0  0  0  0
   -4.8097   -1.2381    1.2628 S   0  0  0  0  0  0  0  0  0  0  0  0
   -5.9587   -0.9188    0.0786 C   0  0  0  0  0  0  0  0  0  0  0  0
   -5.7378    0.3583   -0.4156 C   0  0  0  0  0  0  0  0  0  0  0  0
   -4.6891    1.0367    0.2329 C   0  0  0  0  0  0  0  0  0  0  0  0
   -4.3800    2.3519   -0.1279 C   0  0  0  0  0  0  0  0  0  0  0  0
   -5.0808    2.9695   -1.1866 C   0  0  0  0  0  0  0  0  0  0  0  0
   -4.7865    4.2772   -1.6013 O   0  0  0  0  0  0  0  0  0  0  0  0
   -3.7750    5.0970   -1.0193 C   0  0  0  0  0  0  0  0  0  0  0  0
   -6.1011    2.2696   -1.8620 C   0  0  0  0  0  0  0  0  0  0  0  0
   -6.7567    2.9132   -2.9234 O   0  0  0  0  0  0  0  0  0  0  0  0
   -7.7891    2.3216   -3.7040 C   0  0  0  0  0  0  0  0  0  0  0  0
   -6.4375    0.9576   -1.4634 C   0  0  0  0  0  0  0  0  0  0  0  0
   -6.8037   -1.9107   -0.5137 N   0  0  0  0  0  0  0  0  0  0  0  0
   -8.0562   -2.3507    0.0636 C   0  0  0  0  0  0  0  0  0  0  0  0
   -8.5389   -3.4704   -0.7516 N   0  0  0  0  0  0  0  0  0  0  0  0
   -7.6852   -3.5438   -1.9486 C   0  0  2  0  0  0  0  0  0  0  0  0
   -7.3468   -5.0143   -2.2611 C   0  0  0  0  0  0  0  0  0  0  0  0
   -6.1124   -5.1234   -3.1793 C   0  0  1  0  0  0  0  0  0  0  0  0
   -4.8577   -4.4592   -2.5735 C   0  0  1  0  0  0  0  0  0  0  0  0
   -5.1865   -3.5128   -1.3980 C   0  0  0  0  0  0  0  0  0  0  0  0
   -6.4447   -2.6758   -1.6824 C   0  0  2  0  0  0  0  0  0  0  0  0
   -4.0411   -5.5821   -2.1463 N   0  0  0  0  0  0  0  0  0  0  0  0
   -4.6450   -6.8431   -2.5301 C   0  0  0  0  0  0  0  0  0  0  0  0
   -5.7968   -6.5433   -3.3855 N   0  0  0  0  0  0  0  0  0  0  0  0
   -2.9155   -5.5303   -1.2527 C   0  0  0  0  0  0  0  0  0  0  0  0
   -2.1434   -4.4465   -1.1244 C   0  0  0  0  0  0  0  0  0  0  0  0
   -1.1909   -4.3628   -0.0599 N   0  0  0  0  0  0  0  0  0  0  0  0
   -1.6272   -4.1598    1.3197 C   0  0  0  0  0  0  0  0  0  0  0  0
   -0.6992   -4.8937    2.1907 N   0  0  0  0  0  0  0  0  0  0  0  0
   -0.0179   -5.8179    1.2803 C   0  0  2  0  0  0  0  0  0  0  0  0
    1.3213   -6.3541    1.8070 C   0  0  0  0  0  0  0  0  0  0  0  0
    2.5293   -5.4271    1.6120 C   0  0  1  0  0  0  0  0  0  0  0  0
    2.5778   -4.6749    0.2849 C   0  0  1  0  0  0  0  0  0  0  0  0
    1.2125   -4.1230   -0.1710 C   0  0  0  0  0  0  0  0  0  0  0  0
    0.0458   -5.1205   -0.0685 C   0  0  2  0  0  0  0  0  0  0  0  0
    3.4196   -3.5484    0.6232 N   0  0  0  0  0  0  0  0  0  0  0  0
    3.4418   -3.3417    2.0680 C   0  0  0  0  0  0  0  0  0  0  0  0
    2.6365   -4.4135    2.6658 N   0  0  0  0  0  0  0  0  0  0  0  0
    4.1728   -2.7877   -0.3359 C   0  0  0  0  0  0  0  0  0  0  0  0
    4.5188   -1.5191   -0.0989 C   0  0  0  0  0  0  0  0  0  0  0  0
    5.2114   -0.7204   -1.0690 N   0  0  0  0  0  0  0  0  0  0  0  0
    5.9183   -1.2063   -2.2457 C   0  0  0  0  0  0  0  0  0  0  0  0
    6.5669   -0.0360   -2.8545 N   0  0  0  0  0  0  0  0  0  0  0  0
    5.7756    1.0928   -2.3648 C   0  0  2  0  0  0  0  0  0  0  0  0
    6.4875    2.4502   -2.5180 C   0  0  0  0  0  0  0  0  0  0  0  0
    7.3308    2.9397   -1.3243 C   0  0  1  0  0  0  0  0  0  0  0  0
    6.8799    2.4836    0.0583 C   0  0  1  0  0  0  0  0  0  0  0  0
    6.4359    1.0186    0.0838 C   0  0  0  0  0  0  0  0  0  0  0  0
    5.3530    0.7133   -0.9539 C   0  0  2  0  0  0  0  0  0  0  0  0
    8.1002    2.6058    0.8255 N   0  0  0  0  0  0  0  0  0  0  0  0
    9.2548    2.6724   -0.0629 C   0  0  0  0  0  0  0  0  0  0  0  0
    8.7420    2.5560   -1.4330 N   0  0  0  0  0  0  0  0  0  0  0  0
    8.1284    2.6728    2.2590 C   0  0  0  0  0  0  0  0  0  0  0  0
    9.2593    2.8321    2.9472 C   0  0  0  0  0  0  0  0  0  0  0  0
   -1.0754    5.2883   -2.4359 H   0  0  0  0  0  0  0  0  0  0  0  0
   -0.9348    6.3667   -4.3993 H   0  0  0  0  0  0  0  0  0  0  0  0
    0.5945    7.1766   -3.9039 H   0  0  0  0  0  0  0  0  0  0  0  0
    0.1502    4.4880   -4.9013 H   0  0  0  0  0  0  0  0  0  0  0  0
    2.5801    4.7096   -3.3851 H   0  0  0  0  0  0  0  0  0  0  0  0
    0.2140    2.7157   -3.3144 H   0  0  0  0  0  0  0  0  0  0  0  0
    1.7339    2.5400   -4.2568 H   0  0  0  0  0  0  0  0  0  0  0  0
    3.0862    2.3502   -2.2959 H   0  0  0  0  0  0  0  0  0  0  0  0
    2.6782    3.6078   -0.4783 H   0  0  0  0  0  0  0  0  0  0  0  0
    0.4997    4.6681    0.0609 H   0  0  0  0  0  0  0  0  0  0  0  0
   -0.3457    3.5958   -1.1068 H   0  0  0  0  0  0  0  0  0  0  0  0
    1.6935    5.8524   -1.6405 H   0  0  0  0  0  0  0  0  0  0  0  0
    2.2281    0.1330   -0.0770 H   0  0  0  0  0  0  0  0  0  0  0  0
    0.4403    0.2210   -0.2754 H   0  0  0  0  0  0  0  0  0  0  0  0
    2.2575    0.2966   -2.2849 H   0  0  0  0  0  0  0  0  0  0  0  0
    2.6549    2.7420    1.7987 H   0  0  0  0  0  0  0  0  0  0  0  0
    1.3990    1.8870    3.5634 H   0  0  0  0  0  0  0  0  0  0  0  0
    0.6307    0.1572    4.8379 H   0  0  0  0  0  0  0  0  0  0  0  0
    0.9317   -0.0084    7.2819 H   0  0  0  0  0  0  0  0  0  0  0  0
    0.8808   -1.6004    8.1329 H   0  0  0  0  0  0  0  0  0  0  0  0
    1.4114   -1.5340    6.4111 H   0  0  0  0  0  0  0  0  0  0  0  0
   -4.8082   -2.7564    5.2131 H   0  0  0  0  0  0  0  0  0  0  0  0
   -5.2492   -1.1944    6.0387 H   0  0  0  0  0  0  0  0  0  0  0  0
   -4.9681   -2.6870    7.0084 H   0  0  0  0  0  0  0  0  0  0  0  0
   -4.1503   -0.8265    3.8728 H   0  0  0  0  0  0  0  0  0  0  0  0
   -3.6218    2.8962    0.4133 H   0  0  0  0  0  0  0  0  0  0  0  0
   -4.0365    5.3317    0.0334 H   0  0  0  0  0  0  0  0  0  0  0  0
   -3.6996    6.0449   -1.5901 H   0  0  0  0  0  0  0  0  0  0  0  0
   -2.7976    4.5762   -1.0573 H   0  0  0  0  0  0  0  0  0  0  0  0
   -7.4107    1.4056   -4.2044 H   0  0  0  0  0  0  0  0  0  0  0  0
   -8.1107    3.0427   -4.4833 H   0  0  0  0  0  0  0  0  0  0  0  0
   -8.6614    2.0765   -3.0616 H   0  0  0  0  0  0  0  0  0  0  0  0
   -7.2275    0.4080   -1.9575 H   0  0  0  0  0  0  0  0  0  0  0  0
   -8.7848   -1.5099    0.0593 H   0  0  0  0  0  0  0  0  0  0  0  0
   -7.8908   -2.7005    1.1063 H   0  0  0  0  0  0  0  0  0  0  0  0
   -9.5296   -3.2838   -1.0422 H   0  0  0  0  0  0  0  0  0  0  0  0
   -8.2303   -3.1133   -2.8223 H   0  0  0  0  0  0  0  0  0  0  0  0
   -8.2220   -5.4962   -2.7544 H   0  0  0  0  0  0  0  0  0  0  0  0
   -7.1502   -5.5661   -1.3125 H   0  0  0  0  0  0  0  0  0  0  0  0
   -6.3568   -4.6395   -4.1533 H   0  0  0  0  0  0  0  0  0  0  0  0
   -4.3151   -3.8973   -3.3636 H   0  0  0  0  0  0  0  0  0  0  0  0
   -4.3392   -2.8178   -1.2305 H   0  0  0  0  0  0  0  0  0  0  0  0
   -5.3380   -4.1021   -0.4650 H   0  0  0  0  0  0  0  0  0  0  0  0
   -6.2596   -1.9928   -2.5413 H   0  0  0  0  0  0  0  0  0  0  0  0
   -3.9062   -7.4744   -3.0724 H   0  0  0  0  0  0  0  0  0  0  0  0
   -4.9935   -7.3860   -1.6232 H   0  0  0  0  0  0  0  0  0  0  0  0
   -5.4997   -6.6657   -4.3823 H   0  0  0  0  0  0  0  0  0  0  0  0
   -2.7106   -6.3913   -0.6260 H   0  0  0  0  0  0  0  0  0  0  0  0
   -2.2814   -3.5873   -1.7673 H   0  0  0  0  0  0  0  0  0  0  0  0
   -2.6558   -4.5600    1.4692 H   0  0  0  0  0  0  0  0  0  0  0  0
   -1.6276   -3.0727    1.5629 H   0  0  0  0  0  0  0  0  0  0  0  0
   -0.0017   -4.2059    2.5607 H   0  0  0  0  0  0  0  0  0  0  0  0
   -0.6828   -6.7067    1.1640 H   0  0  0  0  0  0  0  0  0  0  0  0
    1.5370   -7.2995    1.2605 H   0  0  0  0  0  0  0  0  0  0  0  0
    1.2233   -6.6255    2.8800 H   0  0  0  0  0  0  0  0  0  0  0  0
    3.4416   -6.0709    1.6551 H   0  0  0  0  0  0  0  0  0  0  0  0
    3.0395   -5.3056   -0.5098 H   0  0  0  0  0  0  0  0  0  0  0  0
    0.9697   -3.2194    0.4341 H   0  0  0  0  0  0  0  0  0  0  0  0
    1.2992   -3.7793   -1.2269 H   0  0  0  0  0  0  0  0  0  0  0  0
    0.0796   -5.8593   -0.8992 H   0  0  0  0  0  0  0  0  0  0  0  0
    2.9853   -2.3613    2.3230 H   0  0  0  0  0  0  0  0  0  0  0  0
    4.4933   -3.3801    2.4379 H   0  0  0  0  0  0  0  0  0  0  0  0
    3.1585   -4.8184    3.4783 H   0  0  0  0  0  0  0  0  0  0  0  0
    4.3869   -3.2378   -1.2965 H   0  0  0  0  0  0  0  0  0  0  0  0
    4.2151   -1.0501    0.8260 H   0  0  0  0  0  0  0  0  0  0  0  0
    6.6898   -1.9493   -1.9516 H   0  0  0  0  0  0  0  0  0  0  0  0
    5.1932   -1.6664   -2.9557 H   0  0  0  0  0  0  0  0  0  0  0  0
    6.4759   -0.0963   -3.8967 H   0  0  0  0  0  0  0  0  0  0  0  0
    4.8508    1.1435   -2.9872 H   0  0  0  0  0  0  0  0  0  0  0  0
    7.1050    2.4478   -3.4431 H   0  0  0  0  0  0  0  0  0  0  0  0
    5.6933    3.2120   -2.6872 H   0  0  0  0  0  0  0  0  0  0  0  0
    7.2796    4.0558   -1.3301 H   0  0  0  0  0  0  0  0  0  0  0  0
    6.0851    3.1515    0.4566 H   0  0  0  0  0  0  0  0  0  0  0  0
    6.0527    0.7714    1.0966 H   0  0  0  0  0  0  0  0  0  0  0  0
    7.3177    0.3650   -0.1072 H   0  0  0  0  0  0  0  0  0  0  0  0
    4.3941    1.1931   -0.6728 H   0  0  0  0  0  0  0  0  0  0  0  0
    9.7837    3.6403    0.0811 H   0  0  0  0  0  0  0  0  0  0  0  0
    9.9461    1.8288    0.1454 H   0  0  0  0  0  0  0  0  0  0  0  0
    9.2397    3.2457   -2.0450 H   0  0  0  0  0  0  0  0  0  0  0  0
    7.1950    2.6139    2.8049 H   0  0  0  0  0  0  0  0  0  0  0  0
    9.2281    2.8827    4.0261 H   0  0  0  0  0  0  0  0  0  0  0  0
   10.2186    2.8864    2.4543 H   0  0  0  0  0  0  0  0  0  0  0  0
  1  2  1  0
  2  3  1  0
  3  4  1  0
  4  5  1  0
  5  6  1  0
  6  7  1  0
  7  8  1  0
  8  9  1  0
  7 10  1  0
 10 11  1  0
 11 12  1  0
 10 13  1  0
 13 14  2  3
 14 15  1  0
 15 16  1  0
 16 17  1  0
 17 18  2  0
 18 19  1  0
 19 20  1  0
 20 21  2  0
 21 22  1  0
 22 23  1  0
 21 24  1  0
 24 25  1  0
 25 26  1  0
 24 27  2  0
 17 28  1  0
 28 29  1  0
 29 30  1  0
 30 31  2  0
 31 32  1  0
 32 33  1  0
 33 34  2  0
 34 35  1  0
 35 36  1  0
 34 37  1  0
 37 38  1  0
 38 39  1  0
 37 40  2  0
 30 41  1  0
 41 42  1  0
 42 43  1  0
 43 44  1  0
 44 45  1  0
 45 46  1  0
 46 47  1  0
 47 48  1  0
 48 49  1  0
 47 50  1  0
 50 51  1  0
 51 52  1  0
 50 53  1  0
 53 54  2  3
 54 55  1  0
 55 56  1  0
 56 57  1  0
 57 58  1  0
 58 59  1  0
 59 60  1  0
 60 61  1  0
 61 62  1  0
 62 63  1  0
 61 64  1  0
 64 65  1  0
 65 66  1  0
 64 67  1  0
 67 68  2  3
 68 69  1  0
 69 70  1  0
 70 71  1  0
 71 72  1  0
 72 73  1  0
 73 74  1  0
 74 75  1  0
 75 76  1  0
 76 77  1  0
 75 78  1  0
 78 79  1  0
 79 80  1  0
 78 81  1  0
 81 82  2  3
  9  1  1  0
 19 15  2  0
 32 28  2  0
 49 41  1  0
 63 55  1  0
 77 69  1  0
  9  4  1  0
 27 18  1  0
 40 31  1  0
 49 44  1  0
 63 58  1  0
 77 72  1  0
 12  6  1  0
 52 46  1  0
 66 60  1  0
 80 74  1  0
  1 83  1  0
  2 84  1  0
  2 85  1  0
  3 86  1  0
  4 87  1  6
  5 88  1  0
  5 89  1  0
  6 90  1  6
  7 91  1  1
  8 92  1  0
  8 93  1  0
  9 94  1  1
 11 95  1  0
 11 96  1  0
 12 97  1  0
 13 98  1  0
 14 99  1  0
 20100  1  0
 23101  1  0
 23102  1  0
 23103  1  0
 26104  1  0
 26105  1  0
 26106  1  0
 27107  1  0
 33108  1  0
 36109  1  0
 36110  1  0
 36111  1  0
 39112  1  0
 39113  1  0
 39114  1  0
 40115  1  0
 42116  1  0
 42117  1  0
 43118  1  0
 44119  1  6
 45120  1  0
 45121  1  0
 46122  1  6
 47123  1  6
 48124  1  0
 48125  1  0
 49126  1  6
 51127  1  0
 51128  1  0
 52129  1  0
 53130  1  0
 54131  1  0
 56132  1  0
 56133  1  0
 57134  1  0
 58135  1  6
 59136  1  0
 59137  1  0
 60138  1  6
 61139  1  6
 62140  1  0
 62141  1  0
 63142  1  6
 65143  1  0
 65144  1  0
 66145  1  0
 67146  1  0
 68147  1  0
 70148  1  0
 70149  1  0
 71150  1  0
 72151  1  6
 73152  1  0
 73153  1  0
 74154  1  1
 75155  1  1
 76156  1  0
 76157  1  0
 77158  1  1
 79159  1  0
 79160  1  0
 80161  1  0
 81162  1  0
 82163  1  0
 82164  1  0
M  END

