
     RDKit          3D

 83 89  0  0  0  0  0  0  0  0999 V2000
    5.7073   -0.8547    8.7954 C   0  0  0  0  0  0  0  0  0  0  0  0
    5.9945   -1.2838    7.4999 C   0  0  0  0  0  0  0  0  0  0  0  0
    7.2926   -1.9465    7.1347 C   0  0  0  0  0  0  0  0  0  0  0  0
    7.7440   -1.5764    5.7226 C   0  0  0  0  0  0  0  0  0  0  0  0
    4.9702   -1.1527    6.6100 N   0  0  0  0  0  0  0  0  0  0  0  0
    3.8646   -0.6098    7.1701 C   0  0  0  0  0  0  0  0  0  0  0  0
    4.1304   -0.2770    8.8023 S   0  0  0  0  0  0  0  0  0  0  0  0
    2.6306   -0.3560    6.3962 C   0  0  0  0  0  0  0  0  0  0  0  0
    1.3222   -0.0923    6.8437 C   0  0  0  0  0  0  0  0  0  0  0  0
    0.8808    0.0043    8.2768 C   0  0  0  0  0  0  0  0  0  0  0  0
    0.9904    1.4381    8.7845 C   0  0  0  0  0  0  0  0  0  0  0  0
    0.4102    0.0760    5.8461 N   0  0  0  0  0  0  0  0  0  0  0  0
    0.9426   -0.0607    4.6138 C   0  0  0  0  0  0  0  0  0  0  0  0
    2.5848   -0.3962    4.7119 S   0  0  0  0  0  0  0  0  0  0  0  0
    0.1726    0.0273    3.3579 C   0  0  0  0  0  0  0  0  0  0  0  0
   -1.2063    0.2344    3.1942 C   0  0  0  0  0  0  0  0  0  0  0  0
   -2.1866    0.4787    4.3056 C   0  0  0  0  0  0  0  0  0  0  0  0
   -2.1411    1.9318    4.7660 C   0  0  0  0  0  0  0  0  0  0  0  0
   -1.6297    0.2226    1.9007 N   0  0  0  0  0  0  0  0  0  0  0  0
   -0.6299    0.0029    1.0215 C   0  0  0  0  0  0  0  0  0  0  0  0
    0.8372   -0.1762    1.8240 S   0  0  0  0  0  0  0  0  0  0  0  0
   -0.8093   -0.1197   -0.4411 C   0  0  0  0  0  0  0  0  0  0  0  0
    0.4711   -0.2883   -1.5226 S   0  0  0  0  0  0  0  0  0  0  0  0
   -0.4378   -0.4776   -2.9252 C   0  0  0  0  0  0  0  0  0  0  0  0
   -1.7867   -0.4166   -2.5633 C   0  0  0  0  0  0  0  0  0  0  0  0
   -1.9990   -0.2051   -1.1850 C   0  0  0  0  0  0  0  0  0  0  0  0
   -3.3067   -0.1222   -0.6858 C   0  0  0  0  0  0  0  0  0  0  0  0
   -4.4043   -0.2740   -1.5603 C   0  0  0  0  0  0  0  0  0  0  0  0
   -5.7313   -0.1866   -1.1074 O   0  0  0  0  0  0  0  0  0  0  0  0
   -6.1108    0.1263    0.2291 C   0  0  0  0  0  0  0  0  0  0  0  0
   -4.1863   -0.5276   -2.9277 C   0  0  0  0  0  0  0  0  0  0  0  0
   -5.3056   -0.7059   -3.7570 O   0  0  0  0  0  0  0  0  0  0  0  0
   -5.2406   -1.0005   -5.1486 C   0  0  0  0  0  0  0  0  0  0  0  0
   -2.8716   -0.6008   -3.4287 C   0  0  0  0  0  0  0  0  0  0  0  0
    0.1195   -0.6092   -4.2862 C   0  0  0  0  0  0  0  0  0  0  0  0
    1.1925   -1.4139   -4.7019 C   0  0  0  0  0  0  0  0  0  0  0  0
    1.9366   -2.3781   -3.8208 C   0  0  0  0  0  0  0  0  0  0  0  0
    1.0681   -3.5784   -3.4574 C   0  0  0  0  0  0  0  0  0  0  0  0
    1.4716   -1.3363   -6.0331 N   0  0  0  0  0  0  0  0  0  0  0  0
    0.6537   -0.4830   -6.6916 C   0  0  0  0  0  0  0  0  0  0  0  0
   -0.4454    0.2248   -5.6338 S   0  0  0  0  0  0  0  0  0  0  0  0
    0.7595   -0.2415   -8.1440 C   0  0  0  0  0  0  0  0  0  0  0  0
   -0.2205    0.2059   -9.0500 C   0  0  0  0  0  0  0  0  0  0  0  0
   -1.6543    0.5112   -8.7105 C   0  0  0  0  0  0  0  0  0  0  0  0
   -2.4486   -0.7714   -8.4705 C   0  0  0  0  0  0  0  0  0  0  0  0
    0.1967    0.2585  -10.3465 N   0  0  0  0  0  0  0  0  0  0  0  0
    1.4827   -0.1213  -10.5008 C   0  0  0  0  0  0  0  0  0  0  0  0
    2.1545   -0.5653   -9.0288 S   0  0  0  0  0  0  0  0  0  0  0  0
    6.3739   -0.8996    9.6477 H   0  0  0  0  0  0  0  0  0  0  0  0
    7.1712   -3.0469    7.2034 H   0  0  0  0  0  0  0  0  0  0  0  0
    8.0829   -1.6413    7.8540 H   0  0  0  0  0  0  0  0  0  0  0  0
    7.0157   -1.9512    4.9709 H   0  0  0  0  0  0  0  0  0  0  0  0
    8.7325   -2.0354    5.5159 H   0  0  0  0  0  0  0  0  0  0  0  0
    7.8355   -0.4749    5.6272 H   0  0  0  0  0  0  0  0  0  0  0  0
    1.4548   -0.6901    8.9224 H   0  0  0  0  0  0  0  0  0  0  0  0
   -0.1816   -0.3130    8.3462 H   0  0  0  0  0  0  0  0  0  0  0  0
    0.3509    2.1101    8.1760 H   0  0  0  0  0  0  0  0  0  0  0  0
    2.0363    1.7951    8.7315 H   0  0  0  0  0  0  0  0  0  0  0  0
    0.6522    1.4835    9.8386 H   0  0  0  0  0  0  0  0  0  0  0  0
   -1.9934   -0.2054    5.1550 H   0  0  0  0  0  0  0  0  0  0  0  0
   -3.2128    0.2514    3.9442 H   0  0  0  0  0  0  0  0  0  0  0  0
   -1.1282    2.1931    5.1440 H   0  0  0  0  0  0  0  0  0  0  0  0
   -2.8781    2.0842    5.5848 H   0  0  0  0  0  0  0  0  0  0  0  0
   -2.4038    2.6103    3.9234 H   0  0  0  0  0  0  0  0  0  0  0  0
   -3.4838    0.0578    0.3601 H   0  0  0  0  0  0  0  0  0  0  0  0
   -7.2191    0.1477    0.2940 H   0  0  0  0  0  0  0  0  0  0  0  0
   -5.7175    1.1264    0.5143 H   0  0  0  0  0  0  0  0  0  0  0  0
   -5.7292   -0.6498    0.9259 H   0  0  0  0  0  0  0  0  0  0  0  0
   -4.7303   -0.1776   -5.6917 H   0  0  0  0  0  0  0  0  0  0  0  0
   -4.6998   -1.9556   -5.3108 H   0  0  0  0  0  0  0  0  0  0  0  0
   -6.2703   -1.1033   -5.5455 H   0  0  0  0  0  0  0  0  0  0  0  0
   -2.7001   -0.8225   -4.4705 H   0  0  0  0  0  0  0  0  0  0  0  0
    2.2899   -1.8700   -2.9026 H   0  0  0  0  0  0  0  0  0  0  0  0
    2.8381   -2.7449   -4.3580 H   0  0  0  0  0  0  0  0  0  0  0  0
    0.1781   -3.2567   -2.8748 H   0  0  0  0  0  0  0  0  0  0  0  0
    1.6562   -4.2882   -2.8373 H   0  0  0  0  0  0  0  0  0  0  0  0
    0.7337   -4.1056   -4.3783 H   0  0  0  0  0  0  0  0  0  0  0  0
   -2.1217    1.0574   -9.5593 H   0  0  0  0  0  0  0  0  0  0  0  0
   -1.7157    1.1832   -7.8309 H   0  0  0  0  0  0  0  0  0  0  0  0
   -2.4051   -1.4241   -9.3687 H   0  0  0  0  0  0  0  0  0  0  0  0
   -2.0436   -1.3275   -7.6002 H   0  0  0  0  0  0  0  0  0  0  0  0
   -3.5100   -0.5211   -8.2645 H   0  0  0  0  0  0  0  0  0  0  0  0
    1.9895   -0.1513  -11.4554 H   0  0  0  0  0  0  0  0  0  0  0  0
  1  2  2  0
  2  3  1  0
  3  4  1  0
  2  5  1  0
  5  6  2  0
  6  7  1  0
  6  8  1  0
  8  9  2  0
  9 10  1  0
 10 11  1  0
  9 12  1  0
 12 13  2  0
 13 14  1  0
 13 15  1  0
 15 16  2  0
 16 17  1  0
 17 18  1  0
 16 19  1  0
 19 20  2  0
 20 21  1  0
 20 22  1  0
 22 23  1  0
 23 24  1  0
 24 25  2  0
 25 26  1  0
 26 27  1  0
 27 28  2  0
 28 29  1  0
 29 30  1  0
 28 31  1  0
 31 32  1  0
 32 33  1  0
 31 34  2  0
 24 35  1  0
 35 36  2  0
 36 37  1  0
 37 38  1  0
 36 39  1  0
 39 40  2  0
 40 41  1  0
 40 42  1  0
 42 43  2  0
 43 44  1  0
 44 45  1  0
 43 46  1  0
 46 47  2  0
 47 48  1  0
  7  1  1  0
 14  8  1  0
 21 15  1  0
 26 22  2  0
 41 35  1  0
 48 42  1  0
 34 25  1  0
  1 49  1  0
  3 50  1  0
  3 51  1  0
  4 52  1  0
  4 53  1  0
  4 54  1  0
 10 55  1  0
 10 56  1  0
 11 57  1  0
 11 58  1  0
 11 59  1  0
 17 60  1  0
 17 61  1  0
 18 62  1  0
 18 63  1  0
 18 64  1  0
 27 65  1  0
 30 66  1  0
 30 67  1  0
 30 68  1  0
 33 69  1  0
 33 70  1  0
 33 71  1  0
 34 72  1  0
 37 73  1  0
 37 74  1  0
 38 75  1  0
 38 76  1  0
 38 77  1  0
 44 78  1  0
 44 79  1  0
 45 80  1  0
 45 81  1  0
 45 82  1  0
 47 83  1  0
M  END

