
     RDKit          3D

 84 91  0  0  0  0  0  0  0  0999 V2000
   -2.8310   -0.6903    7.3078 C   0  0  0  0  0  0  0  0  0  0  0  0
   -2.4532   -2.2736    6.8878 S   0  0  0  0  0  0  0  0  0  0  0  0
   -1.2171   -1.9312    5.7907 C   0  0  0  0  0  0  0  0  0  0  0  0
   -1.1119   -0.5370    5.7153 C   0  0  0  0  0  0  0  0  0  0  0  0
   -2.0054    0.1405    6.5627 C   0  0  0  0  0  0  0  0  0  0  0  0
   -2.0412    1.5346    6.6000 C   0  0  0  0  0  0  0  0  0  0  0  0
   -1.1696    2.2729    5.7699 C   0  0  0  0  0  0  0  0  0  0  0  0
   -1.1671    3.6772    5.7598 O   0  0  0  0  0  0  0  0  0  0  0  0
   -2.0197    4.4926    6.5584 C   0  0  0  0  0  0  0  0  0  0  0  0
   -0.2696    1.5992    4.9177 C   0  0  0  0  0  0  0  0  0  0  0  0
    0.5720    2.3709    4.1004 O   0  0  0  0  0  0  0  0  0  0  0  0
    1.4959    1.8350    3.1577 C   0  0  0  0  0  0  0  0  0  0  0  0
   -0.2342    0.1875    4.8997 C   0  0  0  0  0  0  0  0  0  0  0  0
   -0.5673   -2.9187    4.9016 C   0  0  0  0  0  0  0  0  0  0  0  0
   -0.1857   -2.6218    3.6818 O   0  0  0  0  0  0  0  0  0  0  0  0
    0.2685   -3.6991    3.0870 C   0  0  0  0  0  0  0  0  0  0  0  0
    0.1745   -4.7771    3.9482 C   0  0  0  0  0  0  0  0  0  0  0  0
   -0.3350   -4.2722    5.1298 C   0  0  0  0  0  0  0  0  0  0  0  0
   -0.4910   -5.0518    6.3700 C   0  0  0  0  0  0  0  0  0  0  0  0
   -0.5602   -4.4770    7.4879 O   0  0  0  0  0  0  0  0  0  0  0  0
   -0.5011   -6.4424    6.3127 O   0  0  0  0  0  0  0  0  0  0  0  0
    0.7295   -3.6768    1.6867 C   0  0  0  0  0  0  0  0  0  0  0  0
    0.5097   -2.6347    0.9191 O   0  0  0  0  0  0  0  0  0  0  0  0
    0.9593   -2.8765   -0.2900 C   0  0  0  0  0  0  0  0  0  0  0  0
    1.4854   -4.1556   -0.3414 C   0  0  0  0  0  0  0  0  0  0  0  0
    1.3768   -4.6596    0.9411 C   0  0  0  0  0  0  0  0  0  0  0  0
    1.9712   -5.9315    1.3789 C   0  0  0  0  0  0  0  0  0  0  0  0
    2.4836   -6.0386    2.5237 O   0  0  0  0  0  0  0  0  0  0  0  0
    2.0524   -6.9963    0.4852 O   0  0  0  0  0  0  0  0  0  0  0  0
    0.8506   -1.8892   -1.3804 C   0  0  0  0  0  0  0  0  0  0  0  0
   -0.3100   -0.6669   -1.3768 S   0  0  0  0  0  0  0  0  0  0  0  0
    0.1299    0.0502   -2.8291 C   0  0  0  0  0  0  0  0  0  0  0  0
    1.1915   -0.6813   -3.3655 C   0  0  0  0  0  0  0  0  0  0  0  0
    1.6215   -1.7421   -2.5447 C   0  0  0  0  0  0  0  0  0  0  0  0
    2.7486   -2.4906   -2.9097 C   0  0  0  0  0  0  0  0  0  0  0  0
    3.3902   -2.2379   -4.1422 C   0  0  0  0  0  0  0  0  0  0  0  0
    4.5143   -2.9696   -4.5574 O   0  0  0  0  0  0  0  0  0  0  0  0
    5.1092   -4.0285   -3.8141 C   0  0  0  0  0  0  0  0  0  0  0  0
    2.9085   -1.2249   -4.9936 C   0  0  0  0  0  0  0  0  0  0  0  0
    3.5678   -1.0132   -6.2160 O   0  0  0  0  0  0  0  0  0  0  0  0
    3.2149   -0.0058   -7.1590 C   0  0  0  0  0  0  0  0  0  0  0  0
    1.7999   -0.4473   -4.6027 C   0  0  0  0  0  0  0  0  0  0  0  0
   -0.5362    1.2336   -3.3936 C   0  0  0  0  0  0  0  0  0  0  0  0
   -1.8423    1.3346   -3.4858 O   0  0  0  0  0  0  0  0  0  0  0  0
   -2.1421    2.4906   -4.0299 C   0  0  0  0  0  0  0  0  0  0  0  0
   -0.9860    3.1907   -4.3167 C   0  0  0  0  0  0  0  0  0  0  0  0
    0.0540    2.3912   -3.8873 C   0  0  0  0  0  0  0  0  0  0  0  0
    1.4722    2.7892   -3.8621 C   0  0  0  0  0  0  0  0  0  0  0  0
    2.3031    2.1635   -3.1517 O   0  0  0  0  0  0  0  0  0  0  0  0
    1.8933    3.8858   -4.6082 O   0  0  0  0  0  0  0  0  0  0  0  0
   -3.5076    2.9664   -4.3098 C   0  0  0  0  0  0  0  0  0  0  0  0
   -3.7441    3.9783   -5.1138 O   0  0  0  0  0  0  0  0  0  0  0  0
   -5.0399    4.1646   -5.2034 C   0  0  0  0  0  0  0  0  0  0  0  0
   -5.6979    3.2394   -4.4236 C   0  0  0  0  0  0  0  0  0  0  0  0
   -4.7181    2.4662   -3.8330 C   0  0  0  0  0  0  0  0  0  0  0  0
   -4.9813    1.3948   -2.8528 C   0  0  0  0  0  0  0  0  0  0  0  0
   -4.0511    0.8972   -2.1662 O   0  0  0  0  0  0  0  0  0  0  0  0
   -6.2854    0.9517   -2.6563 O   0  0  0  0  0  0  0  0  0  0  0  0
   -3.5966   -0.3801    8.0075 H   0  0  0  0  0  0  0  0  0  0  0  0
   -2.7423    2.0308    7.2593 H   0  0  0  0  0  0  0  0  0  0  0  0
   -1.8360    4.3006    7.6362 H   0  0  0  0  0  0  0  0  0  0  0  0
   -3.0824    4.2910    6.3100 H   0  0  0  0  0  0  0  0  0  0  0  0
   -1.8036    5.5593    6.3480 H   0  0  0  0  0  0  0  0  0  0  0  0
    0.9587    1.2257    2.4005 H   0  0  0  0  0  0  0  0  0  0  0  0
    2.0123    2.6695    2.6422 H   0  0  0  0  0  0  0  0  0  0  0  0
    2.2568    1.2163    3.6772 H   0  0  0  0  0  0  0  0  0  0  0  0
    0.4727   -0.3296    4.2686 H   0  0  0  0  0  0  0  0  0  0  0  0
    0.4171   -5.8101    3.7539 H   0  0  0  0  0  0  0  0  0  0  0  0
   -0.5860   -6.9964    7.1556 H   0  0  0  0  0  0  0  0  0  0  0  0
    1.8968   -4.6759   -1.1935 H   0  0  0  0  0  0  0  0  0  0  0  0
    2.4840   -7.8720    0.7565 H   0  0  0  0  0  0  0  0  0  0  0  0
    3.1545   -3.2274   -2.2393 H   0  0  0  0  0  0  0  0  0  0  0  0
    4.3739   -4.8462   -3.6569 H   0  0  0  0  0  0  0  0  0  0  0  0
    5.9721   -4.4290   -4.3845 H   0  0  0  0  0  0  0  0  0  0  0  0
    5.4758   -3.6498   -2.8365 H   0  0  0  0  0  0  0  0  0  0  0  0
    3.9050   -0.0630   -8.0255 H   0  0  0  0  0  0  0  0  0  0  0  0
    3.3074    0.9997   -6.6965 H   0  0  0  0  0  0  0  0  0  0  0  0
    2.1774   -0.1666   -7.5216 H   0  0  0  0  0  0  0  0  0  0  0  0
    1.4174    0.3292   -5.2493 H   0  0  0  0  0  0  0  0  0  0  0  0
   -0.9145    4.1817   -4.7447 H   0  0  0  0  0  0  0  0  0  0  0  0
    2.8653    4.1727   -4.6094 H   0  0  0  0  0  0  0  0  0  0  0  0
   -5.5049    4.9348   -5.8030 H   0  0  0  0  0  0  0  0  0  0  0  0
   -6.7681    3.1562   -4.2897 H   0  0  0  0  0  0  0  0  0  0  0  0
   -6.4922    0.2263   -1.9800 H   0  0  0  0  0  0  0  0  0  0  0  0
  1  2  1  0
  2  3  1  0
  3  4  2  0
  4  5  1  0
  5  6  1  0
  6  7  2  0
  7  8  1  0
  8  9  1  0
  7 10  1  0
 10 11  1  0
 11 12  1  0
 10 13  2  0
  3 14  1  0
 14 15  1  0
 15 16  1  0
 16 17  2  0
 17 18  1  0
 18 19  1  0
 19 20  2  0
 19 21  1  0
 16 22  1  0
 22 23  1  0
 23 24  1  0
 24 25  2  0
 25 26  1  0
 26 27  1  0
 27 28  2  0
 27 29  1  0
 24 30  1  0
 30 31  1  0
 31 32  1  0
 32 33  2  0
 33 34  1  0
 34 35  1  0
 35 36  2  0
 36 37  1  0
 37 38  1  0
 36 39  1  0
 39 40  1  0
 40 41  1  0
 39 42  2  0
 32 43  1  0
 43 44  1  0
 44 45  1  0
 45 46  2  0
 46 47  1  0
 47 48  1  0
 48 49  2  0
 48 50  1  0
 45 51  1  0
 51 52  1  0
 52 53  1  0
 53 54  2  0
 54 55  1  0
 55 56  1  0
 56 57  2  0
 56 58  1  0
  5  1  2  0
 18 14  2  0
 26 22  2  0
 34 30  2  0
 47 43  2  0
 55 51  2  0
 13  4  1  0
 42 33  1  0
  1 59  1  0
  6 60  1  0
  9 61  1  0
  9 62  1  0
  9 63  1  0
 12 64  1  0
 12 65  1  0
 12 66  1  0
 13 67  1  0
 17 68  1  0
 21 69  1  0
 25 70  1  0
 29 71  1  0
 35 72  1  0
 38 73  1  0
 38 74  1  0
 38 75  1  0
 41 76  1  0
 41 77  1  0
 41 78  1  0
 42 79  1  0
 46 80  1  0
 50 81  1  0
 53 82  1  0
 54 83  1  0
 58 84  1  0
M  END

