
     RDKit          3D

 88 95  0  0  0  0  0  0  0  0999 V2000
    4.9566   -1.3531    5.9799 C   0  0  0  0  0  0  0  0  0  0  0  0
    4.9896   -0.1235    5.5029 O   0  0  0  0  0  0  0  0  0  0  0  0
    6.0531    0.4948    5.9727 C   0  0  0  0  0  0  0  0  0  0  0  0
    6.7649   -0.3714    6.7778 C   0  0  0  0  0  0  0  0  0  0  0  0
    6.0547   -1.5495    6.7891 C   0  0  0  0  0  0  0  0  0  0  0  0
    6.3780   -2.6829    7.4585 F   0  0  0  0  0  0  0  0  0  0  0  0
    7.9225   -0.1172    7.4420 F   0  0  0  0  0  0  0  0  0  0  0  0
    6.4631    1.8757    5.6515 C   0  0  0  0  0  0  0  0  0  0  0  0
    5.6684    2.8734    5.2315 C   0  0  0  0  0  0  0  0  0  0  0  0
    4.1968    2.8398    5.1253 C   0  0  0  0  0  0  0  0  0  0  0  0
    3.4127    1.8908    5.5881 O   0  0  0  0  0  0  0  0  0  0  0  0
    2.1603    2.1877    5.3163 C   0  0  0  0  0  0  0  0  0  0  0  0
    2.1200    3.4091    4.6586 C   0  0  0  0  0  0  0  0  0  0  0  0
    3.4263    3.8239    4.5417 C   0  0  0  0  0  0  0  0  0  0  0  0
    3.8651    4.9737    3.9680 F   0  0  0  0  0  0  0  0  0  0  0  0
    1.0344    4.0995    4.2365 F   0  0  0  0  0  0  0  0  0  0  0  0
    1.0447    1.2906    5.6749 C   0  0  0  0  0  0  0  0  0  0  0  0
   -0.2058    1.4568    5.2294 C   0  0  0  0  0  0  0  0  0  0  0  0
   -1.2884    0.4812    5.4537 C   0  0  0  0  0  0  0  0  0  0  0  0
   -2.4085    0.5165    4.7675 O   0  0  0  0  0  0  0  0  0  0  0  0
   -3.1655   -0.5015    5.1138 C   0  0  0  0  0  0  0  0  0  0  0  0
   -2.5327   -1.2217    6.1066 C   0  0  0  0  0  0  0  0  0  0  0  0
   -1.3252   -0.5992    6.3238 C   0  0  0  0  0  0  0  0  0  0  0  0
   -0.3904   -0.9709    7.2303 F   0  0  0  0  0  0  0  0  0  0  0  0
   -2.9984   -2.3272    6.7371 F   0  0  0  0  0  0  0  0  0  0  0  0
   -4.4908   -0.8149    4.5424 C   0  0  0  0  0  0  0  0  0  0  0  0
   -4.9854   -0.3465    3.3828 C   0  0  0  0  0  0  0  0  0  0  0  0
   -4.2548    0.4706    2.3930 C   0  0  0  0  0  0  0  0  0  0  0  0
   -2.9479    0.5588    2.2945 O   0  0  0  0  0  0  0  0  0  0  0  0
   -2.6459    1.4155    1.3450 C   0  0  0  0  0  0  0  0  0  0  0  0
   -3.8081    1.9018    0.7785 C   0  0  0  0  0  0  0  0  0  0  0  0
   -4.8415    1.2784    1.4374 C   0  0  0  0  0  0  0  0  0  0  0  0
   -6.1674    1.5165    1.2691 F   0  0  0  0  0  0  0  0  0  0  0  0
   -3.9211    2.9049   -0.1271 F   0  0  0  0  0  0  0  0  0  0  0  0
   -1.2808    1.8931    1.1079 C   0  0  0  0  0  0  0  0  0  0  0  0
   -0.5227    1.6306    0.0354 C   0  0  0  0  0  0  0  0  0  0  0  0
   -0.9011    0.8277   -1.1525 C   0  0  0  0  0  0  0  0  0  0  0  0
   -2.4359    0.7005   -1.8392 S   0  0  0  0  0  0  0  0  0  0  0  0
   -1.9955   -0.1424   -3.2262 C   0  0  0  0  0  0  0  0  0  0  0  0
   -0.6100   -0.3036   -3.2000 C   0  0  0  0  0  0  0  0  0  0  0  0
   -0.0050    0.2207   -2.0429 C   0  0  0  0  0  0  0  0  0  0  0  0
    1.3813    0.1295   -1.8737 C   0  0  0  0  0  0  0  0  0  0  0  0
    2.1735   -0.4689   -2.8764 C   0  0  0  0  0  0  0  0  0  0  0  0
    3.5664   -0.5963   -2.7448 O   0  0  0  0  0  0  0  0  0  0  0  0
    4.3158   -0.1527   -1.6171 C   0  0  0  0  0  0  0  0  0  0  0  0
    1.5698   -0.9580   -4.0528 C   0  0  0  0  0  0  0  0  0  0  0  0
    2.3964   -1.5354   -5.0317 O   0  0  0  0  0  0  0  0  0  0  0  0
    1.9349   -2.1006   -6.2538 C   0  0  0  0  0  0  0  0  0  0  0  0
    0.1729   -0.8588   -4.2201 C   0  0  0  0  0  0  0  0  0  0  0  0
   -2.9193   -0.4842   -4.3185 C   0  0  0  0  0  0  0  0  0  0  0  0
   -4.0031    0.6009   -5.0141 S   0  0  0  0  0  0  0  0  0  0  0  0
   -4.6180   -0.4369   -6.1881 C   0  0  0  0  0  0  0  0  0  0  0  0
   -3.9772   -1.6605   -6.0391 C   0  0  0  0  0  0  0  0  0  0  0  0
   -3.0441   -1.7004   -4.9924 C   0  0  0  0  0  0  0  0  0  0  0  0
   -2.3713   -2.8883   -4.6936 C   0  0  0  0  0  0  0  0  0  0  0  0
   -2.5907   -4.0312   -5.4939 C   0  0  0  0  0  0  0  0  0  0  0  0
   -1.9098   -5.2356   -5.2645 O   0  0  0  0  0  0  0  0  0  0  0  0
   -0.9283   -5.4244   -4.2482 C   0  0  0  0  0  0  0  0  0  0  0  0
   -3.5104   -3.9800   -6.5621 C   0  0  0  0  0  0  0  0  0  0  0  0
   -3.6897   -5.1364   -7.3394 O   0  0  0  0  0  0  0  0  0  0  0  0
   -4.5408   -5.2264   -8.4780 C   0  0  0  0  0  0  0  0  0  0  0  0
   -4.2147   -2.7860   -6.8279 C   0  0  0  0  0  0  0  0  0  0  0  0
    4.1825   -2.0809    5.7579 H   0  0  0  0  0  0  0  0  0  0  0  0
    7.5172    2.1047    5.7670 H   0  0  0  0  0  0  0  0  0  0  0  0
    6.1494    3.8164    4.9844 H   0  0  0  0  0  0  0  0  0  0  0  0
    1.3018    0.4208    6.2618 H   0  0  0  0  0  0  0  0  0  0  0  0
   -0.4460    2.2871    4.5837 H   0  0  0  0  0  0  0  0  0  0  0  0
   -5.1302   -1.4639    5.1300 H   0  0  0  0  0  0  0  0  0  0  0  0
   -6.0107   -0.5995    3.1384 H   0  0  0  0  0  0  0  0  0  0  0  0
   -0.8151    2.4228    1.9293 H   0  0  0  0  0  0  0  0  0  0  0  0
    0.4916    2.0072    0.0687 H   0  0  0  0  0  0  0  0  0  0  0  0
    1.8402    0.5095   -0.9735 H   0  0  0  0  0  0  0  0  0  0  0  0
    4.1975    0.9458   -1.4908 H   0  0  0  0  0  0  0  0  0  0  0  0
    5.3908   -0.3738   -1.7831 H   0  0  0  0  0  0  0  0  0  0  0  0
    3.9824   -0.6893   -0.7008 H   0  0  0  0  0  0  0  0  0  0  0  0
    1.4367   -1.3221   -6.8651 H   0  0  0  0  0  0  0  0  0  0  0  0
    2.8046   -2.4955   -6.8220 H   0  0  0  0  0  0  0  0  0  0  0  0
    1.2331   -2.9348   -6.0495 H   0  0  0  0  0  0  0  0  0  0  0  0
   -0.2898   -1.1875   -5.1370 H   0  0  0  0  0  0  0  0  0  0  0  0
   -5.3696   -0.1907   -6.9266 H   0  0  0  0  0  0  0  0  0  0  0  0
   -1.6933   -2.9217   -3.8529 H   0  0  0  0  0  0  0  0  0  0  0  0
   -1.3807   -5.2686   -3.2446 H   0  0  0  0  0  0  0  0  0  0  0  0
   -0.0789   -4.7241   -4.4006 H   0  0  0  0  0  0  0  0  0  0  0  0
   -0.5424   -6.4628   -4.3058 H   0  0  0  0  0  0  0  0  0  0  0  0
   -5.5900   -5.0324   -8.1817 H   0  0  0  0  0  0  0  0  0  0  0  0
   -4.2228   -4.5046   -9.2604 H   0  0  0  0  0  0  0  0  0  0  0  0
   -4.4758   -6.2535   -8.8953 H   0  0  0  0  0  0  0  0  0  0  0  0
   -4.9340   -2.7266   -7.6324 H   0  0  0  0  0  0  0  0  0  0  0  0
  1  2  1  0
  2  3  1  0
  3  4  2  0
  4  5  1  0
  5  6  1  0
  4  7  1  0
  3  8  1  0
  8  9  2  3
  9 10  1  0
 10 11  1  0
 11 12  1  0
 12 13  2  0
 13 14  1  0
 14 15  1  0
 13 16  1  0
 12 17  1  0
 17 18  2  3
 18 19  1  0
 19 20  1  0
 20 21  1  0
 21 22  2  0
 22 23  1  0
 23 24  1  0
 22 25  1  0
 21 26  1  0
 26 27  2  3
 27 28  1  0
 28 29  1  0
 29 30  1  0
 30 31  2  0
 31 32  1  0
 32 33  1  0
 31 34  1  0
 30 35  1  0
 35 36  2  3
 36 37  1  0
 37 38  1  0
 38 39  1  0
 39 40  2  0
 40 41  1  0
 41 42  1  0
 42 43  2  0
 43 44  1  0
 44 45  1  0
 43 46  1  0
 46 47  1  0
 47 48  1  0
 46 49  2  0
 39 50  1  0
 50 51  1  0
 51 52  1  0
 52 53  2  0
 53 54  1  0
 54 55  1  0
 55 56  2  0
 56 57  1  0
 57 58  1  0
 56 59  1  0
 59 60  1  0
 60 61  1  0
 59 62  2  0
  5  1  2  0
 14 10  2  0
 23 19  2  0
 32 28  2  0
 41 37  2  0
 54 50  2  0
 49 40  1  0
 62 53  1  0
  1 63  1  0
  8 64  1  0
  9 65  1  0
 17 66  1  0
 18 67  1  0
 26 68  1  0
 27 69  1  0
 35 70  1  0
 36 71  1  0
 42 72  1  0
 45 73  1  0
 45 74  1  0
 45 75  1  0
 48 76  1  0
 48 77  1  0
 48 78  1  0
 49 79  1  0
 52 80  1  0
 55 81  1  0
 58 82  1  0
 58 83  1  0
 58 84  1  0
 61 85  1  0
 61 86  1  0
 61 87  1  0
 62 88  1  0
M  END

