
     RDKit          3D

157171  0  0  0  0  0  0  0  0999 V2000
    9.9249   -0.1462    4.2147 C   0  0  0  0  0  0  0  0  0  0  0  0
    9.0718   -1.0462    5.3705 S   0  0  0  0  0  0  0  0  0  0  0  0
    7.6519   -1.2108    4.4759 C   0  0  0  0  0  0  0  0  0  0  0  0
    7.8224   -0.5465    3.2678 C   0  0  0  0  0  0  0  0  0  0  0  0
    9.0880    0.0423    3.1192 C   0  0  0  0  0  0  0  0  0  0  0  0
    9.4008    0.7772    1.9770 C   0  0  0  0  0  0  0  0  0  0  0  0
    8.4309    0.9275    0.9595 C   0  0  0  0  0  0  0  0  0  0  0  0
    8.6729    1.6720   -0.2038 O   0  0  0  0  0  0  0  0  0  0  0  0
    9.8881    2.3496   -0.4974 C   0  0  0  0  0  0  0  0  0  0  0  0
    7.1671    0.3103    1.0952 C   0  0  0  0  0  0  0  0  0  0  0  0
    6.2434    0.4616    0.0495 O   0  0  0  0  0  0  0  0  0  0  0  0
    4.9235   -0.0677    0.0464 C   0  0  0  0  0  0  0  0  0  0  0  0
    6.8598   -0.4198    2.2620 C   0  0  0  0  0  0  0  0  0  0  0  0
    6.3976   -1.7997    4.9568 C   0  0  0  0  0  0  0  0  0  0  0  0
    5.3465   -1.0526    5.4909 C   0  0  0  0  0  0  0  0  0  0  0  0
    4.1096   -1.7033    5.3887 C   0  0  0  0  0  0  0  0  0  0  0  0
    2.8496   -1.1209    5.6482 C   0  0  0  0  0  0  0  0  0  0  0  0
    2.7177    0.2236    6.2484 C   0  0  0  0  0  0  0  0  0  0  0  0
    2.4048    0.3530    7.6080 C   0  0  0  0  0  0  0  0  0  0  0  0
    2.3265    1.6177    8.1929 C   0  0  0  0  0  0  0  0  0  0  0  0
    2.5403    2.7660    7.4223 C   0  0  0  0  0  0  0  0  0  0  0  0
    2.4862    4.3794    8.2099 S   0  0  0  0  0  0  0  0  0  0  0  0
    0.6679    4.5445    8.1284 C   0  0  0  0  0  0  0  0  0  0  0  0
    0.2427    5.1549    6.8057 C   0  0  0  0  0  0  0  0  0  0  0  0
    2.8512    2.6409    6.0612 C   0  0  0  0  0  0  0  0  0  0  0  0
    3.0680    3.7445    5.3086 F   0  0  0  0  0  0  0  0  0  0  0  0
    2.9406    1.3739    5.4756 C   0  0  0  0  0  0  0  0  0  0  0  0
    1.7214   -1.8277    5.1961 C   0  0  0  0  0  0  0  0  0  0  0  0
    1.8133   -3.0806    4.5779 C   0  0  0  0  0  0  0  0  0  0  0  0
    3.0674   -3.6983    4.4069 C   0  0  0  0  0  0  0  0  0  0  0  0
    3.2102   -4.9627    3.6602 C   0  0  0  0  0  0  0  0  0  0  0  0
    3.4172   -6.1694    4.3470 C   0  0  0  0  0  0  0  0  0  0  0  0
    3.5810   -7.3632    3.6348 C   0  0  0  0  0  0  0  0  0  0  0  0
    3.5492   -7.3591    2.2360 C   0  0  0  0  0  0  0  0  0  0  0  0
    3.7635   -8.8952    1.3304 S   0  0  0  0  0  0  0  0  0  0  0  0
    2.0096   -9.4010    1.4382 C   0  0  0  0  0  0  0  0  0  0  0  0
    1.2154   -8.8585    0.2548 C   0  0  0  0  0  0  0  0  0  0  0  0
    3.3420   -6.1557    1.5439 C   0  0  0  0  0  0  0  0  0  0  0  0
    3.1788   -4.9626    2.2579 C   0  0  0  0  0  0  0  0  0  0  0  0
    3.3117   -6.1257    0.1874 F   0  0  0  0  0  0  0  0  0  0  0  0
    4.1988   -2.9671    4.8002 C   0  0  0  0  0  0  0  0  0  0  0  0
    5.7999   -3.2607    4.3831 S   0  0  0  0  0  0  0  0  0  0  0  0
    0.6137   -3.4981    3.9803 C   0  0  0  0  0  0  0  0  0  0  0  0
   -0.3915   -2.5342    4.0402 C   0  0  0  0  0  0  0  0  0  0  0  0
    0.1811   -1.2153    4.9311 S   0  0  0  0  0  0  0  0  0  0  0  0
   -1.2851   -2.3364    2.8969 C   0  0  0  0  0  0  0  0  0  0  0  0
   -0.9992   -1.1362    1.7580 S   0  0  0  0  0  0  0  0  0  0  0  0
   -2.0496   -1.6989    0.5797 C   0  0  0  0  0  0  0  0  0  0  0  0
   -2.6813   -2.8369    1.0792 C   0  0  0  0  0  0  0  0  0  0  0  0
   -2.2446   -3.2059    2.3668 C   0  0  0  0  0  0  0  0  0  0  0  0
   -2.8022   -4.3079    3.0196 C   0  0  0  0  0  0  0  0  0  0  0  0
   -3.8524   -5.0233    2.3989 C   0  0  0  0  0  0  0  0  0  0  0  0
   -4.4945   -6.1030    3.0291 O   0  0  0  0  0  0  0  0  0  0  0  0
   -4.2326   -6.5253    4.3584 C   0  0  0  0  0  0  0  0  0  0  0  0
   -4.3022   -4.6445    1.1162 C   0  0  0  0  0  0  0  0  0  0  0  0
   -5.3692   -5.3671    0.5485 O   0  0  0  0  0  0  0  0  0  0  0  0
   -5.9719   -5.0540   -0.7035 C   0  0  0  0  0  0  0  0  0  0  0  0
   -3.7010   -3.5506    0.4484 C   0  0  0  0  0  0  0  0  0  0  0  0
   -2.2913   -0.9851   -0.6821 C   0  0  0  0  0  0  0  0  0  0  0  0
   -2.5168    0.6691   -0.7485 S   0  0  0  0  0  0  0  0  0  0  0  0
   -2.5933    0.8536   -2.4201 C   0  0  0  0  0  0  0  0  0  0  0  0
   -2.3824   -0.4373   -2.9665 C   0  0  0  0  0  0  0  0  0  0  0  0
   -2.1907   -1.4497   -1.9922 C   0  0  0  0  0  0  0  0  0  0  0  0
   -1.8483   -2.7493   -2.3706 C   0  0  0  0  0  0  0  0  0  0  0  0
   -1.7110   -3.0692   -3.7388 C   0  0  0  0  0  0  0  0  0  0  0  0
   -1.3422   -4.3548   -4.1743 O   0  0  0  0  0  0  0  0  0  0  0  0
   -1.2083   -5.4893   -3.3241 C   0  0  0  0  0  0  0  0  0  0  0  0
   -1.9460   -2.0831   -4.7156 C   0  0  0  0  0  0  0  0  0  0  0  0
   -1.7939   -2.4376   -6.0695 O   0  0  0  0  0  0  0  0  0  0  0  0
   -2.0217   -1.5569   -7.1611 C   0  0  0  0  0  0  0  0  0  0  0  0
   -2.3178   -0.7794   -4.3272 C   0  0  0  0  0  0  0  0  0  0  0  0
   -2.7011    2.1835   -3.1042 C   0  0  0  0  0  0  0  0  0  0  0  0
   -2.2751    2.4629   -4.7116 S   0  0  0  0  0  0  0  0  0  0  0  0
   -2.5696    4.1074   -4.7629 C   0  0  0  0  0  0  0  0  0  0  0  0
   -2.9809    4.5047   -3.4982 C   0  0  0  0  0  0  0  0  0  0  0  0
   -3.0678    3.4480   -2.5686 C   0  0  0  0  0  0  0  0  0  0  0  0
   -3.5202    3.7203   -1.2688 C   0  0  0  0  0  0  0  0  0  0  0  0
   -3.8242    5.0396   -0.8892 C   0  0  0  0  0  0  0  0  0  0  0  0
   -4.2059    5.3588    0.4206 O   0  0  0  0  0  0  0  0  0  0  0  0
   -4.1474    4.4561    1.5215 C   0  0  0  0  0  0  0  0  0  0  0  0
   -3.7415    6.0831   -1.8258 C   0  0  0  0  0  0  0  0  0  0  0  0
   -4.0762    7.3785   -1.4059 O   0  0  0  0  0  0  0  0  0  0  0  0
   -4.1160    8.5200   -2.2590 C   0  0  0  0  0  0  0  0  0  0  0  0
   -3.3284    5.8072   -3.1448 C   0  0  0  0  0  0  0  0  0  0  0  0
   -2.4600    4.9355   -5.9716 C   0  0  0  0  0  0  0  0  0  0  0  0
   -1.4525    6.2745   -6.1494 S   0  0  0  0  0  0  0  0  0  0  0  0
   -1.8316    6.6029   -7.7576 C   0  0  0  0  0  0  0  0  0  0  0  0
   -2.7666    5.6578   -8.1721 C   0  0  0  0  0  0  0  0  0  0  0  0
   -3.1228    4.7280   -7.1830 C   0  0  0  0  0  0  0  0  0  0  0  0
   -4.0863    3.7465   -7.4415 C   0  0  0  0  0  0  0  0  0  0  0  0
   -4.6832    3.6882   -8.7223 C   0  0  0  0  0  0  0  0  0  0  0  0
   -5.6642    2.7361   -9.0346 O   0  0  0  0  0  0  0  0  0  0  0  0
   -6.1823    1.7871   -8.1083 C   0  0  0  0  0  0  0  0  0  0  0  0
   -4.3006    4.6045   -9.7277 C   0  0  0  0  0  0  0  0  0  0  0  0
   -4.9021    4.4870  -10.9910 O   0  0  0  0  0  0  0  0  0  0  0  0
   -4.5353    5.2633  -12.1280 C   0  0  0  0  0  0  0  0  0  0  0  0
   -3.3385    5.6011   -9.4439 C   0  0  0  0  0  0  0  0  0  0  0  0
   10.9363    0.2400    4.3218 H   0  0  0  0  0  0  0  0  0  0  0  0
   10.3735    1.2368    1.8884 H   0  0  0  0  0  0  0  0  0  0  0  0
   10.0953    3.1066    0.2885 H   0  0  0  0  0  0  0  0  0  0  0  0
   10.7270    1.6208   -0.5740 H   0  0  0  0  0  0  0  0  0  0  0  0
    9.7536    2.8617   -1.4797 H   0  0  0  0  0  0  0  0  0  0  0  0
    4.4243    0.1917   -0.9092 H   0  0  0  0  0  0  0  0  0  0  0  0
    4.9460   -1.1760    0.1370 H   0  0  0  0  0  0  0  0  0  0  0  0
    4.3356    0.3534    0.8919 H   0  0  0  0  0  0  0  0  0  0  0  0
    5.8877   -0.8865    2.3810 H   0  0  0  0  0  0  0  0  0  0  0  0
    5.4585   -0.0218    5.8132 H   0  0  0  0  0  0  0  0  0  0  0  0
    2.2461   -0.5321    8.2186 H   0  0  0  0  0  0  0  0  0  0  0  0
    2.0892    1.7047    9.2485 H   0  0  0  0  0  0  0  0  0  0  0  0
    0.1699    3.5567    8.2716 H   0  0  0  0  0  0  0  0  0  0  0  0
    0.3457    5.2058    8.9579 H   0  0  0  0  0  0  0  0  0  0  0  0
    0.6733    6.1743    6.6909 H   0  0  0  0  0  0  0  0  0  0  0  0
   -0.8650    5.2324    6.7752 H   0  0  0  0  0  0  0  0  0  0  0  0
    0.5672    4.5225    5.9605 H   0  0  0  0  0  0  0  0  0  0  0  0
    3.1907    1.2901    4.4284 H   0  0  0  0  0  0  0  0  0  0  0  0
    3.4377   -6.1851    5.4301 H   0  0  0  0  0  0  0  0  0  0  0  0
    3.7259   -8.2868    4.1746 H   0  0  0  0  0  0  0  0  0  0  0  0
    1.5532   -9.0611    2.3893 H   0  0  0  0  0  0  0  0  0  0  0  0
    1.9675  -10.5065    1.4274 H   0  0  0  0  0  0  0  0  0  0  0  0
    0.1481   -9.1501    0.3758 H   0  0  0  0  0  0  0  0  0  0  0  0
    1.5950   -9.2815   -0.7012 H   0  0  0  0  0  0  0  0  0  0  0  0
    1.2652   -7.7498    0.2296 H   0  0  0  0  0  0  0  0  0  0  0  0
    3.0166   -4.0312    1.7209 H   0  0  0  0  0  0  0  0  0  0  0  0
    0.5484   -4.3757    3.3517 H   0  0  0  0  0  0  0  0  0  0  0  0
   -2.4546   -4.5757    4.0138 H   0  0  0  0  0  0  0  0  0  0  0  0
   -4.9119   -7.3608    4.6169 H   0  0  0  0  0  0  0  0  0  0  0  0
   -4.4069   -5.6941    5.0745 H   0  0  0  0  0  0  0  0  0  0  0  0
   -3.1852   -6.8816    4.4390 H   0  0  0  0  0  0  0  0  0  0  0  0
   -6.7932   -5.7763   -0.9003 H   0  0  0  0  0  0  0  0  0  0  0  0
   -5.2251   -5.1429   -1.5234 H   0  0  0  0  0  0  0  0  0  0  0  0
   -6.3998   -4.0332   -0.6764 H   0  0  0  0  0  0  0  0  0  0  0  0
   -4.0418   -3.2551   -0.5325 H   0  0  0  0  0  0  0  0  0  0  0  0
   -1.6507   -3.4956   -1.6104 H   0  0  0  0  0  0  0  0  0  0  0  0
   -0.9294   -6.3682   -3.9320 H   0  0  0  0  0  0  0  0  0  0  0  0
   -0.4202   -5.3262   -2.5676 H   0  0  0  0  0  0  0  0  0  0  0  0
   -2.1720   -5.7070   -2.8254 H   0  0  0  0  0  0  0  0  0  0  0  0
   -1.3449   -0.6804   -7.0931 H   0  0  0  0  0  0  0  0  0  0  0  0
   -3.0817   -1.2158   -7.1724 H   0  0  0  0  0  0  0  0  0  0  0  0
   -1.8138   -2.0954   -8.1119 H   0  0  0  0  0  0  0  0  0  0  0  0
   -2.5541   -0.0579   -5.0950 H   0  0  0  0  0  0  0  0  0  0  0  0
   -3.6874    2.9272   -0.5612 H   0  0  0  0  0  0  0  0  0  0  0  0
   -4.8802    3.6350    1.3881 H   0  0  0  0  0  0  0  0  0  0  0  0
   -4.3916    5.0044    2.4557 H   0  0  0  0  0  0  0  0  0  0  0  0
   -3.1202    4.0327    1.6120 H   0  0  0  0  0  0  0  0  0  0  0  0
   -4.8618    8.3685   -3.0682 H   0  0  0  0  0  0  0  0  0  0  0  0
   -3.1145    8.7069   -2.7004 H   0  0  0  0  0  0  0  0  0  0  0  0
   -4.4192    9.4096   -1.6678 H   0  0  0  0  0  0  0  0  0  0  0  0
   -3.2801    6.6022   -3.8790 H   0  0  0  0  0  0  0  0  0  0  0  0
   -1.4392    7.4153   -8.3551 H   0  0  0  0  0  0  0  0  0  0  0  0
   -4.3788    3.0627   -6.6601 H   0  0  0  0  0  0  0  0  0  0  0  0
   -6.9569    1.1759   -8.6124 H   0  0  0  0  0  0  0  0  0  0  0  0
   -5.3689    1.1184   -7.7547 H   0  0  0  0  0  0  0  0  0  0  0  0
   -6.6473    2.3085   -7.2423 H   0  0  0  0  0  0  0  0  0  0  0  0
   -4.7259    6.3397  -11.9445 H   0  0  0  0  0  0  0  0  0  0  0  0
   -3.4591    5.1030  -12.3646 H   0  0  0  0  0  0  0  0  0  0  0  0
   -5.1332    4.9354  -12.9957 H   0  0  0  0  0  0  0  0  0  0  0  0
   -3.0314    6.3189  -10.1914 H   0  0  0  0  0  0  0  0  0  0  0  0
  1  2  1  0
  2  3  1  0
  3  4  2  0
  4  5  1  0
  5  6  1  0
  6  7  2  0
  7  8  1  0
  8  9  1  0
  7 10  1  0
 10 11  1  0
 11 12  1  0
 10 13  2  0
  3 14  1  0
 14 15  2  0
 15 16  1  0
 16 17  2  0
 17 18  1  0
 18 19  2  0
 19 20  1  0
 20 21  2  0
 21 22  1  0
 22 23  1  0
 23 24  1  0
 21 25  1  0
 25 26  1  0
 25 27  2  0
 17 28  1  0
 28 29  2  0
 29 30  1  0
 30 31  1  0
 31 32  2  0
 32 33  1  0
 33 34  2  0
 34 35  1  0
 35 36  1  0
 36 37  1  0
 34 38  1  0
 38 39  2  0
 38 40  1  0
 30 41  2  0
 41 42  1  0
 29 43  1  0
 43 44  2  0
 44 45  1  0
 44 46  1  0
 46 47  1  0
 47 48  1  0
 48 49  2  0
 49 50  1  0
 50 51  1  0
 51 52  2  0
 52 53  1  0
 53 54  1  0
 52 55  1  0
 55 56  1  0
 56 57  1  0
 55 58  2  0
 48 59  1  0
 59 60  1  0
 60 61  1  0
 61 62  2  0
 62 63  1  0
 63 64  1  0
 64 65  2  0
 65 66  1  0
 66 67  1  0
 65 68  1  0
 68 69  1  0
 69 70  1  0
 68 71  2  0
 61 72  1  0
 72 73  1  0
 73 74  1  0
 74 75  2  0
 75 76  1  0
 76 77  1  0
 77 78  2  0
 78 79  1  0
 79 80  1  0
 78 81  1  0
 81 82  1  0
 82 83  1  0
 81 84  2  0
 74 85  1  0
 85 86  1  0
 86 87  1  0
 87 88  2  0
 88 89  1  0
 89 90  1  0
 90 91  2  0
 91 92  1  0
 92 93  1  0
 91 94  1  0
 94 95  1  0
 95 96  1  0
 94 97  2  0
  5  1  2  0
 42 14  1  0
 50 46  2  0
 63 59  2  0
 76 72  2  0
 89 85  2  0
 13  4  1  0
 41 16  1  0
 58 49  1  0
 71 62  1  0
 84 75  1  0
 97 88  1  0
 27 18  1  0
 45 28  1  0
 39 31  1  0
  1 98  1  0
  6 99  1  0
  9100  1  0
  9101  1  0
  9102  1  0
 12103  1  0
 12104  1  0
 12105  1  0
 13106  1  0
 15107  1  0
 19108  1  0
 20109  1  0
 23110  1  0
 23111  1  0
 24112  1  0
 24113  1  0
 24114  1  0
 27115  1  0
 32116  1  0
 33117  1  0
 36118  1  0
 36119  1  0
 37120  1  0
 37121  1  0
 37122  1  0
 39123  1  0
 43124  1  0
 51125  1  0
 54126  1  0
 54127  1  0
 54128  1  0
 57129  1  0
 57130  1  0
 57131  1  0
 58132  1  0
 64133  1  0
 67134  1  0
 67135  1  0
 67136  1  0
 70137  1  0
 70138  1  0
 70139  1  0
 71140  1  0
 77141  1  0
 80142  1  0
 80143  1  0
 80144  1  0
 83145  1  0
 83146  1  0
 83147  1  0
 84148  1  0
 87149  1  0
 90150  1  0
 93151  1  0
 93152  1  0
 93153  1  0
 96154  1  0
 96155  1  0
 96156  1  0
 97157  1  0
M  END

