
     RDKit          3D

116123  0  0  0  0  0  0  0  0999 V2000
    1.8115    2.2620    1.2231 C   0  0  0  0  0  0  0  0  0  0  0  0
    0.5677    1.1592    1.4792 S   0  0  0  0  0  0  0  0  0  0  0  0
   -0.2880    2.0676    2.6134 C   0  0  0  0  0  0  0  0  0  0  0  0
    0.4245    3.2473    2.8327 C   0  0  0  0  0  0  0  0  0  0  0  0
    1.5803    3.3536    2.0464 C   0  0  0  0  0  0  0  0  0  0  0  0
    2.3997    4.4786    2.1256 C   0  0  0  0  0  0  0  0  0  0  0  0
    2.0544    5.5262    3.0052 C   0  0  0  0  0  0  0  0  0  0  0  0
    2.8262    6.6943    3.1051 O   0  0  0  0  0  0  0  0  0  0  0  0
    3.9877    6.9626    2.3250 C   0  0  0  0  0  0  0  0  0  0  0  0
    0.9028    5.4157    3.8127 C   0  0  0  0  0  0  0  0  0  0  0  0
    0.5844    6.4871    4.6636 O   0  0  0  0  0  0  0  0  0  0  0  0
   -0.6241    6.5877    5.4130 C   0  0  0  0  0  0  0  0  0  0  0  0
    0.0982    4.2572    3.7440 C   0  0  0  0  0  0  0  0  0  0  0  0
   -1.5104    1.6179    3.3031 C   0  0  0  0  0  0  0  0  0  0  0  0
   -2.7560    2.2625    3.2060 C   0  0  0  0  0  0  0  0  0  0  0  0
   -3.1569    3.3112    2.2063 C   0  0  0  0  0  0  0  0  0  0  0  0
   -4.3597    3.8832    2.5768 F   0  0  0  0  0  0  0  0  0  0  0  0
   -2.2122    4.3107    2.1126 F   0  0  0  0  0  0  0  0  0  0  0  0
   -3.3054    2.7167    0.9666 F   0  0  0  0  0  0  0  0  0  0  0  0
   -3.8848    1.3477    4.0586 S   0  0  0  0  0  0  0  0  0  0  0  0
   -2.8265    0.1359    4.5436 C   0  0  0  0  0  0  0  0  0  0  0  0
   -3.1566   -0.9951    5.2936 O   0  0  0  0  0  0  0  0  0  0  0  0
   -4.4851   -1.2774    5.7129 C   0  0  0  0  0  0  0  0  0  0  0  0
   -1.5619    0.4139    4.0394 C   0  0  0  0  0  0  0  0  0  0  0  0
   -0.4200   -0.5076    4.1665 C   0  0  0  0  0  0  0  0  0  0  0  0
   -0.5379   -1.7901    3.8147 C   0  0  0  0  0  0  0  0  0  0  0  0
    0.6315   -2.6838    3.7736 C   0  0  0  0  0  0  0  0  0  0  0  0
    1.2841   -3.1501    4.9212 C   0  0  0  0  0  0  0  0  0  0  0  0
    0.9618   -2.7969    6.3437 C   0  0  0  0  0  0  0  0  0  0  0  0
    1.6229   -3.6452    7.2113 F   0  0  0  0  0  0  0  0  0  0  0  0
    1.3609   -1.4986    6.6001 F   0  0  0  0  0  0  0  0  0  0  0  0
   -0.3975   -2.9095    6.5622 F   0  0  0  0  0  0  0  0  0  0  0  0
    2.5137   -4.1969    4.4488 S   0  0  0  0  0  0  0  0  0  0  0  0
    2.2350   -4.0738    2.7988 C   0  0  0  0  0  0  0  0  0  0  0  0
    3.0176   -4.7233    1.8437 O   0  0  0  0  0  0  0  0  0  0  0  0
    3.7822   -4.0142    0.8777 C   0  0  0  0  0  0  0  0  0  0  0  0
    1.1447   -3.2216    2.5731 C   0  0  0  0  0  0  0  0  0  0  0  0
    0.5646   -2.8947    1.2511 C   0  0  0  0  0  0  0  0  0  0  0  0
    0.4749   -3.7825    0.2563 C   0  0  0  0  0  0  0  0  0  0  0  0
   -0.1141   -3.4401   -1.0511 C   0  0  0  0  0  0  0  0  0  0  0  0
    0.5410   -3.9336   -2.5190 S   0  0  0  0  0  0  0  0  0  0  0  0
   -0.6279   -3.2481   -3.5240 C   0  0  0  0  0  0  0  0  0  0  0  0
   -1.5861   -2.6482   -2.7016 C   0  0  0  0  0  0  0  0  0  0  0  0
   -1.3018   -2.7513   -1.3256 C   0  0  0  0  0  0  0  0  0  0  0  0
   -2.2154   -2.2719   -0.3812 C   0  0  0  0  0  0  0  0  0  0  0  0
   -3.4009   -1.6369   -0.8127 C   0  0  0  0  0  0  0  0  0  0  0  0
   -4.3371   -1.1208    0.0967 O   0  0  0  0  0  0  0  0  0  0  0  0
   -4.2112   -1.2048    1.5125 C   0  0  0  0  0  0  0  0  0  0  0  0
   -3.6732   -1.5131   -2.1896 C   0  0  0  0  0  0  0  0  0  0  0  0
   -4.8558   -0.8655   -2.5790 O   0  0  0  0  0  0  0  0  0  0  0  0
   -5.2440   -0.6391   -3.9305 C   0  0  0  0  0  0  0  0  0  0  0  0
   -2.7737   -2.0490   -3.1345 C   0  0  0  0  0  0  0  0  0  0  0  0
   -0.6913   -3.4164   -4.9947 C   0  0  0  0  0  0  0  0  0  0  0  0
   -0.6960   -4.6771   -5.6112 C   0  0  0  0  0  0  0  0  0  0  0  0
   -0.5526   -6.0202   -4.9526 C   0  0  0  0  0  0  0  0  0  0  0  0
   -0.9080   -7.0248   -5.8341 F   0  0  0  0  0  0  0  0  0  0  0  0
    0.7614   -6.2085   -4.5731 F   0  0  0  0  0  0  0  0  0  0  0  0
   -1.3744   -6.0994   -3.8445 F   0  0  0  0  0  0  0  0  0  0  0  0
   -0.9350   -4.4667   -7.2591 S   0  0  0  0  0  0  0  0  0  0  0  0
   -1.0570   -2.7970   -7.2350 C   0  0  0  0  0  0  0  0  0  0  0  0
   -1.2896   -2.0593   -8.4077 O   0  0  0  0  0  0  0  0  0  0  0  0
   -1.6650   -0.6872   -8.4743 C   0  0  0  0  0  0  0  0  0  0  0  0
   -0.8652   -2.3474   -5.9162 C   0  0  0  0  0  0  0  0  0  0  0  0
   -0.8948   -0.9178   -5.5384 C   0  0  0  0  0  0  0  0  0  0  0  0
    0.0872   -0.2492   -4.9175 C   0  0  0  0  0  0  0  0  0  0  0  0
    1.3650   -0.8239   -4.4324 C   0  0  0  0  0  0  0  0  0  0  0  0
    2.3057   -1.4990   -5.2280 C   0  0  0  0  0  0  0  0  0  0  0  0
    2.3222   -1.6878   -6.7177 C   0  0  0  0  0  0  0  0  0  0  0  0
    1.4881   -0.7872   -7.3471 F   0  0  0  0  0  0  0  0  0  0  0  0
    3.6066   -1.4898   -7.1930 F   0  0  0  0  0  0  0  0  0  0  0  0
    1.9324   -2.9765   -7.0248 F   0  0  0  0  0  0  0  0  0  0  0  0
    3.5564   -2.0287   -4.2374 S   0  0  0  0  0  0  0  0  0  0  0  0
    2.9829   -1.3581   -2.8149 C   0  0  0  0  0  0  0  0  0  0  0  0
    3.6934   -1.4500   -1.6109 O   0  0  0  0  0  0  0  0  0  0  0  0
    3.4648   -0.6436   -0.4646 C   0  0  0  0  0  0  0  0  0  0  0  0
    1.7722   -0.7021   -3.0782 C   0  0  0  0  0  0  0  0  0  0  0  0
    0.9552   -0.0384   -2.0453 C   0  0  0  0  0  0  0  0  0  0  0  0
    0.6526    1.2543   -2.1158 C   0  0  0  0  0  0  0  0  0  0  0  0
    2.6449    2.1490    0.5465 H   0  0  0  0  0  0  0  0  0  0  0  0
    3.2835    4.5348    1.5027 H   0  0  0  0  0  0  0  0  0  0  0  0
    4.3656    7.9750    2.5734 H   0  0  0  0  0  0  0  0  0  0  0  0
    3.7381    6.9347    1.2412 H   0  0  0  0  0  0  0  0  0  0  0  0
    4.7767    6.2170    2.5537 H   0  0  0  0  0  0  0  0  0  0  0  0
   -1.4997    6.5401    4.7270 H   0  0  0  0  0  0  0  0  0  0  0  0
   -0.6810    5.7695    6.1642 H   0  0  0  0  0  0  0  0  0  0  0  0
   -0.6404    7.5591    5.9477 H   0  0  0  0  0  0  0  0  0  0  0  0
   -0.7816    4.1506    4.3650 H   0  0  0  0  0  0  0  0  0  0  0  0
   -5.1501   -1.3799    4.8277 H   0  0  0  0  0  0  0  0  0  0  0  0
   -4.4954   -2.2288    6.2817 H   0  0  0  0  0  0  0  0  0  0  0  0
   -4.8579   -0.4642    6.3695 H   0  0  0  0  0  0  0  0  0  0  0  0
    0.5569   -0.1036    4.4022 H   0  0  0  0  0  0  0  0  0  0  0  0
   -1.4777   -2.1613    3.4250 H   0  0  0  0  0  0  0  0  0  0  0  0
    4.3768   -4.7381    0.2854 H   0  0  0  0  0  0  0  0  0  0  0  0
    4.4757   -3.3134    1.3878 H   0  0  0  0  0  0  0  0  0  0  0  0
    3.1282   -3.4517    0.1857 H   0  0  0  0  0  0  0  0  0  0  0  0
    0.1584   -1.9022    1.1159 H   0  0  0  0  0  0  0  0  0  0  0  0
    0.9068   -4.7669    0.3682 H   0  0  0  0  0  0  0  0  0  0  0  0
   -2.0269   -2.4109    0.6712 H   0  0  0  0  0  0  0  0  0  0  0  0
   -3.2824   -0.6960    1.8389 H   0  0  0  0  0  0  0  0  0  0  0  0
   -4.1956   -2.2697    1.8312 H   0  0  0  0  0  0  0  0  0  0  0  0
   -5.0802   -0.7062    1.9861 H   0  0  0  0  0  0  0  0  0  0  0  0
   -5.3925   -1.6101   -4.4521 H   0  0  0  0  0  0  0  0  0  0  0  0
   -4.4714   -0.0383   -4.4534 H   0  0  0  0  0  0  0  0  0  0  0  0
   -6.2008   -0.0790   -3.9438 H   0  0  0  0  0  0  0  0  0  0  0  0
   -3.0087   -2.0176   -4.1873 H   0  0  0  0  0  0  0  0  0  0  0  0
   -2.6231   -0.5273   -7.9383 H   0  0  0  0  0  0  0  0  0  0  0  0
   -0.8653   -0.0397   -8.0640 H   0  0  0  0  0  0  0  0  0  0  0  0
   -1.8163   -0.4085   -9.5379 H   0  0  0  0  0  0  0  0  0  0  0  0
   -1.7872   -0.3600   -5.7899 H   0  0  0  0  0  0  0  0  0  0  0  0
   -0.1092    0.7879   -4.6841 H   0  0  0  0  0  0  0  0  0  0  0  0
    3.4390    0.4242   -0.7582 H   0  0  0  0  0  0  0  0  0  0  0  0
    2.5223   -0.9418    0.0370 H   0  0  0  0  0  0  0  0  0  0  0  0
    4.2982   -0.7917    0.2548 H   0  0  0  0  0  0  0  0  0  0  0  0
    0.5965   -0.6165   -1.2052 H   0  0  0  0  0  0  0  0  0  0  0  0
    0.0335    1.7092   -1.3566 H   0  0  0  0  0  0  0  0  0  0  0  0
    1.0339    1.8761   -2.9151 H   0  0  0  0  0  0  0  0  0  0  0  0
  1  2  1  0
  2  3  1  0
  3  4  2  0
  4  5  1  0
  5  6  1  0
  6  7  2  0
  7  8  1  0
  8  9  1  0
  7 10  1  0
 10 11  1  0
 11 12  1  0
 10 13  2  0
  3 14  1  0
 14 15  2  0
 15 16  1  0
 16 17  1  0
 16 18  1  0
 16 19  1  0
 15 20  1  0
 20 21  1  0
 21 22  1  0
 22 23  1  0
 21 24  2  0
 24 25  1  0
 25 26  2  3
 26 27  1  0
 27 28  2  0
 28 29  1  0
 29 30  1  0
 29 31  1  0
 29 32  1  0
 28 33  1  0
 33 34  1  0
 34 35  1  0
 35 36  1  0
 34 37  2  0
 37 38  1  0
 38 39  2  3
 39 40  1  0
 40 41  1  0
 41 42  1  0
 42 43  2  0
 43 44  1  0
 44 45  1  0
 45 46  2  0
 46 47  1  0
 47 48  1  0
 46 49  1  0
 49 50  1  0
 50 51  1  0
 49 52  2  0
 42 53  1  0
 53 54  2  0
 54 55  1  0
 55 56  1  0
 55 57  1  0
 55 58  1  0
 54 59  1  0
 59 60  1  0
 60 61  1  0
 61 62  1  0
 60 63  2  0
 63 64  1  0
 64 65  2  3
 65 66  1  0
 66 67  2  0
 67 68  1  0
 68 69  1  0
 68 70  1  0
 68 71  1  0
 67 72  1  0
 72 73  1  0
 73 74  1  0
 74 75  1  0
 73 76  2  0
 76 77  1  0
 77 78  2  3
  5  1  2  0
 24 14  1  0
 37 27  1  0
 44 40  2  0
 63 53  1  0
 76 66  1  0
 13  4  1  0
 52 43  1  0
  1 79  1  0
  6 80  1  0
  9 81  1  0
  9 82  1  0
  9 83  1  0
 12 84  1  0
 12 85  1  0
 12 86  1  0
 13 87  1  0
 23 88  1  0
 23 89  1  0
 23 90  1  0
 25 91  1  0
 26 92  1  0
 36 93  1  0
 36 94  1  0
 36 95  1  0
 38 96  1  0
 39 97  1  0
 45 98  1  0
 48 99  1  0
 48100  1  0
 48101  1  0
 51102  1  0
 51103  1  0
 51104  1  0
 52105  1  0
 62106  1  0
 62107  1  0
 62108  1  0
 64109  1  0
 65110  1  0
 75111  1  0
 75112  1  0
 75113  1  0
 77114  1  0
 78115  1  0
 78116  1  0
M  END

