
     RDKit          3D

170187  0  0  0  0  0  0  0  0999 V2000
    7.8733   -0.9494   10.2016 C   0  0  0  0  0  0  0  0  0  0  0  0
    6.4904   -1.8935   10.0381 S   0  0  0  0  0  0  0  0  0  0  0  0
    6.6409   -2.2235    8.3941 C   0  0  0  0  0  0  0  0  0  0  0  0
    7.7903   -1.5759    7.9382 C   0  0  0  0  0  0  0  0  0  0  0  0
    8.4635   -0.8649    8.9456 C   0  0  0  0  0  0  0  0  0  0  0  0
    9.5966   -0.1079    8.6563 C   0  0  0  0  0  0  0  0  0  0  0  0
   10.0770   -0.0590    7.3312 C   0  0  0  0  0  0  0  0  0  0  0  0
   11.2038    0.6960    6.9765 O   0  0  0  0  0  0  0  0  0  0  0  0
   11.9028    1.5737    7.8604 C   0  0  0  0  0  0  0  0  0  0  0  0
    9.4124   -0.7754    6.3146 C   0  0  0  0  0  0  0  0  0  0  0  0
    9.9361   -0.7140    5.0118 O   0  0  0  0  0  0  0  0  0  0  0  0
    9.3929   -1.3959    3.8900 C   0  0  0  0  0  0  0  0  0  0  0  0
    8.2509   -1.5241    6.6185 C   0  0  0  0  0  0  0  0  0  0  0  0
    5.6332   -2.9497    7.6058 C   0  0  0  0  0  0  0  0  0  0  0  0
    4.2574   -2.7464    7.7078 C   0  0  0  0  0  0  0  0  0  0  0  0
    3.5283   -3.4676    6.7512 C   0  0  0  0  0  0  0  0  0  0  0  0
    2.1288   -3.4183    6.5478 C   0  0  0  0  0  0  0  0  0  0  0  0
    1.2250   -2.7464    7.4972 C   0  0  0  0  0  0  0  0  0  0  0  0
    0.0681   -1.5905    7.0948 S   0  0  0  0  0  0  0  0  0  0  0  0
   -0.6642   -1.5375    8.6147 C   0  0  0  0  0  0  0  0  0  0  0  0
   -1.8634   -0.7053    8.9715 C   0  0  0  0  0  0  0  0  0  0  0  0
   -1.4443    0.5608    9.7092 C   0  0  0  0  0  0  0  0  0  0  0  0
   -0.0098   -2.4354    9.4602 C   0  0  0  0  0  0  0  0  0  0  0  0
   -0.5108   -2.7530   11.1142 Cl  0  0  0  0  0  0  0  0  0  0  0  0
    1.0426   -3.1229    8.8280 C   0  0  0  0  0  0  0  0  0  0  0  0
    1.9014   -4.4519    9.5861 Cl  0  0  0  0  0  0  0  0  0  0  0  0
    1.6312   -4.1000    5.4186 C   0  0  0  0  0  0  0  0  0  0  0  0
    2.4480   -4.8818    4.6012 C   0  0  0  0  0  0  0  0  0  0  0  0
    3.8159   -5.0198    4.8745 C   0  0  0  0  0  0  0  0  0  0  0  0
    4.6306   -6.0404    4.2031 C   0  0  0  0  0  0  0  0  0  0  0  0
    5.7493   -5.7718    2.9764 S   0  0  0  0  0  0  0  0  0  0  0  0
    6.2066   -7.3857    2.8146 C   0  0  0  0  0  0  0  0  0  0  0  0
    7.2953   -7.8808    1.9049 C   0  0  0  0  0  0  0  0  0  0  0  0
    8.6670   -7.6031    2.5076 C   0  0  0  0  0  0  0  0  0  0  0  0
    5.5099   -8.1500    3.7532 C   0  0  0  0  0  0  0  0  0  0  0  0
    4.6080   -7.3952    4.5138 C   0  0  0  0  0  0  0  0  0  0  0  0
    3.5681   -8.0810    5.7576 Cl  0  0  0  0  0  0  0  0  0  0  0  0
    5.7250   -9.8803    3.9675 Cl  0  0  0  0  0  0  0  0  0  0  0  0
    4.3332   -4.2592    5.9317 C   0  0  0  0  0  0  0  0  0  0  0  0
    5.9454   -4.0703    6.3835 S   0  0  0  0  0  0  0  0  0  0  0  0
    1.7844   -5.4093    3.4884 C   0  0  0  0  0  0  0  0  0  0  0  0
    0.4462   -5.0142    3.4149 C   0  0  0  0  0  0  0  0  0  0  0  0
    0.0781   -4.0745    4.7725 S   0  0  0  0  0  0  0  0  0  0  0  0
   -0.3635   -5.0525    2.1841 C   0  0  0  0  0  0  0  0  0  0  0  0
    0.1842   -5.1141    0.9042 C   0  0  0  0  0  0  0  0  0  0  0  0
   -0.7086   -4.7147   -0.1053 C   0  0  0  0  0  0  0  0  0  0  0  0
   -0.3448   -4.4150   -1.4293 C   0  0  0  0  0  0  0  0  0  0  0  0
    1.0741   -4.3784   -1.8252 C   0  0  0  0  0  0  0  0  0  0  0  0
    1.9587   -5.6636   -2.4383 S   0  0  0  0  0  0  0  0  0  0  0  0
    3.4312   -4.8301   -2.5248 C   0  0  0  0  0  0  0  0  0  0  0  0
    4.7414   -5.4642   -2.9032 C   0  0  0  0  0  0  0  0  0  0  0  0
    4.6973   -6.0017   -4.3343 C   0  0  0  0  0  0  0  0  0  0  0  0
    3.2439   -3.5496   -2.0113 C   0  0  0  0  0  0  0  0  0  0  0  0
    4.5416   -2.3861   -1.7876 Cl  0  0  0  0  0  0  0  0  0  0  0  0
    1.9217   -3.2972   -1.6280 C   0  0  0  0  0  0  0  0  0  0  0  0
    1.3859   -1.7734   -0.9309 Cl  0  0  0  0  0  0  0  0  0  0  0  0
   -1.3262   -3.8335   -2.2392 C   0  0  0  0  0  0  0  0  0  0  0  0
   -2.6073   -3.5353   -1.7729 C   0  0  0  0  0  0  0  0  0  0  0  0
   -2.9606   -3.8089   -0.4412 C   0  0  0  0  0  0  0  0  0  0  0  0
   -4.2013   -3.2764    0.1393 C   0  0  0  0  0  0  0  0  0  0  0  0
   -5.6323   -4.1326    0.3222 S   0  0  0  0  0  0  0  0  0  0  0  0
   -6.5229   -2.8539    0.9683 C   0  0  0  0  0  0  0  0  0  0  0  0
   -7.9717   -2.9438    1.3563 C   0  0  0  0  0  0  0  0  0  0  0  0
   -8.8460   -1.9788    0.5459 C   0  0  0  0  0  0  0  0  0  0  0  0
   -5.6927   -1.7343    1.0542 C   0  0  0  0  0  0  0  0  0  0  0  0
   -4.3914   -1.9716    0.5874 C   0  0  0  0  0  0  0  0  0  0  0  0
   -3.1390   -0.7388    0.5220 Cl  0  0  0  0  0  0  0  0  0  0  0  0
   -6.2158   -0.1792    1.6882 Cl  0  0  0  0  0  0  0  0  0  0  0  0
   -1.9832   -4.4056    0.3751 C   0  0  0  0  0  0  0  0  0  0  0  0
   -1.9723   -4.5460    2.0576 S   0  0  0  0  0  0  0  0  0  0  0  0
   -3.3542   -2.7674   -2.6793 C   0  0  0  0  0  0  0  0  0  0  0  0
   -2.6383   -2.4045   -3.8239 C   0  0  0  0  0  0  0  0  0  0  0  0
   -1.0988   -3.0915   -3.7212 S   0  0  0  0  0  0  0  0  0  0  0  0
   -2.9849   -1.2352   -4.6550 C   0  0  0  0  0  0  0  0  0  0  0  0
   -4.0311   -0.0329   -4.1123 S   0  0  0  0  0  0  0  0  0  0  0  0
   -3.5957    1.1611   -5.2074 C   0  0  0  0  0  0  0  0  0  0  0  0
   -2.5990    0.6377   -6.0291 C   0  0  0  0  0  0  0  0  0  0  0  0
   -2.2709   -0.7006   -5.7371 C   0  0  0  0  0  0  0  0  0  0  0  0
   -1.2990   -1.3652   -6.4946 C   0  0  0  0  0  0  0  0  0  0  0  0
   -0.6123   -0.6759   -7.5090 C   0  0  0  0  0  0  0  0  0  0  0  0
    0.4008   -1.2851   -8.2644 O   0  0  0  0  0  0  0  0  0  0  0  0
    0.9343   -2.5834   -7.9962 C   0  0  0  0  0  0  0  0  0  0  0  0
   -0.9336    0.6650   -7.7911 C   0  0  0  0  0  0  0  0  0  0  0  0
   -0.2331    1.3043   -8.8254 O   0  0  0  0  0  0  0  0  0  0  0  0
   -0.4433    2.6564   -9.2279 C   0  0  0  0  0  0  0  0  0  0  0  0
   -1.9337    1.3234   -7.0471 C   0  0  0  0  0  0  0  0  0  0  0  0
   -3.9898    2.5655   -5.0701 C   0  0  0  0  0  0  0  0  0  0  0  0
   -2.9008    3.8378   -4.8871 S   0  0  0  0  0  0  0  0  0  0  0  0
   -4.0331    5.0257   -4.5341 C   0  0  0  0  0  0  0  0  0  0  0  0
   -5.2975    4.4365   -4.5312 C   0  0  0  0  0  0  0  0  0  0  0  0
   -5.2723    3.0619   -4.8171 C   0  0  0  0  0  0  0  0  0  0  0  0
   -6.4574    2.3210   -4.8324 C   0  0  0  0  0  0  0  0  0  0  0  0
   -7.6834    2.9635   -4.5450 C   0  0  0  0  0  0  0  0  0  0  0  0
   -8.9060    2.2687   -4.5334 O   0  0  0  0  0  0  0  0  0  0  0  0
   -9.0245    0.8572   -4.7157 C   0  0  0  0  0  0  0  0  0  0  0  0
   -7.7069    4.3427   -4.2671 C   0  0  0  0  0  0  0  0  0  0  0  0
   -8.9483    4.9545   -4.0213 O   0  0  0  0  0  0  0  0  0  0  0  0
   -9.1225    6.3541   -3.7969 C   0  0  0  0  0  0  0  0  0  0  0  0
   -6.5020    5.0772   -4.2383 C   0  0  0  0  0  0  0  0  0  0  0  0
   -3.7004    6.4369   -4.3014 C   0  0  0  0  0  0  0  0  0  0  0  0
   -2.6148    6.9995   -3.1472 S   0  0  0  0  0  0  0  0  0  0  0  0
   -2.7598    8.6394   -3.5076 C   0  0  0  0  0  0  0  0  0  0  0  0
   -3.6666    8.7585   -4.5555 C   0  0  0  0  0  0  0  0  0  0  0  0
   -4.1906    7.5358   -5.0012 C   0  0  0  0  0  0  0  0  0  0  0  0
   -5.0732    7.4949   -6.0809 C   0  0  0  0  0  0  0  0  0  0  0  0
   -5.4639    8.6967   -6.7028 C   0  0  0  0  0  0  0  0  0  0  0  0
   -6.3781    8.7080   -7.7698 O   0  0  0  0  0  0  0  0  0  0  0  0
   -7.0457    7.5513   -8.2682 C   0  0  0  0  0  0  0  0  0  0  0  0
   -4.9355    9.9255   -6.2548 C   0  0  0  0  0  0  0  0  0  0  0  0
   -5.3357   11.0939   -6.9161 O   0  0  0  0  0  0  0  0  0  0  0  0
   -4.8693   12.3995   -6.5910 C   0  0  0  0  0  0  0  0  0  0  0  0
   -4.0350    9.9526   -5.1688 C   0  0  0  0  0  0  0  0  0  0  0  0
    8.2234   -0.4686   11.1060 H   0  0  0  0  0  0  0  0  0  0  0  0
   10.0951    0.4350    9.4431 H   0  0  0  0  0  0  0  0  0  0  0  0
   12.7049    2.0939    7.2972 H   0  0  0  0  0  0  0  0  0  0  0  0
   12.3655    0.9935    8.6864 H   0  0  0  0  0  0  0  0  0  0  0  0
   11.2030    2.3316    8.2685 H   0  0  0  0  0  0  0  0  0  0  0  0
    9.9991   -1.1483    2.9914 H   0  0  0  0  0  0  0  0  0  0  0  0
    9.4346   -2.4953    4.0587 H   0  0  0  0  0  0  0  0  0  0  0  0
    8.3420   -1.0766    3.7086 H   0  0  0  0  0  0  0  0  0  0  0  0
    7.7216   -2.0424    5.8371 H   0  0  0  0  0  0  0  0  0  0  0  0
    3.8108   -2.0527    8.4135 H   0  0  0  0  0  0  0  0  0  0  0  0
   -2.5548   -1.3019    9.6075 H   0  0  0  0  0  0  0  0  0  0  0  0
   -2.4123   -0.4291    8.0447 H   0  0  0  0  0  0  0  0  0  0  0  0
   -0.8163    0.3113   10.5903 H   0  0  0  0  0  0  0  0  0  0  0  0
   -0.8658    1.2231    9.0261 H   0  0  0  0  0  0  0  0  0  0  0  0
   -2.3472    1.1084   10.0588 H   0  0  0  0  0  0  0  0  0  0  0  0
    7.1873   -8.9800    1.7503 H   0  0  0  0  0  0  0  0  0  0  0  0
    7.1994   -7.3801    0.9169 H   0  0  0  0  0  0  0  0  0  0  0  0
    8.8324   -6.5123    2.6167 H   0  0  0  0  0  0  0  0  0  0  0  0
    8.7411   -8.0904    3.5023 H   0  0  0  0  0  0  0  0  0  0  0  0
    9.4568   -8.0178    1.8505 H   0  0  0  0  0  0  0  0  0  0  0  0
    2.2862   -5.9679    2.7077 H   0  0  0  0  0  0  0  0  0  0  0  0
    1.2339   -5.3051    0.7193 H   0  0  0  0  0  0  0  0  0  0  0  0
    5.5711   -4.7237   -2.8367 H   0  0  0  0  0  0  0  0  0  0  0  0
    4.9674   -6.2941   -2.2022 H   0  0  0  0  0  0  0  0  0  0  0  0
    5.7002   -6.3891   -4.6113 H   0  0  0  0  0  0  0  0  0  0  0  0
    4.4224   -5.1923   -5.0427 H   0  0  0  0  0  0  0  0  0  0  0  0
    3.9632   -6.8308   -4.4100 H   0  0  0  0  0  0  0  0  0  0  0  0
   -8.0748   -2.7162    2.4365 H   0  0  0  0  0  0  0  0  0  0  0  0
   -8.3259   -3.9814    1.1906 H   0  0  0  0  0  0  0  0  0  0  0  0
   -9.8669   -2.3999    0.4346 H   0  0  0  0  0  0  0  0  0  0  0  0
   -8.9358   -1.0100    1.0839 H   0  0  0  0  0  0  0  0  0  0  0  0
   -8.4194   -1.7835   -0.4635 H   0  0  0  0  0  0  0  0  0  0  0  0
   -4.3336   -2.3742   -2.4521 H   0  0  0  0  0  0  0  0  0  0  0  0
   -1.0948   -2.4097   -6.3189 H   0  0  0  0  0  0  0  0  0  0  0  0
    0.1483   -3.3526   -8.1461 H   0  0  0  0  0  0  0  0  0  0  0  0
    1.7665   -2.7910   -8.6985 H   0  0  0  0  0  0  0  0  0  0  0  0
    1.3223   -2.6258   -6.9564 H   0  0  0  0  0  0  0  0  0  0  0  0
   -1.5024    2.8108   -9.5263 H   0  0  0  0  0  0  0  0  0  0  0  0
   -0.1686    3.3411   -8.3985 H   0  0  0  0  0  0  0  0  0  0  0  0
    0.2075    2.8761  -10.0979 H   0  0  0  0  0  0  0  0  0  0  0  0
   -2.1888    2.3492   -7.2601 H   0  0  0  0  0  0  0  0  0  0  0  0
   -6.4294    1.2690   -5.0741 H   0  0  0  0  0  0  0  0  0  0  0  0
   -8.6558    0.5755   -5.7222 H   0  0  0  0  0  0  0  0  0  0  0  0
  -10.0931    0.5736   -4.6365 H   0  0  0  0  0  0  0  0  0  0  0  0
   -8.4532    0.3174   -3.9323 H   0  0  0  0  0  0  0  0  0  0  0  0
   -8.7475    6.9319   -4.6660 H   0  0  0  0  0  0  0  0  0  0  0  0
   -8.5881    6.6561   -2.8731 H   0  0  0  0  0  0  0  0  0  0  0  0
  -10.2014    6.5681   -3.6687 H   0  0  0  0  0  0  0  0  0  0  0  0
   -6.5028    6.1297   -3.9877 H   0  0  0  0  0  0  0  0  0  0  0  0
   -2.2368    9.4547   -3.0180 H   0  0  0  0  0  0  0  0  0  0  0  0
   -5.4493    6.5442   -6.4310 H   0  0  0  0  0  0  0  0  0  0  0  0
   -6.3037    6.8164   -8.6501 H   0  0  0  0  0  0  0  0  0  0  0  0
   -7.7165    7.8461   -9.1000 H   0  0  0  0  0  0  0  0  0  0  0  0
   -7.6594    7.0865   -7.4643 H   0  0  0  0  0  0  0  0  0  0  0  0
   -3.7645   12.4502   -6.6994 H   0  0  0  0  0  0  0  0  0  0  0  0
   -5.1616   12.6529   -5.5520 H   0  0  0  0  0  0  0  0  0  0  0  0
   -5.3294   13.1365   -7.2816 H   0  0  0  0  0  0  0  0  0  0  0  0
   -3.6355   10.8851   -4.8067 H   0  0  0  0  0  0  0  0  0  0  0  0
  1  2  1  0
  2  3  1  0
  3  4  2  0
  4  5  1  0
  5  6  1  0
  6  7  2  0
  7  8  1  0
  8  9  1  0
  7 10  1  0
 10 11  1  0
 11 12  1  0
 10 13  2  0
  3 14  1  0
 14 15  2  0
 15 16  1  0
 16 17  2  0
 17 18  1  0
 18 19  1  0
 19 20  1  0
 20 21  1  0
 21 22  1  0
 20 23  2  0
 23 24  1  0
 23 25  1  0
 25 26  1  0
 17 27  1  0
 27 28  2  0
 28 29  1  0
 29 30  1  0
 30 31  1  0
 31 32  1  0
 32 33  1  0
 33 34  1  0
 32 35  2  0
 35 36  1  0
 36 37  1  0
 35 38  1  0
 29 39  2  0
 39 40  1  0
 28 41  1  0
 41 42  2  0
 42 43  1  0
 42 44  1  0
 44 45  2  0
 45 46  1  0
 46 47  2  0
 47 48  1  0
 48 49  1  0
 49 50  1  0
 50 51  1  0
 51 52  1  0
 50 53  2  0
 53 54  1  0
 53 55  1  0
 55 56  1  0
 47 57  1  0
 57 58  2  0
 58 59  1  0
 59 60  1  0
 60 61  1  0
 61 62  1  0
 62 63  1  0
 63 64  1  0
 62 65  2  0
 65 66  1  0
 66 67  1  0
 65 68  1  0
 59 69  2  0
 69 70  1  0
 58 71  1  0
 71 72  2  0
 72 73  1  0
 72 74  1  0
 74 75  1  0
 75 76  1  0
 76 77  2  0
 77 78  1  0
 78 79  1  0
 79 80  2  0
 80 81  1  0
 81 82  1  0
 80 83  1  0
 83 84  1  0
 84 85  1  0
 83 86  2  0
 76 87  1  0
 87 88  1  0
 88 89  1  0
 89 90  2  0
 90 91  1  0
 91 92  1  0
 92 93  2  0
 93 94  1  0
 94 95  1  0
 93 96  1  0
 96 97  1  0
 97 98  1  0
 96 99  2  0
 89100  1  0
100101  1  0
101102  1  0
102103  2  0
103104  1  0
104105  1  0
105106  2  0
106107  1  0
107108  1  0
106109  1  0
109110  1  0
110111  1  0
109112  2  0
  5  1  2  0
 40 14  1  0
 70 44  1  0
 78 74  2  0
 91 87  2  0
104100  2  0
 13  4  1  0
 39 16  1  0
 69 46  1  0
 86 77  1  0
 99 90  1  0
112103  1  0
 25 18  2  0
 43 27  1  0
 55 48  2  0
 73 57  1  0
 36 30  2  0
 66 60  2  0
  1113  1  0
  6114  1  0
  9115  1  0
  9116  1  0
  9117  1  0
 12118  1  0
 12119  1  0
 12120  1  0
 13121  1  0
 15122  1  0
 21123  1  0
 21124  1  0
 22125  1  0
 22126  1  0
 22127  1  0
 33128  1  0
 33129  1  0
 34130  1  0
 34131  1  0
 34132  1  0
 41133  1  0
 45134  1  0
 51135  1  0
 51136  1  0
 52137  1  0
 52138  1  0
 52139  1  0
 63140  1  0
 63141  1  0
 64142  1  0
 64143  1  0
 64144  1  0
 71145  1  0
 79146  1  0
 82147  1  0
 82148  1  0
 82149  1  0
 85150  1  0
 85151  1  0
 85152  1  0
 86153  1  0
 92154  1  0
 95155  1  0
 95156  1  0
 95157  1  0
 98158  1  0
 98159  1  0
 98160  1  0
 99161  1  0
102162  1  0
105163  1  0
108164  1  0
108165  1  0
108166  1  0
111167  1  0
111168  1  0
111169  1  0
112170  1  0
M  END

