
     RDKit          3D

164175  0  0  0  0  0  0  0  0999 V2000
    3.4838   -1.3697   11.5420 C   0  0  0  0  0  0  0  0  0  0  0  0
    2.0395   -2.2305   11.4072 S   0  0  0  0  0  0  0  0  0  0  0  0
    1.8108   -1.9939    9.7537 C   0  0  0  0  0  0  0  0  0  0  0  0
    2.8636   -1.2001    9.2875 C   0  0  0  0  0  0  0  0  0  0  0  0
    3.7920   -0.8626   10.2832 C   0  0  0  0  0  0  0  0  0  0  0  0
    4.8907   -0.0556    9.9907 C   0  0  0  0  0  0  0  0  0  0  0  0
    5.0679    0.4244    8.6746 C   0  0  0  0  0  0  0  0  0  0  0  0
    6.1508    1.2470    8.3252 O   0  0  0  0  0  0  0  0  0  0  0  0
    7.1387    1.7151    9.2384 C   0  0  0  0  0  0  0  0  0  0  0  0
    4.1401    0.0815    7.6679 C   0  0  0  0  0  0  0  0  0  0  0  0
    4.3626    0.5640    6.3683 O   0  0  0  0  0  0  0  0  0  0  0  0
    3.5778    0.2134    5.2310 C   0  0  0  0  0  0  0  0  0  0  0  0
    3.0238   -0.7239    7.9815 C   0  0  0  0  0  0  0  0  0  0  0  0
    0.6297   -2.4286    8.9791 C   0  0  0  0  0  0  0  0  0  0  0  0
   -0.6134   -1.9213    9.3715 C   0  0  0  0  0  0  0  0  0  0  0  0
   -1.7212   -2.0274    8.5389 C   0  0  0  0  0  0  0  0  0  0  0  0
   -1.5972   -2.5827    7.2564 C   0  0  0  0  0  0  0  0  0  0  0  0
   -2.7011   -2.6605    6.3899 O   0  0  0  0  0  0  0  0  0  0  0  0
   -3.9911   -2.1187    6.6535 C   0  0  0  0  0  0  0  0  0  0  0  0
   -4.8808   -2.3359    5.4405 C   0  0  0  0  0  0  0  0  0  0  0  0
   -0.3400   -3.0842    6.8316 C   0  0  0  0  0  0  0  0  0  0  0  0
    0.7420   -3.1412    7.7555 C   0  0  0  0  0  0  0  0  0  0  0  0
    1.9118   -3.8710    7.4117 C   0  0  0  0  0  0  0  0  0  0  0  0
    2.9248   -4.0566    8.3728 O   0  0  0  0  0  0  0  0  0  0  0  0
    4.1423   -4.7788    8.1881 C   0  0  0  0  0  0  0  0  0  0  0  0
    3.8981   -6.2807    8.2825 C   0  0  0  0  0  0  0  0  0  0  0  0
    2.0287   -4.4114    6.1209 C   0  0  0  0  0  0  0  0  0  0  0  0
    1.0480   -4.1832    5.1662 C   0  0  0  0  0  0  0  0  0  0  0  0
   -0.1086   -3.4698    5.4859 C   0  0  0  0  0  0  0  0  0  0  0  0
   -0.8726   -2.8908    4.3570 C   0  0  0  0  0  0  0  0  0  0  0  0
   -1.3875   -3.7369    2.9832 S   0  0  0  0  0  0  0  0  0  0  0  0
   -1.8174   -2.3836    2.0724 C   0  0  0  0  0  0  0  0  0  0  0  0
   -1.5569   -1.2458    2.8329 C   0  0  0  0  0  0  0  0  0  0  0  0
   -1.0254   -1.5218    4.0983 C   0  0  0  0  0  0  0  0  0  0  0  0
   -0.6380   -0.4687    4.9375 C   0  0  0  0  0  0  0  0  0  0  0  0
   -0.8630    0.8638    4.5418 C   0  0  0  0  0  0  0  0  0  0  0  0
   -0.5835    1.9438    5.3930 O   0  0  0  0  0  0  0  0  0  0  0  0
   -0.2075    1.8163    6.7616 C   0  0  0  0  0  0  0  0  0  0  0  0
   -1.3876    1.1374    3.2641 C   0  0  0  0  0  0  0  0  0  0  0  0
   -1.5579    2.4807    2.8886 O   0  0  0  0  0  0  0  0  0  0  0  0
   -1.9980    2.9091    1.6048 C   0  0  0  0  0  0  0  0  0  0  0  0
   -1.7295    0.0750    2.4026 C   0  0  0  0  0  0  0  0  0  0  0  0
   -2.1497   -2.3718    0.6355 C   0  0  0  0  0  0  0  0  0  0  0  0
   -3.4908   -2.5115    0.2910 C   0  0  0  0  0  0  0  0  0  0  0  0
   -3.9358   -2.1660   -0.9775 C   0  0  0  0  0  0  0  0  0  0  0  0
   -3.0635   -1.6010   -1.9240 C   0  0  0  0  0  0  0  0  0  0  0  0
   -3.5282   -1.2307   -3.2011 O   0  0  0  0  0  0  0  0  0  0  0  0
   -4.8906   -1.1964   -3.6259 C   0  0  0  0  0  0  0  0  0  0  0  0
   -5.6119    0.0032   -3.0205 C   0  0  0  0  0  0  0  0  0  0  0  0
   -1.6905   -1.4324   -1.5909 C   0  0  0  0  0  0  0  0  0  0  0  0
   -1.2111   -1.9314   -0.3378 C   0  0  0  0  0  0  0  0  0  0  0  0
    0.1891   -1.9627   -0.0852 C   0  0  0  0  0  0  0  0  0  0  0  0
    0.6756   -2.6649    1.0328 O   0  0  0  0  0  0  0  0  0  0  0  0
    2.0397   -2.7709    1.4467 C   0  0  0  0  0  0  0  0  0  0  0  0
    2.4628   -1.5213    2.2105 C   0  0  0  0  0  0  0  0  0  0  0  0
    1.0672   -1.3474   -0.9867 C   0  0  0  0  0  0  0  0  0  0  0  0
    0.5896   -0.7414   -2.1358 C   0  0  0  0  0  0  0  0  0  0  0  0
   -0.7706   -0.7764   -2.4606 C   0  0  0  0  0  0  0  0  0  0  0  0
   -1.1701    0.0199   -3.6486 C   0  0  0  0  0  0  0  0  0  0  0  0
   -1.7748    1.2520   -3.3937 C   0  0  0  0  0  0  0  0  0  0  0  0
   -1.9162    2.1968   -4.3980 C   0  0  0  0  0  0  0  0  0  0  0  0
   -1.4064    1.9639   -5.6854 C   0  0  0  0  0  0  0  0  0  0  0  0
   -1.5585    2.9225   -6.7041 O   0  0  0  0  0  0  0  0  0  0  0  0
   -2.3471    4.1095   -6.6356 C   0  0  0  0  0  0  0  0  0  0  0  0
   -3.8363    3.7775   -6.6673 C   0  0  0  0  0  0  0  0  0  0  0  0
   -0.7448    0.7357   -5.9628 C   0  0  0  0  0  0  0  0  0  0  0  0
   -0.7205   -0.2875   -4.9615 C   0  0  0  0  0  0  0  0  0  0  0  0
   -0.2537   -1.5872   -5.2973 C   0  0  0  0  0  0  0  0  0  0  0  0
   -0.3919   -2.6354   -4.3689 O   0  0  0  0  0  0  0  0  0  0  0  0
   -0.1781   -4.0252   -4.6198 C   0  0  0  0  0  0  0  0  0  0  0  0
   -1.3055   -4.6028   -5.4674 C   0  0  0  0  0  0  0  0  0  0  0  0
    0.3151   -1.8111   -6.5585 C   0  0  0  0  0  0  0  0  0  0  0  0
    0.4186   -0.7827   -7.4824 C   0  0  0  0  0  0  0  0  0  0  0  0
   -0.1019    0.4849   -7.2086 C   0  0  0  0  0  0  0  0  0  0  0  0
    0.1509    1.5371   -8.2221 C   0  0  0  0  0  0  0  0  0  0  0  0
    1.2708    2.3493   -8.0168 C   0  0  0  0  0  0  0  0  0  0  0  0
    1.6322    3.3232   -8.9403 C   0  0  0  0  0  0  0  0  0  0  0  0
    0.8813    3.5124  -10.1098 C   0  0  0  0  0  0  0  0  0  0  0  0
    1.2364    4.4803  -11.0688 O   0  0  0  0  0  0  0  0  0  0  0  0
    2.4066    5.2986  -11.0439 C   0  0  0  0  0  0  0  0  0  0  0  0
    3.6411    4.4972  -11.4513 C   0  0  0  0  0  0  0  0  0  0  0  0
   -0.2659    2.7168  -10.3321 C   0  0  0  0  0  0  0  0  0  0  0  0
   -0.6542    1.7223   -9.3850 C   0  0  0  0  0  0  0  0  0  0  0  0
   -1.8386    0.9692   -9.6244 C   0  0  0  0  0  0  0  0  0  0  0  0
   -2.2641    0.0201   -8.6823 O   0  0  0  0  0  0  0  0  0  0  0  0
   -3.4565   -0.7523   -8.7608 C   0  0  0  0  0  0  0  0  0  0  0  0
   -3.5515   -1.6301   -7.5249 C   0  0  0  0  0  0  0  0  0  0  0  0
   -2.5827    1.1950  -10.7957 C   0  0  0  0  0  0  0  0  0  0  0  0
   -2.1783    2.1500  -11.7217 C   0  0  0  0  0  0  0  0  0  0  0  0
   -1.0334    2.9071  -11.4950 C   0  0  0  0  0  0  0  0  0  0  0  0
    4.0531   -1.2189   12.4492 H   0  0  0  0  0  0  0  0  0  0  0  0
    5.5883    0.1992   10.7779 H   0  0  0  0  0  0  0  0  0  0  0  0
    7.6859    0.8569    9.6825 H   0  0  0  0  0  0  0  0  0  0  0  0
    6.6610    2.3214   10.0370 H   0  0  0  0  0  0  0  0  0  0  0  0
    7.8645    2.3550    8.6950 H   0  0  0  0  0  0  0  0  0  0  0  0
    2.5306    0.5547    5.3640 H   0  0  0  0  0  0  0  0  0  0  0  0
    3.9997    0.7072    4.3324 H   0  0  0  0  0  0  0  0  0  0  0  0
    3.6028   -0.8866    5.0808 H   0  0  0  0  0  0  0  0  0  0  0  0
    2.2940   -0.9664    7.2236 H   0  0  0  0  0  0  0  0  0  0  0  0
   -0.7160   -1.3855   10.3098 H   0  0  0  0  0  0  0  0  0  0  0  0
   -2.6631   -1.6249    8.8845 H   0  0  0  0  0  0  0  0  0  0  0  0
   -4.4400   -2.6266    7.5359 H   0  0  0  0  0  0  0  0  0  0  0  0
   -3.9051   -1.0280    6.8501 H   0  0  0  0  0  0  0  0  0  0  0  0
   -4.4608   -1.8010    4.5627 H   0  0  0  0  0  0  0  0  0  0  0  0
   -4.9501   -3.4190    5.2095 H   0  0  0  0  0  0  0  0  0  0  0  0
   -5.8985   -1.9445    5.6489 H   0  0  0  0  0  0  0  0  0  0  0  0
    4.6195   -4.5085    7.2250 H   0  0  0  0  0  0  0  0  0  0  0  0
    4.8456   -4.4887    8.9948 H   0  0  0  0  0  0  0  0  0  0  0  0
    3.5963   -6.5489    9.3170 H   0  0  0  0  0  0  0  0  0  0  0  0
    4.8286   -6.8258    8.0264 H   0  0  0  0  0  0  0  0  0  0  0  0
    3.0960   -6.5957    7.5840 H   0  0  0  0  0  0  0  0  0  0  0  0
    2.9070   -4.9634    5.8187 H   0  0  0  0  0  0  0  0  0  0  0  0
    1.2276   -4.5094    4.1501 H   0  0  0  0  0  0  0  0  0  0  0  0
   -0.1657   -0.6699    5.8844 H   0  0  0  0  0  0  0  0  0  0  0  0
   -0.1729    2.8234    7.2233 H   0  0  0  0  0  0  0  0  0  0  0  0
   -0.9500    1.2000    7.3087 H   0  0  0  0  0  0  0  0  0  0  0  0
    0.7990    1.3567    6.8396 H   0  0  0  0  0  0  0  0  0  0  0  0
   -2.0292    4.0181    1.5839 H   0  0  0  0  0  0  0  0  0  0  0  0
   -1.2912    2.5572    0.8215 H   0  0  0  0  0  0  0  0  0  0  0  0
   -3.0198    2.5227    1.3990 H   0  0  0  0  0  0  0  0  0  0  0  0
   -2.1341    0.2691    1.4172 H   0  0  0  0  0  0  0  0  0  0  0  0
   -4.2104   -2.8443    1.0299 H   0  0  0  0  0  0  0  0  0  0  0  0
   -4.9870   -2.3028   -1.1908 H   0  0  0  0  0  0  0  0  0  0  0  0
   -5.4135   -2.1443   -3.3844 H   0  0  0  0  0  0  0  0  0  0  0  0
   -4.9104   -1.0877   -4.7275 H   0  0  0  0  0  0  0  0  0  0  0  0
   -5.0854    0.9390   -3.3018 H   0  0  0  0  0  0  0  0  0  0  0  0
   -5.6460   -0.0744   -1.9147 H   0  0  0  0  0  0  0  0  0  0  0  0
   -6.6514    0.0436   -3.4083 H   0  0  0  0  0  0  0  0  0  0  0  0
    2.7130   -2.9722    0.5864 H   0  0  0  0  0  0  0  0  0  0  0  0
    2.1236   -3.6405    2.1294 H   0  0  0  0  0  0  0  0  0  0  0  0
    2.5231   -0.6516    1.5277 H   0  0  0  0  0  0  0  0  0  0  0  0
    3.4545   -1.6895    2.6786 H   0  0  0  0  0  0  0  0  0  0  0  0
    1.7229   -1.3049    3.0072 H   0  0  0  0  0  0  0  0  0  0  0  0
    2.1328   -1.3227   -0.8085 H   0  0  0  0  0  0  0  0  0  0  0  0
    1.2930   -0.2319   -2.7850 H   0  0  0  0  0  0  0  0  0  0  0  0
   -2.1054    1.5015   -2.3902 H   0  0  0  0  0  0  0  0  0  0  0  0
   -2.3901    3.1326   -4.1426 H   0  0  0  0  0  0  0  0  0  0  0  0
   -2.1088    4.7383   -7.5187 H   0  0  0  0  0  0  0  0  0  0  0  0
   -2.0903    4.7037   -5.7329 H   0  0  0  0  0  0  0  0  0  0  0  0
   -4.4247    4.7201   -6.6682 H   0  0  0  0  0  0  0  0  0  0  0  0
   -4.1267    3.1875   -5.7763 H   0  0  0  0  0  0  0  0  0  0  0  0
   -4.0766    3.1951   -7.5838 H   0  0  0  0  0  0  0  0  0  0  0  0
    0.8083   -4.1972   -5.0939 H   0  0  0  0  0  0  0  0  0  0  0  0
   -0.1706   -4.5524   -3.6438 H   0  0  0  0  0  0  0  0  0  0  0  0
   -1.2881   -4.1686   -6.4887 H   0  0  0  0  0  0  0  0  0  0  0  0
   -1.1883   -5.7033   -5.5449 H   0  0  0  0  0  0  0  0  0  0  0  0
   -2.2864   -4.3746   -4.9968 H   0  0  0  0  0  0  0  0  0  0  0  0
    0.7049   -2.7799   -6.8370 H   0  0  0  0  0  0  0  0  0  0  0  0
    0.9056   -0.9778   -8.4331 H   0  0  0  0  0  0  0  0  0  0  0  0
    1.8809    2.2172   -7.1322 H   0  0  0  0  0  0  0  0  0  0  0  0
    2.5070    3.9210   -8.7308 H   0  0  0  0  0  0  0  0  0  0  0  0
    2.5453    5.7681  -10.0471 H   0  0  0  0  0  0  0  0  0  0  0  0
    2.2698    6.1217  -11.7759 H   0  0  0  0  0  0  0  0  0  0  0  0
    3.8285    3.6699  -10.7370 H   0  0  0  0  0  0  0  0  0  0  0  0
    3.4972    4.0730  -12.4666 H   0  0  0  0  0  0  0  0  0  0  0  0
    4.5292    5.1651  -11.4646 H   0  0  0  0  0  0  0  0  0  0  0  0
   -3.4304   -1.3972   -9.6671 H   0  0  0  0  0  0  0  0  0  0  0  0
   -4.3397   -0.0779   -8.8001 H   0  0  0  0  0  0  0  0  0  0  0  0
   -2.7104   -2.3547   -7.5094 H   0  0  0  0  0  0  0  0  0  0  0  0
   -3.4942   -0.9968   -6.6141 H   0  0  0  0  0  0  0  0  0  0  0  0
   -4.5127   -2.1834   -7.5248 H   0  0  0  0  0  0  0  0  0  0  0  0
   -3.4842    0.6341  -11.0001 H   0  0  0  0  0  0  0  0  0  0  0  0
   -2.7601    2.3109  -12.6195 H   0  0  0  0  0  0  0  0  0  0  0  0
   -0.7580    3.6483  -12.2357 H   0  0  0  0  0  0  0  0  0  0  0  0
  1  2  1  0
  2  3  1  0
  3  4  2  0
  4  5  1  0
  5  6  1  0
  6  7  2  0
  7  8  1  0
  8  9  1  0
  7 10  1  0
 10 11  1  0
 11 12  1  0
 10 13  2  0
  3 14  1  0
 14 15  2  0
 15 16  1  0
 16 17  2  0
 17 18  1  0
 18 19  1  0
 19 20  1  0
 17 21  1  0
 21 22  2  0
 22 23  1  0
 23 24  1  0
 24 25  1  0
 25 26  1  0
 23 27  2  0
 27 28  1  0
 28 29  2  0
 29 30  1  0
 30 31  1  0
 31 32  1  0
 32 33  2  0
 33 34  1  0
 34 35  1  0
 35 36  2  0
 36 37  1  0
 37 38  1  0
 36 39  1  0
 39 40  1  0
 40 41  1  0
 39 42  2  0
 32 43  1  0
 43 44  2  0
 44 45  1  0
 45 46  2  0
 46 47  1  0
 47 48  1  0
 48 49  1  0
 46 50  1  0
 50 51  2  0
 51 52  1  0
 52 53  1  0
 53 54  1  0
 54 55  1  0
 52 56  2  0
 56 57  1  0
 57 58  2  0
 58 59  1  0
 59 60  2  0
 60 61  1  0
 61 62  2  0
 62 63  1  0
 63 64  1  0
 64 65  1  0
 62 66  1  0
 66 67  2  0
 67 68  1  0
 68 69  1  0
 69 70  1  0
 70 71  1  0
 68 72  2  0
 72 73  1  0
 73 74  2  0
 74 75  1  0
 75 76  2  0
 76 77  1  0
 77 78  2  0
 78 79  1  0
 79 80  1  0
 80 81  1  0
 78 82  1  0
 82 83  2  0
 83 84  1  0
 84 85  1  0
 85 86  1  0
 86 87  1  0
 84 88  2  0
 88 89  1  0
 89 90  2  0
  5  1  2  0
 22 14  1  0
 34 30  2  0
 51 43  1  0
 67 59  1  0
 83 75  1  0
 13  4  1  0
 29 21  1  0
 42 33  1  0
 58 50  1  0
 74 66  1  0
 90 82  1  0
  1 91  1  0
  6 92  1  0
  9 93  1  0
  9 94  1  0
  9 95  1  0
 12 96  1  0
 12 97  1  0
 12 98  1  0
 13 99  1  0
 15100  1  0
 16101  1  0
 19102  1  0
 19103  1  0
 20104  1  0
 20105  1  0
 20106  1  0
 25107  1  0
 25108  1  0
 26109  1  0
 26110  1  0
 26111  1  0
 27112  1  0
 28113  1  0
 35114  1  0
 38115  1  0
 38116  1  0
 38117  1  0
 41118  1  0
 41119  1  0
 41120  1  0
 42121  1  0
 44122  1  0
 45123  1  0
 48124  1  0
 48125  1  0
 49126  1  0
 49127  1  0
 49128  1  0
 54129  1  0
 54130  1  0
 55131  1  0
 55132  1  0
 55133  1  0
 56134  1  0
 57135  1  0
 60136  1  0
 61137  1  0
 64138  1  0
 64139  1  0
 65140  1  0
 65141  1  0
 65142  1  0
 70143  1  0
 70144  1  0
 71145  1  0
 71146  1  0
 71147  1  0
 72148  1  0
 73149  1  0
 76150  1  0
 77151  1  0
 80152  1  0
 80153  1  0
 81154  1  0
 81155  1  0
 81156  1  0
 86157  1  0
 86158  1  0
 87159  1  0
 87160  1  0
 87161  1  0
 88162  1  0
 89163  1  0
 90164  1  0
M  END

