
     RDKit          3D

 76 83  0  0  0  0  0  0  0  0999 V2000
    1.5818   -5.8444    2.8691 C   0  0  0  0  0  0  0  0  0  0  0  0
   -0.0066   -5.2941    2.8026 S   0  0  0  0  0  0  0  0  0  0  0  0
    0.1561   -4.3129    1.4383 C   0  0  0  0  0  0  0  0  0  0  0  0
    1.4866   -4.4027    1.0178 C   0  0  0  0  0  0  0  0  0  0  0  0
    2.2698   -5.2489    1.8192 C   0  0  0  0  0  0  0  0  0  0  0  0
    3.6241   -5.4405    1.5467 C   0  0  0  0  0  0  0  0  0  0  0  0
    4.2098   -4.7845    0.4430 C   0  0  0  0  0  0  0  0  0  0  0  0
    5.5710   -4.9310    0.1302 O   0  0  0  0  0  0  0  0  0  0  0  0
    6.4981   -5.6912    0.8973 C   0  0  0  0  0  0  0  0  0  0  0  0
    3.4211   -3.9570   -0.3830 C   0  0  0  0  0  0  0  0  0  0  0  0
    4.0368   -3.3375   -1.4824 O   0  0  0  0  0  0  0  0  0  0  0  0
    3.3674   -2.4876   -2.4085 C   0  0  0  0  0  0  0  0  0  0  0  0
    2.0512   -3.7705   -0.0950 C   0  0  0  0  0  0  0  0  0  0  0  0
   -0.8925   -3.4149    0.9140 C   0  0  0  0  0  0  0  0  0  0  0  0
   -0.6431   -1.8030    0.4968 S   0  0  0  0  0  0  0  0  0  0  0  0
   -2.2410   -1.4168    0.1449 C   0  0  0  0  0  0  0  0  0  0  0  0
   -3.0182   -2.5523    0.3984 C   0  0  0  0  0  0  0  0  0  0  0  0
   -2.2634   -3.6695    0.8058 C   0  0  0  0  0  0  0  0  0  0  0  0
   -2.8916   -4.8960    1.0453 C   0  0  0  0  0  0  0  0  0  0  0  0
   -4.2944   -4.9963    0.9334 C   0  0  0  0  0  0  0  0  0  0  0  0
   -4.9702   -6.2077    1.1502 O   0  0  0  0  0  0  0  0  0  0  0  0
   -4.3341   -7.4406    1.4751 C   0  0  0  0  0  0  0  0  0  0  0  0
   -5.0570   -3.8597    0.5995 C   0  0  0  0  0  0  0  0  0  0  0  0
   -6.4531   -3.9944    0.5321 O   0  0  0  0  0  0  0  0  0  0  0  0
   -7.3495   -2.9430    0.1904 C   0  0  0  0  0  0  0  0  0  0  0  0
   -4.4143   -2.6306    0.3418 C   0  0  0  0  0  0  0  0  0  0  0  0
   -2.6498   -0.1001   -0.3729 C   0  0  0  0  0  0  0  0  0  0  0  0
   -2.0476    1.0181   -0.0375 O   0  0  0  0  0  0  0  0  0  0  0  0
   -2.5971    2.0151   -0.6973 C   0  0  0  0  0  0  0  0  0  0  0  0
   -3.6067    1.5447   -1.5198 C   0  0  0  0  0  0  0  0  0  0  0  0
   -3.6165    0.1820   -1.3199 C   0  0  0  0  0  0  0  0  0  0  0  0
   -4.3950   -0.7358   -2.0177 O   0  0  0  0  0  0  0  0  0  0  0  0
   -2.1065    3.3970   -0.6063 C   0  0  0  0  0  0  0  0  0  0  0  0
   -0.8567    3.6865   -0.3278 O   0  0  0  0  0  0  0  0  0  0  0  0
   -0.7004    4.9919   -0.3641 C   0  0  0  0  0  0  0  0  0  0  0  0
   -1.9036    5.6074   -0.6673 C   0  0  0  0  0  0  0  0  0  0  0  0
   -2.8041    4.5757   -0.8097 C   0  0  0  0  0  0  0  0  0  0  0  0
   -4.1633    4.7324   -1.0636 O   0  0  0  0  0  0  0  0  0  0  0  0
    0.5953    5.6444   -0.1248 C   0  0  0  0  0  0  0  0  0  0  0  0
    1.6890    4.9786    0.1684 O   0  0  0  0  0  0  0  0  0  0  0  0
    2.6823    5.8304    0.3059 C   0  0  0  0  0  0  0  0  0  0  0  0
    2.2353    7.1231    0.0974 C   0  0  0  0  0  0  0  0  0  0  0  0
    0.8924    6.9932   -0.1785 C   0  0  0  0  0  0  0  0  0  0  0  0
    0.0120    8.0328   -0.4640 O   0  0  0  0  0  0  0  0  0  0  0  0
    4.0683    5.4547    0.6245 C   0  0  0  0  0  0  0  0  0  0  0  0
    5.0523    6.3224    0.7055 O   0  0  0  0  0  0  0  0  0  0  0  0
    6.1650    5.6821    0.9955 C   0  0  0  0  0  0  0  0  0  0  0  0
    5.9138    4.3288    1.1151 C   0  0  0  0  0  0  0  0  0  0  0  0
    4.5674    4.1875    0.8769 C   0  0  0  0  0  0  0  0  0  0  0  0
    3.8757    2.9783    0.8979 O   0  0  0  0  0  0  0  0  0  0  0  0
    1.9920   -6.5274    3.6015 H   0  0  0  0  0  0  0  0  0  0  0  0
    4.2072   -6.0894    2.1866 H   0  0  0  0  0  0  0  0  0  0  0  0
    6.1924   -6.7587    0.9195 H   0  0  0  0  0  0  0  0  0  0  0  0
    6.5584   -5.2887    1.9310 H   0  0  0  0  0  0  0  0  0  0  0  0
    7.5014   -5.6182    0.4280 H   0  0  0  0  0  0  0  0  0  0  0  0
    2.5517   -3.0453   -2.9149 H   0  0  0  0  0  0  0  0  0  0  0  0
    2.9548   -1.5998   -1.8837 H   0  0  0  0  0  0  0  0  0  0  0  0
    4.0920   -2.1428   -3.1739 H   0  0  0  0  0  0  0  0  0  0  0  0
    1.4364   -3.1606   -0.7377 H   0  0  0  0  0  0  0  0  0  0  0  0
   -2.3009   -5.7635    1.2956 H   0  0  0  0  0  0  0  0  0  0  0  0
   -3.6232   -7.7273    0.6712 H   0  0  0  0  0  0  0  0  0  0  0  0
   -5.1041   -8.2321    1.5656 H   0  0  0  0  0  0  0  0  0  0  0  0
   -3.7996   -7.3523    2.4444 H   0  0  0  0  0  0  0  0  0  0  0  0
   -7.1188   -2.5586   -0.8241 H   0  0  0  0  0  0  0  0  0  0  0  0
   -8.3863   -3.3356    0.1919 H   0  0  0  0  0  0  0  0  0  0  0  0
   -7.2778   -2.1222    0.9338 H   0  0  0  0  0  0  0  0  0  0  0  0
   -4.9962   -1.7463    0.1353 H   0  0  0  0  0  0  0  0  0  0  0  0
   -4.1926    2.0968   -2.2419 H   0  0  0  0  0  0  0  0  0  0  0  0
   -5.0624   -0.4271   -2.7140 H   0  0  0  0  0  0  0  0  0  0  0  0
   -2.1107    6.6634   -0.7597 H   0  0  0  0  0  0  0  0  0  0  0  0
   -4.8067    3.9535   -1.0410 H   0  0  0  0  0  0  0  0  0  0  0  0
    2.8118    8.0378    0.1368 H   0  0  0  0  0  0  0  0  0  0  0  0
    0.3319    8.9937   -0.4866 H   0  0  0  0  0  0  0  0  0  0  0  0
    7.1283    6.1585    1.1186 H   0  0  0  0  0  0  0  0  0  0  0  0
    6.6249    3.5472    1.3465 H   0  0  0  0  0  0  0  0  0  0  0  0
    2.8827    2.9214    0.7195 H   0  0  0  0  0  0  0  0  0  0  0  0
  1  2  1  0
  2  3  1  0
  3  4  2  0
  4  5  1  0
  5  6  1  0
  6  7  2  0
  7  8  1  0
  8  9  1  0
  7 10  1  0
 10 11  1  0
 11 12  1  0
 10 13  2  0
  3 14  1  0
 14 15  1  0
 15 16  1  0
 16 17  2  0
 17 18  1  0
 18 19  1  0
 19 20  2  0
 20 21  1  0
 21 22  1  0
 20 23  1  0
 23 24  1  0
 24 25  1  0
 23 26  2  0
 16 27  1  0
 27 28  1  0
 28 29  1  0
 29 30  2  0
 30 31  1  0
 31 32  1  0
 29 33  1  0
 33 34  1  0
 34 35  1  0
 35 36  2  0
 36 37  1  0
 37 38  1  0
 35 39  1  0
 39 40  1  0
 40 41  1  0
 41 42  2  0
 42 43  1  0
 43 44  1  0
 41 45  1  0
 45 46  1  0
 46 47  1  0
 47 48  2  0
 48 49  1  0
 49 50  1  0
  5  1  2  0
 18 14  2  0
 31 27  2  0
 37 33  2  0
 43 39  2  0
 49 45  2  0
 13  4  1  0
 26 17  1  0
  1 51  1  0
  6 52  1  0
  9 53  1  0
  9 54  1  0
  9 55  1  0
 12 56  1  0
 12 57  1  0
 12 58  1  0
 13 59  1  0
 19 60  1  0
 22 61  1  0
 22 62  1  0
 22 63  1  0
 25 64  1  0
 25 65  1  0
 25 66  1  0
 26 67  1  0
 30 68  1  0
 32 69  1  0
 36 70  1  0
 38 71  1  0
 42 72  1  0
 44 73  1  0
 47 74  1  0
 48 75  1  0
 50 76  1  0
M  END

