
     RDKit          3D

133144  0  0  0  0  0  0  0  0999 V2000
    6.1315   -5.1971    2.4234 C   0  0  0  0  0  0  0  0  0  0  0  0
    6.5494   -4.5391    3.9264 S   0  0  0  0  0  0  0  0  0  0  0  0
    5.9395   -2.9739    3.6850 C   0  0  0  0  0  0  0  0  0  0  0  0
    5.4385   -2.9501    2.3880 C   0  0  0  0  0  0  0  0  0  0  0  0
    5.5380   -4.1588    1.7318 C   0  0  0  0  0  0  0  0  0  0  0  0
    4.9289   -4.0335    0.1794 S   0  0  0  0  0  0  0  0  0  0  0  0
    4.5372   -2.3813    0.3348 C   0  0  0  0  0  0  0  0  0  0  0  0
    3.9238   -1.5500   -0.7185 C   0  0  0  0  0  0  0  0  0  0  0  0
    3.7859   -0.3107   -0.5313 O   0  0  0  0  0  0  0  0  0  0  0  0
    3.4267   -2.1557   -2.0004 C   0  0  0  0  0  0  0  0  0  0  0  0
    2.0664   -2.8108   -1.7933 C   0  0  0  0  0  0  0  0  0  0  0  0
    4.8941   -1.9242    1.6121 C   0  0  0  0  0  0  0  0  0  0  0  0
    6.0221   -1.8833    4.6691 C   0  0  0  0  0  0  0  0  0  0  0  0
    5.0338   -1.0298    4.9745 C   0  0  0  0  0  0  0  0  0  0  0  0
    3.6398   -1.1039    4.4957 C   0  0  0  0  0  0  0  0  0  0  0  0
    2.6302    0.2383    4.2848 S   0  0  0  0  0  0  0  0  0  0  0  0
    1.1899   -0.5929    3.9435 C   0  0  0  0  0  0  0  0  0  0  0  0
    1.4958   -1.9446    4.0238 C   0  0  0  0  0  0  0  0  0  0  0  0
    2.8134   -2.2120    4.3367 C   0  0  0  0  0  0  0  0  0  0  0  0
    3.0034   -3.8580    4.5919 S   0  0  0  0  0  0  0  0  0  0  0  0
    1.3864   -4.2470    4.2381 C   0  0  0  0  0  0  0  0  0  0  0  0
    0.8056   -5.6019    4.2914 C   0  0  0  0  0  0  0  0  0  0  0  0
   -0.4472   -5.7332    4.2784 O   0  0  0  0  0  0  0  0  0  0  0  0
    1.6781   -6.8211    4.4462 C   0  0  0  0  0  0  0  0  0  0  0  0
    1.1762   -7.9920    3.6053 C   0  0  0  0  0  0  0  0  0  0  0  0
    0.6742   -3.0736    3.9566 C   0  0  0  0  0  0  0  0  0  0  0  0
   -0.1464   -0.0108    3.7305 C   0  0  0  0  0  0  0  0  0  0  0  0
   -0.4381    1.2508    4.0693 C   0  0  0  0  0  0  0  0  0  0  0  0
   -1.7958    1.7997    3.9190 C   0  0  0  0  0  0  0  0  0  0  0  0
   -3.1157    1.0876    3.1361 S   0  0  0  0  0  0  0  0  0  0  0  0
   -4.2717    2.2921    3.4359 C   0  0  0  0  0  0  0  0  0  0  0  0
   -3.6200    3.2455    4.2115 C   0  0  0  0  0  0  0  0  0  0  0  0
   -2.2860    2.9798    4.4492 C   0  0  0  0  0  0  0  0  0  0  0  0
   -1.6255    4.1596    5.4395 S   0  0  0  0  0  0  0  0  0  0  0  0
   -3.0797    5.0454    5.5613 C   0  0  0  0  0  0  0  0  0  0  0  0
   -3.2625    6.2808    6.3467 C   0  0  0  0  0  0  0  0  0  0  0  0
   -4.3864    6.8518    6.3539 O   0  0  0  0  0  0  0  0  0  0  0  0
   -2.1544    6.8498    7.1878 C   0  0  0  0  0  0  0  0  0  0  0  0
   -2.1257    6.1894    8.5620 C   0  0  0  0  0  0  0  0  0  0  0  0
   -4.0895    4.4069    4.8275 C   0  0  0  0  0  0  0  0  0  0  0  0
   -5.7260    2.2276    3.1812 C   0  0  0  0  0  0  0  0  0  0  0  0
   -6.3123    1.8107    2.0502 C   0  0  0  0  0  0  0  0  0  0  0  0
   -5.6064    1.4268    0.8139 C   0  0  0  0  0  0  0  0  0  0  0  0
   -4.7157    0.0209    0.5816 S   0  0  0  0  0  0  0  0  0  0  0  0
   -4.3917    0.2192   -1.0596 C   0  0  0  0  0  0  0  0  0  0  0  0
   -5.0661    1.3777   -1.4754 C   0  0  0  0  0  0  0  0  0  0  0  0
   -5.7442    2.0376   -0.4309 C   0  0  0  0  0  0  0  0  0  0  0  0
   -6.4883    3.1939   -0.6812 C   0  0  0  0  0  0  0  0  0  0  0  0
   -6.5760    3.6942   -1.9965 C   0  0  0  0  0  0  0  0  0  0  0  0
   -7.3192    4.8448   -2.3039 O   0  0  0  0  0  0  0  0  0  0  0  0
   -8.0795    5.5919   -1.3577 C   0  0  0  0  0  0  0  0  0  0  0  0
   -5.9198    3.0262   -3.0489 C   0  0  0  0  0  0  0  0  0  0  0  0
   -6.0552    3.5443   -4.3466 O   0  0  0  0  0  0  0  0  0  0  0  0
   -5.5074    2.9463   -5.5170 C   0  0  0  0  0  0  0  0  0  0  0  0
   -5.1639    1.8624   -2.7859 C   0  0  0  0  0  0  0  0  0  0  0  0
   -3.4520   -0.6334   -1.8223 C   0  0  0  0  0  0  0  0  0  0  0  0
   -2.5105   -0.1770   -3.1592 S   0  0  0  0  0  0  0  0  0  0  0  0
   -1.5515   -1.5725   -3.2785 C   0  0  0  0  0  0  0  0  0  0  0  0
   -1.9529   -2.4014   -2.2410 C   0  0  0  0  0  0  0  0  0  0  0  0
   -2.9677   -1.8861   -1.4591 C   0  0  0  0  0  0  0  0  0  0  0  0
   -3.2748   -2.9248   -0.1775 S   0  0  0  0  0  0  0  0  0  0  0  0
   -2.0904   -4.0606   -0.6335 C   0  0  0  0  0  0  0  0  0  0  0  0
   -1.7405   -5.2771    0.1209 C   0  0  0  0  0  0  0  0  0  0  0  0
   -0.7757   -5.9885   -0.2715 O   0  0  0  0  0  0  0  0  0  0  0  0
   -2.4617   -5.6210    1.3979 C   0  0  0  0  0  0  0  0  0  0  0  0
   -2.3282   -7.0961    1.7692 C   0  0  0  0  0  0  0  0  0  0  0  0
   -1.4470   -3.6264   -1.7996 C   0  0  0  0  0  0  0  0  0  0  0  0
   -0.4377   -1.8208   -4.2086 C   0  0  0  0  0  0  0  0  0  0  0  0
    0.0846   -0.8559   -4.9702 C   0  0  0  0  0  0  0  0  0  0  0  0
    1.2701   -1.0829   -5.8148 C   0  0  0  0  0  0  0  0  0  0  0  0
    2.1564   -2.5166   -6.0046 S   0  0  0  0  0  0  0  0  0  0  0  0
    3.3302   -1.9260   -7.0774 C   0  0  0  0  0  0  0  0  0  0  0  0
    3.0104   -0.5873   -7.3108 C   0  0  0  0  0  0  0  0  0  0  0  0
    1.9019   -0.1489   -6.6159 C   0  0  0  0  0  0  0  0  0  0  0  0
    1.5735    1.4513   -6.9826 S   0  0  0  0  0  0  0  0  0  0  0  0
    2.8715    1.5969   -8.0739 C   0  0  0  0  0  0  0  0  0  0  0  0
    3.1873    2.8317   -8.8170 C   0  0  0  0  0  0  0  0  0  0  0  0
    2.4795    3.8586   -8.6339 O   0  0  0  0  0  0  0  0  0  0  0  0
    4.3587    2.9179   -9.7547 C   0  0  0  0  0  0  0  0  0  0  0  0
    5.6583    3.1473   -8.9850 C   0  0  0  0  0  0  0  0  0  0  0  0
    3.5649    0.3797   -8.1557 C   0  0  0  0  0  0  0  0  0  0  0  0
    4.4163   -2.7427   -7.6444 C   0  0  0  0  0  0  0  0  0  0  0  0
    5.6103   -2.2475   -7.9626 C   0  0  0  0  0  0  0  0  0  0  0  0
    6.3139   -6.2030    2.0686 H   0  0  0  0  0  0  0  0  0  0  0  0
    3.3390   -1.3700   -2.7826 H   0  0  0  0  0  0  0  0  0  0  0  0
    4.1526   -2.9119   -2.3718 H   0  0  0  0  0  0  0  0  0  0  0  0
    1.3073   -2.0418   -1.5341 H   0  0  0  0  0  0  0  0  0  0  0  0
    1.7609   -3.3239   -2.7271 H   0  0  0  0  0  0  0  0  0  0  0  0
    2.1116   -3.5674   -0.9794 H   0  0  0  0  0  0  0  0  0  0  0  0
    4.7679   -0.9056    1.9500 H   0  0  0  0  0  0  0  0  0  0  0  0
    6.9629   -1.7738    5.1927 H   0  0  0  0  0  0  0  0  0  0  0  0
    5.2708   -0.2121    5.6420 H   0  0  0  0  0  0  0  0  0  0  0  0
    1.7009   -7.1157    5.5176 H   0  0  0  0  0  0  0  0  0  0  0  0
    2.7189   -6.5958    4.1261 H   0  0  0  0  0  0  0  0  0  0  0  0
    1.1542   -7.7111    2.5297 H   0  0  0  0  0  0  0  0  0  0  0  0
    1.8589   -8.8573    3.7322 H   0  0  0  0  0  0  0  0  0  0  0  0
    0.1584   -8.2965    3.9319 H   0  0  0  0  0  0  0  0  0  0  0  0
   -0.3876   -3.0438    3.7450 H   0  0  0  0  0  0  0  0  0  0  0  0
   -0.9224   -0.6561    3.3383 H   0  0  0  0  0  0  0  0  0  0  0  0
    0.3192    1.8848    4.5118 H   0  0  0  0  0  0  0  0  0  0  0  0
   -1.1737    6.7066    6.6843 H   0  0  0  0  0  0  0  0  0  0  0  0
   -2.3070    7.9434    7.3132 H   0  0  0  0  0  0  0  0  0  0  0  0
   -1.9496    5.0973    8.4636 H   0  0  0  0  0  0  0  0  0  0  0  0
   -3.0886    6.3588    9.0908 H   0  0  0  0  0  0  0  0  0  0  0  0
   -1.3052    6.6272    9.1694 H   0  0  0  0  0  0  0  0  0  0  0  0
   -5.1094    4.7610    4.7556 H   0  0  0  0  0  0  0  0  0  0  0  0
   -6.3703    2.6285    3.9544 H   0  0  0  0  0  0  0  0  0  0  0  0
   -7.3880    1.9042    1.9835 H   0  0  0  0  0  0  0  0  0  0  0  0
   -6.9939    3.6909    0.1346 H   0  0  0  0  0  0  0  0  0  0  0  0
   -8.5782    6.4347   -1.8769 H   0  0  0  0  0  0  0  0  0  0  0  0
   -7.4118    6.0043   -0.5717 H   0  0  0  0  0  0  0  0  0  0  0  0
   -8.8582    4.9460   -0.8979 H   0  0  0  0  0  0  0  0  0  0  0  0
   -5.9221    1.9250   -5.6533 H   0  0  0  0  0  0  0  0  0  0  0  0
   -4.3993    2.9050   -5.4448 H   0  0  0  0  0  0  0  0  0  0  0  0
   -5.7824    3.5603   -6.4002 H   0  0  0  0  0  0  0  0  0  0  0  0
   -4.6995    1.3277   -3.5974 H   0  0  0  0  0  0  0  0  0  0  0  0
   -2.0550   -4.9946    2.2180 H   0  0  0  0  0  0  0  0  0  0  0  0
   -3.5441   -5.3903    1.2903 H   0  0  0  0  0  0  0  0  0  0  0  0
   -2.8811   -7.2943    2.7110 H   0  0  0  0  0  0  0  0  0  0  0  0
   -1.2629   -7.3600    1.9263 H   0  0  0  0  0  0  0  0  0  0  0  0
   -2.7509   -7.7346    0.9641 H   0  0  0  0  0  0  0  0  0  0  0  0
   -0.6373   -4.1588   -2.2776 H   0  0  0  0  0  0  0  0  0  0  0  0
   -0.0113   -2.8128   -4.2304 H   0  0  0  0  0  0  0  0  0  0  0  0
   -0.3355    0.1410   -4.9460 H   0  0  0  0  0  0  0  0  0  0  0  0
    4.2042    3.7595  -10.4674 H   0  0  0  0  0  0  0  0  0  0  0  0
    4.4381    1.9889  -10.3598 H   0  0  0  0  0  0  0  0  0  0  0  0
    6.4887    3.3104   -9.7007 H   0  0  0  0  0  0  0  0  0  0  0  0
    5.8939    2.2612   -8.3625 H   0  0  0  0  0  0  0  0  0  0  0  0
    5.5707    4.0400   -8.3331 H   0  0  0  0  0  0  0  0  0  0  0  0
    4.4058    0.2045   -8.8109 H   0  0  0  0  0  0  0  0  0  0  0  0
    4.2594   -3.8106   -7.7330 H   0  0  0  0  0  0  0  0  0  0  0  0
    6.3796   -2.9040   -8.3457 H   0  0  0  0  0  0  0  0  0  0  0  0
    5.8581   -1.2090   -7.7992 H   0  0  0  0  0  0  0  0  0  0  0  0
  1  2  1  0
  2  3  1  0
  3  4  2  0
  4  5  1  0
  5  6  1  0
  6  7  1  0
  7  8  1  0
  8  9  2  0
  8 10  1  0
 10 11  1  0
  7 12  2  0
  3 13  1  0
 13 14  2  3
 14 15  1  0
 15 16  1  0
 16 17  1  0
 17 18  2  0
 18 19  1  0
 19 20  1  0
 20 21  1  0
 21 22  1  0
 22 23  2  0
 22 24  1  0
 24 25  1  0
 21 26  2  0
 17 27  1  0
 27 28  2  3
 28 29  1  0
 29 30  1  0
 30 31  1  0
 31 32  2  0
 32 33  1  0
 33 34  1  0
 34 35  1  0
 35 36  1  0
 36 37  2  0
 36 38  1  0
 38 39  1  0
 35 40  2  0
 31 41  1  0
 41 42  2  3
 42 43  1  0
 43 44  1  0
 44 45  1  0
 45 46  2  0
 46 47  1  0
 47 48  1  0
 48 49  2  0
 49 50  1  0
 50 51  1  0
 49 52  1  0
 52 53  1  0
 53 54  1  0
 52 55  2  0
 45 56  1  0
 56 57  1  0
 57 58  1  0
 58 59  2  0
 59 60  1  0
 60 61  1  0
 61 62  1  0
 62 63  1  0
 63 64  2  0
 63 65  1  0
 65 66  1  0
 62 67  2  0
 58 68  1  0
 68 69  2  3
 69 70  1  0
 70 71  1  0
 71 72  1  0
 72 73  2  0
 73 74  1  0
 74 75  1  0
 75 76  1  0
 76 77  1  0
 77 78  2  0
 77 79  1  0
 79 80  1  0
 76 81  2  0
 72 82  1  0
 82 83  2  3
  5  1  2  0
 19 15  2  0
 33 29  2  0
 47 43  2  0
 60 56  2  0
 74 70  2  0
 12  4  1  0
 26 18  1  0
 40 32  1  0
 55 46  1  0
 67 59  1  0
 81 73  1  0
  1 84  1  0
 10 85  1  0
 10 86  1  0
 11 87  1  0
 11 88  1  0
 11 89  1  0
 12 90  1  0
 13 91  1  0
 14 92  1  0
 24 93  1  0
 24 94  1  0
 25 95  1  0
 25 96  1  0
 25 97  1  0
 26 98  1  0
 27 99  1  0
 28100  1  0
 38101  1  0
 38102  1  0
 39103  1  0
 39104  1  0
 39105  1  0
 40106  1  0
 41107  1  0
 42108  1  0
 48109  1  0
 51110  1  0
 51111  1  0
 51112  1  0
 54113  1  0
 54114  1  0
 54115  1  0
 55116  1  0
 65117  1  0
 65118  1  0
 66119  1  0
 66120  1  0
 66121  1  0
 67122  1  0
 68123  1  0
 69124  1  0
 79125  1  0
 79126  1  0
 80127  1  0
 80128  1  0
 80129  1  0
 81130  1  0
 82131  1  0
 83132  1  0
 83133  1  0
M  END

