
     RDKit          3D

113124  0  0  0  0  0  0  0  0999 V2000
    2.3921    1.0355   -1.3617 C   0  0  0  0  0  0  0  0  0  0  0  0
    2.0120    2.1746   -2.0971 C   0  0  0  0  0  0  0  0  0  0  0  0
    2.8175    3.3226   -2.0614 C   0  0  0  0  0  0  0  0  0  0  0  0
    3.9529    3.3554   -1.2465 C   0  0  0  0  0  0  0  0  0  0  0  0
    4.3099    2.2235   -0.4875 C   0  0  0  0  0  0  0  0  0  0  0  0
    3.5335    1.0628   -0.5539 C   0  0  0  0  0  0  0  0  0  0  0  0
    5.4097    2.2791    0.3120 N   0  0  0  0  0  0  0  0  0  0  0  0
    6.1711    3.4040    0.3831 C   0  0  0  0  0  0  0  0  0  0  0  0
    5.8194    4.5255   -0.3718 C   0  0  0  0  0  0  0  0  0  0  0  0
    4.7198    4.4765   -1.1717 N   0  0  0  0  0  0  0  0  0  0  0  0
    0.8095    2.1675   -2.9504 C   0  0  0  0  0  0  0  0  0  0  0  0
   -0.4193    1.7931   -2.5606 C   0  0  0  0  0  0  0  0  0  0  0  0
   -0.8406    1.5458   -1.1618 C   0  0  0  0  0  0  0  0  0  0  0  0
   -0.0908    2.1647    0.2175 S   0  0  0  0  0  0  0  0  0  0  0  0
   -1.2659    1.7337    1.3319 C   0  0  0  0  0  0  0  0  0  0  0  0
   -2.3147    1.1395    0.6283 C   0  0  0  0  0  0  0  0  0  0  0  0
   -2.0703    1.0151   -0.7527 C   0  0  0  0  0  0  0  0  0  0  0  0
   -3.0292    0.4306   -1.5896 C   0  0  0  0  0  0  0  0  0  0  0  0
   -4.2612    0.0058   -1.0459 C   0  0  0  0  0  0  0  0  0  0  0  0
   -5.2644   -0.5706   -1.8403 O   0  0  0  0  0  0  0  0  0  0  0  0
   -5.1458   -0.8232   -3.2374 C   0  0  0  0  0  0  0  0  0  0  0  0
   -4.5202    0.1693    0.3294 C   0  0  0  0  0  0  0  0  0  0  0  0
   -5.7795   -0.2170    0.8129 O   0  0  0  0  0  0  0  0  0  0  0  0
   -6.2964    0.1465    2.0907 C   0  0  0  0  0  0  0  0  0  0  0  0
   -3.5326    0.7191    1.1743 C   0  0  0  0  0  0  0  0  0  0  0  0
   -1.2169    2.1258    2.7518 C   0  0  0  0  0  0  0  0  0  0  0  0
   -0.1110    1.7815    3.5696 C   0  0  0  0  0  0  0  0  0  0  0  0
    0.0071    2.3427    4.8503 C   0  0  0  0  0  0  0  0  0  0  0  0
   -0.9877    3.1889    5.3426 C   0  0  0  0  0  0  0  0  0  0  0  0
   -2.1097    3.4942    4.5492 C   0  0  0  0  0  0  0  0  0  0  0  0
   -2.2150    2.9749    3.2574 C   0  0  0  0  0  0  0  0  0  0  0  0
   -3.0732    4.3144    5.0472 N   0  0  0  0  0  0  0  0  0  0  0  0
   -2.9710    4.8411    6.2964 C   0  0  0  0  0  0  0  0  0  0  0  0
   -1.8555    4.5406    7.0831 C   0  0  0  0  0  0  0  0  0  0  0  0
   -0.8894    3.7194    6.5914 N   0  0  0  0  0  0  0  0  0  0  0  0
    0.9155    0.8016    3.1475 C   0  0  0  0  0  0  0  0  0  0  0  0
    0.6718   -0.4875    2.8476 C   0  0  0  0  0  0  0  0  0  0  0  0
   -0.6595   -1.1560    2.9019 C   0  0  0  0  0  0  0  0  0  0  0  0
   -1.0045   -2.1754    1.9710 C   0  0  0  0  0  0  0  0  0  0  0  0
   -2.2935   -2.7475    2.0215 C   0  0  0  0  0  0  0  0  0  0  0  0
   -3.1771   -2.4178    3.0496 C   0  0  0  0  0  0  0  0  0  0  0  0
   -2.7952   -1.4914    4.0335 C   0  0  0  0  0  0  0  0  0  0  0  0
   -1.5494   -0.8696    3.9597 C   0  0  0  0  0  0  0  0  0  0  0  0
   -3.6470   -1.2140    5.0567 N   0  0  0  0  0  0  0  0  0  0  0  0
   -4.8600   -1.8200    5.1444 C   0  0  0  0  0  0  0  0  0  0  0  0
   -5.2416   -2.7406    4.1647 C   0  0  0  0  0  0  0  0  0  0  0  0
   -4.3931   -3.0198    3.1384 N   0  0  0  0  0  0  0  0  0  0  0  0
   -0.0008   -2.7257    1.0182 C   0  0  0  0  0  0  0  0  0  0  0  0
    0.1005   -4.0475    0.8214 C   0  0  0  0  0  0  0  0  0  0  0  0
    1.2532   -4.6975    0.1567 C   0  0  0  0  0  0  0  0  0  0  0  0
    1.7685   -4.3123   -1.1135 C   0  0  0  0  0  0  0  0  0  0  0  0
    2.8436   -5.0559   -1.6593 C   0  0  0  0  0  0  0  0  0  0  0  0
    3.4044   -6.1268   -0.9627 C   0  0  0  0  0  0  0  0  0  0  0  0
    2.8900   -6.4968    0.2883 C   0  0  0  0  0  0  0  0  0  0  0  0
    1.8189   -5.7932    0.8352 C   0  0  0  0  0  0  0  0  0  0  0  0
    3.4342   -7.5556    0.9467 N   0  0  0  0  0  0  0  0  0  0  0  0
    4.4654   -8.2626    0.4099 C   0  0  0  0  0  0  0  0  0  0  0  0
    4.9750   -7.8966   -0.8381 C   0  0  0  0  0  0  0  0  0  0  0  0
    4.4322   -6.8400   -1.4992 N   0  0  0  0  0  0  0  0  0  0  0  0
    1.1121   -3.2436   -1.9232 C   0  0  0  0  0  0  0  0  0  0  0  0
    1.7410   -2.5886   -2.9162 C   0  0  0  0  0  0  0  0  0  0  0  0
    1.0764   -1.6152   -3.8276 C   0  0  0  0  0  0  0  0  0  0  0  0
    1.8515   -0.6739   -4.5636 C   0  0  0  0  0  0  0  0  0  0  0  0
    1.2170    0.1621   -5.5039 C   0  0  0  0  0  0  0  0  0  0  0  0
   -0.1577    0.0791   -5.7163 C   0  0  0  0  0  0  0  0  0  0  0  0
   -0.9240   -0.8531   -4.9969 C   0  0  0  0  0  0  0  0  0  0  0  0
   -0.3128   -1.6955   -4.0679 C   0  0  0  0  0  0  0  0  0  0  0  0
   -2.2625   -0.9257   -5.2170 N   0  0  0  0  0  0  0  0  0  0  0  0
   -2.8743   -0.1029   -6.1084 C   0  0  0  0  0  0  0  0  0  0  0  0
   -2.1154    0.8356   -6.8119 C   0  0  0  0  0  0  0  0  0  0  0  0
   -0.7735    0.9050   -6.6040 N   0  0  0  0  0  0  0  0  0  0  0  0
    3.3035   -0.5014   -4.2963 C   0  0  0  0  0  0  0  0  0  0  0  0
    4.1834   -0.1645   -5.2399 C   0  0  0  0  0  0  0  0  0  0  0  0
    1.7942    0.1344   -1.4033 H   0  0  0  0  0  0  0  0  0  0  0  0
    2.5478    4.1966   -2.6429 H   0  0  0  0  0  0  0  0  0  0  0  0
    3.8071    0.1868    0.0221 H   0  0  0  0  0  0  0  0  0  0  0  0
    7.0397    3.4275    1.0265 H   0  0  0  0  0  0  0  0  0  0  0  0
    6.4148    5.4264   -0.3255 H   0  0  0  0  0  0  0  0  0  0  0  0
    0.9323    2.5065   -3.9717 H   0  0  0  0  0  0  0  0  0  0  0  0
   -1.1860    1.7689   -3.3239 H   0  0  0  0  0  0  0  0  0  0  0  0
   -2.8284    0.3131   -2.6452 H   0  0  0  0  0  0  0  0  0  0  0  0
   -6.0843   -1.2891   -3.6012 H   0  0  0  0  0  0  0  0  0  0  0  0
   -4.9866    0.1279   -3.7872 H   0  0  0  0  0  0  0  0  0  0  0  0
   -4.3068   -1.5236   -3.4254 H   0  0  0  0  0  0  0  0  0  0  0  0
   -7.3166   -0.2714    2.2006 H   0  0  0  0  0  0  0  0  0  0  0  0
   -6.3542    1.2522    2.1794 H   0  0  0  0  0  0  0  0  0  0  0  0
   -5.6582   -0.2621    2.8978 H   0  0  0  0  0  0  0  0  0  0  0  0
   -3.7097    0.8244    2.2353 H   0  0  0  0  0  0  0  0  0  0  0  0
    0.8558    2.0927    5.4789 H   0  0  0  0  0  0  0  0  0  0  0  0
   -3.0573    3.2570    2.6365 H   0  0  0  0  0  0  0  0  0  0  0  0
   -3.7475    5.4951    6.6720 H   0  0  0  0  0  0  0  0  0  0  0  0
   -1.7595    4.9558    8.0771 H   0  0  0  0  0  0  0  0  0  0  0  0
    1.9453    1.1360    3.1427 H   0  0  0  0  0  0  0  0  0  0  0  0
    1.5228   -1.0808    2.5385 H   0  0  0  0  0  0  0  0  0  0  0  0
   -2.5971   -3.4813    1.2850 H   0  0  0  0  0  0  0  0  0  0  0  0
   -1.2669   -0.1988    4.7588 H   0  0  0  0  0  0  0  0  0  0  0  0
   -5.5241   -1.5859    5.9658 H   0  0  0  0  0  0  0  0  0  0  0  0
   -6.2056   -3.2290    4.2164 H   0  0  0  0  0  0  0  0  0  0  0  0
    0.7576   -2.0717    0.6062 H   0  0  0  0  0  0  0  0  0  0  0  0
   -0.5773   -4.7066    1.3540 H   0  0  0  0  0  0  0  0  0  0  0  0
    3.2289   -4.8482   -2.6485 H   0  0  0  0  0  0  0  0  0  0  0  0
    1.4276   -6.1001    1.7988 H   0  0  0  0  0  0  0  0  0  0  0  0
    4.8885   -9.1012    0.9499 H   0  0  0  0  0  0  0  0  0  0  0  0
    5.7934   -8.4512   -1.2780 H   0  0  0  0  0  0  0  0  0  0  0  0
    0.0843   -2.9966   -1.6950 H   0  0  0  0  0  0  0  0  0  0  0  0
    2.7937   -2.7730   -3.0766 H   0  0  0  0  0  0  0  0  0  0  0  0
    1.7788    0.9182   -6.0410 H   0  0  0  0  0  0  0  0  0  0  0  0
   -0.9277   -2.4301   -3.5654 H   0  0  0  0  0  0  0  0  0  0  0  0
   -3.9420   -0.1740   -6.2682 H   0  0  0  0  0  0  0  0  0  0  0  0
   -2.5874    1.4990   -7.5247 H   0  0  0  0  0  0  0  0  0  0  0  0
    3.6819   -0.6784   -3.2986 H   0  0  0  0  0  0  0  0  0  0  0  0
    3.8857   -0.0100   -6.2692 H   0  0  0  0  0  0  0  0  0  0  0  0
    5.2290   -0.0646   -4.9847 H   0  0  0  0  0  0  0  0  0  0  0  0
  1  2  2  0
  2  3  1  0
  3  4  2  0
  4  5  1  0
  5  6  2  0
  5  7  1  0
  7  8  2  0
  8  9  1  0
  9 10  2  0
  2 11  1  0
 11 12  2  3
 12 13  1  0
 13 14  1  0
 14 15  1  0
 15 16  2  0
 16 17  1  0
 17 18  1  0
 18 19  2  0
 19 20  1  0
 20 21  1  0
 19 22  1  0
 22 23  1  0
 23 24  1  0
 22 25  2  0
 15 26  1  0
 26 27  1  0
 27 28  2  0
 28 29  1  0
 29 30  2  0
 30 31  1  0
 30 32  1  0
 32 33  2  0
 33 34  1  0
 34 35  2  0
 27 36  1  0
 36 37  2  3
 37 38  1  0
 38 39  1  0
 39 40  2  0
 40 41  1  0
 41 42  2  0
 42 43  1  0
 42 44  1  0
 44 45  2  0
 45 46  1  0
 46 47  2  0
 39 48  1  0
 48 49  2  3
 49 50  1  0
 50 51  1  0
 51 52  2  0
 52 53  1  0
 53 54  2  0
 54 55  1  0
 54 56  1  0
 56 57  2  0
 57 58  1  0
 58 59  2  0
 51 60  1  0
 60 61  2  3
 61 62  1  0
 62 63  2  0
 63 64  1  0
 64 65  2  0
 65 66  1  0
 66 67  2  0
 66 68  1  0
 68 69  2  0
 69 70  1  0
 70 71  2  0
 63 72  1  0
 72 73  2  3
  6  1  1  0
 17 13  2  0
 31 26  2  0
 43 38  2  0
 55 50  2  0
 67 62  1  0
 10  4  1  0
 25 16  1  0
 35 29  1  0
 47 41  1  0
 59 53  1  0
 71 65  1  0
  1 74  1  0
  3 75  1  0
  6 76  1  0
  8 77  1  0
  9 78  1  0
 11 79  1  0
 12 80  1  0
 18 81  1  0
 21 82  1  0
 21 83  1  0
 21 84  1  0
 24 85  1  0
 24 86  1  0
 24 87  1  0
 25 88  1  0
 28 89  1  0
 31 90  1  0
 33 91  1  0
 34 92  1  0
 36 93  1  0
 37 94  1  0
 40 95  1  0
 43 96  1  0
 45 97  1  0
 46 98  1  0
 48 99  1  0
 49100  1  0
 52101  1  0
 55102  1  0
 57103  1  0
 58104  1  0
 60105  1  0
 61106  1  0
 64107  1  0
 67108  1  0
 69109  1  0
 70110  1  0
 72111  1  0
 73112  1  0
 73113  1  0
M  END

