
     RDKit          3D

108119  0  0  0  0  0  0  0  0999 V2000
    6.2247    6.0586   -2.9815 C   0  0  0  0  0  0  0  0  0  0  0  0
    4.5449    6.4701   -2.7840 S   0  0  0  0  0  0  0  0  0  0  0  0
    3.9331    4.9074   -2.5271 C   0  0  0  0  0  0  0  0  0  0  0  0
    5.0877    4.0399   -2.5998 C   0  0  0  0  0  0  0  0  0  0  0  0
    5.1501    2.6959   -2.4608 C   0  0  0  0  0  0  0  0  0  0  0  0
    6.2831    1.9556   -2.5409 C   0  0  0  0  0  0  0  0  0  0  0  0
    6.5537    0.5013   -2.4211 C   0  0  0  0  0  0  0  0  0  0  0  0
    6.8534    0.0700   -1.0162 C   0  0  0  0  0  0  0  0  0  0  0  0
    7.6012    3.2183   -2.8676 Se  0  0  0  0  0  2  0  0  0  0  0  0
    6.1317    4.7787   -2.8298 C   0  0  0  0  0  0  0  0  0  0  0  0
    2.5385    4.5583   -2.2962 C   0  0  0  0  0  0  0  0  0  0  0  0
    1.9382    2.9773   -2.1082 S   0  0  0  0  0  0  0  0  0  0  0  0
    0.2460    3.3426   -1.8623 C   0  0  0  0  0  0  0  0  0  0  0  0
    0.2610    4.6914   -1.9388 C   0  0  0  0  0  0  0  0  0  0  0  0
    1.4224    5.3315   -2.1617 C   0  0  0  0  0  0  0  0  0  0  0  0
    1.4477    6.7430   -2.1954 C   0  0  0  0  0  0  0  0  0  0  0  0
    0.3173    7.5176   -2.0022 C   0  0  0  0  0  0  0  0  0  0  0  0
    0.3564    8.9039   -2.0392 O   0  0  0  0  0  0  0  0  0  0  0  0
    1.6070    9.5276   -2.2850 C   0  0  0  0  0  0  0  0  0  0  0  0
   -0.8654    6.8721   -1.7690 C   0  0  0  0  0  0  0  0  0  0  0  0
   -2.0219    7.6147   -1.5657 O   0  0  0  0  0  0  0  0  0  0  0  0
   -3.2530    7.0131   -1.3198 C   0  0  0  0  0  0  0  0  0  0  0  0
   -0.8802    5.5076   -1.7402 C   0  0  0  0  0  0  0  0  0  0  0  0
   -0.7923    2.3020   -1.7713 C   0  0  0  0  0  0  0  0  0  0  0  0
   -0.5170    0.8903   -0.8583 S   0  0  0  0  0  0  0  0  0  0  0  0
   -2.0109    0.0242   -1.1945 C   0  0  0  0  0  0  0  0  0  0  0  0
   -2.6288    0.9000   -1.9997 C   0  0  0  0  0  0  0  0  0  0  0  0
   -2.0172    2.0730   -2.3099 C   0  0  0  0  0  0  0  0  0  0  0  0
   -2.6679    2.9745   -3.1743 C   0  0  0  0  0  0  0  0  0  0  0  0
   -3.9073    2.7563   -3.7311 C   0  0  0  0  0  0  0  0  0  0  0  0
   -4.5066    3.6857   -4.5856 O   0  0  0  0  0  0  0  0  0  0  0  0
   -3.9581    4.9009   -4.9762 C   0  0  0  0  0  0  0  0  0  0  0  0
   -4.5225    1.5755   -3.4032 C   0  0  0  0  0  0  0  0  0  0  0  0
   -5.7808    1.3244   -3.9450 O   0  0  0  0  0  0  0  0  0  0  0  0
   -6.4065    0.1050   -3.6019 C   0  0  0  0  0  0  0  0  0  0  0  0
   -3.9076    0.6752   -2.5652 C   0  0  0  0  0  0  0  0  0  0  0  0
   -2.2253   -1.3564   -0.7236 C   0  0  0  0  0  0  0  0  0  0  0  0
   -1.5183   -1.9501    0.7187 S   0  0  0  0  0  0  0  0  0  0  0  0
   -2.0084   -3.5953    0.6853 C   0  0  0  0  0  0  0  0  0  0  0  0
   -2.7564   -3.6470   -0.5158 C   0  0  0  0  0  0  0  0  0  0  0  0
   -3.4020   -4.7221   -1.0798 C   0  0  0  0  0  0  0  0  0  0  0  0
   -4.0766   -4.7157   -2.2194 C   0  0  0  0  0  0  0  0  0  0  0  0
   -4.8444   -5.6549   -3.0456 C   0  0  0  0  0  0  0  0  0  0  0  0
   -4.0575   -6.3934   -4.0747 C   0  0  0  0  0  0  0  0  0  0  0  0
   -3.8432   -2.8024   -2.7498 Se  0  0  0  0  0  2  0  0  0  0  0  0
   -2.8122   -2.4761   -1.1614 C   0  0  0  0  0  0  0  0  0  0  0  0
   -1.5324   -4.5259    1.6791 C   0  0  0  0  0  0  0  0  0  0  0  0
   -1.0670   -4.0528    3.3256 S   0  0  0  0  0  0  0  0  0  0  0  0
   -0.5421   -5.5644    3.8909 C   0  0  0  0  0  0  0  0  0  0  0  0
   -0.7314   -6.4461    2.7801 C   0  0  0  0  0  0  0  0  0  0  0  0
   -0.4274   -7.7652    2.7014 C   0  0  0  0  0  0  0  0  0  0  0  0
   -0.5820   -8.5393    1.6148 C   0  0  0  0  0  0  0  0  0  0  0  0
   -0.3324   -9.9651    1.3004 C   0  0  0  0  0  0  0  0  0  0  0  0
    1.0758  -10.0988    0.7705 C   0  0  0  0  0  0  0  0  0  0  0  0
   -1.3052   -7.2974    0.3222 Se  0  0  0  0  0  2  0  0  0  0  0  0
   -1.2251   -5.7502    1.7901 C   0  0  0  0  0  0  0  0  0  0  0  0
   -0.0202   -5.8386    5.2223 C   0  0  0  0  0  0  0  0  0  0  0  0
    0.5151   -7.3771    5.8603 S   0  0  0  0  0  0  0  0  0  0  0  0
    0.9708   -6.8458    7.4236 C   0  0  0  0  0  0  0  0  0  0  0  0
    0.6808   -5.4232    7.4045 C   0  0  0  0  0  0  0  0  0  0  0  0
    0.8655   -4.5332    8.4075 C   0  0  0  0  0  0  0  0  0  0  0  0
    0.5835   -3.2077    8.3522 C   0  0  0  0  0  0  0  0  0  0  0  0
    0.7150   -2.1034    9.3340 C   0  0  0  0  0  0  0  0  0  0  0  0
    2.0313   -1.4088    9.2683 C   0  0  0  0  0  0  0  0  0  0  0  0
   -0.0964   -2.9824    6.5846 Se  0  0  0  0  0  2  0  0  0  0  0  0
    0.2071   -5.1292    6.2487 C   0  0  0  0  0  0  0  0  0  0  0  0
    7.0842    6.7130   -3.1759 H   0  0  0  0  0  0  0  0  0  0  0  0
    4.2367    2.0152   -2.2558 H   0  0  0  0  0  0  0  0  0  0  0  0
    5.6659   -0.0109   -2.8479 H   0  0  0  0  0  0  0  0  0  0  0  0
    7.4440    0.3004   -3.0462 H   0  0  0  0  0  0  0  0  0  0  0  0
    6.0583   -0.6416   -0.7015 H   0  0  0  0  0  0  0  0  0  0  0  0
    7.8149   -0.5141   -0.9431 H   0  0  0  0  0  0  0  0  0  0  0  0
    6.8927    0.8929   -0.2887 H   0  0  0  0  0  0  0  0  0  0  0  0
    2.3592    7.2865   -2.3753 H   0  0  0  0  0  0  0  0  0  0  0  0
    1.5161   10.6407   -2.2430 H   0  0  0  0  0  0  0  0  0  0  0  0
    2.0248    9.2765   -3.2668 H   0  0  0  0  0  0  0  0  0  0  0  0
    2.2801    9.2533   -1.4395 H   0  0  0  0  0  0  0  0  0  0  0  0
   -3.6814    6.5357   -2.2109 H   0  0  0  0  0  0  0  0  0  0  0  0
   -3.1323    6.2653   -0.5076 H   0  0  0  0  0  0  0  0  0  0  0  0
   -3.9603    7.8209   -1.0009 H   0  0  0  0  0  0  0  0  0  0  0  0
   -1.8336    5.0557   -1.5178 H   0  0  0  0  0  0  0  0  0  0  0  0
   -2.1804    3.9018   -3.4838 H   0  0  0  0  0  0  0  0  0  0  0  0
   -3.3242    4.6873   -5.8876 H   0  0  0  0  0  0  0  0  0  0  0  0
   -4.7188    5.6356   -5.3129 H   0  0  0  0  0  0  0  0  0  0  0  0
   -3.2921    5.3963   -4.2720 H   0  0  0  0  0  0  0  0  0  0  0  0
   -5.8663   -0.7809   -3.9949 H   0  0  0  0  0  0  0  0  0  0  0  0
   -6.4773    0.1017   -2.4854 H   0  0  0  0  0  0  0  0  0  0  0  0
   -7.4450    0.0566   -3.9762 H   0  0  0  0  0  0  0  0  0  0  0  0
   -4.4701   -0.2086   -2.3031 H   0  0  0  0  0  0  0  0  0  0  0  0
   -3.4456   -5.7442   -0.5498 H   0  0  0  0  0  0  0  0  0  0  0  0
   -5.7079   -5.1337   -3.5593 H   0  0  0  0  0  0  0  0  0  0  0  0
   -5.3704   -6.3311   -2.3119 H   0  0  0  0  0  0  0  0  0  0  0  0
   -2.9762   -6.5258   -3.7950 H   0  0  0  0  0  0  0  0  0  0  0  0
   -4.5190   -7.3862   -4.3009 H   0  0  0  0  0  0  0  0  0  0  0  0
   -4.0466   -5.8562   -5.0504 H   0  0  0  0  0  0  0  0  0  0  0  0
    0.0064   -8.3839    3.5824 H   0  0  0  0  0  0  0  0  0  0  0  0
   -1.0218  -10.3009    0.4812 H   0  0  0  0  0  0  0  0  0  0  0  0
   -0.4889  -10.5792    2.2120 H   0  0  0  0  0  0  0  0  0  0  0  0
    1.2254  -11.1494    0.4260 H   0  0  0  0  0  0  0  0  0  0  0  0
    1.8329   -9.8998    1.5538 H   0  0  0  0  0  0  0  0  0  0  0  0
    1.1861   -9.3680   -0.0652 H   0  0  0  0  0  0  0  0  0  0  0  0
    1.3695   -7.4698    8.1881 H   0  0  0  0  0  0  0  0  0  0  0  0
    1.2947   -4.8157    9.4413 H   0  0  0  0  0  0  0  0  0  0  0  0
    0.6238   -2.5676   10.3447 H   0  0  0  0  0  0  0  0  0  0  0  0
   -0.1021   -1.3925    9.1969 H   0  0  0  0  0  0  0  0  0  0  0  0
    1.8846   -0.3685    9.6753 H   0  0  0  0  0  0  0  0  0  0  0  0
    2.8231   -1.8619    9.9011 H   0  0  0  0  0  0  0  0  0  0  0  0
    2.4065   -1.2653    8.2294 H   0  0  0  0  0  0  0  0  0  0  0  0
  1  2  1  0
  2  3  1  0
  3  4  2  0
  4  5  1  0
  5  6  2  0
  6  7  1  0
  7  8  1  0
  6  9  1  0
  9 10  1  0
  3 11  1  0
 11 12  1  0
 12 13  1  0
 13 14  2  0
 14 15  1  0
 15 16  1  0
 16 17  2  0
 17 18  1  0
 18 19  1  0
 17 20  1  0
 20 21  1  0
 21 22  1  0
 20 23  2  0
 13 24  1  0
 24 25  1  0
 25 26  1  0
 26 27  2  0
 27 28  1  0
 28 29  1  0
 29 30  2  0
 30 31  1  0
 31 32  1  0
 30 33  1  0
 33 34  1  0
 34 35  1  0
 33 36  2  0
 26 37  1  0
 37 38  1  0
 38 39  1  0
 39 40  2  0
 40 41  1  0
 41 42  2  0
 42 43  1  0
 43 44  1  0
 42 45  1  0
 45 46  1  0
 39 47  1  0
 47 48  1  0
 48 49  1  0
 49 50  2  0
 50 51  1  0
 51 52  2  0
 52 53  1  0
 53 54  1  0
 52 55  1  0
 55 56  1  0
 49 57  1  0
 57 58  1  0
 58 59  1  0
 59 60  2  0
 60 61  1  0
 61 62  2  0
 62 63  1  0
 63 64  1  0
 62 65  1  0
 65 66  1  0
 10  1  2  0
 15 11  2  0
 28 24  2  0
 46 37  2  0
 56 47  2  0
 66 57  2  0
 10  4  1  0
 23 14  1  0
 36 27  1  0
 46 40  1  0
 56 50  1  0
 66 60  1  0
  1 67  1  0
  5 68  1  0
  7 69  1  0
  7 70  1  0
  8 71  1  0
  8 72  1  0
  8 73  1  0
 16 74  1  0
 19 75  1  0
 19 76  1  0
 19 77  1  0
 22 78  1  0
 22 79  1  0
 22 80  1  0
 23 81  1  0
 29 82  1  0
 32 83  1  0
 32 84  1  0
 32 85  1  0
 35 86  1  0
 35 87  1  0
 35 88  1  0
 36 89  1  0
 41 90  1  0
 43 91  1  0
 43 92  1  0
 44 93  1  0
 44 94  1  0
 44 95  1  0
 51 96  1  0
 53 97  1  0
 53 98  1  0
 54 99  1  0
 54100  1  0
 54101  1  0
 59102  1  0
 61103  1  0
 63104  1  0
 63105  1  0
 64106  1  0
 64107  1  0
 64108  1  0
M  END

