
     RDKit          3D

356387  0  0  0  0  0  0  0  0999 V2000
    6.5301   -2.7092   -3.2265 C   0  0  0  0  0  0  0  0  0  0  0  0
    5.3209   -2.3332   -2.6525 C   0  0  0  0  0  0  0  0  0  0  0  0
    4.5180   -1.5527   -3.5130 C   0  0  0  0  0  0  0  0  0  0  0  0
    3.2066   -1.0569   -3.2452 C   0  0  0  0  0  0  0  0  0  0  0  0
    2.3667   -1.6251   -2.1594 C   0  0  0  0  0  0  0  0  0  0  0  0
    1.2373   -1.0054   -1.6058 C   0  0  0  0  0  0  0  0  0  0  0  0
    0.4356   -1.8922   -0.9379 C   0  0  0  0  0  0  0  0  0  0  0  0
   -1.0754   -1.8134   -0.2493 S   0  0  0  0  0  0  0  0  0  0  0  0
   -1.1225   -3.4975    0.1549 C   0  0  0  0  0  0  0  0  0  0  0  0
   -2.6330   -4.4287    0.7875 Si  0  0  0  0  0  4  0  0  0  0  0  0
   -2.4677   -6.2632    0.3955 C   0  0  0  0  0  0  0  0  0  0  0  0
   -3.4818   -7.1854    1.1558 C   0  0  0  0  0  0  0  0  0  0  0  0
   -4.0806   -3.7525   -0.1863 C   0  0  0  0  0  0  0  0  0  0  0  0
   -5.2805   -4.7111   -0.3831 C   0  0  0  0  0  0  0  0  0  0  0  0
   -2.8747   -4.0682    2.6659 C   0  0  0  0  0  0  0  0  0  0  0  0
   -3.7781   -2.9038    2.8426 C   0  0  0  0  0  0  0  0  0  0  0  0
    0.0802   -4.1183   -0.2548 C   0  0  0  0  0  0  0  0  0  0  0  0
    0.9195   -3.1892   -0.8813 C   0  0  0  0  0  0  0  0  0  0  0  0
    2.3395   -3.2845   -1.7400 S   0  0  0  0  0  0  0  0  0  0  0  0
    2.6764   -0.1373   -4.2078 C   0  0  0  0  0  0  0  0  0  0  0  0
    3.2475    0.0453   -5.5024 C   0  0  0  0  0  0  0  0  0  0  0  0
    4.4947   -0.5687   -5.8374 C   0  0  0  0  0  0  0  0  0  0  0  0
    4.9630   -0.7444   -7.2417 C   0  0  0  0  0  0  0  0  0  0  0  0
    4.9150    0.3874   -8.5612 S   0  0  0  0  0  0  0  0  0  0  0  0
    5.5234   -0.7412   -9.6464 C   0  0  0  0  0  0  0  0  0  0  0  0
    5.8341   -0.7241  -11.0011 C   0  0  0  0  0  0  0  0  0  0  0  0
    6.3206   -2.0008  -11.3903 C   0  0  0  0  0  0  0  0  0  0  0  0
    6.8197   -2.5548  -13.1632 Si  0  0  0  0  0  4  0  0  0  0  0  0
    5.5910   -1.8458  -14.4322 C   0  0  0  0  0  0  0  0  0  0  0  0
    4.3275   -1.3904  -13.7275 C   0  0  0  0  0  0  0  0  0  0  0  0
    8.6382   -2.0473  -13.4585 C   0  0  0  0  0  0  0  0  0  0  0  0
    9.4042   -3.0928  -14.2642 C   0  0  0  0  0  0  0  0  0  0  0  0
    6.7361   -4.4134  -13.2038 C   0  0  0  0  0  0  0  0  0  0  0  0
    7.6204   -5.0233  -12.0839 C   0  0  0  0  0  0  0  0  0  0  0  0
    6.3128   -3.0527  -10.0359 S   0  0  0  0  0  0  0  0  0  0  0  0
    5.7493   -1.9329   -9.0000 C   0  0  0  0  0  0  0  0  0  0  0  0
    5.4482   -1.9660   -7.6744 C   0  0  0  0  0  0  0  0  0  0  0  0
    5.1077   -1.3388   -4.7900 C   0  0  0  0  0  0  0  0  0  0  0  0
    6.6312   -2.0886   -4.7959 S   0  0  0  0  0  0  0  0  0  0  0  0
    2.4123    0.9302   -6.2867 C   0  0  0  0  0  0  0  0  0  0  0  0
    1.2106    1.3546   -5.6796 C   0  0  0  0  0  0  0  0  0  0  0  0
    1.1912    0.6506   -4.2021 S   0  0  0  0  0  0  0  0  0  0  0  0
    0.1716    2.3054   -6.1475 C   0  0  0  0  0  0  0  0  0  0  0  0
   -0.9863    2.8803   -5.1137 S   0  0  0  0  0  0  0  0  0  0  0  0
   -1.9271    3.7276   -6.1809 C   0  0  0  0  0  0  0  0  0  0  0  0
   -1.4027    3.4802   -7.4719 C   0  0  0  0  0  0  0  0  0  0  0  0
   -0.2202    2.6595   -7.4827 C   0  0  0  0  0  0  0  0  0  0  0  0
    0.3785    2.2313   -8.6573 C   0  0  0  0  0  0  0  0  0  0  0  0
   -0.2041    2.6551   -9.8796 C   0  0  0  0  0  0  0  0  0  0  0  0
    0.3556    2.2710  -11.0933 O   0  0  0  0  0  0  0  0  0  0  0  0
    1.4166    1.3509  -11.2362 C   0  0  0  0  0  0  0  0  0  0  0  0
   -1.3462    3.4649   -9.8554 C   0  0  0  0  0  0  0  0  0  0  0  0
   -1.9444    3.8511  -11.0941 O   0  0  0  0  0  0  0  0  0  0  0  0
   -3.1330    4.6033  -11.0884 C   0  0  0  0  0  0  0  0  0  0  0  0
   -1.9575    3.8831   -8.6933 C   0  0  0  0  0  0  0  0  0  0  0  0
   -3.2826    4.3030   -5.7879 C   0  0  0  0  0  0  0  0  0  0  0  0
   -4.2422    3.5054   -4.7297 S   0  0  0  0  0  0  0  0  0  0  0  0
   -5.3398    4.6564   -4.3235 C   0  0  0  0  0  0  0  0  0  0  0  0
   -4.9644    5.8566   -5.0183 C   0  0  0  0  0  0  0  0  0  0  0  0
   -3.7922    5.6252   -5.8164 C   0  0  0  0  0  0  0  0  0  0  0  0
   -3.1486    6.6891   -6.5067 C   0  0  0  0  0  0  0  0  0  0  0  0
   -3.7040    7.9761   -6.3642 C   0  0  0  0  0  0  0  0  0  0  0  0
   -3.1079    9.0547   -7.0182 O   0  0  0  0  0  0  0  0  0  0  0  0
   -1.9702    8.8810   -7.8498 C   0  0  0  0  0  0  0  0  0  0  0  0
   -4.9054    8.1593   -5.6245 C   0  0  0  0  0  0  0  0  0  0  0  0
   -5.2976    9.5628   -5.4962 O   0  0  0  0  0  0  0  0  0  0  0  0
   -6.5723   10.1307   -5.8332 C   0  0  0  0  0  0  0  0  0  0  0  0
   -5.5626    7.1485   -4.9457 C   0  0  0  0  0  0  0  0  0  0  0  0
   -6.2246    4.4718   -3.1227 C   0  0  0  0  0  0  0  0  0  0  0  0
   -6.2048    5.2387   -1.9182 C   0  0  0  0  0  0  0  0  0  0  0  0
   -6.2983    4.4558   -0.6919 C   0  0  0  0  0  0  0  0  0  0  0  0
   -5.9953    4.8681    0.6655 C   0  0  0  0  0  0  0  0  0  0  0  0
   -6.3754    6.2012    1.2105 C   0  0  0  0  0  0  0  0  0  0  0  0
   -7.6822    6.6962    1.0993 C   0  0  0  0  0  0  0  0  0  0  0  0
   -7.9390    7.5174    2.1956 C   0  0  0  0  0  0  0  0  0  0  0  0
   -9.3581    8.1911    2.7852 S   0  0  0  0  0  0  0  0  0  0  0  0
   -8.5623    8.8121    4.2079 C   0  0  0  0  0  0  0  0  0  0  0  0
   -9.4478    9.5172    5.7303 Si  0  0  0  0  0  4  0  0  0  0  0  0
  -11.0959    8.6518    5.9395 C   0  0  0  0  0  0  0  0  0  0  0  0
  -10.9469    7.2916    6.6080 C   0  0  0  0  0  0  0  0  0  0  0  0
   -8.4079    9.1468    7.3103 C   0  0  0  0  0  0  0  0  0  0  0  0
   -8.3391   10.2881    8.3266 C   0  0  0  0  0  0  0  0  0  0  0  0
   -9.8140   11.3992    5.6487 C   0  0  0  0  0  0  0  0  0  0  0  0
  -10.8094   11.8280    6.7202 C   0  0  0  0  0  0  0  0  0  0  0  0
   -7.1960    8.4877    4.1946 C   0  0  0  0  0  0  0  0  0  0  0  0
   -6.9034    7.7439    3.0798 C   0  0  0  0  0  0  0  0  0  0  0  0
   -5.5707    6.9301    2.5772 S   0  0  0  0  0  0  0  0  0  0  0  0
   -5.5049    3.8474    1.5157 C   0  0  0  0  0  0  0  0  0  0  0  0
   -5.6727    2.4707    1.2355 C   0  0  0  0  0  0  0  0  0  0  0  0
   -6.3418    2.0510    0.0171 C   0  0  0  0  0  0  0  0  0  0  0  0
   -6.8422    0.6928   -0.1821 C   0  0  0  0  0  0  0  0  0  0  0  0
   -7.7066   -0.1771    0.9866 S   0  0  0  0  0  0  0  0  0  0  0  0
   -8.2888   -1.3311   -0.0897 C   0  0  0  0  0  0  0  0  0  0  0  0
   -9.1578   -2.4196    0.0219 C   0  0  0  0  0  0  0  0  0  0  0  0
   -9.3278   -2.9961   -1.2553 C   0  0  0  0  0  0  0  0  0  0  0  0
  -10.5662   -4.3348   -1.6830 Si  0  0  0  0  0  4  0  0  0  0  0  0
  -10.1689   -5.0234   -3.3878 C   0  0  0  0  0  0  0  0  0  0  0  0
  -10.4326   -6.5169   -3.4430 C   0  0  0  0  0  0  0  0  0  0  0  0
  -10.6657   -5.7751   -0.4017 C   0  0  0  0  0  0  0  0  0  0  0  0
   -9.8728   -5.5107    0.8529 C   0  0  0  0  0  0  0  0  0  0  0  0
  -12.2468   -3.5523   -1.7643 C   0  0  0  0  0  0  0  0  0  0  0  0
  -13.1943   -4.1837   -2.7876 C   0  0  0  0  0  0  0  0  0  0  0  0
   -8.4689   -2.1277   -2.4304 S   0  0  0  0  0  0  0  0  0  0  0  0
   -7.8129   -1.0365   -1.3616 C   0  0  0  0  0  0  0  0  0  0  0  0
   -6.9639    0.0486   -1.4360 C   0  0  0  0  0  0  0  0  0  0  0  0
   -6.4141    3.0756   -0.9937 C   0  0  0  0  0  0  0  0  0  0  0  0
   -6.5177    2.9539   -2.6470 S   0  0  0  0  0  0  0  0  0  0  0  0
   -4.9461    1.6467    2.1427 C   0  0  0  0  0  0  0  0  0  0  0  0
   -4.2106    2.3475    3.1517 C   0  0  0  0  0  0  0  0  0  0  0  0
   -4.4837    3.9804    2.8267 S   0  0  0  0  0  0  0  0  0  0  0  0
   -2.8211    1.8927    3.4587 C   0  0  0  0  0  0  0  0  0  0  0  0
   -2.3419    1.1687    4.5925 C   0  0  0  0  0  0  0  0  0  0  0  0
   -0.9495    0.7937    4.5214 C   0  0  0  0  0  0  0  0  0  0  0  0
   -0.1143   -0.0227    5.3727 C   0  0  0  0  0  0  0  0  0  0  0  0
   -0.4874   -0.4312    6.8044 C   0  0  0  0  0  0  0  0  0  0  0  0
   -1.4564    0.1664    7.6626 C   0  0  0  0  0  0  0  0  0  0  0  0
   -1.1914   -0.2569    8.9745 C   0  0  0  0  0  0  0  0  0  0  0  0
   -1.8664    0.0662   10.4618 S   0  0  0  0  0  0  0  0  0  0  0  0
   -0.7179   -0.9499   11.3303 C   0  0  0  0  0  0  0  0  0  0  0  0
   -0.5377   -1.2129   13.2041 Si  0  0  0  0  0  4  0  0  0  0  0  0
   -0.1786   -3.0821   13.4925 C   0  0  0  0  0  0  0  0  0  0  0  0
    0.0236   -3.4472   14.9646 C   0  0  0  0  0  0  0  0  0  0  0  0
    0.9315   -0.2552   13.7971 C   0  0  0  0  0  0  0  0  0  0  0  0
    2.1988   -0.8011   13.1687 C   0  0  0  0  0  0  0  0  0  0  0  0
   -2.0956   -0.6765   14.1229 C   0  0  0  0  0  0  0  0  0  0  0  0
   -3.2716   -1.4436   13.5702 C   0  0  0  0  0  0  0  0  0  0  0  0
    0.2166   -1.5186   10.4277 C   0  0  0  0  0  0  0  0  0  0  0  0
   -0.1045   -1.1119    9.1528 C   0  0  0  0  0  0  0  0  0  0  0  0
    0.5192   -1.4459    7.7278 S   0  0  0  0  0  0  0  0  0  0  0  0
    1.1512   -0.4155    4.8084 C   0  0  0  0  0  0  0  0  0  0  0  0
    1.6679    0.1179    3.5953 C   0  0  0  0  0  0  0  0  0  0  0  0
    0.9063    1.0436    2.8099 C   0  0  0  0  0  0  0  0  0  0  0  0
    1.4984    1.8662    1.7381 C   0  0  0  0  0  0  0  0  0  0  0  0
    2.4734    1.3859    0.4016 S   0  0  0  0  0  0  0  0  0  0  0  0
    2.7250    2.9897   -0.1279 C   0  0  0  0  0  0  0  0  0  0  0  0
    3.4646    3.5604   -1.1623 C   0  0  0  0  0  0  0  0  0  0  0  0
    3.3468    4.9806   -1.0865 C   0  0  0  0  0  0  0  0  0  0  0  0
    4.2109    6.2300   -2.1927 Si  0  0  0  0  0  4  0  0  0  0  0  0
    4.7526    5.4321   -3.8477 C   0  0  0  0  0  0  0  0  0  0  0  0
    3.6902    5.6549   -4.9113 C   0  0  0  0  0  0  0  0  0  0  0  0
    2.9884    7.6390   -2.4839 C   0  0  0  0  0  0  0  0  0  0  0  0
    3.6709    8.9206   -3.0103 C   0  0  0  0  0  0  0  0  0  0  0  0
    5.6675    6.9407   -1.2731 C   0  0  0  0  0  0  0  0  0  0  0  0
    5.1431    7.6907   -0.0642 C   0  0  0  0  0  0  0  0  0  0  0  0
    2.3402    5.4102    0.2559 S   0  0  0  0  0  0  0  0  0  0  0  0
    2.0604    3.8329    0.7306 C   0  0  0  0  0  0  0  0  0  0  0  0
    1.3697    3.2617    1.7718 C   0  0  0  0  0  0  0  0  0  0  0  0
   -0.4162    1.3221    3.3147 C   0  0  0  0  0  0  0  0  0  0  0  0
   -1.5606    2.1811    2.4594 S   0  0  0  0  0  0  0  0  0  0  0  0
    2.9156   -0.4728    3.2174 C   0  0  0  0  0  0  0  0  0  0  0  0
    3.3752   -1.4684    4.0644 C   0  0  0  0  0  0  0  0  0  0  0  0
    2.2712   -1.6191    5.3277 S   0  0  0  0  0  0  0  0  0  0  0  0
    4.4694   -2.3549    3.7386 C   0  0  0  0  0  0  0  0  0  0  0  0
    5.6404   -2.5076    4.4614 C   0  0  0  0  0  0  0  0  0  0  0  0
    6.7025   -3.2589    3.8046 C   0  0  0  0  0  0  0  0  0  0  0  0
    8.0030   -3.4553    4.2590 C   0  0  0  0  0  0  0  0  0  0  0  0
    8.5468   -2.8737    5.5298 C   0  0  0  0  0  0  0  0  0  0  0  0
    9.5388   -3.4520    6.2999 C   0  0  0  0  0  0  0  0  0  0  0  0
    9.7764   -2.7311    7.4360 C   0  0  0  0  0  0  0  0  0  0  0  0
   10.7849   -2.8602    8.7649 S   0  0  0  0  0  0  0  0  0  0  0  0
   10.1670   -1.4421    9.5438 C   0  0  0  0  0  0  0  0  0  0  0  0
   10.6673   -0.7497   11.2061 Si  0  0  0  0  0  4  0  0  0  0  0  0
   12.0837   -1.7137   11.9878 C   0  0  0  0  0  0  0  0  0  0  0  0
   11.7040   -3.1950   12.0485 C   0  0  0  0  0  0  0  0  0  0  0  0
   11.1823    1.0393   10.9172 C   0  0  0  0  0  0  0  0  0  0  0  0
    9.9901    1.9529   11.1642 C   0  0  0  0  0  0  0  0  0  0  0  0
    9.1726   -0.8282   12.4171 C   0  0  0  0  0  0  0  0  0  0  0  0
    7.8783   -1.1080   11.6953 C   0  0  0  0  0  0  0  0  0  0  0  0
    9.1422   -0.8659    8.7599 C   0  0  0  0  0  0  0  0  0  0  0  0
    8.9713   -1.6087    7.6061 C   0  0  0  0  0  0  0  0  0  0  0  0
    7.9964   -1.4318    6.3027 S   0  0  0  0  0  0  0  0  0  0  0  0
    8.8713   -4.2436    3.3785 C   0  0  0  0  0  0  0  0  0  0  0  0
    8.3838   -4.7958    2.1657 C   0  0  0  0  0  0  0  0  0  0  0  0
    7.0585   -4.6072    1.7342 C   0  0  0  0  0  0  0  0  0  0  0  0
    6.4623   -5.2614    0.5135 C   0  0  0  0  0  0  0  0  0  0  0  0
    7.2548   -5.6497   -0.9914 S   0  0  0  0  0  0  0  0  0  0  0  0
    5.9005   -6.4075   -1.6362 C   0  0  0  0  0  0  0  0  0  0  0  0
    5.6387   -7.0250   -2.8565 C   0  0  0  0  0  0  0  0  0  0  0  0
    4.2954   -7.4797   -2.8580 C   0  0  0  0  0  0  0  0  0  0  0  0
    3.4107   -8.3269   -4.2570 Si  0  0  0  0  0  4  0  0  0  0  0  0
    2.3975   -9.7508   -3.5533 C   0  0  0  0  0  0  0  0  0  0  0  0
    0.9592   -9.3284   -3.3025 C   0  0  0  0  0  0  0  0  0  0  0  0
    2.2444   -7.1346   -5.1703 C   0  0  0  0  0  0  0  0  0  0  0  0
    2.9655   -5.9374   -5.7526 C   0  0  0  0  0  0  0  0  0  0  0  0
    4.6039   -9.0436   -5.5606 C   0  0  0  0  0  0  0  0  0  0  0  0
    3.8155   -9.4351   -6.8467 C   0  0  0  0  0  0  0  0  0  0  0  0
    3.5161   -7.0796   -1.3896 S   0  0  0  0  0  0  0  0  0  0  0  0
    4.8575   -6.3542   -0.7180 C   0  0  0  0  0  0  0  0  0  0  0  0
    5.1625   -5.7418    0.4850 C   0  0  0  0  0  0  0  0  0  0  0  0
    6.2045   -3.7828    2.5969 C   0  0  0  0  0  0  0  0  0  0  0  0
    4.6308   -3.2195    2.2899 S   0  0  0  0  0  0  0  0  0  0  0  0
    9.4218   -5.5338    1.5043 C   0  0  0  0  0  0  0  0  0  0  0  0
   10.6359   -5.5097    2.1279 C   0  0  0  0  0  0  0  0  0  0  0  0
   10.4811   -4.6084    3.5148 S   0  0  0  0  0  0  0  0  0  0  0  0
    7.2878   -3.2808   -2.7489 H   0  0  0  0  0  0  0  0  0  0  0  0
    5.0547   -2.5774   -1.6655 H   0  0  0  0  0  0  0  0  0  0  0  0
    1.0100    0.0268   -1.7582 H   0  0  0  0  0  0  0  0  0  0  0  0
   -2.5680   -6.3773   -0.6970 H   0  0  0  0  0  0  0  0  0  0  0  0
   -1.4356   -6.5621    0.6839 H   0  0  0  0  0  0  0  0  0  0  0  0
   -4.2467   -7.5061    0.4175 H   0  0  0  0  0  0  0  0  0  0  0  0
   -2.9525   -8.0767    1.4745 H   0  0  0  0  0  0  0  0  0  0  0  0
   -3.9780   -6.6994    2.0063 H   0  0  0  0  0  0  0  0  0  0  0  0
   -4.4517   -2.7798    0.2302 H   0  0  0  0  0  0  0  0  0  0  0  0
   -3.7083   -3.5153   -1.1933 H   0  0  0  0  0  0  0  0  0  0  0  0
   -6.1656   -4.1546   -0.6929 H   0  0  0  0  0  0  0  0  0  0  0  0
   -5.0084   -5.3969   -1.2102 H   0  0  0  0  0  0  0  0  0  0  0  0
   -5.4509   -5.2900    0.5469 H   0  0  0  0  0  0  0  0  0  0  0  0
   -1.8773   -3.8220    3.1182 H   0  0  0  0  0  0  0  0  0  0  0  0
   -3.2949   -4.9588    3.1819 H   0  0  0  0  0  0  0  0  0  0  0  0
   -4.8302   -3.2003    2.5684 H   0  0  0  0  0  0  0  0  0  0  0  0
   -3.4794   -2.0473    2.2339 H   0  0  0  0  0  0  0  0  0  0  0  0
   -3.7637   -2.6009    3.8879 H   0  0  0  0  0  0  0  0  0  0  0  0
    0.2407   -5.1772   -0.1600 H   0  0  0  0  0  0  0  0  0  0  0  0
    5.7430    0.0953  -11.7070 H   0  0  0  0  0  0  0  0  0  0  0  0
    6.0566   -0.9816  -14.9629 H   0  0  0  0  0  0  0  0  0  0  0  0
    5.3954   -2.6666  -15.1345 H   0  0  0  0  0  0  0  0  0  0  0  0
    3.4829   -1.5126  -14.3983 H   0  0  0  0  0  0  0  0  0  0  0  0
    4.3968   -0.3359  -13.4574 H   0  0  0  0  0  0  0  0  0  0  0  0
    4.1431   -1.9897  -12.8213 H   0  0  0  0  0  0  0  0  0  0  0  0
    8.6565   -1.0643  -13.9919 H   0  0  0  0  0  0  0  0  0  0  0  0
    9.1072   -1.9629  -12.4622 H   0  0  0  0  0  0  0  0  0  0  0  0
   10.4192   -2.7472  -14.4231 H   0  0  0  0  0  0  0  0  0  0  0  0
    8.8945   -3.2745  -15.2230 H   0  0  0  0  0  0  0  0  0  0  0  0
    9.4734   -4.0413  -13.7077 H   0  0  0  0  0  0  0  0  0  0  0  0
    7.0422   -4.8077  -14.2036 H   0  0  0  0  0  0  0  0  0  0  0  0
    5.6756   -4.6963  -13.0185 H   0  0  0  0  0  0  0  0  0  0  0  0
    8.1963   -4.2086  -11.6045 H   0  0  0  0  0  0  0  0  0  0  0  0
    8.3213   -5.7390  -12.4977 H   0  0  0  0  0  0  0  0  0  0  0  0
    7.0119   -5.5116  -11.3351 H   0  0  0  0  0  0  0  0  0  0  0  0
    5.4939   -2.7978   -7.0384 H   0  0  0  0  0  0  0  0  0  0  0  0
    2.7452    1.2276   -7.2649 H   0  0  0  0  0  0  0  0  0  0  0  0
    1.2079    1.6039   -8.6391 H   0  0  0  0  0  0  0  0  0  0  0  0
    1.7266    1.3413  -12.3142 H   0  0  0  0  0  0  0  0  0  0  0  0
    1.1192    0.3408  -10.9167 H   0  0  0  0  0  0  0  0  0  0  0  0
    2.2993    1.6927  -10.5952 H   0  0  0  0  0  0  0  0  0  0  0  0
   -3.5130    4.7845  -12.1040 H   0  0  0  0  0  0  0  0  0  0  0  0
   -2.9226    5.5891  -10.5977 H   0  0  0  0  0  0  0  0  0  0  0  0
   -3.9015    4.0648  -10.5006 H   0  0  0  0  0  0  0  0  0  0  0  0
   -2.8184    4.4988   -8.6034 H   0  0  0  0  0  0  0  0  0  0  0  0
   -2.2851    6.5078   -7.0719 H   0  0  0  0  0  0  0  0  0  0  0  0
   -2.2429    8.2034   -8.6846 H   0  0  0  0  0  0  0  0  0  0  0  0
   -1.1426    8.4338   -7.2229 H   0  0  0  0  0  0  0  0  0  0  0  0
   -1.6891    9.8625   -8.2148 H   0  0  0  0  0  0  0  0  0  0  0  0
   -7.2799    9.9180   -4.9510 H   0  0  0  0  0  0  0  0  0  0  0  0
   -6.4314   11.2062   -5.8237 H   0  0  0  0  0  0  0  0  0  0  0  0
   -7.0479    9.7332   -6.7125 H   0  0  0  0  0  0  0  0  0  0  0  0
   -6.4157    7.2910   -4.3583 H   0  0  0  0  0  0  0  0  0  0  0  0
   -6.0362    6.3021   -1.8440 H   0  0  0  0  0  0  0  0  0  0  0  0
   -8.3532    6.2915    0.3816 H   0  0  0  0  0  0  0  0  0  0  0  0
  -11.5359    8.5423    4.9431 H   0  0  0  0  0  0  0  0  0  0  0  0
  -11.8198    9.2678    6.5279 H   0  0  0  0  0  0  0  0  0  0  0  0
  -10.0107    6.7909    6.2560 H   0  0  0  0  0  0  0  0  0  0  0  0
  -10.9241    7.4572    7.7053 H   0  0  0  0  0  0  0  0  0  0  0  0
  -11.8055    6.6929    6.3689 H   0  0  0  0  0  0  0  0  0  0  0  0
   -8.7893    8.2632    7.8236 H   0  0  0  0  0  0  0  0  0  0  0  0
   -7.3834    8.9099    6.9829 H   0  0  0  0  0  0  0  0  0  0  0  0
   -9.2649   10.3566    8.8989 H   0  0  0  0  0  0  0  0  0  0  0  0
   -7.5255   10.0951    9.0290 H   0  0  0  0  0  0  0  0  0  0  0  0
   -8.1479   11.2458    7.8044 H   0  0  0  0  0  0  0  0  0  0  0  0
  -10.2228   11.5860    4.6463 H   0  0  0  0  0  0  0  0  0  0  0  0
   -8.8545   11.9634    5.7336 H   0  0  0  0  0  0  0  0  0  0  0  0
  -10.9365   11.0474    7.4772 H   0  0  0  0  0  0  0  0  0  0  0  0
  -11.7844   11.9948    6.2477 H   0  0  0  0  0  0  0  0  0  0  0  0
  -10.4683   12.7208    7.2242 H   0  0  0  0  0  0  0  0  0  0  0  0
   -6.5326    8.7189    5.0036 H   0  0  0  0  0  0  0  0  0  0  0  0
   -9.6525   -2.7858    0.9256 H   0  0  0  0  0  0  0  0  0  0  0  0
   -9.1041   -4.8301   -3.6648 H   0  0  0  0  0  0  0  0  0  0  0  0
  -10.7776   -4.5277   -4.1321 H   0  0  0  0  0  0  0  0  0  0  0  0
  -11.3569   -6.7673   -2.9086 H   0  0  0  0  0  0  0  0  0  0  0  0
  -10.5197   -6.8511   -4.4867 H   0  0  0  0  0  0  0  0  0  0  0  0
   -9.5840   -7.0772   -2.9715 H   0  0  0  0  0  0  0  0  0  0  0  0
  -11.7160   -5.9497   -0.1776 H   0  0  0  0  0  0  0  0  0  0  0  0
  -10.2421   -6.6848   -0.8457 H   0  0  0  0  0  0  0  0  0  0  0  0
  -10.4788   -4.8462    1.5044 H   0  0  0  0  0  0  0  0  0  0  0  0
   -8.8777   -5.0598    0.5905 H   0  0  0  0  0  0  0  0  0  0  0  0
   -9.6905   -6.4610    1.3839 H   0  0  0  0  0  0  0  0  0  0  0  0
  -12.1253   -2.4906   -2.1025 H   0  0  0  0  0  0  0  0  0  0  0  0
  -12.7267   -3.5804   -0.7538 H   0  0  0  0  0  0  0  0  0  0  0  0
  -12.8505   -3.9254   -3.8172 H   0  0  0  0  0  0  0  0  0  0  0  0
  -14.2070   -3.7827   -2.6953 H   0  0  0  0  0  0  0  0  0  0  0  0
  -13.2585   -5.2998   -2.6666 H   0  0  0  0  0  0  0  0  0  0  0  0
   -6.5312    0.4067   -2.3379 H   0  0  0  0  0  0  0  0  0  0  0  0
   -4.8962    0.5883    2.0353 H   0  0  0  0  0  0  0  0  0  0  0  0
   -2.9609    0.8095    5.4052 H   0  0  0  0  0  0  0  0  0  0  0  0
   -2.1907    0.8969    7.3838 H   0  0  0  0  0  0  0  0  0  0  0  0
    0.7469   -3.3079   12.9348 H   0  0  0  0  0  0  0  0  0  0  0  0
   -1.0025   -3.6736   13.0628 H   0  0  0  0  0  0  0  0  0  0  0  0
    0.1632   -2.5404   15.6059 H   0  0  0  0  0  0  0  0  0  0  0  0
   -0.8682   -3.9476   15.3259 H   0  0  0  0  0  0  0  0  0  0  0  0
    0.9111   -4.0727   15.0972 H   0  0  0  0  0  0  0  0  0  0  0  0
    0.9881   -0.2877   14.8991 H   0  0  0  0  0  0  0  0  0  0  0  0
    0.7792    0.8042   13.4902 H   0  0  0  0  0  0  0  0  0  0  0  0
    3.0776   -0.2054   13.4945 H   0  0  0  0  0  0  0  0  0  0  0  0
    2.3380   -1.8527   13.4752 H   0  0  0  0  0  0  0  0  0  0  0  0
    2.1452   -0.7493   12.0807 H   0  0  0  0  0  0  0  0  0  0  0  0
   -1.9806   -0.8907   15.2123 H   0  0  0  0  0  0  0  0  0  0  0  0
   -2.2235    0.3840   13.9341 H   0  0  0  0  0  0  0  0  0  0  0  0
   -4.2134   -0.9653   13.8978 H   0  0  0  0  0  0  0  0  0  0  0  0
   -3.2449   -2.5037   13.9210 H   0  0  0  0  0  0  0  0  0  0  0  0
   -3.2934   -1.4361   12.4674 H   0  0  0  0  0  0  0  0  0  0  0  0
    1.0078   -2.1573   10.7392 H   0  0  0  0  0  0  0  0  0  0  0  0
    4.0275    3.0783   -1.9400 H   0  0  0  0  0  0  0  0  0  0  0  0
    5.7245    5.8475   -4.1593 H   0  0  0  0  0  0  0  0  0  0  0  0
    4.8432    4.3537   -3.6733 H   0  0  0  0  0  0  0  0  0  0  0  0
    2.6697    5.5498   -4.5134 H   0  0  0  0  0  0  0  0  0  0  0  0
    3.7962    4.8780   -5.7121 H   0  0  0  0  0  0  0  0  0  0  0  0
    3.7953    6.6808   -5.3378 H   0  0  0  0  0  0  0  0  0  0  0  0
    2.1956    7.3608   -3.1963 H   0  0  0  0  0  0  0  0  0  0  0  0
    2.5781    7.8779   -1.5070 H   0  0  0  0  0  0  0  0  0  0  0  0
    4.7796    8.9353   -2.8669 H   0  0  0  0  0  0  0  0  0  0  0  0
    3.4995    9.0177   -4.1039 H   0  0  0  0  0  0  0  0  0  0  0  0
    3.2687    9.8156   -2.5124 H   0  0  0  0  0  0  0  0  0  0  0  0
    6.2628    7.6435   -1.9136 H   0  0  0  0  0  0  0  0  0  0  0  0
    6.3739    6.1323   -0.9848 H   0  0  0  0  0  0  0  0  0  0  0  0
    5.9789    8.0878    0.5575 H   0  0  0  0  0  0  0  0  0  0  0  0
    4.5561    6.9846    0.5489 H   0  0  0  0  0  0  0  0  0  0  0  0
    4.5292    8.5237   -0.3964 H   0  0  0  0  0  0  0  0  0  0  0  0
    0.8186    3.7124    2.5226 H   0  0  0  0  0  0  0  0  0  0  0  0
    3.4181   -0.1880    2.3629 H   0  0  0  0  0  0  0  0  0  0  0  0
    5.7418   -2.0682    5.4110 H   0  0  0  0  0  0  0  0  0  0  0  0
   10.0066   -4.3795    6.0411 H   0  0  0  0  0  0  0  0  0  0  0  0
   12.2488   -1.3239   12.9840 H   0  0  0  0  0  0  0  0  0  0  0  0
   12.9868   -1.5780   11.3645 H   0  0  0  0  0  0  0  0  0  0  0  0
   10.6163   -3.3592   12.0172 H   0  0  0  0  0  0  0  0  0  0  0  0
   12.0466   -3.5898   13.0203 H   0  0  0  0  0  0  0  0  0  0  0  0
   12.1800   -3.7641   11.2158 H   0  0  0  0  0  0  0  0  0  0  0  0
   12.0486    1.3318   11.5935 H   0  0  0  0  0  0  0  0  0  0  0  0
   11.4775    1.1325    9.8713 H   0  0  0  0  0  0  0  0  0  0  0  0
   10.1672    2.9447   10.7330 H   0  0  0  0  0  0  0  0  0  0  0  0
    9.8037    2.0573   12.2499 H   0  0  0  0  0  0  0  0  0  0  0  0
    9.0850    1.5353   10.6941 H   0  0  0  0  0  0  0  0  0  0  0  0
    9.0512    0.0891   12.9792 H   0  0  0  0  0  0  0  0  0  0  0  0
    9.3571   -1.6592   13.1249 H   0  0  0  0  0  0  0  0  0  0  0  0
    7.1214   -1.4524   12.4084 H   0  0  0  0  0  0  0  0  0  0  0  0
    8.0166   -1.9072   10.9351 H   0  0  0  0  0  0  0  0  0  0  0  0
    7.5189   -0.1947   11.1663 H   0  0  0  0  0  0  0  0  0  0  0  0
    8.6064    0.0283    9.0599 H   0  0  0  0  0  0  0  0  0  0  0  0
    6.3099   -7.1513   -3.6975 H   0  0  0  0  0  0  0  0  0  0  0  0
    2.8411  -10.0415   -2.5988 H   0  0  0  0  0  0  0  0  0  0  0  0
    2.4297  -10.6423   -4.2352 H   0  0  0  0  0  0  0  0  0  0  0  0
    0.4020   -9.2007   -4.2602 H   0  0  0  0  0  0  0  0  0  0  0  0
    0.9531   -8.3882   -2.7110 H   0  0  0  0  0  0  0  0  0  0  0  0
    0.4475  -10.1012   -2.7236 H   0  0  0  0  0  0  0  0  0  0  0  0
    1.7025   -7.6592   -5.9477 H   0  0  0  0  0  0  0  0  0  0  0  0
    1.5094   -6.7699   -4.4211 H   0  0  0  0  0  0  0  0  0  0  0  0
    2.2885   -5.1204   -5.9430 H   0  0  0  0  0  0  0  0  0  0  0  0
    3.3167   -6.2244   -6.7634 H   0  0  0  0  0  0  0  0  0  0  0  0
    3.8724   -5.6574   -5.1371 H   0  0  0  0  0  0  0  0  0  0  0  0
    5.3829   -8.2967   -5.8052 H   0  0  0  0  0  0  0  0  0  0  0  0
    5.0845   -9.9484   -5.1391 H   0  0  0  0  0  0  0  0  0  0  0  0
    2.9331  -10.0055   -6.5505 H   0  0  0  0  0  0  0  0  0  0  0  0
    3.5661   -8.5376   -7.4513 H   0  0  0  0  0  0  0  0  0  0  0  0
    4.4440  -10.1314   -7.4380 H   0  0  0  0  0  0  0  0  0  0  0  0
    4.5087   -5.6452    1.3147 H   0  0  0  0  0  0  0  0  0  0  0  0
    9.2500   -6.0446    0.6239 H   0  0  0  0  0  0  0  0  0  0  0  0
   11.5111   -6.0060    1.7576 H   0  0  0  0  0  0  0  0  0  0  0  0
  1  2  2  0
  2  3  1  0
  3  4  2  0
  4  5  1  0
  5  6  2  0
  6  7  1  0
  7  8  1  0
  8  9  1  0
  9 10  1  0
 10 11  1  0
 11 12  1  0
 10 13  1  0
 13 14  1  0
 10 15  1  0
 15 16  1  0
  9 17  2  0
 17 18  1  0
 18 19  1  0
  4 20  1  0
 20 21  2  0
 21 22  1  0
 22 23  1  0
 23 24  1  0
 24 25  1  0
 25 26  1  0
 26 27  2  0
 27 28  1  0
 28 29  1  0
 29 30  1  0
 28 31  1  0
 31 32  1  0
 28 33  1  0
 33 34  1  0
 27 35  1  0
 35 36  1  0
 36 37  1  0
 22 38  2  0
 38 39  1  0
 21 40  1  0
 40 41  2  0
 41 42  1  0
 41 43  1  0
 43 44  1  0
 44 45  1  0
 45 46  2  0
 46 47  1  0
 47 48  1  0
 48 49  2  0
 49 50  1  0
 50 51  1  0
 49 52  1  0
 52 53  1  0
 53 54  1  0
 52 55  2  0
 45 56  1  0
 56 57  1  0
 57 58  1  0
 58 59  2  0
 59 60  1  0
 60 61  1  0
 61 62  2  0
 62 63  1  0
 63 64  1  0
 62 65  1  0
 65 66  1  0
 66 67  1  0
 65 68  2  0
 58 69  1  0
 69 70  2  0
 70 71  1  0
 71 72  2  0
 72 73  1  0
 73 74  2  0
 74 75  1  0
 75 76  1  0
 76 77  1  0
 77 78  1  0
 78 79  1  0
 79 80  1  0
 78 81  1  0
 81 82  1  0
 78 83  1  0
 83 84  1  0
 77 85  2  0
 85 86  1  0
 86 87  1  0
 72 88  1  0
 88 89  2  0
 89 90  1  0
 90 91  1  0
 91 92  1  0
 92 93  1  0
 93 94  1  0
 94 95  2  0
 95 96  1  0
 96 97  1  0
 97 98  1  0
 96 99  1  0
 99100  1  0
 96101  1  0
101102  1  0
 95103  1  0
103104  1  0
104105  1  0
 90106  2  0
106107  1  0
 89108  1  0
108109  2  0
109110  1  0
109111  1  0
111112  2  0
112113  1  0
113114  2  0
114115  1  0
115116  2  0
116117  1  0
117118  1  0
118119  1  0
119120  1  0
120121  1  0
121122  1  0
120123  1  0
123124  1  0
120125  1  0
125126  1  0
119127  2  0
127128  1  0
128129  1  0
114130  1  0
130131  2  0
131132  1  0
132133  1  0
133134  1  0
134135  1  0
135136  1  0
136137  2  0
137138  1  0
138139  1  0
139140  1  0
138141  1  0
141142  1  0
138143  1  0
143144  1  0
137145  1  0
145146  1  0
146147  1  0
132148  2  0
148149  1  0
131150  1  0
150151  2  0
151152  1  0
151153  1  0
153154  2  0
154155  1  0
155156  2  0
156157  1  0
157158  2  0
158159  1  0
159160  1  0
160161  1  0
161162  1  0
162163  1  0
163164  1  0
162165  1  0
165166  1  0
162167  1  0
167168  1  0
161169  2  0
169170  1  0
170171  1  0
156172  1  0
172173  2  0
173174  1  0
174175  1  0
175176  1  0
176177  1  0
177178  1  0
178179  2  0
179180  1  0
180181  1  0
181182  1  0
180183  1  0
183184  1  0
180185  1  0
185186  1  0
179187  1  0
187188  1  0
188189  1  0
174190  2  0
190191  1  0
173192  1  0
192193  2  0
193194  1  0
 39  1  1  0
 47 43  2  0
 60 56  2  0
107 69  1  0
149111  1  0
191153  1  0
 38  3  1  0
 55 46  1  0
 68 59  1  0
106 71  1  0
148113  1  0
190155  1  0
 19  5  1  0
 42 20  1  0
 87 73  1  0
110 88  1  0
129115  1  0
152130  1  0
171157  1  0
194172  1  0
 18  7  2  0
 37 23  2  0
 86 75  2  0
105 91  2  0
128117  2  0
147133  2  0
170159  2  0
189175  2  0
 36 25  2  0
104 93  2  0
146135  2  0
188177  2  0
  1195  1  0
  2196  1  0
  6197  1  0
 11198  1  0
 11199  1  0
 12200  1  0
 12201  1  0
 12202  1  0
 13203  1  0
 13204  1  0
 14205  1  0
 14206  1  0
 14207  1  0
 15208  1  0
 15209  1  0
 16210  1  0
 16211  1  0
 16212  1  0
 17213  1  0
 26214  1  0
 29215  1  0
 29216  1  0
 30217  1  0
 30218  1  0
 30219  1  0
 31220  1  0
 31221  1  0
 32222  1  0
 32223  1  0
 32224  1  0
 33225  1  0
 33226  1  0
 34227  1  0
 34228  1  0
 34229  1  0
 37230  1  0
 40231  1  0
 48232  1  0
 51233  1  0
 51234  1  0
 51235  1  0
 54236  1  0
 54237  1  0
 54238  1  0
 55239  1  0
 61240  1  0
 64241  1  0
 64242  1  0
 64243  1  0
 67244  1  0
 67245  1  0
 67246  1  0
 68247  1  0
 70248  1  0
 74249  1  0
 79250  1  0
 79251  1  0
 80252  1  0
 80253  1  0
 80254  1  0
 81255  1  0
 81256  1  0
 82257  1  0
 82258  1  0
 82259  1  0
 83260  1  0
 83261  1  0
 84262  1  0
 84263  1  0
 84264  1  0
 85265  1  0
 94266  1  0
 97267  1  0
 97268  1  0
 98269  1  0
 98270  1  0
 98271  1  0
 99272  1  0
 99273  1  0
100274  1  0
100275  1  0
100276  1  0
101277  1  0
101278  1  0
102279  1  0
102280  1  0
102281  1  0
105282  1  0
108283  1  0
112284  1  0
116285  1  0
121286  1  0
121287  1  0
122288  1  0
122289  1  0
122290  1  0
123291  1  0
123292  1  0
124293  1  0
124294  1  0
124295  1  0
125296  1  0
125297  1  0
126298  1  0
126299  1  0
126300  1  0
127301  1  0
136302  1  0
139303  1  0
139304  1  0
140305  1  0
140306  1  0
140307  1  0
141308  1  0
141309  1  0
142310  1  0
142311  1  0
142312  1  0
143313  1  0
143314  1  0
144315  1  0
144316  1  0
144317  1  0
147318  1  0
150319  1  0
154320  1  0
158321  1  0
163322  1  0
163323  1  0
164324  1  0
164325  1  0
164326  1  0
165327  1  0
165328  1  0
166329  1  0
166330  1  0
166331  1  0
167332  1  0
167333  1  0
168334  1  0
168335  1  0
168336  1  0
169337  1  0
178338  1  0
181339  1  0
181340  1  0
182341  1  0
182342  1  0
182343  1  0
183344  1  0
183345  1  0
184346  1  0
184347  1  0
184348  1  0
185349  1  0
185350  1  0
186351  1  0
186352  1  0
186353  1  0
189354  1  0
192355  1  0
193356  1  0
M  END

