
     RDKit          3D

128139  0  0  0  0  0  0  0  0999 V2000
    4.1568    1.0118   -2.4031 C   0  0  0  0  0  0  0  0  0  0  0  0
    3.4518    0.1870   -1.1157 S   0  0  0  0  0  0  0  0  0  0  0  0
    2.6427    1.5012   -0.4397 C   0  0  0  0  0  0  0  0  0  0  0  0
    2.9423    2.6263   -1.2101 C   0  0  0  0  0  0  0  0  0  0  0  0
    3.7754    2.3445   -2.3033 C   0  0  0  0  0  0  0  0  0  0  0  0
    4.1782    3.3563   -3.1744 C   0  0  0  0  0  0  0  0  0  0  0  0
    3.7458    4.6807   -2.9458 C   0  0  0  0  0  0  0  0  0  0  0  0
    4.1162    5.7375   -3.7923 O   0  0  0  0  0  0  0  0  0  0  0  0
    4.9483    5.5971   -4.9393 C   0  0  0  0  0  0  0  0  0  0  0  0
    2.9221    4.9718   -1.8379 C   0  0  0  0  0  0  0  0  0  0  0  0
    2.5129    6.3009   -1.6476 O   0  0  0  0  0  0  0  0  0  0  0  0
    1.6512    6.7368   -0.6008 C   0  0  0  0  0  0  0  0  0  0  0  0
    2.5325    3.9393   -0.9568 C   0  0  0  0  0  0  0  0  0  0  0  0
    1.8076    1.4298    0.7696 C   0  0  0  0  0  0  0  0  0  0  0  0
    2.2675    0.6549    2.1912 S   0  0  0  0  0  0  0  0  0  0  0  0
    0.8463    0.9425    3.0466 C   0  0  0  0  0  0  0  0  0  0  0  0
   -0.0431    1.6072    2.1992 C   0  0  0  0  0  0  0  0  0  0  0  0
    0.4925    1.8748    0.9274 C   0  0  0  0  0  0  0  0  0  0  0  0
   -0.3043    2.4461   -0.0694 C   0  0  0  0  0  0  0  0  0  0  0  0
   -1.6436    2.7815    0.2147 C   0  0  0  0  0  0  0  0  0  0  0  0
   -2.4774    3.3743   -0.7466 O   0  0  0  0  0  0  0  0  0  0  0  0
   -2.0652    3.7224   -2.0658 C   0  0  0  0  0  0  0  0  0  0  0  0
   -2.1833    2.5094    1.4882 C   0  0  0  0  0  0  0  0  0  0  0  0
   -3.5302    2.8339    1.7165 O   0  0  0  0  0  0  0  0  0  0  0  0
   -4.2352    2.5517    2.9199 C   0  0  0  0  0  0  0  0  0  0  0  0
   -1.3786    1.9138    2.4842 C   0  0  0  0  0  0  0  0  0  0  0  0
    0.5684    0.4014    4.3812 C   0  0  0  0  0  0  0  0  0  0  0  0
    0.0935    1.0804    5.4962 C   0  0  0  0  0  0  0  0  0  0  0  0
   -0.1154    0.2665    6.6136 C   0  0  0  0  0  0  0  0  0  0  0  0
   -0.5804    0.7975    7.7711 N   0  0  0  0  0  0  0  0  0  0  0  0
   -0.8372    2.1344    7.8463 C   0  0  0  0  0  0  0  0  0  0  0  0
   -0.6168    2.9616    6.7223 C   0  0  0  0  0  0  0  0  0  0  0  0
   -0.9337    4.4268    6.7698 C   0  0  0  0  0  0  0  0  0  0  0  0
   -2.2392    4.7154    6.0382 C   0  0  0  0  0  0  0  0  0  0  0  0
   -0.1556    2.4116    5.5614 N   0  0  0  0  0  0  0  0  0  0  0  0
    0.1603   -1.0764    6.3973 C   0  0  0  0  0  0  0  0  0  0  0  0
    0.7329   -1.2169    4.8104 S   0  0  0  0  0  0  0  0  0  0  0  0
   -0.0502   -2.1849    7.3502 C   0  0  0  0  0  0  0  0  0  0  0  0
   -0.5880   -3.3633    7.0006 C   0  0  0  0  0  0  0  0  0  0  0  0
   -1.1855   -3.6023    5.6772 C   0  0  0  0  0  0  0  0  0  0  0  0
   -2.1914   -2.8517    5.0806 C   0  0  0  0  0  0  0  0  0  0  0  0
   -2.3843   -3.1244    3.7246 C   0  0  0  0  0  0  0  0  0  0  0  0
   -3.3375   -2.4561    3.0281 N   0  0  0  0  0  0  0  0  0  0  0  0
   -4.0941   -1.5061    3.6443 C   0  0  0  0  0  0  0  0  0  0  0  0
   -3.8836   -1.2111    5.0084 C   0  0  0  0  0  0  0  0  0  0  0  0
   -4.7178   -0.1761    5.7110 C   0  0  0  0  0  0  0  0  0  0  0  0
   -3.8413    0.8992    6.3452 C   0  0  0  0  0  0  0  0  0  0  0  0
   -2.9332   -1.9015    5.7034 N   0  0  0  0  0  0  0  0  0  0  0  0
   -1.5229   -4.0964    3.2118 C   0  0  0  0  0  0  0  0  0  0  0  0
   -0.5468   -4.6184    4.4913 S   0  0  0  0  0  0  0  0  0  0  0  0
   -1.3419   -4.5360    1.8145 C   0  0  0  0  0  0  0  0  0  0  0  0
   -1.6783   -3.7720    0.7657 C   0  0  0  0  0  0  0  0  0  0  0  0
   -1.4030   -4.1154   -0.6437 C   0  0  0  0  0  0  0  0  0  0  0  0
   -0.9272   -5.2999   -1.2106 C   0  0  0  0  0  0  0  0  0  0  0  0
   -0.7398   -5.2379   -2.5963 C   0  0  0  0  0  0  0  0  0  0  0  0
   -0.2728   -6.3166   -3.2745 N   0  0  0  0  0  0  0  0  0  0  0  0
    0.0186   -7.4667   -2.6035 C   0  0  0  0  0  0  0  0  0  0  0  0
   -0.1609   -7.5343   -1.2059 C   0  0  0  0  0  0  0  0  0  0  0  0
    0.1282   -8.8172   -0.4721 C   0  0  0  0  0  0  0  0  0  0  0  0
    0.2945   -8.6149    1.0340 C   0  0  0  0  0  0  0  0  0  0  0  0
   -0.6479   -6.4455   -0.5420 N   0  0  0  0  0  0  0  0  0  0  0  0
   -1.0680   -4.0151   -3.1667 C   0  0  0  0  0  0  0  0  0  0  0  0
   -1.5886   -3.0140   -1.9090 S   0  0  0  0  0  0  0  0  0  0  0  0
   -0.9338   -3.6537   -4.5900 C   0  0  0  0  0  0  0  0  0  0  0  0
   -1.3051   -2.4561   -5.0575 C   0  0  0  0  0  0  0  0  0  0  0  0
   -1.1460   -2.0491   -6.4657 C   0  0  0  0  0  0  0  0  0  0  0  0
   -0.2379   -2.5118   -7.4183 C   0  0  0  0  0  0  0  0  0  0  0  0
   -0.3101   -1.8492   -8.6482 C   0  0  0  0  0  0  0  0  0  0  0  0
    0.5422   -2.1732   -9.6531 N   0  0  0  0  0  0  0  0  0  0  0  0
    1.4739   -3.1494   -9.4647 C   0  0  0  0  0  0  0  0  0  0  0  0
    1.5518   -3.8194   -8.2247 C   0  0  0  0  0  0  0  0  0  0  0  0
    2.6005   -4.8630   -7.9759 C   0  0  0  0  0  0  0  0  0  0  0  0
    3.7940   -4.2584   -7.2435 C   0  0  0  0  0  0  0  0  0  0  0  0
    0.6976   -3.4734   -7.2195 N   0  0  0  0  0  0  0  0  0  0  0  0
   -1.2686   -0.8458   -8.7038 C   0  0  0  0  0  0  0  0  0  0  0  0
   -2.0142   -0.7919   -7.1851 S   0  0  0  0  0  0  0  0  0  0  0  0
   -1.5473    0.0233   -9.8620 C   0  0  0  0  0  0  0  0  0  0  0  0
   -2.4752    0.9772   -9.8343 C   0  0  0  0  0  0  0  0  0  0  0  0
    4.8017    0.5842   -3.1599 H   0  0  0  0  0  0  0  0  0  0  0  0
    4.8207    3.1121   -4.0100 H   0  0  0  0  0  0  0  0  0  0  0  0
    5.0768    6.5890   -5.4183 H   0  0  0  0  0  0  0  0  0  0  0  0
    4.4766    4.9076   -5.6709 H   0  0  0  0  0  0  0  0  0  0  0  0
    5.9479    5.2149   -4.6422 H   0  0  0  0  0  0  0  0  0  0  0  0
    2.1207    6.5418    0.3864 H   0  0  0  0  0  0  0  0  0  0  0  0
    1.4806    7.8280   -0.7024 H   0  0  0  0  0  0  0  0  0  0  0  0
    0.6722    6.2157   -0.6697 H   0  0  0  0  0  0  0  0  0  0  0  0
    1.9283    4.1553   -0.0879 H   0  0  0  0  0  0  0  0  0  0  0  0
    0.1020    2.6035   -1.0571 H   0  0  0  0  0  0  0  0  0  0  0  0
   -2.9156    4.1944   -2.5982 H   0  0  0  0  0  0  0  0  0  0  0  0
   -1.7585    2.8113   -2.6229 H   0  0  0  0  0  0  0  0  0  0  0  0
   -1.2244    4.4464   -2.0245 H   0  0  0  0  0  0  0  0  0  0  0  0
   -4.2296    1.4603    3.1142 H   0  0  0  0  0  0  0  0  0  0  0  0
   -5.2860    2.8884    2.8122 H   0  0  0  0  0  0  0  0  0  0  0  0
   -3.7742    3.0933    3.7706 H   0  0  0  0  0  0  0  0  0  0  0  0
   -1.7905    1.6718    3.4535 H   0  0  0  0  0  0  0  0  0  0  0  0
   -1.2166    2.5500    8.7710 H   0  0  0  0  0  0  0  0  0  0  0  0
   -1.0177    4.7760    7.8215 H   0  0  0  0  0  0  0  0  0  0  0  0
   -0.1103    4.9962    6.2886 H   0  0  0  0  0  0  0  0  0  0  0  0
   -2.4757    5.7981    6.1128 H   0  0  0  0  0  0  0  0  0  0  0  0
   -2.1420    4.4489    4.9654 H   0  0  0  0  0  0  0  0  0  0  0  0
   -3.0732    4.1368    6.4891 H   0  0  0  0  0  0  0  0  0  0  0  0
    0.2478   -2.0352    8.3800 H   0  0  0  0  0  0  0  0  0  0  0  0
   -0.6214   -4.1638    7.7281 H   0  0  0  0  0  0  0  0  0  0  0  0
   -4.8532   -0.9853    3.0754 H   0  0  0  0  0  0  0  0  0  0  0  0
   -5.4238    0.3095    5.0030 H   0  0  0  0  0  0  0  0  0  0  0  0
   -5.3193   -0.6716    6.5024 H   0  0  0  0  0  0  0  0  0  0  0  0
   -3.1523    1.3366    5.5935 H   0  0  0  0  0  0  0  0  0  0  0  0
   -3.2491    0.4641    7.1762 H   0  0  0  0  0  0  0  0  0  0  0  0
   -4.4808    1.7083    6.7557 H   0  0  0  0  0  0  0  0  0  0  0  0
   -0.8146   -5.4646    1.6710 H   0  0  0  0  0  0  0  0  0  0  0  0
   -2.1073   -2.7947    0.9307 H   0  0  0  0  0  0  0  0  0  0  0  0
    0.3849   -8.3240   -3.1533 H   0  0  0  0  0  0  0  0  0  0  0  0
   -0.7021   -9.5329   -0.6539 H   0  0  0  0  0  0  0  0  0  0  0  0
    1.0660   -9.2647   -0.8703 H   0  0  0  0  0  0  0  0  0  0  0  0
    0.5710   -9.5791    1.5104 H   0  0  0  0  0  0  0  0  0  0  0  0
   -0.6584   -8.2611    1.4836 H   0  0  0  0  0  0  0  0  0  0  0  0
    1.0971   -7.8734    1.2391 H   0  0  0  0  0  0  0  0  0  0  0  0
   -0.5324   -4.4002   -5.2602 H   0  0  0  0  0  0  0  0  0  0  0  0
   -1.7800   -1.7446   -4.3942 H   0  0  0  0  0  0  0  0  0  0  0  0
    2.1550   -3.3971  -10.2688 H   0  0  0  0  0  0  0  0  0  0  0  0
    2.9424   -5.3089   -8.9351 H   0  0  0  0  0  0  0  0  0  0  0  0
    2.1686   -5.6798   -7.3586 H   0  0  0  0  0  0  0  0  0  0  0  0
    3.4770   -3.8561   -6.2571 H   0  0  0  0  0  0  0  0  0  0  0  0
    4.5640   -5.0409   -7.0771 H   0  0  0  0  0  0  0  0  0  0  0  0
    4.2425   -3.4390   -7.8464 H   0  0  0  0  0  0  0  0  0  0  0  0
   -0.9769   -0.1198  -10.7713 H   0  0  0  0  0  0  0  0  0  0  0  0
   -2.6429    1.5904  -10.7098 H   0  0  0  0  0  0  0  0  0  0  0  0
   -3.0735    1.1624   -8.9520 H   0  0  0  0  0  0  0  0  0  0  0  0
  1  2  1  0
  2  3  1  0
  3  4  2  0
  4  5  1  0
  5  6  1  0
  6  7  2  0
  7  8  1  0
  8  9  1  0
  7 10  1  0
 10 11  1  0
 11 12  1  0
 10 13  2  0
  3 14  1  0
 14 15  1  0
 15 16  1  0
 16 17  2  0
 17 18  1  0
 18 19  1  0
 19 20  2  0
 20 21  1  0
 21 22  1  0
 20 23  1  0
 23 24  1  0
 24 25  1  0
 23 26  2  0
 16 27  1  0
 27 28  2  0
 28 29  1  0
 29 30  1  0
 30 31  2  0
 31 32  1  0
 32 33  1  0
 33 34  1  0
 32 35  2  0
 29 36  2  0
 36 37  1  0
 36 38  1  0
 38 39  2  3
 39 40  1  0
 40 41  2  0
 41 42  1  0
 42 43  1  0
 43 44  2  0
 44 45  1  0
 45 46  1  0
 46 47  1  0
 45 48  2  0
 42 49  2  0
 49 50  1  0
 49 51  1  0
 51 52  2  3
 52 53  1  0
 53 54  2  0
 54 55  1  0
 55 56  1  0
 56 57  2  0
 57 58  1  0
 58 59  1  0
 59 60  1  0
 58 61  2  0
 55 62  2  0
 62 63  1  0
 62 64  1  0
 64 65  2  3
 65 66  1  0
 66 67  2  0
 67 68  1  0
 68 69  1  0
 69 70  2  0
 70 71  1  0
 71 72  1  0
 72 73  1  0
 71 74  2  0
 68 75  2  0
 75 76  1  0
 75 77  1  0
 77 78  2  3
  5  1  2  0
 18 14  2  0
 37 27  1  0
 50 40  1  0
 63 53  1  0
 76 66  1  0
 13  4  1  0
 26 17  1  0
 35 28  1  0
 48 41  1  0
 61 54  1  0
 74 67  1  0
  1 79  1  0
  6 80  1  0
  9 81  1  0
  9 82  1  0
  9 83  1  0
 12 84  1  0
 12 85  1  0
 12 86  1  0
 13 87  1  0
 19 88  1  0
 22 89  1  0
 22 90  1  0
 22 91  1  0
 25 92  1  0
 25 93  1  0
 25 94  1  0
 26 95  1  0
 31 96  1  0
 33 97  1  0
 33 98  1  0
 34 99  1  0
 34100  1  0
 34101  1  0
 38102  1  0
 39103  1  0
 44104  1  0
 46105  1  0
 46106  1  0
 47107  1  0
 47108  1  0
 47109  1  0
 51110  1  0
 52111  1  0
 57112  1  0
 59113  1  0
 59114  1  0
 60115  1  0
 60116  1  0
 60117  1  0
 64118  1  0
 65119  1  0
 70120  1  0
 72121  1  0
 72122  1  0
 73123  1  0
 73124  1  0
 73125  1  0
 77126  1  0
 78127  1  0
 78128  1  0
M  END

