
     RDKit          3D

212235  0  0  0  0  0  0  0  0999 V2000
   15.6903    0.7180    4.1506 C   0  0  0  0  0  0  0  0  0  0  0  0
   14.1834    0.1589    4.6696 S   0  0  0  0  0  0  0  0  0  0  0  0
   14.4913   -1.4694    4.3739 C   0  0  0  0  0  0  0  0  0  0  0  0
   13.6477   -2.5810    4.5836 C   0  0  0  0  0  0  0  0  0  0  0  0
   14.1920   -3.8315    4.2090 C   0  0  0  0  0  0  0  0  0  0  0  0
   13.6521   -5.1033    4.1655 C   0  0  0  0  0  0  0  0  0  0  0  0
   14.6620   -5.9112    3.6592 C   0  0  0  0  0  0  0  0  0  0  0  0
   15.7359   -5.1933    3.3904 O   0  0  0  0  0  0  0  0  0  0  0  0
   15.4731   -3.9484    3.7005 C   0  0  0  0  0  0  0  0  0  0  0  0
   16.3140   -2.8462    3.5264 C   0  0  0  0  0  0  0  0  0  0  0  0
   15.7907   -1.5912    3.8676 C   0  0  0  0  0  0  0  0  0  0  0  0
   16.4596   -0.3677    3.7388 C   0  0  0  0  0  0  0  0  0  0  0  0
   12.2651   -2.3807    5.0735 C   0  0  0  0  0  0  0  0  0  0  0  0
   11.6221   -3.2424    5.8735 C   0  0  0  0  0  0  0  0  0  0  0  0
   10.2200   -3.0223    6.2666 C   0  0  0  0  0  0  0  0  0  0  0  0
    9.5790   -1.7889    6.3881 C   0  0  0  0  0  0  0  0  0  0  0  0
    8.2007   -1.9099    6.6138 C   0  0  0  0  0  0  0  0  0  0  0  0
    7.2793   -0.8484    6.6855 C   0  0  0  0  0  0  0  0  0  0  0  0
    7.7071    0.5647    6.6303 C   0  0  0  0  0  0  0  0  0  0  0  0
    8.4654    1.1108    7.6769 C   0  0  0  0  0  0  0  0  0  0  0  0
    8.8508    2.4534    7.6402 C   0  0  0  0  0  0  0  0  0  0  0  0
    8.5017    3.2555    6.5478 C   0  0  0  0  0  0  0  0  0  0  0  0
    8.9927    4.9826    6.5137 S   0  0  0  0  0  0  0  0  0  0  0  0
   10.5464    4.6973    5.5944 C   0  0  0  0  0  0  0  0  0  0  0  0
   11.6638    4.2560    6.5310 C   0  0  0  0  0  0  0  0  0  0  0  0
    7.7486    2.7138    5.4983 C   0  0  0  0  0  0  0  0  0  0  0  0
    7.4068    3.4786    4.4292 F   0  0  0  0  0  0  0  0  0  0  0  0
    7.3526    1.3723    5.5400 C   0  0  0  0  0  0  0  0  0  0  0  0
    5.9204   -1.1948    6.7647 C   0  0  0  0  0  0  0  0  0  0  0  0
    5.4721   -2.5200    6.7756 C   0  0  0  0  0  0  0  0  0  0  0  0
    6.4009   -3.5837    6.7406 C   0  0  0  0  0  0  0  0  0  0  0  0
    5.9736   -4.9954    6.6947 C   0  0  0  0  0  0  0  0  0  0  0  0
    6.2927   -5.8635    7.7487 C   0  0  0  0  0  0  0  0  0  0  0  0
    5.8863   -7.2008    7.7068 C   0  0  0  0  0  0  0  0  0  0  0  0
    5.1604   -7.6789    6.6085 C   0  0  0  0  0  0  0  0  0  0  0  0
    4.6148   -9.3875    6.5750 S   0  0  0  0  0  0  0  0  0  0  0  0
    3.0106   -9.0076    7.3534 C   0  0  0  0  0  0  0  0  0  0  0  0
    2.1591  -10.2647    7.4380 C   0  0  0  0  0  0  0  0  0  0  0  0
    4.8629   -6.8209    5.5398 C   0  0  0  0  0  0  0  0  0  0  0  0
    5.2629   -5.4820    5.5854 C   0  0  0  0  0  0  0  0  0  0  0  0
    4.1724   -7.2792    4.4665 F   0  0  0  0  0  0  0  0  0  0  0  0
    7.7626   -3.2373    6.6653 C   0  0  0  0  0  0  0  0  0  0  0  0
    9.0864   -4.2576    6.4552 S   0  0  0  0  0  0  0  0  0  0  0  0
    4.0688   -2.6293    6.7647 C   0  0  0  0  0  0  0  0  0  0  0  0
    3.4278   -1.3889    6.7270 C   0  0  0  0  0  0  0  0  0  0  0  0
    4.5972   -0.1703    6.7404 S   0  0  0  0  0  0  0  0  0  0  0  0
    2.0165   -1.1531    6.3807 C   0  0  0  0  0  0  0  0  0  0  0  0
    1.5487    0.0634    5.9008 C   0  0  0  0  0  0  0  0  0  0  0  0
    0.3045   -0.0341    5.2668 C   0  0  0  0  0  0  0  0  0  0  0  0
   -0.3014    0.9856    4.5132 C   0  0  0  0  0  0  0  0  0  0  0  0
    0.3752    2.2788    4.2793 C   0  0  0  0  0  0  0  0  0  0  0  0
    1.5463    2.3251    3.5097 C   0  0  0  0  0  0  0  0  0  0  0  0
    2.1977    3.5412    3.2957 C   0  0  0  0  0  0  0  0  0  0  0  0
    1.6964    4.7187    3.8641 C   0  0  0  0  0  0  0  0  0  0  0  0
    2.5546    6.2741    3.5944 S   0  0  0  0  0  0  0  0  0  0  0  0
    3.5598    6.1788    5.1206 C   0  0  0  0  0  0  0  0  0  0  0  0
    4.7805    5.2908    4.9210 C   0  0  0  0  0  0  0  0  0  0  0  0
    0.5122    4.6791    4.6155 C   0  0  0  0  0  0  0  0  0  0  0  0
    0.0010    5.8176    5.1505 F   0  0  0  0  0  0  0  0  0  0  0  0
   -0.1455    3.4619    4.8238 C   0  0  0  0  0  0  0  0  0  0  0  0
   -1.4517    0.6418    3.7935 C   0  0  0  0  0  0  0  0  0  0  0  0
   -2.0154   -0.6401    3.8298 C   0  0  0  0  0  0  0  0  0  0  0  0
   -1.4381   -1.6515    4.6306 C   0  0  0  0  0  0  0  0  0  0  0  0
   -2.0139   -3.0127    4.6855 C   0  0  0  0  0  0  0  0  0  0  0  0
   -3.3013   -3.2040    5.2112 C   0  0  0  0  0  0  0  0  0  0  0  0
   -3.8596   -4.4822    5.2644 C   0  0  0  0  0  0  0  0  0  0  0  0
   -3.1419   -5.5842    4.7860 C   0  0  0  0  0  0  0  0  0  0  0  0
   -3.8509   -7.2308    4.8969 S   0  0  0  0  0  0  0  0  0  0  0  0
   -4.5738   -7.2161    3.2199 C   0  0  0  0  0  0  0  0  0  0  0  0
   -5.9692   -6.6057    3.2350 C   0  0  0  0  0  0  0  0  0  0  0  0
   -1.8587   -5.4000    4.2525 C   0  0  0  0  0  0  0  0  0  0  0  0
   -1.3002   -4.1184    4.1956 C   0  0  0  0  0  0  0  0  0  0  0  0
   -1.1534   -6.4593    3.7856 F   0  0  0  0  0  0  0  0  0  0  0  0
   -0.2480   -1.3186    5.3129 C   0  0  0  0  0  0  0  0  0  0  0  0
    0.8476   -2.3422    6.0898 S   0  0  0  0  0  0  0  0  0  0  0  0
   -3.0107   -0.8300    2.8525 C   0  0  0  0  0  0  0  0  0  0  0  0
   -3.1787    0.2878    2.0323 C   0  0  0  0  0  0  0  0  0  0  0  0
   -2.1507    1.5175    2.5497 S   0  0  0  0  0  0  0  0  0  0  0  0
   -3.7904    0.2753    0.7001 C   0  0  0  0  0  0  0  0  0  0  0  0
   -4.8574   -0.5133    0.2715 C   0  0  0  0  0  0  0  0  0  0  0  0
   -5.1203   -0.3599   -1.1030 C   0  0  0  0  0  0  0  0  0  0  0  0
   -6.1571   -0.9762   -1.8355 C   0  0  0  0  0  0  0  0  0  0  0  0
   -7.1701   -1.8189   -1.1740 C   0  0  0  0  0  0  0  0  0  0  0  0
   -8.0718   -1.2441   -0.2665 C   0  0  0  0  0  0  0  0  0  0  0  0
   -9.0098   -2.0422    0.3930 C   0  0  0  0  0  0  0  0  0  0  0  0
   -9.0450   -3.4232    0.1644 C   0  0  0  0  0  0  0  0  0  0  0  0
  -10.2346   -4.4430    1.0438 S   0  0  0  0  0  0  0  0  0  0  0  0
   -9.1054   -4.8611    2.4209 C   0  0  0  0  0  0  0  0  0  0  0  0
   -9.1208   -3.7790    3.4947 C   0  0  0  0  0  0  0  0  0  0  0  0
   -8.1527   -3.9996   -0.7505 C   0  0  0  0  0  0  0  0  0  0  0  0
   -8.1790   -5.3366   -0.9835 F   0  0  0  0  0  0  0  0  0  0  0  0
   -7.2179   -3.1989   -1.4195 C   0  0  0  0  0  0  0  0  0  0  0  0
   -6.2225   -0.6868   -3.2134 C   0  0  0  0  0  0  0  0  0  0  0  0
   -5.3029    0.1561   -3.8471 C   0  0  0  0  0  0  0  0  0  0  0  0
   -4.2736    0.7765   -3.1176 C   0  0  0  0  0  0  0  0  0  0  0  0
   -3.2691    1.6497   -3.7636 C   0  0  0  0  0  0  0  0  0  0  0  0
   -3.6517    2.8463   -4.3887 C   0  0  0  0  0  0  0  0  0  0  0  0
   -2.7005    3.6419   -5.0332 C   0  0  0  0  0  0  0  0  0  0  0  0
   -1.3554    3.2524   -5.0501 C   0  0  0  0  0  0  0  0  0  0  0  0
   -0.1320    4.2963   -5.8507 S   0  0  0  0  0  0  0  0  0  0  0  0
   -0.2632    3.4890   -7.4870 C   0  0  0  0  0  0  0  0  0  0  0  0
    1.1287    3.2232   -8.0361 C   0  0  0  0  0  0  0  0  0  0  0  0
   -0.9634    2.0664   -4.4162 C   0  0  0  0  0  0  0  0  0  0  0  0
   -1.9173    1.2671   -3.7782 C   0  0  0  0  0  0  0  0  0  0  0  0
    0.3387    1.6774   -4.4280 F   0  0  0  0  0  0  0  0  0  0  0  0
   -4.2234    0.5043   -1.7417 C   0  0  0  0  0  0  0  0  0  0  0  0
   -3.1542    1.1246   -0.6099 S   0  0  0  0  0  0  0  0  0  0  0  0
   -5.5577    0.3248   -5.2136 C   0  0  0  0  0  0  0  0  0  0  0  0
   -6.6990   -0.3447   -5.6432 C   0  0  0  0  0  0  0  0  0  0  0  0
   -7.3782   -1.1797   -4.3374 S   0  0  0  0  0  0  0  0  0  0  0  0
   -7.2790   -0.2042   -6.9856 C   0  0  0  0  0  0  0  0  0  0  0  0
   -6.5851    0.7259   -8.2145 S   0  0  0  0  0  0  0  0  0  0  0  0
   -7.8561    0.5605   -9.2937 C   0  0  0  0  0  0  0  0  0  0  0  0
   -8.0072    1.1587  -10.5612 C   0  0  0  0  0  0  0  0  0  0  0  0
   -9.2121    0.8616  -11.2263 C   0  0  0  0  0  0  0  0  0  0  0  0
   -9.6800    1.2071  -12.4786 C   0  0  0  0  0  0  0  0  0  0  0  0
  -10.9329    0.6181  -12.5688 C   0  0  0  0  0  0  0  0  0  0  0  0
  -11.2103   -0.0485  -11.4632 O   0  0  0  0  0  0  0  0  0  0  0  0
  -10.1913    0.0738  -10.6525 C   0  0  0  0  0  0  0  0  0  0  0  0
  -10.0521   -0.4863   -9.3756 C   0  0  0  0  0  0  0  0  0  0  0  0
   -8.8490   -0.2283   -8.6998 C   0  0  0  0  0  0  0  0  0  0  0  0
   -8.5284   -0.6612   -7.4035 C   0  0  0  0  0  0  0  0  0  0  0  0
   -6.9626    2.0737  -11.0785 C   0  0  0  0  0  0  0  0  0  0  0  0
   -7.2544    3.2356  -11.6788 C   0  0  0  0  0  0  0  0  0  0  0  0
   -6.2327    4.2545  -11.9888 C   0  0  0  0  0  0  0  0  0  0  0  0
   -6.5231    5.6044  -12.9615 S   0  0  0  0  0  0  0  0  0  0  0  0
   -5.0234    6.3218  -12.7157 C   0  0  0  0  0  0  0  0  0  0  0  0
   -4.5467    7.5561  -13.2016 C   0  0  0  0  0  0  0  0  0  0  0  0
   -3.2527    7.9206  -12.7658 C   0  0  0  0  0  0  0  0  0  0  0  0
   -2.4487    9.0042  -13.0595 C   0  0  0  0  0  0  0  0  0  0  0  0
   -1.2853    8.8003  -12.3271 C   0  0  0  0  0  0  0  0  0  0  0  0
   -1.3568    7.6731  -11.6484 O   0  0  0  0  0  0  0  0  0  0  0  0
   -2.5209    7.1264  -11.9028 C   0  0  0  0  0  0  0  0  0  0  0  0
   -3.0048    5.9101  -11.4123 C   0  0  0  0  0  0  0  0  0  0  0  0
   -4.2790    5.5152  -11.8439 C   0  0  0  0  0  0  0  0  0  0  0  0
   -4.9487    4.3542  -11.4421 C   0  0  0  0  0  0  0  0  0  0  0  0
   -5.3628    8.3768  -14.1219 C   0  0  0  0  0  0  0  0  0  0  0  0
   -5.4757    9.6959  -13.9967 C   0  0  0  0  0  0  0  0  0  0  0  0
   16.0089    1.7499    4.1449 H   0  0  0  0  0  0  0  0  0  0  0  0
   12.6514   -5.4211    4.4219 H   0  0  0  0  0  0  0  0  0  0  0  0
   14.5876   -6.9772    3.4917 H   0  0  0  0  0  0  0  0  0  0  0  0
   17.3122   -2.9577    3.1185 H   0  0  0  0  0  0  0  0  0  0  0  0
   17.4689   -0.2691    3.3592 H   0  0  0  0  0  0  0  0  0  0  0  0
   11.7676   -1.4641    4.7790 H   0  0  0  0  0  0  0  0  0  0  0  0
   12.1021   -4.1515    6.2052 H   0  0  0  0  0  0  0  0  0  0  0  0
   10.0830   -0.8390    6.2777 H   0  0  0  0  0  0  0  0  0  0  0  0
    8.7443    0.5005    8.5275 H   0  0  0  0  0  0  0  0  0  0  0  0
    9.4234    2.8671    8.4609 H   0  0  0  0  0  0  0  0  0  0  0  0
   10.8419    5.6544    5.1137 H   0  0  0  0  0  0  0  0  0  0  0  0
   10.4001    3.9425    4.7917 H   0  0  0  0  0  0  0  0  0  0  0  0
   11.7771    4.9852    7.3620 H   0  0  0  0  0  0  0  0  0  0  0  0
   11.4481    3.2513    6.9482 H   0  0  0  0  0  0  0  0  0  0  0  0
   12.6188    4.2036    5.9681 H   0  0  0  0  0  0  0  0  0  0  0  0
    6.7714    0.9640    4.7219 H   0  0  0  0  0  0  0  0  0  0  0  0
    6.8516   -5.5009    8.6025 H   0  0  0  0  0  0  0  0  0  0  0  0
    6.1322   -7.8576    8.5294 H   0  0  0  0  0  0  0  0  0  0  0  0
    3.1820   -8.6078    8.3749 H   0  0  0  0  0  0  0  0  0  0  0  0
    2.4758   -8.2441    6.7506 H   0  0  0  0  0  0  0  0  0  0  0  0
    2.6760  -11.0343    8.0507 H   0  0  0  0  0  0  0  0  0  0  0  0
    1.9741  -10.6659    6.4189 H   0  0  0  0  0  0  0  0  0  0  0  0
    1.1827  -10.0226    7.9097 H   0  0  0  0  0  0  0  0  0  0  0  0
    5.0256   -4.8278    4.7564 H   0  0  0  0  0  0  0  0  0  0  0  0
    3.5390   -3.5714    6.7087 H   0  0  0  0  0  0  0  0  0  0  0  0
    2.1413    0.9690    5.9073 H   0  0  0  0  0  0  0  0  0  0  0  0
    1.9536    1.4180    3.0767 H   0  0  0  0  0  0  0  0  0  0  0  0
    3.1004    3.5639    2.6963 H   0  0  0  0  0  0  0  0  0  0  0  0
    3.9024    7.2061    5.3718 H   0  0  0  0  0  0  0  0  0  0  0  0
    2.9484    5.8052    5.9706 H   0  0  0  0  0  0  0  0  0  0  0  0
    5.3665    5.6328    4.0406 H   0  0  0  0  0  0  0  0  0  0  0  0
    5.4289    5.3409    5.8214 H   0  0  0  0  0  0  0  0  0  0  0  0
    4.4754    4.2354    4.7698 H   0  0  0  0  0  0  0  0  0  0  0  0
   -1.0535    3.4368    5.4135 H   0  0  0  0  0  0  0  0  0  0  0  0
   -3.8684   -2.3604    5.5900 H   0  0  0  0  0  0  0  0  0  0  0  0
   -4.8488   -4.6160    5.6830 H   0  0  0  0  0  0  0  0  0  0  0  0
   -4.6518   -8.2684    2.8704 H   0  0  0  0  0  0  0  0  0  0  0  0
   -3.9220   -6.6665    2.5069 H   0  0  0  0  0  0  0  0  0  0  0  0
   -6.6164   -7.1447    3.9595 H   0  0  0  0  0  0  0  0  0  0  0  0
   -5.9246   -5.5332    3.5130 H   0  0  0  0  0  0  0  0  0  0  0  0
   -6.4157   -6.6983    2.2230 H   0  0  0  0  0  0  0  0  0  0  0  0
   -0.3162   -3.9863    3.7628 H   0  0  0  0  0  0  0  0  0  0  0  0
   -3.4742   -1.7868    2.6460 H   0  0  0  0  0  0  0  0  0  0  0  0
   -5.4130   -1.1680    0.9304 H   0  0  0  0  0  0  0  0  0  0  0  0
   -8.0419   -0.1816   -0.0664 H   0  0  0  0  0  0  0  0  0  0  0  0
   -9.7022   -1.5856    1.0898 H   0  0  0  0  0  0  0  0  0  0  0  0
   -9.4413   -5.8192    2.8706 H   0  0  0  0  0  0  0  0  0  0  0  0
   -8.0710   -5.0028    2.0441 H   0  0  0  0  0  0  0  0  0  0  0  0
  -10.1585   -3.6063    3.8504 H   0  0  0  0  0  0  0  0  0  0  0  0
   -8.4963   -4.1027    4.3526 H   0  0  0  0  0  0  0  0  0  0  0  0
   -8.7056   -2.8308    3.0962 H   0  0  0  0  0  0  0  0  0  0  0  0
   -6.5191   -3.6559   -2.1069 H   0  0  0  0  0  0  0  0  0  0  0  0
   -4.6896    3.1578   -4.3784 H   0  0  0  0  0  0  0  0  0  0  0  0
   -3.0113    4.5558   -5.5214 H   0  0  0  0  0  0  0  0  0  0  0  0
   -0.8001    4.1735   -8.1800 H   0  0  0  0  0  0  0  0  0  0  0  0
   -0.8183    2.5263   -7.4365 H   0  0  0  0  0  0  0  0  0  0  0  0
    1.7020    4.1738   -8.1154 H   0  0  0  0  0  0  0  0  0  0  0  0
    1.6719    2.5230   -7.3642 H   0  0  0  0  0  0  0  0  0  0  0  0
    1.0556    2.7605   -9.0460 H   0  0  0  0  0  0  0  0  0  0  0  0
   -1.6046    0.3443   -3.3063 H   0  0  0  0  0  0  0  0  0  0  0  0
   -4.9544    0.9425   -5.8654 H   0  0  0  0  0  0  0  0  0  0  0  0
   -9.1817    1.7879  -13.2425 H   0  0  0  0  0  0  0  0  0  0  0  0
  -11.5946    0.6818  -13.4204 H   0  0  0  0  0  0  0  0  0  0  0  0
  -10.8354   -1.0882   -8.9370 H   0  0  0  0  0  0  0  0  0  0  0  0
   -9.1930   -1.2500   -6.7825 H   0  0  0  0  0  0  0  0  0  0  0  0
   -5.9336    1.8484  -10.8257 H   0  0  0  0  0  0  0  0  0  0  0  0
   -8.2852    3.4861  -11.8896 H   0  0  0  0  0  0  0  0  0  0  0  0
   -2.6574    9.8323  -13.7248 H   0  0  0  0  0  0  0  0  0  0  0  0
   -0.4286    9.4650  -12.3107 H   0  0  0  0  0  0  0  0  0  0  0  0
   -2.4176    5.3108  -10.7298 H   0  0  0  0  0  0  0  0  0  0  0  0
   -4.5274    3.6470  -10.7396 H   0  0  0  0  0  0  0  0  0  0  0  0
   -5.9604    7.8751  -14.8744 H   0  0  0  0  0  0  0  0  0  0  0  0
   -4.9760   10.2384  -13.2045 H   0  0  0  0  0  0  0  0  0  0  0  0
   -6.1116   10.2482  -14.6810 H   0  0  0  0  0  0  0  0  0  0  0  0
  1  2  1  0
  2  3  1  0
  3  4  2  0
  4  5  1  0
  5  6  1  0
  6  7  2  0
  7  8  1  0
  8  9  1  0
  9 10  1  0
 10 11  2  0
 11 12  1  0
  4 13  1  0
 13 14  2  3
 14 15  1  0
 15 16  2  0
 16 17  1  0
 17 18  2  0
 18 19  1  0
 19 20  2  0
 20 21  1  0
 21 22  2  0
 22 23  1  0
 23 24  1  0
 24 25  1  0
 22 26  1  0
 26 27  1  0
 26 28  2  0
 18 29  1  0
 29 30  2  0
 30 31  1  0
 31 32  1  0
 32 33  2  0
 33 34  1  0
 34 35  2  0
 35 36  1  0
 36 37  1  0
 37 38  1  0
 35 39  1  0
 39 40  2  0
 39 41  1  0
 31 42  2  0
 42 43  1  0
 30 44  1  0
 44 45  2  0
 45 46  1  0
 45 47  1  0
 47 48  2  0
 48 49  1  0
 49 50  2  0
 50 51  1  0
 51 52  2  0
 52 53  1  0
 53 54  2  0
 54 55  1  0
 55 56  1  0
 56 57  1  0
 54 58  1  0
 58 59  1  0
 58 60  2  0
 50 61  1  0
 61 62  2  0
 62 63  1  0
 63 64  1  0
 64 65  2  0
 65 66  1  0
 66 67  2  0
 67 68  1  0
 68 69  1  0
 69 70  1  0
 67 71  1  0
 71 72  2  0
 71 73  1  0
 63 74  2  0
 74 75  1  0
 62 76  1  0
 76 77  2  0
 77 78  1  0
 77 79  1  0
 79 80  2  0
 80 81  1  0
 81 82  2  0
 82 83  1  0
 83 84  2  0
 84 85  1  0
 85 86  2  0
 86 87  1  0
 87 88  1  0
 88 89  1  0
 86 90  1  0
 90 91  1  0
 90 92  2  0
 82 93  1  0
 93 94  2  0
 94 95  1  0
 95 96  1  0
 96 97  2  0
 97 98  1  0
 98 99  2  0
 99100  1  0
100101  1  0
101102  1  0
 99103  1  0
103104  2  0
103105  1  0
 95106  2  0
106107  1  0
 94108  1  0
108109  2  0
109110  1  0
109111  1  0
111112  1  0
112113  1  0
113114  2  0
114115  1  0
115116  1  0
116117  2  0
117118  1  0
118119  1  0
119120  1  0
120121  2  0
121122  1  0
114123  1  0
123124  2  3
124125  1  0
125126  1  0
126127  1  0
127128  2  0
128129  1  0
129130  1  0
130131  2  0
131132  1  0
132133  1  0
133134  1  0
134135  2  0
135136  1  0
128137  1  0
137138  2  3
 12  1  2  0
 43 15  1  0
 75 47  1  0
107 79  1  0
122111  2  0
136125  2  0
 11  3  1  0
 42 17  1  0
 74 49  1  0
106 81  1  0
121113  1  0
135127  1  0
  9  5  2  0
 28 19  1  0
 46 29  1  0
 60 51  1  0
 78 61  1  0
 92 83  1  0
110 93  1  0
119115  2  0
133129  2  0
 40 32  1  0
 72 64  1  0
104 96  1  0
  1139  1  0
  6140  1  0
  7141  1  0
 10142  1  0
 12143  1  0
 13144  1  0
 14145  1  0
 16146  1  0
 20147  1  0
 21148  1  0
 24149  1  0
 24150  1  0
 25151  1  0
 25152  1  0
 25153  1  0
 28154  1  0
 33155  1  0
 34156  1  0
 37157  1  0
 37158  1  0
 38159  1  0
 38160  1  0
 38161  1  0
 40162  1  0
 44163  1  0
 48164  1  0
 52165  1  0
 53166  1  0
 56167  1  0
 56168  1  0
 57169  1  0
 57170  1  0
 57171  1  0
 60172  1  0
 65173  1  0
 66174  1  0
 69175  1  0
 69176  1  0
 70177  1  0
 70178  1  0
 70179  1  0
 72180  1  0
 76181  1  0
 80182  1  0
 84183  1  0
 85184  1  0
 88185  1  0
 88186  1  0
 89187  1  0
 89188  1  0
 89189  1  0
 92190  1  0
 97191  1  0
 98192  1  0
101193  1  0
101194  1  0
102195  1  0
102196  1  0
102197  1  0
104198  1  0
108199  1  0
116200  1  0
117201  1  0
120202  1  0
122203  1  0
123204  1  0
124205  1  0
130206  1  0
131207  1  0
134208  1  0
136209  1  0
137210  1  0
138211  1  0
138212  1  0
M  END

