
     RDKit          3D

226247  0  0  0  0  0  0  0  0999 V2000
    0.5470  -10.1101   11.7003 C   0  0  0  0  0  0  0  0  0  0  0  0
    0.9216   -9.4120   10.0881 S   0  0  0  0  0  4  0  0  0  0  0  0
    0.9487   -7.8156   10.3266 C   0  0  0  0  0  0  0  0  0  0  0  0
    0.7581   -7.5960   11.7717 C   0  0  0  0  0  0  0  0  0  0  0  0
    0.9817   -6.4332   12.3142 N   0  0  0  0  0  0  0  0  0  0  0  0
    1.0330   -6.1893   13.6942 N   0  0  0  0  0  0  0  0  0  0  0  0
    0.4205   -8.8524   12.5191 C   0  0  0  0  0  0  0  0  0  0  0  0
   -0.5432   -8.8604   13.8439 S   0  0  0  0  0  0  0  0  0  0  0  0
    1.4431   -6.8142    9.3087 C   0  0  0  0  0  0  0  0  0  0  0  0
    1.0215   -7.3119    7.6173 S   0  0  0  0  0  4  0  0  0  0  0  0
   -0.0008   -6.1772    7.1216 C   0  0  0  0  0  0  0  0  0  0  0  0
   -0.1968   -5.2321    8.2197 C   0  0  0  0  0  0  0  0  0  0  0  0
   -1.1475   -4.3425    8.1708 N   0  0  0  0  0  0  0  0  0  0  0  0
   -1.5221   -3.5177    9.2472 N   0  0  0  0  0  0  0  0  0  0  0  0
    0.7066   -5.4868    9.3881 C   0  0  0  0  0  0  0  0  0  0  0  0
    1.4346   -4.2221   10.1467 S   0  0  0  0  0  0  0  0  0  0  0  0
   -0.3764   -5.9606    5.7270 C   0  0  0  0  0  0  0  0  0  0  0  0
   -1.0713   -6.8485    4.9123 C   0  0  0  0  0  0  0  0  0  0  0  0
   -1.3037   -6.3318    3.6230 C   0  0  0  0  0  0  0  0  0  0  0  0
   -2.0439   -6.9499    2.5919 C   0  0  0  0  0  0  0  0  0  0  0  0
   -2.6706   -8.2745    2.7716 C   0  0  0  0  0  0  0  0  0  0  0  0
   -1.8751   -9.4139    2.9533 C   0  0  0  0  0  0  0  0  0  0  0  0
   -2.4718  -10.6685    3.1208 C   0  0  0  0  0  0  0  0  0  0  0  0
   -3.8663  -10.7903    3.1330 C   0  0  0  0  0  0  0  0  0  0  0  0
   -4.6232  -12.4055    3.3504 S   0  0  0  0  0  0  0  0  0  0  0  0
   -4.7900  -12.2649    5.1663 C   0  0  0  0  0  0  0  0  0  0  0  0
   -3.5001  -12.6790    5.8637 C   0  0  0  0  0  0  0  0  0  0  0  0
   -4.6658   -9.6519    2.9446 C   0  0  0  0  0  0  0  0  0  0  0  0
   -6.0189   -9.7572    2.9368 F   0  0  0  0  0  0  0  0  0  0  0  0
   -4.0681   -8.4006    2.7626 C   0  0  0  0  0  0  0  0  0  0  0  0
   -2.1908   -6.2271    1.3957 C   0  0  0  0  0  0  0  0  0  0  0  0
   -1.6096   -4.9675    1.2067 C   0  0  0  0  0  0  0  0  0  0  0  0
   -0.8765   -4.3409    2.2366 C   0  0  0  0  0  0  0  0  0  0  0  0
   -0.3045   -2.9821    2.0755 C   0  0  0  0  0  0  0  0  0  0  0  0
    0.5995   -2.7051    1.0359 C   0  0  0  0  0  0  0  0  0  0  0  0
    1.0695   -1.4027    0.8354 C   0  0  0  0  0  0  0  0  0  0  0  0
    0.6490   -0.3663    1.6774 C   0  0  0  0  0  0  0  0  0  0  0  0
    1.1420    1.3277    1.3325 S   0  0  0  0  0  0  0  0  0  0  0  0
    2.4544    1.3716    2.5937 C   0  0  0  0  0  0  0  0  0  0  0  0
    2.9214    2.8036    2.8040 C   0  0  0  0  0  0  0  0  0  0  0  0
   -0.2146   -0.6445    2.7460 C   0  0  0  0  0  0  0  0  0  0  0  0
   -0.6959   -1.9437    2.9374 C   0  0  0  0  0  0  0  0  0  0  0  0
   -0.5903    0.3397    3.5975 F   0  0  0  0  0  0  0  0  0  0  0  0
   -0.7609   -5.0521    3.4427 C   0  0  0  0  0  0  0  0  0  0  0  0
   -0.0193   -4.5561    4.8675 S   0  0  0  0  0  0  0  0  0  0  0  0
   -1.9187   -4.4078   -0.0396 C   0  0  0  0  0  0  0  0  0  0  0  0
   -2.7322   -5.2217   -0.8207 C   0  0  0  0  0  0  0  0  0  0  0  0
   -3.0991   -6.6313    0.0289 S   0  0  0  0  0  0  0  0  0  0  0  0
   -3.3555   -4.7551   -2.0602 C   0  0  0  0  0  0  0  0  0  0  0  0
   -4.6028   -4.1359   -2.0480 C   0  0  0  0  0  0  0  0  0  0  0  0
   -4.7160   -3.0880   -2.9829 C   0  0  0  0  0  0  0  0  0  0  0  0
   -5.7174   -2.0865   -2.9966 C   0  0  0  0  0  0  0  0  0  0  0  0
   -6.9051   -2.1364   -2.1127 C   0  0  0  0  0  0  0  0  0  0  0  0
   -8.1921   -2.1289   -2.6761 C   0  0  0  0  0  0  0  0  0  0  0  0
   -9.3243   -2.2063   -1.8564 C   0  0  0  0  0  0  0  0  0  0  0  0
   -9.1838   -2.3055   -0.4676 C   0  0  0  0  0  0  0  0  0  0  0  0
  -10.6454   -2.3987    0.5770 S   0  0  0  0  0  0  0  0  0  0  0  0
  -10.8814   -4.2043    0.3929 C   0  0  0  0  0  0  0  0  0  0  0  0
   -9.9194   -4.9832    1.2824 C   0  0  0  0  0  0  0  0  0  0  0  0
   -7.9034   -2.2917    0.1036 C   0  0  0  0  0  0  0  0  0  0  0  0
   -7.7542   -2.3792    1.4505 F   0  0  0  0  0  0  0  0  0  0  0  0
   -6.7706   -2.1902   -0.7132 C   0  0  0  0  0  0  0  0  0  0  0  0
   -5.4724   -0.9586   -3.8059 C   0  0  0  0  0  0  0  0  0  0  0  0
   -4.3376   -0.8409   -4.6124 C   0  0  0  0  0  0  0  0  0  0  0  0
   -3.3648   -1.8603   -4.6326 C   0  0  0  0  0  0  0  0  0  0  0  0
   -2.0500   -1.6647   -5.2810 C   0  0  0  0  0  0  0  0  0  0  0  0
   -1.6785   -2.4507   -6.3806 C   0  0  0  0  0  0  0  0  0  0  0  0
   -0.4330   -2.2608   -6.9910 C   0  0  0  0  0  0  0  0  0  0  0  0
    0.4564   -1.3002   -6.4946 C   0  0  0  0  0  0  0  0  0  0  0  0
    2.0341   -1.0321   -7.3150 S   0  0  0  0  0  0  0  0  0  0  0  0
    2.9251   -2.3607   -6.4312 C   0  0  0  0  0  0  0  0  0  0  0  0
    3.3879   -1.8944   -5.0565 C   0  0  0  0  0  0  0  0  0  0  0  0
    0.0893   -0.5179   -5.3895 C   0  0  0  0  0  0  0  0  0  0  0  0
   -1.1518   -0.7120   -4.7774 C   0  0  0  0  0  0  0  0  0  0  0  0
    0.9286    0.4338   -4.9085 F   0  0  0  0  0  0  0  0  0  0  0  0
   -3.5810   -2.9614   -3.7918 C   0  0  0  0  0  0  0  0  0  0  0  0
   -2.4289   -4.0684   -3.2894 S   0  0  0  0  0  0  0  0  0  0  0  0
   -4.1621    0.4492   -5.1375 C   0  0  0  0  0  0  0  0  0  0  0  0
   -5.0554    1.3904   -4.6331 C   0  0  0  0  0  0  0  0  0  0  0  0
   -6.1689    0.5672   -3.6593 S   0  0  0  0  0  0  0  0  0  0  0  0
   -4.5400    2.7219   -4.2811 C   0  0  0  0  0  0  0  0  0  0  0  0
   -4.0510    2.9400   -2.9909 C   0  0  0  0  0  0  0  0  0  0  0  0
   -2.9222    3.7680   -2.9416 C   0  0  0  0  0  0  0  0  0  0  0  0
   -2.0645    3.9158   -1.8316 C   0  0  0  0  0  0  0  0  0  0  0  0
   -2.2989    3.1917   -0.5661 C   0  0  0  0  0  0  0  0  0  0  0  0
   -2.5702    3.9001    0.6122 C   0  0  0  0  0  0  0  0  0  0  0  0
   -2.9118    3.2122    1.7792 C   0  0  0  0  0  0  0  0  0  0  0  0
   -2.9918    1.8131    1.7744 C   0  0  0  0  0  0  0  0  0  0  0  0
   -3.5933    0.9528    3.2335 S   0  0  0  0  0  0  0  0  0  0  0  0
   -5.3620    1.1607    2.8229 C   0  0  0  0  0  0  0  0  0  0  0  0
   -5.8238    0.0974    1.8373 C   0  0  0  0  0  0  0  0  0  0  0  0
   -2.6454    1.0984    0.6193 C   0  0  0  0  0  0  0  0  0  0  0  0
   -2.6853   -0.2589    0.6092 F   0  0  0  0  0  0  0  0  0  0  0  0
   -2.2977    1.7861   -0.5456 C   0  0  0  0  0  0  0  0  0  0  0  0
   -0.8802    4.6384   -2.0378 C   0  0  0  0  0  0  0  0  0  0  0  0
   -0.5472    5.2047   -3.2726 C   0  0  0  0  0  0  0  0  0  0  0  0
   -1.4134    5.0731   -4.3812 C   0  0  0  0  0  0  0  0  0  0  0  0
   -1.0560    5.6243   -5.7038 C   0  0  0  0  0  0  0  0  0  0  0  0
   -0.9062    7.0093   -5.8632 C   0  0  0  0  0  0  0  0  0  0  0  0
   -0.5198    7.5395   -7.0971 C   0  0  0  0  0  0  0  0  0  0  0  0
   -0.2873    6.6908   -8.1858 C   0  0  0  0  0  0  0  0  0  0  0  0
    0.2241    7.3803   -9.7632 S   0  0  0  0  0  0  0  0  0  0  0  0
   -1.4635    7.5096  -10.4507 C   0  0  0  0  0  0  0  0  0  0  0  0
   -2.1473    8.7881   -9.9846 C   0  0  0  0  0  0  0  0  0  0  0  0
   -0.4262    5.3033   -8.0290 C   0  0  0  0  0  0  0  0  0  0  0  0
   -0.8055    4.7737   -6.7902 C   0  0  0  0  0  0  0  0  0  0  0  0
   -0.1786    4.4664   -9.0674 F   0  0  0  0  0  0  0  0  0  0  0  0
   -2.5843    4.3145   -4.1833 C   0  0  0  0  0  0  0  0  0  0  0  0
   -3.6255    3.6730   -5.3431 S   0  0  0  0  0  0  0  0  0  0  0  0
    0.7670    5.7029   -3.3103 C   0  0  0  0  0  0  0  0  0  0  0  0
    1.4652    5.4888   -2.1227 C   0  0  0  0  0  0  0  0  0  0  0  0
    0.4496    4.7199   -1.0161 S   0  0  0  0  0  0  0  0  0  0  0  0
    2.9231    5.5754   -1.9759 C   0  0  0  0  0  0  0  0  0  0  0  0
    3.8020    6.2062   -2.8596 C   0  0  0  0  0  0  0  0  0  0  0  0
    5.1497    5.8933   -2.6091 C   0  0  0  0  0  0  0  0  0  0  0  0
    6.2663    6.3158   -3.3642 C   0  0  0  0  0  0  0  0  0  0  0  0
    6.1210    7.1823   -4.5527 C   0  0  0  0  0  0  0  0  0  0  0  0
    6.7053    8.4585   -4.5741 C   0  0  0  0  0  0  0  0  0  0  0  0
    6.5327    9.2938   -5.6823 C   0  0  0  0  0  0  0  0  0  0  0  0
    5.7856    8.8602   -6.7841 C   0  0  0  0  0  0  0  0  0  0  0  0
    5.5228    9.9640   -8.1800 S   0  0  0  0  0  0  0  0  0  0  0  0
    7.0839    9.5517   -9.0347 C   0  0  0  0  0  0  0  0  0  0  0  0
    6.9548    8.2574   -9.8264 C   0  0  0  0  0  0  0  0  0  0  0  0
    5.2076    7.5822   -6.7710 C   0  0  0  0  0  0  0  0  0  0  0  0
    4.4647    7.1520   -7.8225 F   0  0  0  0  0  0  0  0  0  0  0  0
    5.3797    6.7484   -5.6629 C   0  0  0  0  0  0  0  0  0  0  0  0
    7.5230    5.8351   -2.9566 C   0  0  0  0  0  0  0  0  0  0  0  0
    7.6838    4.9557   -1.8811 C   0  0  0  0  0  0  0  0  0  0  0  0
    6.5704    4.5337   -1.1291 C   0  0  0  0  0  0  0  0  0  0  0  0
    6.6761    3.5389   -0.0450 C   0  0  0  0  0  0  0  0  0  0  0  0
    6.3707    3.8946    1.2757 C   0  0  0  0  0  0  0  0  0  0  0  0
    6.4062    2.9321    2.2868 C   0  0  0  0  0  0  0  0  0  0  0  0
    6.7202    1.6031    1.9820 C   0  0  0  0  0  0  0  0  0  0  0  0
    6.7100    0.3664    3.2844 S   0  0  0  0  0  0  0  0  0  0  0  0
    8.4720    0.5731    3.7284 C   0  0  0  0  0  0  0  0  0  0  0  0
    8.6066    0.7190    5.2349 C   0  0  0  0  0  0  0  0  0  0  0  0
    7.0158    1.2402    0.6595 C   0  0  0  0  0  0  0  0  0  0  0  0
    7.0059    2.2083   -0.3478 C   0  0  0  0  0  0  0  0  0  0  0  0
    7.3056   -0.0470    0.3478 F   0  0  0  0  0  0  0  0  0  0  0  0
    5.3184    5.0401   -1.5140 C   0  0  0  0  0  0  0  0  0  0  0  0
    3.8140    4.6565   -0.8758 S   0  0  0  0  0  0  0  0  0  0  0  0
    9.0174    4.5658   -1.6763 C   0  0  0  0  0  0  0  0  0  0  0  0
    9.8992    5.1306   -2.5933 C   0  0  0  0  0  0  0  0  0  0  0  0
    9.0303    6.1131   -3.6548 S   0  0  0  0  0  0  0  0  0  0  0  0
   -0.4052  -10.6747   11.6571 H   0  0  0  0  0  0  0  0  0  0  0  0
    1.3861  -10.7405   12.0627 H   0  0  0  0  0  0  0  0  0  0  0  0
    1.2358  -10.0986    8.8843 H   0  0  0  0  0  0  0  0  0  0  0  0
    1.2694   -6.9446   14.3722 H   0  0  0  0  0  0  0  0  0  0  0  0
    1.0716   -5.2044   14.0328 H   0  0  0  0  0  0  0  0  0  0  0  0
    2.5435   -6.6778    9.3889 H   0  0  0  0  0  0  0  0  0  0  0  0
    1.6213   -8.3222    6.8211 H   0  0  0  0  0  0  0  0  0  0  0  0
   -2.2728   -2.8045    9.1034 H   0  0  0  0  0  0  0  0  0  0  0  0
   -1.2330   -3.7252   10.2294 H   0  0  0  0  0  0  0  0  0  0  0  0
   -1.4259   -7.8134    5.2546 H   0  0  0  0  0  0  0  0  0  0  0  0
   -0.7958   -9.3361    2.9536 H   0  0  0  0  0  0  0  0  0  0  0  0
   -1.8476  -11.5436    3.2463 H   0  0  0  0  0  0  0  0  0  0  0  0
   -5.6047  -12.9454    5.4910 H   0  0  0  0  0  0  0  0  0  0  0  0
   -5.0684  -11.2298    5.4624 H   0  0  0  0  0  0  0  0  0  0  0  0
   -2.6855  -11.9622    5.6294 H   0  0  0  0  0  0  0  0  0  0  0  0
   -3.1986  -13.6980    5.5392 H   0  0  0  0  0  0  0  0  0  0  0  0
   -3.6563  -12.6851    6.9624 H   0  0  0  0  0  0  0  0  0  0  0  0
   -4.6960   -7.5293    2.6198 H   0  0  0  0  0  0  0  0  0  0  0  0
    0.9170   -3.4928    0.3638 H   0  0  0  0  0  0  0  0  0  0  0  0
    1.7329   -1.1960    0.0051 H   0  0  0  0  0  0  0  0  0  0  0  0
    2.0639    0.9863    3.5590 H   0  0  0  0  0  0  0  0  0  0  0  0
    3.3087    0.7395    2.2718 H   0  0  0  0  0  0  0  0  0  0  0  0
    2.0641    3.4407    3.1179 H   0  0  0  0  0  0  0  0  0  0  0  0
    3.3575    3.2119    1.8694 H   0  0  0  0  0  0  0  0  0  0  0  0
    3.6951    2.8317    3.6028 H   0  0  0  0  0  0  0  0  0  0  0  0
   -1.3925   -2.1358    3.7434 H   0  0  0  0  0  0  0  0  0  0  0  0
   -1.6264   -3.4114   -0.3481 H   0  0  0  0  0  0  0  0  0  0  0  0
   -5.3253   -4.3264   -1.2699 H   0  0  0  0  0  0  0  0  0  0  0  0
   -8.3195   -2.0744   -3.7497 H   0  0  0  0  0  0  0  0  0  0  0  0
  -10.3113   -2.2044   -2.3023 H   0  0  0  0  0  0  0  0  0  0  0  0
  -10.7514   -4.5063   -0.6707 H   0  0  0  0  0  0  0  0  0  0  0  0
  -11.9231   -4.4522    0.6916 H   0  0  0  0  0  0  0  0  0  0  0  0
  -10.0491   -4.6815    2.3429 H   0  0  0  0  0  0  0  0  0  0  0  0
  -10.1244   -6.0699    1.1898 H   0  0  0  0  0  0  0  0  0  0  0  0
   -8.8703   -4.8041    0.9721 H   0  0  0  0  0  0  0  0  0  0  0  0
   -5.7888   -2.1649   -0.2558 H   0  0  0  0  0  0  0  0  0  0  0  0
   -2.3559   -3.2009   -6.7711 H   0  0  0  0  0  0  0  0  0  0  0  0
   -0.1597   -2.8652   -7.8482 H   0  0  0  0  0  0  0  0  0  0  0  0
    3.8179   -2.6377   -7.0331 H   0  0  0  0  0  0  0  0  0  0  0  0
    2.2850   -3.2630   -6.3339 H   0  0  0  0  0  0  0  0  0  0  0  0
    2.5158   -1.6937   -4.4003 H   0  0  0  0  0  0  0  0  0  0  0  0
    4.0047   -0.9747   -5.1471 H   0  0  0  0  0  0  0  0  0  0  0  0
    4.0001   -2.6902   -4.5843 H   0  0  0  0  0  0  0  0  0  0  0  0
   -1.4193   -0.1119   -3.9164 H   0  0  0  0  0  0  0  0  0  0  0  0
   -3.2711    0.7423   -5.6774 H   0  0  0  0  0  0  0  0  0  0  0  0
   -4.3858    2.3557   -2.1468 H   0  0  0  0  0  0  0  0  0  0  0  0
   -2.5547    4.9823    0.6149 H   0  0  0  0  0  0  0  0  0  0  0  0
   -3.1570    3.7701    2.6738 H   0  0  0  0  0  0  0  0  0  0  0  0
   -5.5563    2.1713    2.4064 H   0  0  0  0  0  0  0  0  0  0  0  0
   -5.9498    1.0565    3.7588 H   0  0  0  0  0  0  0  0  0  0  0  0
   -5.6080   -0.9156    2.2395 H   0  0  0  0  0  0  0  0  0  0  0  0
   -5.3168    0.2220    0.8588 H   0  0  0  0  0  0  0  0  0  0  0  0
   -6.9182    0.1933    1.6751 H   0  0  0  0  0  0  0  0  0  0  0  0
   -2.0675    1.2262   -1.4458 H   0  0  0  0  0  0  0  0  0  0  0  0
   -1.0835    7.6790   -5.0310 H   0  0  0  0  0  0  0  0  0  0  0  0
   -0.3965    8.6109   -7.2044 H   0  0  0  0  0  0  0  0  0  0  0  0
   -2.0734    6.6250  -10.1710 H   0  0  0  0  0  0  0  0  0  0  0  0
   -1.3832    7.5323  -11.5579 H   0  0  0  0  0  0  0  0  0  0  0  0
   -3.1289    8.8880  -10.4917 H   0  0  0  0  0  0  0  0  0  0  0  0
   -2.3212    8.7612   -8.8890 H   0  0  0  0  0  0  0  0  0  0  0  0
   -1.5237    9.6723  -10.2359 H   0  0  0  0  0  0  0  0  0  0  0  0
   -0.8844    3.7003   -6.6739 H   0  0  0  0  0  0  0  0  0  0  0  0
    1.2326    6.0874   -4.2075 H   0  0  0  0  0  0  0  0  0  0  0  0
    3.4707    6.8309   -3.6771 H   0  0  0  0  0  0  0  0  0  0  0  0
    7.2764    8.8117   -3.7256 H   0  0  0  0  0  0  0  0  0  0  0  0
    6.9729   10.2834   -5.6776 H   0  0  0  0  0  0  0  0  0  0  0  0
    7.3132   10.3774   -9.7406 H   0  0  0  0  0  0  0  0  0  0  0  0
    7.9222    9.4763   -8.3111 H   0  0  0  0  0  0  0  0  0  0  0  0
    6.0769    8.3058  -10.5046 H   0  0  0  0  0  0  0  0  0  0  0  0
    7.8684    8.1060  -10.4375 H   0  0  0  0  0  0  0  0  0  0  0  0
    6.8449    7.3923   -9.1401 H   0  0  0  0  0  0  0  0  0  0  0  0
    4.9269    5.7642   -5.6639 H   0  0  0  0  0  0  0  0  0  0  0  0
    6.0970    4.9128    1.5196 H   0  0  0  0  0  0  0  0  0  0  0  0
    6.1795    3.2152    3.3056 H   0  0  0  0  0  0  0  0  0  0  0  0
    8.9264    1.4642    3.2424 H   0  0  0  0  0  0  0  0  0  0  0  0
    9.0314   -0.3286    3.3952 H   0  0  0  0  0  0  0  0  0  0  0  0
    9.6822    0.7612    5.5080 H   0  0  0  0  0  0  0  0  0  0  0  0
    8.1417   -0.1490    5.7509 H   0  0  0  0  0  0  0  0  0  0  0  0
    8.1129    1.6560    5.5734 H   0  0  0  0  0  0  0  0  0  0  0  0
    7.2282    1.9197   -1.3688 H   0  0  0  0  0  0  0  0  0  0  0  0
    9.3357    3.8887   -0.8960 H   0  0  0  0  0  0  0  0  0  0  0  0
   10.9657    4.9591   -2.6226 H   0  0  0  0  0  0  0  0  0  0  0  0
  1  2  1  0
  2  3  2  0
  3  4  1  0
  4  5  2  0
  5  6  1  0
  4  7  1  0
  7  8  2  0
  3  9  1  0
  9 10  1  0
 10 11  2  0
 11 12  1  0
 12 13  2  0
 13 14  1  0
 12 15  1  0
 15 16  2  0
 11 17  1  0
 17 18  2  0
 18 19  1  0
 19 20  2  0
 20 21  1  0
 21 22  2  0
 22 23  1  0
 23 24  2  0
 24 25  1  0
 25 26  1  0
 26 27  1  0
 24 28  1  0
 28 29  1  0
 28 30  2  0
 20 31  1  0
 31 32  2  0
 32 33  1  0
 33 34  1  0
 34 35  2  0
 35 36  1  0
 36 37  2  0
 37 38  1  0
 38 39  1  0
 39 40  1  0
 37 41  1  0
 41 42  2  0
 41 43  1  0
 33 44  2  0
 44 45  1  0
 32 46  1  0
 46 47  2  0
 47 48  1  0
 47 49  1  0
 49 50  2  0
 50 51  1  0
 51 52  2  0
 52 53  1  0
 53 54  2  0
 54 55  1  0
 55 56  2  0
 56 57  1  0
 57 58  1  0
 58 59  1  0
 56 60  1  0
 60 61  1  0
 60 62  2  0
 52 63  1  0
 63 64  2  0
 64 65  1  0
 65 66  1  0
 66 67  2  0
 67 68  1  0
 68 69  2  0
 69 70  1  0
 70 71  1  0
 71 72  1  0
 69 73  1  0
 73 74  2  0
 73 75  1  0
 65 76  2  0
 76 77  1  0
 64 78  1  0
 78 79  2  0
 79 80  1  0
 79 81  1  0
 81 82  2  0
 82 83  1  0
 83 84  2  0
 84 85  1  0
 85 86  2  0
 86 87  1  0
 87 88  2  0
 88 89  1  0
 89 90  1  0
 90 91  1  0
 88 92  1  0
 92 93  1  0
 92 94  2  0
 84 95  1  0
 95 96  2  0
 96 97  1  0
 97 98  1  0
 98 99  2  0
 99100  1  0
100101  2  0
101102  1  0
102103  1  0
103104  1  0
101105  1  0
105106  2  0
105107  1  0
 97108  2  0
108109  1  0
 96110  1  0
110111  2  0
111112  1  0
111113  1  0
113114  2  0
114115  1  0
115116  2  0
116117  1  0
117118  2  0
118119  1  0
119120  2  0
120121  1  0
121122  1  0
122123  1  0
120124  1  0
124125  1  0
124126  2  0
116127  1  0
127128  2  0
128129  1  0
129130  1  0
130131  2  0
131132  1  0
132133  2  0
133134  1  0
134135  1  0
135136  1  0
133137  1  0
137138  2  0
137139  1  0
129140  2  0
140141  1  0
128142  1  0
142143  2  0
143144  1  0
  7  1  1  0
 15  9  1  0
 45 17  1  0
 77 49  1  0
109 81  1  0
141113  1  0
 44 19  1  0
 76 51  1  0
108 83  1  0
140115  1  0
 30 21  1  0
 48 31  1  0
 62 53  1  0
 80 63  1  0
 94 85  1  0
112 95  1  0
126117  1  0
144127  1  0
 42 34  1  0
 74 66  1  0
106 98  1  0
138130  1  0
  1145  1  0
  1146  1  0
  2147  1  0
  6148  1  0
  6149  1  0
  9150  1  0
 10151  1  0
 14152  1  0
 14153  1  0
 18154  1  0
 22155  1  0
 23156  1  0
 26157  1  0
 26158  1  0
 27159  1  0
 27160  1  0
 27161  1  0
 30162  1  0
 35163  1  0
 36164  1  0
 39165  1  0
 39166  1  0
 40167  1  0
 40168  1  0
 40169  1  0
 42170  1  0
 46171  1  0
 50172  1  0
 54173  1  0
 55174  1  0
 58175  1  0
 58176  1  0
 59177  1  0
 59178  1  0
 59179  1  0
 62180  1  0
 67181  1  0
 68182  1  0
 71183  1  0
 71184  1  0
 72185  1  0
 72186  1  0
 72187  1  0
 74188  1  0
 78189  1  0
 82190  1  0
 86191  1  0
 87192  1  0
 90193  1  0
 90194  1  0
 91195  1  0
 91196  1  0
 91197  1  0
 94198  1  0
 99199  1  0
100200  1  0
103201  1  0
103202  1  0
104203  1  0
104204  1  0
104205  1  0
106206  1  0
110207  1  0
114208  1  0
118209  1  0
119210  1  0
122211  1  0
122212  1  0
123213  1  0
123214  1  0
123215  1  0
126216  1  0
131217  1  0
132218  1  0
135219  1  0
135220  1  0
136221  1  0
136222  1  0
136223  1  0
138224  1  0
142225  1  0
143226  1  0
M  END

