
     RDKit          3D

222243  0  0  0  0  0  0  0  0999 V2000
    7.6101   -6.5856   13.6842 C   0  0  0  0  0  0  0  0  0  0  0  0
    7.6817   -5.4302   14.9005 S   0  0  0  0  0  0  0  0  0  0  0  0
    6.9906   -4.2187   13.9656 C   0  0  0  0  0  0  0  0  0  0  0  0
    6.7222   -4.7580   12.7113 C   0  0  0  0  0  0  0  0  0  0  0  0
    7.0662   -6.0687   12.5614 N   0  0  0  0  0  0  0  0  0  0  0  0
    6.0988   -3.9700   11.6330 C   0  0  0  0  0  0  0  0  0  0  0  0
    5.8449   -4.4971   10.4275 C   0  0  0  0  0  0  0  0  0  0  0  0
    5.1693   -3.7566    9.3467 C   0  0  0  0  0  0  0  0  0  0  0  0
    4.8113   -2.4064    9.3248 C   0  0  0  0  0  0  0  0  0  0  0  0
    4.1308   -2.0403    8.1500 C   0  0  0  0  0  0  0  0  0  0  0  0
    3.6685   -0.7511    7.8261 C   0  0  0  0  0  0  0  0  0  0  0  0
    3.7887    0.3886    8.7608 C   0  0  0  0  0  0  0  0  0  0  0  0
    3.1357    0.3593   10.0029 C   0  0  0  0  0  0  0  0  0  0  0  0
    3.2057    1.4626   10.8626 C   0  0  0  0  0  0  0  0  0  0  0  0
    3.9154    2.6074   10.4815 C   0  0  0  0  0  0  0  0  0  0  0  0
    3.9824    4.0247   11.5839 S   0  0  0  0  0  0  0  0  0  0  0  0
    2.3785    4.7278   11.0571 C   0  0  0  0  0  0  0  0  0  0  0  0
    2.5080    5.4617    9.7279 C   0  0  0  0  0  0  0  0  0  0  0  0
    4.5851    2.6325    9.2497 C   0  0  0  0  0  0  0  0  0  0  0  0
    5.2957    3.7251    8.8786 F   0  0  0  0  0  0  0  0  0  0  0  0
    4.5190    1.5310    8.3935 C   0  0  0  0  0  0  0  0  0  0  0  0
    3.0376   -0.5975    6.5786 C   0  0  0  0  0  0  0  0  0  0  0  0
    2.8289   -1.6614    5.6923 C   0  0  0  0  0  0  0  0  0  0  0  0
    3.2843   -2.9622    6.0205 C   0  0  0  0  0  0  0  0  0  0  0  0
    3.0894   -4.1371    5.1331 C   0  0  0  0  0  0  0  0  0  0  0  0
    3.5501   -4.1219    3.8058 C   0  0  0  0  0  0  0  0  0  0  0  0
    3.4884   -5.2808    3.0211 C   0  0  0  0  0  0  0  0  0  0  0  0
    3.0021   -6.4758    3.5673 C   0  0  0  0  0  0  0  0  0  0  0  0
    3.1078   -8.0024    2.6162 S   0  0  0  0  0  0  0  0  0  0  0  0
    1.3292   -8.1104    2.2201 C   0  0  0  0  0  0  0  0  0  0  0  0
    0.9440   -7.1149    1.1384 C   0  0  0  0  0  0  0  0  0  0  0  0
    2.5247   -6.4934    4.8836 C   0  0  0  0  0  0  0  0  0  0  0  0
    2.5436   -5.3253    5.6502 C   0  0  0  0  0  0  0  0  0  0  0  0
    2.0591   -7.6443    5.4320 F   0  0  0  0  0  0  0  0  0  0  0  0
    3.9463   -3.1038    7.2587 C   0  0  0  0  0  0  0  0  0  0  0  0
    4.6545   -4.4821    7.9178 S   0  0  0  0  0  0  0  0  0  0  0  0
    2.1094   -1.2777    4.5407 C   0  0  0  0  0  0  0  0  0  0  0  0
    1.7882    0.0853    4.5265 C   0  0  0  0  0  0  0  0  0  0  0  0
    2.3622    0.7999    5.9395 S   0  0  0  0  0  0  0  0  0  0  0  0
    0.9988    0.7998    3.5111 C   0  0  0  0  0  0  0  0  0  0  0  0
    0.3058    0.2276    2.4429 C   0  0  0  0  0  0  0  0  0  0  0  0
   -0.4769    1.1599    1.7344 C   0  0  0  0  0  0  0  0  0  0  0  0
   -1.3517    0.8747    0.6641 C   0  0  0  0  0  0  0  0  0  0  0  0
   -1.3592   -0.4662    0.0476 C   0  0  0  0  0  0  0  0  0  0  0  0
   -1.9418   -1.5471    0.7241 C   0  0  0  0  0  0  0  0  0  0  0  0
   -1.6408   -2.8601    0.3409 C   0  0  0  0  0  0  0  0  0  0  0  0
   -0.7395   -3.0995   -0.7037 C   0  0  0  0  0  0  0  0  0  0  0  0
   -0.1329   -4.7680   -0.9847 S   0  0  0  0  0  0  0  0  0  0  0  0
   -1.2222   -5.1666   -2.3896 C   0  0  0  0  0  0  0  0  0  0  0  0
   -2.6681   -5.3415   -1.9552 C   0  0  0  0  0  0  0  0  0  0  0  0
   -0.1951   -2.0175   -1.4095 C   0  0  0  0  0  0  0  0  0  0  0  0
    0.7327   -2.2268   -2.3736 F   0  0  0  0  0  0  0  0  0  0  0  0
   -0.5192   -0.7077   -1.0477 C   0  0  0  0  0  0  0  0  0  0  0  0
   -2.1314    1.9415    0.1745 C   0  0  0  0  0  0  0  0  0  0  0  0
   -2.0073    3.2457    0.6708 C   0  0  0  0  0  0  0  0  0  0  0  0
   -1.0935    3.5406    1.7031 C   0  0  0  0  0  0  0  0  0  0  0  0
   -0.9259    4.9048    2.2447 C   0  0  0  0  0  0  0  0  0  0  0  0
   -1.9860    5.5432    2.9082 C   0  0  0  0  0  0  0  0  0  0  0  0
   -1.8259    6.8386    3.4091 C   0  0  0  0  0  0  0  0  0  0  0  0
   -0.6069    7.5079    3.2501 C   0  0  0  0  0  0  0  0  0  0  0  0
   -0.4129    9.1729    3.8962 S   0  0  0  0  0  0  0  0  0  0  0  0
   -1.1384   10.0101    2.4376 C   0  0  0  0  0  0  0  0  0  0  0  0
   -0.1180   10.1380    1.3126 C   0  0  0  0  0  0  0  0  0  0  0  0
    0.4612    6.8677    2.6111 C   0  0  0  0  0  0  0  0  0  0  0  0
    0.3009    5.5720    2.1087 C   0  0  0  0  0  0  0  0  0  0  0  0
    1.6557    7.4947    2.4700 F   0  0  0  0  0  0  0  0  0  0  0  0
   -0.3590    2.4618    2.2244 C   0  0  0  0  0  0  0  0  0  0  0  0
    0.6754    2.4583    3.5484 S   0  0  0  0  0  0  0  0  0  0  0  0
   -2.9080    4.1475    0.0906 C   0  0  0  0  0  0  0  0  0  0  0  0
   -3.7860    3.5458   -0.8049 C   0  0  0  0  0  0  0  0  0  0  0  0
   -3.4011    1.9025   -0.9353 S   0  0  0  0  0  0  0  0  0  0  0  0
   -4.9923    4.1936   -1.3401 C   0  0  0  0  0  0  0  0  0  0  0  0
   -5.2648    5.8550   -1.3615 S   0  0  0  0  0  0  0  0  0  0  0  0
   -6.8768    5.7080   -1.8172 C   0  0  0  0  0  0  0  0  0  0  0  0
   -7.1618    4.3510   -1.9355 C   0  0  0  0  0  0  0  0  0  0  0  0
   -6.1180    3.5172   -1.6572 N   0  0  0  0  0  0  0  0  0  0  0  0
   -8.5307    3.8490   -2.1863 C   0  0  0  0  0  0  0  0  0  0  0  0
   -8.8086    2.6269   -2.6594 C   0  0  0  0  0  0  0  0  0  0  0  0
   -7.7752    1.7502   -3.2133 C   0  0  0  0  0  0  0  0  0  0  0  0
   -6.9292    2.1039   -4.2567 C   0  0  0  0  0  0  0  0  0  0  0  0
   -5.8750    1.1985   -4.4292 C   0  0  0  0  0  0  0  0  0  0  0  0
   -4.8327    1.3044   -5.3703 C   0  0  0  0  0  0  0  0  0  0  0  0
   -4.7651    2.4062   -6.3553 C   0  0  0  0  0  0  0  0  0  0  0  0
   -4.7648    2.1192   -7.7293 C   0  0  0  0  0  0  0  0  0  0  0  0
   -4.7168    3.1533   -8.6685 C   0  0  0  0  0  0  0  0  0  0  0  0
   -4.6945    4.4867   -8.2463 C   0  0  0  0  0  0  0  0  0  0  0  0
   -4.6641    5.8096   -9.4595 S   0  0  0  0  0  0  0  0  0  0  0  0
   -6.4790    6.0047   -9.5389 C   0  0  0  0  0  0  0  0  0  0  0  0
   -7.0972    4.9971  -10.4991 C   0  0  0  0  0  0  0  0  0  0  0  0
   -4.6786    4.7794   -6.8751 C   0  0  0  0  0  0  0  0  0  0  0  0
   -4.6459    6.0684   -6.4525 F   0  0  0  0  0  0  0  0  0  0  0  0
   -4.7052    3.7449   -5.9339 C   0  0  0  0  0  0  0  0  0  0  0  0
   -3.8518    0.3024   -5.3379 C   0  0  0  0  0  0  0  0  0  0  0  0
   -3.8896   -0.7730   -4.4425 C   0  0  0  0  0  0  0  0  0  0  0  0
   -4.9533   -0.8905   -3.5212 C   0  0  0  0  0  0  0  0  0  0  0  0
   -5.1028   -2.0345   -2.6054 C   0  0  0  0  0  0  0  0  0  0  0  0
   -4.8117   -1.8932   -1.2425 C   0  0  0  0  0  0  0  0  0  0  0  0
   -5.0729   -2.9436   -0.3564 C   0  0  0  0  0  0  0  0  0  0  0  0
   -5.6587   -4.1274   -0.8216 C   0  0  0  0  0  0  0  0  0  0  0  0
   -5.9438   -5.4955    0.3069 S   0  0  0  0  0  0  0  0  0  0  0  0
   -7.6265   -4.9716    0.7868 C   0  0  0  0  0  0  0  0  0  0  0  0
   -7.5764   -4.1535    2.0711 C   0  0  0  0  0  0  0  0  0  0  0  0
   -5.9595   -4.2639   -2.1847 C   0  0  0  0  0  0  0  0  0  0  0  0
   -5.6787   -3.2206   -3.0726 C   0  0  0  0  0  0  0  0  0  0  0  0
   -6.5269   -5.4040   -2.6488 F   0  0  0  0  0  0  0  0  0  0  0  0
   -5.9236    0.1247   -3.5351 C   0  0  0  0  0  0  0  0  0  0  0  0
   -7.2632    0.2985   -2.5247 S   0  0  0  0  0  0  0  0  0  0  0  0
   -2.7655   -1.6171   -4.5471 C   0  0  0  0  0  0  0  0  0  0  0  0
   -1.8552   -1.1803   -5.5199 C   0  0  0  0  0  0  0  0  0  0  0  0
   -2.4424    0.2257   -6.2386 S   0  0  0  0  0  0  0  0  0  0  0  0
   -0.5165   -1.7308   -5.7955 C   0  0  0  0  0  0  0  0  0  0  0  0
    0.4706   -1.0653   -6.5205 C   0  0  0  0  0  0  0  0  0  0  0  0
    1.7059   -1.7357   -6.5223 C   0  0  0  0  0  0  0  0  0  0  0  0
    2.9038   -1.2746   -7.1078 C   0  0  0  0  0  0  0  0  0  0  0  0
    2.9650    0.0005   -7.8526 C   0  0  0  0  0  0  0  0  0  0  0  0
    3.7798    1.0474   -7.3947 C   0  0  0  0  0  0  0  0  0  0  0  0
    3.8008    2.2705   -8.0696 C   0  0  0  0  0  0  0  0  0  0  0  0
    3.0042    2.4620   -9.2045 C   0  0  0  0  0  0  0  0  0  0  0  0
    3.0347    4.0450  -10.0497 S   0  0  0  0  0  0  0  0  0  0  0  0
    1.6646    4.7793   -9.0853 C   0  0  0  0  0  0  0  0  0  0  0  0
    2.0441    6.1846   -8.6383 C   0  0  0  0  0  0  0  0  0  0  0  0
    2.1954    1.4192   -9.6701 C   0  0  0  0  0  0  0  0  0  0  0  0
    1.4299    1.5876  -10.7795 F   0  0  0  0  0  0  0  0  0  0  0  0
    2.1764    0.1934   -8.9975 C   0  0  0  0  0  0  0  0  0  0  0  0
    4.0494   -2.0642   -6.9081 C   0  0  0  0  0  0  0  0  0  0  0  0
    4.0323   -3.2422   -6.1561 C   0  0  0  0  0  0  0  0  0  0  0  0
    2.8360   -3.6951   -5.5671 C   0  0  0  0  0  0  0  0  0  0  0  0
    2.8158   -4.8692   -4.6781 C   0  0  0  0  0  0  0  0  0  0  0  0
    2.7604   -6.1633   -5.2157 C   0  0  0  0  0  0  0  0  0  0  0  0
    2.8289   -7.2785   -4.3748 C   0  0  0  0  0  0  0  0  0  0  0  0
    2.9620   -7.1108   -2.9925 C   0  0  0  0  0  0  0  0  0  0  0  0
    3.0633   -8.5574   -1.9273 S   0  0  0  0  0  0  0  0  0  0  0  0
    4.8841   -8.5263   -1.7572 C   0  0  0  0  0  0  0  0  0  0  0  0
    5.5743   -9.0456   -3.0119 C   0  0  0  0  0  0  0  0  0  0  0  0
    2.9998   -5.8178   -2.4491 C   0  0  0  0  0  0  0  0  0  0  0  0
    2.9344   -4.7027   -3.2917 C   0  0  0  0  0  0  0  0  0  0  0  0
    3.1354   -5.6347   -1.1111 F   0  0  0  0  0  0  0  0  0  0  0  0
    1.6835   -2.9240   -5.7853 C   0  0  0  0  0  0  0  0  0  0  0  0
    0.1347   -3.1567   -5.1733 S   0  0  0  0  0  0  0  0  0  0  0  0
    5.2908   -3.8551   -6.0528 C   0  0  0  0  0  0  0  0  0  0  0  0
    6.2912   -3.1694   -6.7375 C   0  0  0  0  0  0  0  0  0  0  0  0
    5.6181   -1.8003   -7.4598 S   0  0  0  0  0  0  0  0  0  0  0  0
    7.9456   -7.6077   13.7705 H   0  0  0  0  0  0  0  0  0  0  0  0
    6.7876   -3.2031   14.2820 H   0  0  0  0  0  0  0  0  0  0  0  0
    5.8228   -2.9463   11.8502 H   0  0  0  0  0  0  0  0  0  0  0  0
    6.1071   -5.5297   10.2272 H   0  0  0  0  0  0  0  0  0  0  0  0
    5.0408   -1.7123   10.1191 H   0  0  0  0  0  0  0  0  0  0  0  0
    2.5565   -0.5064   10.3007 H   0  0  0  0  0  0  0  0  0  0  0  0
    2.6952    1.4327   11.8160 H   0  0  0  0  0  0  0  0  0  0  0  0
    2.0478    5.4513   11.8326 H   0  0  0  0  0  0  0  0  0  0  0  0
    1.6032    3.9317   10.9762 H   0  0  0  0  0  0  0  0  0  0  0  0
    1.5467    5.9622    9.4858 H   0  0  0  0  0  0  0  0  0  0  0  0
    3.3053    6.2332    9.7950 H   0  0  0  0  0  0  0  0  0  0  0  0
    2.7488    4.7515    8.9096 H   0  0  0  0  0  0  0  0  0  0  0  0
    5.0278    1.5666    7.4380 H   0  0  0  0  0  0  0  0  0  0  0  0
    3.9953   -3.2264    3.3920 H   0  0  0  0  0  0  0  0  0  0  0  0
    3.8606   -5.2600    2.0063 H   0  0  0  0  0  0  0  0  0  0  0  0
    0.7108   -7.9397    3.1284 H   0  0  0  0  0  0  0  0  0  0  0  0
    1.1233   -9.1363    1.8513 H   0  0  0  0  0  0  0  0  0  0  0  0
    1.5951   -7.2456    0.2490 H   0  0  0  0  0  0  0  0  0  0  0  0
    1.0334   -6.0751    1.5194 H   0  0  0  0  0  0  0  0  0  0  0  0
   -0.1113   -7.2944    0.8364 H   0  0  0  0  0  0  0  0  0  0  0  0
    2.1691   -5.3595    6.6648 H   0  0  0  0  0  0  0  0  0  0  0  0
    1.8103   -1.9620    3.7583 H   0  0  0  0  0  0  0  0  0  0  0  0
    0.3322   -0.8307    2.2197 H   0  0  0  0  0  0  0  0  0  0  0  0
   -2.5689   -1.3776    1.5912 H   0  0  0  0  0  0  0  0  0  0  0  0
   -2.0494   -3.6871    0.9043 H   0  0  0  0  0  0  0  0  0  0  0  0
   -0.8611   -6.1142   -2.8488 H   0  0  0  0  0  0  0  0  0  0  0  0
   -1.1687   -4.3647   -3.1496 H   0  0  0  0  0  0  0  0  0  0  0  0
   -3.0630   -4.3641   -1.6120 H   0  0  0  0  0  0  0  0  0  0  0  0
   -2.7445   -6.0834   -1.1303 H   0  0  0  0  0  0  0  0  0  0  0  0
   -3.2801   -5.6888   -2.8165 H   0  0  0  0  0  0  0  0  0  0  0  0
   -0.0366    0.1165   -1.5555 H   0  0  0  0  0  0  0  0  0  0  0  0
   -2.9375    5.0395    3.0325 H   0  0  0  0  0  0  0  0  0  0  0  0
   -2.6512    7.3240    3.9141 H   0  0  0  0  0  0  0  0  0  0  0  0
   -2.0362    9.4626    2.0769 H   0  0  0  0  0  0  0  0  0  0  0  0
   -1.4591   11.0271    2.7464 H   0  0  0  0  0  0  0  0  0  0  0  0
    0.1385    9.1364    0.9086 H   0  0  0  0  0  0  0  0  0  0  0  0
    0.8034   10.6349    1.6843 H   0  0  0  0  0  0  0  0  0  0  0  0
   -0.5479   10.7488    0.4886 H   0  0  0  0  0  0  0  0  0  0  0  0
    1.1289    5.0910    1.6022 H   0  0  0  0  0  0  0  0  0  0  0  0
   -2.9748    5.1929    0.3649 H   0  0  0  0  0  0  0  0  0  0  0  0
   -7.5731    6.5249   -1.9566 H   0  0  0  0  0  0  0  0  0  0  0  0
   -9.3614    4.4943   -1.9255 H   0  0  0  0  0  0  0  0  0  0  0  0
   -9.8370    2.2939   -2.7071 H   0  0  0  0  0  0  0  0  0  0  0  0
   -7.0560    3.0136   -4.8281 H   0  0  0  0  0  0  0  0  0  0  0  0
   -4.8029    1.0921   -8.0754 H   0  0  0  0  0  0  0  0  0  0  0  0
   -4.7130    2.9153   -9.7257 H   0  0  0  0  0  0  0  0  0  0  0  0
   -6.9357    5.8996   -8.5304 H   0  0  0  0  0  0  0  0  0  0  0  0
   -6.6991    7.0292   -9.9031 H   0  0  0  0  0  0  0  0  0  0  0  0
   -6.9715    3.9642  -10.1158 H   0  0  0  0  0  0  0  0  0  0  0  0
   -8.1841    5.2001  -10.6028 H   0  0  0  0  0  0  0  0  0  0  0  0
   -6.6199    5.0763  -11.4986 H   0  0  0  0  0  0  0  0  0  0  0  0
   -4.6813    3.9853   -4.8788 H   0  0  0  0  0  0  0  0  0  0  0  0
   -4.3877   -0.9722   -0.8655 H   0  0  0  0  0  0  0  0  0  0  0  0
   -4.8163   -2.8364    0.6894 H   0  0  0  0  0  0  0  0  0  0  0  0
   -8.2338   -5.8859    0.9620 H   0  0  0  0  0  0  0  0  0  0  0  0
   -8.1178   -4.3836   -0.0194 H   0  0  0  0  0  0  0  0  0  0  0  0
   -8.6086   -3.8964    2.3913 H   0  0  0  0  0  0  0  0  0  0  0  0
   -7.0879   -4.7421    2.8784 H   0  0  0  0  0  0  0  0  0  0  0  0
   -7.0120   -3.2098    1.9053 H   0  0  0  0  0  0  0  0  0  0  0  0
   -5.9368   -3.3264   -4.1178 H   0  0  0  0  0  0  0  0  0  0  0  0
   -2.5994   -2.4767   -3.9091 H   0  0  0  0  0  0  0  0  0  0  0  0
    0.3107   -0.1006   -6.9870 H   0  0  0  0  0  0  0  0  0  0  0  0
    4.3909    0.9181   -6.5131 H   0  0  0  0  0  0  0  0  0  0  0  0
    4.4321    3.0693   -7.7042 H   0  0  0  0  0  0  0  0  0  0  0  0
    1.4144    4.1777   -8.1841 H   0  0  0  0  0  0  0  0  0  0  0  0
    0.7628    4.8284   -9.7348 H   0  0  0  0  0  0  0  0  0  0  0  0
    2.8928    6.1398   -7.9201 H   0  0  0  0  0  0  0  0  0  0  0  0
    1.1775    6.6631   -8.1325 H   0  0  0  0  0  0  0  0  0  0  0  0
    2.3343    6.8062   -9.5124 H   0  0  0  0  0  0  0  0  0  0  0  0
    1.5414   -0.6030   -9.3637 H   0  0  0  0  0  0  0  0  0  0  0  0
    2.6724   -6.3063   -6.2854 H   0  0  0  0  0  0  0  0  0  0  0  0
    2.7917   -8.2709   -4.8006 H   0  0  0  0  0  0  0  0  0  0  0  0
    5.2374   -7.4957   -1.5247 H   0  0  0  0  0  0  0  0  0  0  0  0
    5.1599   -9.1826   -0.9032 H   0  0  0  0  0  0  0  0  0  0  0  0
    6.6725   -9.0652   -2.8435 H   0  0  0  0  0  0  0  0  0  0  0  0
    5.2301  -10.0764   -3.2410 H   0  0  0  0  0  0  0  0  0  0  0  0
    5.3639   -8.3823   -3.8749 H   0  0  0  0  0  0  0  0  0  0  0  0
    2.9932   -3.7096   -2.8616 H   0  0  0  0  0  0  0  0  0  0  0  0
    5.4798   -4.7695   -5.5101 H   0  0  0  0  0  0  0  0  0  0  0  0
    7.3301   -3.4655   -6.7911 H   0  0  0  0  0  0  0  0  0  0  0  0
  1  2  1  0
  2  3  1  0
  3  4  2  0
  4  5  1  0
  4  6  1  0
  6  7  2  3
  7  8  1  0
  8  9  2  0
  9 10  1  0
 10 11  2  0
 11 12  1  0
 12 13  2  0
 13 14  1  0
 14 15  2  0
 15 16  1  0
 16 17  1  0
 17 18  1  0
 15 19  1  0
 19 20  1  0
 19 21  2  0
 11 22  1  0
 22 23  2  0
 23 24  1  0
 24 25  1  0
 25 26  2  0
 26 27  1  0
 27 28  2  0
 28 29  1  0
 29 30  1  0
 30 31  1  0
 28 32  1  0
 32 33  2  0
 32 34  1  0
 24 35  2  0
 35 36  1  0
 23 37  1  0
 37 38  2  0
 38 39  1  0
 38 40  1  0
 40 41  2  0
 41 42  1  0
 42 43  2  0
 43 44  1  0
 44 45  2  0
 45 46  1  0
 46 47  2  0
 47 48  1  0
 48 49  1  0
 49 50  1  0
 47 51  1  0
 51 52  1  0
 51 53  2  0
 43 54  1  0
 54 55  2  0
 55 56  1  0
 56 57  1  0
 57 58  2  0
 58 59  1  0
 59 60  2  0
 60 61  1  0
 61 62  1  0
 62 63  1  0
 60 64  1  0
 64 65  2  0
 64 66  1  0
 56 67  2  0
 67 68  1  0
 55 69  1  0
 69 70  2  0
 70 71  1  0
 70 72  1  0
 72 73  1  0
 73 74  1  0
 74 75  2  0
 75 76  1  0
 75 77  1  0
 77 78  2  3
 78 79  1  0
 79 80  2  0
 80 81  1  0
 81 82  2  0
 82 83  1  0
 83 84  2  0
 84 85  1  0
 85 86  2  0
 86 87  1  0
 87 88  1  0
 88 89  1  0
 86 90  1  0
 90 91  1  0
 90 92  2  0
 82 93  1  0
 93 94  2  0
 94 95  1  0
 95 96  1  0
 96 97  2  0
 97 98  1  0
 98 99  2  0
 99100  1  0
100101  1  0
101102  1  0
 99103  1  0
103104  2  0
103105  1  0
 95106  2  0
106107  1  0
 94108  1  0
108109  2  0
109110  1  0
109111  1  0
111112  2  0
112113  1  0
113114  2  0
114115  1  0
115116  2  0
116117  1  0
117118  2  0
118119  1  0
119120  1  0
120121  1  0
118122  1  0
122123  1  0
122124  2  0
114125  1  0
125126  2  0
126127  1  0
127128  1  0
128129  2  0
129130  1  0
130131  2  0
131132  1  0
132133  1  0
133134  1  0
131135  1  0
135136  2  0
135137  1  0
127138  2  0
138139  1  0
126140  1  0
140141  2  0
141142  1  0
  5  1  2  0
 36  8  1  0
 68 40  1  0
 76 72  2  0
107 79  1  0
139111  1  0
 35 10  1  0
 67 42  1  0
106 81  1  0
138113  1  0
 21 12  1  0
 39 22  1  0
 53 44  1  0
 71 54  1  0
 92 83  1  0
110 93  1  0
124115  1  0
142125  1  0
 33 25  1  0
 65 57  1  0
104 96  1  0
136128  1  0
  1143  1  0
  3144  1  0
  6145  1  0
  7146  1  0
  9147  1  0
 13148  1  0
 14149  1  0
 17150  1  0
 17151  1  0
 18152  1  0
 18153  1  0
 18154  1  0
 21155  1  0
 26156  1  0
 27157  1  0
 30158  1  0
 30159  1  0
 31160  1  0
 31161  1  0
 31162  1  0
 33163  1  0
 37164  1  0
 41165  1  0
 45166  1  0
 46167  1  0
 49168  1  0
 49169  1  0
 50170  1  0
 50171  1  0
 50172  1  0
 53173  1  0
 58174  1  0
 59175  1  0
 62176  1  0
 62177  1  0
 63178  1  0
 63179  1  0
 63180  1  0
 65181  1  0
 69182  1  0
 74183  1  0
 77184  1  0
 78185  1  0
 80186  1  0
 84187  1  0
 85188  1  0
 88189  1  0
 88190  1  0
 89191  1  0
 89192  1  0
 89193  1  0
 92194  1  0
 97195  1  0
 98196  1  0
101197  1  0
101198  1  0
102199  1  0
102200  1  0
102201  1  0
104202  1  0
108203  1  0
112204  1  0
116205  1  0
117206  1  0
120207  1  0
120208  1  0
121209  1  0
121210  1  0
121211  1  0
124212  1  0
129213  1  0
130214  1  0
133215  1  0
133216  1  0
134217  1  0
134218  1  0
134219  1  0
136220  1  0
140221  1  0
141222  1  0
M  END

