
     RDKit          3D

190211  0  0  0  0  0  0  0  0999 V2000
   13.0834   -1.4016    8.5939 C   0  0  0  0  0  0  0  0  0  0  0  0
   12.2070   -0.3453    8.3669 C   0  0  0  0  0  0  0  0  0  0  0  0
   10.8613   -0.7443    8.3198 C   0  0  0  0  0  0  0  0  0  0  0  0
    9.7470    0.0960    8.1230 C   0  0  0  0  0  0  0  0  0  0  0  0
    9.8931    1.5445    7.9005 C   0  0  0  0  0  0  0  0  0  0  0  0
   10.5803    2.2445    6.5352 S   0  0  0  0  0  0  0  0  0  0  0  0
   10.3675    3.8460    7.0218 C   0  0  0  0  0  0  0  0  0  0  0  0
   10.7505    5.0808    6.2500 C   0  0  0  0  0  0  0  0  0  0  0  0
   11.4243    4.7780    4.9139 C   0  0  0  0  0  0  0  0  0  0  0  0
    9.7511    3.8425    8.2727 C   0  0  0  0  0  0  0  0  0  0  0  0
    9.3471    5.3086    9.1544 Cl  0  0  0  0  0  0  0  0  0  0  0  0
    9.4839    2.5557    8.7639 C   0  0  0  0  0  0  0  0  0  0  0  0
    8.7423    2.2537   10.3281 Cl  0  0  0  0  0  0  0  0  0  0  0  0
    8.4820   -0.5127    8.1370 C   0  0  0  0  0  0  0  0  0  0  0  0
    8.3076   -1.8856    8.3473 C   0  0  0  0  0  0  0  0  0  0  0  0
    9.4222   -2.7277    8.5420 C   0  0  0  0  0  0  0  0  0  0  0  0
    9.2843   -4.1876    8.6949 C   0  0  0  0  0  0  0  0  0  0  0  0
    9.8817   -5.3185    7.6023 S   0  0  0  0  0  0  0  0  0  0  0  0
    9.2923   -6.6757    8.4049 C   0  0  0  0  0  0  0  0  0  0  0  0
    9.4068   -8.0804    7.8912 C   0  0  0  0  0  0  0  0  0  0  0  0
    8.2662   -8.3971    6.9306 C   0  0  0  0  0  0  0  0  0  0  0  0
    8.5986   -6.2562    9.5398 C   0  0  0  0  0  0  0  0  0  0  0  0
    8.6003   -4.8604    9.7071 C   0  0  0  0  0  0  0  0  0  0  0  0
    7.8452   -4.0530   11.0751 Cl  0  0  0  0  0  0  0  0  0  0  0  0
    7.7828   -7.3575   10.6413 Cl  0  0  0  0  0  0  0  0  0  0  0  0
   10.6887   -2.1173    8.5181 C   0  0  0  0  0  0  0  0  0  0  0  0
   12.1962   -2.8279    8.7463 S   0  0  0  0  0  0  0  0  0  0  0  0
    6.9657   -2.2887    8.2698 C   0  0  0  0  0  0  0  0  0  0  0  0
    6.0974   -1.2348    7.9910 C   0  0  0  0  0  0  0  0  0  0  0  0
    6.9831    0.1935    7.8310 S   0  0  0  0  0  0  0  0  0  0  0  0
    4.6517   -1.3686    7.7625 C   0  0  0  0  0  0  0  0  0  0  0  0
    3.8593   -2.4238    8.2082 C   0  0  0  0  0  0  0  0  0  0  0  0
    2.5461   -2.3653    7.7173 C   0  0  0  0  0  0  0  0  0  0  0  0
    1.5302   -3.3144    7.9451 C   0  0  0  0  0  0  0  0  0  0  0  0
    1.7532   -4.5113    8.7731 C   0  0  0  0  0  0  0  0  0  0  0  0
    2.7758   -5.7810    8.3629 S   0  0  0  0  0  0  0  0  0  0  0  0
    2.4523   -6.7166    9.7226 C   0  0  0  0  0  0  0  0  0  0  0  0
    3.0076   -8.0863    9.9618 C   0  0  0  0  0  0  0  0  0  0  0  0
    2.0441   -9.1552    9.4557 C   0  0  0  0  0  0  0  0  0  0  0  0
    1.5156   -6.0483   10.5108 C   0  0  0  0  0  0  0  0  0  0  0  0
    0.8682   -6.6968   12.0127 Cl  0  0  0  0  0  0  0  0  0  0  0  0
    1.1251   -4.8094    9.9777 C   0  0  0  0  0  0  0  0  0  0  0  0
   -0.0280   -3.7382   10.7624 Cl  0  0  0  0  0  0  0  0  0  0  0  0
    0.3171   -3.1216    7.2638 C   0  0  0  0  0  0  0  0  0  0  0  0
    0.1104   -2.0541    6.3820 C   0  0  0  0  0  0  0  0  0  0  0  0
    1.1083   -1.0756    6.1944 C   0  0  0  0  0  0  0  0  0  0  0  0
    0.9351    0.0462    5.2558 C   0  0  0  0  0  0  0  0  0  0  0  0
    0.7571   -0.1138    3.5908 S   0  0  0  0  0  0  0  0  0  0  0  0
    0.5813    1.5280    3.2694 C   0  0  0  0  0  0  0  0  0  0  0  0
    0.2731    2.0996    1.9192 C   0  0  0  0  0  0  0  0  0  0  0  0
   -1.2319    2.1378    1.6836 C   0  0  0  0  0  0  0  0  0  0  0  0
    0.6442    2.2265    4.4758 C   0  0  0  0  0  0  0  0  0  0  0  0
    0.8539    1.3966    5.5881 C   0  0  0  0  0  0  0  0  0  0  0  0
    0.9512    1.9955    7.2388 Cl  0  0  0  0  0  0  0  0  0  0  0  0
    0.4581    3.9713    4.5991 Cl  0  0  0  0  0  0  0  0  0  0  0  0
    2.3172   -1.2621    6.8868 C   0  0  0  0  0  0  0  0  0  0  0  0
    3.7338   -0.3583    6.7701 S   0  0  0  0  0  0  0  0  0  0  0  0
   -1.1092   -2.1404    5.6927 C   0  0  0  0  0  0  0  0  0  0  0  0
   -1.8498   -3.2686    6.0332 C   0  0  0  0  0  0  0  0  0  0  0  0
   -1.0023   -4.1641    7.1849 S   0  0  0  0  0  0  0  0  0  0  0  0
   -2.9557   -3.7978    5.2345 C   0  0  0  0  0  0  0  0  0  0  0  0
   -4.1974   -4.7784    5.7974 S   0  0  0  0  0  0  0  0  0  0  0  0
   -4.7812   -5.1253    4.2536 C   0  0  0  0  0  0  0  0  0  0  0  0
   -3.9426   -4.4980    3.3347 C   0  0  0  0  0  0  0  0  0  0  0  0
   -2.9444   -3.7587    3.8861 N   0  0  0  0  0  0  0  0  0  0  0  0
   -4.0161   -4.7464    1.8845 C   0  0  0  0  0  0  0  0  0  0  0  0
   -2.9464   -4.5413    1.1054 C   0  0  0  0  0  0  0  0  0  0  0  0
   -2.8915   -4.9305   -0.3085 C   0  0  0  0  0  0  0  0  0  0  0  0
   -4.1968   -5.3019   -1.3038 S   0  0  0  0  0  0  0  0  0  0  0  0
   -3.2273   -5.6437   -2.6360 C   0  0  0  0  0  0  0  0  0  0  0  0
   -1.9002   -5.4525   -2.2591 C   0  0  0  0  0  0  0  0  0  0  0  0
   -1.7227   -5.0721   -0.9662 N   0  0  0  0  0  0  0  0  0  0  0  0
   -0.7443   -5.7617   -3.1172 C   0  0  0  0  0  0  0  0  0  0  0  0
   -0.4991   -5.1660   -4.2886 C   0  0  0  0  0  0  0  0  0  0  0  0
   -1.3244   -4.0823   -4.8293 C   0  0  0  0  0  0  0  0  0  0  0  0
   -1.0227   -2.7274   -4.7326 C   0  0  0  0  0  0  0  0  0  0  0  0
   -1.9545   -1.9179   -5.4010 C   0  0  0  0  0  0  0  0  0  0  0  0
   -1.9328   -0.5126   -5.4857 C   0  0  0  0  0  0  0  0  0  0  0  0
   -0.8756    0.2954   -4.8514 C   0  0  0  0  0  0  0  0  0  0  0  0
   -0.6669    0.4685   -3.1898 S   0  0  0  0  0  0  0  0  0  0  0  0
    0.5976    1.5777   -3.2847 C   0  0  0  0  0  0  0  0  0  0  0  0
    1.2040    2.2776   -2.1075 C   0  0  0  0  0  0  0  0  0  0  0  0
    0.4064    3.5295   -1.7630 C   0  0  0  0  0  0  0  0  0  0  0  0
    0.8578    1.8448   -4.6276 C   0  0  0  0  0  0  0  0  0  0  0  0
    2.0634    3.0022   -5.1756 Cl  0  0  0  0  0  0  0  0  0  0  0  0
    0.0351    1.1224   -5.5054 C   0  0  0  0  0  0  0  0  0  0  0  0
    0.1615    1.2362   -7.2574 Cl  0  0  0  0  0  0  0  0  0  0  0  0
   -2.9790    0.0973   -6.2007 C   0  0  0  0  0  0  0  0  0  0  0  0
   -3.9962   -0.6370   -6.8210 C   0  0  0  0  0  0  0  0  0  0  0  0
   -4.0015   -2.0448   -6.7606 C   0  0  0  0  0  0  0  0  0  0  0  0
   -5.0218   -2.8550   -7.4484 C   0  0  0  0  0  0  0  0  0  0  0  0
   -4.6962   -3.9306   -8.7004 S   0  0  0  0  0  0  0  0  0  0  0  0
   -6.2852   -4.4329   -8.9251 C   0  0  0  0  0  0  0  0  0  0  0  0
   -6.7266   -5.3956   -9.9858 C   0  0  0  0  0  0  0  0  0  0  0  0
   -7.1092   -4.6532  -11.2616 C   0  0  0  0  0  0  0  0  0  0  0  0
   -7.1011   -3.7478   -8.0247 C   0  0  0  0  0  0  0  0  0  0  0  0
   -6.3911   -2.8712   -7.1885 C   0  0  0  0  0  0  0  0  0  0  0  0
   -7.1486   -1.9287   -5.9115 Cl  0  0  0  0  0  0  0  0  0  0  0  0
   -8.8467   -3.9509   -7.9495 Cl  0  0  0  0  0  0  0  0  0  0  0  0
   -2.9610   -2.6516   -6.0396 C   0  0  0  0  0  0  0  0  0  0  0  0
   -2.7041   -4.2945   -5.7710 S   0  0  0  0  0  0  0  0  0  0  0  0
   -4.9408    0.1724   -7.4715 C   0  0  0  0  0  0  0  0  0  0  0  0
   -4.6753    1.5324   -7.3342 C   0  0  0  0  0  0  0  0  0  0  0  0
   -3.2668    1.7395   -6.4284 S   0  0  0  0  0  0  0  0  0  0  0  0
   -5.5285    2.6169   -7.8312 C   0  0  0  0  0  0  0  0  0  0  0  0
   -5.1892    3.9674   -7.8726 C   0  0  0  0  0  0  0  0  0  0  0  0
   -6.2349    4.7763   -8.3482 C   0  0  0  0  0  0  0  0  0  0  0  0
   -6.2004    6.1740   -8.5131 C   0  0  0  0  0  0  0  0  0  0  0  0
   -4.9822    6.9566   -8.2483 C   0  0  0  0  0  0  0  0  0  0  0  0
   -3.5816    6.8814   -9.1774 S   0  0  0  0  0  0  0  0  0  0  0  0
   -2.7218    8.0287   -8.2962 C   0  0  0  0  0  0  0  0  0  0  0  0
   -1.3612    8.5344   -8.6649 C   0  0  0  0  0  0  0  0  0  0  0  0
   -1.4695    9.7811   -9.5361 C   0  0  0  0  0  0  0  0  0  0  0  0
   -3.5335    8.4992   -7.2649 C   0  0  0  0  0  0  0  0  0  0  0  0
   -3.0313    9.7392   -6.1228 Cl  0  0  0  0  0  0  0  0  0  0  0  0
   -4.8005    7.8931   -7.2339 C   0  0  0  0  0  0  0  0  0  0  0  0
   -6.0210    8.2577   -6.0213 Cl  0  0  0  0  0  0  0  0  0  0  0  0
   -7.3751    6.7874   -8.9813 C   0  0  0  0  0  0  0  0  0  0  0  0
   -8.5374    6.0671   -9.2784 C   0  0  0  0  0  0  0  0  0  0  0  0
   -8.5727    4.6686   -9.1123 C   0  0  0  0  0  0  0  0  0  0  0  0
   -9.7848    3.8770   -9.3870 C   0  0  0  0  0  0  0  0  0  0  0  0
  -10.4481    3.6305  -10.9121 S   0  0  0  0  0  0  0  0  0  0  0  0
  -11.7028    2.6318  -10.4026 C   0  0  0  0  0  0  0  0  0  0  0  0
  -12.6953    1.9722  -11.3149 C   0  0  0  0  0  0  0  0  0  0  0  0
  -12.2567    0.5507  -11.6529 C   0  0  0  0  0  0  0  0  0  0  0  0
  -11.6058    2.4617   -9.0226 C   0  0  0  0  0  0  0  0  0  0  0  0
  -10.5331    3.1622   -8.4523 C   0  0  0  0  0  0  0  0  0  0  0  0
  -10.1846    3.1575   -6.7275 Cl  0  0  0  0  0  0  0  0  0  0  0  0
  -12.6984    1.4493   -8.0869 Cl  0  0  0  0  0  0  0  0  0  0  0  0
   -7.3949    4.0559   -8.6518 C   0  0  0  0  0  0  0  0  0  0  0  0
   -7.1142    2.4200   -8.3753 S   0  0  0  0  0  0  0  0  0  0  0  0
   -9.5917    6.8812   -9.7187 C   0  0  0  0  0  0  0  0  0  0  0  0
   -9.2497    8.2298   -9.7878 C   0  0  0  0  0  0  0  0  0  0  0  0
   -7.6473    8.4172   -9.2948 S   0  0  0  0  0  0  0  0  0  0  0  0
   14.1593   -1.3180    8.6700 H   0  0  0  0  0  0  0  0  0  0  0  0
   12.5441    0.6763    8.2459 H   0  0  0  0  0  0  0  0  0  0  0  0
    9.8344    5.6792    6.0564 H   0  0  0  0  0  0  0  0  0  0  0  0
   11.4405    5.6932    6.8698 H   0  0  0  0  0  0  0  0  0  0  0  0
   12.3641    4.2064    5.0742 H   0  0  0  0  0  0  0  0  0  0  0  0
   11.6728    5.7299    4.4027 H   0  0  0  0  0  0  0  0  0  0  0  0
   10.7412    4.1956    4.2595 H   0  0  0  0  0  0  0  0  0  0  0  0
   10.3748   -8.2013    7.3610 H   0  0  0  0  0  0  0  0  0  0  0  0
    9.3934   -8.7979    8.7375 H   0  0  0  0  0  0  0  0  0  0  0  0
    7.2868   -8.2669    7.4367 H   0  0  0  0  0  0  0  0  0  0  0  0
    8.3115   -7.7282    6.0441 H   0  0  0  0  0  0  0  0  0  0  0  0
    8.3530   -9.4482    6.5861 H   0  0  0  0  0  0  0  0  0  0  0  0
    6.6387   -3.3157    8.3645 H   0  0  0  0  0  0  0  0  0  0  0  0
    4.2323   -3.2147    8.8441 H   0  0  0  0  0  0  0  0  0  0  0  0
    3.9779   -8.1878    9.4312 H   0  0  0  0  0  0  0  0  0  0  0  0
    3.1921   -8.2343   11.0467 H   0  0  0  0  0  0  0  0  0  0  0  0
    1.8594   -9.0249    8.3675 H   0  0  0  0  0  0  0  0  0  0  0  0
    2.4843  -10.1619    9.6218 H   0  0  0  0  0  0  0  0  0  0  0  0
    1.0766   -9.0936   10.0005 H   0  0  0  0  0  0  0  0  0  0  0  0
    0.6926    3.1249    1.8306 H   0  0  0  0  0  0  0  0  0  0  0  0
    0.7512    1.4675    1.1415 H   0  0  0  0  0  0  0  0  0  0  0  0
   -1.7192    2.8069    2.4234 H   0  0  0  0  0  0  0  0  0  0  0  0
   -1.4411    2.5215    0.6654 H   0  0  0  0  0  0  0  0  0  0  0  0
   -1.6638    1.1178    1.7741 H   0  0  0  0  0  0  0  0  0  0  0  0
   -1.4196   -1.4462    4.9224 H   0  0  0  0  0  0  0  0  0  0  0  0
   -5.6011   -5.7900    4.0220 H   0  0  0  0  0  0  0  0  0  0  0  0
   -4.9063   -5.2090    1.4770 H   0  0  0  0  0  0  0  0  0  0  0  0
   -2.0318   -4.1529    1.5366 H   0  0  0  0  0  0  0  0  0  0  0  0
   -3.5778   -6.0008   -3.5937 H   0  0  0  0  0  0  0  0  0  0  0  0
    0.0013   -6.4437   -2.7261 H   0  0  0  0  0  0  0  0  0  0  0  0
    0.4214   -5.4043   -4.8093 H   0  0  0  0  0  0  0  0  0  0  0  0
   -0.1593   -2.3498   -4.2015 H   0  0  0  0  0  0  0  0  0  0  0  0
    2.2541    2.5578   -2.3309 H   0  0  0  0  0  0  0  0  0  0  0  0
    1.2106    1.5919   -1.2374 H   0  0  0  0  0  0  0  0  0  0  0  0
    0.8791    4.0488   -0.9050 H   0  0  0  0  0  0  0  0  0  0  0  0
    0.3838    4.2205   -2.6313 H   0  0  0  0  0  0  0  0  0  0  0  0
   -0.6338    3.2581   -1.4879 H   0  0  0  0  0  0  0  0  0  0  0  0
   -5.8979   -6.1025  -10.2096 H   0  0  0  0  0  0  0  0  0  0  0  0
   -7.5936   -5.9902   -9.6259 H   0  0  0  0  0  0  0  0  0  0  0  0
   -7.9601   -3.9670  -11.0695 H   0  0  0  0  0  0  0  0  0  0  0  0
   -6.2446   -4.0672  -11.6390 H   0  0  0  0  0  0  0  0  0  0  0  0
   -7.4079   -5.3854  -12.0405 H   0  0  0  0  0  0  0  0  0  0  0  0
   -5.7925   -0.2127   -8.0155 H   0  0  0  0  0  0  0  0  0  0  0  0
   -4.2251    4.3500   -7.5632 H   0  0  0  0  0  0  0  0  0  0  0  0
   -0.7804    8.7673   -7.7477 H   0  0  0  0  0  0  0  0  0  0  0  0
   -0.8138    7.7455   -9.2237 H   0  0  0  0  0  0  0  0  0  0  0  0
   -1.9860   10.5943   -8.9846 H   0  0  0  0  0  0  0  0  0  0  0  0
   -0.4518   10.1271   -9.8143 H   0  0  0  0  0  0  0  0  0  0  0  0
   -2.0344    9.5536  -10.4648 H   0  0  0  0  0  0  0  0  0  0  0  0
  -12.7817    2.5589  -12.2535 H   0  0  0  0  0  0  0  0  0  0  0  0
  -13.6949    1.9498  -10.8328 H   0  0  0  0  0  0  0  0  0  0  0  0
  -12.1684   -0.0581  -10.7282 H   0  0  0  0  0  0  0  0  0  0  0  0
  -13.0108    0.0801  -12.3162 H   0  0  0  0  0  0  0  0  0  0  0  0
  -11.2783    0.5641  -12.1782 H   0  0  0  0  0  0  0  0  0  0  0  0
  -10.5734    6.5140   -9.9841 H   0  0  0  0  0  0  0  0  0  0  0  0
   -9.9090    9.0280  -10.1039 H   0  0  0  0  0  0  0  0  0  0  0  0
  1  2  2  0
  2  3  1  0
  3  4  2  0
  4  5  1  0
  5  6  1  0
  6  7  1  0
  7  8  1  0
  8  9  1  0
  7 10  2  0
 10 11  1  0
 10 12  1  0
 12 13  1  0
  4 14  1  0
 14 15  2  0
 15 16  1  0
 16 17  1  0
 17 18  1  0
 18 19  1  0
 19 20  1  0
 20 21  1  0
 19 22  2  0
 22 23  1  0
 23 24  1  0
 22 25  1  0
 16 26  2  0
 26 27  1  0
 15 28  1  0
 28 29  2  0
 29 30  1  0
 29 31  1  0
 31 32  2  0
 32 33  1  0
 33 34  2  0
 34 35  1  0
 35 36  1  0
 36 37  1  0
 37 38  1  0
 38 39  1  0
 37 40  2  0
 40 41  1  0
 40 42  1  0
 42 43  1  0
 34 44  1  0
 44 45  2  0
 45 46  1  0
 46 47  1  0
 47 48  1  0
 48 49  1  0
 49 50  1  0
 50 51  1  0
 49 52  2  0
 52 53  1  0
 53 54  1  0
 52 55  1  0
 46 56  2  0
 56 57  1  0
 45 58  1  0
 58 59  2  0
 59 60  1  0
 59 61  1  0
 61 62  1  0
 62 63  1  0
 63 64  2  0
 64 65  1  0
 64 66  1  0
 66 67  2  3
 67 68  1  0
 68 69  1  0
 69 70  1  0
 70 71  2  0
 71 72  1  0
 71 73  1  0
 73 74  2  3
 74 75  1  0
 75 76  2  0
 76 77  1  0
 77 78  2  0
 78 79  1  0
 79 80  1  0
 80 81  1  0
 81 82  1  0
 82 83  1  0
 81 84  2  0
 84 85  1  0
 84 86  1  0
 86 87  1  0
 78 88  1  0
 88 89  2  0
 89 90  1  0
 90 91  1  0
 91 92  1  0
 92 93  1  0
 93 94  1  0
 94 95  1  0
 93 96  2  0
 96 97  1  0
 97 98  1  0
 96 99  1  0
 90100  2  0
100101  1  0
 89102  1  0
102103  2  0
103104  1  0
103105  1  0
105106  2  0
106107  1  0
107108  2  0
108109  1  0
109110  1  0
110111  1  0
111112  1  0
112113  1  0
111114  2  0
114115  1  0
114116  1  0
116117  1  0
108118  1  0
118119  2  0
119120  1  0
120121  1  0
121122  1  0
122123  1  0
123124  1  0
124125  1  0
123126  2  0
126127  1  0
127128  1  0
126129  1  0
120130  2  0
130131  1  0
119132  1  0
132133  2  0
133134  1  0
 27  1  1  0
 57 31  1  0
 65 61  2  0
 72 68  2  0
101 75  1  0
131105  1  0
 26  3  1  0
 56 33  1  0
100 77  1  0
130107  1  0
 12  5  2  0
 30 14  1  0
 42 35  2  0
 60 44  1  0
 86 79  2  0
104 88  1  0
116109  2  0
134118  1  0
 23 17  2  0
 53 47  2  0
 97 91  2  0
127121  2  0
  1135  1  0
  2136  1  0
  8137  1  0
  8138  1  0
  9139  1  0
  9140  1  0
  9141  1  0
 20142  1  0
 20143  1  0
 21144  1  0
 21145  1  0
 21146  1  0
 28147  1  0
 32148  1  0
 38149  1  0
 38150  1  0
 39151  1  0
 39152  1  0
 39153  1  0
 50154  1  0
 50155  1  0
 51156  1  0
 51157  1  0
 51158  1  0
 58159  1  0
 63160  1  0
 66161  1  0
 67162  1  0
 70163  1  0
 73164  1  0
 74165  1  0
 76166  1  0
 82167  1  0
 82168  1  0
 83169  1  0
 83170  1  0
 83171  1  0
 94172  1  0
 94173  1  0
 95174  1  0
 95175  1  0
 95176  1  0
102177  1  0
106178  1  0
112179  1  0
112180  1  0
113181  1  0
113182  1  0
113183  1  0
124184  1  0
124185  1  0
125186  1  0
125187  1  0
125188  1  0
132189  1  0
133190  1  0
M  END

