
     RDKit          3D

267293  0  0  0  0  0  0  0  0999 V2000
   -3.8241   -7.6621    7.3097 C   0  0  0  0  0  0  0  0  0  0  0  0
   -3.2024   -6.4423    7.0594 C   0  0  0  0  0  0  0  0  0  0  0  0
   -3.8599   -5.6780    6.0797 C   0  0  0  0  0  0  0  0  0  0  0  0
   -3.4457   -4.4263    5.5872 C   0  0  0  0  0  0  0  0  0  0  0  0
   -2.1818   -3.7974    6.0149 C   0  0  0  0  0  0  0  0  0  0  0  0
   -0.9604   -4.2621    5.5057 C   0  0  0  0  0  0  0  0  0  0  0  0
    0.2386   -3.6390    5.8659 C   0  0  0  0  0  0  0  0  0  0  0  0
    0.2253   -2.5572    6.7554 C   0  0  0  0  0  0  0  0  0  0  0  0
    1.7720   -1.7513    7.1921 S   0  0  0  0  0  0  0  0  0  0  0  0
    1.7454   -0.5705    5.7972 C   0  0  0  0  0  0  0  0  0  0  0  0
    0.8993    0.6513    6.1303 C   0  0  0  0  0  0  0  0  0  0  0  0
   -0.9915   -2.1184    7.3020 C   0  0  0  0  0  0  0  0  0  0  0  0
   -1.0126   -1.0988    8.1956 F   0  0  0  0  0  0  0  0  0  0  0  0
   -2.1928   -2.7298    6.9241 C   0  0  0  0  0  0  0  0  0  0  0  0
   -4.2482   -3.8368    4.5949 C   0  0  0  0  0  0  0  0  0  0  0  0
   -5.3911   -4.4580    4.0797 C   0  0  0  0  0  0  0  0  0  0  0  0
   -5.7876   -5.7275    4.5496 C   0  0  0  0  0  0  0  0  0  0  0  0
   -6.9040   -6.4785    3.9296 C   0  0  0  0  0  0  0  0  0  0  0  0
   -6.8691   -6.7856    2.5597 C   0  0  0  0  0  0  0  0  0  0  0  0
   -7.9054   -7.5148    1.9735 C   0  0  0  0  0  0  0  0  0  0  0  0
   -8.9759   -7.9628    2.7523 C   0  0  0  0  0  0  0  0  0  0  0  0
  -10.2707   -8.9556    1.9988 S   0  0  0  0  0  0  0  0  0  0  0  0
   -9.3921  -10.5502    2.2019 C   0  0  0  0  0  0  0  0  0  0  0  0
   -8.8030  -10.9988    0.8692 C   0  0  0  0  0  0  0  0  0  0  0  0
   -9.0253   -7.6516    4.1188 C   0  0  0  0  0  0  0  0  0  0  0  0
   -7.9928   -6.9101    4.7051 C   0  0  0  0  0  0  0  0  0  0  0  0
  -10.0701   -8.0612    4.8796 F   0  0  0  0  0  0  0  0  0  0  0  0
   -5.0036   -6.2990    5.5702 C   0  0  0  0  0  0  0  0  0  0  0  0
   -5.1818   -7.7984    6.3164 S   0  0  0  0  0  0  0  0  0  0  0  0
   -6.0161   -3.7114    3.0676 C   0  0  0  0  0  0  0  0  0  0  0  0
   -5.3453   -2.5260    2.7733 C   0  0  0  0  0  0  0  0  0  0  0  0
   -3.9922   -2.3892    3.7757 S   0  0  0  0  0  0  0  0  0  0  0  0
   -5.6883   -1.6040    1.6789 C   0  0  0  0  0  0  0  0  0  0  0  0
   -4.8866   -0.5582    1.2280 C   0  0  0  0  0  0  0  0  0  0  0  0
   -5.3956    0.0754    0.0806 C   0  0  0  0  0  0  0  0  0  0  0  0
   -4.7692    1.1090   -0.6515 C   0  0  0  0  0  0  0  0  0  0  0  0
   -3.3947    1.5781   -0.3268 C   0  0  0  0  0  0  0  0  0  0  0  0
   -3.0972    2.1320    0.9285 C   0  0  0  0  0  0  0  0  0  0  0  0
   -1.7774    2.4537    1.2605 C   0  0  0  0  0  0  0  0  0  0  0  0
   -0.7482    2.2601    0.3320 C   0  0  0  0  0  0  0  0  0  0  0  0
    0.9529    2.5737    0.8177 S   0  0  0  0  0  0  0  0  0  0  0  0
    1.3951    0.8123    1.0583 C   0  0  0  0  0  0  0  0  0  0  0  0
    0.5665    0.1463    2.1536 C   0  0  0  0  0  0  0  0  0  0  0  0
   -1.0464    1.7703   -0.9436 C   0  0  0  0  0  0  0  0  0  0  0  0
   -0.0591    1.5838   -1.8597 F   0  0  0  0  0  0  0  0  0  0  0  0
   -2.3570    1.4103   -1.2623 C   0  0  0  0  0  0  0  0  0  0  0  0
   -5.4072    1.5120   -1.8390 C   0  0  0  0  0  0  0  0  0  0  0  0
   -6.5500    0.8812   -2.3412 C   0  0  0  0  0  0  0  0  0  0  0  0
   -7.1957   -0.1228   -1.5926 C   0  0  0  0  0  0  0  0  0  0  0  0
   -8.4198   -0.7866   -2.0849 C   0  0  0  0  0  0  0  0  0  0  0  0
   -9.5765   -0.0298   -2.3186 C   0  0  0  0  0  0  0  0  0  0  0  0
  -10.7396   -0.6447   -2.7864 C   0  0  0  0  0  0  0  0  0  0  0  0
  -10.7590   -2.0244   -3.0237 C   0  0  0  0  0  0  0  0  0  0  0  0
  -12.2606   -2.8014   -3.6319 S   0  0  0  0  0  0  0  0  0  0  0  0
  -12.8338   -3.3844   -1.9931 C   0  0  0  0  0  0  0  0  0  0  0  0
  -13.4150   -2.2450   -1.1651 C   0  0  0  0  0  0  0  0  0  0  0  0
   -9.5973   -2.7827   -2.8166 C   0  0  0  0  0  0  0  0  0  0  0  0
   -8.4352   -2.1670   -2.3408 C   0  0  0  0  0  0  0  0  0  0  0  0
   -9.5946   -4.1167   -3.0657 F   0  0  0  0  0  0  0  0  0  0  0  0
   -6.5887   -0.4985   -0.3761 C   0  0  0  0  0  0  0  0  0  0  0  0
   -7.0215   -1.7558    0.6564 S   0  0  0  0  0  0  0  0  0  0  0  0
   -6.8278    1.2187   -3.6840 C   0  0  0  0  0  0  0  0  0  0  0  0
   -5.9145    2.1324   -4.2235 C   0  0  0  0  0  0  0  0  0  0  0  0
   -4.8116    2.5427   -3.0114 S   0  0  0  0  0  0  0  0  0  0  0  0
   -5.4920    2.1496   -5.6344 C   0  0  0  0  0  0  0  0  0  0  0  0
   -4.4465    2.9832   -6.0375 C   0  0  0  0  0  0  0  0  0  0  0  0
   -3.5212    2.3573   -6.8865 C   0  0  0  0  0  0  0  0  0  0  0  0
   -2.1970    2.7957   -7.0800 C   0  0  0  0  0  0  0  0  0  0  0  0
   -1.7216    4.0488   -6.4607 C   0  0  0  0  0  0  0  0  0  0  0  0
   -2.0366    5.2857   -7.0375 C   0  0  0  0  0  0  0  0  0  0  0  0
   -1.6538    6.4724   -6.4041 C   0  0  0  0  0  0  0  0  0  0  0  0
   -0.9551    6.4306   -5.1898 C   0  0  0  0  0  0  0  0  0  0  0  0
   -0.5013    7.9622   -4.3669 S   0  0  0  0  0  0  0  0  0  0  0  0
    1.0486    8.2136   -5.3001 C   0  0  0  0  0  0  0  0  0  0  0  0
    2.1699    7.3383   -4.7564 C   0  0  0  0  0  0  0  0  0  0  0  0
   -0.6555    5.1932   -4.6023 C   0  0  0  0  0  0  0  0  0  0  0  0
   -0.0192    5.1358   -3.4053 F   0  0  0  0  0  0  0  0  0  0  0  0
   -1.0342    4.0065   -5.2379 C   0  0  0  0  0  0  0  0  0  0  0  0
   -1.2879    1.8592   -7.6009 C   0  0  0  0  0  0  0  0  0  0  0  0
   -1.6593    0.5551   -7.9419 C   0  0  0  0  0  0  0  0  0  0  0  0
   -3.0101    0.1518   -7.8382 C   0  0  0  0  0  0  0  0  0  0  0  0
   -3.4558   -1.2168   -8.1614 C   0  0  0  0  0  0  0  0  0  0  0  0
   -2.9968   -2.3192   -7.4243 C   0  0  0  0  0  0  0  0  0  0  0  0
   -3.4157   -3.6103   -7.7584 C   0  0  0  0  0  0  0  0  0  0  0  0
   -4.3021   -3.8076   -8.8245 C   0  0  0  0  0  0  0  0  0  0  0  0
   -4.8134   -5.4716   -9.2711 S   0  0  0  0  0  0  0  0  0  0  0  0
   -3.5927   -5.6715  -10.6171 C   0  0  0  0  0  0  0  0  0  0  0  0
   -2.2338   -6.0865  -10.0717 C   0  0  0  0  0  0  0  0  0  0  0  0
   -4.7987   -2.7032   -9.5303 C   0  0  0  0  0  0  0  0  0  0  0  0
   -4.3739   -1.4133   -9.2013 C   0  0  0  0  0  0  0  0  0  0  0  0
   -5.6840   -2.8767  -10.5441 F   0  0  0  0  0  0  0  0  0  0  0  0
   -3.9105    1.0738   -7.2761 C   0  0  0  0  0  0  0  0  0  0  0  0
   -5.3527    0.7012   -6.4980 S   0  0  0  0  0  0  0  0  0  0  0  0
   -0.5533   -0.2881   -8.1723 C   0  0  0  0  0  0  0  0  0  0  0  0
    0.6757    0.3452   -7.9629 C   0  0  0  0  0  0  0  0  0  0  0  0
    0.3857    1.9630   -7.5806 S   0  0  0  0  0  0  0  0  0  0  0  0
    1.9135   -0.3429   -7.5507 C   0  0  0  0  0  0  0  0  0  0  0  0
    3.0576    0.3352   -7.1329 C   0  0  0  0  0  0  0  0  0  0  0  0
    3.8568   -0.4089   -6.2538 C   0  0  0  0  0  0  0  0  0  0  0  0
    4.9366    0.0949   -5.5038 C   0  0  0  0  0  0  0  0  0  0  0  0
    5.3783    1.4953   -5.6262 C   0  0  0  0  0  0  0  0  0  0  0  0
    6.5683    1.8039   -6.2997 C   0  0  0  0  0  0  0  0  0  0  0  0
    6.9828    3.1356   -6.4131 C   0  0  0  0  0  0  0  0  0  0  0  0
    6.2225    4.1621   -5.8406 C   0  0  0  0  0  0  0  0  0  0  0  0
    6.7518    5.8704   -6.0124 S   0  0  0  0  0  0  0  0  0  0  0  0
    7.6772    5.8882   -4.4419 C   0  0  0  0  0  0  0  0  0  0  0  0
    8.3819    7.2271   -4.2748 C   0  0  0  0  0  0  0  0  0  0  0  0
    5.0399    3.8537   -5.1536 C   0  0  0  0  0  0  0  0  0  0  0  0
    4.2964    4.8350   -4.5854 F   0  0  0  0  0  0  0  0  0  0  0  0
    4.6192    2.5242   -5.0479 C   0  0  0  0  0  0  0  0  0  0  0  0
    5.4393   -0.7253   -4.4827 C   0  0  0  0  0  0  0  0  0  0  0  0
    4.9190   -1.9896   -4.2018 C   0  0  0  0  0  0  0  0  0  0  0  0
    3.8856   -2.5237   -5.0004 C   0  0  0  0  0  0  0  0  0  0  0  0
    3.2910   -3.8405   -4.7119 C   0  0  0  0  0  0  0  0  0  0  0  0
    3.6653   -4.9547   -5.4757 C   0  0  0  0  0  0  0  0  0  0  0  0
    3.1547   -6.2193   -5.1693 C   0  0  0  0  0  0  0  0  0  0  0  0
    2.2572   -6.3777   -4.1070 C   0  0  0  0  0  0  0  0  0  0  0  0
    1.6721   -8.0189   -3.6745 S   0  0  0  0  0  0  0  0  0  0  0  0
    0.2801   -7.9912   -4.8471 C   0  0  0  0  0  0  0  0  0  0  0  0
   -0.4730   -9.3102   -4.7828 C   0  0  0  0  0  0  0  0  0  0  0  0
    1.8613   -5.2603   -3.3567 C   0  0  0  0  0  0  0  0  0  0  0  0
    2.3815   -3.9950   -3.6567 C   0  0  0  0  0  0  0  0  0  0  0  0
    0.9908   -5.3989   -2.3250 F   0  0  0  0  0  0  0  0  0  0  0  0
    3.3683   -1.6966   -6.0162 C   0  0  0  0  0  0  0  0  0  0  0  0
    1.9352   -1.8955   -6.8759 S   0  0  0  0  0  0  0  0  0  0  0  0
    5.4107   -2.5389   -3.0006 C   0  0  0  0  0  0  0  0  0  0  0  0
    6.3001   -1.6887   -2.3361 C   0  0  0  0  0  0  0  0  0  0  0  0
    6.4934   -0.2872   -3.2559 S   0  0  0  0  0  0  0  0  0  0  0  0
    6.7127   -1.7659   -0.9207 C   0  0  0  0  0  0  0  0  0  0  0  0
    7.1304   -0.4055    0.0056 S   0  0  0  0  0  0  0  0  0  0  0  0
    7.0550   -1.0856    1.5619 C   0  0  0  0  0  0  0  0  0  0  0  0
    6.7029   -2.4038    1.3278 C   0  0  0  0  0  0  0  0  0  0  0  0
    6.5210   -2.7674    0.0287 C   0  0  0  0  0  0  0  0  0  0  0  0
    6.0665   -4.0293   -0.0302 N   0  0  0  0  0  0  0  0  0  0  0  0
    5.9889   -4.3868    1.2804 C   0  0  0  0  0  0  0  0  0  0  0  0
    5.5905   -5.5213    1.6596 O   0  0  0  0  0  0  0  0  0  0  0  0
    6.3627   -3.4078    2.1482 N   0  0  0  0  0  0  0  0  0  0  0  0
    7.0585   -0.3603    2.8467 C   0  0  0  0  0  0  0  0  0  0  0  0
    7.2302    0.9653    2.8690 C   0  0  0  0  0  0  0  0  0  0  0  0
    7.0226    1.8140    4.0503 C   0  0  0  0  0  0  0  0  0  0  0  0
    6.7830    1.4329    5.3750 C   0  0  0  0  0  0  0  0  0  0  0  0
    6.5406    2.5356    6.2200 C   0  0  0  0  0  0  0  0  0  0  0  0
    6.2949    2.4980    7.6081 C   0  0  0  0  0  0  0  0  0  0  0  0
    6.2616    1.2282    8.3657 C   0  0  0  0  0  0  0  0  0  0  0  0
    5.3185    0.2360    8.0537 C   0  0  0  0  0  0  0  0  0  0  0  0
    5.2875   -0.9579    8.7827 C   0  0  0  0  0  0  0  0  0  0  0  0
    6.1917   -1.1661    9.8295 C   0  0  0  0  0  0  0  0  0  0  0  0
    6.1373   -2.6952   10.7721 S   0  0  0  0  0  0  0  0  0  0  0  0
    5.0575   -2.0324   12.0881 C   0  0  0  0  0  0  0  0  0  0  0  0
    3.5943   -2.3194   11.7737 C   0  0  0  0  0  0  0  0  0  0  0  0
    7.1426   -0.1824   10.1368 C   0  0  0  0  0  0  0  0  0  0  0  0
    8.0219   -0.3703   11.1516 F   0  0  0  0  0  0  0  0  0  0  0  0
    7.1698    1.0134    9.4136 C   0  0  0  0  0  0  0  0  0  0  0  0
    6.1061    3.7399    8.2507 C   0  0  0  0  0  0  0  0  0  0  0  0
    6.1418    4.9613    7.5680 C   0  0  0  0  0  0  0  0  0  0  0  0
    6.3838    4.9969    6.1815 C   0  0  0  0  0  0  0  0  0  0  0  0
    6.4358    6.2592    5.4023 C   0  0  0  0  0  0  0  0  0  0  0  0
    7.3945    7.2399    5.6991 C   0  0  0  0  0  0  0  0  0  0  0  0
    7.5294    8.3662    4.8777 C   0  0  0  0  0  0  0  0  0  0  0  0
    6.7073    8.5226    3.7555 C   0  0  0  0  0  0  0  0  0  0  0  0
    6.9451    9.9313    2.6598 S   0  0  0  0  0  0  0  0  0  0  0  0
    5.8494   11.0655    3.5769 C   0  0  0  0  0  0  0  0  0  0  0  0
    4.3910   10.8434    3.1987 C   0  0  0  0  0  0  0  0  0  0  0  0
    5.7413    7.5511    3.4612 C   0  0  0  0  0  0  0  0  0  0  0  0
    5.5960    6.4347    4.2888 C   0  0  0  0  0  0  0  0  0  0  0  0
    4.9628    7.6683    2.3562 F   0  0  0  0  0  0  0  0  0  0  0  0
    6.5867    3.7606    5.5460 C   0  0  0  0  0  0  0  0  0  0  0  0
    6.9460    3.4882    3.9299 S   0  0  0  0  0  0  0  0  0  0  0  0
    5.8884    6.0653    8.3990 C   0  0  0  0  0  0  0  0  0  0  0  0
    5.6620    5.7133    9.7266 C   0  0  0  0  0  0  0  0  0  0  0  0
    5.7648    4.0364    9.8732 S   0  0  0  0  0  0  0  0  0  0  0  0
   -3.4784   -8.4079    8.0110 H   0  0  0  0  0  0  0  0  0  0  0  0
   -2.3008   -6.1306    7.5683 H   0  0  0  0  0  0  0  0  0  0  0  0
   -0.9387   -5.1013    4.8202 H   0  0  0  0  0  0  0  0  0  0  0  0
    1.1760   -3.9972    5.4579 H   0  0  0  0  0  0  0  0  0  0  0  0
    1.3650   -1.0652    4.8803 H   0  0  0  0  0  0  0  0  0  0  0  0
    2.7895   -0.2436    5.6003 H   0  0  0  0  0  0  0  0  0  0  0  0
   -0.1779    0.3804    6.1243 H   0  0  0  0  0  0  0  0  0  0  0  0
    1.1749    1.0597    7.1236 H   0  0  0  0  0  0  0  0  0  0  0  0
    1.0591    1.4412    5.3680 H   0  0  0  0  0  0  0  0  0  0  0  0
   -3.1305   -2.3737    7.3350 H   0  0  0  0  0  0  0  0  0  0  0  0
   -6.0341   -6.4676    1.9469 H   0  0  0  0  0  0  0  0  0  0  0  0
   -7.8666   -7.7434    0.9159 H   0  0  0  0  0  0  0  0  0  0  0  0
   -8.5805  -10.4886    2.9598 H   0  0  0  0  0  0  0  0  0  0  0  0
  -10.1252  -11.3080    2.5544 H   0  0  0  0  0  0  0  0  0  0  0  0
   -8.2436  -11.9520    1.0051 H   0  0  0  0  0  0  0  0  0  0  0  0
   -8.0970  -10.2305    0.4843 H   0  0  0  0  0  0  0  0  0  0  0  0
   -9.6135  -11.1571    0.1252 H   0  0  0  0  0  0  0  0  0  0  0  0
   -8.0410   -6.6721    5.7596 H   0  0  0  0  0  0  0  0  0  0  0  0
   -6.9069   -4.0323    2.5447 H   0  0  0  0  0  0  0  0  0  0  0  0
   -3.9438   -0.3036    1.6874 H   0  0  0  0  0  0  0  0  0  0  0  0
   -3.8769    2.2747    1.6637 H   0  0  0  0  0  0  0  0  0  0  0  0
   -1.5478    2.8321    2.2491 H   0  0  0  0  0  0  0  0  0  0  0  0
    2.4669    0.7660    1.3411 H   0  0  0  0  0  0  0  0  0  0  0  0
    1.2756    0.2514    0.1061 H   0  0  0  0  0  0  0  0  0  0  0  0
    0.5722    0.7695    3.0703 H   0  0  0  0  0  0  0  0  0  0  0  0
   -0.4818   -0.0021    1.8255 H   0  0  0  0  0  0  0  0  0  0  0  0
    0.9992   -0.8491    2.3823 H   0  0  0  0  0  0  0  0  0  0  0  0
   -2.5530    0.9686   -2.2302 H   0  0  0  0  0  0  0  0  0  0  0  0
   -9.5782    1.0379   -2.1321 H   0  0  0  0  0  0  0  0  0  0  0  0
  -11.6288   -0.0512   -2.9572 H   0  0  0  0  0  0  0  0  0  0  0  0
  -13.6242   -4.1463   -2.1606 H   0  0  0  0  0  0  0  0  0  0  0  0
  -12.0028   -3.8712   -1.4399 H   0  0  0  0  0  0  0  0  0  0  0  0
  -13.8544   -2.6558   -0.2273 H   0  0  0  0  0  0  0  0  0  0  0  0
  -14.2125   -1.7230   -1.7353 H   0  0  0  0  0  0  0  0  0  0  0  0
  -12.6161   -1.5241   -0.8896 H   0  0  0  0  0  0  0  0  0  0  0  0
   -7.5441   -2.7624   -2.1818 H   0  0  0  0  0  0  0  0  0  0  0  0
   -7.5613    0.7005   -4.2901 H   0  0  0  0  0  0  0  0  0  0  0  0
   -4.2323    3.9138   -5.5278 H   0  0  0  0  0  0  0  0  0  0  0  0
   -2.5850    5.3295   -7.9690 H   0  0  0  0  0  0  0  0  0  0  0  0
   -1.9054    7.4245   -6.8533 H   0  0  0  0  0  0  0  0  0  0  0  0
    1.3440    9.2780   -5.1930 H   0  0  0  0  0  0  0  0  0  0  0  0
    0.8920    8.0056   -6.3809 H   0  0  0  0  0  0  0  0  0  0  0  0
    2.2979    7.5071   -3.6671 H   0  0  0  0  0  0  0  0  0  0  0  0
    3.1193    7.5923   -5.2710 H   0  0  0  0  0  0  0  0  0  0  0  0
    1.9499    6.2672   -4.9416 H   0  0  0  0  0  0  0  0  0  0  0  0
   -0.8106    3.0561   -4.7680 H   0  0  0  0  0  0  0  0  0  0  0  0
   -2.3201   -2.1759   -6.5919 H   0  0  0  0  0  0  0  0  0  0  0  0
   -3.0509   -4.4593   -7.1910 H   0  0  0  0  0  0  0  0  0  0  0  0
   -3.4895   -4.7311  -11.2019 H   0  0  0  0  0  0  0  0  0  0  0  0
   -3.9608   -6.4599  -11.3028 H   0  0  0  0  0  0  0  0  0  0  0  0
   -1.5199   -6.2030  -10.9141 H   0  0  0  0  0  0  0  0  0  0  0  0
   -2.3173   -7.0558   -9.5380 H   0  0  0  0  0  0  0  0  0  0  0  0
   -1.8405   -5.3150   -9.3803 H   0  0  0  0  0  0  0  0  0  0  0  0
   -4.7538   -0.5671   -9.7607 H   0  0  0  0  0  0  0  0  0  0  0  0
   -0.6346   -1.3518   -8.3414 H   0  0  0  0  0  0  0  0  0  0  0  0
    3.2283    1.3827   -7.3483 H   0  0  0  0  0  0  0  0  0  0  0  0
    7.1593    1.0170   -6.7513 H   0  0  0  0  0  0  0  0  0  0  0  0
    7.8950    3.3665   -6.9483 H   0  0  0  0  0  0  0  0  0  0  0  0
    8.4317    5.0707   -4.4365 H   0  0  0  0  0  0  0  0  0  0  0  0
    6.9773    5.7322   -3.5923 H   0  0  0  0  0  0  0  0  0  0  0  0
    7.6416    8.0558   -4.3032 H   0  0  0  0  0  0  0  0  0  0  0  0
    9.1248    7.3717   -5.0889 H   0  0  0  0  0  0  0  0  0  0  0  0
    8.9062    7.2478   -3.2961 H   0  0  0  0  0  0  0  0  0  0  0  0
    3.7019    2.2942   -4.5191 H   0  0  0  0  0  0  0  0  0  0  0  0
    4.3686   -4.8480   -6.2912 H   0  0  0  0  0  0  0  0  0  0  0  0
    3.4671   -7.0774   -5.7524 H   0  0  0  0  0  0  0  0  0  0  0  0
   -0.4114   -7.1617   -4.5864 H   0  0  0  0  0  0  0  0  0  0  0  0
    0.6677   -7.8389   -5.8749 H   0  0  0  0  0  0  0  0  0  0  0  0
   -1.3197   -9.2850   -5.4995 H   0  0  0  0  0  0  0  0  0  0  0  0
   -0.8729   -9.4741   -3.7590 H   0  0  0  0  0  0  0  0  0  0  0  0
    0.2023  -10.1488   -5.0542 H   0  0  0  0  0  0  0  0  0  0  0  0
    2.0883   -3.1402   -3.0591 H   0  0  0  0  0  0  0  0  0  0  0  0
    5.0410   -3.4630   -2.5863 H   0  0  0  0  0  0  0  0  0  0  0  0
    5.8267   -4.6076   -0.8614 H   0  0  0  0  0  0  0  0  0  0  0  0
    6.3496   -3.4184    3.1910 H   0  0  0  0  0  0  0  0  0  0  0  0
    6.8292   -0.9059    3.7519 H   0  0  0  0  0  0  0  0  0  0  0  0
    7.4508    1.4890    1.9467 H   0  0  0  0  0  0  0  0  0  0  0  0
    6.7894    0.4062    5.7137 H   0  0  0  0  0  0  0  0  0  0  0  0
    4.6117    0.3868    7.2478 H   0  0  0  0  0  0  0  0  0  0  0  0
    4.5589   -1.7179    8.5333 H   0  0  0  0  0  0  0  0  0  0  0  0
    5.3204   -2.5333   13.0439 H   0  0  0  0  0  0  0  0  0  0  0  0
    5.2052   -0.9375   12.2250 H   0  0  0  0  0  0  0  0  0  0  0  0
    3.2927   -1.8217   10.8266 H   0  0  0  0  0  0  0  0  0  0  0  0
    3.4324   -3.4158   11.6814 H   0  0  0  0  0  0  0  0  0  0  0  0
    2.9585   -1.9327   12.5954 H   0  0  0  0  0  0  0  0  0  0  0  0
    7.9057    1.7668    9.6629 H   0  0  0  0  0  0  0  0  0  0  0  0
    8.0606    7.1126    6.5421 H   0  0  0  0  0  0  0  0  0  0  0  0
    8.2865    9.1088    5.1010 H   0  0  0  0  0  0  0  0  0  0  0  0
    6.1319   12.1059    3.3089 H   0  0  0  0  0  0  0  0  0  0  0  0
    5.9824   10.9457    4.6768 H   0  0  0  0  0  0  0  0  0  0  0  0
    3.7589   11.5973    3.7087 H   0  0  0  0  0  0  0  0  0  0  0  0
    4.0540    9.8365    3.5158 H   0  0  0  0  0  0  0  0  0  0  0  0
    4.2572   10.9488    2.1004 H   0  0  0  0  0  0  0  0  0  0  0  0
    4.8543    5.6862    4.0393 H   0  0  0  0  0  0  0  0  0  0  0  0
    5.8588    7.0872    8.0546 H   0  0  0  0  0  0  0  0  0  0  0  0
    5.4424    6.4078   10.5278 H   0  0  0  0  0  0  0  0  0  0  0  0
  1  2  2  0
  2  3  1  0
  3  4  2  0
  4  5  1  0
  5  6  2  0
  6  7  1  0
  7  8  2  0
  8  9  1  0
  9 10  1  0
 10 11  1  0
  8 12  1  0
 12 13  1  0
 12 14  2  0
  4 15  1  0
 15 16  2  0
 16 17  1  0
 17 18  1  0
 18 19  2  0
 19 20  1  0
 20 21  2  0
 21 22  1  0
 22 23  1  0
 23 24  1  0
 21 25  1  0
 25 26  2  0
 25 27  1  0
 17 28  2  0
 28 29  1  0
 16 30  1  0
 30 31  2  0
 31 32  1  0
 31 33  1  0
 33 34  2  0
 34 35  1  0
 35 36  2  0
 36 37  1  0
 37 38  2  0
 38 39  1  0
 39 40  2  0
 40 41  1  0
 41 42  1  0
 42 43  1  0
 40 44  1  0
 44 45  1  0
 44 46  2  0
 36 47  1  0
 47 48  2  0
 48 49  1  0
 49 50  1  0
 50 51  2  0
 51 52  1  0
 52 53  2  0
 53 54  1  0
 54 55  1  0
 55 56  1  0
 53 57  1  0
 57 58  2  0
 57 59  1  0
 49 60  2  0
 60 61  1  0
 48 62  1  0
 62 63  2  0
 63 64  1  0
 63 65  1  0
 65 66  2  0
 66 67  1  0
 67 68  2  0
 68 69  1  0
 69 70  2  0
 70 71  1  0
 71 72  2  0
 72 73  1  0
 73 74  1  0
 74 75  1  0
 72 76  1  0
 76 77  1  0
 76 78  2  0
 68 79  1  0
 79 80  2  0
 80 81  1  0
 81 82  1  0
 82 83  2  0
 83 84  1  0
 84 85  2  0
 85 86  1  0
 86 87  1  0
 87 88  1  0
 85 89  1  0
 89 90  2  0
 89 91  1  0
 81 92  2  0
 92 93  1  0
 80 94  1  0
 94 95  2  0
 95 96  1  0
 95 97  1  0
 97 98  2  0
 98 99  1  0
 99100  2  0
100101  1  0
101102  2  0
102103  1  0
103104  2  0
104105  1  0
105106  1  0
106107  1  0
104108  1  0
108109  1  0
108110  2  0
100111  1  0
111112  2  0
112113  1  0
113114  1  0
114115  2  0
115116  1  0
116117  2  0
117118  1  0
118119  1  0
119120  1  0
117121  1  0
121122  2  0
121123  1  0
113124  2  0
124125  1  0
112126  1  0
126127  2  0
127128  1  0
127129  1  0
129130  1  0
130131  1  0
131132  2  0
132133  1  0
133134  1  0
134135  1  0
135136  2  0
135137  1  0
131138  1  0
138139  2  3
139140  1  0
140141  2  0
141142  1  0
142143  2  0
143144  1  0
144145  2  0
145146  1  0
146147  2  0
147148  1  0
148149  1  0
149150  1  0
147151  1  0
151152  1  0
151153  2  0
143154  1  0
154155  2  0
155156  1  0
156157  1  0
157158  2  0
158159  1  0
159160  2  0
160161  1  0
161162  1  0
162163  1  0
160164  1  0
164165  2  0
164166  1  0
156167  2  0
167168  1  0
155169  1  0
169170  2  0
170171  1  0
 29  1  1  0
 61 33  1  0
 93 65  1  0
125 97  1  0
133129  2  0
168140  1  0
 28  3  1  0
 60 35  1  0
 92 67  1  0
124 99  1  0
137132  1  0
167142  1  0
 14  5  1  0
 32 15  1  0
 46 37  1  0
 64 47  1  0
 78 69  1  0
 96 79  1  0
110101  1  0
128111  1  0
153144  1  0
171154  1  0
 26 18  1  0
 58 50  1  0
 90 82  1  0
122114  1  0
165157  1  0
  1172  1  0
  2173  1  0
  6174  1  0
  7175  1  0
 10176  1  0
 10177  1  0
 11178  1  0
 11179  1  0
 11180  1  0
 14181  1  0
 19182  1  0
 20183  1  0
 23184  1  0
 23185  1  0
 24186  1  0
 24187  1  0
 24188  1  0
 26189  1  0
 30190  1  0
 34191  1  0
 38192  1  0
 39193  1  0
 42194  1  0
 42195  1  0
 43196  1  0
 43197  1  0
 43198  1  0
 46199  1  0
 51200  1  0
 52201  1  0
 55202  1  0
 55203  1  0
 56204  1  0
 56205  1  0
 56206  1  0
 58207  1  0
 62208  1  0
 66209  1  0
 70210  1  0
 71211  1  0
 74212  1  0
 74213  1  0
 75214  1  0
 75215  1  0
 75216  1  0
 78217  1  0
 83218  1  0
 84219  1  0
 87220  1  0
 87221  1  0
 88222  1  0
 88223  1  0
 88224  1  0
 90225  1  0
 94226  1  0
 98227  1  0
102228  1  0
103229  1  0
106230  1  0
106231  1  0
107232  1  0
107233  1  0
107234  1  0
110235  1  0
115236  1  0
116237  1  0
119238  1  0
119239  1  0
120240  1  0
120241  1  0
120242  1  0
122243  1  0
126244  1  0
134245  1  0
137246  1  0
138247  1  0
139248  1  0
141249  1  0
145250  1  0
146251  1  0
149252  1  0
149253  1  0
150254  1  0
150255  1  0
150256  1  0
153257  1  0
158258  1  0
159259  1  0
162260  1  0
162261  1  0
163262  1  0
163263  1  0
163264  1  0
165265  1  0
169266  1  0
170267  1  0
M  END

