
     RDKit          3D

230251  0  0  0  0  0  0  0  0999 V2000
    0.9542    0.3794    8.7674 C   0  0  0  0  0  0  0  0  0  0  0  0
    1.7570    1.1824    7.9641 C   0  0  0  0  0  0  0  0  0  0  0  0
    1.6123    0.9171    6.5873 C   0  0  0  0  0  0  0  0  0  0  0  0
    2.2608    1.5814    5.5241 C   0  0  0  0  0  0  0  0  0  0  0  0
    3.1855    2.7139    5.7694 C   0  0  0  0  0  0  0  0  0  0  0  0
    4.3163    2.5458    6.5883 C   0  0  0  0  0  0  0  0  0  0  0  0
    5.0968    3.6494    6.9459 C   0  0  0  0  0  0  0  0  0  0  0  0
    4.7747    4.9247    6.4667 C   0  0  0  0  0  0  0  0  0  0  0  0
    5.6836    6.3626    7.0532 S   0  0  0  0  0  0  0  0  0  0  0  0
    7.0989    6.1609    5.9175 C   0  0  0  0  0  0  0  0  0  0  0  0
    6.7521    6.6463    4.5169 C   0  0  0  0  0  0  0  0  0  0  0  0
    3.6840    5.0885    5.6013 C   0  0  0  0  0  0  0  0  0  0  0  0
    3.3606    6.3180    5.1293 F   0  0  0  0  0  0  0  0  0  0  0  0
    2.8895    3.9887    5.2604 C   0  0  0  0  0  0  0  0  0  0  0  0
    1.9089    1.1805    4.2174 C   0  0  0  0  0  0  0  0  0  0  0  0
    0.9443    0.1974    3.9525 C   0  0  0  0  0  0  0  0  0  0  0  0
    0.2887   -0.4480    5.0260 C   0  0  0  0  0  0  0  0  0  0  0  0
   -0.8275   -1.3930    4.8519 C   0  0  0  0  0  0  0  0  0  0  0  0
   -0.5817   -2.7730    4.8268 C   0  0  0  0  0  0  0  0  0  0  0  0
   -1.6437   -3.6751    4.9378 C   0  0  0  0  0  0  0  0  0  0  0  0
   -2.9526   -3.2121    5.1057 C   0  0  0  0  0  0  0  0  0  0  0  0
   -4.2794   -4.3890    5.4119 S   0  0  0  0  0  0  0  0  0  0  0  0
   -4.7139   -4.6727    3.6597 C   0  0  0  0  0  0  0  0  0  0  0  0
   -3.8994   -5.8176    3.0700 C   0  0  0  0  0  0  0  0  0  0  0  0
   -3.1992   -1.8340    5.1461 C   0  0  0  0  0  0  0  0  0  0  0  0
   -2.1424   -0.9288    4.9980 C   0  0  0  0  0  0  0  0  0  0  0  0
   -4.4408   -1.3632    5.4202 F   0  0  0  0  0  0  0  0  0  0  0  0
    0.6666   -0.0740    6.3267 C   0  0  0  0  0  0  0  0  0  0  0  0
    0.0391   -0.6383    7.7846 S   0  0  0  0  0  0  0  0  0  0  0  0
    0.7121    0.0088    2.5732 C   0  0  0  0  0  0  0  0  0  0  0  0
    1.5104    0.8315    1.7679 C   0  0  0  0  0  0  0  0  0  0  0  0
    2.4817    1.7869    2.7618 S   0  0  0  0  0  0  0  0  0  0  0  0
    1.4304    0.9962    0.2995 C   0  0  0  0  0  0  0  0  0  0  0  0
    2.0003    2.0603   -0.4042 C   0  0  0  0  0  0  0  0  0  0  0  0
    1.5586    2.1553   -1.7339 C   0  0  0  0  0  0  0  0  0  0  0  0
    1.7657    3.2477   -2.6099 C   0  0  0  0  0  0  0  0  0  0  0  0
    2.6242    4.4029   -2.2624 C   0  0  0  0  0  0  0  0  0  0  0  0
    2.3767    5.1727   -1.1176 C   0  0  0  0  0  0  0  0  0  0  0  0
    3.2210    6.2358   -0.7878 C   0  0  0  0  0  0  0  0  0  0  0  0
    4.3021    6.5570   -1.6106 C   0  0  0  0  0  0  0  0  0  0  0  0
    5.3927    7.9049   -1.1512 S   0  0  0  0  0  0  0  0  0  0  0  0
    6.6542    6.8370   -0.3594 C   0  0  0  0  0  0  0  0  0  0  0  0
    6.1890    6.3402    1.0056 C   0  0  0  0  0  0  0  0  0  0  0  0
    4.5253    5.8263   -2.7868 C   0  0  0  0  0  0  0  0  0  0  0  0
    5.5572    6.1433   -3.6074 F   0  0  0  0  0  0  0  0  0  0  0  0
    3.6916    4.7510   -3.1086 C   0  0  0  0  0  0  0  0  0  0  0  0
    0.9976    3.2715   -3.7847 C   0  0  0  0  0  0  0  0  0  0  0  0
    0.1876    2.2063   -4.1693 C   0  0  0  0  0  0  0  0  0  0  0  0
    0.0414    1.0778   -3.3381 C   0  0  0  0  0  0  0  0  0  0  0  0
   -0.9770    0.0548   -3.6495 C   0  0  0  0  0  0  0  0  0  0  0  0
   -2.2042    0.0483   -2.9720 C   0  0  0  0  0  0  0  0  0  0  0  0
   -3.2090   -0.8477   -3.3540 C   0  0  0  0  0  0  0  0  0  0  0  0
   -2.9885   -1.7459   -4.4047 C   0  0  0  0  0  0  0  0  0  0  0  0
   -4.2356   -2.9639   -4.8118 S   0  0  0  0  0  0  0  0  0  0  0  0
   -3.4722   -4.2501   -3.7649 C   0  0  0  0  0  0  0  0  0  0  0  0
   -4.2205   -5.5637   -3.9200 C   0  0  0  0  0  0  0  0  0  0  0  0
   -1.7843   -1.7031   -5.1182 C   0  0  0  0  0  0  0  0  0  0  0  0
   -0.7890   -0.7963   -4.7507 C   0  0  0  0  0  0  0  0  0  0  0  0
   -1.5765   -2.5343   -6.1700 F   0  0  0  0  0  0  0  0  0  0  0  0
    0.6986    1.1104   -2.0949 C   0  0  0  0  0  0  0  0  0  0  0  0
    0.4440    0.1222   -0.7525 S   0  0  0  0  0  0  0  0  0  0  0  0
   -0.7333    2.5469   -5.1654 C   0  0  0  0  0  0  0  0  0  0  0  0
   -0.9193    3.9260   -5.3019 C   0  0  0  0  0  0  0  0  0  0  0  0
    0.4238    4.6534   -4.5584 S   0  0  0  0  0  0  0  0  0  0  0  0
   -2.2816    4.3758   -4.9300 C   0  0  0  0  0  0  0  0  0  0  0  0
   -2.5251    4.5903   -3.5632 C   0  0  0  0  0  0  0  0  0  0  0  0
   -3.6347    3.9004   -3.0610 C   0  0  0  0  0  0  0  0  0  0  0  0
   -3.9026    3.6621   -1.6974 C   0  0  0  0  0  0  0  0  0  0  0  0
   -3.1060    4.2866   -0.6281 C   0  0  0  0  0  0  0  0  0  0  0  0
   -1.8455    3.7723   -0.2903 C   0  0  0  0  0  0  0  0  0  0  0  0
   -1.0630    4.4171    0.6713 C   0  0  0  0  0  0  0  0  0  0  0  0
   -1.5290    5.5837    1.2902 C   0  0  0  0  0  0  0  0  0  0  0  0
   -0.4650    6.4692    2.4300 S   0  0  0  0  0  0  0  0  0  0  0  0
    0.1342    7.6210    1.1444 C   0  0  0  0  0  0  0  0  0  0  0  0
    1.2601    8.4814    1.6966 C   0  0  0  0  0  0  0  0  0  0  0  0
   -2.8093    6.0715    0.9901 C   0  0  0  0  0  0  0  0  0  0  0  0
   -3.2782    7.1941    1.5899 F   0  0  0  0  0  0  0  0  0  0  0  0
   -3.5941    5.4231    0.0322 C   0  0  0  0  0  0  0  0  0  0  0  0
   -4.9130    2.7411   -1.3959 C   0  0  0  0  0  0  0  0  0  0  0  0
   -5.6637    2.1020   -2.3862 C   0  0  0  0  0  0  0  0  0  0  0  0
   -5.4256    2.3688   -3.7522 C   0  0  0  0  0  0  0  0  0  0  0  0
   -6.1398    1.6283   -4.8136 C   0  0  0  0  0  0  0  0  0  0  0  0
   -7.5354    1.7293   -4.9227 C   0  0  0  0  0  0  0  0  0  0  0  0
   -8.2228    0.9841   -5.8824 C   0  0  0  0  0  0  0  0  0  0  0  0
   -7.5222    0.1367   -6.7511 C   0  0  0  0  0  0  0  0  0  0  0  0
   -8.4230   -0.8346   -7.9622 S   0  0  0  0  0  0  0  0  0  0  0  0
   -8.5395    0.5070   -9.2023 C   0  0  0  0  0  0  0  0  0  0  0  0
   -7.2809    0.5708  -10.0583 C   0  0  0  0  0  0  0  0  0  0  0  0
   -6.1272    0.0288   -6.6463 C   0  0  0  0  0  0  0  0  0  0  0  0
   -5.4408    0.7729   -5.6810 C   0  0  0  0  0  0  0  0  0  0  0  0
   -5.4364   -0.8053   -7.4614 F   0  0  0  0  0  0  0  0  0  0  0  0
   -4.3842    3.2696   -4.0516 C   0  0  0  0  0  0  0  0  0  0  0  0
   -3.6381    3.5515   -5.5325 S   0  0  0  0  0  0  0  0  0  0  0  0
   -6.5756    1.1707   -1.8633 C   0  0  0  0  0  0  0  0  0  0  0  0
   -6.5196    1.0731   -0.4746 C   0  0  0  0  0  0  0  0  0  0  0  0
   -5.3648    2.1559    0.1163 S   0  0  0  0  0  0  0  0  0  0  0  0
   -7.4906    0.3395    0.3507 C   0  0  0  0  0  0  0  0  0  0  0  0
   -8.8569    0.4659    0.1178 C   0  0  0  0  0  0  0  0  0  0  0  0
   -9.6838   -0.3552    1.3199 S   0  0  0  0  0  0  0  0  0  0  0  0
   -8.3271   -0.8988    2.1479 C   0  0  0  0  0  0  0  0  0  0  0  0
   -7.1844   -0.4497    1.4835 C   0  0  0  0  0  0  0  0  0  0  0  0
   -5.8356   -0.8893    1.8980 C   0  0  0  0  0  0  0  0  0  0  0  0
   -5.6795   -1.3631    3.0586 O   0  0  0  0  0  0  0  0  0  0  0  0
   -4.7754   -0.9058    0.9868 O   0  0  0  0  0  0  0  0  0  0  0  0
   -3.5792   -1.5996    1.2164 C   0  0  0  0  0  0  0  0  0  0  0  0
   -2.7644   -1.8285    0.1924 C   0  0  0  0  0  0  0  0  0  0  0  0
   -1.5791   -2.7032    0.2561 C   0  0  0  0  0  0  0  0  0  0  0  0
   -0.8364   -3.0718   -0.8611 C   0  0  0  0  0  0  0  0  0  0  0  0
    0.1934   -3.9741   -0.5623 C   0  0  0  0  0  0  0  0  0  0  0  0
    1.0820   -4.5432   -1.4901 C   0  0  0  0  0  0  0  0  0  0  0  0
    1.1157   -4.1428   -2.9054 C   0  0  0  0  0  0  0  0  0  0  0  0
    1.7401   -2.9383   -3.2647 C   0  0  0  0  0  0  0  0  0  0  0  0
    1.9785   -2.6496   -4.6095 C   0  0  0  0  0  0  0  0  0  0  0  0
    1.5838   -3.5540   -5.6020 C   0  0  0  0  0  0  0  0  0  0  0  0
    1.9735   -3.2146   -7.3209 S   0  0  0  0  0  0  0  0  0  0  0  0
    3.6963   -3.8180   -7.2209 C   0  0  0  0  0  0  0  0  0  0  0  0
    3.7668   -5.3348   -7.0736 C   0  0  0  0  0  0  0  0  0  0  0  0
    0.8976   -4.7262   -5.2480 C   0  0  0  0  0  0  0  0  0  0  0  0
    0.4920   -5.5958   -6.2047 F   0  0  0  0  0  0  0  0  0  0  0  0
    0.6769   -5.0246   -3.9015 C   0  0  0  0  0  0  0  0  0  0  0  0
    2.0138   -5.4661   -0.9990 C   0  0  0  0  0  0  0  0  0  0  0  0
    2.1246   -5.7856    0.3515 C   0  0  0  0  0  0  0  0  0  0  0  0
    1.2531   -5.1951    1.2975 C   0  0  0  0  0  0  0  0  0  0  0  0
    1.3942   -5.4748    2.7442 C   0  0  0  0  0  0  0  0  0  0  0  0
    0.4137   -6.2013    3.4317 C   0  0  0  0  0  0  0  0  0  0  0  0
    0.6097   -6.5606    4.7703 C   0  0  0  0  0  0  0  0  0  0  0  0
    1.7888   -6.1958    5.4328 C   0  0  0  0  0  0  0  0  0  0  0  0
    2.0892   -6.7734    7.1110 S   0  0  0  0  0  0  0  0  0  0  0  0
    1.6454   -5.2074    7.9405 C   0  0  0  0  0  0  0  0  0  0  0  0
    0.1366   -5.0882    8.1169 C   0  0  0  0  0  0  0  0  0  0  0  0
    2.7671   -5.4592    4.7510 C   0  0  0  0  0  0  0  0  0  0  0  0
    2.5667   -5.0952    3.4172 C   0  0  0  0  0  0  0  0  0  0  0  0
    3.9226   -5.1095    5.3690 F   0  0  0  0  0  0  0  0  0  0  0  0
    0.2720   -4.3113    0.7936 C   0  0  0  0  0  0  0  0  0  0  0  0
   -0.9497   -3.4930    1.6142 S   0  0  0  0  0  0  0  0  0  0  0  0
    3.1471   -6.7205    0.6099 C   0  0  0  0  0  0  0  0  0  0  0  0
    3.8354   -7.1173   -0.5427 C   0  0  0  0  0  0  0  0  0  0  0  0
    3.1564   -6.3301   -1.8714 S   0  0  0  0  0  0  0  0  0  0  0  0
    4.8888   -8.1605   -0.6094 C   0  0  0  0  0  0  0  0  0  0  0  0
    4.9133   -9.2259    0.2884 C   0  0  0  0  0  0  0  0  0  0  0  0
    6.0904  -10.3140   -0.2023 S   0  0  0  0  0  0  0  0  0  0  0  0
    6.6033   -9.4552   -1.5509 C   0  0  0  0  0  0  0  0  0  0  0  0
    5.8640   -8.2789   -1.6335 C   0  0  0  0  0  0  0  0  0  0  0  0
    6.1701   -7.2700   -2.6616 C   0  0  0  0  0  0  0  0  0  0  0  0
    6.0562   -6.0386   -2.3993 O   0  0  0  0  0  0  0  0  0  0  0  0
    6.5862   -7.6821   -3.9320 O   0  0  0  0  0  0  0  0  0  0  0  0
    6.8857   -6.7897   -4.9643 C   0  0  0  0  0  0  0  0  0  0  0  0
    7.3032   -7.2499   -6.1352 C   0  0  0  0  0  0  0  0  0  0  0  0
    0.9196    0.4149    9.8477 H   0  0  0  0  0  0  0  0  0  0  0  0
    2.4134    1.9382    8.3737 H   0  0  0  0  0  0  0  0  0  0  0  0
    4.5654    1.5695    6.9833 H   0  0  0  0  0  0  0  0  0  0  0  0
    5.9399    3.5114    7.6122 H   0  0  0  0  0  0  0  0  0  0  0  0
    7.4252    5.0993    5.8790 H   0  0  0  0  0  0  0  0  0  0  0  0
    7.9417    6.7677    6.3079 H   0  0  0  0  0  0  0  0  0  0  0  0
    6.3701    7.6889    4.5516 H   0  0  0  0  0  0  0  0  0  0  0  0
    5.9864    5.9868    4.0618 H   0  0  0  0  0  0  0  0  0  0  0  0
    7.6626    6.6223    3.8819 H   0  0  0  0  0  0  0  0  0  0  0  0
    2.0175    4.1401    4.6371 H   0  0  0  0  0  0  0  0  0  0  0  0
    0.4325   -3.1467    4.7688 H   0  0  0  0  0  0  0  0  0  0  0  0
   -1.4499   -4.7361    4.9424 H   0  0  0  0  0  0  0  0  0  0  0  0
   -5.7902   -4.9379    3.6146 H   0  0  0  0  0  0  0  0  0  0  0  0
   -4.5630   -3.7600    3.0561 H   0  0  0  0  0  0  0  0  0  0  0  0
   -3.9855   -6.7229    3.7057 H   0  0  0  0  0  0  0  0  0  0  0  0
   -2.8328   -5.5268    2.9796 H   0  0  0  0  0  0  0  0  0  0  0  0
   -4.2817   -6.0600    2.0553 H   0  0  0  0  0  0  0  0  0  0  0  0
   -2.3340    0.1353    5.0767 H   0  0  0  0  0  0  0  0  0  0  0  0
   -0.0334   -0.6710    2.1789 H   0  0  0  0  0  0  0  0  0  0  0  0
    2.6426    2.7905    0.0657 H   0  0  0  0  0  0  0  0  0  0  0  0
    1.5401    4.9406   -0.4737 H   0  0  0  0  0  0  0  0  0  0  0  0
    3.0375    6.8014    0.1141 H   0  0  0  0  0  0  0  0  0  0  0  0
    6.8973    5.9693   -1.0122 H   0  0  0  0  0  0  0  0  0  0  0  0
    7.5808    7.4375   -0.2238 H   0  0  0  0  0  0  0  0  0  0  0  0
    5.8964    7.1967    1.6479 H   0  0  0  0  0  0  0  0  0  0  0  0
    7.0181    5.7871    1.5004 H   0  0  0  0  0  0  0  0  0  0  0  0
    5.3273    5.6473    0.9026 H   0  0  0  0  0  0  0  0  0  0  0  0
    3.8845    4.1753   -4.0064 H   0  0  0  0  0  0  0  0  0  0  0  0
   -2.3906    0.7472   -2.1659 H   0  0  0  0  0  0  0  0  0  0  0  0
   -4.1570   -0.8499   -2.8296 H   0  0  0  0  0  0  0  0  0  0  0  0
   -2.4159   -4.4051   -4.0692 H   0  0  0  0  0  0  0  0  0  0  0  0
   -3.4962   -3.9327   -2.7003 H   0  0  0  0  0  0  0  0  0  0  0  0
   -3.7358   -6.3455   -3.2990 H   0  0  0  0  0  0  0  0  0  0  0  0
   -5.2721   -5.4457   -3.5845 H   0  0  0  0  0  0  0  0  0  0  0  0
   -4.2083   -5.8891   -4.9794 H   0  0  0  0  0  0  0  0  0  0  0  0
    0.1213   -0.7367   -5.3329 H   0  0  0  0  0  0  0  0  0  0  0  0
   -1.5014    1.8490   -5.4743 H   0  0  0  0  0  0  0  0  0  0  0  0
   -1.7764    5.0099   -2.8999 H   0  0  0  0  0  0  0  0  0  0  0  0
   -1.4637    2.8892   -0.7885 H   0  0  0  0  0  0  0  0  0  0  0  0
   -0.0892    4.0183    0.9244 H   0  0  0  0  0  0  0  0  0  0  0  0
   -0.7002    8.2802    0.8169 H   0  0  0  0  0  0  0  0  0  0  0  0
    0.4987    7.0581    0.2607 H   0  0  0  0  0  0  0  0  0  0  0  0
    0.8866    9.1086    2.5310 H   0  0  0  0  0  0  0  0  0  0  0  0
    2.0841    7.8355    2.0672 H   0  0  0  0  0  0  0  0  0  0  0  0
    1.6540    9.1426    0.8952 H   0  0  0  0  0  0  0  0  0  0  0  0
   -4.5694    5.8227   -0.2212 H   0  0  0  0  0  0  0  0  0  0  0  0
   -8.0910    2.3776   -4.2532 H   0  0  0  0  0  0  0  0  0  0  0  0
   -9.3022    1.0617   -5.9479 H   0  0  0  0  0  0  0  0  0  0  0  0
   -9.4075    0.2914   -9.8626 H   0  0  0  0  0  0  0  0  0  0  0  0
   -8.7169    1.4902   -8.7138 H   0  0  0  0  0  0  0  0  0  0  0  0
   -7.4103    1.3360  -10.8540 H   0  0  0  0  0  0  0  0  0  0  0  0
   -6.4027    0.8549   -9.4385 H   0  0  0  0  0  0  0  0  0  0  0  0
   -7.0942   -0.4125  -10.5394 H   0  0  0  0  0  0  0  0  0  0  0  0
   -4.3671    0.6703   -5.5992 H   0  0  0  0  0  0  0  0  0  0  0  0
   -7.2565    0.5768   -2.4636 H   0  0  0  0  0  0  0  0  0  0  0  0
   -9.3141    1.0367   -0.6810 H   0  0  0  0  0  0  0  0  0  0  0  0
   -8.3468   -1.5269    3.0297 H   0  0  0  0  0  0  0  0  0  0  0  0
   -3.3417   -1.9801    2.2032 H   0  0  0  0  0  0  0  0  0  0  0  0
   -3.0454   -1.4284   -0.7653 H   0  0  0  0  0  0  0  0  0  0  0  0
   -1.0475   -2.7159   -1.8624 H   0  0  0  0  0  0  0  0  0  0  0  0
    2.0885   -2.2510   -2.4995 H   0  0  0  0  0  0  0  0  0  0  0  0
    2.5004   -1.7371   -4.8754 H   0  0  0  0  0  0  0  0  0  0  0  0
    4.2141   -3.5260   -8.1570 H   0  0  0  0  0  0  0  0  0  0  0  0
    4.2262   -3.3360   -6.3757 H   0  0  0  0  0  0  0  0  0  0  0  0
    3.4478   -5.6406   -6.0544 H   0  0  0  0  0  0  0  0  0  0  0  0
    3.1284   -5.8330   -7.8328 H   0  0  0  0  0  0  0  0  0  0  0  0
    4.8166   -5.6663   -7.2169 H   0  0  0  0  0  0  0  0  0  0  0  0
    0.1995   -5.9577   -3.6335 H   0  0  0  0  0  0  0  0  0  0  0  0
   -0.4870   -6.5174    2.9210 H   0  0  0  0  0  0  0  0  0  0  0  0
   -0.1439   -7.1421    5.2879 H   0  0  0  0  0  0  0  0  0  0  0  0
    2.1188   -5.2046    8.9475 H   0  0  0  0  0  0  0  0  0  0  0  0
    2.0349   -4.3343    7.3750 H   0  0  0  0  0  0  0  0  0  0  0  0
   -0.0928   -4.1513    8.6692 H   0  0  0  0  0  0  0  0  0  0  0  0
   -0.2552   -5.9556    8.6924 H   0  0  0  0  0  0  0  0  0  0  0  0
   -0.3653   -5.0486    7.1290 H   0  0  0  0  0  0  0  0  0  0  0  0
    3.3361   -4.5423    2.8961 H   0  0  0  0  0  0  0  0  0  0  0  0
    3.3707   -7.1085    1.5955 H   0  0  0  0  0  0  0  0  0  0  0  0
    4.2525   -9.3724    1.1338 H   0  0  0  0  0  0  0  0  0  0  0  0
    7.3976   -9.7603   -2.2190 H   0  0  0  0  0  0  0  0  0  0  0  0
    6.7832   -5.7192   -4.8194 H   0  0  0  0  0  0  0  0  0  0  0  0
    7.5509   -6.5620   -6.9346 H   0  0  0  0  0  0  0  0  0  0  0  0
    7.4003   -8.3153   -6.3006 H   0  0  0  0  0  0  0  0  0  0  0  0
  1  2  2  0
  2  3  1  0
  3  4  2  0
  4  5  1  0
  5  6  2  0
  6  7  1  0
  7  8  2  0
  8  9  1  0
  9 10  1  0
 10 11  1  0
  8 12  1  0
 12 13  1  0
 12 14  2  0
  4 15  1  0
 15 16  2  0
 16 17  1  0
 17 18  1  0
 18 19  2  0
 19 20  1  0
 20 21  2  0
 21 22  1  0
 22 23  1  0
 23 24  1  0
 21 25  1  0
 25 26  2  0
 25 27  1  0
 17 28  2  0
 28 29  1  0
 16 30  1  0
 30 31  2  0
 31 32  1  0
 31 33  1  0
 33 34  2  0
 34 35  1  0
 35 36  2  0
 36 37  1  0
 37 38  2  0
 38 39  1  0
 39 40  2  0
 40 41  1  0
 41 42  1  0
 42 43  1  0
 40 44  1  0
 44 45  1  0
 44 46  2  0
 36 47  1  0
 47 48  2  0
 48 49  1  0
 49 50  1  0
 50 51  2  0
 51 52  1  0
 52 53  2  0
 53 54  1  0
 54 55  1  0
 55 56  1  0
 53 57  1  0
 57 58  2  0
 57 59  1  0
 49 60  2  0
 60 61  1  0
 48 62  1  0
 62 63  2  0
 63 64  1  0
 63 65  1  0
 65 66  2  0
 66 67  1  0
 67 68  2  0
 68 69  1  0
 69 70  2  0
 70 71  1  0
 71 72  2  0
 72 73  1  0
 73 74  1  0
 74 75  1  0
 72 76  1  0
 76 77  1  0
 76 78  2  0
 68 79  1  0
 79 80  2  0
 80 81  1  0
 81 82  1  0
 82 83  2  0
 83 84  1  0
 84 85  2  0
 85 86  1  0
 86 87  1  0
 87 88  1  0
 85 89  1  0
 89 90  2  0
 89 91  1  0
 81 92  2  0
 92 93  1  0
 80 94  1  0
 94 95  2  0
 95 96  1  0
 95 97  1  0
 97 98  2  0
 98 99  1  0
 99100  1  0
100101  2  0
101102  1  0
102103  2  0
102104  1  0
104105  1  0
105106  2  3
106107  1  0
107108  2  0
108109  1  0
109110  2  0
110111  1  0
111112  2  0
112113  1  0
113114  2  0
114115  1  0
115116  1  0
116117  1  0
114118  1  0
118119  1  0
118120  2  0
110121  1  0
121122  2  0
122123  1  0
123124  1  0
124125  2  0
125126  1  0
126127  2  0
127128  1  0
128129  1  0
129130  1  0
127131  1  0
131132  2  0
131133  1  0
123134  2  0
134135  1  0
122136  1  0
136137  2  0
137138  1  0
137139  1  0
139140  2  0
140141  1  0
141142  1  0
142143  2  0
143144  1  0
144145  2  0
144146  1  0
146147  1  0
147148  2  3
 29  1  1  0
 61 33  1  0
 93 65  1  0
101 97  1  0
135107  1  0
143139  1  0
 28  3  1  0
 60 35  1  0
 92 67  1  0
134109  1  0
 14  5  1  0
 32 15  1  0
 46 37  1  0
 64 47  1  0
 78 69  1  0
 96 79  1  0
120111  1  0
138121  1  0
 26 18  1  0
 58 50  1  0
 90 82  1  0
132124  1  0
  1149  1  0
  2150  1  0
  6151  1  0
  7152  1  0
 10153  1  0
 10154  1  0
 11155  1  0
 11156  1  0
 11157  1  0
 14158  1  0
 19159  1  0
 20160  1  0
 23161  1  0
 23162  1  0
 24163  1  0
 24164  1  0
 24165  1  0
 26166  1  0
 30167  1  0
 34168  1  0
 38169  1  0
 39170  1  0
 42171  1  0
 42172  1  0
 43173  1  0
 43174  1  0
 43175  1  0
 46176  1  0
 51177  1  0
 52178  1  0
 55179  1  0
 55180  1  0
 56181  1  0
 56182  1  0
 56183  1  0
 58184  1  0
 62185  1  0
 66186  1  0
 70187  1  0
 71188  1  0
 74189  1  0
 74190  1  0
 75191  1  0
 75192  1  0
 75193  1  0
 78194  1  0
 83195  1  0
 84196  1  0
 87197  1  0
 87198  1  0
 88199  1  0
 88200  1  0
 88201  1  0
 90202  1  0
 94203  1  0
 98204  1  0
100205  1  0
105206  1  0
106207  1  0
108208  1  0
112209  1  0
113210  1  0
116211  1  0
116212  1  0
117213  1  0
117214  1  0
117215  1  0
120216  1  0
125217  1  0
126218  1  0
129219  1  0
129220  1  0
130221  1  0
130222  1  0
130223  1  0
132224  1  0
136225  1  0
140226  1  0
142227  1  0
147228  1  0
148229  1  0
148230  1  0
M  END

