
     RDKit          3D

229255  0  0  0  0  0  0  0  0999 V2000
   12.9611   -2.7959   -6.8679 C   0  0  0  0  0  0  0  0  0  0  0  0
   12.0595   -1.9552   -7.5163 C   0  0  0  0  0  0  0  0  0  0  0  0
   11.1384   -1.3465   -6.6511 C   0  0  0  0  0  0  0  0  0  0  0  0
   10.1389   -0.3922   -6.9901 C   0  0  0  0  0  0  0  0  0  0  0  0
    9.9495    0.0400   -8.3839 C   0  0  0  0  0  0  0  0  0  0  0  0
   10.2001    1.6026   -8.9582 S   0  0  0  0  0  0  0  0  0  0  0  0
    9.8331    1.2575  -10.5695 C   0  0  0  0  0  0  0  0  0  0  0  0
    9.9900    2.2233  -11.7031 C   0  0  0  0  0  0  0  0  0  0  0  0
   11.4510    2.3333  -12.1142 C   0  0  0  0  0  0  0  0  0  0  0  0
    9.5385   -0.0960  -10.6748 C   0  0  0  0  0  0  0  0  0  0  0  0
    9.1101   -0.8893  -12.1774 Cl  0  0  0  0  0  0  0  0  0  0  0  0
    9.6019   -0.7799   -9.4455 C   0  0  0  0  0  0  0  0  0  0  0  0
    9.1895   -2.4692   -9.2462 Cl  0  0  0  0  0  0  0  0  0  0  0  0
    9.3938    0.1525   -5.9390 C   0  0  0  0  0  0  0  0  0  0  0  0
    9.5665   -0.2478   -4.6076 C   0  0  0  0  0  0  0  0  0  0  0  0
   10.5183   -1.2279   -4.2777 C   0  0  0  0  0  0  0  0  0  0  0  0
   10.7517   -1.6223   -2.8860 C   0  0  0  0  0  0  0  0  0  0  0  0
    9.7889   -2.6652   -1.9937 S   0  0  0  0  0  0  0  0  0  0  0  0
   10.7141   -2.5983   -0.5797 C   0  0  0  0  0  0  0  0  0  0  0  0
   10.3677   -3.2777    0.7115 C   0  0  0  0  0  0  0  0  0  0  0  0
    9.9714   -4.7365    0.5013 C   0  0  0  0  0  0  0  0  0  0  0  0
   11.7765   -1.7249   -0.7983 C   0  0  0  0  0  0  0  0  0  0  0  0
   11.8262   -1.2215   -2.1003 C   0  0  0  0  0  0  0  0  0  0  0  0
   13.0569   -0.1176   -2.6720 Cl  0  0  0  0  0  0  0  0  0  0  0  0
   12.8956   -1.2300    0.4582 Cl  0  0  0  0  0  0  0  0  0  0  0  0
   11.3030   -1.7376   -5.3179 C   0  0  0  0  0  0  0  0  0  0  0  0
   12.6061   -2.7984   -5.2168 S   0  0  0  0  0  0  0  0  0  0  0  0
    8.7854    0.4706   -3.7006 C   0  0  0  0  0  0  0  0  0  0  0  0
    7.9464    1.3952   -4.3063 C   0  0  0  0  0  0  0  0  0  0  0  0
    8.2187    1.3689   -5.9803 S   0  0  0  0  0  0  0  0  0  0  0  0
    7.1846    2.4006   -3.5906 C   0  0  0  0  0  0  0  0  0  0  0  0
    7.6922    3.1997   -2.5760 C   0  0  0  0  0  0  0  0  0  0  0  0
    6.6917    3.7996   -1.7964 C   0  0  0  0  0  0  0  0  0  0  0  0
    6.9287    4.6482   -0.7133 C   0  0  0  0  0  0  0  0  0  0  0  0
    8.0602    5.5954   -0.7465 C   0  0  0  0  0  0  0  0  0  0  0  0
    7.8463    7.1846   -1.2412 S   0  0  0  0  0  0  0  0  0  0  0  0
    9.4578    7.6245   -1.2696 C   0  0  0  0  0  0  0  0  0  0  0  0
    9.9650    8.9168   -1.8334 C   0  0  0  0  0  0  0  0  0  0  0  0
    9.7519    8.9548   -3.3480 C   0  0  0  0  0  0  0  0  0  0  0  0
   10.2133    6.4988   -0.9194 C   0  0  0  0  0  0  0  0  0  0  0  0
   11.9701    6.4835   -0.8661 Cl  0  0  0  0  0  0  0  0  0  0  0  0
    9.4286    5.3608   -0.6082 C   0  0  0  0  0  0  0  0  0  0  0  0
   10.1249    3.8526   -0.0203 Cl  0  0  0  0  0  0  0  0  0  0  0  0
    5.8587    4.9394    0.1033 C   0  0  0  0  0  0  0  0  0  0  0  0
    4.5483    4.5066   -0.1449 C   0  0  0  0  0  0  0  0  0  0  0  0
    4.2729    3.6993   -1.2783 C   0  0  0  0  0  0  0  0  0  0  0  0
    3.0285    2.8957   -1.3440 C   0  0  0  0  0  0  0  0  0  0  0  0
    2.6334    1.8548   -0.0730 S   0  0  0  0  0  0  0  0  0  0  0  0
    1.8599    0.6782   -0.9869 C   0  0  0  0  0  0  0  0  0  0  0  0
    1.4628   -0.6779   -0.4509 C   0  0  0  0  0  0  0  0  0  0  0  0
   -0.0126   -0.9775   -0.6525 C   0  0  0  0  0  0  0  0  0  0  0  0
    1.9109    1.0647   -2.3295 C   0  0  0  0  0  0  0  0  0  0  0  0
    2.5240    2.3141   -2.5203 C   0  0  0  0  0  0  0  0  0  0  0  0
    2.3429    3.2125   -4.0344 Cl  0  0  0  0  0  0  0  0  0  0  0  0
    1.4615    0.0198   -3.6791 Cl  0  0  0  0  0  0  0  0  0  0  0  0
    5.3952    3.4266   -2.1239 C   0  0  0  0  0  0  0  0  0  0  0  0
    5.5119    2.4250   -3.4919 S   0  0  0  0  0  0  0  0  0  0  0  0
    3.6269    4.9829    0.8272 C   0  0  0  0  0  0  0  0  0  0  0  0
    4.2594    5.7507    1.8186 C   0  0  0  0  0  0  0  0  0  0  0  0
    5.9036    5.8438    1.5059 S   0  0  0  0  0  0  0  0  0  0  0  0
    3.7044    6.4359    2.9861 C   0  0  0  0  0  0  0  0  0  0  0  0
    3.4332    8.0949    2.9057 S   0  0  0  0  0  0  0  0  0  0  0  0
    4.0360    8.5191    4.4153 C   0  0  0  0  0  0  0  0  0  0  0  0
    4.5019    7.3531    5.0059 C   0  0  0  0  0  0  0  0  0  0  0  0
    4.2584    6.1865    4.2553 C   0  0  0  0  0  0  0  0  0  0  0  0
    4.6099    4.9244    4.7588 C   0  0  0  0  0  0  0  0  0  0  0  0
    5.3063    4.8586    5.9695 C   0  0  0  0  0  0  0  0  0  0  0  0
    5.6297    6.0286    6.6789 C   0  0  0  0  0  0  0  0  0  0  0  0
    5.2163    7.2904    6.2117 C   0  0  0  0  0  0  0  0  0  0  0  0
    5.5054    8.4658    6.9130 O   0  0  0  0  0  0  0  0  0  0  0  0
    6.2897    8.4959    8.1041 C   0  0  0  0  0  0  0  0  0  0  0  0
    3.7874    3.7827    4.3845 C   0  0  0  0  0  0  0  0  0  0  0  0
    2.4439    3.7406    4.7126 C   0  0  0  0  0  0  0  0  0  0  0  0
    1.8517    2.5122    4.4574 C   0  0  0  0  0  0  0  0  0  0  0  0
    0.5366    2.1736    4.8214 C   0  0  0  0  0  0  0  0  0  0  0  0
   -0.3159    3.1232    5.5333 C   0  0  0  0  0  0  0  0  0  0  0  0
   -0.9570    4.5417    4.8873 S   0  0  0  0  0  0  0  0  0  0  0  0
   -1.6391    5.0875    6.3269 C   0  0  0  0  0  0  0  0  0  0  0  0
   -2.4537    6.3343    6.4709 C   0  0  0  0  0  0  0  0  0  0  0  0
   -3.9311    6.0664    6.1781 C   0  0  0  0  0  0  0  0  0  0  0  0
   -1.3836    4.1544    7.3285 C   0  0  0  0  0  0  0  0  0  0  0  0
   -1.8898    4.3552    8.9923 Cl  0  0  0  0  0  0  0  0  0  0  0  0
   -0.6433    3.0437    6.8782 C   0  0  0  0  0  0  0  0  0  0  0  0
   -0.1380    1.7234    7.9089 Cl  0  0  0  0  0  0  0  0  0  0  0  0
    0.1241    0.8763    4.5539 C   0  0  0  0  0  0  0  0  0  0  0  0
    0.9237   -0.0642    3.8958 C   0  0  0  0  0  0  0  0  0  0  0  0
    2.2822    0.2526    3.6021 C   0  0  0  0  0  0  0  0  0  0  0  0
    3.2382   -0.7553    3.0731 C   0  0  0  0  0  0  0  0  0  0  0  0
    4.2544   -0.5066    1.7559 S   0  0  0  0  0  0  0  0  0  0  0  0
    5.0455   -1.9756    1.8247 C   0  0  0  0  0  0  0  0  0  0  0  0
    6.0125   -2.4782    0.7897 C   0  0  0  0  0  0  0  0  0  0  0  0
    5.2634   -3.3104   -0.2393 C   0  0  0  0  0  0  0  0  0  0  0  0
    4.5295   -2.6954    2.8965 C   0  0  0  0  0  0  0  0  0  0  0  0
    3.5363   -2.0035    3.6166 C   0  0  0  0  0  0  0  0  0  0  0  0
    2.7999   -2.6379    5.0843 Cl  0  0  0  0  0  0  0  0  0  0  0  0
    5.1019   -4.2880    3.3393 Cl  0  0  0  0  0  0  0  0  0  0  0  0
    2.7064    1.5658    3.8806 C   0  0  0  0  0  0  0  0  0  0  0  0
    4.2481    2.2762    3.7628 S   0  0  0  0  0  0  0  0  0  0  0  0
    0.2214   -1.2552    3.5950 C   0  0  0  0  0  0  0  0  0  0  0  0
   -1.1047   -1.2336    4.0755 C   0  0  0  0  0  0  0  0  0  0  0  0
   -1.3899    0.2354    4.8295 S   0  0  0  0  0  0  0  0  0  0  0  0
   -2.2016   -2.1860    3.8504 C   0  0  0  0  0  0  0  0  0  0  0  0
   -2.4538   -2.9078    2.6796 C   0  0  0  0  0  0  0  0  0  0  0  0
   -3.7870   -3.3589    2.5889 C   0  0  0  0  0  0  0  0  0  0  0  0
   -4.3789   -4.0262    1.4974 C   0  0  0  0  0  0  0  0  0  0  0  0
   -3.5789   -4.4558    0.3547 C   0  0  0  0  0  0  0  0  0  0  0  0
   -2.8270   -3.4467   -0.7472 S   0  0  0  0  0  0  0  0  0  0  0  0
   -2.0706   -4.6680   -1.6158 C   0  0  0  0  0  0  0  0  0  0  0  0
   -1.2242   -4.4550   -2.8355 C   0  0  0  0  0  0  0  0  0  0  0  0
   -2.0486   -4.6628   -4.0995 C   0  0  0  0  0  0  0  0  0  0  0  0
   -2.4406   -5.8963   -1.0780 C   0  0  0  0  0  0  0  0  0  0  0  0
   -1.8733   -7.4433   -1.6901 Cl  0  0  0  0  0  0  0  0  0  0  0  0
   -3.3047   -5.7767    0.0222 C   0  0  0  0  0  0  0  0  0  0  0  0
   -3.9513   -7.1491    0.9023 Cl  0  0  0  0  0  0  0  0  0  0  0  0
   -5.7701   -4.2732    1.5564 C   0  0  0  0  0  0  0  0  0  0  0  0
   -6.5469   -3.8813    2.6497 C   0  0  0  0  0  0  0  0  0  0  0  0
   -5.9430   -3.2615    3.7684 C   0  0  0  0  0  0  0  0  0  0  0  0
   -6.7349   -2.8707    4.9508 C   0  0  0  0  0  0  0  0  0  0  0  0
   -6.8708   -1.3016    5.5481 S   0  0  0  0  0  0  0  0  0  0  0  0
   -7.7974   -1.6935    6.8888 C   0  0  0  0  0  0  0  0  0  0  0  0
   -8.2546   -0.7262    7.9438 C   0  0  0  0  0  0  0  0  0  0  0  0
   -7.2083   -0.5907    9.0422 C   0  0  0  0  0  0  0  0  0  0  0  0
   -7.9813   -3.0745    6.9184 C   0  0  0  0  0  0  0  0  0  0  0  0
   -7.3972   -3.7294    5.8149 C   0  0  0  0  0  0  0  0  0  0  0  0
   -7.4534   -5.4727    5.5985 Cl  0  0  0  0  0  0  0  0  0  0  0  0
   -8.8301   -3.9150    8.2023 Cl  0  0  0  0  0  0  0  0  0  0  0  0
   -4.5775   -3.0119    3.6941 C   0  0  0  0  0  0  0  0  0  0  0  0
   -3.6118   -2.1646    4.7727 S   0  0  0  0  0  0  0  0  0  0  0  0
   -7.9225   -4.0583    2.4443 C   0  0  0  0  0  0  0  0  0  0  0  0
   -8.2343   -4.5798    1.1893 C   0  0  0  0  0  0  0  0  0  0  0  0
   -6.7919   -4.8594    0.3484 S   0  0  0  0  0  0  0  0  0  0  0  0
   -9.5997   -4.6263    0.6440 C   0  0  0  0  0  0  0  0  0  0  0  0
  -10.0866   -5.5286   -0.2936 C   0  0  0  0  0  0  0  0  0  0  0  0
  -11.4590   -5.3499   -0.5478 C   0  0  0  0  0  0  0  0  0  0  0  0
  -12.2841   -6.1923   -1.3220 C   0  0  0  0  0  0  0  0  0  0  0  0
  -11.7506   -7.4253   -1.9255 C   0  0  0  0  0  0  0  0  0  0  0  0
  -10.6557   -7.4984   -3.1951 S   0  0  0  0  0  0  0  0  0  0  0  0
  -10.5895   -9.1834   -3.2621 C   0  0  0  0  0  0  0  0  0  0  0  0
   -9.8090   -9.9665   -4.2689 C   0  0  0  0  0  0  0  0  0  0  0  0
  -10.6454  -10.1791   -5.5272 C   0  0  0  0  0  0  0  0  0  0  0  0
  -11.4478   -9.7090   -2.3010 C   0  0  0  0  0  0  0  0  0  0  0  0
  -11.6359  -11.4224   -2.0004 Cl  0  0  0  0  0  0  0  0  0  0  0  0
  -12.1097   -8.7162   -1.5550 C   0  0  0  0  0  0  0  0  0  0  0  0
  -13.2094   -9.0668   -0.2311 Cl  0  0  0  0  0  0  0  0  0  0  0  0
  -13.6484   -5.8827   -1.3790 C   0  0  0  0  0  0  0  0  0  0  0  0
  -14.2102   -4.8006   -0.6888 C   0  0  0  0  0  0  0  0  0  0  0  0
  -13.3916   -3.9714    0.1135 C   0  0  0  0  0  0  0  0  0  0  0  0
  -13.9522   -2.9041    0.9551 C   0  0  0  0  0  0  0  0  0  0  0  0
  -13.5068   -1.2793    0.8774 S   0  0  0  0  0  0  0  0  0  0  0  0
  -14.4117   -0.7726    2.2029 C   0  0  0  0  0  0  0  0  0  0  0  0
  -14.5182    0.6402    2.6823 C   0  0  0  0  0  0  0  0  0  0  0  0
  -15.7457    1.3277    2.0872 C   0  0  0  0  0  0  0  0  0  0  0  0
  -15.0808   -1.8796    2.7272 C   0  0  0  0  0  0  0  0  0  0  0  0
  -14.8080   -3.0743    2.0390 C   0  0  0  0  0  0  0  0  0  0  0  0
  -15.4366   -4.6339    2.5374 Cl  0  0  0  0  0  0  0  0  0  0  0  0
  -16.1086   -1.8010    4.1426 Cl  0  0  0  0  0  0  0  0  0  0  0  0
  -12.0237   -4.2755    0.1570 C   0  0  0  0  0  0  0  0  0  0  0  0
  -10.8417   -3.5917    1.1282 S   0  0  0  0  0  0  0  0  0  0  0  0
  -15.5955   -4.6902   -0.8660 C   0  0  0  0  0  0  0  0  0  0  0  0
  -16.1317   -5.6813   -1.6765 C   0  0  0  0  0  0  0  0  0  0  0  0
  -14.8829   -6.6962   -2.1810 S   0  0  0  0  0  0  0  0  0  0  0  0
   13.7591   -3.3357   -7.3526 H   0  0  0  0  0  0  0  0  0  0  0  0
   12.0873   -1.7886   -8.5774 H   0  0  0  0  0  0  0  0  0  0  0  0
    9.6246    3.2194  -11.4019 H   0  0  0  0  0  0  0  0  0  0  0  0
    9.3951    1.8936  -12.5838 H   0  0  0  0  0  0  0  0  0  0  0  0
   11.8262    1.3417  -12.4393 H   0  0  0  0  0  0  0  0  0  0  0  0
   11.5720    3.0533  -12.9472 H   0  0  0  0  0  0  0  0  0  0  0  0
   12.0601    2.6802  -11.2494 H   0  0  0  0  0  0  0  0  0  0  0  0
    9.5238   -2.7382    1.1987 H   0  0  0  0  0  0  0  0  0  0  0  0
   11.2489   -3.2752    1.3932 H   0  0  0  0  0  0  0  0  0  0  0  0
    9.8317   -5.2405    1.4759 H   0  0  0  0  0  0  0  0  0  0  0  0
   10.7704   -5.2767   -0.0408 H   0  0  0  0  0  0  0  0  0  0  0  0
    9.0333   -4.8146   -0.0925 H   0  0  0  0  0  0  0  0  0  0  0  0
    8.8499    0.3522   -2.6261 H   0  0  0  0  0  0  0  0  0  0  0  0
    8.7143    3.1811   -2.2995 H   0  0  0  0  0  0  0  0  0  0  0  0
    9.3928    9.7553   -1.3647 H   0  0  0  0  0  0  0  0  0  0  0  0
   11.0481    9.0518   -1.6102 H   0  0  0  0  0  0  0  0  0  0  0  0
   10.4000    8.1970   -3.8404 H   0  0  0  0  0  0  0  0  0  0  0  0
    8.6848    8.7715   -3.6002 H   0  0  0  0  0  0  0  0  0  0  0  0
   10.0221    9.9620   -3.7456 H   0  0  0  0  0  0  0  0  0  0  0  0
    2.0875   -1.4882   -0.9105 H   0  0  0  0  0  0  0  0  0  0  0  0
    1.6286   -0.6980    0.6501 H   0  0  0  0  0  0  0  0  0  0  0  0
   -0.6237   -0.1558   -0.2130 H   0  0  0  0  0  0  0  0  0  0  0  0
   -0.2783   -1.9328   -0.1538 H   0  0  0  0  0  0  0  0  0  0  0  0
   -0.2396   -1.0876   -1.7348 H   0  0  0  0  0  0  0  0  0  0  0  0
    2.5550    4.8551    0.7521 H   0  0  0  0  0  0  0  0  0  0  0  0
    4.1457    9.5213    4.8036 H   0  0  0  0  0  0  0  0  0  0  0  0
    5.5043    3.9042    6.4304 H   0  0  0  0  0  0  0  0  0  0  0  0
    6.1462    5.9324    7.6213 H   0  0  0  0  0  0  0  0  0  0  0  0
    6.3820    9.5413    8.4475 H   0  0  0  0  0  0  0  0  0  0  0  0
    7.3073    8.0951    7.8998 H   0  0  0  0  0  0  0  0  0  0  0  0
    5.8009    7.9024    8.8942 H   0  0  0  0  0  0  0  0  0  0  0  0
    1.9340    4.5705    5.1754 H   0  0  0  0  0  0  0  0  0  0  0  0
   -2.0756    7.1088    5.7687 H   0  0  0  0  0  0  0  0  0  0  0  0
   -2.3673    6.7390    7.5031 H   0  0  0  0  0  0  0  0  0  0  0  0
   -4.4988    7.0126    6.2497 H   0  0  0  0  0  0  0  0  0  0  0  0
   -4.3427    5.3574    6.9261 H   0  0  0  0  0  0  0  0  0  0  0  0
   -4.0582    5.6370    5.1637 H   0  0  0  0  0  0  0  0  0  0  0  0
    6.7968   -3.1023    1.2633 H   0  0  0  0  0  0  0  0  0  0  0  0
    6.5006   -1.6078    0.2965 H   0  0  0  0  0  0  0  0  0  0  0  0
    5.9591   -3.6918   -1.0139 H   0  0  0  0  0  0  0  0  0  0  0  0
    4.7628   -4.1784    0.2553 H   0  0  0  0  0  0  0  0  0  0  0  0
    4.4850   -2.6954   -0.7419 H   0  0  0  0  0  0  0  0  0  0  0  0
    0.6444   -2.0877    3.0514 H   0  0  0  0  0  0  0  0  0  0  0  0
   -1.7372   -2.9835    1.8775 H   0  0  0  0  0  0  0  0  0  0  0  0
   -0.3828   -5.1879   -2.8348 H   0  0  0  0  0  0  0  0  0  0  0  0
   -0.7947   -3.4298   -2.8312 H   0  0  0  0  0  0  0  0  0  0  0  0
   -2.3937   -5.7166   -4.1552 H   0  0  0  0  0  0  0  0  0  0  0  0
   -2.9278   -3.9846   -4.0949 H   0  0  0  0  0  0  0  0  0  0  0  0
   -1.4232   -4.4420   -5.0002 H   0  0  0  0  0  0  0  0  0  0  0  0
   -9.2054   -1.0751    8.3922 H   0  0  0  0  0  0  0  0  0  0  0  0
   -8.4409    0.2751    7.4882 H   0  0  0  0  0  0  0  0  0  0  0  0
   -7.0270   -1.5844    9.5088 H   0  0  0  0  0  0  0  0  0  0  0  0
   -6.2553   -0.2009    8.6295 H   0  0  0  0  0  0  0  0  0  0  0  0
   -7.5728    0.1031    9.8229 H   0  0  0  0  0  0  0  0  0  0  0  0
   -8.6771   -3.7635    3.1532 H   0  0  0  0  0  0  0  0  0  0  0  0
   -9.4813   -6.3061   -0.7367 H   0  0  0  0  0  0  0  0  0  0  0  0
   -8.8815   -9.4100   -4.5307 H   0  0  0  0  0  0  0  0  0  0  0  0
   -9.5221  -10.9584   -3.8471 H   0  0  0  0  0  0  0  0  0  0  0  0
  -11.4996  -10.8538   -5.3139 H   0  0  0  0  0  0  0  0  0  0  0  0
  -11.0314   -9.2031   -5.9018 H   0  0  0  0  0  0  0  0  0  0  0  0
  -10.0255  -10.6389   -6.3309 H   0  0  0  0  0  0  0  0  0  0  0  0
  -14.5861    0.6622    3.7933 H   0  0  0  0  0  0  0  0  0  0  0  0
  -13.6090    1.2060    2.3841 H   0  0  0  0  0  0  0  0  0  0  0  0
  -16.6718    0.7617    2.3402 H   0  0  0  0  0  0  0  0  0  0  0  0
  -15.8304    2.3598    2.4845 H   0  0  0  0  0  0  0  0  0  0  0  0
  -15.6452    1.3860    0.9857 H   0  0  0  0  0  0  0  0  0  0  0  0
  -16.2071   -3.9286   -0.4071 H   0  0  0  0  0  0  0  0  0  0  0  0
  -17.1805   -5.7931   -1.9233 H   0  0  0  0  0  0  0  0  0  0  0  0
  1  2  2  0
  2  3  1  0
  3  4  2  0
  4  5  1  0
  5  6  1  0
  6  7  1  0
  7  8  1  0
  8  9  1  0
  7 10  2  0
 10 11  1  0
 10 12  1  0
 12 13  1  0
  4 14  1  0
 14 15  2  0
 15 16  1  0
 16 17  1  0
 17 18  1  0
 18 19  1  0
 19 20  1  0
 20 21  1  0
 19 22  2  0
 22 23  1  0
 23 24  1  0
 22 25  1  0
 16 26  2  0
 26 27  1  0
 15 28  1  0
 28 29  2  0
 29 30  1  0
 29 31  1  0
 31 32  2  0
 32 33  1  0
 33 34  2  0
 34 35  1  0
 35 36  1  0
 36 37  1  0
 37 38  1  0
 38 39  1  0
 37 40  2  0
 40 41  1  0
 40 42  1  0
 42 43  1  0
 34 44  1  0
 44 45  2  0
 45 46  1  0
 46 47  1  0
 47 48  1  0
 48 49  1  0
 49 50  1  0
 50 51  1  0
 49 52  2  0
 52 53  1  0
 53 54  1  0
 52 55  1  0
 46 56  2  0
 56 57  1  0
 45 58  1  0
 58 59  2  0
 59 60  1  0
 59 61  1  0
 61 62  1  0
 62 63  1  0
 63 64  2  0
 64 65  1  0
 65 66  1  0
 66 67  2  0
 67 68  1  0
 68 69  2  0
 69 70  1  0
 70 71  1  0
 66 72  1  0
 72 73  2  0
 73 74  1  0
 74 75  2  0
 75 76  1  0
 76 77  1  0
 77 78  1  0
 78 79  1  0
 79 80  1  0
 78 81  2  0
 81 82  1  0
 81 83  1  0
 83 84  1  0
 75 85  1  0
 85 86  2  0
 86 87  1  0
 87 88  1  0
 88 89  1  0
 89 90  1  0
 90 91  1  0
 91 92  1  0
 90 93  2  0
 93 94  1  0
 94 95  1  0
 93 96  1  0
 87 97  2  0
 97 98  1  0
 86 99  1  0
 99100  2  0
100101  1  0
100102  1  0
102103  2  0
103104  1  0
104105  2  0
105106  1  0
106107  1  0
107108  1  0
108109  1  0
109110  1  0
108111  2  0
111112  1  0
111113  1  0
113114  1  0
105115  1  0
115116  2  0
116117  1  0
117118  1  0
118119  1  0
119120  1  0
120121  1  0
121122  1  0
120123  2  0
123124  1  0
124125  1  0
123126  1  0
117127  2  0
127128  1  0
116129  1  0
129130  2  0
130131  1  0
130132  1  0
132133  2  0
133134  1  0
134135  2  0
135136  1  0
136137  1  0
137138  1  0
138139  1  0
139140  1  0
138141  2  0
141142  1  0
141143  1  0
143144  1  0
135145  1  0
145146  2  0
146147  1  0
147148  1  0
148149  1  0
149150  1  0
150151  1  0
151152  1  0
150153  2  0
153154  1  0
154155  1  0
153156  1  0
147157  2  0
157158  1  0
146159  1  0
159160  2  0
160161  1  0
 27  1  1  0
 57 31  1  0
 65 61  2  0
 98 72  1  0
128102  1  0
158132  1  0
 26  3  1  0
 56 33  1  0
 69 64  1  0
 97 74  1  0
127104  1  0
157134  1  0
 12  5  2  0
 30 14  1  0
 42 35  2  0
 60 44  1  0
 83 76  2  0
101 85  1  0
113106  2  0
131115  1  0
143136  2  0
161145  1  0
 23 17  2  0
 53 47  2  0
 94 88  2  0
124118  2  0
154148  2  0
  1162  1  0
  2163  1  0
  8164  1  0
  8165  1  0
  9166  1  0
  9167  1  0
  9168  1  0
 20169  1  0
 20170  1  0
 21171  1  0
 21172  1  0
 21173  1  0
 28174  1  0
 32175  1  0
 38176  1  0
 38177  1  0
 39178  1  0
 39179  1  0
 39180  1  0
 50181  1  0
 50182  1  0
 51183  1  0
 51184  1  0
 51185  1  0
 58186  1  0
 63187  1  0
 67188  1  0
 68189  1  0
 71190  1  0
 71191  1  0
 71192  1  0
 73193  1  0
 79194  1  0
 79195  1  0
 80196  1  0
 80197  1  0
 80198  1  0
 91199  1  0
 91200  1  0
 92201  1  0
 92202  1  0
 92203  1  0
 99204  1  0
103205  1  0
109206  1  0
109207  1  0
110208  1  0
110209  1  0
110210  1  0
121211  1  0
121212  1  0
122213  1  0
122214  1  0
122215  1  0
129216  1  0
133217  1  0
139218  1  0
139219  1  0
140220  1  0
140221  1  0
140222  1  0
151223  1  0
151224  1  0
152225  1  0
152226  1  0
152227  1  0
159228  1  0
160229  1  0
M  END

