
     RDKit          3D

229255  0  0  0  0  0  0  0  0999 V2000
   -6.5065  -10.6427    3.6605 C   0  0  0  0  0  0  0  0  0  0  0  0
   -5.1259  -10.5315    3.8102 C   0  0  0  0  0  0  0  0  0  0  0  0
   -4.7110   -9.2409    4.1820 C   0  0  0  0  0  0  0  0  0  0  0  0
   -3.3863   -8.8108    4.4179 C   0  0  0  0  0  0  0  0  0  0  0  0
   -2.2406   -9.7402    4.4265 C   0  0  0  0  0  0  0  0  0  0  0  0
   -1.2665  -10.0148    5.7708 S   0  0  0  0  0  0  0  0  0  0  0  0
   -0.2287  -11.1133    5.0371 C   0  0  0  0  0  0  0  0  0  0  0  0
    0.9392  -11.7539    5.7212 C   0  0  0  0  0  0  0  0  0  0  0  0
    2.1625  -10.8434    5.6839 C   0  0  0  0  0  0  0  0  0  0  0  0
   -0.6208  -11.2686    3.7074 C   0  0  0  0  0  0  0  0  0  0  0  0
    0.2216  -12.3080    2.5638 Cl  0  0  0  0  0  0  0  0  0  0  0  0
   -1.7565  -10.5083    3.3656 C   0  0  0  0  0  0  0  0  0  0  0  0
   -2.4645  -10.5106    1.7556 Cl  0  0  0  0  0  0  0  0  0  0  0  0
   -3.2185   -7.4713    4.8176 C   0  0  0  0  0  0  0  0  0  0  0  0
   -4.2938   -6.6067    5.0385 C   0  0  0  0  0  0  0  0  0  0  0  0
   -5.6113   -7.0380    4.8046 C   0  0  0  0  0  0  0  0  0  0  0  0
   -6.7651   -6.1585    5.0312 C   0  0  0  0  0  0  0  0  0  0  0  0
   -7.1679   -4.8442    4.0585 S   0  0  0  0  0  0  0  0  0  0  0  0
   -8.5360   -4.4006    4.9329 C   0  0  0  0  0  0  0  0  0  0  0  0
   -9.4765   -3.3047    4.5330 C   0  0  0  0  0  0  0  0  0  0  0  0
  -10.6761   -3.8792    3.7861 C   0  0  0  0  0  0  0  0  0  0  0  0
   -8.7062   -5.2959    5.9921 C   0  0  0  0  0  0  0  0  0  0  0  0
   -7.7072   -6.2802    6.0502 C   0  0  0  0  0  0  0  0  0  0  0  0
   -7.6426   -7.5304    7.2834 Cl  0  0  0  0  0  0  0  0  0  0  0  0
  -10.0303   -5.2022    7.1442 Cl  0  0  0  0  0  0  0  0  0  0  0  0
   -5.7826   -8.3592    4.3600 C   0  0  0  0  0  0  0  0  0  0  0  0
   -7.2209   -9.1601    4.0178 S   0  0  0  0  0  0  0  0  0  0  0  0
   -3.9110   -5.3599    5.5647 C   0  0  0  0  0  0  0  0  0  0  0  0
   -2.5268   -5.2204    5.6785 C   0  0  0  0  0  0  0  0  0  0  0  0
   -1.7967   -6.6667    5.1962 S   0  0  0  0  0  0  0  0  0  0  0  0
   -1.7967   -4.1169    6.3336 C   0  0  0  0  0  0  0  0  0  0  0  0
   -0.4278   -4.4280    7.2664 S   0  0  0  0  0  0  0  0  0  0  0  0
   -0.3293   -2.9491    8.0380 C   0  0  0  0  0  0  0  0  0  0  0  0
   -1.3895   -2.1709    7.5843 C   0  0  0  0  0  0  0  0  0  0  0  0
   -2.1901   -2.7805    6.5825 C   0  0  0  0  0  0  0  0  0  0  0  0
   -3.2209   -2.0232    5.9619 C   0  0  0  0  0  0  0  0  0  0  0  0
   -3.5406   -0.7693    6.5213 C   0  0  0  0  0  0  0  0  0  0  0  0
   -2.7911   -0.2187    7.5675 C   0  0  0  0  0  0  0  0  0  0  0  0
   -1.6821   -0.8988    8.0867 C   0  0  0  0  0  0  0  0  0  0  0  0
   -0.8802   -0.3535    9.1028 O   0  0  0  0  0  0  0  0  0  0  0  0
   -1.1336    0.8913    9.7455 C   0  0  0  0  0  0  0  0  0  0  0  0
   -3.8496   -2.3682    4.6569 C   0  0  0  0  0  0  0  0  0  0  0  0
   -3.2378   -3.0429    3.5984 C   0  0  0  0  0  0  0  0  0  0  0  0
   -3.9877   -3.0206    2.4097 C   0  0  0  0  0  0  0  0  0  0  0  0
   -3.6301   -3.6058    1.1761 C   0  0  0  0  0  0  0  0  0  0  0  0
   -2.4479   -4.4802    1.0281 C   0  0  0  0  0  0  0  0  0  0  0  0
   -0.8547   -4.0426    1.3648 S   0  0  0  0  0  0  0  0  0  0  0  0
   -0.1766   -5.5343    0.9824 C   0  0  0  0  0  0  0  0  0  0  0  0
    1.2603   -5.9004    1.2078 C   0  0  0  0  0  0  0  0  0  0  0  0
    1.4827   -6.3189    2.6563 C   0  0  0  0  0  0  0  0  0  0  0  0
   -1.1919   -6.3973    0.5779 C   0  0  0  0  0  0  0  0  0  0  0  0
   -0.9059   -8.0525    0.0635 Cl  0  0  0  0  0  0  0  0  0  0  0  0
   -2.4660   -5.8083    0.6063 C   0  0  0  0  0  0  0  0  0  0  0  0
   -3.9396   -6.6843    0.2174 Cl  0  0  0  0  0  0  0  0  0  0  0  0
   -4.4436   -3.2995    0.0713 C   0  0  0  0  0  0  0  0  0  0  0  0
   -5.5812   -2.4938    0.1733 C   0  0  0  0  0  0  0  0  0  0  0  0
   -5.9956   -1.9986    1.4261 C   0  0  0  0  0  0  0  0  0  0  0  0
   -7.1361   -1.0707    1.5482 C   0  0  0  0  0  0  0  0  0  0  0  0
   -7.0135    0.5375    2.0230 S   0  0  0  0  0  0  0  0  0  0  0  0
   -8.6292    0.9214    1.7718 C   0  0  0  0  0  0  0  0  0  0  0  0
   -9.2304    2.2648    2.0552 C   0  0  0  0  0  0  0  0  0  0  0  0
   -9.7670    2.3218    3.4799 C   0  0  0  0  0  0  0  0  0  0  0  0
   -9.2979   -0.2153    1.3239 C   0  0  0  0  0  0  0  0  0  0  0  0
   -8.4564   -1.3314    1.1873 C   0  0  0  0  0  0  0  0  0  0  0  0
   -9.0144   -2.8997    0.6258 Cl  0  0  0  0  0  0  0  0  0  0  0  0
  -11.0185   -0.2563    0.9669 Cl  0  0  0  0  0  0  0  0  0  0  0  0
   -5.1640   -2.2769    2.5227 C   0  0  0  0  0  0  0  0  0  0  0  0
   -5.2976   -1.7003    4.0910 S   0  0  0  0  0  0  0  0  0  0  0  0
   -6.0913   -2.0970   -1.0760 C   0  0  0  0  0  0  0  0  0  0  0  0
   -5.3393   -2.5576   -2.1570 C   0  0  0  0  0  0  0  0  0  0  0  0
   -4.0757   -3.5052   -1.5575 S   0  0  0  0  0  0  0  0  0  0  0  0
   -5.2724   -1.8764   -3.4626 C   0  0  0  0  0  0  0  0  0  0  0  0
   -5.6249   -0.5350   -3.6375 C   0  0  0  0  0  0  0  0  0  0  0  0
   -4.9207    0.1003   -4.6748 C   0  0  0  0  0  0  0  0  0  0  0  0
   -4.8584    1.4941   -4.8836 C   0  0  0  0  0  0  0  0  0  0  0  0
   -5.7406    2.4199   -4.1376 C   0  0  0  0  0  0  0  0  0  0  0  0
   -5.2263    3.5729   -3.0229 S   0  0  0  0  0  0  0  0  0  0  0  0
   -6.7617    4.1159   -2.5945 C   0  0  0  0  0  0  0  0  0  0  0  0
   -7.0320    5.2325   -1.6300 C   0  0  0  0  0  0  0  0  0  0  0  0
   -6.7600    6.5862   -2.2813 C   0  0  0  0  0  0  0  0  0  0  0  0
   -7.7065    3.3938   -3.3233 C   0  0  0  0  0  0  0  0  0  0  0  0
   -9.4443    3.6519   -3.1930 Cl  0  0  0  0  0  0  0  0  0  0  0  0
   -7.1371    2.4393   -4.1813 C   0  0  0  0  0  0  0  0  0  0  0  0
   -8.0915    1.3858   -5.2211 Cl  0  0  0  0  0  0  0  0  0  0  0  0
   -3.8024    1.9616   -5.6881 C   0  0  0  0  0  0  0  0  0  0  0  0
   -2.9098    1.1024   -6.3395 C   0  0  0  0  0  0  0  0  0  0  0  0
   -3.0678   -0.2961   -6.2466 C   0  0  0  0  0  0  0  0  0  0  0  0
   -2.1517   -1.2268   -6.9349 C   0  0  0  0  0  0  0  0  0  0  0  0
   -1.1417   -2.3487   -6.1881 S   0  0  0  0  0  0  0  0  0  0  0  0
   -0.4932   -2.9838   -7.6046 C   0  0  0  0  0  0  0  0  0  0  0  0
    0.4784   -4.1198   -7.6562 C   0  0  0  0  0  0  0  0  0  0  0  0
   -0.2509   -5.4570   -7.5844 C   0  0  0  0  0  0  0  0  0  0  0  0
   -1.0755   -2.3307   -8.6913 C   0  0  0  0  0  0  0  0  0  0  0  0
   -1.9957   -1.3415   -8.3145 C   0  0  0  0  0  0  0  0  0  0  0  0
   -2.8991   -0.3727   -9.4750 Cl  0  0  0  0  0  0  0  0  0  0  0  0
   -0.7218   -2.7265  -10.3687 Cl  0  0  0  0  0  0  0  0  0  0  0  0
   -4.0543   -0.7622   -5.3564 C   0  0  0  0  0  0  0  0  0  0  0  0
   -4.1614   -2.2905   -4.6629 S   0  0  0  0  0  0  0  0  0  0  0  0
   -1.7589    1.7567   -6.8180 C   0  0  0  0  0  0  0  0  0  0  0  0
   -1.7152    3.1159   -6.5037 C   0  0  0  0  0  0  0  0  0  0  0  0
   -3.1568    3.5087   -5.7187 S   0  0  0  0  0  0  0  0  0  0  0  0
   -0.4578    3.7304   -6.0668 C   0  0  0  0  0  0  0  0  0  0  0  0
   -0.0597    3.6952   -4.7355 C   0  0  0  0  0  0  0  0  0  0  0  0
    1.2682    4.0807   -4.5458 C   0  0  0  0  0  0  0  0  0  0  0  0
    1.9646    4.0258   -3.3282 C   0  0  0  0  0  0  0  0  0  0  0  0
    1.3124    3.5792   -2.0820 C   0  0  0  0  0  0  0  0  0  0  0  0
    1.5917    2.1018   -1.3299 S   0  0  0  0  0  0  0  0  0  0  0  0
    0.4247    2.2853   -0.1305 C   0  0  0  0  0  0  0  0  0  0  0  0
    0.1349    1.2802    0.9402 C   0  0  0  0  0  0  0  0  0  0  0  0
    1.0083    1.5287    2.1658 C   0  0  0  0  0  0  0  0  0  0  0  0
   -0.1939    3.5241   -0.2960 C   0  0  0  0  0  0  0  0  0  0  0  0
   -1.4694    4.1231    0.7576 Cl  0  0  0  0  0  0  0  0  0  0  0  0
    0.2985    4.2442   -1.3983 C   0  0  0  0  0  0  0  0  0  0  0  0
   -0.3063    5.8301   -1.8615 Cl  0  0  0  0  0  0  0  0  0  0  0  0
    3.3292    4.3353   -3.3641 C   0  0  0  0  0  0  0  0  0  0  0  0
    3.9829    4.7383   -4.5325 C   0  0  0  0  0  0  0  0  0  0  0  0
    3.2792    4.7996   -5.7571 C   0  0  0  0  0  0  0  0  0  0  0  0
    3.9550    5.1644   -7.0112 C   0  0  0  0  0  0  0  0  0  0  0  0
    4.3612    4.0757   -8.2279 S   0  0  0  0  0  0  0  0  0  0  0  0
    5.2543    5.1649   -9.1493 C   0  0  0  0  0  0  0  0  0  0  0  0
    6.0695    4.7844  -10.3475 C   0  0  0  0  0  0  0  0  0  0  0  0
    7.4658    4.3491   -9.9195 C   0  0  0  0  0  0  0  0  0  0  0  0
    5.2682    6.3954   -8.4967 C   0  0  0  0  0  0  0  0  0  0  0  0
    4.5382    6.3978   -7.2982 C   0  0  0  0  0  0  0  0  0  0  0  0
    4.3962    7.8028   -6.2485 Cl  0  0  0  0  0  0  0  0  0  0  0  0
    6.1626    7.7941   -9.0790 Cl  0  0  0  0  0  0  0  0  0  0  0  0
    1.9190    4.4313   -5.7320 C   0  0  0  0  0  0  0  0  0  0  0  0
    0.8480    4.2181   -7.0275 S   0  0  0  0  0  0  0  0  0  0  0  0
    5.3611    4.9543   -4.3414 C   0  0  0  0  0  0  0  0  0  0  0  0
    5.7667    4.6952   -3.0315 C   0  0  0  0  0  0  0  0  0  0  0  0
    4.4373    4.2207   -2.1114 S   0  0  0  0  0  0  0  0  0  0  0  0
    7.1459    4.6765   -2.5405 C   0  0  0  0  0  0  0  0  0  0  0  0
    7.6395    3.7442   -1.6363 C   0  0  0  0  0  0  0  0  0  0  0  0
    8.9715    3.9830   -1.2749 C   0  0  0  0  0  0  0  0  0  0  0  0
    9.7337    3.2116   -0.3798 C   0  0  0  0  0  0  0  0  0  0  0  0
    9.2291    1.9336    0.1552 C   0  0  0  0  0  0  0  0  0  0  0  0
    8.7919    1.6500    1.7559 S   0  0  0  0  0  0  0  0  0  0  0  0
    8.2230    0.0831    1.5144 C   0  0  0  0  0  0  0  0  0  0  0  0
    7.5486   -0.7559    2.5582 C   0  0  0  0  0  0  0  0  0  0  0  0
    6.0355   -0.5669    2.5076 C   0  0  0  0  0  0  0  0  0  0  0  0
    8.3495   -0.2326    0.1602 C   0  0  0  0  0  0  0  0  0  0  0  0
    7.8332   -1.7644   -0.5308 Cl  0  0  0  0  0  0  0  0  0  0  0  0
    8.9158    0.8030   -0.5975 C   0  0  0  0  0  0  0  0  0  0  0  0
    9.1928    0.6835   -2.3341 Cl  0  0  0  0  0  0  0  0  0  0  0  0
   11.0197    3.6850   -0.0707 C   0  0  0  0  0  0  0  0  0  0  0  0
   11.5458    4.8521   -0.6316 C   0  0  0  0  0  0  0  0  0  0  0  0
   10.7928    5.6051   -1.5611 C   0  0  0  0  0  0  0  0  0  0  0  0
   11.3008    6.8547   -2.1542 C   0  0  0  0  0  0  0  0  0  0  0  0
   11.5411    7.1104   -3.8013 S   0  0  0  0  0  0  0  0  0  0  0  0
   12.0309    8.7141   -3.6642 C   0  0  0  0  0  0  0  0  0  0  0  0
   12.3421    9.6029   -4.8294 C   0  0  0  0  0  0  0  0  0  0  0  0
   11.0638   10.1972   -5.4129 C   0  0  0  0  0  0  0  0  0  0  0  0
   11.9837    9.0834   -2.3208 C   0  0  0  0  0  0  0  0  0  0  0  0
   11.5806    8.0394   -1.4733 C   0  0  0  0  0  0  0  0  0  0  0  0
   11.3730    8.2330    0.2624 Cl  0  0  0  0  0  0  0  0  0  0  0  0
   12.3415   10.7067   -1.7475 Cl  0  0  0  0  0  0  0  0  0  0  0  0
    9.5067    5.1300   -1.8697 C   0  0  0  0  0  0  0  0  0  0  0  0
    8.3445    5.8190   -2.8851 S   0  0  0  0  0  0  0  0  0  0  0  0
   12.8556    5.1214   -0.2044 C   0  0  0  0  0  0  0  0  0  0  0  0
   13.3440    4.1785    0.6945 C   0  0  0  0  0  0  0  0  0  0  0  0
   12.1653    2.9990    0.9502 S   0  0  0  0  0  0  0  0  0  0  0  0
   -7.0363  -11.5410    3.3757 H   0  0  0  0  0  0  0  0  0  0  0  0
   -4.4564  -11.3693    3.6580 H   0  0  0  0  0  0  0  0  0  0  0  0
    1.1806  -12.7283    5.2444 H   0  0  0  0  0  0  0  0  0  0  0  0
    0.6694  -11.9599    6.7794 H   0  0  0  0  0  0  0  0  0  0  0  0
    2.5076  -10.6961    4.6394 H   0  0  0  0  0  0  0  0  0  0  0  0
    1.9231   -9.8584    6.1389 H   0  0  0  0  0  0  0  0  0  0  0  0
    2.9805  -11.3049    6.2705 H   0  0  0  0  0  0  0  0  0  0  0  0
   -8.9482   -2.5801    3.8800 H   0  0  0  0  0  0  0  0  0  0  0  0
   -9.8297   -2.7636    5.4369 H   0  0  0  0  0  0  0  0  0  0  0  0
  -10.3348   -4.4716    2.9082 H   0  0  0  0  0  0  0  0  0  0  0  0
  -11.2725   -4.5351    4.4558 H   0  0  0  0  0  0  0  0  0  0  0  0
  -11.3254   -3.0548    3.4293 H   0  0  0  0  0  0  0  0  0  0  0  0
   -4.6170   -4.6128    5.8960 H   0  0  0  0  0  0  0  0  0  0  0  0
    0.4011   -2.6741    8.7875 H   0  0  0  0  0  0  0  0  0  0  0  0
   -4.3328   -0.1633    6.1000 H   0  0  0  0  0  0  0  0  0  0  0  0
   -3.0637    0.7594    7.9373 H   0  0  0  0  0  0  0  0  0  0  0  0
   -0.3649    1.0589   10.5284 H   0  0  0  0  0  0  0  0  0  0  0  0
   -1.0799    1.7212    9.0096 H   0  0  0  0  0  0  0  0  0  0  0  0
   -2.1331    0.8770   10.2302 H   0  0  0  0  0  0  0  0  0  0  0  0
   -2.2514   -3.4764    3.6701 H   0  0  0  0  0  0  0  0  0  0  0  0
    1.9062   -5.0295    0.9637 H   0  0  0  0  0  0  0  0  0  0  0  0
    1.5524   -6.7358    0.5391 H   0  0  0  0  0  0  0  0  0  0  0  0
    2.5403   -6.6273    2.7936 H   0  0  0  0  0  0  0  0  0  0  0  0
    0.8186   -7.1767    2.9168 H   0  0  0  0  0  0  0  0  0  0  0  0
    1.2702   -5.4677    3.3393 H   0  0  0  0  0  0  0  0  0  0  0  0
  -10.0485    2.4761    1.3331 H   0  0  0  0  0  0  0  0  0  0  0  0
   -8.4539    3.0470    1.9209 H   0  0  0  0  0  0  0  0  0  0  0  0
  -10.1762    3.3355    3.6831 H   0  0  0  0  0  0  0  0  0  0  0  0
   -8.9530    2.1155    4.2085 H   0  0  0  0  0  0  0  0  0  0  0  0
  -10.5770    1.5759    3.6175 H   0  0  0  0  0  0  0  0  0  0  0  0
   -6.8948   -1.3864   -1.1820 H   0  0  0  0  0  0  0  0  0  0  0  0
   -6.2265    0.0136   -2.9225 H   0  0  0  0  0  0  0  0  0  0  0  0
   -6.3807    5.1119   -0.7388 H   0  0  0  0  0  0  0  0  0  0  0  0
   -8.0858    5.1992   -1.2823 H   0  0  0  0  0  0  0  0  0  0  0  0
   -7.3649    6.7106   -3.2020 H   0  0  0  0  0  0  0  0  0  0  0  0
   -5.6840    6.6812   -2.5366 H   0  0  0  0  0  0  0  0  0  0  0  0
   -7.0249    7.3968   -1.5711 H   0  0  0  0  0  0  0  0  0  0  0  0
    1.0706   -4.0681   -8.5947 H   0  0  0  0  0  0  0  0  0  0  0  0
    1.1863   -4.0352   -6.8049 H   0  0  0  0  0  0  0  0  0  0  0  0
   -0.7820   -5.5527   -6.6135 H   0  0  0  0  0  0  0  0  0  0  0  0
    0.4854   -6.2832   -7.6741 H   0  0  0  0  0  0  0  0  0  0  0  0
   -0.9858   -5.5482   -8.4092 H   0  0  0  0  0  0  0  0  0  0  0  0
   -0.8927    1.2221   -7.1843 H   0  0  0  0  0  0  0  0  0  0  0  0
   -0.6995    3.3258   -3.9441 H   0  0  0  0  0  0  0  0  0  0  0  0
    0.3269    0.2570    0.5494 H   0  0  0  0  0  0  0  0  0  0  0  0
   -0.9373    1.3319    1.2297 H   0  0  0  0  0  0  0  0  0  0  0  0
    2.0799    1.3960    1.9063 H   0  0  0  0  0  0  0  0  0  0  0  0
    0.8504    2.5553    2.5560 H   0  0  0  0  0  0  0  0  0  0  0  0
    0.7398    0.8028    2.9590 H   0  0  0  0  0  0  0  0  0  0  0  0
    5.5707    3.9539  -10.8879 H   0  0  0  0  0  0  0  0  0  0  0  0
    6.1453    5.6470  -11.0423 H   0  0  0  0  0  0  0  0  0  0  0  0
    7.9796    5.1750   -9.3851 H   0  0  0  0  0  0  0  0  0  0  0  0
    7.4034    3.4660   -9.2460 H   0  0  0  0  0  0  0  0  0  0  0  0
    8.0653    4.0753  -10.8126 H   0  0  0  0  0  0  0  0  0  0  0  0
    6.0486    5.2252   -5.1327 H   0  0  0  0  0  0  0  0  0  0  0  0
    7.0466    2.9293   -1.2437 H   0  0  0  0  0  0  0  0  0  0  0  0
    7.7937   -1.8269    2.3936 H   0  0  0  0  0  0  0  0  0  0  0  0
    7.9214   -0.4700    3.5646 H   0  0  0  0  0  0  0  0  0  0  0  0
    5.5497   -1.2380    3.2451 H   0  0  0  0  0  0  0  0  0  0  0  0
    5.7748    0.4855    2.7497 H   0  0  0  0  0  0  0  0  0  0  0  0
    5.6461   -0.8119    1.4984 H   0  0  0  0  0  0  0  0  0  0  0  0
   12.8594    9.0079   -5.6086 H   0  0  0  0  0  0  0  0  0  0  0  0
   13.0240   10.4201   -4.5186 H   0  0  0  0  0  0  0  0  0  0  0  0
   10.3663    9.3898   -5.7217 H   0  0  0  0  0  0  0  0  0  0  0  0
   10.5592   10.8426   -4.6664 H   0  0  0  0  0  0  0  0  0  0  0  0
   11.3151   10.8070   -6.3051 H   0  0  0  0  0  0  0  0  0  0  0  0
   13.4433    5.9681   -0.5367 H   0  0  0  0  0  0  0  0  0  0  0  0
   14.3266    4.1886    1.1440 H   0  0  0  0  0  0  0  0  0  0  0  0
  1  2  2  0
  2  3  1  0
  3  4  2  0
  4  5  1  0
  5  6  1  0
  6  7  1  0
  7  8  1  0
  8  9  1  0
  7 10  2  0
 10 11  1  0
 10 12  1  0
 12 13  1  0
  4 14  1  0
 14 15  2  0
 15 16  1  0
 16 17  1  0
 17 18  1  0
 18 19  1  0
 19 20  1  0
 20 21  1  0
 19 22  2  0
 22 23  1  0
 23 24  1  0
 22 25  1  0
 16 26  2  0
 26 27  1  0
 15 28  1  0
 28 29  2  0
 29 30  1  0
 29 31  1  0
 31 32  1  0
 32 33  1  0
 33 34  2  0
 34 35  1  0
 35 36  1  0
 36 37  2  0
 37 38  1  0
 38 39  2  0
 39 40  1  0
 40 41  1  0
 36 42  1  0
 42 43  2  0
 43 44  1  0
 44 45  2  0
 45 46  1  0
 46 47  1  0
 47 48  1  0
 48 49  1  0
 49 50  1  0
 48 51  2  0
 51 52  1  0
 51 53  1  0
 53 54  1  0
 45 55  1  0
 55 56  2  0
 56 57  1  0
 57 58  1  0
 58 59  1  0
 59 60  1  0
 60 61  1  0
 61 62  1  0
 60 63  2  0
 63 64  1  0
 64 65  1  0
 63 66  1  0
 57 67  2  0
 67 68  1  0
 56 69  1  0
 69 70  2  0
 70 71  1  0
 70 72  1  0
 72 73  2  0
 73 74  1  0
 74 75  2  0
 75 76  1  0
 76 77  1  0
 77 78  1  0
 78 79  1  0
 79 80  1  0
 78 81  2  0
 81 82  1  0
 81 83  1  0
 83 84  1  0
 75 85  1  0
 85 86  2  0
 86 87  1  0
 87 88  1  0
 88 89  1  0
 89 90  1  0
 90 91  1  0
 91 92  1  0
 90 93  2  0
 93 94  1  0
 94 95  1  0
 93 96  1  0
 87 97  2  0
 97 98  1  0
 86 99  1  0
 99100  2  0
100101  1  0
100102  1  0
102103  2  0
103104  1  0
104105  2  0
105106  1  0
106107  1  0
107108  1  0
108109  1  0
109110  1  0
108111  2  0
111112  1  0
111113  1  0
113114  1  0
105115  1  0
115116  2  0
116117  1  0
117118  1  0
118119  1  0
119120  1  0
120121  1  0
121122  1  0
120123  2  0
123124  1  0
124125  1  0
123126  1  0
117127  2  0
127128  1  0
116129  1  0
129130  2  0
130131  1  0
130132  1  0
132133  2  0
133134  1  0
134135  2  0
135136  1  0
136137  1  0
137138  1  0
138139  1  0
139140  1  0
138141  2  0
141142  1  0
141143  1  0
143144  1  0
135145  1  0
145146  2  0
146147  1  0
147148  1  0
148149  1  0
149150  1  0
150151  1  0
151152  1  0
150153  2  0
153154  1  0
154155  1  0
153156  1  0
147157  2  0
157158  1  0
146159  1  0
159160  2  0
160161  1  0
 27  1  1  0
 35 31  2  0
 68 42  1  0
 98 72  1  0
128102  1  0
158132  1  0
 26  3  1  0
 39 34  1  0
 67 44  1  0
 97 74  1  0
127104  1  0
157134  1  0
 12  5  2  0
 30 14  1  0
 53 46  2  0
 71 55  1  0
 83 76  2  0
101 85  1  0
113106  2  0
131115  1  0
143136  2  0
161145  1  0
 23 17  2  0
 64 58  2  0
 94 88  2  0
124118  2  0
154148  2  0
  1162  1  0
  2163  1  0
  8164  1  0
  8165  1  0
  9166  1  0
  9167  1  0
  9168  1  0
 20169  1  0
 20170  1  0
 21171  1  0
 21172  1  0
 21173  1  0
 28174  1  0
 33175  1  0
 37176  1  0
 38177  1  0
 41178  1  0
 41179  1  0
 41180  1  0
 43181  1  0
 49182  1  0
 49183  1  0
 50184  1  0
 50185  1  0
 50186  1  0
 61187  1  0
 61188  1  0
 62189  1  0
 62190  1  0
 62191  1  0
 69192  1  0
 73193  1  0
 79194  1  0
 79195  1  0
 80196  1  0
 80197  1  0
 80198  1  0
 91199  1  0
 91200  1  0
 92201  1  0
 92202  1  0
 92203  1  0
 99204  1  0
103205  1  0
109206  1  0
109207  1  0
110208  1  0
110209  1  0
110210  1  0
121211  1  0
121212  1  0
122213  1  0
122214  1  0
122215  1  0
129216  1  0
133217  1  0
139218  1  0
139219  1  0
140220  1  0
140221  1  0
140222  1  0
151223  1  0
151224  1  0
152225  1  0
152226  1  0
152227  1  0
159228  1  0
160229  1  0
M  END

