
     RDKit          3D

286315  0  0  0  0  0  0  0  0999 V2000
   -4.7853  -12.3524    8.5936 C   0  0  0  0  0  0  0  0  0  0  0  0
   -3.9492  -11.2751    8.3266 C   0  0  0  0  0  0  0  0  0  0  0  0
   -3.6321  -11.1352    6.9634 C   0  0  0  0  0  0  0  0  0  0  0  0
   -2.8420  -10.1183    6.3869 C   0  0  0  0  0  0  0  0  0  0  0  0
   -2.1947   -9.0525    7.1979 C   0  0  0  0  0  0  0  0  0  0  0  0
   -1.3074   -9.3831    8.2361 C   0  0  0  0  0  0  0  0  0  0  0  0
   -0.6590   -8.3755    8.9577 C   0  0  0  0  0  0  0  0  0  0  0  0
   -0.8785   -7.0293    8.6408 C   0  0  0  0  0  0  0  0  0  0  0  0
    0.0071   -5.7433    9.5319 S   0  0  0  0  0  0  0  0  0  0  0  0
   -1.3584   -5.4145   10.6958 C   0  0  0  0  0  0  0  0  0  0  0  0
   -0.9217   -4.3923   11.7374 C   0  0  0  0  0  0  0  0  0  0  0  0
   -1.7661   -6.6945    7.6094 C   0  0  0  0  0  0  0  0  0  0  0  0
   -1.9891   -5.3954    7.2895 F   0  0  0  0  0  0  0  0  0  0  0  0
   -2.4354   -7.7006    6.9051 C   0  0  0  0  0  0  0  0  0  0  0  0
   -2.7162  -10.1394    4.9807 C   0  0  0  0  0  0  0  0  0  0  0  0
   -3.3418  -11.0975    4.1737 C   0  0  0  0  0  0  0  0  0  0  0  0
   -4.1371  -12.1101    4.7537 C   0  0  0  0  0  0  0  0  0  0  0  0
   -4.8807  -13.0925    3.9299 C   0  0  0  0  0  0  0  0  0  0  0  0
   -4.6578  -14.4691    4.0906 C   0  0  0  0  0  0  0  0  0  0  0  0
   -5.3930  -15.3954    3.3448 C   0  0  0  0  0  0  0  0  0  0  0  0
   -6.3389  -14.9511    2.4086 C   0  0  0  0  0  0  0  0  0  0  0  0
   -7.3108  -16.1437    1.4755 S   0  0  0  0  0  0  0  0  0  0  0  0
   -6.1505  -16.2496    0.0687 C   0  0  0  0  0  0  0  0  0  0  0  0
   -5.1885  -17.4162    0.2630 C   0  0  0  0  0  0  0  0  0  0  0  0
   -6.5585  -13.5770    2.2360 C   0  0  0  0  0  0  0  0  0  0  0  0
   -5.8373  -12.6537    2.9996 C   0  0  0  0  0  0  0  0  0  0  0  0
   -7.4784  -13.1344    1.3419 F   0  0  0  0  0  0  0  0  0  0  0  0
   -4.2457  -12.1022    6.1588 C   0  0  0  0  0  0  0  0  0  0  0  0
   -5.1610  -13.1200    7.1411 S   0  0  0  0  0  0  0  0  0  0  0  0
   -3.0999  -10.9058    2.7985 C   0  0  0  0  0  0  0  0  0  0  0  0
   -2.3036   -9.7932    2.5385 C   0  0  0  0  0  0  0  0  0  0  0  0
   -1.8724   -9.0661    3.9978 S   0  0  0  0  0  0  0  0  0  0  0  0
   -2.0421   -9.2135    1.2142 C   0  0  0  0  0  0  0  0  0  0  0  0
   -1.4455   -7.9751    1.0009 C   0  0  0  0  0  0  0  0  0  0  0  0
   -1.5095   -7.7796   -0.3594 C   0  0  0  0  0  0  0  0  0  0  0  0
   -1.1113   -6.6940   -1.1553 C   0  0  0  0  0  0  0  0  0  0  0  0
   -0.5600   -5.4337   -0.6104 C   0  0  0  0  0  0  0  0  0  0  0  0
    0.3998   -4.6328   -1.2238 C   0  0  0  0  0  0  0  0  0  0  0  0
    0.6212   -3.4223   -0.5508 C   0  0  0  0  0  0  0  0  0  0  0  0
    1.5215   -2.5057   -0.9733 F   0  0  0  0  0  0  0  0  0  0  0  0
   -0.1716   -3.2561    0.5798 C   0  0  0  0  0  0  0  0  0  0  0  0
   -0.1681   -2.0749    1.4919 C   0  0  0  0  0  0  0  0  0  0  0  0
    0.8004   -2.2818    2.6496 C   0  0  0  0  0  0  0  0  0  0  0  0
   -1.1367   -4.6255    0.7579 S   0  0  0  0  0  0  0  0  0  0  0  0
   -1.3755   -6.8322   -2.5279 C   0  0  0  0  0  0  0  0  0  0  0  0
   -1.9876   -7.9493   -3.0647 C   0  0  0  0  0  0  0  0  0  0  0  0
   -2.3539   -9.0535   -2.2674 C   0  0  0  0  0  0  0  0  0  0  0  0
   -2.8989  -10.2971   -2.8366 C   0  0  0  0  0  0  0  0  0  0  0  0
   -2.2291  -11.8259   -2.6162 S   0  0  0  0  0  0  0  0  0  0  0  0
   -3.2532  -12.6238   -3.6874 C   0  0  0  0  0  0  0  0  0  0  0  0
   -3.2026  -14.0863   -4.0075 C   0  0  0  0  0  0  0  0  0  0  0  0
   -4.0079  -14.8875   -2.9921 C   0  0  0  0  0  0  0  0  0  0  0  0
   -4.1478  -11.6982   -4.2109 C   0  0  0  0  0  0  0  0  0  0  0  0
   -3.9420  -10.3950   -3.7537 C   0  0  0  0  0  0  0  0  0  0  0  0
   -5.0982  -12.0181   -5.1238 F   0  0  0  0  0  0  0  0  0  0  0  0
   -2.1038   -8.9179   -0.8905 C   0  0  0  0  0  0  0  0  0  0  0  0
   -2.4137   -9.7584    0.0706 O   0  0  0  0  0  0  0  0  0  0  0  0
   -2.1535   -7.6955   -4.4174 C   0  0  0  0  0  0  0  0  0  0  0  0
   -1.6227   -6.4175   -4.5928 C   0  0  0  0  0  0  0  0  0  0  0  0
   -1.1515   -5.9445   -3.4598 O   0  0  0  0  0  0  0  0  0  0  0  0
   -1.6700   -5.5905   -5.7969 C   0  0  0  0  0  0  0  0  0  0  0  0
   -2.7638   -5.4561   -6.6463 C   0  0  0  0  0  0  0  0  0  0  0  0
   -2.5143   -4.2969   -7.3568 C   0  0  0  0  0  0  0  0  0  0  0  0
   -3.4123   -3.4415   -8.0372 C   0  0  0  0  0  0  0  0  0  0  0  0
   -4.8080   -3.8273   -8.3257 C   0  0  0  0  0  0  0  0  0  0  0  0
   -5.2478   -5.0782   -8.7539 C   0  0  0  0  0  0  0  0  0  0  0  0
   -6.6283   -5.1358   -8.9812 C   0  0  0  0  0  0  0  0  0  0  0  0
   -7.2686   -6.2628   -9.3789 F   0  0  0  0  0  0  0  0  0  0  0  0
   -7.2807   -3.9275   -8.7589 C   0  0  0  0  0  0  0  0  0  0  0  0
   -8.7549   -3.6915   -8.8114 C   0  0  0  0  0  0  0  0  0  0  0  0
   -9.4094   -4.1447   -7.5119 C   0  0  0  0  0  0  0  0  0  0  0  0
   -6.1459   -2.8000   -8.2496 S   0  0  0  0  0  0  0  0  0  0  0  0
   -2.9461   -2.1223   -8.2245 C   0  0  0  0  0  0  0  0  0  0  0  0
   -1.6329   -1.7542   -7.9771 C   0  0  0  0  0  0  0  0  0  0  0  0
   -0.7339   -2.6090   -7.3127 C   0  0  0  0  0  0  0  0  0  0  0  0
    0.5265   -2.0983   -6.7351 C   0  0  0  0  0  0  0  0  0  0  0  0
    1.7139   -1.2492   -7.5777 S   0  0  0  0  0  0  0  0  0  0  0  0
    2.6592   -0.8771   -6.2318 C   0  0  0  0  0  0  0  0  0  0  0  0
    3.8720    0.0036   -6.2492 C   0  0  0  0  0  0  0  0  0  0  0  0
    3.4739    1.4720   -6.1130 C   0  0  0  0  0  0  0  0  0  0  0  0
    2.0347   -1.3914   -5.1022 C   0  0  0  0  0  0  0  0  0  0  0  0
    0.8439   -2.0842   -5.3816 C   0  0  0  0  0  0  0  0  0  0  0  0
    2.4886   -1.1935   -3.8413 F   0  0  0  0  0  0  0  0  0  0  0  0
   -1.2614   -3.8561   -6.9441 C   0  0  0  0  0  0  0  0  0  0  0  0
   -0.7756   -4.6562   -6.0322 O   0  0  0  0  0  0  0  0  0  0  0  0
   -1.5839   -0.3839   -8.0867 C   0  0  0  0  0  0  0  0  0  0  0  0
   -2.9044    0.0015   -8.2796 C   0  0  0  0  0  0  0  0  0  0  0  0
   -3.6801   -1.0530   -8.4292 O   0  0  0  0  0  0  0  0  0  0  0  0
   -3.3986    1.3255   -7.8938 C   0  0  0  0  0  0  0  0  0  0  0  0
   -4.1807    1.4113   -6.7387 C   0  0  0  0  0  0  0  0  0  0  0  0
   -3.8340    2.4833   -5.9007 C   0  0  0  0  0  0  0  0  0  0  0  0
   -4.1871    2.5936   -4.5386 C   0  0  0  0  0  0  0  0  0  0  0  0
   -5.1454    1.6639   -3.9133 C   0  0  0  0  0  0  0  0  0  0  0  0
   -4.6993    0.4609   -3.3461 C   0  0  0  0  0  0  0  0  0  0  0  0
   -5.6169   -0.4346   -2.7956 C   0  0  0  0  0  0  0  0  0  0  0  0
   -6.9852   -0.1355   -2.8107 C   0  0  0  0  0  0  0  0  0  0  0  0
   -8.1571   -1.2959   -2.1076 S   0  0  0  0  0  0  0  0  0  0  0  0
   -8.5139   -2.1098   -3.6997 C   0  0  0  0  0  0  0  0  0  0  0  0
   -9.4973   -3.2489   -3.4793 C   0  0  0  0  0  0  0  0  0  0  0  0
   -7.4298    1.0760   -3.3607 C   0  0  0  0  0  0  0  0  0  0  0  0
   -8.7510    1.3801   -3.3699 F   0  0  0  0  0  0  0  0  0  0  0  0
   -6.5129    1.9686   -3.9182 C   0  0  0  0  0  0  0  0  0  0  0  0
   -3.4666    3.5153   -3.7601 C   0  0  0  0  0  0  0  0  0  0  0  0
   -2.5001    4.3540   -4.3180 C   0  0  0  0  0  0  0  0  0  0  0  0
   -2.1985    4.3060   -5.6974 C   0  0  0  0  0  0  0  0  0  0  0  0
   -1.0850    5.1060   -6.2534 C   0  0  0  0  0  0  0  0  0  0  0  0
   -1.1730    6.5061   -6.2561 C   0  0  0  0  0  0  0  0  0  0  0  0
   -0.0600    7.2828   -6.5876 C   0  0  0  0  0  0  0  0  0  0  0  0
    1.1440    6.6673   -6.9508 C   0  0  0  0  0  0  0  0  0  0  0  0
    2.5839    7.6829   -7.3218 S   0  0  0  0  0  0  0  0  0  0  0  0
    2.1390    8.0094   -9.0669 C   0  0  0  0  0  0  0  0  0  0  0  0
    1.8554    9.4917   -9.2686 C   0  0  0  0  0  0  0  0  0  0  0  0
    1.2303    5.2672   -6.9827 C   0  0  0  0  0  0  0  0  0  0  0  0
    0.1227    4.4916   -6.6223 C   0  0  0  0  0  0  0  0  0  0  0  0
    2.3981    4.6586   -7.3080 F   0  0  0  0  0  0  0  0  0  0  0  0
   -2.8632    3.3228   -6.4518 C   0  0  0  0  0  0  0  0  0  0  0  0
   -2.3983    2.6935   -7.9402 S   0  0  0  0  0  0  0  0  0  0  0  0
   -1.7430    5.0311   -3.3622 C   0  0  0  0  0  0  0  0  0  0  0  0
   -2.0593    4.6829   -2.0481 C   0  0  0  0  0  0  0  0  0  0  0  0
   -3.3464    3.5885   -2.0729 S   0  0  0  0  0  0  0  0  0  0  0  0
   -1.1057    4.8616   -0.9409 C   0  0  0  0  0  0  0  0  0  0  0  0
    0.2691    4.9184   -1.1404 C   0  0  0  0  0  0  0  0  0  0  0  0
    0.9897    5.1091    0.0353 C   0  0  0  0  0  0  0  0  0  0  0  0
    2.3824    5.2663    0.1057 C   0  0  0  0  0  0  0  0  0  0  0  0
    3.2412    5.1527   -1.0892 C   0  0  0  0  0  0  0  0  0  0  0  0
    3.4008    3.9139   -1.7260 C   0  0  0  0  0  0  0  0  0  0  0  0
    4.2539    3.7960   -2.8209 C   0  0  0  0  0  0  0  0  0  0  0  0
    4.9679    4.9098   -3.2793 C   0  0  0  0  0  0  0  0  0  0  0  0
    6.1159    4.7272   -4.6520 S   0  0  0  0  0  0  0  0  0  0  0  0
    7.5109    4.1305   -3.6290 C   0  0  0  0  0  0  0  0  0  0  0  0
    8.1926    5.2719   -2.8838 C   0  0  0  0  0  0  0  0  0  0  0  0
    4.7851    6.1598   -2.6710 C   0  0  0  0  0  0  0  0  0  0  0  0
    5.4474    7.2525   -3.1246 F   0  0  0  0  0  0  0  0  0  0  0  0
    3.9293    6.2777   -1.5754 C   0  0  0  0  0  0  0  0  0  0  0  0
    2.9195    5.5715    1.3548 C   0  0  0  0  0  0  0  0  0  0  0  0
    2.1410    5.7123    2.5083 C   0  0  0  0  0  0  0  0  0  0  0  0
    0.7383    5.4920    2.4551 C   0  0  0  0  0  0  0  0  0  0  0  0
   -0.1127    5.5410    3.6627 C   0  0  0  0  0  0  0  0  0  0  0  0
   -0.2145    6.7220    4.4159 C   0  0  0  0  0  0  0  0  0  0  0  0
   -0.9667    6.7421    5.5957 C   0  0  0  0  0  0  0  0  0  0  0  0
   -1.6276    5.5845    6.0308 C   0  0  0  0  0  0  0  0  0  0  0  0
   -2.5917    5.6278    7.5479 S   0  0  0  0  0  0  0  0  0  0  0  0
   -1.2045    5.1889    8.6601 C   0  0  0  0  0  0  0  0  0  0  0  0
   -1.1727    3.6936    8.9312 C   0  0  0  0  0  0  0  0  0  0  0  0
   -1.5611    4.4159    5.2563 C   0  0  0  0  0  0  0  0  0  0  0  0
   -0.8017    4.3946    4.0811 C   0  0  0  0  0  0  0  0  0  0  0  0
   -2.2220    3.2998    5.6416 F   0  0  0  0  0  0  0  0  0  0  0  0
    0.1919    5.2003    1.1802 C   0  0  0  0  0  0  0  0  0  0  0  0
   -1.4305    5.0151    0.7169 S   0  0  0  0  0  0  0  0  0  0  0  0
    2.9085    6.1076    3.6262 C   0  0  0  0  0  0  0  0  0  0  0  0
    4.2670    6.2594    3.3293 C   0  0  0  0  0  0  0  0  0  0  0  0
    4.5234    5.8921    1.7091 S   0  0  0  0  0  0  0  0  0  0  0  0
    5.2963    6.9074    4.1576 C   0  0  0  0  0  0  0  0  0  0  0  0
    6.6456    6.9317    3.8106 C   0  0  0  0  0  0  0  0  0  0  0  0
    7.3727    7.9188    4.4861 C   0  0  0  0  0  0  0  0  0  0  0  0
    8.7135    8.2693    4.2356 C   0  0  0  0  0  0  0  0  0  0  0  0
    9.5282    7.5780    3.2093 C   0  0  0  0  0  0  0  0  0  0  0  0
   10.6787    6.8662    3.5827 C   0  0  0  0  0  0  0  0  0  0  0  0
   11.4522    6.2225    2.6121 C   0  0  0  0  0  0  0  0  0  0  0  0
   11.0870    6.2934    1.2635 C   0  0  0  0  0  0  0  0  0  0  0  0
   12.0798    5.4622    0.0245 S   0  0  0  0  0  0  0  0  0  0  0  0
   13.1438    6.9145   -0.2651 C   0  0  0  0  0  0  0  0  0  0  0  0
   14.1126    6.6237   -1.3997 C   0  0  0  0  0  0  0  0  0  0  0  0
    9.9413    7.0100    0.8869 C   0  0  0  0  0  0  0  0  0  0  0  0
    9.5802    7.0854   -0.4188 F   0  0  0  0  0  0  0  0  0  0  0  0
    9.1667    7.6522    1.8547 C   0  0  0  0  0  0  0  0  0  0  0  0
    9.2226    9.3672    4.9446 C   0  0  0  0  0  0  0  0  0  0  0  0
    8.4557   10.0998    5.8569 C   0  0  0  0  0  0  0  0  0  0  0  0
    7.1082    9.7462    6.1122 C   0  0  0  0  0  0  0  0  0  0  0  0
    6.2496   10.5587    6.9947 C   0  0  0  0  0  0  0  0  0  0  0  0
    5.9972   11.9046    6.6819 C   0  0  0  0  0  0  0  0  0  0  0  0
    5.2548   12.6994    7.5587 C   0  0  0  0  0  0  0  0  0  0  0  0
    4.7396   12.1559    8.7407 C   0  0  0  0  0  0  0  0  0  0  0  0
    3.8179   13.1991    9.8744 S   0  0  0  0  0  0  0  0  0  0  0  0
    2.1782   12.7860    9.1806 C   0  0  0  0  0  0  0  0  0  0  0  0
    1.9078   13.5493    7.8905 C   0  0  0  0  0  0  0  0  0  0  0  0
    4.9841   10.8125    9.0550 C   0  0  0  0  0  0  0  0  0  0  0  0
    5.7262   10.0131    8.1768 C   0  0  0  0  0  0  0  0  0  0  0  0
    4.5188   10.2807   10.2117 F   0  0  0  0  0  0  0  0  0  0  0  0
    6.5990    8.6404    5.4061 C   0  0  0  0  0  0  0  0  0  0  0  0
    5.0057    8.0852    5.3338 S   0  0  0  0  0  0  0  0  0  0  0  0
    9.1521   11.1897    6.4101 C   0  0  0  0  0  0  0  0  0  0  0  0
   10.4436   11.3211    5.9142 C   0  0  0  0  0  0  0  0  0  0  0  0
   10.7371   10.0858    4.8053 S   0  0  0  0  0  0  0  0  0  0  0  0
   -5.1447  -12.6363    9.5738 H   0  0  0  0  0  0  0  0  0  0  0  0
   -3.6052  -10.6081    9.1046 H   0  0  0  0  0  0  0  0  0  0  0  0
   -1.1083  -10.4198    8.4786 H   0  0  0  0  0  0  0  0  0  0  0  0
    0.0278   -8.6444    9.7522 H   0  0  0  0  0  0  0  0  0  0  0  0
   -1.6657   -6.3511   11.2060 H   0  0  0  0  0  0  0  0  0  0  0  0
   -2.2285   -5.0089   10.1366 H   0  0  0  0  0  0  0  0  0  0  0  0
   -1.7512   -4.2106   12.4522 H   0  0  0  0  0  0  0  0  0  0  0  0
   -0.0326   -4.7613   12.2916 H   0  0  0  0  0  0  0  0  0  0  0  0
   -0.6628   -3.4298   11.2451 H   0  0  0  0  0  0  0  0  0  0  0  0
   -3.1375   -7.4238    6.1249 H   0  0  0  0  0  0  0  0  0  0  0  0
   -3.9213  -14.8250    4.8057 H   0  0  0  0  0  0  0  0  0  0  0  0
   -5.2315  -16.4553    3.4969 H   0  0  0  0  0  0  0  0  0  0  0  0
   -6.7433  -16.4251   -0.8561 H   0  0  0  0  0  0  0  0  0  0  0  0
   -5.5788  -15.3062   -0.0632 H   0  0  0  0  0  0  0  0  0  0  0  0
   -4.5342  -17.5138   -0.6284 H   0  0  0  0  0  0  0  0  0  0  0  0
   -5.7553  -18.3638    0.3831 H   0  0  0  0  0  0  0  0  0  0  0  0
   -4.5499  -17.2504    1.1563 H   0  0  0  0  0  0  0  0  0  0  0  0
   -6.0315  -11.5940    2.8767 H   0  0  0  0  0  0  0  0  0  0  0  0
   -3.5179  -11.5274    2.0157 H   0  0  0  0  0  0  0  0  0  0  0  0
   -1.0522   -7.3003    1.7477 H   0  0  0  0  0  0  0  0  0  0  0  0
    0.9212   -4.9067   -2.1298 H   0  0  0  0  0  0  0  0  0  0  0  0
    0.1186   -1.1612    0.9259 H   0  0  0  0  0  0  0  0  0  0  0  0
   -1.1919   -1.9193    1.8910 H   0  0  0  0  0  0  0  0  0  0  0  0
    0.7786   -1.3891    3.3082 H   0  0  0  0  0  0  0  0  0  0  0  0
    0.5116   -3.1754    3.2452 H   0  0  0  0  0  0  0  0  0  0  0  0
    1.8336   -2.4110    2.2677 H   0  0  0  0  0  0  0  0  0  0  0  0
   -3.6188  -14.2585   -5.0242 H   0  0  0  0  0  0  0  0  0  0  0  0
   -2.1472  -14.4317   -3.9975 H   0  0  0  0  0  0  0  0  0  0  0  0
   -5.0749  -14.5879   -3.0263 H   0  0  0  0  0  0  0  0  0  0  0  0
   -3.9290  -15.9735   -3.2273 H   0  0  0  0  0  0  0  0  0  0  0  0
   -3.6134  -14.7180   -1.9690 H   0  0  0  0  0  0  0  0  0  0  0  0
   -4.5288   -9.5460   -4.0793 H   0  0  0  0  0  0  0  0  0  0  0  0
   -2.6351   -8.3084   -5.1635 H   0  0  0  0  0  0  0  0  0  0  0  0
   -3.7005   -5.9954   -6.5759 H   0  0  0  0  0  0  0  0  0  0  0  0
   -4.5932   -5.9262   -8.9086 H   0  0  0  0  0  0  0  0  0  0  0  0
   -8.9469   -2.6072   -8.9637 H   0  0  0  0  0  0  0  0  0  0  0  0
   -9.1934   -4.2507   -9.6648 H   0  0  0  0  0  0  0  0  0  0  0  0
   -8.9619   -3.5925   -6.6603 H   0  0  0  0  0  0  0  0  0  0  0  0
   -9.2725   -5.2403   -7.3617 H   0  0  0  0  0  0  0  0  0  0  0  0
  -10.4971   -3.9345   -7.5435 H   0  0  0  0  0  0  0  0  0  0  0  0
    4.4165   -0.1454   -7.2047 H   0  0  0  0  0  0  0  0  0  0  0  0
    4.5577   -0.2751   -5.4226 H   0  0  0  0  0  0  0  0  0  0  0  0
    2.9021    1.6350   -5.1774 H   0  0  0  0  0  0  0  0  0  0  0  0
    4.3874    2.1016   -6.0827 H   0  0  0  0  0  0  0  0  0  0  0  0
    2.8452    1.7748   -6.9763 H   0  0  0  0  0  0  0  0  0  0  0  0
    0.2082   -2.5019   -4.6113 H   0  0  0  0  0  0  0  0  0  0  0  0
   -0.7756    0.2619   -7.7672 H   0  0  0  0  0  0  0  0  0  0  0  0
   -4.7895    0.5839   -6.3963 H   0  0  0  0  0  0  0  0  0  0  0  0
   -3.6451    0.2156   -3.3447 H   0  0  0  0  0  0  0  0  0  0  0  0
   -5.2677   -1.3618   -2.3588 H   0  0  0  0  0  0  0  0  0  0  0  0
   -7.5713   -2.5085   -4.1383 H   0  0  0  0  0  0  0  0  0  0  0  0
   -8.9621   -1.3765   -4.4009 H   0  0  0  0  0  0  0  0  0  0  0  0
   -9.0681   -3.9949   -2.7760 H   0  0  0  0  0  0  0  0  0  0  0  0
  -10.4463   -2.8571   -3.0521 H   0  0  0  0  0  0  0  0  0  0  0  0
   -9.7190   -3.7496   -4.4441 H   0  0  0  0  0  0  0  0  0  0  0  0
   -6.8647    2.8953   -4.3589 H   0  0  0  0  0  0  0  0  0  0  0  0
   -2.0936    6.9962   -5.9651 H   0  0  0  0  0  0  0  0  0  0  0  0
   -0.1339    8.3604   -6.5499 H   0  0  0  0  0  0  0  0  0  0  0  0
    1.2569    7.4172   -9.3911 H   0  0  0  0  0  0  0  0  0  0  0  0
    2.9964    7.7134   -9.7059 H   0  0  0  0  0  0  0  0  0  0  0  0
    1.0240    9.8119   -8.6036 H   0  0  0  0  0  0  0  0  0  0  0  0
    1.5666    9.6833  -10.3232 H   0  0  0  0  0  0  0  0  0  0  0  0
    2.7660   10.0879   -9.0310 H   0  0  0  0  0  0  0  0  0  0  0  0
    0.2152    3.4111   -6.5927 H   0  0  0  0  0  0  0  0  0  0  0  0
   -0.8996    5.6602   -3.6081 H   0  0  0  0  0  0  0  0  0  0  0  0
    0.7327    4.8318   -2.1156 H   0  0  0  0  0  0  0  0  0  0  0  0
    2.8767    3.0430   -1.3550 H   0  0  0  0  0  0  0  0  0  0  0  0
    4.3818    2.8333   -3.2974 H   0  0  0  0  0  0  0  0  0  0  0  0
    8.2520    3.6586   -4.3075 H   0  0  0  0  0  0  0  0  0  0  0  0
    7.1693    3.3562   -2.9081 H   0  0  0  0  0  0  0  0  0  0  0  0
    9.0868    4.8848   -2.3517 H   0  0  0  0  0  0  0  0  0  0  0  0
    8.5084    6.0611   -3.5999 H   0  0  0  0  0  0  0  0  0  0  0  0
    7.5036    5.7110   -2.1342 H   0  0  0  0  0  0  0  0  0  0  0  0
    3.8020    7.2426   -1.0971 H   0  0  0  0  0  0  0  0  0  0  0  0
    0.2937    7.6186    4.0890 H   0  0  0  0  0  0  0  0  0  0  0  0
   -1.0280    7.6556    6.1748 H   0  0  0  0  0  0  0  0  0  0  0  0
   -0.2273    5.5146    8.2410 H   0  0  0  0  0  0  0  0  0  0  0  0
   -1.3611    5.7226    9.6196 H   0  0  0  0  0  0  0  0  0  0  0  0
   -0.9796    3.1339    7.9905 H   0  0  0  0  0  0  0  0  0  0  0  0
   -2.1462    3.3668    9.3577 H   0  0  0  0  0  0  0  0  0  0  0  0
   -0.3690    3.4670    9.6600 H   0  0  0  0  0  0  0  0  0  0  0  0
   -0.7386    3.4790    3.5061 H   0  0  0  0  0  0  0  0  0  0  0  0
    2.4950    6.3097    4.6045 H   0  0  0  0  0  0  0  0  0  0  0  0
    7.0650    6.3109    3.0317 H   0  0  0  0  0  0  0  0  0  0  0  0
   10.9694    6.8074    4.6230 H   0  0  0  0  0  0  0  0  0  0  0  0
   12.3345    5.6685    2.9127 H   0  0  0  0  0  0  0  0  0  0  0  0
   12.5131    7.7865   -0.5398 H   0  0  0  0  0  0  0  0  0  0  0  0
   13.7139    7.1521    0.6580 H   0  0  0  0  0  0  0  0  0  0  0  0
   13.5539    6.4063   -2.3338 H   0  0  0  0  0  0  0  0  0  0  0  0
   14.7611    7.5103   -1.5653 H   0  0  0  0  0  0  0  0  0  0  0  0
   14.7521    5.7514   -1.1387 H   0  0  0  0  0  0  0  0  0  0  0  0
    8.2919    8.2137    1.5503 H   0  0  0  0  0  0  0  0  0  0  0  0
    6.3931   12.3420    5.7736 H   0  0  0  0  0  0  0  0  0  0  0  0
    5.0916   13.7385    7.3199 H   0  0  0  0  0  0  0  0  0  0  0  0
    2.0910   11.6932    9.0033 H   0  0  0  0  0  0  0  0  0  0  0  0
    1.4125   13.0803    9.9246 H   0  0  0  0  0  0  0  0  0  0  0  0
    2.0454   14.6402    8.0550 H   0  0  0  0  0  0  0  0  0  0  0  0
    2.5908   13.2136    7.0830 H   0  0  0  0  0  0  0  0  0  0  0  0
    0.8625   13.3572    7.5668 H   0  0  0  0  0  0  0  0  0  0  0  0
    5.9216    8.9792    8.4322 H   0  0  0  0  0  0  0  0  0  0  0  0
    8.7336   11.8744    7.1359 H   0  0  0  0  0  0  0  0  0  0  0  0
   11.1385   12.1034    6.1919 H   0  0  0  0  0  0  0  0  0  0  0  0
  1  2  2  0
  2  3  1  0
  3  4  2  0
  4  5  1  0
  5  6  2  0
  6  7  1  0
  7  8  2  0
  8  9  1  0
  9 10  1  0
 10 11  1  0
  8 12  1  0
 12 13  1  0
 12 14  2  0
  4 15  1  0
 15 16  2  0
 16 17  1  0
 17 18  1  0
 18 19  2  0
 19 20  1  0
 20 21  2  0
 21 22  1  0
 22 23  1  0
 23 24  1  0
 21 25  1  0
 25 26  2  0
 25 27  1  0
 17 28  2  0
 28 29  1  0
 16 30  1  0
 30 31  2  0
 31 32  1  0
 31 33  1  0
 33 34  2  0
 34 35  1  0
 35 36  2  0
 36 37  1  0
 37 38  2  0
 38 39  1  0
 39 40  1  0
 39 41  2  0
 41 42  1  0
 42 43  1  0
 41 44  1  0
 36 45  1  0
 45 46  2  0
 46 47  1  0
 47 48  1  0
 48 49  1  0
 49 50  1  0
 50 51  1  0
 51 52  1  0
 50 53  2  0
 53 54  1  0
 53 55  1  0
 47 56  2  0
 56 57  1  0
 46 58  1  0
 58 59  2  0
 59 60  1  0
 59 61  1  0
 61 62  2  0
 62 63  1  0
 63 64  2  0
 64 65  1  0
 65 66  2  0
 66 67  1  0
 67 68  1  0
 67 69  2  0
 69 70  1  0
 70 71  1  0
 69 72  1  0
 64 73  1  0
 73 74  2  0
 74 75  1  0
 75 76  1  0
 76 77  1  0
 77 78  1  0
 78 79  1  0
 79 80  1  0
 78 81  2  0
 81 82  1  0
 81 83  1  0
 75 84  2  0
 84 85  1  0
 74 86  1  0
 86 87  2  0
 87 88  1  0
 87 89  1  0
 89 90  2  0
 90 91  1  0
 91 92  2  0
 92 93  1  0
 93 94  2  0
 94 95  1  0
 95 96  2  0
 96 97  1  0
 97 98  1  0
 98 99  1  0
 96100  1  0
100101  1  0
100102  2  0
 92103  1  0
103104  2  0
104105  1  0
105106  1  0
106107  2  0
107108  1  0
108109  2  0
109110  1  0
110111  1  0
111112  1  0
109113  1  0
113114  2  0
113115  1  0
105116  2  0
116117  1  0
104118  1  0
118119  2  0
119120  1  0
119121  1  0
121122  2  0
122123  1  0
123124  2  0
124125  1  0
125126  2  0
126127  1  0
127128  2  0
128129  1  0
129130  1  0
130131  1  0
128132  1  0
132133  1  0
132134  2  0
124135  1  0
135136  2  0
136137  1  0
137138  1  0
138139  2  0
139140  1  0
140141  2  0
141142  1  0
142143  1  0
143144  1  0
141145  1  0
145146  2  0
145147  1  0
137148  2  0
148149  1  0
136150  1  0
150151  2  0
151152  1  0
151153  1  0
153154  2  0
154155  1  0
155156  2  0
156157  1  0
157158  2  0
158159  1  0
159160  2  0
160161  1  0
161162  1  0
162163  1  0
160164  1  0
164165  1  0
164166  2  0
156167  1  0
167168  2  0
168169  1  0
169170  1  0
170171  2  0
171172  1  0
172173  2  0
173174  1  0
174175  1  0
175176  1  0
173177  1  0
177178  2  0
177179  1  0
169180  2  0
180181  1  0
168182  1  0
182183  2  0
183184  1  0
 29  1  1  0
 57 33  1  0
 85 61  1  0
117 89  1  0
149121  1  0
181153  1  0
 28  3  1  0
 56 35  1  0
 84 63  1  0
116 91  1  0
148123  1  0
180155  1  0
 14  5  1  0
 32 15  1  0
 44 37  1  0
 60 45  1  0
 72 65  1  0
 88 73  1  0
102 93  1  0
120103  1  0
134125  1  0
152135  1  0
166157  1  0
184167  1  0
 26 18  1  0
 54 48  2  0
 82 76  2  0
114106  1  0
146138  1  0
178170  1  0
  1185  1  0
  2186  1  0
  6187  1  0
  7188  1  0
 10189  1  0
 10190  1  0
 11191  1  0
 11192  1  0
 11193  1  0
 14194  1  0
 19195  1  0
 20196  1  0
 23197  1  0
 23198  1  0
 24199  1  0
 24200  1  0
 24201  1  0
 26202  1  0
 30203  1  0
 34204  1  0
 38205  1  0
 42206  1  0
 42207  1  0
 43208  1  0
 43209  1  0
 43210  1  0
 51211  1  0
 51212  1  0
 52213  1  0
 52214  1  0
 52215  1  0
 54216  1  0
 58217  1  0
 62218  1  0
 66219  1  0
 70220  1  0
 70221  1  0
 71222  1  0
 71223  1  0
 71224  1  0
 79225  1  0
 79226  1  0
 80227  1  0
 80228  1  0
 80229  1  0
 82230  1  0
 86231  1  0
 90232  1  0
 94233  1  0
 95234  1  0
 98235  1  0
 98236  1  0
 99237  1  0
 99238  1  0
 99239  1  0
102240  1  0
107241  1  0
108242  1  0
111243  1  0
111244  1  0
112245  1  0
112246  1  0
112247  1  0
114248  1  0
118249  1  0
122250  1  0
126251  1  0
127252  1  0
130253  1  0
130254  1  0
131255  1  0
131256  1  0
131257  1  0
134258  1  0
139259  1  0
140260  1  0
143261  1  0
143262  1  0
144263  1  0
144264  1  0
144265  1  0
146266  1  0
150267  1  0
154268  1  0
158269  1  0
159270  1  0
162271  1  0
162272  1  0
163273  1  0
163274  1  0
163275  1  0
166276  1  0
171277  1  0
172278  1  0
175279  1  0
175280  1  0
176281  1  0
176282  1  0
176283  1  0
178284  1  0
182285  1  0
183286  1  0
M  END

