
     RDKit          3D

226247  0  0  0  0  0  0  0  0999 V2000
   -0.0517   -0.0994    9.8246 C   0  0  0  0  0  0  0  0  0  0  0  0
    0.7294    0.8945    9.2410 C   0  0  0  0  0  0  0  0  0  0  0  0
    1.2224    0.5367    7.9739 C   0  0  0  0  0  0  0  0  0  0  0  0
    2.0113    1.3430    7.1281 C   0  0  0  0  0  0  0  0  0  0  0  0
    2.2806    2.7635    7.4313 C   0  0  0  0  0  0  0  0  0  0  0  0
    3.5976    3.2307    7.5670 C   0  0  0  0  0  0  0  0  0  0  0  0
    3.8425    4.5930    7.7690 C   0  0  0  0  0  0  0  0  0  0  0  0
    2.7768    5.5011    7.8270 C   0  0  0  0  0  0  0  0  0  0  0  0
    3.1045    7.2531    8.0399 S   0  0  0  0  0  0  0  0  0  0  0  0
    3.4251    7.5842    6.2703 C   0  0  0  0  0  0  0  0  0  0  0  0
    2.1319    7.6553    5.4693 C   0  0  0  0  0  0  0  0  0  0  0  0
    1.4593    5.0328    7.7289 C   0  0  0  0  0  0  0  0  0  0  0  0
    0.4149    5.8954    7.8149 F   0  0  0  0  0  0  0  0  0  0  0  0
    1.2137    3.6722    7.5247 C   0  0  0  0  0  0  0  0  0  0  0  0
    2.4075    0.7802    5.9053 C   0  0  0  0  0  0  0  0  0  0  0  0
    1.9994   -0.4929    5.4869 C   0  0  0  0  0  0  0  0  0  0  0  0
    1.1903   -1.2938    6.3257 C   0  0  0  0  0  0  0  0  0  0  0  0
    0.6689   -2.6118    5.9079 C   0  0  0  0  0  0  0  0  0  0  0  0
   -0.1886   -2.7101    4.8002 C   0  0  0  0  0  0  0  0  0  0  0  0
   -0.7720   -3.9378    4.4725 C   0  0  0  0  0  0  0  0  0  0  0  0
   -0.5174   -5.0711    5.2535 C   0  0  0  0  0  0  0  0  0  0  0  0
   -1.2989   -6.6354    4.8397 S   0  0  0  0  0  0  0  0  0  0  0  0
   -2.8209   -6.3348    5.8073 C   0  0  0  0  0  0  0  0  0  0  0  0
   -2.6071   -6.6335    7.2859 C   0  0  0  0  0  0  0  0  0  0  0  0
    0.3655   -4.9834    6.3374 C   0  0  0  0  0  0  0  0  0  0  0  0
    0.9508   -3.7563    6.6662 C   0  0  0  0  0  0  0  0  0  0  0  0
    0.6487   -6.0808    7.0841 F   0  0  0  0  0  0  0  0  0  0  0  0
    0.8385   -0.7464    7.5756 C   0  0  0  0  0  0  0  0  0  0  0  0
   -0.1298   -1.4180    8.7773 S   0  0  0  0  0  0  0  0  0  0  0  0
    2.4393   -0.8119    4.1886 C   0  0  0  0  0  0  0  0  0  0  0  0
    3.1719    0.2176    3.5918 C   0  0  0  0  0  0  0  0  0  0  0  0
    3.2903    1.5035    4.6705 S   0  0  0  0  0  0  0  0  0  0  0  0
    3.6215    0.2763    2.1946 C   0  0  0  0  0  0  0  0  0  0  0  0
    3.8787    1.7045    1.3576 S   0  0  0  0  0  0  0  0  0  0  0  0
    4.1567    1.0157   -0.1506 C   0  0  0  0  0  0  0  0  0  0  0  0
    4.0274   -0.3805   -0.0220 C   0  0  0  0  0  0  0  0  0  0  0  0
    3.7353   -0.7812    1.2981 C   0  0  0  0  0  0  0  0  0  0  0  0
    4.0615   -1.3567   -1.1444 C   0  0  0  0  0  0  0  0  0  0  0  0
    3.7581   -0.9894   -2.3116 O   0  0  0  0  0  0  0  0  0  0  0  0
    4.3648   -2.8069   -0.9044 C   0  0  0  0  0  0  0  0  0  0  0  0
    4.2383    1.8367   -1.3706 C   0  0  0  0  0  0  0  0  0  0  0  0
    3.3431    3.2239   -1.5840 S   0  0  0  0  0  0  0  0  0  0  0  0
    3.7994    3.5455   -3.1685 C   0  0  0  0  0  0  0  0  0  0  0  0
    4.7057    2.5477   -3.5657 C   0  0  0  0  0  0  0  0  0  0  0  0
    4.9590    1.6032   -2.5414 C   0  0  0  0  0  0  0  0  0  0  0  0
    5.3446    2.4788   -4.9025 C   0  0  0  0  0  0  0  0  0  0  0  0
    5.0723    3.3488   -5.7800 O   0  0  0  0  0  0  0  0  0  0  0  0
    6.3532    1.4161   -5.2352 C   0  0  0  0  0  0  0  0  0  0  0  0
    2.9714    4.4195   -4.0167 C   0  0  0  0  0  0  0  0  0  0  0  0
    2.1120    3.8549   -4.9608 C   0  0  0  0  0  0  0  0  0  0  0  0
    0.8313    4.4390   -4.9849 C   0  0  0  0  0  0  0  0  0  0  0  0
   -0.3177    3.8519   -5.5628 C   0  0  0  0  0  0  0  0  0  0  0  0
   -0.2605    2.5141   -6.1976 C   0  0  0  0  0  0  0  0  0  0  0  0
    0.1247    1.3979   -5.4367 C   0  0  0  0  0  0  0  0  0  0  0  0
    0.1149    0.1211   -5.9991 C   0  0  0  0  0  0  0  0  0  0  0  0
   -0.3152   -0.0626   -7.3171 C   0  0  0  0  0  0  0  0  0  0  0  0
   -0.3618   -1.7225   -8.0061 S   0  0  0  0  0  0  0  0  0  0  0  0
   -1.9445   -2.1845   -7.2173 C   0  0  0  0  0  0  0  0  0  0  0  0
   -3.1285   -1.6214   -7.9897 C   0  0  0  0  0  0  0  0  0  0  0  0
   -0.7144    1.0462   -8.0781 C   0  0  0  0  0  0  0  0  0  0  0  0
   -1.1311    0.8809   -9.3593 F   0  0  0  0  0  0  0  0  0  0  0  0
   -0.6843    2.3298   -7.5214 C   0  0  0  0  0  0  0  0  0  0  0  0
   -1.5633    4.3782   -5.1734 C   0  0  0  0  0  0  0  0  0  0  0  0
   -1.6843    5.3945   -4.2214 C   0  0  0  0  0  0  0  0  0  0  0  0
   -0.5360    6.0465   -3.7203 C   0  0  0  0  0  0  0  0  0  0  0  0
   -0.6333    7.0066   -2.5992 C   0  0  0  0  0  0  0  0  0  0  0  0
   -1.1734    8.2850   -2.8103 C   0  0  0  0  0  0  0  0  0  0  0  0
   -1.2392    9.2033   -1.7578 C   0  0  0  0  0  0  0  0  0  0  0  0
   -0.7615    8.8556   -0.4883 C   0  0  0  0  0  0  0  0  0  0  0  0
   -0.7992   10.0560    0.8432 S   0  0  0  0  0  0  0  0  0  0  0  0
    0.7599   10.8819    0.3642 C   0  0  0  0  0  0  0  0  0  0  0  0
    1.9743   10.1044    0.8547 C   0  0  0  0  0  0  0  0  0  0  0  0
   -0.2707    7.5645   -0.2595 C   0  0  0  0  0  0  0  0  0  0  0  0
   -0.2189    6.6387   -1.3085 C   0  0  0  0  0  0  0  0  0  0  0  0
    0.1507    7.1949    0.9773 F   0  0  0  0  0  0  0  0  0  0  0  0
    0.7121    5.5331   -4.1232 C   0  0  0  0  0  0  0  0  0  0  0  0
    2.1786    5.7457   -3.3376 S   0  0  0  0  0  0  0  0  0  0  0  0
   -2.9528    5.4219   -3.6032 C   0  0  0  0  0  0  0  0  0  0  0  0
   -3.7901    4.3592   -3.9731 C   0  0  0  0  0  0  0  0  0  0  0  0
   -3.0155    3.5490   -5.2350 S   0  0  0  0  0  0  0  0  0  0  0  0
   -4.4589    3.5324   -2.9453 C   0  0  0  0  0  0  0  0  0  0  0  0
   -5.0439    2.3023   -3.2869 C   0  0  0  0  0  0  0  0  0  0  0  0
   -4.6521    1.2328   -2.4537 C   0  0  0  0  0  0  0  0  0  0  0  0
   -4.8250   -0.1492   -2.7161 C   0  0  0  0  0  0  0  0  0  0  0  0
   -5.6823   -0.6665   -3.8094 C   0  0  0  0  0  0  0  0  0  0  0  0
   -6.7123   -1.5684   -3.5068 C   0  0  0  0  0  0  0  0  0  0  0  0
   -7.5150   -2.0981   -4.5197 C   0  0  0  0  0  0  0  0  0  0  0  0
   -7.3097   -1.7127   -5.8499 C   0  0  0  0  0  0  0  0  0  0  0  0
   -8.3651   -2.3730   -7.1447 S   0  0  0  0  0  0  0  0  0  0  0  0
   -7.2204   -3.7094   -7.6394 C   0  0  0  0  0  0  0  0  0  0  0  0
   -7.3274   -4.9059   -6.7039 C   0  0  0  0  0  0  0  0  0  0  0  0
   -6.3011   -0.7931   -6.1583 C   0  0  0  0  0  0  0  0  0  0  0  0
   -6.1258   -0.3710   -7.4383 F   0  0  0  0  0  0  0  0  0  0  0  0
   -5.4641   -0.3013   -5.1487 C   0  0  0  0  0  0  0  0  0  0  0  0
   -4.1012   -1.0402   -1.8993 C   0  0  0  0  0  0  0  0  0  0  0  0
   -3.2945   -0.6153   -0.8389 C   0  0  0  0  0  0  0  0  0  0  0  0
   -3.1967    0.7543   -0.5237 C   0  0  0  0  0  0  0  0  0  0  0  0
   -2.3143    1.2349    0.5665 C   0  0  0  0  0  0  0  0  0  0  0  0
   -2.5865    0.8649    1.8929 C   0  0  0  0  0  0  0  0  0  0  0  0
   -1.7990    1.3581    2.9336 C   0  0  0  0  0  0  0  0  0  0  0  0
   -0.7437    2.2347    2.6615 C   0  0  0  0  0  0  0  0  0  0  0  0
    0.1866    2.9482    4.0226 S   0  0  0  0  0  0  0  0  0  0  0  0
   -0.7847    4.4944    4.0945 C   0  0  0  0  0  0  0  0  0  0  0  0
   -2.1268    4.2766    4.7842 C   0  0  0  0  0  0  0  0  0  0  0  0
   -0.4258    2.5554    1.3347 C   0  0  0  0  0  0  0  0  0  0  0  0
   -1.2084    2.0562    0.2901 C   0  0  0  0  0  0  0  0  0  0  0  0
    0.6207    3.3711    1.0561 F   0  0  0  0  0  0  0  0  0  0  0  0
   -3.8796    1.6499   -1.3684 C   0  0  0  0  0  0  0  0  0  0  0  0
   -3.6685    3.3062   -1.4673 S   0  0  0  0  0  0  0  0  0  0  0  0
   -2.5207   -1.6466   -0.2809 C   0  0  0  0  0  0  0  0  0  0  0  0
   -2.6980   -2.8662   -0.9270 C   0  0  0  0  0  0  0  0  0  0  0  0
   -3.8367   -2.6800   -2.1590 S   0  0  0  0  0  0  0  0  0  0  0  0
   -1.8658   -4.0610   -0.7362 C   0  0  0  0  0  0  0  0  0  0  0  0
   -1.7051   -5.0714   -1.6811 C   0  0  0  0  0  0  0  0  0  0  0  0
   -0.7527   -6.0319   -1.3070 C   0  0  0  0  0  0  0  0  0  0  0  0
   -0.3466   -7.1423   -2.0777 C   0  0  0  0  0  0  0  0  0  0  0  0
   -0.9138   -7.4148   -3.4212 C   0  0  0  0  0  0  0  0  0  0  0  0
   -0.0733   -7.4746   -4.5464 C   0  0  0  0  0  0  0  0  0  0  0  0
   -0.6064   -7.7230   -5.8130 C   0  0  0  0  0  0  0  0  0  0  0  0
   -1.9872   -7.8801   -5.9780 C   0  0  0  0  0  0  0  0  0  0  0  0
   -2.6615   -8.2053   -7.6125 S   0  0  0  0  0  0  0  0  0  0  0  0
   -2.8666   -6.4476   -8.0771 C   0  0  0  0  0  0  0  0  0  0  0  0
   -1.6165   -5.9295   -8.7764 C   0  0  0  0  0  0  0  0  0  0  0  0
   -2.8313   -7.8229   -4.8619 C   0  0  0  0  0  0  0  0  0  0  0  0
   -4.1711   -7.9904   -5.0051 F   0  0  0  0  0  0  0  0  0  0  0  0
   -2.2981   -7.5983   -3.5894 C   0  0  0  0  0  0  0  0  0  0  0  0
    0.6679   -7.9487   -1.5325 C   0  0  0  0  0  0  0  0  0  0  0  0
    1.2677   -7.6766   -0.2970 C   0  0  0  0  0  0  0  0  0  0  0  0
    0.8618   -6.5629    0.4729 C   0  0  0  0  0  0  0  0  0  0  0  0
    1.5104   -6.2401    1.7660 C   0  0  0  0  0  0  0  0  0  0  0  0
    1.5059   -7.1751    2.8114 C   0  0  0  0  0  0  0  0  0  0  0  0
    2.2238   -6.9237    3.9853 C   0  0  0  0  0  0  0  0  0  0  0  0
    2.9634   -5.7452    4.1151 C   0  0  0  0  0  0  0  0  0  0  0  0
    3.9478   -5.4595    5.5877 S   0  0  0  0  0  0  0  0  0  0  0  0
    5.4456   -6.2020    4.8523 C   0  0  0  0  0  0  0  0  0  0  0  0
    6.6096   -6.0986    5.8268 C   0  0  0  0  0  0  0  0  0  0  0  0
    2.9417   -4.7939    3.0900 C   0  0  0  0  0  0  0  0  0  0  0  0
    2.2067   -5.0312    1.9267 C   0  0  0  0  0  0  0  0  0  0  0  0
    3.6939   -3.6730    3.1941 F   0  0  0  0  0  0  0  0  0  0  0  0
   -0.1553   -5.7576   -0.0711 C   0  0  0  0  0  0  0  0  0  0  0  0
   -0.8200   -4.3425    0.5596 S   0  0  0  0  0  0  0  0  0  0  0  0
    2.2921   -8.5838    0.0272 C   0  0  0  0  0  0  0  0  0  0  0  0
    2.4711   -9.5756   -0.9302 C   0  0  0  0  0  0  0  0  0  0  0  0
    1.3761   -9.3264   -2.1886 S   0  0  0  0  0  0  0  0  0  0  0  0
   -0.5300   -0.0335   10.7940 H   0  0  0  0  0  0  0  0  0  0  0  0
    0.9299    1.8421    9.7251 H   0  0  0  0  0  0  0  0  0  0  0  0
    4.4315    2.5427    7.5075 H   0  0  0  0  0  0  0  0  0  0  0  0
    4.8596    4.9454    7.8631 H   0  0  0  0  0  0  0  0  0  0  0  0
    4.0995    6.8110    5.8384 H   0  0  0  0  0  0  0  0  0  0  0  0
    3.9393    8.5635    6.1952 H   0  0  0  0  0  0  0  0  0  0  0  0
    2.3551    7.9631    4.4246 H   0  0  0  0  0  0  0  0  0  0  0  0
    1.4432    8.3995    5.9198 H   0  0  0  0  0  0  0  0  0  0  0  0
    1.6346    6.6659    5.4385 H   0  0  0  0  0  0  0  0  0  0  0  0
    0.1892    3.3280    7.4197 H   0  0  0  0  0  0  0  0  0  0  0  0
   -0.4237   -1.8348    4.2065 H   0  0  0  0  0  0  0  0  0  0  0  0
   -1.4442   -3.9995    3.6295 H   0  0  0  0  0  0  0  0  0  0  0  0
   -3.6091   -7.0106    5.4173 H   0  0  0  0  0  0  0  0  0  0  0  0
   -3.1750   -5.2899    5.6760 H   0  0  0  0  0  0  0  0  0  0  0  0
   -2.1539   -7.6371    7.4154 H   0  0  0  0  0  0  0  0  0  0  0  0
   -3.5819   -6.6141    7.8157 H   0  0  0  0  0  0  0  0  0  0  0  0
   -1.9481   -5.8680    7.7455 H   0  0  0  0  0  0  0  0  0  0  0  0
    1.6149   -3.6971    7.5210 H   0  0  0  0  0  0  0  0  0  0  0  0
    2.1861   -1.7309    3.6802 H   0  0  0  0  0  0  0  0  0  0  0  0
    3.5465   -1.8072    1.5800 H   0  0  0  0  0  0  0  0  0  0  0  0
    5.1407   -2.9165   -0.1170 H   0  0  0  0  0  0  0  0  0  0  0  0
    3.4381   -3.3234   -0.5808 H   0  0  0  0  0  0  0  0  0  0  0  0
    4.7236   -3.2826   -1.8352 H   0  0  0  0  0  0  0  0  0  0  0  0
    5.6442    0.7711   -2.6465 H   0  0  0  0  0  0  0  0  0  0  0  0
    7.2252    1.5096   -4.5529 H   0  0  0  0  0  0  0  0  0  0  0  0
    6.7084    1.5206   -6.2810 H   0  0  0  0  0  0  0  0  0  0  0  0
    5.8930    0.4134   -5.1135 H   0  0  0  0  0  0  0  0  0  0  0  0
    2.3396    2.9152   -5.4472 H   0  0  0  0  0  0  0  0  0  0  0  0
    0.4177    1.5160   -4.3989 H   0  0  0  0  0  0  0  0  0  0  0  0
    0.4135   -0.7309   -5.3989 H   0  0  0  0  0  0  0  0  0  0  0  0
   -2.0251   -3.2894   -7.1980 H   0  0  0  0  0  0  0  0  0  0  0  0
   -1.9763   -1.8296   -6.1630 H   0  0  0  0  0  0  0  0  0  0  0  0
   -3.0664   -1.9201   -9.0597 H   0  0  0  0  0  0  0  0  0  0  0  0
   -4.0639   -2.0288   -7.5594 H   0  0  0  0  0  0  0  0  0  0  0  0
   -3.1562   -0.5173   -7.9131 H   0  0  0  0  0  0  0  0  0  0  0  0
   -1.0054    3.1788   -8.1130 H   0  0  0  0  0  0  0  0  0  0  0  0
   -1.5301    8.5717   -3.7933 H   0  0  0  0  0  0  0  0  0  0  0  0
   -1.6522   10.1884   -1.9308 H   0  0  0  0  0  0  0  0  0  0  0  0
    0.7692   11.8885    0.8259 H   0  0  0  0  0  0  0  0  0  0  0  0
    0.8150   11.0112   -0.7405 H   0  0  0  0  0  0  0  0  0  0  0  0
    2.0363    9.1168    0.3519 H   0  0  0  0  0  0  0  0  0  0  0  0
    2.8992   10.6734    0.6220 H   0  0  0  0  0  0  0  0  0  0  0  0
    1.9159    9.9609    1.9541 H   0  0  0  0  0  0  0  0  0  0  0  0
    0.1502    5.6382   -1.1167 H   0  0  0  0  0  0  0  0  0  0  0  0
   -3.1518    6.0150   -2.7166 H   0  0  0  0  0  0  0  0  0  0  0  0
   -5.5532    2.1668   -4.2303 H   0  0  0  0  0  0  0  0  0  0  0  0
   -6.8970   -1.8672   -2.4818 H   0  0  0  0  0  0  0  0  0  0  0  0
   -8.3028   -2.7965   -4.2714 H   0  0  0  0  0  0  0  0  0  0  0  0
   -6.1725   -3.3428   -7.6744 H   0  0  0  0  0  0  0  0  0  0  0  0
   -7.4942   -4.0340   -8.6636 H   0  0  0  0  0  0  0  0  0  0  0  0
   -6.7020   -5.7344   -7.0935 H   0  0  0  0  0  0  0  0  0  0  0  0
   -8.3804   -5.2532   -6.6410 H   0  0  0  0  0  0  0  0  0  0  0  0
   -6.9657   -4.6480   -5.6876 H   0  0  0  0  0  0  0  0  0  0  0  0
   -4.6572    0.3690   -5.4132 H   0  0  0  0  0  0  0  0  0  0  0  0
   -3.4203    0.2104    2.1175 H   0  0  0  0  0  0  0  0  0  0  0  0
   -2.0267    1.0810    3.9539 H   0  0  0  0  0  0  0  0  0  0  0  0
   -0.9404    4.9078    3.0743 H   0  0  0  0  0  0  0  0  0  0  0  0
   -0.2019    5.2351    4.6774 H   0  0  0  0  0  0  0  0  0  0  0  0
   -2.7788    3.6210    4.1705 H   0  0  0  0  0  0  0  0  0  0  0  0
   -2.6423    5.2514    4.9132 H   0  0  0  0  0  0  0  0  0  0  0  0
   -1.9756    3.8149    5.7823 H   0  0  0  0  0  0  0  0  0  0  0  0
   -0.9561    2.3119   -0.7324 H   0  0  0  0  0  0  0  0  0  0  0  0
   -1.7855   -1.4965    0.5011 H   0  0  0  0  0  0  0  0  0  0  0  0
   -2.2245   -5.0749   -2.6298 H   0  0  0  0  0  0  0  0  0  0  0  0
    0.9944   -7.3259   -4.4415 H   0  0  0  0  0  0  0  0  0  0  0  0
    0.0545   -7.7882   -6.6671 H   0  0  0  0  0  0  0  0  0  0  0  0
   -3.7216   -6.3754   -8.7789 H   0  0  0  0  0  0  0  0  0  0  0  0
   -3.0971   -5.8187   -7.1911 H   0  0  0  0  0  0  0  0  0  0  0  0
   -1.8051   -4.9149   -9.1902 H   0  0  0  0  0  0  0  0  0  0  0  0
   -0.7732   -5.8610   -8.0581 H   0  0  0  0  0  0  0  0  0  0  0  0
   -1.3324   -6.6065   -9.6107 H   0  0  0  0  0  0  0  0  0  0  0  0
   -2.9626   -7.5622   -2.7328 H   0  0  0  0  0  0  0  0  0  0  0  0
    0.9621   -8.1080    2.7087 H   0  0  0  0  0  0  0  0  0  0  0  0
    2.2273   -7.6590    4.7791 H   0  0  0  0  0  0  0  0  0  0  0  0
    5.7139   -5.6664    3.9116 H   0  0  0  0  0  0  0  0  0  0  0  0
    5.2532   -7.2734    4.6201 H   0  0  0  0  0  0  0  0  0  0  0  0
    6.8168   -5.0321    6.0708 H   0  0  0  0  0  0  0  0  0  0  0  0
    6.3784   -6.6516    6.7612 H   0  0  0  0  0  0  0  0  0  0  0  0
    7.5194   -6.5376    5.3641 H   0  0  0  0  0  0  0  0  0  0  0  0
    2.2082   -4.2948    1.1360 H   0  0  0  0  0  0  0  0  0  0  0  0
    2.9000   -8.5225    0.9164 H   0  0  0  0  0  0  0  0  0  0  0  0
    3.2050  -10.3673   -0.8772 H   0  0  0  0  0  0  0  0  0  0  0  0
  1  2  2  0
  2  3  1  0
  3  4  2  0
  4  5  1  0
  5  6  2  0
  6  7  1  0
  7  8  2  0
  8  9  1  0
  9 10  1  0
 10 11  1  0
  8 12  1  0
 12 13  1  0
 12 14  2  0
  4 15  1  0
 15 16  2  0
 16 17  1  0
 17 18  1  0
 18 19  2  0
 19 20  1  0
 20 21  2  0
 21 22  1  0
 22 23  1  0
 23 24  1  0
 21 25  1  0
 25 26  2  0
 25 27  1  0
 17 28  2  0
 28 29  1  0
 16 30  1  0
 30 31  2  0
 31 32  1  0
 31 33  1  0
 33 34  1  0
 34 35  1  0
 35 36  2  0
 36 37  1  0
 36 38  1  0
 38 39  2  0
 38 40  1  0
 35 41  1  0
 41 42  1  0
 42 43  1  0
 43 44  2  0
 44 45  1  0
 44 46  1  0
 46 47  2  0
 46 48  1  0
 43 49  1  0
 49 50  2  0
 50 51  1  0
 51 52  2  0
 52 53  1  0
 53 54  2  0
 54 55  1  0
 55 56  2  0
 56 57  1  0
 57 58  1  0
 58 59  1  0
 56 60  1  0
 60 61  1  0
 60 62  2  0
 52 63  1  0
 63 64  2  0
 64 65  1  0
 65 66  1  0
 66 67  2  0
 67 68  1  0
 68 69  2  0
 69 70  1  0
 70 71  1  0
 71 72  1  0
 69 73  1  0
 73 74  2  0
 73 75  1  0
 65 76  2  0
 76 77  1  0
 64 78  1  0
 78 79  2  0
 79 80  1  0
 79 81  1  0
 81 82  2  0
 82 83  1  0
 83 84  2  0
 84 85  1  0
 85 86  2  0
 86 87  1  0
 87 88  2  0
 88 89  1  0
 89 90  1  0
 90 91  1  0
 88 92  1  0
 92 93  1  0
 92 94  2  0
 84 95  1  0
 95 96  2  0
 96 97  1  0
 97 98  1  0
 98 99  2  0
 99100  1  0
100101  2  0
101102  1  0
102103  1  0
103104  1  0
101105  1  0
105106  2  0
105107  1  0
 97108  2  0
108109  1  0
 96110  1  0
110111  2  0
111112  1  0
111113  1  0
113114  2  0
114115  1  0
115116  2  0
116117  1  0
117118  2  0
118119  1  0
119120  2  0
120121  1  0
121122  1  0
122123  1  0
120124  1  0
124125  1  0
124126  2  0
116127  1  0
127128  2  0
128129  1  0
129130  1  0
130131  2  0
131132  1  0
132133  2  0
133134  1  0
134135  1  0
135136  1  0
133137  1  0
137138  2  0
137139  1  0
129140  2  0
140141  1  0
128142  1  0
142143  2  0
143144  1  0
 29  1  1  0
 37 33  2  0
 45 41  2  0
 77 49  1  0
109 81  1  0
141113  1  0
 28  3  1  0
 76 51  1  0
108 83  1  0
140115  1  0
 14  5  1  0
 32 15  1  0
 62 53  1  0
 80 63  1  0
 94 85  1  0
112 95  1  0
126117  1  0
144127  1  0
 26 18  1  0
 74 66  1  0
106 98  1  0
138130  1  0
  1145  1  0
  2146  1  0
  6147  1  0
  7148  1  0
 10149  1  0
 10150  1  0
 11151  1  0
 11152  1  0
 11153  1  0
 14154  1  0
 19155  1  0
 20156  1  0
 23157  1  0
 23158  1  0
 24159  1  0
 24160  1  0
 24161  1  0
 26162  1  0
 30163  1  0
 37164  1  0
 40165  1  0
 40166  1  0
 40167  1  0
 45168  1  0
 48169  1  0
 48170  1  0
 48171  1  0
 50172  1  0
 54173  1  0
 55174  1  0
 58175  1  0
 58176  1  0
 59177  1  0
 59178  1  0
 59179  1  0
 62180  1  0
 67181  1  0
 68182  1  0
 71183  1  0
 71184  1  0
 72185  1  0
 72186  1  0
 72187  1  0
 74188  1  0
 78189  1  0
 82190  1  0
 86191  1  0
 87192  1  0
 90193  1  0
 90194  1  0
 91195  1  0
 91196  1  0
 91197  1  0
 94198  1  0
 99199  1  0
100200  1  0
103201  1  0
103202  1  0
104203  1  0
104204  1  0
104205  1  0
106206  1  0
110207  1  0
114208  1  0
118209  1  0
119210  1  0
122211  1  0
122212  1  0
123213  1  0
123214  1  0
123215  1  0
126216  1  0
131217  1  0
132218  1  0
135219  1  0
135220  1  0
136221  1  0
136222  1  0
136223  1  0
138224  1  0
142225  1  0
143226  1  0
M  END

