
     RDKit          3D

227253  0  0  0  0  0  0  0  0999 V2000
    5.3462   -3.5841   10.7377 C   0  0  0  0  0  0  0  0  0  0  0  0
    4.9773   -3.2212    9.4456 C   0  0  0  0  0  0  0  0  0  0  0  0
    3.7714   -3.8090    9.0278 C   0  0  0  0  0  0  0  0  0  0  0  0
    3.1682   -3.6686    7.7607 C   0  0  0  0  0  0  0  0  0  0  0  0
    3.7381   -2.7965    6.7167 C   0  0  0  0  0  0  0  0  0  0  0  0
    4.3167   -3.3262    5.2272 S   0  0  0  0  0  0  0  0  0  0  0  0
    4.7988   -1.8116    4.6724 C   0  0  0  0  0  0  0  0  0  0  0  0
    5.4093   -1.5503    3.3273 C   0  0  0  0  0  0  0  0  0  0  0  0
    4.3540   -1.0823    2.3289 C   0  0  0  0  0  0  0  0  0  0  0  0
    4.4951   -0.8614    5.6461 C   0  0  0  0  0  0  0  0  0  0  0  0
    4.8099    0.8587    5.4558 Cl  0  0  0  0  0  0  0  0  0  0  0  0
    3.9020   -1.4135    6.7928 C   0  0  0  0  0  0  0  0  0  0  0  0
    3.3738   -0.4489    8.1650 Cl  0  0  0  0  0  0  0  0  0  0  0  0
    1.9948   -4.4067    7.5325 C   0  0  0  0  0  0  0  0  0  0  0  0
    1.4186   -5.2246    8.5099 C   0  0  0  0  0  0  0  0  0  0  0  0
    2.0225   -5.3666    9.7756 C   0  0  0  0  0  0  0  0  0  0  0  0
    1.4877   -6.2922   10.7897 C   0  0  0  0  0  0  0  0  0  0  0  0
    1.3566   -7.9571   10.5833 S   0  0  0  0  0  0  0  0  0  0  0  0
    0.6597   -8.2708   12.0809 C   0  0  0  0  0  0  0  0  0  0  0  0
    0.2066   -9.6232   12.5382 C   0  0  0  0  0  0  0  0  0  0  0  0
   -1.2254   -9.8978   12.0893 C   0  0  0  0  0  0  0  0  0  0  0  0
    0.4984   -7.0634   12.7595 C   0  0  0  0  0  0  0  0  0  0  0  0
    0.9739   -5.9540   12.0409 C   0  0  0  0  0  0  0  0  0  0  0  0
    0.8595   -4.2973   12.6270 Cl  0  0  0  0  0  0  0  0  0  0  0  0
   -0.2408   -6.9358   14.3491 Cl  0  0  0  0  0  0  0  0  0  0  0  0
    3.2021   -4.6376    9.9997 C   0  0  0  0  0  0  0  0  0  0  0  0
    4.1920   -4.6452   11.3614 S   0  0  0  0  0  0  0  0  0  0  0  0
    0.2311   -5.8414    8.0836 C   0  0  0  0  0  0  0  0  0  0  0  0
   -0.1078   -5.5240    6.7696 C   0  0  0  0  0  0  0  0  0  0  0  0
    1.0503   -4.4669    6.1382 S   0  0  0  0  0  0  0  0  0  0  0  0
   -1.2683   -6.0500    6.0361 C   0  0  0  0  0  0  0  0  0  0  0  0
   -1.4140   -6.0630    4.3252 S   0  0  0  0  0  0  0  0  0  0  0  0
   -2.8839   -6.8592    4.3817 C   0  0  0  0  0  0  0  0  0  0  0  0
   -3.2534   -7.1096    5.6414 C   0  0  0  0  0  0  0  0  0  0  0  0
   -2.3744   -6.6885    6.6268 C   0  0  0  0  0  0  0  0  0  0  0  0
   -4.3772   -7.8368    5.6948 N   0  0  0  0  0  0  0  0  0  0  0  0
   -4.7213   -8.0365    4.3926 C   0  0  0  0  0  0  0  0  0  0  0  0
   -3.7771   -7.4523    3.5263 C   0  0  0  0  0  0  0  0  0  0  0  0
   -5.8391   -8.9258    4.0070 C   0  0  0  0  0  0  0  0  0  0  0  0
   -6.5027   -8.9120    2.8419 C   0  0  0  0  0  0  0  0  0  0  0  0
   -6.3973   -7.8754    1.8029 C   0  0  0  0  0  0  0  0  0  0  0  0
   -6.4967   -8.1268    0.4368 C   0  0  0  0  0  0  0  0  0  0  0  0
   -6.4456   -6.9581   -0.3415 C   0  0  0  0  0  0  0  0  0  0  0  0
   -6.4773   -6.8890   -1.7501 C   0  0  0  0  0  0  0  0  0  0  0  0
   -6.6409   -8.0935   -2.5835 C   0  0  0  0  0  0  0  0  0  0  0  0
   -8.0196   -9.0607   -2.5982 S   0  0  0  0  0  0  0  0  0  0  0  0
   -7.4809  -10.1251   -3.7836 C   0  0  0  0  0  0  0  0  0  0  0  0
   -8.3001  -11.2420   -4.3547 C   0  0  0  0  0  0  0  0  0  0  0  0
   -9.0324  -10.7894   -5.6137 C   0  0  0  0  0  0  0  0  0  0  0  0
   -6.2144   -9.7214   -4.2023 C   0  0  0  0  0  0  0  0  0  0  0  0
   -5.3025  -10.5377   -5.4633 Cl  0  0  0  0  0  0  0  0  0  0  0  0
   -5.7376   -8.5875   -3.5231 C   0  0  0  0  0  0  0  0  0  0  0  0
   -4.1440   -7.8915   -3.8044 Cl  0  0  0  0  0  0  0  0  0  0  0  0
   -6.3834   -5.6096   -2.3274 C   0  0  0  0  0  0  0  0  0  0  0  0
   -6.2720   -4.4476   -1.5550 C   0  0  0  0  0  0  0  0  0  0  0  0
   -6.2182   -4.5190   -0.1486 C   0  0  0  0  0  0  0  0  0  0  0  0
   -5.9741   -3.3224    0.6809 C   0  0  0  0  0  0  0  0  0  0  0  0
   -7.0062   -1.9987    0.8015 S   0  0  0  0  0  0  0  0  0  0  0  0
   -5.9978   -1.0748    1.7832 C   0  0  0  0  0  0  0  0  0  0  0  0
   -6.3338    0.2848    2.3136 C   0  0  0  0  0  0  0  0  0  0  0  0
   -6.8976    0.1929    3.7270 C   0  0  0  0  0  0  0  0  0  0  0  0
   -4.8360   -1.8039    2.0417 C   0  0  0  0  0  0  0  0  0  0  0  0
   -4.8206   -3.0583    1.4175 C   0  0  0  0  0  0  0  0  0  0  0  0
   -3.4430   -4.1519    1.4914 Cl  0  0  0  0  0  0  0  0  0  0  0  0
   -3.5099   -1.2006    3.0262 Cl  0  0  0  0  0  0  0  0  0  0  0  0
   -6.3212   -5.7957    0.4251 C   0  0  0  0  0  0  0  0  0  0  0  0
   -6.3145   -6.2061    2.0580 S   0  0  0  0  0  0  0  0  0  0  0  0
   -6.1707   -3.2840   -2.3308 C   0  0  0  0  0  0  0  0  0  0  0  0
   -6.2013   -3.5382   -3.6980 C   0  0  0  0  0  0  0  0  0  0  0  0
   -6.3400   -5.1968   -3.9629 S   0  0  0  0  0  0  0  0  0  0  0  0
   -5.9209   -2.5266   -4.7171 C   0  0  0  0  0  0  0  0  0  0  0  0
   -4.7806   -2.5277   -5.5178 C   0  0  0  0  0  0  0  0  0  0  0  0
   -4.4695   -1.2569   -6.0289 C   0  0  0  0  0  0  0  0  0  0  0  0
   -3.2825   -0.9007   -6.7032 C   0  0  0  0  0  0  0  0  0  0  0  0
   -2.1998   -1.8722   -6.9372 C   0  0  0  0  0  0  0  0  0  0  0  0
   -1.6074   -2.3095   -8.4501 S   0  0  0  0  0  0  0  0  0  0  0  0
   -0.3798   -3.3101   -7.8761 C   0  0  0  0  0  0  0  0  0  0  0  0
    0.6249   -4.0042   -8.7449 C   0  0  0  0  0  0  0  0  0  0  0  0
    1.7682   -3.0643   -9.1104 C   0  0  0  0  0  0  0  0  0  0  0  0
   -0.3979   -3.2867   -6.4821 C   0  0  0  0  0  0  0  0  0  0  0  0
    0.7642   -4.1444   -5.4789 Cl  0  0  0  0  0  0  0  0  0  0  0  0
   -1.4168   -2.4803   -5.9559 C   0  0  0  0  0  0  0  0  0  0  0  0
   -1.6339   -2.2031   -4.2295 Cl  0  0  0  0  0  0  0  0  0  0  0  0
   -3.0769    0.4683   -6.9464 C   0  0  0  0  0  0  0  0  0  0  0  0
   -3.9957    1.4494   -6.5586 C   0  0  0  0  0  0  0  0  0  0  0  0
   -5.2154    1.0888   -5.9520 C   0  0  0  0  0  0  0  0  0  0  0  0
   -6.2120    2.1020   -5.5536 C   0  0  0  0  0  0  0  0  0  0  0  0
   -6.8285    2.3047   -3.9995 S   0  0  0  0  0  0  0  0  0  0  0  0
   -7.9108    3.5291   -4.3876 C   0  0  0  0  0  0  0  0  0  0  0  0
   -8.9049    4.1094   -3.4296 C   0  0  0  0  0  0  0  0  0  0  0  0
  -10.1803    3.2740   -3.4093 C   0  0  0  0  0  0  0  0  0  0  0  0
   -7.8203    3.7860   -5.7556 C   0  0  0  0  0  0  0  0  0  0  0  0
   -6.8602    2.9953   -6.4070 C   0  0  0  0  0  0  0  0  0  0  0  0
   -6.5710    3.0687   -8.1436 Cl  0  0  0  0  0  0  0  0  0  0  0  0
   -8.8322    4.9564   -6.5926 Cl  0  0  0  0  0  0  0  0  0  0  0  0
   -5.4026   -0.2765   -5.6698 C   0  0  0  0  0  0  0  0  0  0  0  0
   -6.5748   -0.9744   -4.6876 S   0  0  0  0  0  0  0  0  0  0  0  0
   -3.4720    2.7503   -6.6251 C   0  0  0  0  0  0  0  0  0  0  0  0
   -2.1430    2.7912   -7.0466 C   0  0  0  0  0  0  0  0  0  0  0  0
   -1.6330    1.2153   -7.3744 S   0  0  0  0  0  0  0  0  0  0  0  0
   -1.2013    3.8549   -6.6837 C   0  0  0  0  0  0  0  0  0  0  0  0
   -1.2695    4.5566   -5.4781 C   0  0  0  0  0  0  0  0  0  0  0  0
   -0.0398    5.1082   -5.0873 C   0  0  0  0  0  0  0  0  0  0  0  0
    0.2414    5.7171   -3.8451 C   0  0  0  0  0  0  0  0  0  0  0  0
   -0.7792    5.8344   -2.7863 C   0  0  0  0  0  0  0  0  0  0  0  0
   -1.5570    4.5300   -2.0590 S   0  0  0  0  0  0  0  0  0  0  0  0
   -2.4902    5.4443   -1.0000 C   0  0  0  0  0  0  0  0  0  0  0  0
   -3.4202    4.8745    0.0309 C   0  0  0  0  0  0  0  0  0  0  0  0
   -2.7334    4.7868    1.3877 C   0  0  0  0  0  0  0  0  0  0  0  0
   -2.1793    6.7918   -1.1830 C   0  0  0  0  0  0  0  0  0  0  0  0
   -2.9117    8.0912   -0.2539 Cl  0  0  0  0  0  0  0  0  0  0  0  0
   -1.2202    7.0110   -2.1841 C   0  0  0  0  0  0  0  0  0  0  0  0
   -0.6647    8.6115   -2.6603 Cl  0  0  0  0  0  0  0  0  0  0  0  0
    1.5833    6.0626   -3.5961 C   0  0  0  0  0  0  0  0  0  0  0  0
    2.5994    5.8217   -4.5281 C   0  0  0  0  0  0  0  0  0  0  0  0
    2.3080    5.2619   -5.7869 C   0  0  0  0  0  0  0  0  0  0  0  0
    3.3622    5.0087   -6.7856 C   0  0  0  0  0  0  0  0  0  0  0  0
    3.7951    3.4952   -7.3822 S   0  0  0  0  0  0  0  0  0  0  0  0
    4.9989    4.0504   -8.4202 C   0  0  0  0  0  0  0  0  0  0  0  0
    5.7638    3.1840   -9.3719 C   0  0  0  0  0  0  0  0  0  0  0  0
    5.0732    3.1357  -10.7307 C   0  0  0  0  0  0  0  0  0  0  0  0
    5.0663    5.4395   -8.3243 C   0  0  0  0  0  0  0  0  0  0  0  0
    4.1547    5.9757   -7.4016 C   0  0  0  0  0  0  0  0  0  0  0  0
    3.9815    7.7013   -7.1069 Cl  0  0  0  0  0  0  0  0  0  0  0  0
    6.1626    6.4277   -9.2798 Cl  0  0  0  0  0  0  0  0  0  0  0  0
    0.9768    4.8923   -6.0219 C   0  0  0  0  0  0  0  0  0  0  0  0
    0.3668    3.9757   -7.2943 S   0  0  0  0  0  0  0  0  0  0  0  0
    3.8830    6.0349   -4.0105 C   0  0  0  0  0  0  0  0  0  0  0  0
    3.8742    6.4506   -2.6842 C   0  0  0  0  0  0  0  0  0  0  0  0
    2.2807    6.5507   -2.1398 S   0  0  0  0  0  0  0  0  0  0  0  0
    5.0541    6.4414   -1.8174 C   0  0  0  0  0  0  0  0  0  0  0  0
    6.0325    5.4533   -1.8500 C   0  0  0  0  0  0  0  0  0  0  0  0
    7.0343    5.6425   -0.8892 C   0  0  0  0  0  0  0  0  0  0  0  0
    8.1187    4.7771   -0.6385 C   0  0  0  0  0  0  0  0  0  0  0  0
    8.3060    3.5263   -1.3961 C   0  0  0  0  0  0  0  0  0  0  0  0
    8.1500    1.9828   -0.7427 S   0  0  0  0  0  0  0  0  0  0  0  0
    8.3822    1.1502   -2.1867 C   0  0  0  0  0  0  0  0  0  0  0  0
    8.2692   -0.3356   -2.3365 C   0  0  0  0  0  0  0  0  0  0  0  0
    6.8241   -0.7424   -2.6064 C   0  0  0  0  0  0  0  0  0  0  0  0
    8.5619    2.0786   -3.2123 C   0  0  0  0  0  0  0  0  0  0  0  0
    8.7787    1.6316   -4.8998 Cl  0  0  0  0  0  0  0  0  0  0  0  0
    8.5284    3.4095   -2.7686 C   0  0  0  0  0  0  0  0  0  0  0  0
    8.7618    4.7893   -3.8362 Cl  0  0  0  0  0  0  0  0  0  0  0  0
    8.9830    5.1306    0.4090 C   0  0  0  0  0  0  0  0  0  0  0  0
    8.8097    6.2912    1.1689 C   0  0  0  0  0  0  0  0  0  0  0  0
    7.7218    7.1550    0.9225 C   0  0  0  0  0  0  0  0  0  0  0  0
    7.5143    8.3818    1.7109 C   0  0  0  0  0  0  0  0  0  0  0  0
    7.1922    8.4214    3.3618 S   0  0  0  0  0  0  0  0  0  0  0  0
    7.1315   10.0985    3.4906 C   0  0  0  0  0  0  0  0  0  0  0  0
    6.7966   10.8458    4.7466 C   0  0  0  0  0  0  0  0  0  0  0  0
    5.3059   11.1569    4.8112 C   0  0  0  0  0  0  0  0  0  0  0  0
    7.3456   10.6517    2.2283 C   0  0  0  0  0  0  0  0  0  0  0  0
    7.5669    9.6885    1.2307 C   0  0  0  0  0  0  0  0  0  0  0  0
    7.9283   10.0953   -0.4429 Cl  0  0  0  0  0  0  0  0  0  0  0  0
    7.3442   12.3801    1.9127 Cl  0  0  0  0  0  0  0  0  0  0  0  0
    6.8413    6.7908   -0.1127 C   0  0  0  0  0  0  0  0  0  0  0  0
    5.4092    7.5470   -0.5922 S   0  0  0  0  0  0  0  0  0  0  0  0
    9.8220    6.4724    2.1252 C   0  0  0  0  0  0  0  0  0  0  0  0
   10.7713    5.4544    2.1207 C   0  0  0  0  0  0  0  0  0  0  0  0
   10.3717    4.3321    0.9260 S   0  0  0  0  0  0  0  0  0  0  0  0
    6.2375   -3.2512   11.2515 H   0  0  0  0  0  0  0  0  0  0  0  0
    5.5796   -2.5623    8.8334 H   0  0  0  0  0  0  0  0  0  0  0  0
    5.8811   -2.4809    2.9459 H   0  0  0  0  0  0  0  0  0  0  0  0
    6.2035   -0.7801    3.4186 H   0  0  0  0  0  0  0  0  0  0  0  0
    3.8839   -0.1360    2.6705 H   0  0  0  0  0  0  0  0  0  0  0  0
    3.5670   -1.8571    2.2090 H   0  0  0  0  0  0  0  0  0  0  0  0
    4.8311   -0.9051    1.3424 H   0  0  0  0  0  0  0  0  0  0  0  0
    0.8786  -10.3967   12.1093 H   0  0  0  0  0  0  0  0  0  0  0  0
    0.2748   -9.6946   13.6452 H   0  0  0  0  0  0  0  0  0  0  0  0
   -1.9216   -9.1725   12.5591 H   0  0  0  0  0  0  0  0  0  0  0  0
   -1.3081   -9.8184   10.9833 H   0  0  0  0  0  0  0  0  0  0  0  0
   -1.5173  -10.9216   12.3942 H   0  0  0  0  0  0  0  0  0  0  0  0
   -0.3566   -6.5020    8.7032 H   0  0  0  0  0  0  0  0  0  0  0  0
   -2.5185   -6.8530    7.6879 H   0  0  0  0  0  0  0  0  0  0  0  0
   -4.8515   -8.2108    6.5474 H   0  0  0  0  0  0  0  0  0  0  0  0
   -3.7067   -7.5219    2.4491 H   0  0  0  0  0  0  0  0  0  0  0  0
   -6.1116   -9.6905    4.7248 H   0  0  0  0  0  0  0  0  0  0  0  0
   -7.1992   -9.7215    2.6534 H   0  0  0  0  0  0  0  0  0  0  0  0
   -6.5843   -9.1231    0.0242 H   0  0  0  0  0  0  0  0  0  0  0  0
   -9.0477  -11.5727   -3.6022 H   0  0  0  0  0  0  0  0  0  0  0  0
   -7.6478  -12.1081   -4.5963 H   0  0  0  0  0  0  0  0  0  0  0  0
   -9.6770   -9.9114   -5.3943 H   0  0  0  0  0  0  0  0  0  0  0  0
   -8.3042  -10.5177   -6.4072 H   0  0  0  0  0  0  0  0  0  0  0  0
   -9.6760  -11.6144   -5.9875 H   0  0  0  0  0  0  0  0  0  0  0  0
   -7.0837    0.7675    1.6493 H   0  0  0  0  0  0  0  0  0  0  0  0
   -5.4237    0.9220    2.3157 H   0  0  0  0  0  0  0  0  0  0  0  0
   -7.8176   -0.4271    3.7322 H   0  0  0  0  0  0  0  0  0  0  0  0
   -6.1492   -0.2566    4.4138 H   0  0  0  0  0  0  0  0  0  0  0  0
   -7.1519    1.2101    4.0937 H   0  0  0  0  0  0  0  0  0  0  0  0
   -6.0240   -2.2927   -1.9217 H   0  0  0  0  0  0  0  0  0  0  0  0
   -4.1337   -3.3908   -5.6143 H   0  0  0  0  0  0  0  0  0  0  0  0
    1.0309   -4.8958   -8.2247 H   0  0  0  0  0  0  0  0  0  0  0  0
    0.1275   -4.3541   -9.6740 H   0  0  0  0  0  0  0  0  0  0  0  0
    2.4829   -3.5879   -9.7836 H   0  0  0  0  0  0  0  0  0  0  0  0
    2.3110   -2.7466   -8.1943 H   0  0  0  0  0  0  0  0  0  0  0  0
    1.3782   -2.1658   -9.6369 H   0  0  0  0  0  0  0  0  0  0  0  0
   -9.1480    5.1531   -3.7158 H   0  0  0  0  0  0  0  0  0  0  0  0
   -8.4600    4.1278   -2.4120 H   0  0  0  0  0  0  0  0  0  0  0  0
  -10.8830    3.6906   -2.6607 H   0  0  0  0  0  0  0  0  0  0  0  0
   -9.9535    2.2213   -3.1340 H   0  0  0  0  0  0  0  0  0  0  0  0
  -10.6696    3.2919   -4.4065 H   0  0  0  0  0  0  0  0  0  0  0  0
   -3.9913    3.6189   -6.2426 H   0  0  0  0  0  0  0  0  0  0  0  0
   -2.1491    4.5549   -4.8493 H   0  0  0  0  0  0  0  0  0  0  0  0
   -3.7424    3.8592   -0.2852 H   0  0  0  0  0  0  0  0  0  0  0  0
   -4.3253    5.5139    0.1113 H   0  0  0  0  0  0  0  0  0  0  0  0
   -2.4448    5.7993    1.7386 H   0  0  0  0  0  0  0  0  0  0  0  0
   -3.4268    4.3397    2.1289 H   0  0  0  0  0  0  0  0  0  0  0  0
   -1.8249    4.1512    1.3207 H   0  0  0  0  0  0  0  0  0  0  0  0
    6.7958    3.5761   -9.4925 H   0  0  0  0  0  0  0  0  0  0  0  0
    5.8355    2.1535   -8.9603 H   0  0  0  0  0  0  0  0  0  0  0  0
    5.6499    2.4871  -11.4209 H   0  0  0  0  0  0  0  0  0  0  0  0
    5.0135    4.1557  -11.1664 H   0  0  0  0  0  0  0  0  0  0  0  0
    4.0460    2.7237  -10.6226 H   0  0  0  0  0  0  0  0  0  0  0  0
    4.7952    5.8201   -4.5530 H   0  0  0  0  0  0  0  0  0  0  0  0
    5.9918    4.6084   -2.5256 H   0  0  0  0  0  0  0  0  0  0  0  0
    8.9155   -0.6845   -3.1695 H   0  0  0  0  0  0  0  0  0  0  0  0
    8.6194   -0.8300   -1.4045 H   0  0  0  0  0  0  0  0  0  0  0  0
    6.7690   -1.8394   -2.7636 H   0  0  0  0  0  0  0  0  0  0  0  0
    6.4441   -0.2355   -3.5185 H   0  0  0  0  0  0  0  0  0  0  0  0
    6.1801   -0.4733   -1.7415 H   0  0  0  0  0  0  0  0  0  0  0  0
    7.3776   11.7911    4.7887 H   0  0  0  0  0  0  0  0  0  0  0  0
    7.0778   10.2302    5.6278 H   0  0  0  0  0  0  0  0  0  0  0  0
    5.0106   11.8106    3.9627 H   0  0  0  0  0  0  0  0  0  0  0  0
    5.0770   11.6828    5.7608 H   0  0  0  0  0  0  0  0  0  0  0  0
    4.7119   10.2184    4.7744 H   0  0  0  0  0  0  0  0  0  0  0  0
    9.8815    7.3179    2.7948 H   0  0  0  0  0  0  0  0  0  0  0  0
   11.6311    5.3973    2.7740 H   0  0  0  0  0  0  0  0  0  0  0  0
  1  2  2  0
  2  3  1  0
  3  4  2  0
  4  5  1  0
  5  6  1  0
  6  7  1  0
  7  8  1  0
  8  9  1  0
  7 10  2  0
 10 11  1  0
 10 12  1  0
 12 13  1  0
  4 14  1  0
 14 15  2  0
 15 16  1  0
 16 17  1  0
 17 18  1  0
 18 19  1  0
 19 20  1  0
 20 21  1  0
 19 22  2  0
 22 23  1  0
 23 24  1  0
 22 25  1  0
 16 26  2  0
 26 27  1  0
 15 28  1  0
 28 29  2  0
 29 30  1  0
 29 31  1  0
 31 32  1  0
 32 33  1  0
 33 34  2  0
 34 35  1  0
 34 36  1  0
 36 37  1  0
 37 38  2  0
 37 39  1  0
 39 40  2  3
 40 41  1  0
 41 42  2  0
 42 43  1  0
 43 44  2  0
 44 45  1  0
 45 46  1  0
 46 47  1  0
 47 48  1  0
 48 49  1  0
 47 50  2  0
 50 51  1  0
 50 52  1  0
 52 53  1  0
 44 54  1  0
 54 55  2  0
 55 56  1  0
 56 57  1  0
 57 58  1  0
 58 59  1  0
 59 60  1  0
 60 61  1  0
 59 62  2  0
 62 63  1  0
 63 64  1  0
 62 65  1  0
 56 66  2  0
 66 67  1  0
 55 68  1  0
 68 69  2  0
 69 70  1  0
 69 71  1  0
 71 72  2  0
 72 73  1  0
 73 74  2  0
 74 75  1  0
 75 76  1  0
 76 77  1  0
 77 78  1  0
 78 79  1  0
 77 80  2  0
 80 81  1  0
 80 82  1  0
 82 83  1  0
 74 84  1  0
 84 85  2  0
 85 86  1  0
 86 87  1  0
 87 88  1  0
 88 89  1  0
 89 90  1  0
 90 91  1  0
 89 92  2  0
 92 93  1  0
 93 94  1  0
 92 95  1  0
 86 96  2  0
 96 97  1  0
 85 98  1  0
 98 99  2  0
 99100  1  0
 99101  1  0
101102  2  0
102103  1  0
103104  2  0
104105  1  0
105106  1  0
106107  1  0
107108  1  0
108109  1  0
107110  2  0
110111  1  0
110112  1  0
112113  1  0
104114  1  0
114115  2  0
115116  1  0
116117  1  0
117118  1  0
118119  1  0
119120  1  0
120121  1  0
119122  2  0
122123  1  0
123124  1  0
122125  1  0
116126  2  0
126127  1  0
115128  1  0
128129  2  0
129130  1  0
129131  1  0
131132  2  0
132133  1  0
133134  2  0
134135  1  0
135136  1  0
136137  1  0
137138  1  0
138139  1  0
137140  2  0
140141  1  0
140142  1  0
142143  1  0
134144  1  0
144145  2  0
145146  1  0
146147  1  0
147148  1  0
148149  1  0
149150  1  0
150151  1  0
149152  2  0
152153  1  0
153154  1  0
152155  1  0
146156  2  0
156157  1  0
145158  1  0
158159  2  0
159160  1  0
 27  1  1  0
 35 31  2  0
 67 41  1  0
 97 71  1  0
127101  1  0
157131  1  0
 26  3  1  0
 38 33  1  0
 66 43  1  0
 96 73  1  0
126103  1  0
156133  1  0
 12  5  2  0
 30 14  1  0
 52 45  2  0
 70 54  1  0
 82 75  2  0
100 84  1  0
112105  2  0
130114  1  0
142135  2  0
160144  1  0
 23 17  2  0
 63 57  2  0
 93 87  2  0
123117  2  0
153147  2  0
  1161  1  0
  2162  1  0
  8163  1  0
  8164  1  0
  9165  1  0
  9166  1  0
  9167  1  0
 20168  1  0
 20169  1  0
 21170  1  0
 21171  1  0
 21172  1  0
 28173  1  0
 35174  1  0
 36175  1  0
 38176  1  0
 39177  1  0
 40178  1  0
 42179  1  0
 48180  1  0
 48181  1  0
 49182  1  0
 49183  1  0
 49184  1  0
 60185  1  0
 60186  1  0
 61187  1  0
 61188  1  0
 61189  1  0
 68190  1  0
 72191  1  0
 78192  1  0
 78193  1  0
 79194  1  0
 79195  1  0
 79196  1  0
 90197  1  0
 90198  1  0
 91199  1  0
 91200  1  0
 91201  1  0
 98202  1  0
102203  1  0
108204  1  0
108205  1  0
109206  1  0
109207  1  0
109208  1  0
120209  1  0
120210  1  0
121211  1  0
121212  1  0
121213  1  0
128214  1  0
132215  1  0
138216  1  0
138217  1  0
139218  1  0
139219  1  0
139220  1  0
150221  1  0
150222  1  0
151223  1  0
151224  1  0
151225  1  0
158226  1  0
159227  1  0
M  END

