
     RDKit          3D

252277  0  0  0  0  0  0  0  0999 V2000
    1.0038    3.5654    4.7723 C   0  0  0  0  0  0  0  0  0  0  0  0
   -0.2307    4.1711    4.5418 C   0  0  0  0  0  0  0  0  0  0  0  0
   -1.2756    3.2438    4.3510 C   0  0  0  0  0  0  0  0  0  0  0  0
   -2.6144    3.5456    4.0404 C   0  0  0  0  0  0  0  0  0  0  0  0
   -3.0858    4.9404    3.9238 C   0  0  0  0  0  0  0  0  0  0  0  0
   -2.7607    5.7065    2.7930 C   0  0  0  0  0  0  0  0  0  0  0  0
   -3.1556    7.0450    2.7182 C   0  0  0  0  0  0  0  0  0  0  0  0
   -3.8613    7.6334    3.7765 C   0  0  0  0  0  0  0  0  0  0  0  0
   -4.3358    9.3625    3.6821 S   0  0  0  0  0  0  0  0  0  0  0  0
   -2.7659    9.9603    4.3984 C   0  0  0  0  0  0  0  0  0  0  0  0
   -2.8071   11.4733    4.5510 C   0  0  0  0  0  0  0  0  0  0  0  0
   -4.1870    6.8680    4.9024 C   0  0  0  0  0  0  0  0  0  0  0  0
   -4.8693    7.4264    5.9373 F   0  0  0  0  0  0  0  0  0  0  0  0
   -3.8059    5.5255    4.9736 C   0  0  0  0  0  0  0  0  0  0  0  0
   -3.4814    2.4599    3.8404 C   0  0  0  0  0  0  0  0  0  0  0  0
   -3.0652    1.1311    3.9750 C   0  0  0  0  0  0  0  0  0  0  0  0
   -1.7255    0.8240    4.2868 C   0  0  0  0  0  0  0  0  0  0  0  0
   -1.2261   -0.5740    4.3673 C   0  0  0  0  0  0  0  0  0  0  0  0
   -0.6521   -1.0572    5.5570 C   0  0  0  0  0  0  0  0  0  0  0  0
   -0.1912   -2.3738    5.6354 C   0  0  0  0  0  0  0  0  0  0  0  0
   -0.2968   -3.2269    4.5314 C   0  0  0  0  0  0  0  0  0  0  0  0
    0.3172   -4.9118    4.6439 S   0  0  0  0  0  0  0  0  0  0  0  0
   -1.2787   -5.5951    5.2002 C   0  0  0  0  0  0  0  0  0  0  0  0
   -1.1522   -7.0969    5.4203 C   0  0  0  0  0  0  0  0  0  0  0  0
   -0.8634   -2.7506    3.3363 C   0  0  0  0  0  0  0  0  0  0  0  0
   -1.3219   -1.4325    3.2578 C   0  0  0  0  0  0  0  0  0  0  0  0
   -0.9772   -3.5661    2.2613 F   0  0  0  0  0  0  0  0  0  0  0  0
   -0.8569    1.9181    4.4557 C   0  0  0  0  0  0  0  0  0  0  0  0
    0.7997    1.8941    4.7434 S   0  0  0  0  0  0  0  0  0  0  0  0
   -4.0729    0.2073    3.6712 C   0  0  0  0  0  0  0  0  0  0  0  0
   -5.2447    0.8043    3.1993 C   0  0  0  0  0  0  0  0  0  0  0  0
   -5.0590    2.4834    3.2428 S   0  0  0  0  0  0  0  0  0  0  0  0
   -6.2298    0.0837    2.3720 C   0  0  0  0  0  0  0  0  0  0  0  0
   -6.3005   -1.3076    2.3092 C   0  0  0  0  0  0  0  0  0  0  0  0
   -6.7735   -1.7858    1.0817 C   0  0  0  0  0  0  0  0  0  0  0  0
   -6.6852   -3.1234    0.6452 C   0  0  0  0  0  0  0  0  0  0  0  0
   -6.3557   -4.2113    1.5827 C   0  0  0  0  0  0  0  0  0  0  0  0
   -7.3011   -4.6015    2.5435 C   0  0  0  0  0  0  0  0  0  0  0  0
   -6.9749   -5.5575    3.5027 C   0  0  0  0  0  0  0  0  0  0  0  0
   -5.6866   -6.1029    3.5399 C   0  0  0  0  0  0  0  0  0  0  0  0
   -5.2480   -7.2386    4.8666 S   0  0  0  0  0  0  0  0  0  0  0  0
   -4.7442   -5.9291    6.0478 C   0  0  0  0  0  0  0  0  0  0  0  0
   -5.9402   -5.3761    6.8168 C   0  0  0  0  0  0  0  0  0  0  0  0
   -4.7526   -5.7538    2.5568 C   0  0  0  0  0  0  0  0  0  0  0  0
   -3.5213   -6.3258    2.5364 F   0  0  0  0  0  0  0  0  0  0  0  0
   -5.0845   -4.8056    1.5818 C   0  0  0  0  0  0  0  0  0  0  0  0
   -6.8601   -3.3541   -0.7270 C   0  0  0  0  0  0  0  0  0  0  0  0
   -7.2110   -2.3351   -1.6149 C   0  0  0  0  0  0  0  0  0  0  0  0
   -7.4213   -1.0209   -1.1511 C   0  0  0  0  0  0  0  0  0  0  0  0
   -7.8593    0.0417   -2.0717 C   0  0  0  0  0  0  0  0  0  0  0  0
   -9.2316    0.2779   -2.2407 C   0  0  0  0  0  0  0  0  0  0  0  0
   -9.6765    1.1257   -3.2568 C   0  0  0  0  0  0  0  0  0  0  0  0
   -8.7560    1.7388   -4.1178 C   0  0  0  0  0  0  0  0  0  0  0  0
   -9.3525    2.7491   -5.4804 S   0  0  0  0  0  0  0  0  0  0  0  0
   -9.2677    1.4135   -6.7341 C   0  0  0  0  0  0  0  0  0  0  0  0
  -10.4135    0.4206   -6.5847 C   0  0  0  0  0  0  0  0  0  0  0  0
   -7.3826    1.5338   -3.9245 C   0  0  0  0  0  0  0  0  0  0  0  0
   -6.9360    0.6828   -2.9066 C   0  0  0  0  0  0  0  0  0  0  0  0
   -6.4786    2.1114   -4.7542 F   0  0  0  0  0  0  0  0  0  0  0  0
   -7.1436   -0.7690    0.2009 C   0  0  0  0  0  0  0  0  0  0  0  0
   -6.8671    0.7204    0.9349 S   0  0  0  0  0  0  0  0  0  0  0  0
   -7.1639   -2.7291   -2.9583 C   0  0  0  0  0  0  0  0  0  0  0  0
   -6.7547   -4.0496   -3.1231 C   0  0  0  0  0  0  0  0  0  0  0  0
   -6.5013   -4.7449   -1.6028 S   0  0  0  0  0  0  0  0  0  0  0  0
   -6.2852   -4.6234   -4.3898 C   0  0  0  0  0  0  0  0  0  0  0  0
   -5.7514   -3.6791   -5.7089 S   0  0  0  0  0  0  0  0  0  0  0  0
   -5.0960   -4.9865   -6.5237 C   0  0  0  0  0  0  0  0  0  0  0  0
   -5.2018   -6.1277   -5.7672 C   0  0  0  0  0  0  0  0  0  0  0  0
   -5.8813   -5.9533   -4.5592 C   0  0  0  0  0  0  0  0  0  0  0  0
   -4.2167   -7.1933   -6.2019 C   0  0  0  0  0  0  0  0  0  0  0  0
   -4.9423   -8.3795   -6.8439 C   0  0  0  0  0  0  0  0  0  0  0  0
   -3.2949   -7.6384   -5.0527 C   0  0  0  0  0  0  0  0  0  0  0  0
   -3.4543   -6.4002   -7.2306 C   0  0  0  0  0  0  0  0  0  0  0  0
   -3.9638   -5.1512   -7.3975 C   0  0  0  0  0  0  0  0  0  0  0  0
   -3.1167   -4.2918   -8.5574 S   0  0  0  0  0  0  0  0  0  0  0  0
   -2.0238   -5.5780   -8.8385 C   0  0  0  0  0  0  0  0  0  0  0  0
   -2.3668   -6.6796   -8.0457 C   0  0  0  0  0  0  0  0  0  0  0  0
   -1.0763   -5.6781   -9.9571 C   0  0  0  0  0  0  0  0  0  0  0  0
   -0.3210   -4.6943  -10.4613 C   0  0  0  0  0  0  0  0  0  0  0  0
   -0.0726   -3.3568   -9.8855 C   0  0  0  0  0  0  0  0  0  0  0  0
    0.6475   -2.1193  -10.8119 S   0  0  0  0  0  0  0  0  0  0  0  0
    0.8077   -1.1002   -9.5036 C   0  0  0  0  0  0  0  0  0  0  0  0
    0.3975   -1.6916   -8.3444 C   0  0  0  0  0  0  0  0  0  0  0  0
   -0.0959   -2.9907   -8.5246 C   0  0  0  0  0  0  0  0  0  0  0  0
    0.8106   -0.8783   -7.1250 C   0  0  0  0  0  0  0  0  0  0  0  0
    1.7482   -1.6754   -6.2106 C   0  0  0  0  0  0  0  0  0  0  0  0
   -0.4058   -0.3565   -6.3590 C   0  0  0  0  0  0  0  0  0  0  0  0
    1.5555    0.2507   -7.8325 C   0  0  0  0  0  0  0  0  0  0  0  0
    1.5530    0.0761   -9.1778 C   0  0  0  0  0  0  0  0  0  0  0  0
    2.4178    1.2647   -9.9626 S   0  0  0  0  0  0  0  0  0  0  0  0
    2.8199    2.0709   -8.5149 C   0  0  0  0  0  0  0  0  0  0  0  0
    2.2399    1.3972   -7.4179 C   0  0  0  0  0  0  0  0  0  0  0  0
    3.5260    3.3721   -8.5255 C   0  0  0  0  0  0  0  0  0  0  0  0
    4.1394    3.9913   -7.5021 C   0  0  0  0  0  0  0  0  0  0  0  0
    4.4051    3.4243   -6.1726 C   0  0  0  0  0  0  0  0  0  0  0  0
    4.2669    4.1284   -4.9850 C   0  0  0  0  0  0  0  0  0  0  0  0
    4.6311    3.3794   -3.8547 C   0  0  0  0  0  0  0  0  0  0  0  0
    4.5085    3.7889   -2.5081 C   0  0  0  0  0  0  0  0  0  0  0  0
    4.0706    5.1523   -2.1319 C   0  0  0  0  0  0  0  0  0  0  0  0
    4.8348    6.2689   -2.5113 C   0  0  0  0  0  0  0  0  0  0  0  0
    4.4794    7.5469   -2.0678 C   0  0  0  0  0  0  0  0  0  0  0  0
    3.3673    7.7195   -1.2406 C   0  0  0  0  0  0  0  0  0  0  0  0
    2.9418    9.3597   -0.6418 S   0  0  0  0  0  0  0  0  0  0  0  0
    3.7398    9.1575    0.9933 C   0  0  0  0  0  0  0  0  0  0  0  0
    5.2542    9.3180    0.9012 C   0  0  0  0  0  0  0  0  0  0  0  0
    2.5752    6.6153   -0.8960 C   0  0  0  0  0  0  0  0  0  0  0  0
    1.4873    6.7691   -0.1048 F   0  0  0  0  0  0  0  0  0  0  0  0
    2.9267    5.3375   -1.3412 C   0  0  0  0  0  0  0  0  0  0  0  0
    4.8091    2.8268   -1.5286 C   0  0  0  0  0  0  0  0  0  0  0  0
    5.2512    1.5393   -1.8477 C   0  0  0  0  0  0  0  0  0  0  0  0
    5.4591    1.1558   -3.1897 C   0  0  0  0  0  0  0  0  0  0  0  0
    6.0170   -0.1763   -3.5466 C   0  0  0  0  0  0  0  0  0  0  0  0
    7.2369   -0.6028   -2.9969 C   0  0  0  0  0  0  0  0  0  0  0  0
    7.7644   -1.8517   -3.3283 C   0  0  0  0  0  0  0  0  0  0  0  0
    7.0850   -2.6854   -4.2261 C   0  0  0  0  0  0  0  0  0  0  0  0
    7.7464   -4.3103   -4.6208 S   0  0  0  0  0  0  0  0  0  0  0  0
    8.7174   -3.7676   -6.0712 C   0  0  0  0  0  0  0  0  0  0  0  0
   10.0651   -3.1987   -5.6347 C   0  0  0  0  0  0  0  0  0  0  0  0
    5.8664   -2.2686   -4.7749 C   0  0  0  0  0  0  0  0  0  0  0  0
    5.3328   -1.0232   -4.4322 C   0  0  0  0  0  0  0  0  0  0  0  0
    5.1882   -3.0713   -5.6343 F   0  0  0  0  0  0  0  0  0  0  0  0
    5.0967    2.0980   -4.1747 C   0  0  0  0  0  0  0  0  0  0  0  0
    5.0762    1.9112   -5.8495 S   0  0  0  0  0  0  0  0  0  0  0  0
    5.3756    0.7113   -0.7224 C   0  0  0  0  0  0  0  0  0  0  0  0
    5.0598    1.3597    0.4779 C   0  0  0  0  0  0  0  0  0  0  0  0
    4.6331    2.9555    0.1446 S   0  0  0  0  0  0  0  0  0  0  0  0
    4.9273    0.6995    1.7897 C   0  0  0  0  0  0  0  0  0  0  0  0
    4.8749   -0.6769    1.9627 C   0  0  0  0  0  0  0  0  0  0  0  0
    4.6196   -1.0587    3.2887 C   0  0  0  0  0  0  0  0  0  0  0  0
    4.4529   -2.3802    3.7328 C   0  0  0  0  0  0  0  0  0  0  0  0
    4.6185   -3.5274    2.8141 C   0  0  0  0  0  0  0  0  0  0  0  0
    5.8807   -3.8073    2.2649 C   0  0  0  0  0  0  0  0  0  0  0  0
    6.0264   -4.8360    1.3308 C   0  0  0  0  0  0  0  0  0  0  0  0
    4.9208   -5.6028    0.9459 C   0  0  0  0  0  0  0  0  0  0  0  0
    5.1156   -6.8773   -0.3059 S   0  0  0  0  0  0  0  0  0  0  0  0
    5.6546   -8.1797    0.8591 C   0  0  0  0  0  0  0  0  0  0  0  0
    4.4620   -8.7950    1.5742 C   0  0  0  0  0  0  0  0  0  0  0  0
    3.6582   -5.3250    1.4959 C   0  0  0  0  0  0  0  0  0  0  0  0
    2.5699   -6.0359    1.1102 F   0  0  0  0  0  0  0  0  0  0  0  0
    3.5120   -4.2962    2.4316 C   0  0  0  0  0  0  0  0  0  0  0  0
    4.1418   -2.5584    5.0881 C   0  0  0  0  0  0  0  0  0  0  0  0
    4.0256   -1.4838    5.9817 C   0  0  0  0  0  0  0  0  0  0  0  0
    4.2029   -0.1509    5.5411 C   0  0  0  0  0  0  0  0  0  0  0  0
    4.0793    1.0056    6.4638 C   0  0  0  0  0  0  0  0  0  0  0  0
    5.1197    1.9441    6.5895 C   0  0  0  0  0  0  0  0  0  0  0  0
    4.9903    3.0339    7.4619 C   0  0  0  0  0  0  0  0  0  0  0  0
    3.8271    3.1995    8.2171 C   0  0  0  0  0  0  0  0  0  0  0  0
    3.6275    4.6672    9.2428 S   0  0  0  0  0  0  0  0  0  0  0  0
    4.1558    3.8923   10.8136 C   0  0  0  0  0  0  0  0  0  0  0  0
    5.6744    3.8303   10.9207 C   0  0  0  0  0  0  0  0  0  0  0  0
    2.7844    2.2739    8.0976 C   0  0  0  0  0  0  0  0  0  0  0  0
    2.9189    1.1752    7.2401 C   0  0  0  0  0  0  0  0  0  0  0  0
    1.6352    2.4363    8.7973 F   0  0  0  0  0  0  0  0  0  0  0  0
    4.4851    0.0219    4.1661 C   0  0  0  0  0  0  0  0  0  0  0  0
    4.6519    1.4539    3.2773 S   0  0  0  0  0  0  0  0  0  0  0  0
    3.7758   -1.9072    7.2986 C   0  0  0  0  0  0  0  0  0  0  0  0
    3.6681   -3.2908    7.4217 C   0  0  0  0  0  0  0  0  0  0  0  0
    3.9122   -4.0003    5.9123 S   0  0  0  0  0  0  0  0  0  0  0  0
    1.9400    4.0869    4.9316 H   0  0  0  0  0  0  0  0  0  0  0  0
   -0.3582    5.2427    4.4905 H   0  0  0  0  0  0  0  0  0  0  0  0
   -2.1932    5.2691    1.9779 H   0  0  0  0  0  0  0  0  0  0  0  0
   -2.9033    7.6337    1.8403 H   0  0  0  0  0  0  0  0  0  0  0  0
   -2.6072    9.4963    5.3944 H   0  0  0  0  0  0  0  0  0  0  0  0
   -1.9239    9.6797    3.7303 H   0  0  0  0  0  0  0  0  0  0  0  0
   -2.9833   11.9513    3.5632 H   0  0  0  0  0  0  0  0  0  0  0  0
   -3.6229   11.7642    5.2477 H   0  0  0  0  0  0  0  0  0  0  0  0
   -1.8400   11.8353    4.9608 H   0  0  0  0  0  0  0  0  0  0  0  0
   -4.0505    4.9424    5.8529 H   0  0  0  0  0  0  0  0  0  0  0  0
   -0.5675   -0.4122    6.4211 H   0  0  0  0  0  0  0  0  0  0  0  0
    0.2454   -2.7304    6.5577 H   0  0  0  0  0  0  0  0  0  0  0  0
   -2.0485   -5.4035    4.4253 H   0  0  0  0  0  0  0  0  0  0  0  0
   -1.5804   -5.1056    6.1508 H   0  0  0  0  0  0  0  0  0  0  0  0
   -0.8572   -7.6024    4.4750 H   0  0  0  0  0  0  0  0  0  0  0  0
   -0.3966   -7.3020    6.2095 H   0  0  0  0  0  0  0  0  0  0  0  0
   -2.1285   -7.5111    5.7497 H   0  0  0  0  0  0  0  0  0  0  0  0
   -1.7549   -1.0799    2.3283 H   0  0  0  0  0  0  0  0  0  0  0  0
   -3.9137   -0.8611    3.6733 H   0  0  0  0  0  0  0  0  0  0  0  0
   -5.8652   -1.9521    3.0632 H   0  0  0  0  0  0  0  0  0  0  0  0
   -8.2877   -4.1501    2.5542 H   0  0  0  0  0  0  0  0  0  0  0  0
   -7.7118   -5.8522    4.2391 H   0  0  0  0  0  0  0  0  0  0  0  0
   -4.0450   -6.3813    6.7811 H   0  0  0  0  0  0  0  0  0  0  0  0
   -4.2175   -5.0990    5.5267 H   0  0  0  0  0  0  0  0  0  0  0  0
   -5.5811   -4.6942    7.6163 H   0  0  0  0  0  0  0  0  0  0  0  0
   -6.5131   -6.2058    7.2880 H   0  0  0  0  0  0  0  0  0  0  0  0
   -6.6062   -4.7958    6.1444 H   0  0  0  0  0  0  0  0  0  0  0  0
   -4.3472   -4.5133    0.8443 H   0  0  0  0  0  0  0  0  0  0  0  0
   -9.9554   -0.2286   -1.6179 H   0  0  0  0  0  0  0  0  0  0  0  0
  -10.7372    1.2849   -3.4020 H   0  0  0  0  0  0  0  0  0  0  0  0
   -9.3323    1.8842   -7.7369 H   0  0  0  0  0  0  0  0  0  0  0  0
   -8.2962    0.8789   -6.6644 H   0  0  0  0  0  0  0  0  0  0  0  0
  -10.2949   -0.1763   -5.6581 H   0  0  0  0  0  0  0  0  0  0  0  0
  -11.3907    0.9461   -6.5569 H   0  0  0  0  0  0  0  0  0  0  0  0
  -10.4119   -0.2789   -7.4441 H   0  0  0  0  0  0  0  0  0  0  0  0
   -5.8789    0.4845   -2.7979 H   0  0  0  0  0  0  0  0  0  0  0  0
   -7.3273   -2.0524   -3.7864 H   0  0  0  0  0  0  0  0  0  0  0  0
   -5.9589   -6.7126   -3.7885 H   0  0  0  0  0  0  0  0  0  0  0  0
   -5.5559   -8.0419   -7.7093 H   0  0  0  0  0  0  0  0  0  0  0  0
   -5.6227   -8.8599   -6.1090 H   0  0  0  0  0  0  0  0  0  0  0  0
   -4.2100   -9.1284   -7.2025 H   0  0  0  0  0  0  0  0  0  0  0  0
   -2.5303   -8.3455   -5.4371 H   0  0  0  0  0  0  0  0  0  0  0  0
   -2.7728   -6.7682   -4.5955 H   0  0  0  0  0  0  0  0  0  0  0  0
   -3.8767   -8.1583   -4.2607 H   0  0  0  0  0  0  0  0  0  0  0  0
   -1.8645   -7.6386   -8.0692 H   0  0  0  0  0  0  0  0  0  0  0  0
   -1.0098   -6.6443  -10.4464 H   0  0  0  0  0  0  0  0  0  0  0  0
    0.2176   -4.9246  -11.3726 H   0  0  0  0  0  0  0  0  0  0  0  0
   -0.3524   -3.6586   -7.7177 H   0  0  0  0  0  0  0  0  0  0  0  0
    2.0601   -1.0470   -5.3537 H   0  0  0  0  0  0  0  0  0  0  0  0
    1.2211   -2.5746   -5.8163 H   0  0  0  0  0  0  0  0  0  0  0  0
    2.6505   -2.0076   -6.7621 H   0  0  0  0  0  0  0  0  0  0  0  0
   -0.0753    0.3555   -5.5730 H   0  0  0  0  0  0  0  0  0  0  0  0
   -0.9460   -1.1975   -5.8815 H   0  0  0  0  0  0  0  0  0  0  0  0
   -1.1073    0.1775   -7.0364 H   0  0  0  0  0  0  0  0  0  0  0  0
    2.2796    1.7236   -6.3868 H   0  0  0  0  0  0  0  0  0  0  0  0
    3.5058    3.9027   -9.4735 H   0  0  0  0  0  0  0  0  0  0  0  0
    4.4909    4.9983   -7.6759 H   0  0  0  0  0  0  0  0  0  0  0  0
    3.8830    5.1394   -4.9456 H   0  0  0  0  0  0  0  0  0  0  0  0
    5.7158    6.1452   -3.1314 H   0  0  0  0  0  0  0  0  0  0  0  0
    5.0815    8.4017   -2.3590 H   0  0  0  0  0  0  0  0  0  0  0  0
    3.4885    8.1679    1.4322 H   0  0  0  0  0  0  0  0  0  0  0  0
    3.3397    9.9398    1.6720 H   0  0  0  0  0  0  0  0  0  0  0  0
    5.6957    8.4731    0.3336 H   0  0  0  0  0  0  0  0  0  0  0  0
    5.6898    9.3217    1.9257 H   0  0  0  0  0  0  0  0  0  0  0  0
    5.5133   10.2768    0.4016 H   0  0  0  0  0  0  0  0  0  0  0  0
    2.3185    4.4854   -1.0577 H   0  0  0  0  0  0  0  0  0  0  0  0
    7.7792    0.0392   -2.3100 H   0  0  0  0  0  0  0  0  0  0  0  0
    8.6986   -2.1712   -2.8924 H   0  0  0  0  0  0  0  0  0  0  0  0
    8.1546   -3.0136   -6.6668 H   0  0  0  0  0  0  0  0  0  0  0  0
    8.8963   -4.6515   -6.7215 H   0  0  0  0  0  0  0  0  0  0  0  0
   10.6887   -3.0007   -6.5304 H   0  0  0  0  0  0  0  0  0  0  0  0
    9.9268   -2.2470   -5.0852 H   0  0  0  0  0  0  0  0  0  0  0  0
   10.5949   -3.9276   -4.9825 H   0  0  0  0  0  0  0  0  0  0  0  0
    4.3820   -0.7199   -4.8517 H   0  0  0  0  0  0  0  0  0  0  0  0
    5.6337   -0.3340   -0.7766 H   0  0  0  0  0  0  0  0  0  0  0  0
    4.9670   -1.3842    1.1518 H   0  0  0  0  0  0  0  0  0  0  0  0
    6.7459   -3.2133    2.5438 H   0  0  0  0  0  0  0  0  0  0  0  0
    7.0029   -5.0375    0.9024 H   0  0  0  0  0  0  0  0  0  0  0  0
    6.3789   -7.7740    1.6009 H   0  0  0  0  0  0  0  0  0  0  0  0
    6.1720   -8.9740    0.2770 H   0  0  0  0  0  0  0  0  0  0  0  0
    4.7929   -9.6774    2.1632 H   0  0  0  0  0  0  0  0  0  0  0  0
    3.6992   -9.1260    0.8357 H   0  0  0  0  0  0  0  0  0  0  0  0
    4.0049   -8.0616    2.2713 H   0  0  0  0  0  0  0  0  0  0  0  0
    2.5328   -4.0692    2.8274 H   0  0  0  0  0  0  0  0  0  0  0  0
    6.0312    1.8251    6.0174 H   0  0  0  0  0  0  0  0  0  0  0  0
    5.7913    3.7600    7.5390 H   0  0  0  0  0  0  0  0  0  0  0  0
    3.7706    4.5231   11.6449 H   0  0  0  0  0  0  0  0  0  0  0  0
    3.7182    2.8704   10.9275 H   0  0  0  0  0  0  0  0  0  0  0  0
    5.9553    3.4471   11.9277 H   0  0  0  0  0  0  0  0  0  0  0  0
    6.1084    4.8485   10.7925 H   0  0  0  0  0  0  0  0  0  0  0  0
    6.0903    3.1464   10.1505 H   0  0  0  0  0  0  0  0  0  0  0  0
    2.1021    0.4688    7.1609 H   0  0  0  0  0  0  0  0  0  0  0  0
    3.6865   -1.2486    8.1496 H   0  0  0  0  0  0  0  0  0  0  0  0
    3.4807   -3.8275    8.3421 H   0  0  0  0  0  0  0  0  0  0  0  0
  1  2  2  0
  2  3  1  0
  3  4  2  0
  4  5  1  0
  5  6  2  0
  6  7  1  0
  7  8  2  0
  8  9  1  0
  9 10  1  0
 10 11  1  0
  8 12  1  0
 12 13  1  0
 12 14  2  0
  4 15  1  0
 15 16  2  0
 16 17  1  0
 17 18  1  0
 18 19  2  0
 19 20  1  0
 20 21  2  0
 21 22  1  0
 22 23  1  0
 23 24  1  0
 21 25  1  0
 25 26  2  0
 25 27  1  0
 17 28  2  0
 28 29  1  0
 16 30  1  0
 30 31  2  0
 31 32  1  0
 31 33  1  0
 33 34  2  0
 34 35  1  0
 35 36  2  0
 36 37  1  0
 37 38  2  0
 38 39  1  0
 39 40  2  0
 40 41  1  0
 41 42  1  0
 42 43  1  0
 40 44  1  0
 44 45  1  0
 44 46  2  0
 36 47  1  0
 47 48  2  0
 48 49  1  0
 49 50  1  0
 50 51  2  0
 51 52  1  0
 52 53  2  0
 53 54  1  0
 54 55  1  0
 55 56  1  0
 53 57  1  0
 57 58  2  0
 57 59  1  0
 49 60  2  0
 60 61  1  0
 48 62  1  0
 62 63  2  0
 63 64  1  0
 63 65  1  0
 65 66  1  0
 66 67  1  0
 67 68  2  0
 68 69  1  0
 68 70  1  0
 70 71  1  0
 70 72  1  0
 70 73  1  0
 73 74  2  0
 74 75  1  0
 75 76  1  0
 76 77  2  0
 76 78  1  0
 78 79  2  3
 79 80  1  0
 80 81  1  0
 81 82  1  0
 82 83  2  0
 83 84  1  0
 83 85  1  0
 85 86  1  0
 85 87  1  0
 85 88  1  0
 88 89  2  0
 89 90  1  0
 90 91  1  0
 91 92  2  0
 91 93  1  0
 93 94  2  3
 94 95  1  0
 95 96  2  0
 96 97  1  0
 97 98  2  0
 98 99  1  0
 99100  2  0
100101  1  0
101102  2  0
102103  1  0
103104  1  0
104105  1  0
102106  1  0
106107  1  0
106108  2  0
 98109  1  0
109110  2  0
110111  1  0
111112  1  0
112113  2  0
113114  1  0
114115  2  0
115116  1  0
116117  1  0
117118  1  0
115119  1  0
119120  2  0
119121  1  0
111122  2  0
122123  1  0
110124  1  0
124125  2  0
125126  1  0
125127  1  0
127128  2  0
128129  1  0
129130  2  0
130131  1  0
131132  2  0
132133  1  0
133134  2  0
134135  1  0
135136  1  0
136137  1  0
134138  1  0
138139  1  0
138140  2  0
130141  1  0
141142  2  0
142143  1  0
143144  1  0
144145  2  0
145146  1  0
146147  2  0
147148  1  0
148149  1  0
149150  1  0
147151  1  0
151152  2  0
151153  1  0
143154  2  0
154155  1  0
142156  1  0
156157  2  0
157158  1  0
 29  1  1  0
 61 33  1  0
 69 65  2  0
 77 73  1  0
 84 80  2  0
 92 88  1  0
123 95  1  0
155127  1  0
 28  3  1  0
 60 35  1  0
 74 67  1  0
 89 82  1  0
122 97  1  0
154129  1  0
 14  5  1  0
 32 15  1  0
 46 37  1  0
 64 47  1  0
108 99  1  0
126109  1  0
140131  1  0
158141  1  0
 26 18  1  0
 58 50  1  0
120112  1  0
152144  1  0
  1159  1  0
  2160  1  0
  6161  1  0
  7162  1  0
 10163  1  0
 10164  1  0
 11165  1  0
 11166  1  0
 11167  1  0
 14168  1  0
 19169  1  0
 20170  1  0
 23171  1  0
 23172  1  0
 24173  1  0
 24174  1  0
 24175  1  0
 26176  1  0
 30177  1  0
 34178  1  0
 38179  1  0
 39180  1  0
 42181  1  0
 42182  1  0
 43183  1  0
 43184  1  0
 43185  1  0
 46186  1  0
 51187  1  0
 52188  1  0
 55189  1  0
 55190  1  0
 56191  1  0
 56192  1  0
 56193  1  0
 58194  1  0
 62195  1  0
 69196  1  0
 71197  1  0
 71198  1  0
 71199  1  0
 72200  1  0
 72201  1  0
 72202  1  0
 77203  1  0
 78204  1  0
 79205  1  0
 84206  1  0
 86207  1  0
 86208  1  0
 86209  1  0
 87210  1  0
 87211  1  0
 87212  1  0
 92213  1  0
 93214  1  0
 94215  1  0
 96216  1  0
100217  1  0
101218  1  0
104219  1  0
104220  1  0
105221  1  0
105222  1  0
105223  1  0
108224  1  0
113225  1  0
114226  1  0
117227  1  0
117228  1  0
118229  1  0
118230  1  0
118231  1  0
120232  1  0
124233  1  0
128234  1  0
132235  1  0
133236  1  0
136237  1  0
136238  1  0
137239  1  0
137240  1  0
137241  1  0
140242  1  0
145243  1  0
146244  1  0
149245  1  0
149246  1  0
150247  1  0
150248  1  0
150249  1  0
152250  1  0
156251  1  0
157252  1  0
M  END

