
     RDKit          3D

191211  0  0  0  0  0  0  0  0999 V2000
    7.0708   -6.0844    5.5005 C   0  0  0  0  0  0  0  0  0  0  0  0
    7.2608   -4.7204    5.7090 C   0  0  0  0  0  0  0  0  0  0  0  0
    6.0655   -3.9861    5.6703 C   0  0  0  0  0  0  0  0  0  0  0  0
    5.9292   -2.5921    5.8389 C   0  0  0  0  0  0  0  0  0  0  0  0
    7.0953   -1.6867    5.9185 C   0  0  0  0  0  0  0  0  0  0  0  0
    7.9965   -1.6179    4.8453 C   0  0  0  0  0  0  0  0  0  0  0  0
    8.9736   -0.6218    4.8068 C   0  0  0  0  0  0  0  0  0  0  0  0
    9.0529    0.3262    5.8369 C   0  0  0  0  0  0  0  0  0  0  0  0
   10.2112    1.6959    5.7013 S   0  0  0  0  0  0  0  0  0  0  0  0
    8.9599    2.8996    5.1131 C   0  0  0  0  0  0  0  0  0  0  0  0
    8.6699    2.7342    3.6249 C   0  0  0  0  0  0  0  0  0  0  0  0
    8.2064    0.2187    6.9482 C   0  0  0  0  0  0  0  0  0  0  0  0
    8.2753    1.1364    7.9505 F   0  0  0  0  0  0  0  0  0  0  0  0
    7.2252   -0.7806    6.9855 C   0  0  0  0  0  0  0  0  0  0  0  0
    4.6213   -2.0721    5.7832 C   0  0  0  0  0  0  0  0  0  0  0  0
    3.4986   -2.8738    5.5556 C   0  0  0  0  0  0  0  0  0  0  0  0
    3.6357   -4.2667    5.3633 C   0  0  0  0  0  0  0  0  0  0  0  0
    2.4782   -5.1088    4.9890 C   0  0  0  0  0  0  0  0  0  0  0  0
    1.3493   -5.1925    5.8234 C   0  0  0  0  0  0  0  0  0  0  0  0
    0.1806   -5.8168    5.3681 C   0  0  0  0  0  0  0  0  0  0  0  0
    0.1398   -6.3813    4.0869 C   0  0  0  0  0  0  0  0  0  0  0  0
   -1.3983   -7.0691    3.4557 S   0  0  0  0  0  0  0  0  0  0  0  0
   -1.9205   -5.5309    2.6079 C   0  0  0  0  0  0  0  0  0  0  0  0
   -2.9806   -4.8031    3.4202 C   0  0  0  0  0  0  0  0  0  0  0  0
    1.2877   -6.3570    3.2791 C   0  0  0  0  0  0  0  0  0  0  0  0
    2.4465   -5.7141    3.7259 C   0  0  0  0  0  0  0  0  0  0  0  0
    1.2630   -6.8996    2.0352 F   0  0  0  0  0  0  0  0  0  0  0  0
    4.9410   -4.7895    5.4421 C   0  0  0  0  0  0  0  0  0  0  0  0
    5.4281   -6.3900    5.2824 S   0  0  0  0  0  0  0  0  0  0  0  0
    2.3010   -2.1369    5.4856 C   0  0  0  0  0  0  0  0  0  0  0  0
    2.4860   -0.7673    5.6633 C   0  0  0  0  0  0  0  0  0  0  0  0
    4.1296   -0.4577    5.8848 S   0  0  0  0  0  0  0  0  0  0  0  0
    1.3918    0.2071    5.7758 C   0  0  0  0  0  0  0  0  0  0  0  0
   -0.2168   -0.1924    6.1305 S   0  0  0  0  0  0  0  0  0  0  0  0
   -0.8368    1.3781    6.2144 C   0  0  0  0  0  0  0  0  0  0  0  0
    0.2288    2.2301    5.9596 C   0  0  0  0  0  0  0  0  0  0  0  0
    1.4436    1.5924    5.7132 C   0  0  0  0  0  0  0  0  0  0  0  0
    2.7116    2.6695    5.3512 S   0  0  0  0  0  0  0  0  0  0  0  0
    1.9367    4.1759    5.4416 C   0  0  0  0  0  0  0  0  0  0  0  0
    2.6478    5.6302    5.2124 S   0  0  0  0  0  0  0  0  0  0  0  0
    0.3047    3.9278    5.8427 S   0  0  0  0  0  0  0  0  0  0  0  0
   -2.2103    1.7305    6.6066 C   0  0  0  0  0  0  0  0  0  0  0  0
   -3.2881    1.1792    6.0319 C   0  0  0  0  0  0  0  0  0  0  0  0
   -3.2624    0.5225    4.7108 C   0  0  0  0  0  0  0  0  0  0  0  0
   -2.3290    1.0165    3.3922 S   0  0  0  0  0  0  0  0  0  0  0  0
   -3.0593    0.0711    2.1912 C   0  0  0  0  0  0  0  0  0  0  0  0
   -4.0424   -0.6594    2.8535 C   0  0  0  0  0  0  0  0  0  0  0  0
   -4.1587   -0.4055    4.2155 C   0  0  0  0  0  0  0  0  0  0  0  0
   -5.3734   -1.3098    4.9858 S   0  0  0  0  0  0  0  0  0  0  0  0
   -6.0013   -2.2181    3.6954 C   0  0  0  0  0  0  0  0  0  0  0  0
   -7.1824   -3.3366    3.8041 S   0  0  0  0  0  0  0  0  0  0  0  0
   -5.1632   -1.8146    2.2814 S   0  0  0  0  0  0  0  0  0  0  0  0
   -2.7911    0.0507    0.7364 C   0  0  0  0  0  0  0  0  0  0  0  0
   -1.8728    0.7853    0.0869 C   0  0  0  0  0  0  0  0  0  0  0  0
   -0.9751    1.7676    0.7092 C   0  0  0  0  0  0  0  0  0  0  0  0
    0.7060    1.6464    0.7703 S   0  0  0  0  0  0  0  0  0  0  0  0
    1.0330    3.1875    1.4086 C   0  0  0  0  0  0  0  0  0  0  0  0
   -0.1990    3.8051    1.5652 C   0  0  0  0  0  0  0  0  0  0  0  0
   -1.2891    3.0416    1.1611 C   0  0  0  0  0  0  0  0  0  0  0  0
   -2.7771    3.8654    1.2694 S   0  0  0  0  0  0  0  0  0  0  0  0
   -2.2997    5.3708    1.8808 C   0  0  0  0  0  0  0  0  0  0  0  0
   -3.3111    6.5935    2.2715 S   0  0  0  0  0  0  0  0  0  0  0  0
   -0.6130    5.3791    2.0750 S   0  0  0  0  0  0  0  0  0  0  0  0
    2.3593    3.8366    1.4679 C   0  0  0  0  0  0  0  0  0  0  0  0
    3.1317    4.0096    0.3855 C   0  0  0  0  0  0  0  0  0  0  0  0
    2.6629    3.6625   -0.9627 C   0  0  0  0  0  0  0  0  0  0  0  0
    2.9242    2.4377   -1.5770 C   0  0  0  0  0  0  0  0  0  0  0  0
    1.9638    2.1007   -2.5484 C   0  0  0  0  0  0  0  0  0  0  0  0
    1.8397    0.8603   -3.2130 C   0  0  0  0  0  0  0  0  0  0  0  0
    2.9044   -0.1563   -3.1721 C   0  0  0  0  0  0  0  0  0  0  0  0
    3.2254   -0.8228   -1.9781 C   0  0  0  0  0  0  0  0  0  0  0  0
    4.3282   -1.6815   -1.9333 C   0  0  0  0  0  0  0  0  0  0  0  0
    5.1114   -1.8833   -3.0796 C   0  0  0  0  0  0  0  0  0  0  0  0
    6.5790   -2.9237   -2.9865 S   0  0  0  0  0  0  0  0  0  0  0  0
    7.6880   -1.5988   -2.3778 C   0  0  0  0  0  0  0  0  0  0  0  0
    8.3027   -0.8204   -3.5353 C   0  0  0  0  0  0  0  0  0  0  0  0
    4.7597   -1.2612   -4.2836 C   0  0  0  0  0  0  0  0  0  0  0  0
    5.4948   -1.4673   -5.4080 F   0  0  0  0  0  0  0  0  0  0  0  0
    3.6575   -0.4032   -4.3284 C   0  0  0  0  0  0  0  0  0  0  0  0
    0.6548    0.6487   -3.9464 C   0  0  0  0  0  0  0  0  0  0  0  0
   -0.3292    1.6341   -4.0828 C   0  0  0  0  0  0  0  0  0  0  0  0
   -0.1432    2.9105   -3.5266 C   0  0  0  0  0  0  0  0  0  0  0  0
   -1.1114    3.9953   -3.7530 C   0  0  0  0  0  0  0  0  0  0  0  0
   -1.0811    4.6976   -4.9644 C   0  0  0  0  0  0  0  0  0  0  0  0
   -2.0396    5.6777   -5.2293 C   0  0  0  0  0  0  0  0  0  0  0  0
   -3.0354    5.9589   -4.2882 C   0  0  0  0  0  0  0  0  0  0  0  0
   -4.2989    7.1750   -4.6745 S   0  0  0  0  0  0  0  0  0  0  0  0
   -3.3614    8.6009   -4.0267 C   0  0  0  0  0  0  0  0  0  0  0  0
   -3.6621    8.8198   -2.5503 C   0  0  0  0  0  0  0  0  0  0  0  0
   -3.0725    5.2541   -3.0760 C   0  0  0  0  0  0  0  0  0  0  0  0
   -2.1068    4.2765   -2.8064 C   0  0  0  0  0  0  0  0  0  0  0  0
   -4.0522    5.4979   -2.1689 F   0  0  0  0  0  0  0  0  0  0  0  0
    0.9923    3.0937   -2.7250 C   0  0  0  0  0  0  0  0  0  0  0  0
    1.2972    4.3613   -1.6680 S   0  0  0  0  0  0  0  0  0  0  0  0
   -1.5199    1.1655   -4.6567 C   0  0  0  0  0  0  0  0  0  0  0  0
   -1.4859   -0.1948   -4.9418 C   0  0  0  0  0  0  0  0  0  0  0  0
    0.0429   -0.8041   -4.5345 S   0  0  0  0  0  0  0  0  0  0  0  0
   -2.6858   -1.0309   -5.0727 C   0  0  0  0  0  0  0  0  0  0  0  0
   -3.8818   -0.7747   -4.4043 C   0  0  0  0  0  0  0  0  0  0  0  0
   -4.7534   -1.8735   -4.3886 C   0  0  0  0  0  0  0  0  0  0  0  0
   -5.9643   -1.9540   -3.6741 C   0  0  0  0  0  0  0  0  0  0  0  0
   -6.4816   -0.8129   -2.8929 C   0  0  0  0  0  0  0  0  0  0  0  0
   -7.0737    0.2828   -3.5401 C   0  0  0  0  0  0  0  0  0  0  0  0
   -7.5298    1.3753   -2.7970 C   0  0  0  0  0  0  0  0  0  0  0  0
   -7.3896    1.3826   -1.4064 C   0  0  0  0  0  0  0  0  0  0  0  0
   -7.9436    2.8015   -0.4590 S   0  0  0  0  0  0  0  0  0  0  0  0
   -6.3318    3.6506   -0.5644 C   0  0  0  0  0  0  0  0  0  0  0  0
   -6.3450    4.9149    0.2771 C   0  0  0  0  0  0  0  0  0  0  0  0
   -6.8033    0.2886   -0.7551 C   0  0  0  0  0  0  0  0  0  0  0  0
   -6.6687    0.2919    0.5944 F   0  0  0  0  0  0  0  0  0  0  0  0
   -6.3522   -0.8087   -1.4949 C   0  0  0  0  0  0  0  0  0  0  0  0
   -6.6234   -3.1923   -3.6782 C   0  0  0  0  0  0  0  0  0  0  0  0
   -6.1471   -4.3005   -4.3801 C   0  0  0  0  0  0  0  0  0  0  0  0
   -4.9492   -4.2167   -5.1275 C   0  0  0  0  0  0  0  0  0  0  0  0
   -4.4638   -5.3477   -5.9553 C   0  0  0  0  0  0  0  0  0  0  0  0
   -3.1607   -5.8484   -5.8003 C   0  0  0  0  0  0  0  0  0  0  0  0
   -2.6970   -6.8740   -6.6294 C   0  0  0  0  0  0  0  0  0  0  0  0
   -3.5325   -7.4233   -7.6094 C   0  0  0  0  0  0  0  0  0  0  0  0
   -2.8958   -8.6869   -8.7117 S   0  0  0  0  0  0  0  0  0  0  0  0
   -2.1722   -7.5039   -9.9086 C   0  0  0  0  0  0  0  0  0  0  0  0
   -3.2182   -7.0200  -10.9061 C   0  0  0  0  0  0  0  0  0  0  0  0
   -4.8511   -6.9607   -7.7370 C   0  0  0  0  0  0  0  0  0  0  0  0
   -5.3064   -5.9161   -6.9270 C   0  0  0  0  0  0  0  0  0  0  0  0
   -5.6816   -7.5020   -8.6607 F   0  0  0  0  0  0  0  0  0  0  0  0
   -4.2578   -2.9837   -5.0840 C   0  0  0  0  0  0  0  0  0  0  0  0
   -2.7244   -2.6069   -5.6806 S   0  0  0  0  0  0  0  0  0  0  0  0
   -6.9388   -5.4485   -4.1908 C   0  0  0  0  0  0  0  0  0  0  0  0
   -8.0405   -5.2259   -3.3712 C   0  0  0  0  0  0  0  0  0  0  0  0
   -8.0273   -3.6217   -2.8540 S   0  0  0  0  0  0  0  0  0  0  0  0
    7.8554   -6.8351    5.4850 H   0  0  0  0  0  0  0  0  0  0  0  0
    8.2371   -4.2856    5.8814 H   0  0  0  0  0  0  0  0  0  0  0  0
    7.9086   -2.3032    4.0115 H   0  0  0  0  0  0  0  0  0  0  0  0
    9.6356   -0.5546    3.9519 H   0  0  0  0  0  0  0  0  0  0  0  0
    8.0206    2.8085    5.6974 H   0  0  0  0  0  0  0  0  0  0  0  0
    9.3641    3.9219    5.2827 H   0  0  0  0  0  0  0  0  0  0  0  0
    9.5733    2.9734    3.0296 H   0  0  0  0  0  0  0  0  0  0  0  0
    7.8585    3.4368    3.3334 H   0  0  0  0  0  0  0  0  0  0  0  0
    8.3415    1.7033    3.3908 H   0  0  0  0  0  0  0  0  0  0  0  0
    6.5331   -0.8165    7.8188 H   0  0  0  0  0  0  0  0  0  0  0  0
    1.3559   -4.7264    6.8006 H   0  0  0  0  0  0  0  0  0  0  0  0
   -0.6994   -5.8329    5.9981 H   0  0  0  0  0  0  0  0  0  0  0  0
   -2.3579   -5.8096    1.6271 H   0  0  0  0  0  0  0  0  0  0  0  0
   -1.0623   -4.8507    2.4201 H   0  0  0  0  0  0  0  0  0  0  0  0
   -3.9005   -5.4167    3.4735 H   0  0  0  0  0  0  0  0  0  0  0  0
   -2.6127   -4.6034    4.4498 H   0  0  0  0  0  0  0  0  0  0  0  0
   -3.2161   -3.8341    2.9280 H   0  0  0  0  0  0  0  0  0  0  0  0
    3.3028   -5.6465    3.0648 H   0  0  0  0  0  0  0  0  0  0  0  0
    1.3300   -2.5749    5.3037 H   0  0  0  0  0  0  0  0  0  0  0  0
   -2.3455    2.3623    7.4764 H   0  0  0  0  0  0  0  0  0  0  0  0
   -4.2543    1.3231    6.5026 H   0  0  0  0  0  0  0  0  0  0  0  0
   -3.3870   -0.6319    0.1458 H   0  0  0  0  0  0  0  0  0  0  0  0
   -1.7477    0.6216   -0.9753 H   0  0  0  0  0  0  0  0  0  0  0  0
    2.7147    4.1834    2.4315 H   0  0  0  0  0  0  0  0  0  0  0  0
    4.1233    4.4168    0.5057 H   0  0  0  0  0  0  0  0  0  0  0  0
    3.6919    1.7613   -1.2278 H   0  0  0  0  0  0  0  0  0  0  0  0
    2.6446   -0.6547   -1.0792 H   0  0  0  0  0  0  0  0  0  0  0  0
    4.5908   -2.1737   -1.0033 H   0  0  0  0  0  0  0  0  0  0  0  0
    8.5113   -2.0759   -1.8001 H   0  0  0  0  0  0  0  0  0  0  0  0
    7.1557   -0.9075   -1.6919 H   0  0  0  0  0  0  0  0  0  0  0  0
    8.9833   -0.0404   -3.1386 H   0  0  0  0  0  0  0  0  0  0  0  0
    7.5135   -0.3284   -4.1407 H   0  0  0  0  0  0  0  0  0  0  0  0
    8.8858   -1.5083   -4.1888 H   0  0  0  0  0  0  0  0  0  0  0  0
    3.4112    0.1041   -5.2548 H   0  0  0  0  0  0  0  0  0  0  0  0
   -0.3252    4.4740   -5.7076 H   0  0  0  0  0  0  0  0  0  0  0  0
   -2.0117    6.2095   -6.1697 H   0  0  0  0  0  0  0  0  0  0  0  0
   -2.2668    8.4754   -4.1812 H   0  0  0  0  0  0  0  0  0  0  0  0
   -3.6722    9.5048   -4.5926 H   0  0  0  0  0  0  0  0  0  0  0  0
   -3.2266    9.7820   -2.2241 H   0  0  0  0  0  0  0  0  0  0  0  0
   -4.7606    8.8491   -2.3793 H   0  0  0  0  0  0  0  0  0  0  0  0
   -3.2212    8.0058   -1.9415 H   0  0  0  0  0  0  0  0  0  0  0  0
   -2.1546    3.7150   -1.8773 H   0  0  0  0  0  0  0  0  0  0  0  0
   -2.4214    1.7624   -4.7405 H   0  0  0  0  0  0  0  0  0  0  0  0
   -4.0686    0.1410   -3.8620 H   0  0  0  0  0  0  0  0  0  0  0  0
   -7.1766    0.2847   -4.6194 H   0  0  0  0  0  0  0  0  0  0  0  0
   -7.9824    2.2158   -3.3085 H   0  0  0  0  0  0  0  0  0  0  0  0
   -5.5273    2.9735   -0.1992 H   0  0  0  0  0  0  0  0  0  0  0  0
   -6.1298    3.9094   -1.6250 H   0  0  0  0  0  0  0  0  0  0  0  0
   -7.2522    5.5178    0.0581 H   0  0  0  0  0  0  0  0  0  0  0  0
   -5.4455    5.5245    0.0469 H   0  0  0  0  0  0  0  0  0  0  0  0
   -6.3304    4.6482    1.3564 H   0  0  0  0  0  0  0  0  0  0  0  0
   -5.8914   -1.6458   -0.9809 H   0  0  0  0  0  0  0  0  0  0  0  0
   -2.4924   -5.4323   -5.0522 H   0  0  0  0  0  0  0  0  0  0  0  0
   -1.6736   -7.2260   -6.5252 H   0  0  0  0  0  0  0  0  0  0  0  0
   -1.3619   -8.0230  -10.4631 H   0  0  0  0  0  0  0  0  0  0  0  0
   -1.7181   -6.6364   -9.3847 H   0  0  0  0  0  0  0  0  0  0  0  0
   -4.0345   -6.4738  -10.3901 H   0  0  0  0  0  0  0  0  0  0  0  0
   -3.6448   -7.8823  -11.4623 H   0  0  0  0  0  0  0  0  0  0  0  0
   -2.7386   -6.3291  -11.6324 H   0  0  0  0  0  0  0  0  0  0  0  0
   -6.3095   -5.5379   -7.0729 H   0  0  0  0  0  0  0  0  0  0  0  0
   -6.7236   -6.4179   -4.6212 H   0  0  0  0  0  0  0  0  0  0  0  0
   -8.7728   -5.9756   -3.0932 H   0  0  0  0  0  0  0  0  0  0  0  0
  1  2  2  0
  2  3  1  0
  3  4  2  0
  4  5  1  0
  5  6  2  0
  6  7  1  0
  7  8  2  0
  8  9  1  0
  9 10  1  0
 10 11  1  0
  8 12  1  0
 12 13  1  0
 12 14  2  0
  4 15  1  0
 15 16  2  0
 16 17  1  0
 17 18  1  0
 18 19  2  0
 19 20  1  0
 20 21  2  0
 21 22  1  0
 22 23  1  0
 23 24  1  0
 21 25  1  0
 25 26  2  0
 25 27  1  0
 17 28  2  0
 28 29  1  0
 16 30  1  0
 30 31  2  0
 31 32  1  0
 31 33  1  0
 33 34  1  0
 34 35  1  0
 35 36  2  0
 36 37  1  0
 37 38  1  0
 38 39  1  0
 39 40  2  0
 39 41  1  0
 35 42  1  0
 42 43  2  3
 43 44  1  0
 44 45  1  0
 45 46  1  0
 46 47  2  0
 47 48  1  0
 48 49  1  0
 49 50  1  0
 50 51  2  0
 50 52  1  0
 46 53  1  0
 53 54  2  3
 54 55  1  0
 55 56  1  0
 56 57  1  0
 57 58  2  0
 58 59  1  0
 59 60  1  0
 60 61  1  0
 61 62  2  0
 61 63  1  0
 57 64  1  0
 64 65  2  3
 65 66  1  0
 66 67  2  0
 67 68  1  0
 68 69  2  0
 69 70  1  0
 70 71  2  0
 71 72  1  0
 72 73  2  0
 73 74  1  0
 74 75  1  0
 75 76  1  0
 73 77  1  0
 77 78  1  0
 77 79  2  0
 69 80  1  0
 80 81  2  0
 81 82  1  0
 82 83  1  0
 83 84  2  0
 84 85  1  0
 85 86  2  0
 86 87  1  0
 87 88  1  0
 88 89  1  0
 86 90  1  0
 90 91  2  0
 90 92  1  0
 82 93  2  0
 93 94  1  0
 81 95  1  0
 95 96  2  0
 96 97  1  0
 96 98  1  0
 98 99  2  0
 99100  1  0
100101  2  0
101102  1  0
102103  2  0
103104  1  0
104105  2  0
105106  1  0
106107  1  0
107108  1  0
105109  1  0
109110  1  0
109111  2  0
101112  1  0
112113  2  0
113114  1  0
114115  1  0
115116  2  0
116117  1  0
117118  2  0
118119  1  0
119120  1  0
120121  1  0
118122  1  0
122123  2  0
122124  1  0
114125  2  0
125126  1  0
113127  1  0
127128  2  0
128129  1  0
 29  1  1  0
 37 33  2  0
 48 44  2  0
 59 55  2  0
 94 66  1  0
126 98  1  0
 28  3  1  0
 41 36  1  0
 52 47  1  0
 63 58  1  0
 93 68  1  0
125100  1  0
 14  5  1  0
 32 15  1  0
 79 70  1  0
 97 80  1  0
111102  1  0
129112  1  0
 26 18  1  0
 91 83  1  0
123115  1  0
  1130  1  0
  2131  1  0
  6132  1  0
  7133  1  0
 10134  1  0
 10135  1  0
 11136  1  0
 11137  1  0
 11138  1  0
 14139  1  0
 19140  1  0
 20141  1  0
 23142  1  0
 23143  1  0
 24144  1  0
 24145  1  0
 24146  1  0
 26147  1  0
 30148  1  0
 42149  1  0
 43150  1  0
 53151  1  0
 54152  1  0
 64153  1  0
 65154  1  0
 67155  1  0
 71156  1  0
 72157  1  0
 75158  1  0
 75159  1  0
 76160  1  0
 76161  1  0
 76162  1  0
 79163  1  0
 84164  1  0
 85165  1  0
 88166  1  0
 88167  1  0
 89168  1  0
 89169  1  0
 89170  1  0
 91171  1  0
 95172  1  0
 99173  1  0
103174  1  0
104175  1  0
107176  1  0
107177  1  0
108178  1  0
108179  1  0
108180  1  0
111181  1  0
116182  1  0
117183  1  0
120184  1  0
120185  1  0
121186  1  0
121187  1  0
121188  1  0
123189  1  0
127190  1  0
128191  1  0
M  END

