
     RDKit          3D

238263  0  0  0  0  0  0  0  0999 V2000
    2.3645   -4.6286    8.7469 C   0  0  0  0  0  0  0  0  0  0  0  0
    2.4592   -4.9852    7.4073 C   0  0  0  0  0  0  0  0  0  0  0  0
    1.2231   -4.9733    6.7415 C   0  0  0  0  0  0  0  0  0  0  0  0
    0.9971   -5.2895    5.3856 C   0  0  0  0  0  0  0  0  0  0  0  0
    2.0950   -5.7086    4.4846 C   0  0  0  0  0  0  0  0  0  0  0  0
    2.8642   -6.8385    4.7909 C   0  0  0  0  0  0  0  0  0  0  0  0
    3.9167   -7.2204    3.9545 C   0  0  0  0  0  0  0  0  0  0  0  0
    4.2057   -6.4798    2.8008 C   0  0  0  0  0  0  0  0  0  0  0  0
    5.5521   -6.9881    1.7308 S   0  0  0  0  0  0  0  0  0  0  0  0
    6.7612   -5.7770    2.3813 C   0  0  0  0  0  0  0  0  0  0  0  0
    7.1835   -6.1052    3.8090 C   0  0  0  0  0  0  0  0  0  0  0  0
    3.4172   -5.3689    2.4741 C   0  0  0  0  0  0  0  0  0  0  0  0
    3.6644   -4.6562    1.3466 F   0  0  0  0  0  0  0  0  0  0  0  0
    2.3818   -4.9734    3.3208 C   0  0  0  0  0  0  0  0  0  0  0  0
   -0.3176   -5.1301    4.9139 C   0  0  0  0  0  0  0  0  0  0  0  0
   -1.3648   -4.6780    5.7218 C   0  0  0  0  0  0  0  0  0  0  0  0
   -1.1498   -4.4060    7.0881 C   0  0  0  0  0  0  0  0  0  0  0  0
   -2.2601   -4.0531    8.0006 C   0  0  0  0  0  0  0  0  0  0  0  0
   -3.3282   -4.9480    8.1767 C   0  0  0  0  0  0  0  0  0  0  0  0
   -4.3604   -4.6446    9.0689 C   0  0  0  0  0  0  0  0  0  0  0  0
   -4.3385   -3.4461    9.7839 C   0  0  0  0  0  0  0  0  0  0  0  0
   -5.6595   -3.0672   10.9368 S   0  0  0  0  0  0  0  0  0  0  0  0
   -6.7651   -2.4118    9.6432 C   0  0  0  0  0  0  0  0  0  0  0  0
   -8.0210   -1.8389   10.2717 C   0  0  0  0  0  0  0  0  0  0  0  0
   -3.2745   -2.5472    9.6106 C   0  0  0  0  0  0  0  0  0  0  0  0
   -2.2411   -2.8515    8.7229 C   0  0  0  0  0  0  0  0  0  0  0  0
   -3.2358   -1.3856   10.3091 F   0  0  0  0  0  0  0  0  0  0  0  0
    0.1680   -4.5529    7.5608 C   0  0  0  0  0  0  0  0  0  0  0  0
    0.7609   -4.2589    9.1060 S   0  0  0  0  0  0  0  0  0  0  0  0
   -2.5629   -4.4752    5.0129 C   0  0  0  0  0  0  0  0  0  0  0  0
   -2.4565   -4.7980    3.6609 C   0  0  0  0  0  0  0  0  0  0  0  0
   -0.8855   -5.3265    3.3471 S   0  0  0  0  0  0  0  0  0  0  0  0
   -3.3962   -4.4120    2.6048 C   0  0  0  0  0  0  0  0  0  0  0  0
   -4.1332   -3.2278    2.6050 C   0  0  0  0  0  0  0  0  0  0  0  0
   -4.5564   -2.8450    1.3194 C   0  0  0  0  0  0  0  0  0  0  0  0
   -5.1376   -1.6106    0.9782 C   0  0  0  0  0  0  0  0  0  0  0  0
   -5.4606   -0.5997    2.0073 C   0  0  0  0  0  0  0  0  0  0  0  0
   -6.5166   -0.8169    2.9017 C   0  0  0  0  0  0  0  0  0  0  0  0
   -6.7989    0.1255    3.8953 C   0  0  0  0  0  0  0  0  0  0  0  0
   -6.0139    1.2775    4.0183 C   0  0  0  0  0  0  0  0  0  0  0  0
   -6.3807    2.4782    5.3065 S   0  0  0  0  0  0  0  0  0  0  0  0
   -5.5070    1.5791    6.6388 C   0  0  0  0  0  0  0  0  0  0  0  0
   -3.9968    1.7547    6.5330 C   0  0  0  0  0  0  0  0  0  0  0  0
   -4.9614    1.5000    3.1204 C   0  0  0  0  0  0  0  0  0  0  0  0
   -4.1951    2.6153    3.2206 F   0  0  0  0  0  0  0  0  0  0  0  0
   -4.6847    0.5642    2.1204 C   0  0  0  0  0  0  0  0  0  0  0  0
   -5.2678   -1.3266   -0.3926 C   0  0  0  0  0  0  0  0  0  0  0  0
   -4.8670   -2.2170   -1.3970 C   0  0  0  0  0  0  0  0  0  0  0  0
   -4.3158   -3.4731   -1.0539 C   0  0  0  0  0  0  0  0  0  0  0  0
   -3.7885   -4.4153   -2.0704 C   0  0  0  0  0  0  0  0  0  0  0  0
   -4.6523   -5.0062   -3.0041 C   0  0  0  0  0  0  0  0  0  0  0  0
   -4.1651   -5.9517   -3.9152 C   0  0  0  0  0  0  0  0  0  0  0  0
   -2.8107   -6.3114   -3.9001 C   0  0  0  0  0  0  0  0  0  0  0  0
   -2.1785   -7.4740   -5.1166 S   0  0  0  0  0  0  0  0  0  0  0  0
   -2.2682   -8.9372   -4.0243 C   0  0  0  0  0  0  0  0  0  0  0  0
   -3.6975   -9.4543   -3.9142 C   0  0  0  0  0  0  0  0  0  0  0  0
   -1.9429   -5.7112   -2.9791 C   0  0  0  0  0  0  0  0  0  0  0  0
   -2.4283   -4.7671   -2.0718 C   0  0  0  0  0  0  0  0  0  0  0  0
   -0.6270   -6.0348   -2.9634 F   0  0  0  0  0  0  0  0  0  0  0  0
   -4.1699   -3.7443    0.3208 C   0  0  0  0  0  0  0  0  0  0  0  0
   -3.3117   -5.0023    1.0301 S   0  0  0  0  0  0  0  0  0  0  0  0
   -4.9223   -1.6498   -2.6880 C   0  0  0  0  0  0  0  0  0  0  0  0
   -5.3281   -0.3098   -2.6886 C   0  0  0  0  0  0  0  0  0  0  0  0
   -5.6681    0.1462   -1.0975 S   0  0  0  0  0  0  0  0  0  0  0  0
   -5.1211    0.6606   -3.7842 C   0  0  0  0  0  0  0  0  0  0  0  0
   -4.6304    0.3762   -5.0649 C   0  0  0  0  0  0  0  0  0  0  0  0
   -4.1587    1.5145   -5.7486 C   0  0  0  0  0  0  0  0  0  0  0  0
   -3.4397    1.5246   -6.9644 C   0  0  0  0  0  0  0  0  0  0  0  0
   -3.1294    0.2793   -7.6902 C   0  0  0  0  0  0  0  0  0  0  0  0
   -1.8371   -0.2492   -7.6334 C   0  0  0  0  0  0  0  0  0  0  0  0
   -1.5571   -1.4918   -8.2009 C   0  0  0  0  0  0  0  0  0  0  0  0
   -2.5632   -2.2083   -8.8619 C   0  0  0  0  0  0  0  0  0  0  0  0
   -2.2764   -3.9105   -9.3695 S   0  0  0  0  0  0  0  0  0  0  0  0
   -0.9528   -3.5692  -10.5796 C   0  0  0  0  0  0  0  0  0  0  0  0
    0.3512   -4.1937  -10.0952 C   0  0  0  0  0  0  0  0  0  0  0  0
   -3.8435   -1.6484   -8.9857 C   0  0  0  0  0  0  0  0  0  0  0  0
   -4.8360   -2.3249   -9.6149 F   0  0  0  0  0  0  0  0  0  0  0  0
   -4.1282   -0.4114   -8.3938 C   0  0  0  0  0  0  0  0  0  0  0  0
   -2.8136    2.7359   -7.3205 C   0  0  0  0  0  0  0  0  0  0  0  0
   -2.8790    3.8806   -6.5302 C   0  0  0  0  0  0  0  0  0  0  0  0
   -3.6885    3.9034   -5.3770 C   0  0  0  0  0  0  0  0  0  0  0  0
   -3.7723    5.0918   -4.5078 C   0  0  0  0  0  0  0  0  0  0  0  0
   -4.9190    5.8968   -4.5464 C   0  0  0  0  0  0  0  0  0  0  0  0
   -5.0028    7.0405   -3.7483 C   0  0  0  0  0  0  0  0  0  0  0  0
   -3.9534    7.3763   -2.8854 C   0  0  0  0  0  0  0  0  0  0  0  0
   -4.0629    8.8602   -1.8777 S   0  0  0  0  0  0  0  0  0  0  0  0
   -4.7884    8.0273   -0.4185 C   0  0  0  0  0  0  0  0  0  0  0  0
   -6.2950    7.8672   -0.5714 C   0  0  0  0  0  0  0  0  0  0  0  0
   -2.8079    6.5698   -2.8405 C   0  0  0  0  0  0  0  0  0  0  0  0
   -2.7184    5.4323   -3.6467 C   0  0  0  0  0  0  0  0  0  0  0  0
   -1.7802    6.8832   -2.0140 F   0  0  0  0  0  0  0  0  0  0  0  0
   -4.3061    2.6946   -5.0115 C   0  0  0  0  0  0  0  0  0  0  0  0
   -5.0059    2.3246   -3.5270 S   0  0  0  0  0  0  0  0  0  0  0  0
   -1.9305    4.8570   -6.8893 C   0  0  0  0  0  0  0  0  0  0  0  0
   -1.0773    4.4769   -7.9379 C   0  0  0  0  0  0  0  0  0  0  0  0
   -1.6167    2.9642   -8.4718 S   0  0  0  0  0  0  0  0  0  0  0  0
    0.3333    4.9724   -8.0538 C   0  0  0  0  0  0  0  0  0  0  0  0
    1.4206    4.0953   -8.3008 C   0  0  0  0  0  0  0  0  0  0  0  0
    2.7077    4.3322   -7.7935 C   0  0  0  0  0  0  0  0  0  0  0  0
    3.6028    3.3198   -7.9695 N   0  0  0  0  0  0  0  0  0  0  0  0
    3.0669    2.2827   -8.6493 C   0  0  0  0  0  0  0  0  0  0  0  0
    1.4507    2.5702   -9.0210 S   0  0  0  0  0  0  0  0  0  0  0  0
    2.9798    5.4847   -7.0380 C   0  0  0  0  0  0  0  0  0  0  0  0
    1.9765    6.4711   -7.0284 C   0  0  0  0  0  0  0  0  0  0  0  0
    0.6917    6.2372   -7.5341 C   0  0  0  0  0  0  0  0  0  0  0  0
   -0.1726    7.2773   -7.3802 N   0  0  0  0  0  0  0  0  0  0  0  0
    0.4035    8.3344   -6.7612 C   0  0  0  0  0  0  0  0  0  0  0  0
    2.0129    8.0123   -6.3542 S   0  0  0  0  0  0  0  0  0  0  0  0
    4.0723    5.4297   -6.0345 C   0  0  0  0  0  0  0  0  0  0  0  0
    3.7571    5.5467   -4.7416 C   0  0  0  0  0  0  0  0  0  0  0  0
    4.2422    4.5586   -3.7750 C   0  0  0  0  0  0  0  0  0  0  0  0
    3.4769    3.4586   -3.4108 C   0  0  0  0  0  0  0  0  0  0  0  0
    3.9239    2.8425   -2.2314 C   0  0  0  0  0  0  0  0  0  0  0  0
    3.3254    1.7289   -1.5973 C   0  0  0  0  0  0  0  0  0  0  0  0
    2.1722    0.9847   -2.1703 C   0  0  0  0  0  0  0  0  0  0  0  0
    0.9636    1.6311   -2.4757 C   0  0  0  0  0  0  0  0  0  0  0  0
   -0.1592    0.8838   -2.8493 C   0  0  0  0  0  0  0  0  0  0  0  0
   -0.1005   -0.5166   -2.8680 C   0  0  0  0  0  0  0  0  0  0  0  0
   -1.5949   -1.4675   -3.1640 S   0  0  0  0  0  0  0  0  0  0  0  0
   -1.0121   -2.2022   -4.7278 C   0  0  0  0  0  0  0  0  0  0  0  0
   -2.1339   -2.9674   -5.4032 C   0  0  0  0  0  0  0  0  0  0  0  0
    1.1001   -1.1621   -2.5491 C   0  0  0  0  0  0  0  0  0  0  0  0
    1.1635   -2.5148   -2.4874 F   0  0  0  0  0  0  0  0  0  0  0  0
    2.2372   -0.4174   -2.2607 C   0  0  0  0  0  0  0  0  0  0  0  0
    3.8795    1.3378   -0.3664 C   0  0  0  0  0  0  0  0  0  0  0  0
    4.9924    1.9616    0.1975 C   0  0  0  0  0  0  0  0  0  0  0  0
    5.6526    3.0160   -0.4806 C   0  0  0  0  0  0  0  0  0  0  0  0
    6.9390    3.5667    0.0279 C   0  0  0  0  0  0  0  0  0  0  0  0
    7.1142    4.9469    0.2190 C   0  0  0  0  0  0  0  0  0  0  0  0
    8.2867    5.4313    0.8148 C   0  0  0  0  0  0  0  0  0  0  0  0
    9.2583    4.5403    1.2792 C   0  0  0  0  0  0  0  0  0  0  0  0
   10.6603    5.1583    2.2249 S   0  0  0  0  0  0  0  0  0  0  0  0
   11.8625    5.1101    0.8493 C   0  0  0  0  0  0  0  0  0  0  0  0
   13.0654    4.2668    1.2498 C   0  0  0  0  0  0  0  0  0  0  0  0
    9.1027    3.1660    1.0688 C   0  0  0  0  0  0  0  0  0  0  0  0
    7.9680    2.6891    0.4117 C   0  0  0  0  0  0  0  0  0  0  0  0
   10.0108    2.2878    1.5520 F   0  0  0  0  0  0  0  0  0  0  0  0
    5.0569    3.4615   -1.6819 C   0  0  0  0  0  0  0  0  0  0  0  0
    5.4822    4.7783   -2.6528 S   0  0  0  0  0  0  0  0  0  0  0  0
    5.3116    1.4550    1.4730 C   0  0  0  0  0  0  0  0  0  0  0  0
    4.4951    0.3982    1.8786 C   0  0  0  0  0  0  0  0  0  0  0  0
    3.3330    0.1385    0.6806 S   0  0  0  0  0  0  0  0  0  0  0  0
    4.5875   -0.3240    3.1728 C   0  0  0  0  0  0  0  0  0  0  0  0
    5.8230   -0.5511    3.8174 C   0  0  0  0  0  0  0  0  0  0  0  0
    5.9213   -1.1645    5.0720 C   0  0  0  0  0  0  0  0  0  0  0  0
    7.1868   -1.3098    5.5462 N   0  0  0  0  0  0  0  0  0  0  0  0
    8.1101   -0.8469    4.6739 C   0  0  0  0  0  0  0  0  0  0  0  0
    7.3900   -0.2390    3.2752 S   0  0  0  0  0  0  0  0  0  0  0  0
    4.7730   -1.5850    5.7605 C   0  0  0  0  0  0  0  0  0  0  0  0
    3.5435   -1.4197    5.0921 C   0  0  0  0  0  0  0  0  0  0  0  0
    3.4406   -0.8109    3.8377 C   0  0  0  0  0  0  0  0  0  0  0  0
    2.1760   -0.7571    3.3290 N   0  0  0  0  0  0  0  0  0  0  0  0
    1.2714   -1.3353    4.1529 C   0  0  0  0  0  0  0  0  0  0  0  0
    2.0050   -1.9260    5.5491 S   0  0  0  0  0  0  0  0  0  0  0  0
    4.8998   -2.2061    7.0980 C   0  0  0  0  0  0  0  0  0  0  0  0
    4.0733   -1.9260    8.1065 C   0  0  0  0  0  0  0  0  0  0  0  0
    3.1940   -4.5805    9.4375 H   0  0  0  0  0  0  0  0  0  0  0  0
    3.4023   -5.2251    6.9350 H   0  0  0  0  0  0  0  0  0  0  0  0
    2.6381   -7.4300    5.6704 H   0  0  0  0  0  0  0  0  0  0  0  0
    4.5049   -8.0947    4.2018 H   0  0  0  0  0  0  0  0  0  0  0  0
    6.3363   -4.7505    2.3360 H   0  0  0  0  0  0  0  0  0  0  0  0
    7.6565   -5.8050    1.7266 H   0  0  0  0  0  0  0  0  0  0  0  0
    7.4622   -7.1753    3.8911 H   0  0  0  0  0  0  0  0  0  0  0  0
    8.0551   -5.4785    4.0905 H   0  0  0  0  0  0  0  0  0  0  0  0
    6.3554   -5.8884    4.5174 H   0  0  0  0  0  0  0  0  0  0  0  0
    1.7990   -4.0963    3.0666 H   0  0  0  0  0  0  0  0  0  0  0  0
   -3.3522   -5.8807    7.6337 H   0  0  0  0  0  0  0  0  0  0  0  0
   -5.1781   -5.3421    9.2038 H   0  0  0  0  0  0  0  0  0  0  0  0
   -7.0479   -3.2340    8.9512 H   0  0  0  0  0  0  0  0  0  0  0  0
   -6.2438   -1.6202    9.0635 H   0  0  0  0  0  0  0  0  0  0  0  0
   -8.7309   -1.5319    9.4770 H   0  0  0  0  0  0  0  0  0  0  0  0
   -8.5146   -2.6035   10.9108 H   0  0  0  0  0  0  0  0  0  0  0  0
   -7.7633   -0.9572   10.8953 H   0  0  0  0  0  0  0  0  0  0  0  0
   -1.4202   -2.1555    8.5957 H   0  0  0  0  0  0  0  0  0  0  0  0
   -3.4541   -4.0377    5.4482 H   0  0  0  0  0  0  0  0  0  0  0  0
   -4.2338   -2.6007    3.4811 H   0  0  0  0  0  0  0  0  0  0  0  0
   -7.1178   -1.7132    2.8273 H   0  0  0  0  0  0  0  0  0  0  0  0
   -7.6177   -0.0523    4.5774 H   0  0  0  0  0  0  0  0  0  0  0  0
   -5.8443    1.9925    7.6116 H   0  0  0  0  0  0  0  0  0  0  0  0
   -5.7726    0.4973    6.6230 H   0  0  0  0  0  0  0  0  0  0  0  0
   -3.7407    2.8359    6.5078 H   0  0  0  0  0  0  0  0  0  0  0  0
   -3.5088    1.2840    7.4146 H   0  0  0  0  0  0  0  0  0  0  0  0
   -3.6116    1.2655    5.6174 H   0  0  0  0  0  0  0  0  0  0  0  0
   -3.8545    0.7345    1.4426 H   0  0  0  0  0  0  0  0  0  0  0  0
   -5.7050   -4.7530   -3.0164 H   0  0  0  0  0  0  0  0  0  0  0  0
   -4.8401   -6.4040   -4.6304 H   0  0  0  0  0  0  0  0  0  0  0  0
   -1.8656   -8.6991   -3.0141 H   0  0  0  0  0  0  0  0  0  0  0  0
   -1.6322   -9.7339   -4.4651 H   0  0  0  0  0  0  0  0  0  0  0  0
   -4.3320   -8.7261   -3.3687 H   0  0  0  0  0  0  0  0  0  0  0  0
   -3.7039  -10.4144   -3.3569 H   0  0  0  0  0  0  0  0  0  0  0  0
   -4.1201   -9.6231   -4.9268 H   0  0  0  0  0  0  0  0  0  0  0  0
   -1.7457   -4.3044   -1.3702 H   0  0  0  0  0  0  0  0  0  0  0  0
   -4.5702   -2.1570   -3.5742 H   0  0  0  0  0  0  0  0  0  0  0  0
   -4.5305   -0.6277   -5.4477 H   0  0  0  0  0  0  0  0  0  0  0  0
   -1.0540    0.2703   -7.0922 H   0  0  0  0  0  0  0  0  0  0  0  0
   -0.5716   -1.9163   -8.0783 H   0  0  0  0  0  0  0  0  0  0  0  0
   -0.8054   -2.4799  -10.7549 H   0  0  0  0  0  0  0  0  0  0  0  0
   -1.2353   -4.0355  -11.5457 H   0  0  0  0  0  0  0  0  0  0  0  0
    0.2206   -5.2880   -9.9564 H   0  0  0  0  0  0  0  0  0  0  0  0
    0.6665   -3.7411   -9.1306 H   0  0  0  0  0  0  0  0  0  0  0  0
    1.1508   -4.0219  -10.8473 H   0  0  0  0  0  0  0  0  0  0  0  0
   -5.1343   -0.0098   -8.4522 H   0  0  0  0  0  0  0  0  0  0  0  0
   -5.7363    5.6443   -5.2138 H   0  0  0  0  0  0  0  0  0  0  0  0
   -5.8853    7.6699   -3.8027 H   0  0  0  0  0  0  0  0  0  0  0  0
   -4.5843    8.6602    0.4695 H   0  0  0  0  0  0  0  0  0  0  0  0
   -4.3117    7.0356   -0.2483 H   0  0  0  0  0  0  0  0  0  0  0  0
   -6.7628    8.8474   -0.8013 H   0  0  0  0  0  0  0  0  0  0  0  0
   -6.7256    7.4762    0.3738 H   0  0  0  0  0  0  0  0  0  0  0  0
   -6.5304    7.1503   -1.3822 H   0  0  0  0  0  0  0  0  0  0  0  0
   -1.8294    4.8141   -3.6122 H   0  0  0  0  0  0  0  0  0  0  0  0
   -1.7567    5.7275   -6.2754 H   0  0  0  0  0  0  0  0  0  0  0  0
    3.6166    1.3888   -8.9056 H   0  0  0  0  0  0  0  0  0  0  0  0
   -0.1216    9.2579   -6.5526 H   0  0  0  0  0  0  0  0  0  0  0  0
    4.9737    4.8855   -6.2974 H   0  0  0  0  0  0  0  0  0  0  0  0
    2.8001    5.9805   -4.4747 H   0  0  0  0  0  0  0  0  0  0  0  0
    2.5943    3.1598   -3.9589 H   0  0  0  0  0  0  0  0  0  0  0  0
    0.8704    2.7049   -2.3621 H   0  0  0  0  0  0  0  0  0  0  0  0
   -1.0983    1.3876   -3.0491 H   0  0  0  0  0  0  0  0  0  0  0  0
   -0.6328   -1.4063   -5.3983 H   0  0  0  0  0  0  0  0  0  0  0  0
   -0.1861   -2.9080   -4.5180 H   0  0  0  0  0  0  0  0  0  0  0  0
   -2.9178   -2.2736   -5.7603 H   0  0  0  0  0  0  0  0  0  0  0  0
   -1.7292   -3.5379   -6.2613 H   0  0  0  0  0  0  0  0  0  0  0  0
   -2.5926   -3.6748   -4.6944 H   0  0  0  0  0  0  0  0  0  0  0  0
    3.1583   -0.9387   -2.0236 H   0  0  0  0  0  0  0  0  0  0  0  0
    6.3308    5.6448   -0.0464 H   0  0  0  0  0  0  0  0  0  0  0  0
    8.4014    6.4960    0.9803 H   0  0  0  0  0  0  0  0  0  0  0  0
   12.1955    6.1463    0.6390 H   0  0  0  0  0  0  0  0  0  0  0  0
   11.4214    4.6918   -0.0816 H   0  0  0  0  0  0  0  0  0  0  0  0
   12.7441    3.2184    1.4395 H   0  0  0  0  0  0  0  0  0  0  0  0
   13.8125    4.2759    0.4300 H   0  0  0  0  0  0  0  0  0  0  0  0
   13.5353    4.6755    2.1681 H   0  0  0  0  0  0  0  0  0  0  0  0
    7.8628    1.6236    0.2541 H   0  0  0  0  0  0  0  0  0  0  0  0
    6.0694    1.8805    2.1094 H   0  0  0  0  0  0  0  0  0  0  0  0
    9.1765   -0.8737    4.8601 H   0  0  0  0  0  0  0  0  0  0  0  0
    0.2161   -1.4133    3.9271 H   0  0  0  0  0  0  0  0  0  0  0  0
    5.7665   -2.8266    7.3029 H   0  0  0  0  0  0  0  0  0  0  0  0
    4.2496   -2.3548    9.0861 H   0  0  0  0  0  0  0  0  0  0  0  0
    3.2526   -1.2351    7.9855 H   0  0  0  0  0  0  0  0  0  0  0  0
  1  2  2  0
  2  3  1  0
  3  4  2  0
  4  5  1  0
  5  6  2  0
  6  7  1  0
  7  8  2  0
  8  9  1  0
  9 10  1  0
 10 11  1  0
  8 12  1  0
 12 13  1  0
 12 14  2  0
  4 15  1  0
 15 16  2  0
 16 17  1  0
 17 18  1  0
 18 19  2  0
 19 20  1  0
 20 21  2  0
 21 22  1  0
 22 23  1  0
 23 24  1  0
 21 25  1  0
 25 26  2  0
 25 27  1  0
 17 28  2  0
 28 29  1  0
 16 30  1  0
 30 31  2  0
 31 32  1  0
 31 33  1  0
 33 34  2  0
 34 35  1  0
 35 36  2  0
 36 37  1  0
 37 38  2  0
 38 39  1  0
 39 40  2  0
 40 41  1  0
 41 42  1  0
 42 43  1  0
 40 44  1  0
 44 45  1  0
 44 46  2  0
 36 47  1  0
 47 48  2  0
 48 49  1  0
 49 50  1  0
 50 51  2  0
 51 52  1  0
 52 53  2  0
 53 54  1  0
 54 55  1  0
 55 56  1  0
 53 57  1  0
 57 58  2  0
 57 59  1  0
 49 60  2  0
 60 61  1  0
 48 62  1  0
 62 63  2  0
 63 64  1  0
 63 65  1  0
 65 66  2  0
 66 67  1  0
 67 68  2  0
 68 69  1  0
 69 70  2  0
 70 71  1  0
 71 72  2  0
 72 73  1  0
 73 74  1  0
 74 75  1  0
 72 76  1  0
 76 77  1  0
 76 78  2  0
 68 79  1  0
 79 80  2  0
 80 81  1  0
 81 82  1  0
 82 83  2  0
 83 84  1  0
 84 85  2  0
 85 86  1  0
 86 87  1  0
 87 88  1  0
 85 89  1  0
 89 90  2  0
 89 91  1  0
 81 92  2  0
 92 93  1  0
 80 94  1  0
 94 95  2  0
 95 96  1  0
 95 97  1  0
 97 98  1  0
 98 99  2  0
 99100  1  0
100101  2  0
101102  1  0
 99103  1  0
103104  2  0
104105  1  0
105106  1  0
106107  2  0
107108  1  0
103109  1  0
109110  2  3
110111  1  0
111112  2  0
112113  1  0
113114  2  0
114115  1  0
115116  2  0
116117  1  0
117118  2  0
118119  1  0
119120  1  0
120121  1  0
118122  1  0
122123  1  0
122124  2  0
114125  1  0
125126  2  0
126127  1  0
127128  1  0
128129  2  0
129130  1  0
130131  2  0
131132  1  0
132133  1  0
133134  1  0
131135  1  0
135136  2  0
135137  1  0
127138  2  0
138139  1  0
126140  1  0
140141  2  0
141142  1  0
141143  1  0
143144  1  0
144145  2  0
145146  1  0
146147  2  0
147148  1  0
145149  1  0
149150  2  0
150151  1  0
151152  1  0
152153  2  0
153154  1  0
149155  1  0
155156  2  3
 29  1  1  0
 61 33  1  0
 93 65  1  0
105 97  2  0
139111  1  0
151143  2  0
 28  3  1  0
 60 35  1  0
 92 67  1  0
102 98  1  0
108104  1  0
138113  1  0
148144  1  0
154150  1  0
 14  5  1  0
 32 15  1  0
 46 37  1  0
 64 47  1  0
 78 69  1  0
 96 79  1  0
124115  1  0
142125  1  0
 26 18  1  0
 58 50  1  0
 90 82  1  0
136128  1  0
  1157  1  0
  2158  1  0
  6159  1  0
  7160  1  0
 10161  1  0
 10162  1  0
 11163  1  0
 11164  1  0
 11165  1  0
 14166  1  0
 19167  1  0
 20168  1  0
 23169  1  0
 23170  1  0
 24171  1  0
 24172  1  0
 24173  1  0
 26174  1  0
 30175  1  0
 34176  1  0
 38177  1  0
 39178  1  0
 42179  1  0
 42180  1  0
 43181  1  0
 43182  1  0
 43183  1  0
 46184  1  0
 51185  1  0
 52186  1  0
 55187  1  0
 55188  1  0
 56189  1  0
 56190  1  0
 56191  1  0
 58192  1  0
 62193  1  0
 66194  1  0
 70195  1  0
 71196  1  0
 74197  1  0
 74198  1  0
 75199  1  0
 75200  1  0
 75201  1  0
 78202  1  0
 83203  1  0
 84204  1  0
 87205  1  0
 87206  1  0
 88207  1  0
 88208  1  0
 88209  1  0
 90210  1  0
 94211  1  0
101212  1  0
107213  1  0
109214  1  0
110215  1  0
112216  1  0
116217  1  0
117218  1  0
120219  1  0
120220  1  0
121221  1  0
121222  1  0
121223  1  0
124224  1  0
129225  1  0
130226  1  0
133227  1  0
133228  1  0
134229  1  0
134230  1  0
134231  1  0
136232  1  0
140233  1  0
147234  1  0
153235  1  0
155236  1  0
156237  1  0
156238  1  0
M  END

