
     RDKit          3D

212237  0  0  0  0  0  0  0  0999 V2000
    3.0753   -2.4650   12.3290 C   0  0  0  0  0  0  0  0  0  0  0  0
    3.4771   -1.4208   11.4979 C   0  0  0  0  0  0  0  0  0  0  0  0
    2.5214   -1.0936   10.5195 C   0  0  0  0  0  0  0  0  0  0  0  0
    2.6465   -0.1082    9.5184 C   0  0  0  0  0  0  0  0  0  0  0  0
    3.8925    0.6592    9.3272 C   0  0  0  0  0  0  0  0  0  0  0  0
    4.0190    2.3340    9.4111 S   0  0  0  0  0  0  0  0  0  0  0  0
    5.6508    2.4104    9.0069 C   0  0  0  0  0  0  0  0  0  0  0  0
    6.4110    3.6814    8.7796 C   0  0  0  0  0  0  0  0  0  0  0  0
    6.3518    4.0921    7.3110 C   0  0  0  0  0  0  0  0  0  0  0  0
    6.1124    1.1178    8.7664 C   0  0  0  0  0  0  0  0  0  0  0  0
    7.7536    0.7526    8.2465 Cl  0  0  0  0  0  0  0  0  0  0  0  0
    5.1273    0.1337    8.9523 C   0  0  0  0  0  0  0  0  0  0  0  0
    5.4047   -1.5759    8.6345 Cl  0  0  0  0  0  0  0  0  0  0  0  0
    1.5591    0.0482    8.6434 C   0  0  0  0  0  0  0  0  0  0  0  0
    0.4125   -0.7497    8.7098 C   0  0  0  0  0  0  0  0  0  0  0  0
    0.2895   -1.7386    9.7062 C   0  0  0  0  0  0  0  0  0  0  0  0
   -0.8831   -2.6216    9.7848 C   0  0  0  0  0  0  0  0  0  0  0  0
   -1.2736   -3.8006    8.6509 S   0  0  0  0  0  0  0  0  0  0  0  0
   -2.6582   -4.3452    9.4365 C   0  0  0  0  0  0  0  0  0  0  0  0
   -3.5779   -5.3995    8.9019 C   0  0  0  0  0  0  0  0  0  0  0  0
   -4.6910   -4.7758    8.0667 C   0  0  0  0  0  0  0  0  0  0  0  0
   -2.8499   -3.5864   10.5900 C   0  0  0  0  0  0  0  0  0  0  0  0
   -1.8471   -2.6255   10.7899 C   0  0  0  0  0  0  0  0  0  0  0  0
   -1.8149   -1.5266   12.1672 Cl  0  0  0  0  0  0  0  0  0  0  0  0
   -4.2019   -3.8097   11.6898 Cl  0  0  0  0  0  0  0  0  0  0  0  0
    1.3652   -1.8776   10.6013 C   0  0  0  0  0  0  0  0  0  0  0  0
    1.5409   -2.9813   11.8618 S   0  0  0  0  0  0  0  0  0  0  0  0
   -0.5183   -0.4756    7.6910 C   0  0  0  0  0  0  0  0  0  0  0  0
   -0.0971    0.5409    6.8404 C   0  0  0  0  0  0  0  0  0  0  0  0
    1.4290    1.0795    7.3196 S   0  0  0  0  0  0  0  0  0  0  0  0
   -0.7081    0.8832    5.5613 C   0  0  0  0  0  0  0  0  0  0  0  0
   -0.4751    0.1752    4.3874 C   0  0  0  0  0  0  0  0  0  0  0  0
   -0.8229    0.8949    3.2370 C   0  0  0  0  0  0  0  0  0  0  0  0
   -0.5612    0.5046    1.9086 C   0  0  0  0  0  0  0  0  0  0  0  0
    0.1480   -0.7444    1.6101 C   0  0  0  0  0  0  0  0  0  0  0  0
   -0.5885   -2.2098    1.2559 S   0  0  0  0  0  0  0  0  0  0  0  0
    0.8416   -3.0912    1.1262 C   0  0  0  0  0  0  0  0  0  0  0  0
    0.9199   -4.5573    0.8262 C   0  0  0  0  0  0  0  0  0  0  0  0
    0.9579   -5.3709    2.1132 C   0  0  0  0  0  0  0  0  0  0  0  0
    1.9135   -2.2532    1.4289 C   0  0  0  0  0  0  0  0  0  0  0  0
    3.5800   -2.8021    1.5176 Cl  0  0  0  0  0  0  0  0  0  0  0  0
    1.5237   -0.9345    1.6965 C   0  0  0  0  0  0  0  0  0  0  0  0
    2.6397    0.3469    2.1339 Cl  0  0  0  0  0  0  0  0  0  0  0  0
   -0.8112    1.4560    0.9048 C   0  0  0  0  0  0  0  0  0  0  0  0
   -1.3385    2.7196    1.1879 C   0  0  0  0  0  0  0  0  0  0  0  0
   -1.6400    3.0937    2.5118 C   0  0  0  0  0  0  0  0  0  0  0  0
   -2.1289    4.4452    2.8366 C   0  0  0  0  0  0  0  0  0  0  0  0
   -3.6520    5.0336    2.4236 S   0  0  0  0  0  0  0  0  0  0  0  0
   -3.4028    6.5915    3.0091 C   0  0  0  0  0  0  0  0  0  0  0  0
   -4.4199    7.6929    2.9641 C   0  0  0  0  0  0  0  0  0  0  0  0
   -5.1573    7.8040    4.2939 C   0  0  0  0  0  0  0  0  0  0  0  0
   -2.1141    6.6724    3.5414 C   0  0  0  0  0  0  0  0  0  0  0  0
   -1.3953    5.4700    3.4289 C   0  0  0  0  0  0  0  0  0  0  0  0
    0.2886    5.3015    3.9085 Cl  0  0  0  0  0  0  0  0  0  0  0  0
   -1.4341    8.1302    4.2509 Cl  0  0  0  0  0  0  0  0  0  0  0  0
   -1.3482    2.1602    3.5183 C   0  0  0  0  0  0  0  0  0  0  0  0
   -1.3482    2.3954    5.1869 S   0  0  0  0  0  0  0  0  0  0  0  0
   -1.3364    3.5756    0.0814 C   0  0  0  0  0  0  0  0  0  0  0  0
   -0.7734    3.0059   -1.0552 C   0  0  0  0  0  0  0  0  0  0  0  0
   -0.2999    1.4242   -0.7033 S   0  0  0  0  0  0  0  0  0  0  0  0
   -0.2048    3.8302   -2.1320 C   0  0  0  0  0  0  0  0  0  0  0  0
   -0.8465    3.9851   -3.3732 C   0  0  0  0  0  0  0  0  0  0  0  0
   -1.8780    3.2860   -3.9941 C   0  0  0  0  0  0  0  0  0  0  0  0
   -2.4871    2.2986   -3.5036 O   0  0  0  0  0  0  0  0  0  0  0  0
   -2.1444    3.8196   -5.2176 N   0  0  0  0  0  0  0  0  0  0  0  0
   -1.2963    4.8644   -5.3627 C   0  0  0  0  0  0  0  0  0  0  0  0
   -1.2500    5.6020   -6.3842 O   0  0  0  0  0  0  0  0  0  0  0  0
   -0.4808    4.9795   -4.2623 C   0  0  0  0  0  0  0  0  0  0  0  0
    0.5490    5.8823   -4.0046 C   0  0  0  0  0  0  0  0  0  0  0  0
    1.2423    5.7212   -2.8018 C   0  0  0  0  0  0  0  0  0  0  0  0
    0.8837    4.7069   -1.8738 C   0  0  0  0  0  0  0  0  0  0  0  0
    1.7148    4.7191   -0.7478 C   0  0  0  0  0  0  0  0  0  0  0  0
    1.6747    3.9043    0.2096 O   0  0  0  0  0  0  0  0  0  0  0  0
    2.8387    5.9700   -0.8686 S   0  0  0  0  0  0  0  0  0  0  0  0
    2.3030    6.5093   -2.3677 C   0  0  0  0  0  0  0  0  0  0  0  0
    2.7914    7.4878   -2.9940 O   0  0  0  0  0  0  0  0  0  0  0  0
   -3.0235    3.3543   -6.2603 C   0  0  0  0  0  0  0  0  0  0  0  0
   -3.2722    2.0574   -6.4659 C   0  0  0  0  0  0  0  0  0  0  0  0
   -3.8376    1.6072   -7.7563 C   0  0  0  0  0  0  0  0  0  0  0  0
   -5.0991    0.9988   -7.8217 C   0  0  0  0  0  0  0  0  0  0  0  0
   -6.0242    0.6882   -6.8396 C   0  0  0  0  0  0  0  0  0  0  0  0
   -5.9080    0.9608   -5.6123 O   0  0  0  0  0  0  0  0  0  0  0  0
   -7.0846    0.0316   -7.3748 N   0  0  0  0  0  0  0  0  0  0  0  0
   -6.8512   -0.0420   -8.7029 C   0  0  0  0  0  0  0  0  0  0  0  0
   -7.6202   -0.6055   -9.5252 O   0  0  0  0  0  0  0  0  0  0  0  0
   -5.6385    0.5404   -9.0101 C   0  0  0  0  0  0  0  0  0  0  0  0
   -4.9712    0.6519  -10.2282 C   0  0  0  0  0  0  0  0  0  0  0  0
   -3.7031    1.2515  -10.1987 C   0  0  0  0  0  0  0  0  0  0  0  0
   -3.1317    1.7249   -8.9846 C   0  0  0  0  0  0  0  0  0  0  0  0
   -1.8469    2.2447   -9.1862 C   0  0  0  0  0  0  0  0  0  0  0  0
   -1.0780    2.6892   -8.2938 O   0  0  0  0  0  0  0  0  0  0  0  0
   -1.4385    2.1661  -10.8203 S   0  0  0  0  0  0  0  0  0  0  0  0
   -2.8792    1.4403  -11.2995 C   0  0  0  0  0  0  0  0  0  0  0  0
   -3.1605    1.1179  -12.4827 O   0  0  0  0  0  0  0  0  0  0  0  0
   -8.1778   -0.5838   -6.6737 C   0  0  0  0  0  0  0  0  0  0  0  0
   -7.9851   -1.4751   -5.6873 C   0  0  0  0  0  0  0  0  0  0  0  0
   -6.6521   -1.9784   -5.3197 C   0  0  0  0  0  0  0  0  0  0  0  0
   -6.1087   -1.9222   -4.0407 C   0  0  0  0  0  0  0  0  0  0  0  0
   -4.7351   -2.2150   -4.0247 C   0  0  0  0  0  0  0  0  0  0  0  0
   -3.8790   -2.1146   -2.9123 C   0  0  0  0  0  0  0  0  0  0  0  0
   -4.3624   -1.7278   -1.5723 C   0  0  0  0  0  0  0  0  0  0  0  0
   -4.9575   -0.2079   -1.1686 S   0  0  0  0  0  0  0  0  0  0  0  0
   -5.1913   -0.5400    0.4667 C   0  0  0  0  0  0  0  0  0  0  0  0
   -5.6818    0.4552    1.4763 C   0  0  0  0  0  0  0  0  0  0  0  0
   -4.5137    1.0723    2.2374 C   0  0  0  0  0  0  0  0  0  0  0  0
   -4.7813   -1.8466    0.7210 C   0  0  0  0  0  0  0  0  0  0  0  0
   -4.8245   -2.5834    2.3163 Cl  0  0  0  0  0  0  0  0  0  0  0  0
   -4.3172   -2.5139   -0.4211 C   0  0  0  0  0  0  0  0  0  0  0  0
   -3.7353   -4.1759   -0.3976 Cl  0  0  0  0  0  0  0  0  0  0  0  0
   -2.5163   -2.3556   -3.1425 C   0  0  0  0  0  0  0  0  0  0  0  0
   -2.0059   -2.7195   -4.3931 C   0  0  0  0  0  0  0  0  0  0  0  0
   -2.8587   -2.8027   -5.5139 C   0  0  0  0  0  0  0  0  0  0  0  0
   -2.3386   -2.9336   -6.8892 C   0  0  0  0  0  0  0  0  0  0  0  0
   -2.8280   -4.1011   -8.0027 S   0  0  0  0  0  0  0  0  0  0  0  0
   -2.0098   -3.4463   -9.3183 C   0  0  0  0  0  0  0  0  0  0  0  0
   -2.0178   -4.0238  -10.7013 C   0  0  0  0  0  0  0  0  0  0  0  0
   -0.7362   -4.8088  -10.9707 C   0  0  0  0  0  0  0  0  0  0  0  0
   -1.3371   -2.2997   -8.9027 C   0  0  0  0  0  0  0  0  0  0  0  0
   -1.5282   -2.0060   -7.5434 C   0  0  0  0  0  0  0  0  0  0  0  0
   -0.8794   -0.5642   -6.7804 Cl  0  0  0  0  0  0  0  0  0  0  0  0
   -0.3898   -1.2869   -9.9813 Cl  0  0  0  0  0  0  0  0  0  0  0  0
   -4.2254   -2.5664   -5.2832 C   0  0  0  0  0  0  0  0  0  0  0  0
   -5.4637   -2.4721   -6.4120 S   0  0  0  0  0  0  0  0  0  0  0  0
   -0.6128   -2.9161   -4.3872 C   0  0  0  0  0  0  0  0  0  0  0  0
   -0.0479   -2.6367   -3.1451 C   0  0  0  0  0  0  0  0  0  0  0  0
   -1.2454   -2.1844   -2.0597 S   0  0  0  0  0  0  0  0  0  0  0  0
    1.3706   -2.6974   -2.8146 C   0  0  0  0  0  0  0  0  0  0  0  0
    2.1972   -3.7916   -3.0358 C   0  0  0  0  0  0  0  0  0  0  0  0
    3.5076   -3.5772   -2.5751 C   0  0  0  0  0  0  0  0  0  0  0  0
    4.5653   -4.5033   -2.6182 C   0  0  0  0  0  0  0  0  0  0  0  0
    4.3838   -5.8625   -3.1545 C   0  0  0  0  0  0  0  0  0  0  0  0
    3.3863   -7.0359   -2.4785 S   0  0  0  0  0  0  0  0  0  0  0  0
    3.6944   -8.2169   -3.6378 C   0  0  0  0  0  0  0  0  0  0  0  0
    3.0318   -9.5606   -3.6774 C   0  0  0  0  0  0  0  0  0  0  0  0
    1.7762   -9.5181   -4.5459 C   0  0  0  0  0  0  0  0  0  0  0  0
    4.5673   -7.6954   -4.5889 C   0  0  0  0  0  0  0  0  0  0  0  0
    5.1146   -8.5902   -6.0008 Cl  0  0  0  0  0  0  0  0  0  0  0  0
    4.9595   -6.3742   -4.3137 C   0  0  0  0  0  0  0  0  0  0  0  0
    6.0305   -5.4495   -5.3573 Cl  0  0  0  0  0  0  0  0  0  0  0  0
    5.8048   -4.0750   -2.1126 C   0  0  0  0  0  0  0  0  0  0  0  0
    6.0122   -2.7851   -1.6125 C   0  0  0  0  0  0  0  0  0  0  0  0
    4.9506   -1.8551   -1.5707 C   0  0  0  0  0  0  0  0  0  0  0  0
    5.1439   -0.4673   -1.0984 C   0  0  0  0  0  0  0  0  0  0  0  0
    5.7172   -0.0261    0.4235 S   0  0  0  0  0  0  0  0  0  0  0  0
    5.7438    1.6333    0.1366 C   0  0  0  0  0  0  0  0  0  0  0  0
    6.2285    2.6610    1.1205 C   0  0  0  0  0  0  0  0  0  0  0  0
    5.2561    2.8110    2.2827 C   0  0  0  0  0  0  0  0  0  0  0  0
    5.3133    1.8611   -1.1675 C   0  0  0  0  0  0  0  0  0  0  0  0
    4.9768    0.6861   -1.8608 C   0  0  0  0  0  0  0  0  0  0  0  0
    4.5062    0.6857   -3.5577 Cl  0  0  0  0  0  0  0  0  0  0  0  0
    5.2323    3.4585   -1.9031 Cl  0  0  0  0  0  0  0  0  0  0  0  0
    3.7012   -2.3010   -2.0396 C   0  0  0  0  0  0  0  0  0  0  0  0
    2.2383   -1.4635   -2.0663 S   0  0  0  0  0  0  0  0  0  0  0  0
    7.3344   -2.5687   -1.1898 C   0  0  0  0  0  0  0  0  0  0  0  0
    8.1480   -3.6891   -1.3363 C   0  0  0  0  0  0  0  0  0  0  0  0
    7.2369   -4.9481   -1.9983 S   0  0  0  0  0  0  0  0  0  0  0  0
    3.6608   -2.8749   13.1386 H   0  0  0  0  0  0  0  0  0  0  0  0
    4.4374   -0.9232   11.6026 H   0  0  0  0  0  0  0  0  0  0  0  0
    7.4695    3.5501    9.0896 H   0  0  0  0  0  0  0  0  0  0  0  0
    5.9690    4.4901    9.4008 H   0  0  0  0  0  0  0  0  0  0  0  0
    6.8976    5.0465    7.1660 H   0  0  0  0  0  0  0  0  0  0  0  0
    5.2956    4.2242    6.9870 H   0  0  0  0  0  0  0  0  0  0  0  0
    6.8240    3.3125    6.6796 H   0  0  0  0  0  0  0  0  0  0  0  0
   -3.0031   -6.1075    8.2659 H   0  0  0  0  0  0  0  0  0  0  0  0
   -4.0195   -5.9843    9.7381 H   0  0  0  0  0  0  0  0  0  0  0  0
   -5.2849   -4.0639    8.6780 H   0  0  0  0  0  0  0  0  0  0  0  0
   -5.3677   -5.5735    7.6943 H   0  0  0  0  0  0  0  0  0  0  0  0
   -4.2567   -4.2384    7.1955 H   0  0  0  0  0  0  0  0  0  0  0  0
   -1.4447   -1.0178    7.5503 H   0  0  0  0  0  0  0  0  0  0  0  0
    0.0257   -0.7872    4.3707 H   0  0  0  0  0  0  0  0  0  0  0  0
    0.0368   -4.8596    0.2209 H   0  0  0  0  0  0  0  0  0  0  0  0
    1.8288   -4.7728    0.2232 H   0  0  0  0  0  0  0  0  0  0  0  0
    1.0616   -6.4500    1.8687 H   0  0  0  0  0  0  0  0  0  0  0  0
    0.0192   -5.2193    2.6861 H   0  0  0  0  0  0  0  0  0  0  0  0
    1.8208   -5.0614    2.7403 H   0  0  0  0  0  0  0  0  0  0  0  0
   -5.1510    7.4924    2.1526 H   0  0  0  0  0  0  0  0  0  0  0  0
   -3.9168    8.6536    2.7296 H   0  0  0  0  0  0  0  0  0  0  0  0
   -5.8998    8.6277    4.2393 H   0  0  0  0  0  0  0  0  0  0  0  0
   -5.6979    6.8608    4.5207 H   0  0  0  0  0  0  0  0  0  0  0  0
   -4.4386    8.0262    5.1116 H   0  0  0  0  0  0  0  0  0  0  0  0
   -1.5986    4.6263    0.1294 H   0  0  0  0  0  0  0  0  0  0  0  0
    0.8077    6.6562   -4.7124 H   0  0  0  0  0  0  0  0  0  0  0  0
   -3.3152    4.0599   -7.0366 H   0  0  0  0  0  0  0  0  0  0  0  0
   -2.9732    1.3116   -5.7441 H   0  0  0  0  0  0  0  0  0  0  0  0
   -5.4058    0.2817  -11.1521 H   0  0  0  0  0  0  0  0  0  0  0  0
   -9.1913   -0.3229   -6.9623 H   0  0  0  0  0  0  0  0  0  0  0  0
   -8.8437   -1.8227   -5.1286 H   0  0  0  0  0  0  0  0  0  0  0  0
   -6.6709   -1.5919   -3.1772 H   0  0  0  0  0  0  0  0  0  0  0  0
   -6.2466    1.2587    0.9612 H   0  0  0  0  0  0  0  0  0  0  0  0
   -6.3723   -0.0422    2.1875 H   0  0  0  0  0  0  0  0  0  0  0  0
   -4.8969    1.8161    2.9667 H   0  0  0  0  0  0  0  0  0  0  0  0
   -3.9529    0.2912    2.7876 H   0  0  0  0  0  0  0  0  0  0  0  0
   -3.8365    1.5827    1.5251 H   0  0  0  0  0  0  0  0  0  0  0  0
   -2.8912   -4.7009  -10.8178 H   0  0  0  0  0  0  0  0  0  0  0  0
   -2.1225   -3.2056  -11.4447 H   0  0  0  0  0  0  0  0  0  0  0  0
   -0.7373   -5.1734  -12.0183 H   0  0  0  0  0  0  0  0  0  0  0  0
   -0.6862   -5.6811  -10.2842 H   0  0  0  0  0  0  0  0  0  0  0  0
    0.1582   -4.1638  -10.8123 H   0  0  0  0  0  0  0  0  0  0  0  0
   -0.0307   -3.2034   -5.2545 H   0  0  0  0  0  0  0  0  0  0  0  0
    1.8517   -4.7094   -3.4955 H   0  0  0  0  0  0  0  0  0  0  0  0
    2.7527   -9.8683   -2.6473 H   0  0  0  0  0  0  0  0  0  0  0  0
    3.7345  -10.3171   -4.0812 H   0  0  0  0  0  0  0  0  0  0  0  0
    1.3000  -10.5211   -4.5535 H   0  0  0  0  0  0  0  0  0  0  0  0
    2.0375   -9.2521   -5.5931 H   0  0  0  0  0  0  0  0  0  0  0  0
    1.0526   -8.7749   -4.1459 H   0  0  0  0  0  0  0  0  0  0  0  0
    6.3534    3.6468    0.6217 H   0  0  0  0  0  0  0  0  0  0  0  0
    7.2232    2.3493    1.5084 H   0  0  0  0  0  0  0  0  0  0  0  0
    4.2529    3.1029    1.9137 H   0  0  0  0  0  0  0  0  0  0  0  0
    5.6241    3.6033    2.9691 H   0  0  0  0  0  0  0  0  0  0  0  0
    5.1787    1.8607    2.8481 H   0  0  0  0  0  0  0  0  0  0  0  0
    7.7106   -1.6316   -0.8000 H   0  0  0  0  0  0  0  0  0  0  0  0
    9.1938   -3.7416   -1.0665 H   0  0  0  0  0  0  0  0  0  0  0  0
  1  2  2  0
  2  3  1  0
  3  4  2  0
  4  5  1  0
  5  6  1  0
  6  7  1  0
  7  8  1  0
  8  9  1  0
  7 10  2  0
 10 11  1  0
 10 12  1  0
 12 13  1  0
  4 14  1  0
 14 15  2  0
 15 16  1  0
 16 17  1  0
 17 18  1  0
 18 19  1  0
 19 20  1  0
 20 21  1  0
 19 22  2  0
 22 23  1  0
 23 24  1  0
 22 25  1  0
 16 26  2  0
 26 27  1  0
 15 28  1  0
 28 29  2  0
 29 30  1  0
 29 31  1  0
 31 32  2  0
 32 33  1  0
 33 34  2  0
 34 35  1  0
 35 36  1  0
 36 37  1  0
 37 38  1  0
 38 39  1  0
 37 40  2  0
 40 41  1  0
 40 42  1  0
 42 43  1  0
 34 44  1  0
 44 45  2  0
 45 46  1  0
 46 47  1  0
 47 48  1  0
 48 49  1  0
 49 50  1  0
 50 51  1  0
 49 52  2  0
 52 53  1  0
 53 54  1  0
 52 55  1  0
 46 56  2  0
 56 57  1  0
 45 58  1  0
 58 59  2  0
 59 60  1  0
 59 61  1  0
 61 62  2  0
 62 63  1  0
 63 64  2  0
 63 65  1  0
 65 66  1  0
 66 67  2  0
 66 68  1  0
 68 69  2  0
 69 70  1  0
 70 71  2  0
 71 72  1  0
 72 73  2  0
 72 74  1  0
 74 75  1  0
 75 76  2  0
 65 77  1  0
 77 78  2  3
 78 79  1  0
 79 80  2  0
 80 81  1  0
 81 82  2  0
 81 83  1  0
 83 84  1  0
 84 85  2  0
 84 86  1  0
 86 87  2  0
 87 88  1  0
 88 89  2  0
 89 90  1  0
 90 91  2  0
 90 92  1  0
 92 93  1  0
 93 94  2  0
 83 95  1  0
 95 96  2  3
 96 97  1  0
 97 98  2  0
 98 99  1  0
 99100  2  0
100101  1  0
101102  1  0
102103  1  0
103104  1  0
104105  1  0
103106  2  0
106107  1  0
106108  1  0
108109  1  0
100110  1  0
110111  2  0
111112  1  0
112113  1  0
113114  1  0
114115  1  0
115116  1  0
116117  1  0
115118  2  0
118119  1  0
119120  1  0
118121  1  0
112122  2  0
122123  1  0
111124  1  0
124125  2  0
125126  1  0
125127  1  0
127128  2  0
128129  1  0
129130  2  0
130131  1  0
131132  1  0
132133  1  0
133134  1  0
134135  1  0
133136  2  0
136137  1  0
136138  1  0
138139  1  0
130140  1  0
140141  2  0
141142  1  0
142143  1  0
143144  1  0
144145  1  0
145146  1  0
146147  1  0
145148  2  0
148149  1  0
149150  1  0
148151  1  0
142152  2  0
152153  1  0
141154  1  0
154155  2  0
155156  1  0
 27  1  1  0
 57 31  1  0
 71 61  1  0
 89 79  1  0
123 97  1  0
153127  1  0
 26  3  1  0
 56 33  1  0
 68 62  1  0
 75 70  1  0
 86 80  1  0
 93 88  1  0
122 99  1  0
152129  1  0
 12  5  2  0
 30 14  1  0
 42 35  2  0
 60 44  1  0
108101  2  0
126110  1  0
138131  2  0
156140  1  0
 23 17  2  0
 53 47  2  0
119113  2  0
149143  2  0
  1157  1  0
  2158  1  0
  8159  1  0
  8160  1  0
  9161  1  0
  9162  1  0
  9163  1  0
 20164  1  0
 20165  1  0
 21166  1  0
 21167  1  0
 21168  1  0
 28169  1  0
 32170  1  0
 38171  1  0
 38172  1  0
 39173  1  0
 39174  1  0
 39175  1  0
 50176  1  0
 50177  1  0
 51178  1  0
 51179  1  0
 51180  1  0
 58181  1  0
 69182  1  0
 77183  1  0
 78184  1  0
 87185  1  0
 95186  1  0
 96187  1  0
 98188  1  0
104189  1  0
104190  1  0
105191  1  0
105192  1  0
105193  1  0
116194  1  0
116195  1  0
117196  1  0
117197  1  0
117198  1  0
124199  1  0
128200  1  0
134201  1  0
134202  1  0
135203  1  0
135204  1  0
135205  1  0
146206  1  0
146207  1  0
147208  1  0
147209  1  0
147210  1  0
154211  1  0
155212  1  0
M  END

