
     RDKit          3D

223248  0  0  0  0  0  0  0  0999 V2000
   -1.5409   -6.1552    8.5442 C   0  0  0  0  0  0  0  0  0  0  0  0
   -0.7090   -6.3038    7.4401 C   0  0  0  0  0  0  0  0  0  0  0  0
   -1.4124   -6.5257    6.2435 C   0  0  0  0  0  0  0  0  0  0  0  0
   -0.8540   -6.6739    4.9582 C   0  0  0  0  0  0  0  0  0  0  0  0
    0.5936   -6.5419    4.7151 C   0  0  0  0  0  0  0  0  0  0  0  0
    1.5984   -7.7801    4.1784 S   0  0  0  0  0  0  0  0  0  0  0  0
    3.0115   -6.8632    4.1518 C   0  0  0  0  0  0  0  0  0  0  0  0
    4.3730   -7.4043    3.8364 C   0  0  0  0  0  0  0  0  0  0  0  0
    5.0283   -7.9704    5.0908 C   0  0  0  0  0  0  0  0  0  0  0  0
    2.7125   -5.5681    4.5757 C   0  0  0  0  0  0  0  0  0  0  0  0
    3.9099   -4.2894    4.7120 Cl  0  0  0  0  0  0  0  0  0  0  0  0
    1.3543   -5.3868    4.8822 C   0  0  0  0  0  0  0  0  0  0  0  0
    0.6745   -3.8435    5.3823 Cl  0  0  0  0  0  0  0  0  0  0  0  0
   -1.7498   -6.8697    3.8951 C   0  0  0  0  0  0  0  0  0  0  0  0
   -3.1387   -6.8895    4.0713 C   0  0  0  0  0  0  0  0  0  0  0  0
   -3.6981   -6.7409    5.3556 C   0  0  0  0  0  0  0  0  0  0  0  0
   -5.1533   -6.6934    5.5737 C   0  0  0  0  0  0  0  0  0  0  0  0
   -6.1634   -5.4703    5.0090 S   0  0  0  0  0  0  0  0  0  0  0  0
   -7.5744   -6.0727    5.7013 C   0  0  0  0  0  0  0  0  0  0  0  0
   -8.9075   -5.3922    5.6431 C   0  0  0  0  0  0  0  0  0  0  0  0
   -9.1359   -4.5474    6.8935 C   0  0  0  0  0  0  0  0  0  0  0  0
   -7.2665   -7.2374    6.4044 C   0  0  0  0  0  0  0  0  0  0  0  0
   -5.9086   -7.5862    6.3311 C   0  0  0  0  0  0  0  0  0  0  0  0
   -5.2396   -9.0187    7.0977 Cl  0  0  0  0  0  0  0  0  0  0  0  0
   -8.4545   -8.1670    7.3060 Cl  0  0  0  0  0  0  0  0  0  0  0  0
   -2.7992   -6.5658    6.4222 C   0  0  0  0  0  0  0  0  0  0  0  0
   -3.1460   -6.2995    8.0464 S   0  0  0  0  0  0  0  0  0  0  0  0
   -3.8462   -7.0109    2.8632 C   0  0  0  0  0  0  0  0  0  0  0  0
   -3.0114   -7.0673    1.7457 C   0  0  0  0  0  0  0  0  0  0  0  0
   -1.4039   -6.9811    2.2532 S   0  0  0  0  0  0  0  0  0  0  0  0
   -3.4530   -6.9544    0.3466 C   0  0  0  0  0  0  0  0  0  0  0  0
   -2.6079   -6.8771   -0.7600 C   0  0  0  0  0  0  0  0  0  0  0  0
   -3.2648   -6.4484   -1.9265 C   0  0  0  0  0  0  0  0  0  0  0  0
   -2.6411   -6.0863   -3.1383 C   0  0  0  0  0  0  0  0  0  0  0  0
   -1.1848   -6.2171   -3.3178 C   0  0  0  0  0  0  0  0  0  0  0  0
   -0.3707   -7.6816   -3.4626 S   0  0  0  0  0  0  0  0  0  0  0  0
    1.1742   -7.0185   -3.5424 C   0  0  0  0  0  0  0  0  0  0  0  0
    2.4309   -7.8068   -3.7442 C   0  0  0  0  0  0  0  0  0  0  0  0
    2.7760   -7.9032   -5.2268 C   0  0  0  0  0  0  0  0  0  0  0  0
    1.0695   -5.6296   -3.4635 C   0  0  0  0  0  0  0  0  0  0  0  0
    2.4519   -4.5474   -3.5209 Cl  0  0  0  0  0  0  0  0  0  0  0  0
   -0.2534   -5.1812   -3.3273 C   0  0  0  0  0  0  0  0  0  0  0  0
   -0.6777   -3.4856   -3.1219 Cl  0  0  0  0  0  0  0  0  0  0  0  0
   -3.4466   -5.4522   -4.1042 C   0  0  0  0  0  0  0  0  0  0  0  0
   -4.8022   -5.1957   -3.8951 C   0  0  0  0  0  0  0  0  0  0  0  0
   -5.4278   -5.5711   -2.6908 C   0  0  0  0  0  0  0  0  0  0  0  0
   -6.7766   -5.0883   -2.3476 C   0  0  0  0  0  0  0  0  0  0  0  0
   -7.1605   -3.4729   -2.0724 S   0  0  0  0  0  0  0  0  0  0  0  0
   -8.8025   -3.7256   -1.8075 C   0  0  0  0  0  0  0  0  0  0  0  0
   -9.7979   -2.6296   -1.5683 C   0  0  0  0  0  0  0  0  0  0  0  0
  -10.1826   -1.9512   -2.8789 C   0  0  0  0  0  0  0  0  0  0  0  0
   -9.0744   -5.0864   -1.9518 C   0  0  0  0  0  0  0  0  0  0  0  0
   -7.9322   -5.8521   -2.2377 C   0  0  0  0  0  0  0  0  0  0  0  0
   -7.9636   -7.5918   -2.4933 Cl  0  0  0  0  0  0  0  0  0  0  0  0
  -10.6860   -5.7779   -1.8243 Cl  0  0  0  0  0  0  0  0  0  0  0  0
   -4.6298   -6.2101   -1.7305 C   0  0  0  0  0  0  0  0  0  0  0  0
   -5.0164   -6.5151   -0.1216 S   0  0  0  0  0  0  0  0  0  0  0  0
   -5.3754   -4.3878   -4.8862 C   0  0  0  0  0  0  0  0  0  0  0  0
   -4.4583   -3.9322   -5.8305 C   0  0  0  0  0  0  0  0  0  0  0  0
   -2.9574   -4.6376   -5.4921 S   0  0  0  0  0  0  0  0  0  0  0  0
   -4.6140   -2.6392   -6.5197 C   0  0  0  0  0  0  0  0  0  0  0  0
   -3.5418   -1.8852   -7.0034 C   0  0  0  0  0  0  0  0  0  0  0  0
   -3.7746   -0.4976   -6.9694 C   0  0  0  0  0  0  0  0  0  0  0  0
   -2.7946    0.5021   -7.1229 C   0  0  0  0  0  0  0  0  0  0  0  0
   -1.3981    0.1718   -7.4523 C   0  0  0  0  0  0  0  0  0  0  0  0
   -0.3505   -0.6693   -6.4412 S   0  0  0  0  0  0  0  0  0  0  0  0
    0.9797   -0.6111   -7.4725 C   0  0  0  0  0  0  0  0  0  0  0  0
    2.3449   -1.1224   -7.1241 C   0  0  0  0  0  0  0  0  0  0  0  0
    3.1859   -0.0164   -6.4945 C   0  0  0  0  0  0  0  0  0  0  0  0
    0.6225    0.1047   -8.6169 C   0  0  0  0  0  0  0  0  0  0  0  0
    1.7345    0.4532   -9.9334 Cl  0  0  0  0  0  0  0  0  0  0  0  0
   -0.7116    0.5440   -8.6031 C   0  0  0  0  0  0  0  0  0  0  0  0
   -1.4429    1.4775   -9.9019 Cl  0  0  0  0  0  0  0  0  0  0  0  0
   -3.1525    1.8077   -6.7392 C   0  0  0  0  0  0  0  0  0  0  0  0
   -4.4121    2.1187   -6.2158 C   0  0  0  0  0  0  0  0  0  0  0  0
   -5.4141    1.1312   -6.1322 C   0  0  0  0  0  0  0  0  0  0  0  0
   -6.6936    1.3731   -5.4407 C   0  0  0  0  0  0  0  0  0  0  0  0
   -8.1982    1.3816   -6.1914 S   0  0  0  0  0  0  0  0  0  0  0  0
   -9.0974    1.5618   -4.7809 C   0  0  0  0  0  0  0  0  0  0  0  0
  -10.5846    1.7223   -4.7394 C   0  0  0  0  0  0  0  0  0  0  0  0
  -10.9794    3.1600   -5.0663 C   0  0  0  0  0  0  0  0  0  0  0  0
   -8.2232    1.6125   -3.6951 C   0  0  0  0  0  0  0  0  0  0  0  0
   -6.8760    1.4921   -4.0651 C   0  0  0  0  0  0  0  0  0  0  0  0
   -5.5577    1.4302   -2.9021 Cl  0  0  0  0  0  0  0  0  0  0  0  0
   -8.7517    1.7864   -2.0285 Cl  0  0  0  0  0  0  0  0  0  0  0  0
   -5.0592   -0.1668   -6.5241 C   0  0  0  0  0  0  0  0  0  0  0  0
   -5.8795   -1.5791   -6.1581 S   0  0  0  0  0  0  0  0  0  0  0  0
   -4.4654    3.3877   -5.6133 C   0  0  0  0  0  0  0  0  0  0  0  0
   -3.2398    4.0548   -5.6194 C   0  0  0  0  0  0  0  0  0  0  0  0
   -2.1148    3.0916   -6.4355 S   0  0  0  0  0  0  0  0  0  0  0  0
   -2.8367    5.0168   -4.5806 C   0  0  0  0  0  0  0  0  0  0  0  0
   -1.5759    5.6138   -4.5246 C   0  0  0  0  0  0  0  0  0  0  0  0
   -1.1664    5.9334   -3.2176 C   0  0  0  0  0  0  0  0  0  0  0  0
    0.1394    6.3099   -2.8391 C   0  0  0  0  0  0  0  0  0  0  0  0
    1.1378    6.7398   -3.8378 C   0  0  0  0  0  0  0  0  0  0  0  0
    2.6529    6.0454   -4.0778 S   0  0  0  0  0  0  0  0  0  0  0  0
    3.1351    7.0736   -5.3184 C   0  0  0  0  0  0  0  0  0  0  0  0
    4.4974    7.0723   -5.9412 C   0  0  0  0  0  0  0  0  0  0  0  0
    5.4404    7.9870   -5.1657 C   0  0  0  0  0  0  0  0  0  0  0  0
    2.1127    7.9943   -5.5538 C   0  0  0  0  0  0  0  0  0  0  0  0
    2.2293    9.2903   -6.7378 Cl  0  0  0  0  0  0  0  0  0  0  0  0
    0.9935    7.8030   -4.7301 C   0  0  0  0  0  0  0  0  0  0  0  0
   -0.4177    8.8543   -4.7769 Cl  0  0  0  0  0  0  0  0  0  0  0  0
    0.4615    6.1831   -1.4750 C   0  0  0  0  0  0  0  0  0  0  0  0
   -0.4777    5.7914   -0.5145 C   0  0  0  0  0  0  0  0  0  0  0  0
   -1.8135    5.5449   -0.8821 C   0  0  0  0  0  0  0  0  0  0  0  0
   -2.8003    5.0308    0.0796 C   0  0  0  0  0  0  0  0  0  0  0  0
   -2.7543    3.5033    0.7741 S   0  0  0  0  0  0  0  0  0  0  0  0
   -4.2030    3.6378    1.6259 C   0  0  0  0  0  0  0  0  0  0  0  0
   -4.7640    2.6013    2.5600 C   0  0  0  0  0  0  0  0  0  0  0  0
   -4.5591    1.1827    2.0310 C   0  0  0  0  0  0  0  0  0  0  0  0
   -4.7309    4.9074    1.3905 C   0  0  0  0  0  0  0  0  0  0  0  0
   -3.9592    5.6765    0.5018 C   0  0  0  0  0  0  0  0  0  0  0  0
   -4.3943    7.3006   -0.0155 Cl  0  0  0  0  0  0  0  0  0  0  0  0
   -6.2272    5.4930    2.1163 Cl  0  0  0  0  0  0  0  0  0  0  0  0
   -2.1174    5.6036   -2.2503 C   0  0  0  0  0  0  0  0  0  0  0  0
   -3.4574    4.9404   -3.0102 S   0  0  0  0  0  0  0  0  0  0  0  0
    0.0844    5.5655    0.7545 C   0  0  0  0  0  0  0  0  0  0  0  0
    1.4694    5.7428    0.7818 C   0  0  0  0  0  0  0  0  0  0  0  0
    1.9760    6.2487   -0.7498 S   0  0  0  0  0  0  0  0  0  0  0  0
    2.3971    5.2992    1.8448 C   0  0  0  0  0  0  0  0  0  0  0  0
    4.0607    5.5229    1.7871 S   0  0  0  0  0  0  0  0  0  0  0  0
    4.4577    4.5077    3.0601 C   0  0  0  0  0  0  0  0  0  0  0  0
    3.2802    3.9514    3.5734 C   0  0  0  0  0  0  0  0  0  0  0  0
    2.1305    4.3826    2.8659 C   0  0  0  0  0  0  0  0  0  0  0  0
    0.8489    3.8874    3.1031 O   0  0  0  0  0  0  0  0  0  0  0  0
    3.2365    2.9293    4.6842 C   0  0  0  0  0  0  0  0  0  0  0  0
    2.2299    3.2437    5.5797 F   0  0  0  0  0  0  0  0  0  0  0  0
    2.9954    1.6774    4.1510 F   0  0  0  0  0  0  0  0  0  0  0  0
    4.4256    2.8950    5.3900 F   0  0  0  0  0  0  0  0  0  0  0  0
    5.8235    4.0414    3.3011 C   0  0  0  0  0  0  0  0  0  0  0  0
    6.3158    2.8041    2.8994 C   0  0  0  0  0  0  0  0  0  0  0  0
    7.6898    2.6581    3.1525 C   0  0  0  0  0  0  0  0  0  0  0  0
    8.4897    1.5471    2.8147 C   0  0  0  0  0  0  0  0  0  0  0  0
    7.9298    0.3609    2.1452 C   0  0  0  0  0  0  0  0  0  0  0  0
    6.8016   -0.6872    2.8234 S   0  0  0  0  0  0  0  0  0  0  0  0
    6.6692   -1.6956    1.4832 C   0  0  0  0  0  0  0  0  0  0  0  0
    5.8218   -2.9278    1.4230 C   0  0  0  0  0  0  0  0  0  0  0  0
    6.6302   -4.1606    1.8134 C   0  0  0  0  0  0  0  0  0  0  0  0
    7.5228   -1.2302    0.4848 C   0  0  0  0  0  0  0  0  0  0  0  0
    7.6985   -2.0042   -1.0838 Cl  0  0  0  0  0  0  0  0  0  0  0  0
    8.2257   -0.0719    0.8533 C   0  0  0  0  0  0  0  0  0  0  0  0
    9.3262    0.7706   -0.2295 Cl  0  0  0  0  0  0  0  0  0  0  0  0
    9.8565    1.6322    3.1293 C   0  0  0  0  0  0  0  0  0  0  0  0
   10.4190    2.7453    3.7571 C   0  0  0  0  0  0  0  0  0  0  0  0
    9.6213    3.8564    4.0930 C   0  0  0  0  0  0  0  0  0  0  0  0
   10.1752    5.0255    4.7970 C   0  0  0  0  0  0  0  0  0  0  0  0
   10.3105    6.5706    4.1449 S   0  0  0  0  0  0  0  0  0  0  0  0
   11.0348    7.2705    5.4958 C   0  0  0  0  0  0  0  0  0  0  0  0
   11.4047    8.7193    5.6121 C   0  0  0  0  0  0  0  0  0  0  0  0
   10.2550    9.5222    6.2098 C   0  0  0  0  0  0  0  0  0  0  0  0
   11.1537    6.3013    6.4920 C   0  0  0  0  0  0  0  0  0  0  0  0
   10.6843    5.0395    6.0948 C   0  0  0  0  0  0  0  0  0  0  0  0
   10.6826    3.6337    7.1486 Cl  0  0  0  0  0  0  0  0  0  0  0  0
   11.8087    6.6263    8.0922 Cl  0  0  0  0  0  0  0  0  0  0  0  0
    8.2567    3.7867    3.7579 C   0  0  0  0  0  0  0  0  0  0  0  0
    7.0696    4.9634    3.9615 S   0  0  0  0  0  0  0  0  0  0  0  0
   11.8025    2.6198    3.9673 C   0  0  0  0  0  0  0  0  0  0  0  0
   12.3155    1.4046    3.5246 C   0  0  0  0  0  0  0  0  0  0  0  0
   11.0630    0.4870    2.8649 S   0  0  0  0  0  0  0  0  0  0  0  0
   -1.2107   -5.9656    9.5556 H   0  0  0  0  0  0  0  0  0  0  0  0
    0.3697   -6.2399    7.5044 H   0  0  0  0  0  0  0  0  0  0  0  0
    4.2839   -8.2071    3.0713 H   0  0  0  0  0  0  0  0  0  0  0  0
    5.0146   -6.6028    3.4112 H   0  0  0  0  0  0  0  0  0  0  0  0
    6.0336   -8.3710    4.8363 H   0  0  0  0  0  0  0  0  0  0  0  0
    4.4117   -8.7938    5.5063 H   0  0  0  0  0  0  0  0  0  0  0  0
    5.1427   -7.1766    5.8566 H   0  0  0  0  0  0  0  0  0  0  0  0
   -8.9488   -4.7382    4.7462 H   0  0  0  0  0  0  0  0  0  0  0  0
   -9.7161   -6.1520    5.5535 H   0  0  0  0  0  0  0  0  0  0  0  0
  -10.1163   -4.0359    6.8204 H   0  0  0  0  0  0  0  0  0  0  0  0
   -8.3372   -3.7830    6.9920 H   0  0  0  0  0  0  0  0  0  0  0  0
   -9.1376   -5.1927    7.7980 H   0  0  0  0  0  0  0  0  0  0  0  0
   -4.9257   -7.0086    2.7963 H   0  0  0  0  0  0  0  0  0  0  0  0
   -1.5391   -7.0251   -0.6945 H   0  0  0  0  0  0  0  0  0  0  0  0
    3.2726   -7.3303   -3.1972 H   0  0  0  0  0  0  0  0  0  0  0  0
    2.2947   -8.8316   -3.3357 H   0  0  0  0  0  0  0  0  0  0  0  0
    3.7087   -8.4947   -5.3531 H   0  0  0  0  0  0  0  0  0  0  0  0
    1.9555   -8.4096   -5.7820 H   0  0  0  0  0  0  0  0  0  0  0  0
    2.9376   -6.8898   -5.6551 H   0  0  0  0  0  0  0  0  0  0  0  0
  -10.7111   -3.0352   -1.0840 H   0  0  0  0  0  0  0  0  0  0  0  0
   -9.3564   -1.8777   -0.8797 H   0  0  0  0  0  0  0  0  0  0  0  0
   -9.2879   -1.4817   -3.3442 H   0  0  0  0  0  0  0  0  0  0  0  0
  -10.6171   -2.6910   -3.5881 H   0  0  0  0  0  0  0  0  0  0  0  0
  -10.9360   -1.1588   -2.6839 H   0  0  0  0  0  0  0  0  0  0  0  0
   -6.3912   -4.0204   -4.8293 H   0  0  0  0  0  0  0  0  0  0  0  0
   -2.5747   -2.3198   -7.2148 H   0  0  0  0  0  0  0  0  0  0  0  0
    2.8543   -1.5056   -8.0367 H   0  0  0  0  0  0  0  0  0  0  0  0
    2.2504   -1.9610   -6.4017 H   0  0  0  0  0  0  0  0  0  0  0  0
    3.3260    0.8178   -7.2136 H   0  0  0  0  0  0  0  0  0  0  0  0
    2.6913    0.3651   -5.5771 H   0  0  0  0  0  0  0  0  0  0  0  0
    4.1832   -0.4179   -6.2208 H   0  0  0  0  0  0  0  0  0  0  0  0
  -11.0498    1.0386   -5.4835 H   0  0  0  0  0  0  0  0  0  0  0  0
  -10.9848    1.4487   -3.7362 H   0  0  0  0  0  0  0  0  0  0  0  0
  -10.6281    3.4284   -6.0885 H   0  0  0  0  0  0  0  0  0  0  0  0
  -12.0843    3.2626   -5.0367 H   0  0  0  0  0  0  0  0  0  0  0  0
  -10.5310    3.8609   -4.3280 H   0  0  0  0  0  0  0  0  0  0  0  0
   -5.3205    3.7418   -5.0514 H   0  0  0  0  0  0  0  0  0  0  0  0
   -0.9146    5.6624   -5.3815 H   0  0  0  0  0  0  0  0  0  0  0  0
    4.9050    6.0390   -5.9378 H   0  0  0  0  0  0  0  0  0  0  0  0
    4.4347    7.4144   -6.9948 H   0  0  0  0  0  0  0  0  0  0  0  0
    6.4615    7.9397   -5.6050 H   0  0  0  0  0  0  0  0  0  0  0  0
    5.0827    9.0385   -5.2129 H   0  0  0  0  0  0  0  0  0  0  0  0
    5.4962    7.6701   -4.1011 H   0  0  0  0  0  0  0  0  0  0  0  0
   -5.8549    2.7683    2.6998 H   0  0  0  0  0  0  0  0  0  0  0  0
   -4.2689    2.7021    3.5478 H   0  0  0  0  0  0  0  0  0  0  0  0
   -5.0008    0.4513    2.7358 H   0  0  0  0  0  0  0  0  0  0  0  0
   -3.4752    0.9550    1.9325 H   0  0  0  0  0  0  0  0  0  0  0  0
   -5.0510    1.0711    1.0408 H   0  0  0  0  0  0  0  0  0  0  0  0
   -0.4975    5.2289    1.5993 H   0  0  0  0  0  0  0  0  0  0  0  0
    0.6563    3.1535    3.7707 H   0  0  0  0  0  0  0  0  0  0  0  0
    5.7045    2.0538    2.4148 H   0  0  0  0  0  0  0  0  0  0  0  0
    5.4187   -3.0596    0.3953 H   0  0  0  0  0  0  0  0  0  0  0  0
    4.9609   -2.8200    2.1157 H   0  0  0  0  0  0  0  0  0  0  0  0
    6.9835   -4.0735    2.8627 H   0  0  0  0  0  0  0  0  0  0  0  0
    7.5056   -4.2801    1.1401 H   0  0  0  0  0  0  0  0  0  0  0  0
    5.9907   -5.0613    1.7272 H   0  0  0  0  0  0  0  0  0  0  0  0
   11.6464    9.1180    4.6043 H   0  0  0  0  0  0  0  0  0  0  0  0
   12.3080    8.8286    6.2487 H   0  0  0  0  0  0  0  0  0  0  0  0
   10.0073    9.1440    7.2249 H   0  0  0  0  0  0  0  0  0  0  0  0
   10.5523   10.5904    6.2925 H   0  0  0  0  0  0  0  0  0  0  0  0
    9.3561    9.4473    5.5589 H   0  0  0  0  0  0  0  0  0  0  0  0
   12.4156    3.3821    4.4273 H   0  0  0  0  0  0  0  0  0  0  0  0
   13.3528    1.1020    3.5927 H   0  0  0  0  0  0  0  0  0  0  0  0
  1  2  2  0
  2  3  1  0
  3  4  2  0
  4  5  1  0
  5  6  1  0
  6  7  1  0
  7  8  1  0
  8  9  1  0
  7 10  2  0
 10 11  1  0
 10 12  1  0
 12 13  1  0
  4 14  1  0
 14 15  2  0
 15 16  1  0
 16 17  1  0
 17 18  1  0
 18 19  1  0
 19 20  1  0
 20 21  1  0
 19 22  2  0
 22 23  1  0
 23 24  1  0
 22 25  1  0
 16 26  2  0
 26 27  1  0
 15 28  1  0
 28 29  2  0
 29 30  1  0
 29 31  1  0
 31 32  2  0
 32 33  1  0
 33 34  2  0
 34 35  1  0
 35 36  1  0
 36 37  1  0
 37 38  1  0
 38 39  1  0
 37 40  2  0
 40 41  1  0
 40 42  1  0
 42 43  1  0
 34 44  1  0
 44 45  2  0
 45 46  1  0
 46 47  1  0
 47 48  1  0
 48 49  1  0
 49 50  1  0
 50 51  1  0
 49 52  2  0
 52 53  1  0
 53 54  1  0
 52 55  1  0
 46 56  2  0
 56 57  1  0
 45 58  1  0
 58 59  2  0
 59 60  1  0
 59 61  1  0
 61 62  2  0
 62 63  1  0
 63 64  2  0
 64 65  1  0
 65 66  1  0
 66 67  1  0
 67 68  1  0
 68 69  1  0
 67 70  2  0
 70 71  1  0
 70 72  1  0
 72 73  1  0
 64 74  1  0
 74 75  2  0
 75 76  1  0
 76 77  1  0
 77 78  1  0
 78 79  1  0
 79 80  1  0
 80 81  1  0
 79 82  2  0
 82 83  1  0
 83 84  1  0
 82 85  1  0
 76 86  2  0
 86 87  1  0
 75 88  1  0
 88 89  2  0
 89 90  1  0
 89 91  1  0
 91 92  2  0
 92 93  1  0
 93 94  2  0
 94 95  1  0
 95 96  1  0
 96 97  1  0
 97 98  1  0
 98 99  1  0
 97100  2  0
100101  1  0
100102  1  0
102103  1  0
 94104  1  0
104105  2  0
105106  1  0
106107  1  0
107108  1  0
108109  1  0
109110  1  0
110111  1  0
109112  2  0
112113  1  0
113114  1  0
112115  1  0
106116  2  0
116117  1  0
105118  1  0
118119  2  0
119120  1  0
119121  1  0
121122  1  0
122123  1  0
123124  2  0
124125  1  0
125126  1  0
124127  1  0
127128  1  0
127129  1  0
127130  1  0
123131  1  0
131132  2  0
132133  1  0
133134  2  0
134135  1  0
135136  1  0
136137  1  0
137138  1  0
138139  1  0
137140  2  0
140141  1  0
140142  1  0
142143  1  0
134144  1  0
144145  2  0
145146  1  0
146147  1  0
147148  1  0
148149  1  0
149150  1  0
150151  1  0
149152  2  0
152153  1  0
153154  1  0
152155  1  0
146156  2  0
156157  1  0
145158  1  0
158159  2  0
159160  1  0
 27  1  1  0
 57 31  1  0
 87 61  1  0
117 91  1  0
125121  2  0
157131  1  0
 26  3  1  0
 56 33  1  0
 86 63  1  0
116 93  1  0
156133  1  0
 12  5  2  0
 30 14  1  0
 42 35  2  0
 60 44  1  0
 72 65  2  0
 90 74  1  0
102 95  2  0
120104  1  0
142135  2  0
160144  1  0
 23 17  2  0
 53 47  2  0
 83 77  2  0
113107  2  0
153147  2  0
  1161  1  0
  2162  1  0
  8163  1  0
  8164  1  0
  9165  1  0
  9166  1  0
  9167  1  0
 20168  1  0
 20169  1  0
 21170  1  0
 21171  1  0
 21172  1  0
 28173  1  0
 32174  1  0
 38175  1  0
 38176  1  0
 39177  1  0
 39178  1  0
 39179  1  0
 50180  1  0
 50181  1  0
 51182  1  0
 51183  1  0
 51184  1  0
 58185  1  0
 62186  1  0
 68187  1  0
 68188  1  0
 69189  1  0
 69190  1  0
 69191  1  0
 80192  1  0
 80193  1  0
 81194  1  0
 81195  1  0
 81196  1  0
 88197  1  0
 92198  1  0
 98199  1  0
 98200  1  0
 99201  1  0
 99202  1  0
 99203  1  0
110204  1  0
110205  1  0
111206  1  0
111207  1  0
111208  1  0
118209  1  0
126210  1  0
132211  1  0
138212  1  0
138213  1  0
139214  1  0
139215  1  0
139216  1  0
150217  1  0
150218  1  0
151219  1  0
151220  1  0
151221  1  0
158222  1  0
159223  1  0
M  END

