
     RDKit          3D

236259  0  0  0  0  0  0  0  0999 V2000
    2.6505   -6.6647    8.4579 C   0  0  0  0  0  0  0  0  0  0  0  0
    1.8080   -5.5745    8.6341 C   0  0  0  0  0  0  0  0  0  0  0  0
    0.7688   -5.5190    7.6897 C   0  0  0  0  0  0  0  0  0  0  0  0
   -0.2207   -4.5211    7.5969 C   0  0  0  0  0  0  0  0  0  0  0  0
   -0.2160   -3.3295    8.4696 C   0  0  0  0  0  0  0  0  0  0  0  0
    0.8597   -2.4296    8.4271 C   0  0  0  0  0  0  0  0  0  0  0  0
    0.8506   -1.2808    9.2213 C   0  0  0  0  0  0  0  0  0  0  0  0
   -0.2371   -1.0160   10.0649 C   0  0  0  0  0  0  0  0  0  0  0  0
   -0.2415    0.4770   11.0621 S   0  0  0  0  0  0  0  0  0  0  0  0
   -1.3011    1.4346    9.9214 C   0  0  0  0  0  0  0  0  0  0  0  0
   -0.5120    1.9531    8.7263 C   0  0  0  0  0  0  0  0  0  0  0  0
   -1.3052   -1.9199   10.1242 C   0  0  0  0  0  0  0  0  0  0  0  0
   -2.3639   -1.6762   10.9357 F   0  0  0  0  0  0  0  0  0  0  0  0
   -1.3002   -3.0677    9.3250 C   0  0  0  0  0  0  0  0  0  0  0  0
   -1.1807   -4.6751    6.5774 C   0  0  0  0  0  0  0  0  0  0  0  0
   -1.1522   -5.7346    5.6639 C   0  0  0  0  0  0  0  0  0  0  0  0
   -0.1465   -6.7250    5.7470 C   0  0  0  0  0  0  0  0  0  0  0  0
   -0.0282   -7.8155    4.7514 C   0  0  0  0  0  0  0  0  0  0  0  0
    0.1374   -7.5172    3.3904 C   0  0  0  0  0  0  0  0  0  0  0  0
    0.2833   -8.5457    2.4546 C   0  0  0  0  0  0  0  0  0  0  0  0
    0.2676   -9.8793    2.8682 C   0  0  0  0  0  0  0  0  0  0  0  0
    0.4765  -11.1924    1.6592 S   0  0  0  0  0  0  0  0  0  0  0  0
   -1.3096  -11.3417    1.3246 C   0  0  0  0  0  0  0  0  0  0  0  0
   -1.5469  -12.3755    0.2336 C   0  0  0  0  0  0  0  0  0  0  0  0
    0.1041  -10.1862    4.2280 C   0  0  0  0  0  0  0  0  0  0  0  0
   -0.0456   -9.1568    5.1623 C   0  0  0  0  0  0  0  0  0  0  0  0
    0.0946  -11.4751    4.6444 F   0  0  0  0  0  0  0  0  0  0  0  0
    0.7908   -6.5872    6.7847 C   0  0  0  0  0  0  0  0  0  0  0  0
    2.1109   -7.5683    7.1395 S   0  0  0  0  0  0  0  0  0  0  0  0
   -2.1705   -5.6587    4.7018 C   0  0  0  0  0  0  0  0  0  0  0  0
   -2.9672   -4.5231    4.8383 C   0  0  0  0  0  0  0  0  0  0  0  0
   -2.4300   -3.6260    6.1648 S   0  0  0  0  0  0  0  0  0  0  0  0
   -3.9608   -4.0670    3.8566 C   0  0  0  0  0  0  0  0  0  0  0  0
   -4.7216   -2.9010    3.9496 C   0  0  0  0  0  0  0  0  0  0  0  0
   -5.3721   -2.5734    2.7484 C   0  0  0  0  0  0  0  0  0  0  0  0
   -6.0582   -1.3713    2.4759 C   0  0  0  0  0  0  0  0  0  0  0  0
   -6.3184   -0.3709    3.5318 C   0  0  0  0  0  0  0  0  0  0  0  0
   -7.2005   -0.6783    4.5762 C   0  0  0  0  0  0  0  0  0  0  0  0
   -7.4598    0.2587    5.5793 C   0  0  0  0  0  0  0  0  0  0  0  0
   -6.8293    1.5070    5.5551 C   0  0  0  0  0  0  0  0  0  0  0  0
   -7.1896    2.7128    6.8391 S   0  0  0  0  0  0  0  0  0  0  0  0
   -6.0268    2.0076    8.0602 C   0  0  0  0  0  0  0  0  0  0  0  0
   -4.5976    2.4426    7.7728 C   0  0  0  0  0  0  0  0  0  0  0  0
   -5.9405    1.8184    4.5151 C   0  0  0  0  0  0  0  0  0  0  0  0
   -5.3286    3.0287    4.4723 F   0  0  0  0  0  0  0  0  0  0  0  0
   -5.6861    0.8826    3.5084 C   0  0  0  0  0  0  0  0  0  0  0  0
   -6.4151   -1.1304    1.1357 C   0  0  0  0  0  0  0  0  0  0  0  0
   -6.1512   -2.0469    0.1149 C   0  0  0  0  0  0  0  0  0  0  0  0
   -5.5092   -3.2711    0.3919 C   0  0  0  0  0  0  0  0  0  0  0  0
   -5.0634   -4.1877   -0.6784 C   0  0  0  0  0  0  0  0  0  0  0  0
   -4.1153   -3.7665   -1.6303 C   0  0  0  0  0  0  0  0  0  0  0  0
   -3.6760   -4.6434   -2.6242 C   0  0  0  0  0  0  0  0  0  0  0  0
   -4.1629   -5.9561   -2.6690 C   0  0  0  0  0  0  0  0  0  0  0  0
   -3.5826   -7.0830   -3.9393 S   0  0  0  0  0  0  0  0  0  0  0  0
   -2.1084   -7.6441   -3.0156 C   0  0  0  0  0  0  0  0  0  0  0  0
   -2.4715   -8.7036   -1.9824 C   0  0  0  0  0  0  0  0  0  0  0  0
   -5.1098   -6.3805   -1.7242 C   0  0  0  0  0  0  0  0  0  0  0  0
   -5.5510   -5.5011   -0.7299 C   0  0  0  0  0  0  0  0  0  0  0  0
   -5.6066   -7.6415   -1.7665 F   0  0  0  0  0  0  0  0  0  0  0  0
   -5.1325   -3.4984    1.7255 C   0  0  0  0  0  0  0  0  0  0  0  0
   -4.1170   -4.7063    2.3037 S   0  0  0  0  0  0  0  0  0  0  0  0
   -6.4238   -1.5413   -1.1639 C   0  0  0  0  0  0  0  0  0  0  0  0
   -6.7797   -0.1945   -1.1679 C   0  0  0  0  0  0  0  0  0  0  0  0
   -6.9027    0.3244    0.4369 S   0  0  0  0  0  0  0  0  0  0  0  0
   -6.3119    0.7082   -2.2326 C   0  0  0  0  0  0  0  0  0  0  0  0
   -5.0834    0.5149   -2.8519 C   0  0  0  0  0  0  0  0  0  0  0  0
   -4.5512    1.6741   -3.4222 C   0  0  0  0  0  0  0  0  0  0  0  0
   -3.2597    1.7895   -3.9652 C   0  0  0  0  0  0  0  0  0  0  0  0
   -2.3432    0.6314   -4.0062 C   0  0  0  0  0  0  0  0  0  0  0  0
   -1.8916    0.0514   -2.8104 C   0  0  0  0  0  0  0  0  0  0  0  0
   -1.1881   -1.1539   -2.8297 C   0  0  0  0  0  0  0  0  0  0  0  0
   -0.9074   -1.7847   -4.0477 C   0  0  0  0  0  0  0  0  0  0  0  0
   -0.0589   -3.3680   -4.0565 S   0  0  0  0  0  0  0  0  0  0  0  0
    1.5978   -2.6098   -4.0075 C   0  0  0  0  0  0  0  0  0  0  0  0
    2.6619   -3.6903   -3.8851 C   0  0  0  0  0  0  0  0  0  0  0  0
   -1.3246   -1.1903   -5.2508 C   0  0  0  0  0  0  0  0  0  0  0  0
   -1.0684   -1.7948   -6.4359 F   0  0  0  0  0  0  0  0  0  0  0  0
   -2.0376    0.0123   -5.2278 C   0  0  0  0  0  0  0  0  0  0  0  0
   -2.8758    3.0620   -4.4085 C   0  0  0  0  0  0  0  0  0  0  0  0
   -3.7296    4.1697   -4.3545 C   0  0  0  0  0  0  0  0  0  0  0  0
   -5.0426    4.0421   -3.8347 C   0  0  0  0  0  0  0  0  0  0  0  0
   -6.0235    5.1523   -3.9043 C   0  0  0  0  0  0  0  0  0  0  0  0
   -6.2998    5.7574   -5.1422 C   0  0  0  0  0  0  0  0  0  0  0  0
   -7.2600    6.7632   -5.2386 C   0  0  0  0  0  0  0  0  0  0  0  0
   -7.9836    7.1598   -4.1098 C   0  0  0  0  0  0  0  0  0  0  0  0
   -9.2129    8.4641   -4.2459 S   0  0  0  0  0  0  0  0  0  0  0  0
  -10.5011    7.4283   -5.0355 C   0  0  0  0  0  0  0  0  0  0  0  0
  -11.2027    6.5412   -4.0143 C   0  0  0  0  0  0  0  0  0  0  0  0
   -7.7103    6.5660   -2.8649 C   0  0  0  0  0  0  0  0  0  0  0  0
   -6.7250    5.5782   -2.7638 C   0  0  0  0  0  0  0  0  0  0  0  0
   -8.3868    6.9542   -1.7546 F   0  0  0  0  0  0  0  0  0  0  0  0
   -5.4002    2.7777   -3.3260 C   0  0  0  0  0  0  0  0  0  0  0  0
   -6.7776    2.3197   -2.4550 S   0  0  0  0  0  0  0  0  0  0  0  0
   -3.1159    5.3552   -4.7945 C   0  0  0  0  0  0  0  0  0  0  0  0
   -1.7880    5.1718   -5.1825 C   0  0  0  0  0  0  0  0  0  0  0  0
   -1.3722    3.5454   -4.9861 S   0  0  0  0  0  0  0  0  0  0  0  0
   -0.8903    6.2381   -5.6657 C   0  0  0  0  0  0  0  0  0  0  0  0
    0.4146    6.0730   -5.9213 C   0  0  0  0  0  0  0  0  0  0  0  0
    0.9080    7.3457   -6.3941 C   0  0  0  0  0  0  0  0  0  0  0  0
    2.1230    7.9109   -6.3024 N   0  0  0  0  0  0  0  0  0  0  0  0
    1.8782    9.2449   -6.2693 C   0  0  0  0  0  0  0  0  0  0  0  0
    0.5071    9.5014   -6.3046 C   0  0  0  0  0  0  0  0  0  0  0  0
   -0.0711    8.2559   -6.3959 C   0  0  0  0  0  0  0  0  0  0  0  0
   -1.3434    7.6689   -5.9131 C   0  0  0  0  0  0  0  0  0  0  0  0
    2.9063   10.3019   -6.1920 C   0  0  0  0  0  0  0  0  0  0  0  0
    4.0776   10.2040   -5.5516 C   0  0  0  0  0  0  0  0  0  0  0  0
    4.4477    9.1103   -4.6356 C   0  0  0  0  0  0  0  0  0  0  0  0
    5.6524    8.5372   -4.6567 C   0  0  0  0  0  0  0  0  0  0  0  0
    5.6980    7.6009   -3.5526 C   0  0  0  0  0  0  0  0  0  0  0  0
    6.2756    6.3891   -3.5078 N   0  0  0  0  0  0  0  0  0  0  0  0
    5.4486    5.6341   -2.7417 C   0  0  0  0  0  0  0  0  0  0  0  0
    4.3257    6.3675   -2.3643 C   0  0  0  0  0  0  0  0  0  0  0  0
    4.5320    7.6287   -2.8757 C   0  0  0  0  0  0  0  0  0  0  0  0
    3.6023    8.6214   -3.4700 C   0  0  0  0  0  0  0  0  0  0  0  0
    5.6061    4.1882   -2.4869 C   0  0  0  0  0  0  0  0  0  0  0  0
    6.6767    3.4900   -2.8826 C   0  0  0  0  0  0  0  0  0  0  0  0
    6.8447    2.0462   -2.6199 C   0  0  0  0  0  0  0  0  0  0  0  0
    5.9964    1.2012   -1.8987 C   0  0  0  0  0  0  0  0  0  0  0  0
    6.4766   -0.1174   -1.8105 C   0  0  0  0  0  0  0  0  0  0  0  0
    5.8731   -1.1822   -1.1069 C   0  0  0  0  0  0  0  0  0  0  0  0
    4.6055   -1.0154   -0.3645 C   0  0  0  0  0  0  0  0  0  0  0  0
    3.4214   -0.6898   -1.0430 C   0  0  0  0  0  0  0  0  0  0  0  0
    2.2183   -0.5588   -0.3416 C   0  0  0  0  0  0  0  0  0  0  0  0
    2.1925   -0.7368    1.0486 C   0  0  0  0  0  0  0  0  0  0  0  0
    0.6404   -0.5831    1.9385 S   0  0  0  0  0  0  0  0  0  0  0  0
    0.9203    1.1429    2.4764 C   0  0  0  0  0  0  0  0  0  0  0  0
    0.7136    2.1264    1.3296 C   0  0  0  0  0  0  0  0  0  0  0  0
    3.3736   -1.0667    1.7307 C   0  0  0  0  0  0  0  0  0  0  0  0
    3.3644   -1.2500    3.0741 F   0  0  0  0  0  0  0  0  0  0  0  0
    4.5754   -1.1970    1.0260 C   0  0  0  0  0  0  0  0  0  0  0  0
    6.5520   -2.4130   -1.1180 C   0  0  0  0  0  0  0  0  0  0  0  0
    7.7729   -2.5985   -1.7708 C   0  0  0  0  0  0  0  0  0  0  0  0
    8.3878   -1.5298   -2.4557 C   0  0  0  0  0  0  0  0  0  0  0  0
    9.7215   -1.6616   -3.0824 C   0  0  0  0  0  0  0  0  0  0  0  0
    9.8865   -1.4461   -4.4594 C   0  0  0  0  0  0  0  0  0  0  0  0
   11.1555   -1.5509   -5.0413 C   0  0  0  0  0  0  0  0  0  0  0  0
   12.2647   -1.8815   -4.2533 C   0  0  0  0  0  0  0  0  0  0  0  0
   13.8895   -2.0147   -5.0094 S   0  0  0  0  0  0  0  0  0  0  0  0
   13.6796   -3.7462   -5.5618 C   0  0  0  0  0  0  0  0  0  0  0  0
   13.8050   -4.7270   -4.4006 C   0  0  0  0  0  0  0  0  0  0  0  0
   12.1071   -2.0716   -2.8748 C   0  0  0  0  0  0  0  0  0  0  0  0
   10.8407   -1.9704   -2.2935 C   0  0  0  0  0  0  0  0  0  0  0  0
   13.1772   -2.3594   -2.0941 F   0  0  0  0  0  0  0  0  0  0  0  0
    7.6985   -0.3022   -2.4651 C   0  0  0  0  0  0  0  0  0  0  0  0
    8.1839    1.1616   -3.1345 S   0  0  0  0  0  0  0  0  0  0  0  0
    8.2617   -3.9124   -1.6650 C   0  0  0  0  0  0  0  0  0  0  0  0
    7.4241   -4.7516   -0.9346 C   0  0  0  0  0  0  0  0  0  0  0  0
    6.0800   -3.8705   -0.4215 S   0  0  0  0  0  0  0  0  0  0  0  0
    3.5174   -6.8917    9.0675 H   0  0  0  0  0  0  0  0  0  0  0  0
    1.9495   -4.8499    9.4254 H   0  0  0  0  0  0  0  0  0  0  0  0
    1.6990   -2.6133    7.7689 H   0  0  0  0  0  0  0  0  0  0  0  0
    1.6832   -0.5889    9.1730 H   0  0  0  0  0  0  0  0  0  0  0  0
   -1.7122    2.3012   10.4798 H   0  0  0  0  0  0  0  0  0  0  0  0
   -2.1544    0.8127    9.5761 H   0  0  0  0  0  0  0  0  0  0  0  0
   -0.1500    1.1130    8.0992 H   0  0  0  0  0  0  0  0  0  0  0  0
   -1.1675    2.6007    8.1056 H   0  0  0  0  0  0  0  0  0  0  0  0
    0.3555    2.5537    9.0738 H   0  0  0  0  0  0  0  0  0  0  0  0
   -2.1395   -3.7493    9.3641 H   0  0  0  0  0  0  0  0  0  0  0  0
    0.1708   -6.4880    3.0520 H   0  0  0  0  0  0  0  0  0  0  0  0
    0.4174   -8.3042    1.4056 H   0  0  0  0  0  0  0  0  0  0  0  0
   -1.8368  -11.6534    2.2521 H   0  0  0  0  0  0  0  0  0  0  0  0
   -1.7105  -10.3612    0.9872 H   0  0  0  0  0  0  0  0  0  0  0  0
   -1.1688  -13.3687    0.5591 H   0  0  0  0  0  0  0  0  0  0  0  0
   -1.0336  -12.0716   -0.7029 H   0  0  0  0  0  0  0  0  0  0  0  0
   -2.6368  -12.4612    0.0317 H   0  0  0  0  0  0  0  0  0  0  0  0
   -0.1721   -9.4045    6.2087 H   0  0  0  0  0  0  0  0  0  0  0  0
   -2.3019   -6.3777    3.9027 H   0  0  0  0  0  0  0  0  0  0  0  0
   -4.7226   -2.2627    4.8257 H   0  0  0  0  0  0  0  0  0  0  0  0
   -7.6953   -1.6405    4.6085 H   0  0  0  0  0  0  0  0  0  0  0  0
   -8.1500    0.0138    6.3765 H   0  0  0  0  0  0  0  0  0  0  0  0
   -6.3180    2.3753    9.0675 H   0  0  0  0  0  0  0  0  0  0  0  0
   -6.0902    0.8986    8.0706 H   0  0  0  0  0  0  0  0  0  0  0  0
   -4.5349    3.5500    7.7072 H   0  0  0  0  0  0  0  0  0  0  0  0
   -4.2401    1.9916    6.8235 H   0  0  0  0  0  0  0  0  0  0  0  0
   -3.9411    2.0973    8.5958 H   0  0  0  0  0  0  0  0  0  0  0  0
   -4.9936    1.1282    2.7121 H   0  0  0  0  0  0  0  0  0  0  0  0
   -3.7166   -2.7590   -1.5963 H   0  0  0  0  0  0  0  0  0  0  0  0
   -2.9567   -4.3035   -3.3579 H   0  0  0  0  0  0  0  0  0  0  0  0
   -1.6006   -6.7843   -2.5268 H   0  0  0  0  0  0  0  0  0  0  0  0
   -1.4011   -8.0909   -3.7478 H   0  0  0  0  0  0  0  0  0  0  0  0
   -1.5448   -9.1227   -1.5396 H   0  0  0  0  0  0  0  0  0  0  0  0
   -3.0434   -9.5243   -2.4639 H   0  0  0  0  0  0  0  0  0  0  0  0
   -3.0797   -8.2605   -1.1675 H   0  0  0  0  0  0  0  0  0  0  0  0
   -6.2701   -5.8408    0.0029 H   0  0  0  0  0  0  0  0  0  0  0  0
   -6.1930   -2.0819   -2.0733 H   0  0  0  0  0  0  0  0  0  0  0  0
   -4.5392   -0.4152   -2.7828 H   0  0  0  0  0  0  0  0  0  0  0  0
   -2.1298    0.5116   -1.8588 H   0  0  0  0  0  0  0  0  0  0  0  0
   -0.8693   -1.6031   -1.8984 H   0  0  0  0  0  0  0  0  0  0  0  0
    1.6700   -1.9305   -3.1323 H   0  0  0  0  0  0  0  0  0  0  0  0
    1.7731   -2.0216   -4.9373 H   0  0  0  0  0  0  0  0  0  0  0  0
    2.4825   -4.3035   -2.9740 H   0  0  0  0  0  0  0  0  0  0  0  0
    2.6436   -4.3438   -4.7835 H   0  0  0  0  0  0  0  0  0  0  0  0
    3.6672   -3.2195   -3.8080 H   0  0  0  0  0  0  0  0  0  0  0  0
   -2.3933    0.4406   -6.1582 H   0  0  0  0  0  0  0  0  0  0  0  0
   -5.7788    5.4423   -6.0360 H   0  0  0  0  0  0  0  0  0  0  0  0
   -7.4555    7.2256   -6.1985 H   0  0  0  0  0  0  0  0  0  0  0  0
  -11.2524    8.1159   -5.4884 H   0  0  0  0  0  0  0  0  0  0  0  0
  -10.0665    6.8083   -5.8494 H   0  0  0  0  0  0  0  0  0  0  0  0
  -11.5377    7.1516   -3.1525 H   0  0  0  0  0  0  0  0  0  0  0  0
  -12.0833    6.0539   -4.4821 H   0  0  0  0  0  0  0  0  0  0  0  0
  -10.5090    5.7533   -3.6504 H   0  0  0  0  0  0  0  0  0  0  0  0
   -6.5152    5.1415   -1.7955 H   0  0  0  0  0  0  0  0  0  0  0  0
   -3.6038    6.3234   -4.8003 H   0  0  0  0  0  0  0  0  0  0  0  0
    0.9902    5.1680   -5.7741 H   0  0  0  0  0  0  0  0  0  0  0  0
    3.0409    7.4156   -6.2077 H   0  0  0  0  0  0  0  0  0  0  0  0
    0.0166   10.4517   -6.1416 H   0  0  0  0  0  0  0  0  0  0  0  0
   -2.1298    7.7161   -6.6969 H   0  0  0  0  0  0  0  0  0  0  0  0
   -1.6717    8.1458   -4.9656 H   0  0  0  0  0  0  0  0  0  0  0  0
    2.7026   11.2173   -6.7286 H   0  0  0  0  0  0  0  0  0  0  0  0
    4.7997   10.9976   -5.6843 H   0  0  0  0  0  0  0  0  0  0  0  0
    6.4289    8.7118   -5.3916 H   0  0  0  0  0  0  0  0  0  0  0  0
    7.0841    6.0741   -4.0887 H   0  0  0  0  0  0  0  0  0  0  0  0
    3.4146    5.9831   -1.9255 H   0  0  0  0  0  0  0  0  0  0  0  0
    2.6620    8.1374   -3.7958 H   0  0  0  0  0  0  0  0  0  0  0  0
    3.4008    9.4484   -2.7573 H   0  0  0  0  0  0  0  0  0  0  0  0
    4.8027    3.7004   -1.9521 H   0  0  0  0  0  0  0  0  0  0  0  0
    7.4772    3.9782   -3.4188 H   0  0  0  0  0  0  0  0  0  0  0  0
    5.0773    1.5287   -1.4300 H   0  0  0  0  0  0  0  0  0  0  0  0
    3.4333   -0.5498   -2.1146 H   0  0  0  0  0  0  0  0  0  0  0  0
    1.3081   -0.3232   -0.8752 H   0  0  0  0  0  0  0  0  0  0  0  0
    1.9414    1.2613    2.8993 H   0  0  0  0  0  0  0  0  0  0  0  0
    0.1853    1.3753    3.2777 H   0  0  0  0  0  0  0  0  0  0  0  0
   -0.2764    1.9608    0.8528 H   0  0  0  0  0  0  0  0  0  0  0  0
    1.5175    2.0105    0.5708 H   0  0  0  0  0  0  0  0  0  0  0  0
    0.7511    3.1643    1.7250 H   0  0  0  0  0  0  0  0  0  0  0  0
    5.4845   -1.4382    1.5622 H   0  0  0  0  0  0  0  0  0  0  0  0
    9.0332   -1.2030   -5.0791 H   0  0  0  0  0  0  0  0  0  0  0  0
   11.2704   -1.3891   -6.1046 H   0  0  0  0  0  0  0  0  0  0  0  0
   12.6969   -3.8777   -6.0652 H   0  0  0  0  0  0  0  0  0  0  0  0
   14.4770   -3.9702   -6.3027 H   0  0  0  0  0  0  0  0  0  0  0  0
   14.7466   -4.5449   -3.8378 H   0  0  0  0  0  0  0  0  0  0  0  0
   13.8222   -5.7663   -4.7935 H   0  0  0  0  0  0  0  0  0  0  0  0
   12.9371   -4.6289   -3.7141 H   0  0  0  0  0  0  0  0  0  0  0  0
   10.7284   -2.1180   -1.2266 H   0  0  0  0  0  0  0  0  0  0  0  0
    9.1898   -4.2538   -2.1070 H   0  0  0  0  0  0  0  0  0  0  0  0
    7.6024   -5.7999   -0.7445 H   0  0  0  0  0  0  0  0  0  0  0  0
  1  2  2  0
  2  3  1  0
  3  4  2  0
  4  5  1  0
  5  6  2  0
  6  7  1  0
  7  8  2  0
  8  9  1  0
  9 10  1  0
 10 11  1  0
  8 12  1  0
 12 13  1  0
 12 14  2  0
  4 15  1  0
 15 16  2  0
 16 17  1  0
 17 18  1  0
 18 19  2  0
 19 20  1  0
 20 21  2  0
 21 22  1  0
 22 23  1  0
 23 24  1  0
 21 25  1  0
 25 26  2  0
 25 27  1  0
 17 28  2  0
 28 29  1  0
 16 30  1  0
 30 31  2  0
 31 32  1  0
 31 33  1  0
 33 34  2  0
 34 35  1  0
 35 36  2  0
 36 37  1  0
 37 38  2  0
 38 39  1  0
 39 40  2  0
 40 41  1  0
 41 42  1  0
 42 43  1  0
 40 44  1  0
 44 45  1  0
 44 46  2  0
 36 47  1  0
 47 48  2  0
 48 49  1  0
 49 50  1  0
 50 51  2  0
 51 52  1  0
 52 53  2  0
 53 54  1  0
 54 55  1  0
 55 56  1  0
 53 57  1  0
 57 58  2  0
 57 59  1  0
 49 60  2  0
 60 61  1  0
 48 62  1  0
 62 63  2  0
 63 64  1  0
 63 65  1  0
 65 66  2  0
 66 67  1  0
 67 68  2  0
 68 69  1  0
 69 70  2  0
 70 71  1  0
 71 72  2  0
 72 73  1  0
 73 74  1  0
 74 75  1  0
 72 76  1  0
 76 77  1  0
 76 78  2  0
 68 79  1  0
 79 80  2  0
 80 81  1  0
 81 82  1  0
 82 83  2  0
 83 84  1  0
 84 85  2  0
 85 86  1  0
 86 87  1  0
 87 88  1  0
 85 89  1  0
 89 90  2  0
 89 91  1  0
 81 92  2  0
 92 93  1  0
 80 94  1  0
 94 95  2  0
 95 96  1  0
 95 97  1  0
 97 98  2  0
 98 99  1  0
 99100  1  0
100101  1  0
101102  2  0
102103  1  0
103104  1  0
101105  1  0
105106  2  3
106107  1  0
107108  2  0
108109  1  0
109110  1  0
110111  1  0
111112  2  0
112113  1  0
113114  1  0
111115  1  0
115116  2  3
116117  1  0
117118  2  0
118119  1  0
119120  2  0
120121  1  0
121122  2  0
122123  1  0
123124  2  0
124125  1  0
125126  1  0
126127  1  0
124128  1  0
128129  1  0
128130  2  0
120131  1  0
131132  2  0
132133  1  0
133134  1  0
134135  2  0
135136  1  0
136137  2  0
137138  1  0
138139  1  0
139140  1  0
137141  1  0
141142  2  0
141143  1  0
133144  2  0
144145  1  0
132146  1  0
146147  2  0
147148  1  0
 29  1  1  0
 61 33  1  0
 93 65  1  0
104 97  1  0
114107  1  0
145117  1  0
 28  3  1  0
 60 35  1  0
 92 67  1  0
103 99  2  0
113109  2  0
144119  1  0
 14  5  1  0
 32 15  1  0
 46 37  1  0
 64 47  1  0
 78 69  1  0
 96 79  1  0
130121  1  0
148131  1  0
 26 18  1  0
 58 50  1  0
 90 82  1  0
142134  1  0
  1149  1  0
  2150  1  0
  6151  1  0
  7152  1  0
 10153  1  0
 10154  1  0
 11155  1  0
 11156  1  0
 11157  1  0
 14158  1  0
 19159  1  0
 20160  1  0
 23161  1  0
 23162  1  0
 24163  1  0
 24164  1  0
 24165  1  0
 26166  1  0
 30167  1  0
 34168  1  0
 38169  1  0
 39170  1  0
 42171  1  0
 42172  1  0
 43173  1  0
 43174  1  0
 43175  1  0
 46176  1  0
 51177  1  0
 52178  1  0
 55179  1  0
 55180  1  0
 56181  1  0
 56182  1  0
 56183  1  0
 58184  1  0
 62185  1  0
 66186  1  0
 70187  1  0
 71188  1  0
 74189  1  0
 74190  1  0
 75191  1  0
 75192  1  0
 75193  1  0
 78194  1  0
 83195  1  0
 84196  1  0
 87197  1  0
 87198  1  0
 88199  1  0
 88200  1  0
 88201  1  0
 90202  1  0
 94203  1  0
 98204  1  0
100205  1  0
102206  1  0
104207  1  0
104208  1  0
105209  1  0
106210  1  0
108211  1  0
110212  1  0
112213  1  0
114214  1  0
114215  1  0
115216  1  0
116217  1  0
118218  1  0
122219  1  0
123220  1  0
126221  1  0
126222  1  0
127223  1  0
127224  1  0
127225  1  0
130226  1  0
135227  1  0
136228  1  0
139229  1  0
139230  1  0
140231  1  0
140232  1  0
140233  1  0
142234  1  0
146235  1  0
147236  1  0
M  END

