
     RDKit          3D

236259  0  0  0  0  0  0  0  0999 V2000
    0.8807    0.4672    9.3866 C   0  0  0  0  0  0  0  0  0  0  0  0
    1.1812    0.3010    8.0376 C   0  0  0  0  0  0  0  0  0  0  0  0
    0.0398    0.3021    7.2165 C   0  0  0  0  0  0  0  0  0  0  0  0
    0.0191    0.1514    5.8152 C   0  0  0  0  0  0  0  0  0  0  0  0
    1.2490    0.0109    5.0166 C   0  0  0  0  0  0  0  0  0  0  0  0
    1.9012   -1.2242    4.9286 C   0  0  0  0  0  0  0  0  0  0  0  0
    3.0420   -1.3604    4.1285 C   0  0  0  0  0  0  0  0  0  0  0  0
    3.5399   -0.2608    3.4217 C   0  0  0  0  0  0  0  0  0  0  0  0
    5.0004   -0.4428    2.3900 S   0  0  0  0  0  0  0  0  0  0  0  0
    6.1758    0.1379    3.6593 C   0  0  0  0  0  0  0  0  0  0  0  0
    6.5223   -0.9800    4.6351 C   0  0  0  0  0  0  0  0  0  0  0  0
    2.8781    0.9728    3.4941 C   0  0  0  0  0  0  0  0  0  0  0  0
    3.3421    2.0450    2.8051 F   0  0  0  0  0  0  0  0  0  0  0  0
    1.7378    1.1083    4.2915 C   0  0  0  0  0  0  0  0  0  0  0  0
   -1.2365    0.1851    5.1942 C   0  0  0  0  0  0  0  0  0  0  0  0
   -2.4256    0.3965    5.8987 C   0  0  0  0  0  0  0  0  0  0  0  0
   -2.4091    0.5353    7.3009 C   0  0  0  0  0  0  0  0  0  0  0  0
   -3.6554    0.6495    8.0856 C   0  0  0  0  0  0  0  0  0  0  0  0
   -4.0765   -0.4232    8.8831 C   0  0  0  0  0  0  0  0  0  0  0  0
   -5.2662   -0.3374    9.6087 C   0  0  0  0  0  0  0  0  0  0  0  0
   -6.0468    0.8206    9.5433 C   0  0  0  0  0  0  0  0  0  0  0  0
   -7.5909    0.9046   10.4637 S   0  0  0  0  0  0  0  0  0  0  0  0
   -6.8419    1.5229   12.0130 C   0  0  0  0  0  0  0  0  0  0  0  0
   -6.6118    3.0272   11.9505 C   0  0  0  0  0  0  0  0  0  0  0  0
   -5.6410    1.8882    8.7262 C   0  0  0  0  0  0  0  0  0  0  0  0
   -4.4479    1.8025    8.0043 C   0  0  0  0  0  0  0  0  0  0  0  0
   -6.4088    2.9999    8.6185 F   0  0  0  0  0  0  0  0  0  0  0  0
   -1.1508    0.4759    7.9295 C   0  0  0  0  0  0  0  0  0  0  0  0
   -0.7906    0.6280    9.5666 S   0  0  0  0  0  0  0  0  0  0  0  0
   -3.5618    0.4045    5.0736 C   0  0  0  0  0  0  0  0  0  0  0  0
   -3.2582    0.1368    3.7417 C   0  0  0  0  0  0  0  0  0  0  0  0
   -1.5910   -0.0519    3.5702 S   0  0  0  0  0  0  0  0  0  0  0  0
   -4.2211    0.0634    2.6408 C   0  0  0  0  0  0  0  0  0  0  0  0
   -4.0788   -0.7385    1.6019 C   0  0  0  0  0  0  0  0  0  0  0  0
   -5.0551   -0.4293    0.5276 C   0  0  2  0  0  0  0  0  0  0  0  0
   -6.0422    0.5397    1.1837 C   0  0  2  0  0  0  0  0  0  0  0  0
   -5.3649    0.9993    2.4849 C   0  0  0  0  0  0  0  0  0  0  0  0
   -7.3590   -0.2512    1.4273 C   0  0  2  0  0  0  0  0  0  0  0  0
   -7.2912   -1.4990    0.5464 C   0  0  1  0  0  0  0  0  0  0  0  0
   -8.2246   -1.1937   -0.5754 C   0  0  0  0  0  0  0  0  0  0  0  0
   -8.9356   -0.1010   -0.3515 C   0  0  0  0  0  0  0  0  0  0  0  0
   -8.6075    0.5156    0.9592 C   0  0  0  0  0  0  0  0  0  0  0  0
   -5.8725   -1.5998    0.0978 C   0  0  0  0  0  0  0  0  0  0  0  0
   -5.4639   -2.5714   -0.7285 C   0  0  0  0  0  0  0  0  0  0  0  0
   -4.0942   -2.6739   -1.2600 C   0  0  0  0  0  0  0  0  0  0  0  0
   -3.8864   -3.2601   -2.4389 C   0  0  0  0  0  0  0  0  0  0  0  0
   -2.5393   -3.5041   -2.9812 C   0  0  0  0  0  0  0  0  0  0  0  0
   -2.3177   -3.6988   -4.2691 C   0  0  0  0  0  0  0  0  0  0  0  0
   -0.9503   -4.2297   -4.5278 C   0  0  2  0  0  0  0  0  0  0  0  0
   -0.4034   -4.5292   -3.1310 C   0  0  2  0  0  0  0  0  0  0  0  0
   -1.3281   -3.7728   -2.1572 C   0  0  0  0  0  0  0  0  0  0  0  0
    1.0588   -4.0366   -3.1051 C   0  0  2  0  0  0  0  0  0  0  0  0
    1.2439   -3.0879   -4.3031 C   0  0  1  0  0  0  0  0  0  0  0  0
    2.4446   -3.6333   -5.0112 C   0  0  0  0  0  0  0  0  0  0  0  0
    2.8979   -4.7469   -4.4632 C   0  0  0  0  0  0  0  0  0  0  0  0
    2.0678   -5.1873   -3.3154 C   0  0  0  0  0  0  0  0  0  0  0  0
   -0.0124   -3.2165   -5.1165 C   0  0  0  0  0  0  0  0  0  0  0  0
   -0.3097   -2.5023   -6.2175 C   0  0  0  0  0  0  0  0  0  0  0  0
    0.5984   -1.4924   -6.8084 C   0  0  0  0  0  0  0  0  0  0  0  0
    0.1929   -0.6922   -7.8013 C   0  0  0  0  0  0  0  0  0  0  0  0
    1.1062    0.2740   -8.4561 C   0  0  0  0  0  0  0  0  0  0  0  0
    0.6971    1.3987   -9.0182 C   0  0  0  0  0  0  0  0  0  0  0  0
    1.8317    2.2437   -9.4970 C   0  0  2  0  0  0  0  0  0  0  0  0
    3.0546    1.3219   -9.3937 C   0  0  2  0  0  0  0  0  0  0  0  0
    2.5805    0.1062   -8.5632 C   0  0  0  0  0  0  0  0  0  0  0  0
    4.1701    2.1216   -8.6798 C   0  0  2  0  0  0  0  0  0  0  0  0
    3.4901    3.2845   -7.9613 C   0  0  1  0  0  0  0  0  0  0  0  0
    4.3092    4.4767   -8.3341 C   0  0  0  0  0  0  0  0  0  0  0  0
    5.2324    4.1895   -9.2347 C   0  0  0  0  0  0  0  0  0  0  0  0
    5.1882    2.7655   -9.6448 C   0  0  0  0  0  0  0  0  0  0  0  0
    2.1115    3.3662   -8.5465 C   0  0  0  0  0  0  0  0  0  0  0  0
    1.1624    4.2385   -8.1604 C   0  0  0  0  0  0  0  0  0  0  0  0
    1.2503    4.9622   -6.8785 C   0  0  0  0  0  0  0  0  0  0  0  0
    0.1269    5.1978   -6.1965 C   0  0  0  0  0  0  0  0  0  0  0  0
    0.0466    4.8983   -4.7578 C   0  0  0  0  0  0  0  0  0  0  0  0
    1.1338    4.6772   -3.9034 C   0  0  0  0  0  0  0  0  0  0  0  0
    0.8339    3.7985   -2.8493 C   0  0  0  0  0  0  0  0  0  0  0  0
    1.7668    3.2122   -1.9714 C   0  0  0  0  0  0  0  0  0  0  0  0
    3.1975    3.5788   -1.9635 C   0  0  0  0  0  0  0  0  0  0  0  0
    4.0229    3.2647   -3.0521 C   0  0  0  0  0  0  0  0  0  0  0  0
    5.3910    3.5459   -2.9986 C   0  0  0  0  0  0  0  0  0  0  0  0
    5.9434    4.1453   -1.8592 C   0  0  0  0  0  0  0  0  0  0  0  0
    7.7025    4.5018   -1.8037 S   0  0  0  0  0  0  0  0  0  0  0  0
    7.5384    6.2473   -2.3188 C   0  0  0  0  0  0  0  0  0  0  0  0
    7.3270    6.3618   -3.8235 C   0  0  0  0  0  0  0  0  0  0  0  0
    5.1262    4.4348   -0.7596 C   0  0  0  0  0  0  0  0  0  0  0  0
    5.6533    4.9899    0.3628 F   0  0  0  0  0  0  0  0  0  0  0  0
    3.7585    4.1549   -0.8135 C   0  0  0  0  0  0  0  0  0  0  0  0
    1.3056    2.1529   -1.1802 C   0  0  0  0  0  0  0  0  0  0  0  0
   -0.0172    1.6975   -1.2032 C   0  0  0  0  0  0  0  0  0  0  0  0
   -0.9694    2.3430   -2.0173 C   0  0  0  0  0  0  0  0  0  0  0  0
   -2.3511    1.8538   -2.1731 C   0  0  0  0  0  0  0  0  0  0  0  0
   -3.4234    2.6377   -1.7241 C   0  0  0  0  0  0  0  0  0  0  0  0
   -4.7376    2.2644   -2.0157 C   0  0  0  0  0  0  0  0  0  0  0  0
   -4.9897    1.1282   -2.7909 C   0  0  0  0  0  0  0  0  0  0  0  0
   -6.6814    0.6616   -3.1702 S   0  0  0  0  0  0  0  0  0  0  0  0
   -6.7577    1.5608   -4.7588 C   0  0  0  0  0  0  0  0  0  0  0  0
   -7.0791    3.0333   -4.5354 C   0  0  0  0  0  0  0  0  0  0  0  0
   -3.9208    0.3388   -3.2385 C   0  0  0  0  0  0  0  0  0  0  0  0
   -2.6058    0.6922   -2.9171 C   0  0  0  0  0  0  0  0  0  0  0  0
   -4.1485   -0.7416   -4.0212 F   0  0  0  0  0  0  0  0  0  0  0  0
   -0.5018    3.3860   -2.8363 C   0  0  0  0  0  0  0  0  0  0  0  0
   -1.2904    4.0838   -4.1387 S   0  0  0  0  0  0  0  0  0  0  0  0
   -0.2091    0.5099   -0.4684 C   0  0  0  0  0  0  0  0  0  0  0  0
    0.9833    0.0262    0.0716 C   0  0  0  0  0  0  0  0  0  0  0  0
    2.2430    1.0787   -0.3027 S   0  0  0  0  0  0  0  0  0  0  0  0
    1.2006   -1.3001    0.6473 C   0  0  0  0  0  0  0  0  0  0  0  0
    2.4119   -1.9816    0.5944 C   0  0  0  0  0  0  0  0  0  0  0  0
    2.3639   -3.2382    1.2089 C   0  0  0  0  0  0  0  0  0  0  0  0
    3.4272   -4.1620    1.2985 C   0  0  0  0  0  0  0  0  0  0  0  0
    4.6946   -3.9710    0.5438 C   0  0  0  0  0  0  0  0  0  0  0  0
    4.6520   -3.6852   -0.8307 C   0  0  0  0  0  0  0  0  0  0  0  0
    5.8271   -3.5483   -1.5681 C   0  0  0  0  0  0  0  0  0  0  0  0
    7.0669   -3.7153   -0.9459 C   0  0  0  0  0  0  0  0  0  0  0  0
    8.5689   -3.5978   -1.9218 S   0  0  0  0  0  0  0  0  0  0  0  0
    8.6914   -5.3913   -2.2575 C   0  0  0  0  0  0  0  0  0  0  0  0
    7.7617   -5.8103   -3.3914 C   0  0  0  0  0  0  0  0  0  0  0  0
    7.1241   -3.9681    0.4308 C   0  0  0  0  0  0  0  0  0  0  0  0
    8.3201   -4.1184    1.0512 F   0  0  0  0  0  0  0  0  0  0  0  0
    5.9428   -4.0935    1.1729 C   0  0  0  0  0  0  0  0  0  0  0  0
    3.1774   -5.3234    2.0558 C   0  0  0  0  0  0  0  0  0  0  0  0
    1.9404   -5.5787    2.6633 C   0  0  0  0  0  0  0  0  0  0  0  0
    0.8697   -4.6745    2.5207 C   0  0  0  0  0  0  0  0  0  0  0  0
   -0.4397   -4.8896    3.1598 C   0  0  0  0  0  0  0  0  0  0  0  0
   -1.5495   -5.2497    2.3823 C   0  0  0  0  0  0  0  0  0  0  0  0
   -2.8022   -5.4068    2.9815 C   0  0  0  0  0  0  0  0  0  0  0  0
   -2.9566   -5.1876    4.3548 C   0  0  0  0  0  0  0  0  0  0  0  0
   -4.5627   -5.4380    5.1247 S   0  0  0  0  0  0  0  0  0  0  0  0
   -5.1718   -3.7414    4.8239 C   0  0  0  0  0  0  0  0  0  0  0  0
   -4.5960   -2.7669    5.8422 C   0  0  0  0  0  0  0  0  0  0  0  0
   -1.8444   -4.8379    5.1356 C   0  0  0  0  0  0  0  0  0  0  0  0
   -0.5919   -4.6832    4.5361 C   0  0  0  0  0  0  0  0  0  0  0  0
   -1.9738   -4.6474    6.4743 F   0  0  0  0  0  0  0  0  0  0  0  0
    1.1169   -3.5140    1.7759 C   0  0  0  0  0  0  0  0  0  0  0  0
    0.0586   -2.2400    1.4545 S   0  0  0  0  0  0  0  0  0  0  0  0
    1.9012   -6.8029    3.3518 C   0  0  0  0  0  0  0  0  0  0  0  0
    3.0984   -7.5080    3.2840 C   0  0  0  0  0  0  0  0  0  0  0  0
    4.2015   -6.6242    2.3593 S   0  0  0  0  0  0  0  0  0  0  0  0
    1.6034    0.4934   10.1887 H   0  0  0  0  0  0  0  0  0  0  0  0
    2.1918    0.1771    7.6695 H   0  0  0  0  0  0  0  0  0  0  0  0
    1.5210   -2.0817    5.4672 H   0  0  0  0  0  0  0  0  0  0  0  0
    3.5352   -2.3209    4.0617 H   0  0  0  0  0  0  0  0  0  0  0  0
    5.7628    1.0102    4.2092 H   0  0  0  0  0  0  0  0  0  0  0  0
    7.1000    0.4672    3.1406 H   0  0  0  0  0  0  0  0  0  0  0  0
    6.8804   -1.8763    4.0825 H   0  0  0  0  0  0  0  0  0  0  0  0
    7.3265   -0.6343    5.3197 H   0  0  0  0  0  0  0  0  0  0  0  0
    5.6343   -1.2503    5.2444 H   0  0  0  0  0  0  0  0  0  0  0  0
    1.2322    2.0654    4.3401 H   0  0  0  0  0  0  0  0  0  0  0  0
   -3.4879   -1.3316    8.9311 H   0  0  0  0  0  0  0  0  0  0  0  0
   -5.5840   -1.1771   10.2123 H   0  0  0  0  0  0  0  0  0  0  0  0
   -7.5469    1.3060   12.8445 H   0  0  0  0  0  0  0  0  0  0  0  0
   -5.8872    0.9984   12.2322 H   0  0  0  0  0  0  0  0  0  0  0  0
   -6.2952    3.4016   12.9466 H   0  0  0  0  0  0  0  0  0  0  0  0
   -7.5463    3.5469   11.6533 H   0  0  0  0  0  0  0  0  0  0  0  0
   -5.8082    3.2666   11.2227 H   0  0  0  0  0  0  0  0  0  0  0  0
   -4.1420    2.6314    7.3787 H   0  0  0  0  0  0  0  0  0  0  0  0
   -4.5709    0.5580    5.4318 H   0  0  0  0  0  0  0  0  0  0  0  0
   -3.2708   -1.4529    1.5079 H   0  0  0  0  0  0  0  0  0  0  0  0
   -4.5305    0.0381   -0.3257 H   0  0  0  0  0  0  0  0  0  0  0  0
   -6.2047    1.4048    0.5044 H   0  0  0  0  0  0  0  0  0  0  0  0
   -6.0397    0.9719    3.3665 H   0  0  0  0  0  0  0  0  0  0  0  0
   -4.9753    2.0327    2.3657 H   0  0  0  0  0  0  0  0  0  0  0  0
   -7.4694   -0.5583    2.4914 H   0  0  0  0  0  0  0  0  0  0  0  0
   -7.6154   -2.4086    1.0954 H   0  0  0  0  0  0  0  0  0  0  0  0
   -8.3449   -1.8123   -1.4584 H   0  0  0  0  0  0  0  0  0  0  0  0
   -9.6988    0.2684   -1.0305 H   0  0  0  0  0  0  0  0  0  0  0  0
   -9.4528    0.3388    1.6571 H   0  0  0  0  0  0  0  0  0  0  0  0
   -8.4409    1.6086    0.8609 H   0  0  0  0  0  0  0  0  0  0  0  0
   -6.1913   -3.3010   -1.0618 H   0  0  0  0  0  0  0  0  0  0  0  0
   -3.2565   -2.2865   -0.6929 H   0  0  0  0  0  0  0  0  0  0  0  0
   -4.7404   -3.5649   -3.0379 H   0  0  0  0  0  0  0  0  0  0  0  0
   -3.0798   -3.6057   -5.0367 H   0  0  0  0  0  0  0  0  0  0  0  0
   -0.9874   -5.1461   -5.1582 H   0  0  0  0  0  0  0  0  0  0  0  0
   -0.4900   -5.6204   -2.9127 H   0  0  0  0  0  0  0  0  0  0  0  0
   -0.8976   -2.7993   -1.8264 H   0  0  0  0  0  0  0  0  0  0  0  0
   -1.5776   -4.4079   -1.2729 H   0  0  0  0  0  0  0  0  0  0  0  0
    1.2957   -3.5089   -2.1550 H   0  0  0  0  0  0  0  0  0  0  0  0
    1.4098   -2.0404   -3.9705 H   0  0  0  0  0  0  0  0  0  0  0  0
    2.9132   -3.1805   -5.8749 H   0  0  0  0  0  0  0  0  0  0  0  0
    3.7525   -5.2981   -4.8424 H   0  0  0  0  0  0  0  0  0  0  0  0
    2.6962   -5.3420   -2.4167 H   0  0  0  0  0  0  0  0  0  0  0  0
    1.5824   -6.1497   -3.5817 H   0  0  0  0  0  0  0  0  0  0  0  0
   -1.2658   -2.6703   -6.6953 H   0  0  0  0  0  0  0  0  0  0  0  0
    1.6072   -1.4009   -6.4377 H   0  0  0  0  0  0  0  0  0  0  0  0
   -0.8437   -0.7093   -8.1121 H   0  0  0  0  0  0  0  0  0  0  0  0
   -0.3372    1.7203   -9.0218 H   0  0  0  0  0  0  0  0  0  0  0  0
    1.6641    2.6147  -10.5297 H   0  0  0  0  0  0  0  0  0  0  0  0
    3.3651    0.9749  -10.4064 H   0  0  0  0  0  0  0  0  0  0  0  0
    3.0237    0.0865   -7.5375 H   0  0  0  0  0  0  0  0  0  0  0  0
    2.8146   -0.8470   -9.0893 H   0  0  0  0  0  0  0  0  0  0  0  0
    4.7304    1.4925   -7.9526 H   0  0  0  0  0  0  0  0  0  0  0  0
    3.4687    3.1132   -6.8617 H   0  0  0  0  0  0  0  0  0  0  0  0
    4.1544    5.4760   -7.9433 H   0  0  0  0  0  0  0  0  0  0  0  0
    5.9151    4.9294   -9.6498 H   0  0  0  0  0  0  0  0  0  0  0  0
    6.1922    2.3058   -9.5262 H   0  0  0  0  0  0  0  0  0  0  0  0
    4.8703    2.7075  -10.7066 H   0  0  0  0  0  0  0  0  0  0  0  0
    0.2014    4.2089   -8.6667 H   0  0  0  0  0  0  0  0  0  0  0  0
    2.1965    4.9637   -6.3594 H   0  0  0  0  0  0  0  0  0  0  0  0
   -0.8141    5.2061   -6.7389 H   0  0  0  0  0  0  0  0  0  0  0  0
    2.1385    5.0228   -4.1181 H   0  0  0  0  0  0  0  0  0  0  0  0
    3.6100    2.7872   -3.9334 H   0  0  0  0  0  0  0  0  0  0  0  0
    6.0213    3.2980   -3.8445 H   0  0  0  0  0  0  0  0  0  0  0  0
    6.7035    6.7388   -1.7756 H   0  0  0  0  0  0  0  0  0  0  0  0
    8.4793    6.7728   -2.0477 H   0  0  0  0  0  0  0  0  0  0  0  0
    7.3251    7.4314   -4.1173 H   0  0  0  0  0  0  0  0  0  0  0  0
    8.1452    5.8428   -4.3675 H   0  0  0  0  0  0  0  0  0  0  0  0
    6.3516    5.9186   -4.1158 H   0  0  0  0  0  0  0  0  0  0  0  0
    3.1360    4.3701    0.0482 H   0  0  0  0  0  0  0  0  0  0  0  0
   -3.2358    3.5469   -1.1687 H   0  0  0  0  0  0  0  0  0  0  0  0
   -5.5555    2.8730   -1.6555 H   0  0  0  0  0  0  0  0  0  0  0  0
   -7.5651    1.1058   -5.3700 H   0  0  0  0  0  0  0  0  0  0  0  0
   -5.8030    1.4595   -5.3193 H   0  0  0  0  0  0  0  0  0  0  0  0
   -6.2158    3.5530   -4.0703 H   0  0  0  0  0  0  0  0  0  0  0  0
   -7.3002    3.5210   -5.5078 H   0  0  0  0  0  0  0  0  0  0  0  0
   -7.9686    3.1389   -3.8780 H   0  0  0  0  0  0  0  0  0  0  0  0
   -1.7867    0.0869   -3.2871 H   0  0  0  0  0  0  0  0  0  0  0  0
   -1.1482   -0.0306   -0.4193 H   0  0  0  0  0  0  0  0  0  0  0  0
    3.2978   -1.5705    0.1291 H   0  0  0  0  0  0  0  0  0  0  0  0
    3.7059   -3.5661   -1.3394 H   0  0  0  0  0  0  0  0  0  0  0  0
    5.7712   -3.3341   -2.6277 H   0  0  0  0  0  0  0  0  0  0  0  0
    8.4638   -5.9761   -1.3420 H   0  0  0  0  0  0  0  0  0  0  0  0
    9.7387   -5.6144   -2.5539 H   0  0  0  0  0  0  0  0  0  0  0  0
    6.6996   -5.6994   -3.0915 H   0  0  0  0  0  0  0  0  0  0  0  0
    7.9422   -6.8774   -3.6399 H   0  0  0  0  0  0  0  0  0  0  0  0
    7.9547   -5.1971   -4.2963 H   0  0  0  0  0  0  0  0  0  0  0  0
    6.0034   -4.2883    2.2331 H   0  0  0  0  0  0  0  0  0  0  0  0
   -1.4462   -5.4134    1.3185 H   0  0  0  0  0  0  0  0  0  0  0  0
   -3.6525   -5.7027    2.3800 H   0  0  0  0  0  0  0  0  0  0  0  0
   -4.9287   -3.4066    3.7907 H   0  0  0  0  0  0  0  0  0  0  0  0
   -6.2777   -3.7543    4.9326 H   0  0  0  0  0  0  0  0  0  0  0  0
   -3.5299   -2.5530    5.6179 H   0  0  0  0  0  0  0  0  0  0  0  0
   -4.6794   -3.1780    6.8708 H   0  0  0  0  0  0  0  0  0  0  0  0
   -5.1631   -1.8153    5.8011 H   0  0  0  0  0  0  0  0  0  0  0  0
    0.2577   -4.3956    5.1412 H   0  0  0  0  0  0  0  0  0  0  0  0
    1.0308   -7.1727    3.8754 H   0  0  0  0  0  0  0  0  0  0  0  0
    3.2855   -8.4715    3.7375 H   0  0  0  0  0  0  0  0  0  0  0  0
  1  2  2  0
  2  3  1  0
  3  4  2  0
  4  5  1  0
  5  6  2  0
  6  7  1  0
  7  8  2  0
  8  9  1  0
  9 10  1  0
 10 11  1  0
  8 12  1  0
 12 13  1  0
 12 14  2  0
  4 15  1  0
 15 16  2  0
 16 17  1  0
 17 18  1  0
 18 19  2  0
 19 20  1  0
 20 21  2  0
 21 22  1  0
 22 23  1  0
 23 24  1  0
 21 25  1  0
 25 26  2  0
 25 27  1  0
 17 28  2  0
 28 29  1  0
 16 30  1  0
 30 31  2  0
 31 32  1  0
 31 33  1  0
 33 34  2  0
 34 35  1  0
 35 36  1  0
 36 37  1  0
 36 38  1  0
 38 39  1  0
 39 40  1  0
 40 41  2  0
 41 42  1  0
 39 43  1  0
 43 44  2  3
 44 45  1  0
 45 46  2  3
 46 47  1  0
 47 48  2  0
 48 49  1  0
 49 50  1  0
 50 51  1  0
 50 52  1  0
 52 53  1  0
 53 54  1  0
 54 55  2  0
 55 56  1  0
 53 57  1  0
 57 58  2  3
 58 59  1  0
 59 60  2  3
 60 61  1  0
 61 62  2  0
 62 63  1  0
 63 64  1  0
 64 65  1  0
 64 66  1  0
 66 67  1  0
 67 68  1  0
 68 69  2  0
 69 70  1  0
 67 71  1  0
 71 72  2  3
 72 73  1  0
 73 74  2  3
 74 75  1  0
 75 76  2  0
 76 77  1  0
 77 78  2  0
 78 79  1  0
 79 80  2  0
 80 81  1  0
 81 82  2  0
 82 83  1  0
 83 84  1  0
 84 85  1  0
 82 86  1  0
 86 87  1  0
 86 88  2  0
 78 89  1  0
 89 90  2  0
 90 91  1  0
 91 92  1  0
 92 93  2  0
 93 94  1  0
 94 95  2  0
 95 96  1  0
 96 97  1  0
 97 98  1  0
 95 99  1  0
 99100  2  0
 99101  1  0
 91102  2  0
102103  1  0
 90104  1  0
104105  2  0
105106  1  0
105107  1  0
107108  2  0
108109  1  0
109110  2  0
110111  1  0
111112  2  0
112113  1  0
113114  2  0
114115  1  0
115116  1  0
116117  1  0
114118  1  0
118119  1  0
118120  2  0
110121  1  0
121122  2  0
122123  1  0
123124  1  0
124125  2  0
125126  1  0
126127  2  0
127128  1  0
128129  1  0
129130  1  0
127131  1  0
131132  2  0
131133  1  0
123134  2  0
134135  1  0
122136  1  0
136137  2  0
137138  1  0
 29  1  1  0
 37 33  1  0
 42 38  1  0
 51 47  1  0
 56 52  1  0
 65 61  1  0
 70 66  1  0
103 75  1  0
135107  1  0
 28  3  1  0
 43 35  1  0
 57 49  1  0
 71 63  1  0
102 77  1  0
134109  1  0
 14  5  1  0
 32 15  1  0
 88 79  1  0
106 89  1  0
120111  1  0
138121  1  0
 26 18  1  0
100 92  1  0
132124  1  0
  1139  1  0
  2140  1  0
  6141  1  0
  7142  1  0
 10143  1  0
 10144  1  0
 11145  1  0
 11146  1  0
 11147  1  0
 14148  1  0
 19149  1  0
 20150  1  0
 23151  1  0
 23152  1  0
 24153  1  0
 24154  1  0
 24155  1  0
 26156  1  0
 30157  1  0
 34158  1  0
 35159  1  6
 36160  1  6
 37161  1  0
 37162  1  0
 38163  1  1
 39164  1  1
 40165  1  0
 41166  1  0
 42167  1  0
 42168  1  0
 44169  1  0
 45170  1  0
 46171  1  0
 48172  1  0
 49173  1  6
 50174  1  1
 51175  1  0
 51176  1  0
 52177  1  1
 53178  1  1
 54179  1  0
 55180  1  0
 56181  1  0
 56182  1  0
 58183  1  0
 59184  1  0
 60185  1  0
 62186  1  0
 63187  1  6
 64188  1  6
 65189  1  0
 65190  1  0
 66191  1  1
 67192  1  1
 68193  1  0
 69194  1  0
 70195  1  0
 70196  1  0
 72197  1  0
 73198  1  0
 74199  1  0
 76200  1  0
 80201  1  0
 81202  1  0
 84203  1  0
 84204  1  0
 85205  1  0
 85206  1  0
 85207  1  0
 88208  1  0
 93209  1  0
 94210  1  0
 97211  1  0
 97212  1  0
 98213  1  0
 98214  1  0
 98215  1  0
100216  1  0
104217  1  0
108218  1  0
112219  1  0
113220  1  0
116221  1  0
116222  1  0
117223  1  0
117224  1  0
117225  1  0
120226  1  0
125227  1  0
126228  1  0
129229  1  0
129230  1  0
130231  1  0
130232  1  0
130233  1  0
132234  1  0
136235  1  0
137236  1  0
M  END

