
     RDKit          3D

234257  0  0  0  0  0  0  0  0999 V2000
    7.3220   -6.7674    6.1248 C   0  0  0  0  0  0  0  0  0  0  0  0
    7.5973   -7.5304    4.9944 C   0  0  0  0  0  0  0  0  0  0  0  0
    7.2525   -6.8872    3.7920 C   0  0  0  0  0  0  0  0  0  0  0  0
    7.3717   -7.4213    2.4866 C   0  0  0  0  0  0  0  0  0  0  0  0
    7.7209   -8.8407    2.2441 C   0  0  0  0  0  0  0  0  0  0  0  0
    6.9829   -9.8598    2.8681 C   0  0  0  0  0  0  0  0  0  0  0  0
    7.2768  -11.2002    2.6131 C   0  0  0  0  0  0  0  0  0  0  0  0
    8.2847  -11.5388    1.7039 C   0  0  0  0  0  0  0  0  0  0  0  0
    8.6374  -13.2696    1.3701 S   0  0  0  0  0  0  0  0  0  0  0  0
    7.4723  -13.4108   -0.0327 C   0  0  0  0  0  0  0  0  0  0  0  0
    6.0600  -13.7144    0.4543 C   0  0  0  0  0  0  0  0  0  0  0  0
    9.0346  -10.5273    1.0853 C   0  0  0  0  0  0  0  0  0  0  0  0
   10.0298  -10.8429    0.2173 F   0  0  0  0  0  0  0  0  0  0  0  0
    8.7579   -9.1865    1.3591 C   0  0  0  0  0  0  0  0  0  0  0  0
    7.0112   -6.5691    1.4233 C   0  0  0  0  0  0  0  0  0  0  0  0
    6.5154   -5.2763    1.6278 C   0  0  0  0  0  0  0  0  0  0  0  0
    6.3153   -4.7818    2.9356 C   0  0  0  0  0  0  0  0  0  0  0  0
    5.5227   -3.5561    3.1848 C   0  0  0  0  0  0  0  0  0  0  0  0
    5.9511   -2.3034    2.7191 C   0  0  0  0  0  0  0  0  0  0  0  0
    5.1108   -1.1882    2.8377 C   0  0  0  0  0  0  0  0  0  0  0  0
    3.8456   -1.3215    3.4218 C   0  0  0  0  0  0  0  0  0  0  0  0
    2.7303    0.0825    3.4819 S   0  0  0  0  0  0  0  0  0  0  0  0
    3.2538    0.5980    5.1522 C   0  0  0  0  0  0  0  0  0  0  0  0
    2.1822    1.4849    5.7642 C   0  0  0  0  0  0  0  0  0  0  0  0
    3.4271   -2.5657    3.9109 C   0  0  0  0  0  0  0  0  0  0  0  0
    4.2644   -3.6761    3.7940 C   0  0  0  0  0  0  0  0  0  0  0  0
    2.1960   -2.7093    4.4657 F   0  0  0  0  0  0  0  0  0  0  0  0
    6.7230   -5.6085    3.9933 C   0  0  0  0  0  0  0  0  0  0  0  0
    6.6583   -5.2946    5.6427 S   0  0  0  0  0  0  0  0  0  0  0  0
    6.1282   -4.6375    0.4410 C   0  0  0  0  0  0  0  0  0  0  0  0
    6.3144   -5.4216   -0.6923 C   0  0  0  0  0  0  0  0  0  0  0  0
    6.9203   -6.9243   -0.2279 S   0  0  0  0  0  0  0  0  0  0  0  0
    5.7759   -5.0722   -2.0150 C   0  0  0  0  0  0  0  0  0  0  0  0
    5.0468   -5.9448   -2.8202 C   0  0  0  0  0  0  0  0  0  0  0  0
    4.2175   -5.2717   -3.7417 C   0  0  0  0  0  0  0  0  0  0  0  0
    3.1881   -5.8538   -4.5198 C   0  0  0  0  0  0  0  0  0  0  0  0
    3.0689   -7.3163   -4.6569 C   0  0  0  0  0  0  0  0  0  0  0  0
    3.4625   -7.9251   -5.8571 C   0  0  0  0  0  0  0  0  0  0  0  0
    3.5873   -9.3163   -5.9337 C   0  0  0  0  0  0  0  0  0  0  0  0
    3.3144  -10.1080   -4.8112 C   0  0  0  0  0  0  0  0  0  0  0  0
    3.6225  -11.8799   -4.8709 S   0  0  0  0  0  0  0  0  0  0  0  0
    1.9264  -12.3332   -5.3668 C   0  0  0  0  0  0  0  0  0  0  0  0
    1.7640  -12.2505   -6.8789 C   0  0  0  0  0  0  0  0  0  0  0  0
    2.8801   -9.5032   -3.6208 C   0  0  0  0  0  0  0  0  0  0  0  0
    2.6390  -10.2543   -2.5161 F   0  0  0  0  0  0  0  0  0  0  0  0
    2.7520   -8.1135   -3.5466 C   0  0  0  0  0  0  0  0  0  0  0  0
    2.2958   -4.9679   -5.1578 C   0  0  0  0  0  0  0  0  0  0  0  0
    2.4814   -3.5778   -5.1358 C   0  0  0  0  0  0  0  0  0  0  0  0
    3.5641   -3.0060   -4.4345 C   0  0  0  0  0  0  0  0  0  0  0  0
    3.7390   -1.5429   -4.3112 C   0  0  0  0  0  0  0  0  0  0  0  0
    2.8145   -0.7796   -3.5842 C   0  0  0  0  0  0  0  0  0  0  0  0
    3.0025    0.6007   -3.4441 C   0  0  0  0  0  0  0  0  0  0  0  0
    4.1124    1.2195   -4.0314 C   0  0  0  0  0  0  0  0  0  0  0  0
    4.3682    2.9823   -3.7959 S   0  0  0  0  0  0  0  0  0  0  0  0
    3.4074    3.5002   -5.2643 C   0  0  0  0  0  0  0  0  0  0  0  0
    2.5090    4.6737   -4.8984 C   0  0  0  0  0  0  0  0  0  0  0  0
    5.0368    0.4594   -4.7584 C   0  0  0  0  0  0  0  0  0  0  0  0
    4.8521   -0.9220   -4.8934 C   0  0  0  0  0  0  0  0  0  0  0  0
    6.1230    1.0448   -5.3192 F   0  0  0  0  0  0  0  0  0  0  0  0
    4.3826   -3.8852   -3.7141 C   0  0  0  0  0  0  0  0  0  0  0  0
    5.4775   -3.4856   -2.5112 S   0  0  0  0  0  0  0  0  0  0  0  0
    1.4118   -2.8666   -5.6986 C   0  0  0  0  0  0  0  0  0  0  0  0
    0.3431   -3.6735   -6.0716 C   0  0  0  0  0  0  0  0  0  0  0  0
    0.7530   -5.2875   -5.7585 S   0  0  0  0  0  0  0  0  0  0  0  0
   -1.0238   -3.1262   -6.0901 C   0  0  0  0  0  0  0  0  0  0  0  0
   -1.7432   -3.0189   -4.8958 C   0  0  0  0  0  0  0  0  0  0  0  0
   -2.5125   -1.8428   -4.8098 C   0  0  0  0  0  0  0  0  0  0  0  0
   -3.1085   -1.3415   -3.6327 C   0  0  0  0  0  0  0  0  0  0  0  0
   -3.3672   -2.2036   -2.4616 C   0  0  0  0  0  0  0  0  0  0  0  0
   -2.8221   -1.9047   -1.2021 C   0  0  0  0  0  0  0  0  0  0  0  0
   -3.2078   -2.6406   -0.0734 C   0  0  0  0  0  0  0  0  0  0  0  0
   -4.1407   -3.6763   -0.1916 C   0  0  0  0  0  0  0  0  0  0  0  0
   -4.7794   -4.4734    1.2913 S   0  0  0  0  0  0  0  0  0  0  0  0
   -3.6621   -5.9121    1.2290 C   0  0  0  0  0  0  0  0  0  0  0  0
   -2.3383   -5.6070    1.9185 C   0  0  0  0  0  0  0  0  0  0  0  0
   -4.6567   -4.0066   -1.4519 C   0  0  0  0  0  0  0  0  0  0  0  0
   -5.5747   -5.0005   -1.5860 F   0  0  0  0  0  0  0  0  0  0  0  0
   -4.2628   -3.2811   -2.5829 C   0  0  0  0  0  0  0  0  0  0  0  0
   -3.5200    0.0057   -3.6522 C   0  0  0  0  0  0  0  0  0  0  0  0
   -3.4862    0.7781   -4.8147 C   0  0  0  0  0  0  0  0  0  0  0  0
   -3.0072    0.2351   -6.0275 C   0  0  0  0  0  0  0  0  0  0  0  0
   -3.0641    1.0146   -7.2795 C   0  0  0  0  0  0  0  0  0  0  0  0
   -1.8977    1.4232   -7.9438 C   0  0  0  0  0  0  0  0  0  0  0  0
   -1.9832    2.2535   -9.0686 C   0  0  0  0  0  0  0  0  0  0  0  0
   -3.2356    2.6786   -9.5388 C   0  0  0  0  0  0  0  0  0  0  0  0
   -3.3282    3.8155  -10.9286 S   0  0  0  0  0  0  0  0  0  0  0  0
   -3.4095    2.5223  -12.2179 C   0  0  0  0  0  0  0  0  0  0  0  0
   -4.8423    2.0543  -12.4343 C   0  0  0  0  0  0  0  0  0  0  0  0
   -4.4013    2.2752   -8.8718 C   0  0  0  0  0  0  0  0  0  0  0  0
   -4.3132    1.4372   -7.7573 C   0  0  0  0  0  0  0  0  0  0  0  0
   -5.6186    2.7170   -9.2780 F   0  0  0  0  0  0  0  0  0  0  0  0
   -2.4577   -1.0585   -5.9639 C   0  0  0  0  0  0  0  0  0  0  0  0
   -1.4232   -1.8003   -7.0629 S   0  0  0  0  0  0  0  0  0  0  0  0
   -3.8358    2.1220   -4.5987 C   0  0  0  0  0  0  0  0  0  0  0  0
   -4.0978    2.4168   -3.2645 C   0  0  0  0  0  0  0  0  0  0  0  0
   -3.9360    1.0022   -2.3535 S   0  0  0  0  0  0  0  0  0  0  0  0
   -4.0781    3.7827   -2.7252 C   0  0  0  0  0  0  0  0  0  0  0  0
   -2.7113    4.4642   -1.9841 S   0  0  0  0  0  0  0  0  0  0  0  0
   -2.9645    6.1017   -2.3472 C   0  0  0  0  0  0  0  0  0  0  0  0
   -4.1270    6.0959   -3.0970 C   0  0  0  0  0  0  0  0  0  0  0  0
   -4.7160    4.8794   -3.2901 C   0  0  0  0  0  0  0  0  0  0  0  0
   -5.7311    4.9519   -4.1716 N   0  0  0  0  0  0  0  0  0  0  0  0
   -5.7906    6.2635   -4.5122 C   0  0  0  0  0  0  0  0  0  0  0  0
   -6.7451    6.8033   -5.4402 C   0  0  0  0  0  0  0  0  0  0  0  0
   -7.5203    7.2492   -6.1789 N   0  0  0  0  0  0  0  0  0  0  0  0
   -4.7946    7.0145   -3.8762 C   0  0  0  0  0  0  0  0  0  0  0  0
   -1.8662    7.0877   -2.4739 C   0  0  0  0  0  0  0  0  0  0  0  0
   -1.0868    7.4746   -1.4594 C   0  0  0  0  0  0  0  0  0  0  0  0
   -1.4204    7.2545   -0.0470 C   0  0  0  0  0  0  0  0  0  0  0  0
   -2.6691    7.4817    0.5221 C   0  0  0  0  0  0  0  0  0  0  0  0
   -2.6791    7.2872    1.9173 C   0  0  0  0  0  0  0  0  0  0  0  0
   -3.7913    7.4364    2.7795 C   0  0  0  0  0  0  0  0  0  0  0  0
   -5.0723    8.0203    2.3229 C   0  0  0  0  0  0  0  0  0  0  0  0
   -5.5394    9.2009    2.9219 C   0  0  0  0  0  0  0  0  0  0  0  0
   -6.6981    9.8216    2.4536 C   0  0  0  0  0  0  0  0  0  0  0  0
   -7.3853    9.2913    1.3581 C   0  0  0  0  0  0  0  0  0  0  0  0
   -8.8429   10.1348    0.7347 S   0  0  0  0  0  0  0  0  0  0  0  0
   -7.9482   11.1507   -0.4981 C   0  0  0  0  0  0  0  0  0  0  0  0
   -7.1992   12.3020    0.1662 C   0  0  0  0  0  0  0  0  0  0  0  0
   -6.9456    8.0924    0.7731 C   0  0  0  0  0  0  0  0  0  0  0  0
   -7.6219    7.5477   -0.2692 F   0  0  0  0  0  0  0  0  0  0  0  0
   -5.8017    7.4554    1.2625 C   0  0  0  0  0  0  0  0  0  0  0  0
   -3.5795    7.1342    4.1355 C   0  0  0  0  0  0  0  0  0  0  0  0
   -2.3283    6.7924    4.6455 C   0  0  0  0  0  0  0  0  0  0  0  0
   -1.1989    6.7125    3.8002 C   0  0  0  0  0  0  0  0  0  0  0  0
    0.1525    6.4320    4.3331 C   0  0  0  0  0  0  0  0  0  0  0  0
    0.3982    5.2607    5.0723 C   0  0  0  0  0  0  0  0  0  0  0  0
    1.5930    5.1158    5.7810 C   0  0  0  0  0  0  0  0  0  0  0  0
    2.5818    6.1050    5.7023 C   0  0  0  0  0  0  0  0  0  0  0  0
    4.0663    5.9690    6.7064 S   0  0  0  0  0  0  0  0  0  0  0  0
    5.0347    5.1193    5.4199 C   0  0  0  0  0  0  0  0  0  0  0  0
    6.4846    4.9817    5.8744 C   0  0  0  0  0  0  0  0  0  0  0  0
    2.3707    7.2399    4.9083 C   0  0  0  0  0  0  0  0  0  0  0  0
    1.1552    7.4087    4.2375 C   0  0  0  0  0  0  0  0  0  0  0  0
    3.3183    8.2090    4.8386 F   0  0  0  0  0  0  0  0  0  0  0  0
   -1.4215    6.9444    2.4293 C   0  0  0  0  0  0  0  0  0  0  0  0
   -0.3069    6.8766    1.1612 S   0  0  0  0  0  0  0  0  0  0  0  0
   -2.3490    6.5237    6.0208 C   0  0  0  0  0  0  0  0  0  0  0  0
   -3.6268    6.5879    6.5721 C   0  0  0  0  0  0  0  0  0  0  0  0
   -4.7269    7.0185    5.3686 S   0  0  0  0  0  0  0  0  0  0  0  0
   -3.9620    5.9679    7.8490 C   0  0  0  0  0  0  0  0  0  0  0  0
   -3.6111    6.6400    9.3662 S   0  0  0  0  0  0  0  0  0  0  0  0
   -3.4540    5.2013   10.2541 C   0  0  0  0  0  0  0  0  0  0  0  0
   -3.6126    4.1827    9.3248 C   0  0  0  0  0  0  0  0  0  0  0  0
   -3.9020    4.6011    8.0632 C   0  0  0  0  0  0  0  0  0  0  0  0
   -3.8982    3.5867    7.1874 N   0  0  0  0  0  0  0  0  0  0  0  0
   -3.6344    2.4951    7.9401 C   0  0  0  0  0  0  0  0  0  0  0  0
   -3.5150    1.1791    7.3781 C   0  0  0  0  0  0  0  0  0  0  0  0
   -3.4216    0.1143    6.9211 N   0  0  0  0  0  0  0  0  0  0  0  0
   -3.4387    2.8208    9.2901 C   0  0  0  0  0  0  0  0  0  0  0  0
   -2.9831    5.1392   11.6494 C   0  0  0  0  0  0  0  0  0  0  0  0
   -2.0304    4.2916   12.0540 C   0  0  0  0  0  0  0  0  0  0  0  0
    7.4925   -7.0775    7.1467 H   0  0  0  0  0  0  0  0  0  0  0  0
    8.0361   -8.5189    5.0539 H   0  0  0  0  0  0  0  0  0  0  0  0
    6.1706   -9.6166    3.5458 H   0  0  0  0  0  0  0  0  0  0  0  0
    6.7094  -11.9746    3.1146 H   0  0  0  0  0  0  0  0  0  0  0  0
    7.4744  -12.4886   -0.6494 H   0  0  0  0  0  0  0  0  0  0  0  0
    7.8105  -14.2508   -0.6773 H   0  0  0  0  0  0  0  0  0  0  0  0
    5.3987  -13.9153   -0.4140 H   0  0  0  0  0  0  0  0  0  0  0  0
    5.6463  -12.8442    1.0084 H   0  0  0  0  0  0  0  0  0  0  0  0
    6.0616  -14.6070    1.1161 H   0  0  0  0  0  0  0  0  0  0  0  0
    9.3428   -8.4130    0.8814 H   0  0  0  0  0  0  0  0  0  0  0  0
    6.9153   -2.1977    2.2357 H   0  0  0  0  0  0  0  0  0  0  0  0
    5.4338   -0.2326    2.4469 H   0  0  0  0  0  0  0  0  0  0  0  0
    4.2085    1.1621    5.0756 H   0  0  0  0  0  0  0  0  0  0  0  0
    3.4090   -0.2814    5.8129 H   0  0  0  0  0  0  0  0  0  0  0  0
    1.9104    2.2945    5.0544 H   0  0  0  0  0  0  0  0  0  0  0  0
    1.2776    0.8834    5.9927 H   0  0  0  0  0  0  0  0  0  0  0  0
    2.5634    1.9339    6.7030 H   0  0  0  0  0  0  0  0  0  0  0  0
    3.9137   -4.6401    4.1454 H   0  0  0  0  0  0  0  0  0  0  0  0
    5.6495   -3.6690    0.4069 H   0  0  0  0  0  0  0  0  0  0  0  0
    5.0119   -7.0104   -2.6400 H   0  0  0  0  0  0  0  0  0  0  0  0
    3.7333   -7.3199   -6.7142 H   0  0  0  0  0  0  0  0  0  0  0  0
    3.9381   -9.7734   -6.8550 H   0  0  0  0  0  0  0  0  0  0  0  0
    1.7392  -13.3783   -5.0463 H   0  0  0  0  0  0  0  0  0  0  0  0
    1.1765  -11.6856   -4.8628 H   0  0  0  0  0  0  0  0  0  0  0  0
    0.7411  -12.5808   -7.1538 H   0  0  0  0  0  0  0  0  0  0  0  0
    2.5017  -12.9150   -7.3815 H   0  0  0  0  0  0  0  0  0  0  0  0
    1.9052  -11.2058   -7.2270 H   0  0  0  0  0  0  0  0  0  0  0  0
    2.4641   -7.6525   -2.6077 H   0  0  0  0  0  0  0  0  0  0  0  0
    1.9563   -1.2500   -3.1160 H   0  0  0  0  0  0  0  0  0  0  0  0
    2.2908    1.1849   -2.8734 H   0  0  0  0  0  0  0  0  0  0  0  0
    4.1189    3.8181   -6.0566 H   0  0  0  0  0  0  0  0  0  0  0  0
    2.7773    2.6786   -5.6636 H   0  0  0  0  0  0  0  0  0  0  0  0
    3.1146    5.5367   -4.5517 H   0  0  0  0  0  0  0  0  0  0  0  0
    1.9114    4.9818   -5.7844 H   0  0  0  0  0  0  0  0  0  0  0  0
    1.8083    4.3724   -4.0880 H   0  0  0  0  0  0  0  0  0  0  0  0
    5.5764   -1.5093   -5.4461 H   0  0  0  0  0  0  0  0  0  0  0  0
    1.3441   -1.7884   -5.6796 H   0  0  0  0  0  0  0  0  0  0  0  0
   -1.5379   -3.6446   -4.0392 H   0  0  0  0  0  0  0  0  0  0  0  0
   -2.1283   -1.0765   -1.0877 H   0  0  0  0  0  0  0  0  0  0  0  0
   -2.8045   -2.3765    0.8947 H   0  0  0  0  0  0  0  0  0  0  0  0
   -4.1513   -6.7539    1.7572 H   0  0  0  0  0  0  0  0  0  0  0  0
   -3.4814   -6.2347    0.1775 H   0  0  0  0  0  0  0  0  0  0  0  0
   -1.7181   -6.5277    1.9577 H   0  0  0  0  0  0  0  0  0  0  0  0
   -2.5197   -5.2561    2.9596 H   0  0  0  0  0  0  0  0  0  0  0  0
   -1.7816   -4.8258    1.3572 H   0  0  0  0  0  0  0  0  0  0  0  0
   -4.6994   -3.5218   -3.5472 H   0  0  0  0  0  0  0  0  0  0  0  0
   -0.9237    1.1384   -7.5658 H   0  0  0  0  0  0  0  0  0  0  0  0
   -1.0745    2.5836   -9.5582 H   0  0  0  0  0  0  0  0  0  0  0  0
   -2.7598    1.6588  -11.9579 H   0  0  0  0  0  0  0  0  0  0  0  0
   -3.0363    2.9652  -13.1654 H   0  0  0  0  0  0  0  0  0  0  0  0
   -5.5131    2.9211  -12.6027 H   0  0  0  0  0  0  0  0  0  0  0  0
   -4.8866    1.3932  -13.3274 H   0  0  0  0  0  0  0  0  0  0  0  0
   -5.1980    1.4748  -11.5555 H   0  0  0  0  0  0  0  0  0  0  0  0
   -5.2239    1.1502   -7.2398 H   0  0  0  0  0  0  0  0  0  0  0  0
   -3.8296    2.8763   -5.3666 H   0  0  0  0  0  0  0  0  0  0  0  0
   -6.3108    4.1660   -4.5349 H   0  0  0  0  0  0  0  0  0  0  0  0
   -4.5762    8.0704   -3.9941 H   0  0  0  0  0  0  0  0  0  0  0  0
   -1.5975    7.3867   -3.4809 H   0  0  0  0  0  0  0  0  0  0  0  0
   -0.1804    8.0242   -1.6859 H   0  0  0  0  0  0  0  0  0  0  0  0
   -3.5143    7.8142   -0.0582 H   0  0  0  0  0  0  0  0  0  0  0  0
   -4.9843    9.6586    3.7386 H   0  0  0  0  0  0  0  0  0  0  0  0
   -7.0401   10.7310    2.9284 H   0  0  0  0  0  0  0  0  0  0  0  0
   -7.2466   10.5244   -1.0912 H   0  0  0  0  0  0  0  0  0  0  0  0
   -8.6991   11.5721   -1.1950 H   0  0  0  0  0  0  0  0  0  0  0  0
   -6.3019   11.9233    0.7008 H   0  0  0  0  0  0  0  0  0  0  0  0
   -6.8598   13.0213   -0.6130 H   0  0  0  0  0  0  0  0  0  0  0  0
   -7.8601   12.8360    0.8811 H   0  0  0  0  0  0  0  0  0  0  0  0
   -5.4696    6.5262    0.8064 H   0  0  0  0  0  0  0  0  0  0  0  0
   -0.3671    4.4955    5.1588 H   0  0  0  0  0  0  0  0  0  0  0  0
    1.7252    4.2625    6.4323 H   0  0  0  0  0  0  0  0  0  0  0  0
    5.0104    5.7026    4.4738 H   0  0  0  0  0  0  0  0  0  0  0  0
    4.6111    4.1111    5.2407 H   0  0  0  0  0  0  0  0  0  0  0  0
    7.0729    4.4496    5.1030 H   0  0  0  0  0  0  0  0  0  0  0  0
    6.9369    5.9834    6.0372 H   0  0  0  0  0  0  0  0  0  0  0  0
    6.5295    4.4058    6.8227 H   0  0  0  0  0  0  0  0  0  0  0  0
    0.9727    8.3270    3.6917 H   0  0  0  0  0  0  0  0  0  0  0  0
   -1.4922    6.2146    6.6000 H   0  0  0  0  0  0  0  0  0  0  0  0
   -4.0332    3.6443    6.1541 H   0  0  0  0  0  0  0  0  0  0  0  0
   -3.1775    2.1541   10.0962 H   0  0  0  0  0  0  0  0  0  0  0  0
   -3.3177    5.9165   12.3406 H   0  0  0  0  0  0  0  0  0  0  0  0
   -1.6121    4.4487   13.0450 H   0  0  0  0  0  0  0  0  0  0  0  0
   -1.5722    3.5981   11.3477 H   0  0  0  0  0  0  0  0  0  0  0  0
  1  2  2  0
  2  3  1  0
  3  4  2  0
  4  5  1  0
  5  6  2  0
  6  7  1  0
  7  8  2  0
  8  9  1  0
  9 10  1  0
 10 11  1  0
  8 12  1  0
 12 13  1  0
 12 14  2  0
  4 15  1  0
 15 16  2  0
 16 17  1  0
 17 18  1  0
 18 19  2  0
 19 20  1  0
 20 21  2  0
 21 22  1  0
 22 23  1  0
 23 24  1  0
 21 25  1  0
 25 26  2  0
 25 27  1  0
 17 28  2  0
 28 29  1  0
 16 30  1  0
 30 31  2  0
 31 32  1  0
 31 33  1  0
 33 34  2  0
 34 35  1  0
 35 36  2  0
 36 37  1  0
 37 38  2  0
 38 39  1  0
 39 40  2  0
 40 41  1  0
 41 42  1  0
 42 43  1  0
 40 44  1  0
 44 45  1  0
 44 46  2  0
 36 47  1  0
 47 48  2  0
 48 49  1  0
 49 50  1  0
 50 51  2  0
 51 52  1  0
 52 53  2  0
 53 54  1  0
 54 55  1  0
 55 56  1  0
 53 57  1  0
 57 58  2  0
 57 59  1  0
 49 60  2  0
 60 61  1  0
 48 62  1  0
 62 63  2  0
 63 64  1  0
 63 65  1  0
 65 66  2  0
 66 67  1  0
 67 68  2  0
 68 69  1  0
 69 70  2  0
 70 71  1  0
 71 72  2  0
 72 73  1  0
 73 74  1  0
 74 75  1  0
 72 76  1  0
 76 77  1  0
 76 78  2  0
 68 79  1  0
 79 80  2  0
 80 81  1  0
 81 82  1  0
 82 83  2  0
 83 84  1  0
 84 85  2  0
 85 86  1  0
 86 87  1  0
 87 88  1  0
 85 89  1  0
 89 90  2  0
 89 91  1  0
 81 92  2  0
 92 93  1  0
 80 94  1  0
 94 95  2  0
 95 96  1  0
 95 97  1  0
 97 98  1  0
 98 99  1  0
 99100  2  0
100101  1  0
101102  1  0
102103  1  0
103104  1  0
104105  3  0
103106  2  0
 99107  1  0
107108  2  3
108109  1  0
109110  2  0
110111  1  0
111112  2  0
112113  1  0
113114  2  0
114115  1  0
115116  2  0
116117  1  0
117118  1  0
118119  1  0
116120  1  0
120121  1  0
120122  2  0
112123  1  0
123124  2  0
124125  1  0
125126  1  0
126127  2  0
127128  1  0
128129  2  0
129130  1  0
130131  1  0
131132  1  0
129133  1  0
133134  2  0
133135  1  0
125136  2  0
136137  1  0
124138  1  0
138139  2  0
139140  1  0
139141  1  0
141142  1  0
142143  1  0
143144  2  0
144145  1  0
145146  1  0
146147  1  0
147148  1  0
148149  3  0
147150  2  0
143151  1  0
151152  2  3
 29  1  1  0
 61 33  1  0
 93 65  1  0
101 97  2  0
137109  1  0
145141  2  0
 28  3  1  0
 60 35  1  0
 92 67  1  0
106100  1  0
136111  1  0
150144  1  0
 14  5  1  0
 32 15  1  0
 46 37  1  0
 64 47  1  0
 78 69  1  0
 96 79  1  0
122113  1  0
140123  1  0
 26 18  1  0
 58 50  1  0
 90 82  1  0
134126  1  0
  1153  1  0
  2154  1  0
  6155  1  0
  7156  1  0
 10157  1  0
 10158  1  0
 11159  1  0
 11160  1  0
 11161  1  0
 14162  1  0
 19163  1  0
 20164  1  0
 23165  1  0
 23166  1  0
 24167  1  0
 24168  1  0
 24169  1  0
 26170  1  0
 30171  1  0
 34172  1  0
 38173  1  0
 39174  1  0
 42175  1  0
 42176  1  0
 43177  1  0
 43178  1  0
 43179  1  0
 46180  1  0
 51181  1  0
 52182  1  0
 55183  1  0
 55184  1  0
 56185  1  0
 56186  1  0
 56187  1  0
 58188  1  0
 62189  1  0
 66190  1  0
 70191  1  0
 71192  1  0
 74193  1  0
 74194  1  0
 75195  1  0
 75196  1  0
 75197  1  0
 78198  1  0
 83199  1  0
 84200  1  0
 87201  1  0
 87202  1  0
 88203  1  0
 88204  1  0
 88205  1  0
 90206  1  0
 94207  1  0
102208  1  0
106209  1  0
107210  1  0
108211  1  0
110212  1  0
114213  1  0
115214  1  0
118215  1  0
118216  1  0
119217  1  0
119218  1  0
119219  1  0
122220  1  0
127221  1  0
128222  1  0
131223  1  0
131224  1  0
132225  1  0
132226  1  0
132227  1  0
134228  1  0
138229  1  0
146230  1  0
150231  1  0
151232  1  0
152233  1  0
152234  1  0
M  END

