
     RDKit          3D

222245  0  0  0  0  0  0  0  0999 V2000
   10.2305    5.3677   11.1757 C   0  0  0  0  0  0  0  0  0  0  0  0
    8.5119    5.4652   11.1218 S   0  0  0  0  0  0  0  0  0  0  0  0
    8.2213    5.4672    9.4303 C   0  0  0  0  0  0  0  0  0  0  0  0
    9.4891    5.3907    8.9242 C   0  0  0  0  0  0  0  0  0  0  0  0
   10.5497    5.3390    9.8377 C   0  0  0  0  0  0  0  0  0  0  0  0
   11.4260    5.2877    8.7051 C   0  0  0  0  0  0  0  0  0  0  0  0
   10.3696    5.3318    7.7590 N   0  0  0  0  0  0  0  0  0  0  0  0
    6.9531    5.5379    8.7090 C   0  0  0  0  0  0  0  0  0  0  0  0
    6.6876    5.5696    7.0078 S   0  0  0  0  0  0  0  0  0  0  0  0
    4.9688    5.6596    6.9614 C   0  0  0  0  0  0  0  0  0  0  0  0
    4.6378    5.6598    8.2964 C   0  0  0  0  0  0  0  0  0  0  0  0
    5.6823    5.5970    9.2240 C   0  0  0  0  0  0  0  0  0  0  0  0
    4.6810    5.6360   10.2488 C   0  0  0  0  0  0  0  0  0  0  0  0
    3.6028    5.6931    9.3291 N   0  0  0  0  0  0  0  0  0  0  0  0
    4.0794    5.7268    5.7978 C   0  0  0  0  0  0  0  0  0  0  0  0
    2.6944    5.8288    5.8582 C   0  0  0  0  0  0  0  0  0  0  0  0
    2.0984    5.8657    4.5905 C   0  0  0  0  0  0  0  0  0  0  0  0
    0.7223    5.9758    4.3355 C   0  0  0  0  0  0  0  0  0  0  0  0
   -0.2804    5.9815    5.4155 C   0  0  0  0  0  0  0  0  0  0  0  0
   -0.9482    7.1659    5.7541 C   0  0  0  0  0  0  0  0  0  0  0  0
   -1.9414    7.1546    6.7396 C   0  0  0  0  0  0  0  0  0  0  0  0
   -2.2815    5.9578    7.3820 C   0  0  0  0  0  0  0  0  0  0  0  0
   -3.5603    5.9546    8.6430 S   0  0  0  0  0  0  0  0  0  0  0  0
   -4.9153    5.6566    7.4569 C   0  0  0  0  0  0  0  0  0  0  0  0
   -6.2293    5.4904    8.2065 C   0  0  0  0  0  0  0  0  0  0  0  0
   -1.6183    4.7691    7.0389 C   0  0  0  0  0  0  0  0  0  0  0  0
   -1.9393    3.6009    7.6519 F   0  0  0  0  0  0  0  0  0  0  0  0
   -0.6171    4.7827    6.0638 C   0  0  0  0  0  0  0  0  0  0  0  0
    0.3252    5.9676    2.9940 C   0  0  0  0  0  0  0  0  0  0  0  0
    1.2250    5.8414    1.9311 C   0  0  0  0  0  0  0  0  0  0  0  0
    2.6142    5.7727    2.1831 C   0  0  0  0  0  0  0  0  0  0  0  0
    3.6014    5.7014    1.0829 C   0  0  0  0  0  0  0  0  0  0  0  0
    3.6419    6.7112    0.1048 C   0  0  0  0  0  0  0  0  0  0  0  0
    4.5888    6.6593   -0.9250 C   0  0  0  0  0  0  0  0  0  0  0  0
    5.4939    5.5942   -0.9965 C   0  0  0  0  0  0  0  0  0  0  0  0
    6.7208    5.5516   -2.3098 S   0  0  0  0  0  0  0  0  0  0  0  0
    5.6215    4.7875   -3.5519 C   0  0  0  0  0  0  0  0  0  0  0  0
    5.5280    3.2807   -3.3520 C   0  0  0  0  0  0  0  0  0  0  0  0
    5.4660    4.5908   -0.0162 C   0  0  0  0  0  0  0  0  0  0  0  0
    4.5216    4.6431    1.0148 C   0  0  0  0  0  0  0  0  0  0  0  0
    6.3602    3.5706   -0.0531 F   0  0  0  0  0  0  0  0  0  0  0  0
    3.0169    5.7803    3.5360 C   0  0  0  0  0  0  0  0  0  0  0  0
    4.5731    5.6820    4.1813 S   0  0  0  0  0  0  0  0  0  0  0  0
    0.5798    5.6807    0.6839 C   0  0  0  0  0  0  0  0  0  0  0  0
   -0.8147    5.6848    0.7930 C   0  0  0  0  0  0  0  0  0  0  0  0
   -1.2412    5.9046    2.4068 S   0  0  0  0  0  0  0  0  0  0  0  0
   -1.7832    5.2418   -0.2228 C   0  0  0  0  0  0  0  0  0  0  0  0
   -1.4894    4.6141   -1.4388 C   0  0  0  0  0  0  0  0  0  0  0  0
   -2.6026    3.9506   -1.9908 C   0  0  0  0  0  0  0  0  0  0  0  0
   -2.6005    3.1148   -3.1265 C   0  0  0  0  0  0  0  0  0  0  0  0
   -1.3936    2.8798   -3.9365 C   0  0  0  0  0  0  0  0  0  0  0  0
   -1.2944    3.4524   -5.2113 C   0  0  0  0  0  0  0  0  0  0  0  0
   -0.2094    3.1430   -6.0377 C   0  0  0  0  0  0  0  0  0  0  0  0
    0.7692    2.2352   -5.6045 C   0  0  0  0  0  0  0  0  0  0  0  0
    2.1367    1.8129   -6.6896 S   0  0  0  0  0  0  0  0  0  0  0  0
    1.3299    0.3569   -7.4456 C   0  0  0  0  0  0  0  0  0  0  0  0
    0.2794    0.7780   -8.4673 C   0  0  0  0  0  0  0  0  0  0  0  0
    0.6881    1.6871   -4.3166 C   0  0  0  0  0  0  0  0  0  0  0  0
    1.6416    0.8288   -3.8767 F   0  0  0  0  0  0  0  0  0  0  0  0
   -0.3955    2.0042   -3.4871 C   0  0  0  0  0  0  0  0  0  0  0  0
   -3.7657    2.3669   -3.3699 C   0  0  0  0  0  0  0  0  0  0  0  0
   -4.8898    2.4295   -2.5384 C   0  0  0  0  0  0  0  0  0  0  0  0
   -4.9315    3.3411   -1.4637 C   0  0  0  0  0  0  0  0  0  0  0  0
   -6.0975    3.4333   -0.5592 C   0  0  0  0  0  0  0  0  0  0  0  0
   -5.9900    3.0147    0.7776 C   0  0  0  0  0  0  0  0  0  0  0  0
   -7.0665    3.1747    1.6542 C   0  0  0  0  0  0  0  0  0  0  0  0
   -8.2566    3.7680    1.2092 C   0  0  0  0  0  0  0  0  0  0  0  0
   -9.6413    3.9473    2.3451 S   0  0  0  0  0  0  0  0  0  0  0  0
   -9.2779    5.6785    2.8052 C   0  0  0  0  0  0  0  0  0  0  0  0
   -8.2106    5.7438    3.8905 C   0  0  0  0  0  0  0  0  0  0  0  0
   -8.3762    4.1631   -0.1303 C   0  0  0  0  0  0  0  0  0  0  0  0
   -7.2990    4.0004   -1.0112 C   0  0  0  0  0  0  0  0  0  0  0  0
   -9.5254    4.7225   -0.5813 F   0  0  0  0  0  0  0  0  0  0  0  0
   -3.7614    4.0775   -1.2178 C   0  0  0  0  0  0  0  0  0  0  0  0
   -3.4179    5.0152    0.1250 S   0  0  0  0  0  0  0  0  0  0  0  0
   -5.7943    1.3697   -2.7572 C   0  0  0  0  0  0  0  0  0  0  0  0
   -5.3746    0.4775   -3.7498 C   0  0  0  0  0  0  0  0  0  0  0  0
   -3.9104    1.0342   -4.3767 S   0  0  0  0  0  0  0  0  0  0  0  0
   -5.6712   -0.9624   -3.7210 C   0  0  0  0  0  0  0  0  0  0  0  0
   -5.3003   -1.8338   -4.7484 C   0  0  0  0  0  0  0  0  0  0  0  0
   -4.9659   -3.1262   -4.2942 C   0  0  0  0  0  0  0  0  0  0  0  0
   -4.3438   -4.1327   -5.0636 C   0  0  0  0  0  0  0  0  0  0  0  0
   -4.2433   -4.0206   -6.5396 C   0  0  0  0  0  0  0  0  0  0  0  0
   -5.4146   -3.9103   -7.3087 C   0  0  0  0  0  0  0  0  0  0  0  0
   -5.3372   -3.8143   -8.6992 C   0  0  0  0  0  0  0  0  0  0  0  0
   -4.0928   -3.8415   -9.3395 C   0  0  0  0  0  0  0  0  0  0  0  0
   -4.0056   -3.7310  -11.1343 S   0  0  0  0  0  0  0  0  0  0  0  0
   -4.0993   -5.5344  -11.4247 C   0  0  0  0  0  0  0  0  0  0  0  0
   -5.5480   -5.9751  -11.5899 C   0  0  0  0  0  0  0  0  0  0  0  0
   -2.9183   -3.9262   -8.5763 C   0  0  0  0  0  0  0  0  0  0  0  0
   -1.7072   -3.9621   -9.1829 F   0  0  0  0  0  0  0  0  0  0  0  0
   -2.9936   -4.0034   -7.1820 C   0  0  0  0  0  0  0  0  0  0  0  0
   -3.7653   -5.2032   -4.3520 C   0  0  0  0  0  0  0  0  0  0  0  0
   -3.8490   -5.3194   -2.9599 C   0  0  0  0  0  0  0  0  0  0  0  0
   -4.5589   -4.3653   -2.2050 C   0  0  0  0  0  0  0  0  0  0  0  0
   -4.5704   -4.4070   -0.7276 C   0  0  0  0  0  0  0  0  0  0  0  0
   -3.8153   -3.4860    0.0151 C   0  0  0  0  0  0  0  0  0  0  0  0
   -3.8388   -3.5219    1.4144 C   0  0  0  0  0  0  0  0  0  0  0  0
   -4.6109   -4.4832    2.0816 C   0  0  0  0  0  0  0  0  0  0  0  0
   -4.6810   -4.4894    3.8764 S   0  0  0  0  0  0  0  0  0  0  0  0
   -3.3708   -5.7467    4.0987 C   0  0  0  0  0  0  0  0  0  0  0  0
   -1.9981   -5.0910    4.1459 C   0  0  0  0  0  0  0  0  0  0  0  0
   -5.3572   -5.4115    1.3406 C   0  0  0  0  0  0  0  0  0  0  0  0
   -5.3292   -5.3796   -0.0583 C   0  0  0  0  0  0  0  0  0  0  0  0
   -6.1166   -6.3405    1.9745 F   0  0  0  0  0  0  0  0  0  0  0  0
   -5.0967   -3.2705   -2.9085 C   0  0  0  0  0  0  0  0  0  0  0  0
   -5.6471   -1.8189   -2.2675 S   0  0  0  0  0  0  0  0  0  0  0  0
   -3.0115   -6.3186   -2.4339 C   0  0  0  0  0  0  0  0  0  0  0  0
   -2.2450   -6.9610   -3.4047 C   0  0  0  0  0  0  0  0  0  0  0  0
   -2.6498   -6.3273   -4.9152 S   0  0  0  0  0  0  0  0  0  0  0  0
   -0.9396   -7.5617   -3.1115 C   0  0  0  0  0  0  0  0  0  0  0  0
    0.2508   -7.0356   -3.5983 C   0  0  0  0  0  0  0  0  0  0  0  0
    1.3821   -7.5212   -2.9299 C   0  0  0  0  0  0  0  0  0  0  0  0
    2.7074   -7.0725   -3.1088 C   0  0  0  0  0  0  0  0  0  0  0  0
    3.0223   -5.9081   -3.9684 C   0  0  0  0  0  0  0  0  0  0  0  0
    2.4235   -4.6640   -3.7042 C   0  0  0  0  0  0  0  0  0  0  0  0
    2.6934   -3.5614   -4.5180 C   0  0  0  0  0  0  0  0  0  0  0  0
    3.5886   -3.6819   -5.5877 C   0  0  0  0  0  0  0  0  0  0  0  0
    3.9272   -2.2526   -6.6167 S   0  0  0  0  0  0  0  0  0  0  0  0
    5.2794   -1.6439   -5.5540 C   0  0  0  0  0  0  0  0  0  0  0  0
    5.7097   -0.2563   -6.0106 C   0  0  0  0  0  0  0  0  0  0  0  0
    4.1975   -4.9170   -5.8526 C   0  0  0  0  0  0  0  0  0  0  0  0
    5.0655   -5.0454   -6.8893 F   0  0  0  0  0  0  0  0  0  0  0  0
    3.9138   -6.0276   -5.0480 C   0  0  0  0  0  0  0  0  0  0  0  0
    3.6927   -7.6816   -2.3145 C   0  0  0  0  0  0  0  0  0  0  0  0
    3.3919   -8.6567   -1.3613 C   0  0  0  0  0  0  0  0  0  0  0  0
    2.0611   -9.0743   -1.1577 C   0  0  0  0  0  0  0  0  0  0  0  0
    1.7079  -10.0537   -0.1200 C   0  0  0  0  0  0  0  0  0  0  0  0
    1.4181   -9.6195    1.1809 C   0  0  0  0  0  0  0  0  0  0  0  0
    1.0721  -10.5484    2.1703 C   0  0  0  0  0  0  0  0  0  0  0  0
    1.0026  -11.9136    1.8589 C   0  0  0  0  0  0  0  0  0  0  0  0
    0.4749  -13.0862    3.1101 S   0  0  0  0  0  0  0  0  0  0  0  0
    2.1551  -13.6310    3.5834 C   0  0  0  0  0  0  0  0  0  0  0  0
    2.4885  -13.1575    4.9891 C   0  0  0  0  0  0  0  0  0  0  0  0
    1.2968  -12.3478    0.5584 C   0  0  0  0  0  0  0  0  0  0  0  0
    1.6583  -11.4208   -0.4250 C   0  0  0  0  0  0  0  0  0  0  0  0
    1.2410  -13.6684    0.2468 F   0  0  0  0  0  0  0  0  0  0  0  0
    1.0730   -8.4747   -1.9569 C   0  0  0  0  0  0  0  0  0  0  0  0
   -0.6029   -8.6461   -1.8634 S   0  0  0  0  0  0  0  0  0  0  0  0
    4.5170   -9.0902   -0.6413 C   0  0  0  0  0  0  0  0  0  0  0  0
    5.6909   -8.4447   -1.0248 C   0  0  0  0  0  0  0  0  0  0  0  0
    5.3403   -7.3416   -2.2471 S   0  0  0  0  0  0  0  0  0  0  0  0
   10.8888    5.3399   12.0296 H   0  0  0  0  0  0  0  0  0  0  0  0
   12.0747    6.1894    8.6332 H   0  0  0  0  0  0  0  0  0  0  0  0
   11.9856    4.3281    8.6471 H   0  0  0  0  0  0  0  0  0  0  0  0
   10.2684    5.3413    6.7201 H   0  0  0  0  0  0  0  0  0  0  0  0
    4.7422    6.5638   10.8588 H   0  0  0  0  0  0  0  0  0  0  0  0
    4.6555    4.7003   10.8490 H   0  0  0  0  0  0  0  0  0  0  0  0
    2.5589    5.7315    9.3701 H   0  0  0  0  0  0  0  0  0  0  0  0
    2.1399    5.8809    6.7848 H   0  0  0  0  0  0  0  0  0  0  0  0
   -0.7086    8.0944    5.2494 H   0  0  0  0  0  0  0  0  0  0  0  0
   -2.4584    8.0717    6.9896 H   0  0  0  0  0  0  0  0  0  0  0  0
   -4.9938    6.5236    6.7663 H   0  0  0  0  0  0  0  0  0  0  0  0
   -4.7074    4.7362    6.8703 H   0  0  0  0  0  0  0  0  0  0  0  0
   -7.0602    5.3492    7.4809 H   0  0  0  0  0  0  0  0  0  0  0  0
   -6.1832    4.5954    8.8634 H   0  0  0  0  0  0  0  0  0  0  0  0
   -6.4383    6.3900    8.8224 H   0  0  0  0  0  0  0  0  0  0  0  0
   -0.1118    3.8621    5.8114 H   0  0  0  0  0  0  0  0  0  0  0  0
    2.9531    7.5459    0.1488 H   0  0  0  0  0  0  0  0  0  0  0  0
    4.6148    7.4458   -1.6698 H   0  0  0  0  0  0  0  0  0  0  0  0
    4.6092    5.2438   -3.5186 H   0  0  0  0  0  0  0  0  0  0  0  0
    6.0498    4.9873   -4.5565 H   0  0  0  0  0  0  0  0  0  0  0  0
    5.0246    3.0441   -2.3925 H   0  0  0  0  0  0  0  0  0  0  0  0
    4.9324    2.8349   -4.1768 H   0  0  0  0  0  0  0  0  0  0  0  0
    6.5438    2.8281   -3.3588 H   0  0  0  0  0  0  0  0  0  0  0  0
    4.5120    3.8608    1.7620 H   0  0  0  0  0  0  0  0  0  0  0  0
    1.1038    5.4715   -0.2364 H   0  0  0  0  0  0  0  0  0  0  0  0
   -0.4924    4.5497   -1.8549 H   0  0  0  0  0  0  0  0  0  0  0  0
   -2.0676    4.1188   -5.5722 H   0  0  0  0  0  0  0  0  0  0  0  0
   -0.1456    3.5838   -7.0251 H   0  0  0  0  0  0  0  0  0  0  0  0
    0.8853   -0.2995   -6.6674 H   0  0  0  0  0  0  0  0  0  0  0  0
    2.1133   -0.2258   -7.9729 H   0  0  0  0  0  0  0  0  0  0  0  0
    0.7030    1.5333   -9.1600 H   0  0  0  0  0  0  0  0  0  0  0  0
   -0.0391   -0.1053   -9.0563 H   0  0  0  0  0  0  0  0  0  0  0  0
   -0.6124    1.1936   -7.9599 H   0  0  0  0  0  0  0  0  0  0  0  0
   -0.4625    1.5582   -2.5052 H   0  0  0  0  0  0  0  0  0  0  0  0
   -5.0698    2.5749    1.1402 H   0  0  0  0  0  0  0  0  0  0  0  0
   -6.9664    2.8578    2.6840 H   0  0  0  0  0  0  0  0  0  0  0  0
   -8.9614    6.2681    1.9165 H   0  0  0  0  0  0  0  0  0  0  0  0
  -10.2131    6.1310    3.2019 H   0  0  0  0  0  0  0  0  0  0  0  0
   -8.5295    5.1589    4.7809 H   0  0  0  0  0  0  0  0  0  0  0  0
   -8.0608    6.7989    4.1986 H   0  0  0  0  0  0  0  0  0  0  0  0
   -7.2465    5.3496    3.5113 H   0  0  0  0  0  0  0  0  0  0  0  0
   -7.3979    4.3235   -2.0373 H   0  0  0  0  0  0  0  0  0  0  0  0
   -6.6309    1.1644   -2.1003 H   0  0  0  0  0  0  0  0  0  0  0  0
   -5.0946   -1.4941   -5.7553 H   0  0  0  0  0  0  0  0  0  0  0  0
   -6.3843   -3.8944   -6.8287 H   0  0  0  0  0  0  0  0  0  0  0  0
   -6.2447   -3.7135   -9.2800 H   0  0  0  0  0  0  0  0  0  0  0  0
   -3.6208   -6.1059  -10.6000 H   0  0  0  0  0  0  0  0  0  0  0  0
   -3.5473   -5.7640  -12.3602 H   0  0  0  0  0  0  0  0  0  0  0  0
   -6.0355   -5.4021  -12.4063 H   0  0  0  0  0  0  0  0  0  0  0  0
   -5.5783   -7.0533  -11.8461 H   0  0  0  0  0  0  0  0  0  0  0  0
   -6.1108   -5.8280  -10.6464 H   0  0  0  0  0  0  0  0  0  0  0  0
   -2.0787   -4.0540   -6.6043 H   0  0  0  0  0  0  0  0  0  0  0  0
   -3.2173   -2.7359   -0.4871 H   0  0  0  0  0  0  0  0  0  0  0  0
   -3.2713   -2.7948    1.9802 H   0  0  0  0  0  0  0  0  0  0  0  0
   -3.5524   -6.2654    5.0631 H   0  0  0  0  0  0  0  0  0  0  0  0
   -3.4056   -6.5104    3.2896 H   0  0  0  0  0  0  0  0  0  0  0  0
   -1.9689   -4.3212    4.9487 H   0  0  0  0  0  0  0  0  0  0  0  0
   -1.2273   -5.8608    4.3622 H   0  0  0  0  0  0  0  0  0  0  0  0
   -1.7630   -4.6159    3.1699 H   0  0  0  0  0  0  0  0  0  0  0  0
   -5.9083   -6.1031   -0.6201 H   0  0  0  0  0  0  0  0  0  0  0  0
   -2.8483   -6.4596   -1.3723 H   0  0  0  0  0  0  0  0  0  0  0  0
    0.2812   -6.2607   -4.3526 H   0  0  0  0  0  0  0  0  0  0  0  0
    1.7446   -4.5494   -2.8676 H   0  0  0  0  0  0  0  0  0  0  0  0
    2.2128   -2.6128   -4.3129 H   0  0  0  0  0  0  0  0  0  0  0  0
    6.1428   -2.3405   -5.6152 H   0  0  0  0  0  0  0  0  0  0  0  0
    4.9392   -1.5816   -4.4980 H   0  0  0  0  0  0  0  0  0  0  0  0
    4.8580    0.4507   -5.9314 H   0  0  0  0  0  0  0  0  0  0  0  0
    6.0606   -0.2895   -7.0631 H   0  0  0  0  0  0  0  0  0  0  0  0
    6.5356    0.1116   -5.3641 H   0  0  0  0  0  0  0  0  0  0  0  0
    4.3868   -6.9777   -5.2623 H   0  0  0  0  0  0  0  0  0  0  0  0
    1.4531   -8.5664    1.4239 H   0  0  0  0  0  0  0  0  0  0  0  0
    0.8297  -10.2038    3.1655 H   0  0  0  0  0  0  0  0  0  0  0  0
    2.9347  -13.2663    2.8783 H   0  0  0  0  0  0  0  0  0  0  0  0
    2.1751  -14.7428    3.5641 H   0  0  0  0  0  0  0  0  0  0  0  0
    1.7104  -13.4961    5.7060 H   0  0  0  0  0  0  0  0  0  0  0  0
    3.4633  -13.5871    5.2961 H   0  0  0  0  0  0  0  0  0  0  0  0
    2.5670  -12.0515    5.0148 H   0  0  0  0  0  0  0  0  0  0  0  0
    1.8857  -11.7625   -1.4283 H   0  0  0  0  0  0  0  0  0  0  0  0
    4.4822   -9.8341    0.1471 H   0  0  0  0  0  0  0  0  0  0  0  0
    6.6709   -8.6236   -0.6008 H   0  0  0  0  0  0  0  0  0  0  0  0
  1  2  1  0
  2  3  1  0
  3  4  2  0
  4  5  1  0
  5  6  1  0
  6  7  1  0
  3  8  1  0
  8  9  1  0
  9 10  1  0
 10 11  2  0
 11 12  1  0
 12 13  1  0
 13 14  1  0
 10 15  1  0
 15 16  2  0
 16 17  1  0
 17 18  2  0
 18 19  1  0
 19 20  2  0
 20 21  1  0
 21 22  2  0
 22 23  1  0
 23 24  1  0
 24 25  1  0
 22 26  1  0
 26 27  1  0
 26 28  2  0
 18 29  1  0
 29 30  2  0
 30 31  1  0
 31 32  1  0
 32 33  2  0
 33 34  1  0
 34 35  2  0
 35 36  1  0
 36 37  1  0
 37 38  1  0
 35 39  1  0
 39 40  2  0
 39 41  1  0
 31 42  2  0
 42 43  1  0
 30 44  1  0
 44 45  2  0
 45 46  1  0
 45 47  1  0
 47 48  2  0
 48 49  1  0
 49 50  2  0
 50 51  1  0
 51 52  2  0
 52 53  1  0
 53 54  2  0
 54 55  1  0
 55 56  1  0
 56 57  1  0
 54 58  1  0
 58 59  1  0
 58 60  2  0
 50 61  1  0
 61 62  2  0
 62 63  1  0
 63 64  1  0
 64 65  2  0
 65 66  1  0
 66 67  2  0
 67 68  1  0
 68 69  1  0
 69 70  1  0
 67 71  1  0
 71 72  2  0
 71 73  1  0
 63 74  2  0
 74 75  1  0
 62 76  1  0
 76 77  2  0
 77 78  1  0
 77 79  1  0
 79 80  2  0
 80 81  1  0
 81 82  2  0
 82 83  1  0
 83 84  2  0
 84 85  1  0
 85 86  2  0
 86 87  1  0
 87 88  1  0
 88 89  1  0
 86 90  1  0
 90 91  1  0
 90 92  2  0
 82 93  1  0
 93 94  2  0
 94 95  1  0
 95 96  1  0
 96 97  2  0
 97 98  1  0
 98 99  2  0
 99100  1  0
100101  1  0
101102  1  0
 99103  1  0
103104  2  0
103105  1  0
 95106  2  0
106107  1  0
 94108  1  0
108109  2  0
109110  1  0
109111  1  0
111112  2  0
112113  1  0
113114  2  0
114115  1  0
115116  2  0
116117  1  0
117118  2  0
118119  1  0
119120  1  0
120121  1  0
118122  1  0
122123  1  0
122124  2  0
114125  1  0
125126  2  0
126127  1  0
127128  1  0
128129  2  0
129130  1  0
130131  2  0
131132  1  0
132133  1  0
133134  1  0
131135  1  0
135136  2  0
135137  1  0
127138  2  0
138139  1  0
126140  1  0
140141  2  0
141142  1  0
  5  1  2  0
 12  8  2  0
 43 15  1  0
 75 47  1  0
107 79  1  0
139111  1  0
  7  4  1  0
 14 11  1  0
 42 17  1  0
 74 49  1  0
106 81  1  0
138113  1  0
 28 19  1  0
 46 29  1  0
 60 51  1  0
 78 61  1  0
 92 83  1  0
110 93  1  0
124115  1  0
142125  1  0
 40 32  1  0
 72 64  1  0
104 96  1  0
136128  1  0
  1143  1  0
  6144  1  0
  6145  1  0
  7146  1  0
 13147  1  0
 13148  1  0
 14149  1  0
 16150  1  0
 20151  1  0
 21152  1  0
 24153  1  0
 24154  1  0
 25155  1  0
 25156  1  0
 25157  1  0
 28158  1  0
 33159  1  0
 34160  1  0
 37161  1  0
 37162  1  0
 38163  1  0
 38164  1  0
 38165  1  0
 40166  1  0
 44167  1  0
 48168  1  0
 52169  1  0
 53170  1  0
 56171  1  0
 56172  1  0
 57173  1  0
 57174  1  0
 57175  1  0
 60176  1  0
 65177  1  0
 66178  1  0
 69179  1  0
 69180  1  0
 70181  1  0
 70182  1  0
 70183  1  0
 72184  1  0
 76185  1  0
 80186  1  0
 84187  1  0
 85188  1  0
 88189  1  0
 88190  1  0
 89191  1  0
 89192  1  0
 89193  1  0
 92194  1  0
 97195  1  0
 98196  1  0
101197  1  0
101198  1  0
102199  1  0
102200  1  0
102201  1  0
104202  1  0
108203  1  0
112204  1  0
116205  1  0
117206  1  0
120207  1  0
120208  1  0
121209  1  0
121210  1  0
121211  1  0
124212  1  0
129213  1  0
130214  1  0
133215  1  0
133216  1  0
134217  1  0
134218  1  0
134219  1  0
136220  1  0
140221  1  0
141222  1  0
M  END

