
     RDKit          3D

252275  0  0  0  0  0  0  0  0999 V2000
   -1.9027   -4.4797   11.2275 C   0  0  0  0  0  0  0  0  0  0  0  0
   -1.8076   -3.2643   10.5546 C   0  0  0  0  0  0  0  0  0  0  0  0
   -2.5567   -3.2291    9.3638 C   0  0  0  0  0  0  0  0  0  0  0  0
   -2.6620   -2.1418    8.4714 C   0  0  0  0  0  0  0  0  0  0  0  0
   -1.9059   -0.8682    8.6508 C   0  0  0  0  0  0  0  0  0  0  0  0
   -0.5076   -0.8731    8.7918 C   0  0  0  0  0  0  0  0  0  0  0  0
    0.1994    0.3329    8.8585 C   0  0  0  0  0  0  0  0  0  0  0  0
   -0.4771    1.5572    8.7670 C   0  0  0  0  0  0  0  0  0  0  0  0
    0.4507    3.0979    8.8146 S   0  0  0  0  0  0  0  0  0  0  0  0
    0.9776    3.0338    7.0658 C   0  0  0  0  0  0  0  0  0  0  0  0
   -0.0544    3.6761    6.1514 C   0  0  0  0  0  0  0  0  0  0  0  0
   -1.8713    1.5682    8.6451 C   0  0  0  0  0  0  0  0  0  0  0  0
   -2.5455    2.7418    8.5571 F   0  0  0  0  0  0  0  0  0  0  0  0
   -2.5821    0.3634    8.6038 C   0  0  0  0  0  0  0  0  0  0  0  0
   -3.4776   -2.3349    7.3418 C   0  0  0  0  0  0  0  0  0  0  0  0
   -4.1575   -3.5304    7.0866 C   0  0  0  0  0  0  0  0  0  0  0  0
   -4.0605   -4.6146    7.9866 C   0  0  0  0  0  0  0  0  0  0  0  0
   -4.7841   -5.8904    7.7577 C   0  0  0  0  0  0  0  0  0  0  0  0
   -4.0811   -7.1001    7.6342 C   0  0  0  0  0  0  0  0  0  0  0  0
   -4.7668   -8.2876    7.3638 C   0  0  0  0  0  0  0  0  0  0  0  0
   -6.1596   -8.2829    7.2235 C   0  0  0  0  0  0  0  0  0  0  0  0
   -7.0231   -9.8162    6.8530 S   0  0  0  0  0  0  0  0  0  0  0  0
   -6.8911   -9.6574    5.0324 C   0  0  0  0  0  0  0  0  0  0  0  0
   -8.1069   -8.9310    4.4616 C   0  0  0  0  0  0  0  0  0  0  0  0
   -6.8704   -7.0868    7.3835 C   0  0  0  0  0  0  0  0  0  0  0  0
   -6.1816   -5.8930    7.6355 C   0  0  0  0  0  0  0  0  0  0  0  0
   -8.2194   -7.0641    7.2704 F   0  0  0  0  0  0  0  0  0  0  0  0
   -3.2414   -4.4242    9.1156 C   0  0  0  0  0  0  0  0  0  0  0  0
   -2.9214   -5.5111   10.3589 S   0  0  0  0  0  0  0  0  0  0  0  0
   -4.8049   -3.5408    5.8361 C   0  0  0  0  0  0  0  0  0  0  0  0
   -4.6493   -2.3429    5.1410 C   0  0  0  0  0  0  0  0  0  0  0  0
   -3.6784   -1.3013    6.0335 S   0  0  0  0  0  0  0  0  0  0  0  0
   -4.9502   -2.1403    3.7288 C   0  0  0  0  0  0  0  0  0  0  0  0
   -5.9819   -1.3510    3.2242 C   0  0  0  0  0  0  0  0  0  0  0  0
   -5.8392   -1.0876    1.8480 C   0  0  0  0  0  0  0  0  0  0  0  0
   -6.6944   -0.2882    1.0575 C   0  0  0  0  0  0  0  0  0  0  0  0
   -7.9298    0.3109    1.6051 C   0  0  0  0  0  0  0  0  0  0  0  0
   -8.9559   -0.5092    2.0942 C   0  0  0  0  0  0  0  0  0  0  0  0
  -10.1387    0.0571    2.5849 C   0  0  0  0  0  0  0  0  0  0  0  0
  -10.3087    1.4464    2.5800 C   0  0  0  0  0  0  0  0  0  0  0  0
  -11.8326    2.1592    3.2086 S   0  0  0  0  0  0  0  0  0  0  0  0
  -12.7785    1.9248    1.6609 C   0  0  0  0  0  0  0  0  0  0  0  0
  -12.5150    3.0540    0.6728 C   0  0  0  0  0  0  0  0  0  0  0  0
   -9.2742    2.2709    2.1120 C   0  0  0  0  0  0  0  0  0  0  0  0
   -9.4128    3.6193    2.1236 F   0  0  0  0  0  0  0  0  0  0  0  0
   -8.0918    1.7054    1.6257 C   0  0  0  0  0  0  0  0  0  0  0  0
   -6.3132   -0.0828   -0.2817 C   0  0  0  0  0  0  0  0  0  0  0  0
   -5.1496   -0.6431   -0.8206 C   0  0  0  0  0  0  0  0  0  0  0  0
   -4.2823   -1.4238   -0.0258 C   0  0  0  0  0  0  0  0  0  0  0  0
   -2.9769   -1.9191   -0.5337 C   0  0  0  0  0  0  0  0  0  0  0  0
   -2.9106   -2.7658   -1.6495 C   0  0  0  0  0  0  0  0  0  0  0  0
   -1.6740   -3.1964   -2.1398 C   0  0  0  0  0  0  0  0  0  0  0  0
   -0.4838   -2.7847   -1.5166 C   0  0  0  0  0  0  0  0  0  0  0  0
    1.0965   -3.4063   -2.1111 S   0  0  0  0  0  0  0  0  0  0  0  0
    1.6126   -1.8667   -2.9532 C   0  0  0  0  0  0  0  0  0  0  0  0
    0.8239   -1.6348   -4.2351 C   0  0  0  0  0  0  0  0  0  0  0  0
   -0.5489   -1.9508   -0.3942 C   0  0  0  0  0  0  0  0  0  0  0  0
   -1.7818   -1.4950    0.0797 C   0  0  0  0  0  0  0  0  0  0  0  0
    0.5936   -1.5222    0.2098 F   0  0  0  0  0  0  0  0  0  0  0  0
   -4.6718   -1.6378    1.3049 C   0  0  0  0  0  0  0  0  0  0  0  0
   -3.8449   -2.4741    2.5025 S   0  0  0  0  0  0  0  0  0  0  0  0
   -4.9365   -0.2820   -2.1555 C   0  0  0  0  0  0  0  0  0  0  0  0
   -5.9298    0.5455   -2.6692 C   0  0  0  0  0  0  0  0  0  0  0  0
   -7.0637    0.8717   -1.4611 S   0  0  0  0  0  0  0  0  0  0  0  0
   -5.7962    1.2201   -3.9670 C   0  0  0  0  0  0  0  0  0  0  0  0
   -5.1160    0.6161   -5.0220 C   0  0  0  0  0  0  0  0  0  0  0  0
   -4.3967    1.5198   -5.8109 C   0  0  0  0  0  0  0  0  0  0  0  0
   -3.3736    1.1689   -6.7124 C   0  0  0  0  0  0  0  0  0  0  0  0
   -3.0448   -0.2435   -7.0050 C   0  0  0  0  0  0  0  0  0  0  0  0
   -2.4977   -1.0636   -6.0067 C   0  0  0  0  0  0  0  0  0  0  0  0
   -2.1745   -2.3940   -6.2854 C   0  0  0  0  0  0  0  0  0  0  0  0
   -2.4044   -2.9166   -7.5637 C   0  0  0  0  0  0  0  0  0  0  0  0
   -2.0292   -4.6402   -7.9086 S   0  0  0  0  0  0  0  0  0  0  0  0
   -3.6796   -5.2652   -7.4295 C   0  0  0  0  0  0  0  0  0  0  0  0
   -3.7185   -5.6015   -5.9425 C   0  0  0  0  0  0  0  0  0  0  0  0
   -2.9271   -2.0924   -8.5709 C   0  0  0  0  0  0  0  0  0  0  0  0
   -3.1359   -2.5790   -9.8195 F   0  0  0  0  0  0  0  0  0  0  0  0
   -3.2429   -0.7595   -8.2939 C   0  0  0  0  0  0  0  0  0  0  0  0
   -2.5106    2.1941   -7.1119 C   0  0  0  0  0  0  0  0  0  0  0  0
   -2.6641    3.5207   -6.6996 C   0  0  0  0  0  0  0  0  0  0  0  0
   -3.7791    3.8949   -5.9186 C   0  0  0  0  0  0  0  0  0  0  0  0
   -4.0449    5.2974   -5.5244 C   0  0  0  0  0  0  0  0  0  0  0  0
   -3.1410    6.0080   -4.7140 C   0  0  0  0  0  0  0  0  0  0  0  0
   -3.3761    7.3515   -4.4091 C   0  0  0  0  0  0  0  0  0  0  0  0
   -4.5265    7.9896   -4.8851 C   0  0  0  0  0  0  0  0  0  0  0  0
   -4.8127    9.7195   -4.4984 S   0  0  0  0  0  0  0  0  0  0  0  0
   -4.2128   10.3632   -6.1021 C   0  0  0  0  0  0  0  0  0  0  0  0
   -2.6923   10.4111   -6.1490 C   0  0  0  0  0  0  0  0  0  0  0  0
   -5.4604    7.2666   -5.6411 C   0  0  0  0  0  0  0  0  0  0  0  0
   -5.2168    5.9298   -5.9631 C   0  0  0  0  0  0  0  0  0  0  0  0
   -6.5920    7.8646   -6.0875 F   0  0  0  0  0  0  0  0  0  0  0  0
   -4.6034    2.8549   -5.4503 C   0  0  0  0  0  0  0  0  0  0  0  0
   -5.6192    2.8948   -4.0996 S   0  0  0  0  0  0  0  0  0  0  0  0
   -1.5157    4.3026   -6.9370 C   0  0  0  0  0  0  0  0  0  0  0  0
   -0.4498    3.5723   -7.4734 C   0  0  0  0  0  0  0  0  0  0  0  0
   -0.9768    1.9912   -7.7427 S   0  0  0  0  0  0  0  0  0  0  0  0
    0.9538    3.8325   -7.1156 C   0  0  0  0  0  0  0  0  0  0  0  0
    1.8643    2.7080   -6.2675 S   0  0  0  0  0  0  0  0  0  0  0  0
    3.2037    3.6777   -5.9826 C   0  0  0  0  0  0  0  0  0  0  0  0
    2.9557    4.9395   -6.5527 C   0  0  0  0  0  0  0  0  0  0  0  0
    1.6938    5.0173   -7.1837 C   0  0  0  0  0  0  0  0  0  0  0  0
    1.2635    6.2623   -7.9149 C   0  0  2  0  0  0  0  0  0  0  0  0
    1.7749    6.2467   -9.2961 N   0  0  0  0  0  4  0  0  0  0  0  0
    1.9468    7.4265   -9.9780 O   0  0  0  0  0  1  0  0  0  0  0  0
    1.7992    5.1748   -9.9451 O   0  0  0  0  0  0  0  0  0  0  0  0
    1.7912    7.4722   -7.1285 C   0  0  0  0  0  0  0  0  0  0  0  0
    3.3242    7.4587   -6.9736 C   0  0  0  0  0  0  0  0  0  0  0  0
    3.9615    6.0701   -6.6538 C   0  0  1  0  0  0  0  0  0  0  0  0
    4.7986    6.1735   -5.4535 N   0  0  0  0  0  4  0  0  0  0  0  0
    6.1724    6.1609   -5.5869 O   0  0  0  0  0  1  0  0  0  0  0  0
    4.2927    6.3881   -4.3290 O   0  0  0  0  0  0  0  0  0  0  0  0
    4.4071    3.1991   -5.2740 C   0  0  0  0  0  0  0  0  0  0  0  0
    4.3183    2.2118   -4.3703 C   0  0  0  0  0  0  0  0  0  0  0  0
    5.4657    1.6055   -3.6740 C   0  0  0  0  0  0  0  0  0  0  0  0
    5.3318    1.0180   -2.1064 S   0  0  0  0  0  0  0  0  0  0  0  0
    6.8097    0.2399   -2.0478 C   0  0  0  0  0  0  0  0  0  0  0  0
    7.4269    0.3771   -3.2988 C   0  0  0  0  0  0  0  0  0  0  0  0
    6.6761    1.1407   -4.2174 C   0  0  0  0  0  0  0  0  0  0  0  0
    7.1257    1.3914   -5.6430 C   0  0  2  0  0  0  0  0  0  0  0  0
    6.0792    1.0058   -6.6022 N   0  0  0  0  0  4  0  0  0  0  0  0
    5.4113   -0.1952   -6.4740 O   0  0  0  0  0  1  0  0  0  0  0  0
    5.9495    1.6662   -7.6569 O   0  0  0  0  0  0  0  0  0  0  0  0
    8.4667    0.7211   -6.0297 C   0  0  0  0  0  0  0  0  0  0  0  0
    8.8473   -0.4921   -5.1659 C   0  0  0  0  0  0  0  0  0  0  0  0
    8.7714   -0.1999   -3.6526 C   0  0  1  0  0  0  0  0  0  0  0  0
    9.8421    0.6977   -3.1769 N   0  0  0  0  0  4  0  0  0  0  0  0
   10.0058    0.9025   -1.8189 O   0  0  0  0  0  1  0  0  0  0  0  0
   10.5412    1.3661   -3.9674 O   0  0  0  0  0  0  0  0  0  0  0  0
    7.2508   -0.6278   -0.9298 C   0  0  0  0  0  0  0  0  0  0  0  0
    6.7798   -0.4852    0.3151 C   0  0  0  0  0  0  0  0  0  0  0  0
    7.0523   -1.4693    1.3755 C   0  0  0  0  0  0  0  0  0  0  0  0
    7.2867   -2.8321    1.1833 C   0  0  0  0  0  0  0  0  0  0  0  0
    7.3146   -3.5528    2.3881 C   0  0  0  0  0  0  0  0  0  0  0  0
    7.4112   -4.9556    2.5146 C   0  0  0  0  0  0  0  0  0  0  0  0
    7.5566   -5.8403    1.3376 C   0  0  0  0  0  0  0  0  0  0  0  0
    6.5252   -6.7283    0.9983 C   0  0  0  0  0  0  0  0  0  0  0  0
    6.6649   -7.5840   -0.0991 C   0  0  0  0  0  0  0  0  0  0  0  0
    7.8393   -7.5621   -0.8585 C   0  0  0  0  0  0  0  0  0  0  0  0
    8.0090   -8.6819   -2.2489 S   0  0  0  0  0  0  0  0  0  0  0  0
    7.2327   -7.5295   -3.4307 C   0  0  0  0  0  0  0  0  0  0  0  0
    7.1387   -8.1766   -4.8024 C   0  0  0  0  0  0  0  0  0  0  0  0
    8.8735   -6.6806   -0.5225 C   0  0  0  0  0  0  0  0  0  0  0  0
   10.0224   -6.6594   -1.2430 F   0  0  0  0  0  0  0  0  0  0  0  0
    8.7294   -5.8201    0.5724 C   0  0  0  0  0  0  0  0  0  0  0  0
    7.3105   -5.4864    3.8090 C   0  0  0  0  0  0  0  0  0  0  0  0
    7.1423   -4.6863    4.9418 C   0  0  0  0  0  0  0  0  0  0  0  0
    7.0487   -3.2853    4.8197 C   0  0  0  0  0  0  0  0  0  0  0  0
    6.8656   -2.4091    5.9955 C   0  0  0  0  0  0  0  0  0  0  0  0
    7.8412   -1.4579    6.3206 C   0  0  0  0  0  0  0  0  0  0  0  0
    7.6848   -0.6379    7.4427 C   0  0  0  0  0  0  0  0  0  0  0  0
    6.5402   -0.7513    8.2423 C   0  0  0  0  0  0  0  0  0  0  0  0
    6.3395    0.3241    9.6632 S   0  0  0  0  0  0  0  0  0  0  0  0
    5.6108    1.7022    8.7151 C   0  0  0  0  0  0  0  0  0  0  0  0
    4.1161    1.4962    8.5044 C   0  0  0  0  0  0  0  0  0  0  0  0
    5.5724   -1.7192    7.9324 C   0  0  0  0  0  0  0  0  0  0  0  0
    5.7281   -2.5350    6.8081 C   0  0  0  0  0  0  0  0  0  0  0  0
    4.4710   -1.8618    8.7082 F   0  0  0  0  0  0  0  0  0  0  0  0
    7.1259   -2.7523    3.5183 C   0  0  0  0  0  0  0  0  0  0  0  0
    6.8852   -1.1555    3.0257 S   0  0  0  0  0  0  0  0  0  0  0  0
    7.0903   -5.4310    6.1382 C   0  0  0  0  0  0  0  0  0  0  0  0
    7.2052   -6.8021    5.9298 C   0  0  0  0  0  0  0  0  0  0  0  0
    7.3882   -7.0977    4.2805 S   0  0  0  0  0  0  0  0  0  0  0  0
   -1.4009   -4.7206   12.1568 H   0  0  0  0  0  0  0  0  0  0  0  0
   -1.2147   -2.4407   10.9282 H   0  0  0  0  0  0  0  0  0  0  0  0
    0.0389   -1.8088    8.8230 H   0  0  0  0  0  0  0  0  0  0  0  0
    1.2744    0.3173    8.9642 H   0  0  0  0  0  0  0  0  0  0  0  0
    1.9279    3.5972    6.9763 H   0  0  0  0  0  0  0  0  0  0  0  0
    1.1714    1.9861    6.7489 H   0  0  0  0  0  0  0  0  0  0  0  0
   -1.0443    3.1944    6.2815 H   0  0  0  0  0  0  0  0  0  0  0  0
    0.2672    3.5512    5.0976 H   0  0  0  0  0  0  0  0  0  0  0  0
   -0.1324    4.7592    6.3784 H   0  0  0  0  0  0  0  0  0  0  0  0
   -3.6621    0.3916    8.5050 H   0  0  0  0  0  0  0  0  0  0  0  0
   -3.0030   -7.1202    7.7414 H   0  0  0  0  0  0  0  0  0  0  0  0
   -4.2114   -9.2124    7.2644 H   0  0  0  0  0  0  0  0  0  0  0  0
   -6.8495  -10.6786    4.5976 H   0  0  0  0  0  0  0  0  0  0  0  0
   -5.9585   -9.1286    4.7375 H   0  0  0  0  0  0  0  0  0  0  0  0
   -8.0944   -7.8593    4.7558 H   0  0  0  0  0  0  0  0  0  0  0  0
   -9.0452   -9.4044    4.8247 H   0  0  0  0  0  0  0  0  0  0  0  0
   -8.0881   -8.9905    3.3520 H   0  0  0  0  0  0  0  0  0  0  0  0
   -6.7408   -4.9690    7.7367 H   0  0  0  0  0  0  0  0  0  0  0  0
   -5.3004   -4.4004    5.4178 H   0  0  0  0  0  0  0  0  0  0  0  0
   -6.7763   -0.9528    3.8406 H   0  0  0  0  0  0  0  0  0  0  0  0
   -8.8416   -1.5859    2.0911 H   0  0  0  0  0  0  0  0  0  0  0  0
  -10.9255   -0.5877    2.9497 H   0  0  0  0  0  0  0  0  0  0  0  0
  -12.5317    0.9462    1.1954 H   0  0  0  0  0  0  0  0  0  0  0  0
  -13.8594    1.9149    1.9182 H   0  0  0  0  0  0  0  0  0  0  0  0
  -13.1902    2.9383   -0.2022 H   0  0  0  0  0  0  0  0  0  0  0  0
  -11.4623    3.0224    0.3208 H   0  0  0  0  0  0  0  0  0  0  0  0
  -12.7107    4.0368    1.1517 H   0  0  0  0  0  0  0  0  0  0  0  0
   -7.2979    2.3522    1.2709 H   0  0  0  0  0  0  0  0  0  0  0  0
   -3.8234   -3.1011   -2.1323 H   0  0  0  0  0  0  0  0  0  0  0  0
   -1.6409   -3.8449   -3.0004 H   0  0  0  0  0  0  0  0  0  0  0  0
    1.5024   -0.9974   -2.2691 H   0  0  0  0  0  0  0  0  0  0  0  0
    2.6907   -1.9635   -3.2093 H   0  0  0  0  0  0  0  0  0  0  0  0
    1.1821   -0.7046   -4.7270 H   0  0  0  0  0  0  0  0  0  0  0  0
   -0.2520   -1.5162   -4.0017 H   0  0  0  0  0  0  0  0  0  0  0  0
    0.9638   -2.4891   -4.9306 H   0  0  0  0  0  0  0  0  0  0  0  0
   -1.8095   -0.8275    0.9303 H   0  0  0  0  0  0  0  0  0  0  0  0
   -4.0512   -0.5590   -2.7104 H   0  0  0  0  0  0  0  0  0  0  0  0
   -4.9844   -0.4554   -5.0777 H   0  0  0  0  0  0  0  0  0  0  0  0
   -2.3346   -0.6726   -5.0087 H   0  0  0  0  0  0  0  0  0  0  0  0
   -1.7504   -3.0149   -5.5102 H   0  0  0  0  0  0  0  0  0  0  0  0
   -4.4773   -4.5314   -7.6767 H   0  0  0  0  0  0  0  0  0  0  0  0
   -3.8858   -6.1903   -8.0050 H   0  0  0  0  0  0  0  0  0  0  0  0
   -4.7088   -6.0261   -5.6828 H   0  0  0  0  0  0  0  0  0  0  0  0
   -2.9357   -6.3538   -5.7046 H   0  0  0  0  0  0  0  0  0  0  0  0
   -3.5524   -4.6935   -5.3284 H   0  0  0  0  0  0  0  0  0  0  0  0
   -3.6491   -0.1277   -9.0738 H   0  0  0  0  0  0  0  0  0  0  0  0
   -2.2534    5.5235   -4.3307 H   0  0  0  0  0  0  0  0  0  0  0  0
   -2.6613    7.8923   -3.8020 H   0  0  0  0  0  0  0  0  0  0  0  0
   -4.6080   11.3935   -6.2338 H   0  0  0  0  0  0  0  0  0  0  0  0
   -4.5997    9.7424   -6.9395 H   0  0  0  0  0  0  0  0  0  0  0  0
   -2.2661    9.3875   -6.0878 H   0  0  0  0  0  0  0  0  0  0  0  0
   -2.3043   11.0266   -5.3095 H   0  0  0  0  0  0  0  0  0  0  0  0
   -2.3650   10.8703   -7.1064 H   0  0  0  0  0  0  0  0  0  0  0  0
   -5.9307    5.3857   -6.5683 H   0  0  0  0  0  0  0  0  0  0  0  0
   -1.3850    5.3033   -6.5558 H   0  0  0  0  0  0  0  0  0  0  0  0
    0.1605    6.3248   -7.9547 H   0  0  0  0  0  0  0  0  0  0  0  0
    1.3232    7.4717   -6.1180 H   0  0  0  0  0  0  0  0  0  0  0  0
    1.4774    8.4160   -7.6253 H   0  0  0  0  0  0  0  0  0  0  0  0
    3.7843    7.8578   -7.9104 H   0  0  0  0  0  0  0  0  0  0  0  0
    3.5914    8.1959   -6.1793 H   0  0  0  0  0  0  0  0  0  0  0  0
    4.6272    5.8067   -7.5089 H   0  0  0  0  0  0  0  0  0  0  0  0
    5.3615    3.6577   -5.4847 H   0  0  0  0  0  0  0  0  0  0  0  0
    3.3436    1.8277   -4.0843 H   0  0  0  0  0  0  0  0  0  0  0  0
    7.2858    2.4865   -5.7360 H   0  0  0  0  0  0  0  0  0  0  0  0
    8.4268    0.3796   -7.0886 H   0  0  0  0  0  0  0  0  0  0  0  0
    9.2798    1.4766   -6.0086 H   0  0  0  0  0  0  0  0  0  0  0  0
    9.8754   -0.8260   -5.4306 H   0  0  0  0  0  0  0  0  0  0  0  0
    8.1518   -1.3254   -5.4070 H   0  0  0  0  0  0  0  0  0  0  0  0
    8.9056   -1.1835   -3.1471 H   0  0  0  0  0  0  0  0  0  0  0  0
    7.9493   -1.4312   -1.1407 H   0  0  0  0  0  0  0  0  0  0  0  0
    6.1621    0.3726    0.5605 H   0  0  0  0  0  0  0  0  0  0  0  0
    7.3656   -3.2892    0.2071 H   0  0  0  0  0  0  0  0  0  0  0  0
    5.6127   -6.7567    1.5800 H   0  0  0  0  0  0  0  0  0  0  0  0
    5.8604   -8.2569   -0.3541 H   0  0  0  0  0  0  0  0  0  0  0  0
    7.8422   -6.6006   -3.4951 H   0  0  0  0  0  0  0  0  0  0  0  0
    6.2101   -7.2675   -3.0774 H   0  0  0  0  0  0  0  0  0  0  0  0
    6.4177   -9.0206   -4.7758 H   0  0  0  0  0  0  0  0  0  0  0  0
    8.1344   -8.5523   -5.1204 H   0  0  0  0  0  0  0  0  0  0  0  0
    6.7874   -7.4289   -5.5444 H   0  0  0  0  0  0  0  0  0  0  0  0
    9.5405   -5.1483    0.8349 H   0  0  0  0  0  0  0  0  0  0  0  0
    8.7387   -1.3628    5.7191 H   0  0  0  0  0  0  0  0  0  0  0  0
    8.4422    0.0971    7.6801 H   0  0  0  0  0  0  0  0  0  0  0  0
    5.7550    2.6377    9.2926 H   0  0  0  0  0  0  0  0  0  0  0  0
    6.1186    1.8198    7.7347 H   0  0  0  0  0  0  0  0  0  0  0  0
    3.6084    1.3790    9.4826 H   0  0  0  0  0  0  0  0  0  0  0  0
    3.9291    0.6032    7.8769 H   0  0  0  0  0  0  0  0  0  0  0  0
    3.6976    2.3810    7.9874 H   0  0  0  0  0  0  0  0  0  0  0  0
    4.9696   -3.2731    6.5722 H   0  0  0  0  0  0  0  0  0  0  0  0
    6.9700   -4.9970    7.1215 H   0  0  0  0  0  0  0  0  0  0  0  0
    7.1873   -7.5563    6.7106 H   0  0  0  0  0  0  0  0  0  0  0  0
  1  2  2  0
  2  3  1  0
  3  4  2  0
  4  5  1  0
  5  6  2  0
  6  7  1  0
  7  8  2  0
  8  9  1  0
  9 10  1  0
 10 11  1  0
  8 12  1  0
 12 13  1  0
 12 14  2  0
  4 15  1  0
 15 16  2  0
 16 17  1  0
 17 18  1  0
 18 19  2  0
 19 20  1  0
 20 21  2  0
 21 22  1  0
 22 23  1  0
 23 24  1  0
 21 25  1  0
 25 26  2  0
 25 27  1  0
 17 28  2  0
 28 29  1  0
 16 30  1  0
 30 31  2  0
 31 32  1  0
 31 33  1  0
 33 34  2  0
 34 35  1  0
 35 36  2  0
 36 37  1  0
 37 38  2  0
 38 39  1  0
 39 40  2  0
 40 41  1  0
 41 42  1  0
 42 43  1  0
 40 44  1  0
 44 45  1  0
 44 46  2  0
 36 47  1  0
 47 48  2  0
 48 49  1  0
 49 50  1  0
 50 51  2  0
 51 52  1  0
 52 53  2  0
 53 54  1  0
 54 55  1  0
 55 56  1  0
 53 57  1  0
 57 58  2  0
 57 59  1  0
 49 60  2  0
 60 61  1  0
 48 62  1  0
 62 63  2  0
 63 64  1  0
 63 65  1  0
 65 66  2  0
 66 67  1  0
 67 68  2  0
 68 69  1  0
 69 70  2  0
 70 71  1  0
 71 72  2  0
 72 73  1  0
 73 74  1  0
 74 75  1  0
 72 76  1  0
 76 77  1  0
 76 78  2  0
 68 79  1  0
 79 80  2  0
 80 81  1  0
 81 82  1  0
 82 83  2  0
 83 84  1  0
 84 85  2  0
 85 86  1  0
 86 87  1  0
 87 88  1  0
 85 89  1  0
 89 90  2  0
 89 91  1  0
 81 92  2  0
 92 93  1  0
 80 94  1  0
 94 95  2  0
 95 96  1  0
 95 97  1  0
 97 98  1  0
 98 99  1  0
 99100  2  0
100101  1  0
101102  1  0
102103  1  0
103104  1  0
103105  2  0
102106  1  0
106107  1  0
107108  1  0
108109  1  0
109110  1  0
109111  2  0
 99112  1  0
112113  2  3
113114  1  0
114115  1  0
115116  1  0
116117  2  0
117118  1  0
118119  1  0
119120  1  0
120121  1  0
120122  2  0
119123  1  0
123124  1  0
124125  1  0
125126  1  0
126127  1  0
126128  2  0
116129  1  0
129130  2  3
130131  1  0
131132  2  0
132133  1  0
133134  2  0
134135  1  0
135136  2  0
136137  1  0
137138  2  0
138139  1  0
139140  1  0
140141  1  0
138142  1  0
142143  1  0
142144  2  0
134145  1  0
145146  2  0
146147  1  0
147148  1  0
148149  2  0
149150  1  0
150151  2  0
151152  1  0
152153  1  0
153154  1  0
151155  1  0
155156  2  0
155157  1  0
147158  2  0
158159  1  0
146160  1  0
160161  2  0
161162  1  0
 29  1  1  0
 61 33  1  0
 93 65  1  0
101 97  2  0
118114  2  0
159131  1  0
 28  3  1  0
 60 35  1  0
 92 67  1  0
108100  1  0
125117  1  0
158133  1  0
 14  5  1  0
 32 15  1  0
 46 37  1  0
 64 47  1  0
 78 69  1  0
 96 79  1  0
144135  1  0
162145  1  0
 26 18  1  0
 58 50  1  0
 90 82  1  0
156148  1  0
  1163  1  0
  2164  1  0
  6165  1  0
  7166  1  0
 10167  1  0
 10168  1  0
 11169  1  0
 11170  1  0
 11171  1  0
 14172  1  0
 19173  1  0
 20174  1  0
 23175  1  0
 23176  1  0
 24177  1  0
 24178  1  0
 24179  1  0
 26180  1  0
 30181  1  0
 34182  1  0
 38183  1  0
 39184  1  0
 42185  1  0
 42186  1  0
 43187  1  0
 43188  1  0
 43189  1  0
 46190  1  0
 51191  1  0
 52192  1  0
 55193  1  0
 55194  1  0
 56195  1  0
 56196  1  0
 56197  1  0
 58198  1  0
 62199  1  0
 66200  1  0
 70201  1  0
 71202  1  0
 74203  1  0
 74204  1  0
 75205  1  0
 75206  1  0
 75207  1  0
 78208  1  0
 83209  1  0
 84210  1  0
 87211  1  0
 87212  1  0
 88213  1  0
 88214  1  0
 88215  1  0
 90216  1  0
 94217  1  0
102218  1  6
106219  1  0
106220  1  0
107221  1  0
107222  1  0
108223  1  6
112224  1  0
113225  1  0
119226  1  1
123227  1  0
123228  1  0
124229  1  0
124230  1  0
125231  1  1
129232  1  0
130233  1  0
132234  1  0
136235  1  0
137236  1  0
140237  1  0
140238  1  0
141239  1  0
141240  1  0
141241  1  0
144242  1  0
149243  1  0
150244  1  0
153245  1  0
153246  1  0
154247  1  0
154248  1  0
154249  1  0
156250  1  0
160251  1  0
161252  1  0
M  CHG  8 103   1 104  -1 109   1 110  -1 120   1 121  -1 126   1 127  -1
M  END

