
     RDKit          3D

273299  0  0  0  0  0  0  0  0999 V2000
   -8.5810   -2.2620   12.1199 C   0  0  0  0  0  0  0  0  0  0  0  0
   -7.7628   -1.2928   11.5496 C   0  0  0  0  0  0  0  0  0  0  0  0
   -7.9726   -1.1418   10.1692 C   0  0  0  0  0  0  0  0  0  0  0  0
   -7.3098   -0.2351    9.3200 C   0  0  0  0  0  0  0  0  0  0  0  0
   -6.2456    0.6627    9.8036 C   0  0  0  0  0  0  0  0  0  0  0  0
   -6.5606    1.9555   10.2454 C   0  0  0  0  0  0  0  0  0  0  0  0
   -5.5408    2.8400   10.6109 C   0  0  0  0  0  0  0  0  0  0  0  0
   -4.2005    2.4357   10.5347 C   0  0  0  0  0  0  0  0  0  0  0  0
   -2.8939    3.5913   10.9551 S   0  0  0  0  0  0  0  0  0  0  0  0
   -2.8175    3.0512   12.6954 C   0  0  0  0  0  0  0  0  0  0  0  0
   -1.7000    3.7871   13.4186 C   0  0  0  0  0  0  0  0  0  0  0  0
   -3.8852    1.1403   10.0996 C   0  0  0  0  0  0  0  0  0  0  0  0
   -2.5918    0.7414   10.0141 F   0  0  0  0  0  0  0  0  0  0  0  0
   -4.9050    0.2557    9.7360 C   0  0  0  0  0  0  0  0  0  0  0  0
   -7.6861   -0.2322    7.9703 C   0  0  0  0  0  0  0  0  0  0  0  0
   -8.6668   -1.0821    7.4545 C   0  0  0  0  0  0  0  0  0  0  0  0
   -9.3259   -2.0038    8.3006 C   0  0  0  0  0  0  0  0  0  0  0  0
  -10.3495   -2.9448    7.7924 C   0  0  0  0  0  0  0  0  0  0  0  0
  -10.1395   -4.3295    7.8733 C   0  0  0  0  0  0  0  0  0  0  0  0
  -11.1033   -5.2171    7.3856 C   0  0  0  0  0  0  0  0  0  0  0  0
  -12.2872   -4.7289    6.8249 C   0  0  0  0  0  0  0  0  0  0  0  0
  -13.5236   -5.8820    6.2214 S   0  0  0  0  0  0  0  0  0  0  0  0
  -12.9560   -5.7822    4.4903 C   0  0  0  0  0  0  0  0  0  0  0  0
  -13.7088   -6.7902    3.6341 C   0  0  0  0  0  0  0  0  0  0  0  0
  -12.5086   -3.3452    6.7534 C   0  0  0  0  0  0  0  0  0  0  0  0
  -11.5380   -2.4577    7.2299 C   0  0  0  0  0  0  0  0  0  0  0  0
  -13.6492   -2.8571    6.2054 F   0  0  0  0  0  0  0  0  0  0  0  0
   -8.9508   -1.9994    9.6585 C   0  0  0  0  0  0  0  0  0  0  0  0
   -9.5593   -2.9317   10.9212 S   0  0  0  0  0  0  0  0  0  0  0  0
   -8.8523   -0.9283    6.0660 C   0  0  0  0  0  0  0  0  0  0  0  0
   -8.0130    0.0431    5.5145 C   0  0  0  0  0  0  0  0  0  0  0  0
   -7.0472    0.7004    6.7292 S   0  0  0  0  0  0  0  0  0  0  0  0
   -7.8869    0.3767    4.0865 C   0  0  0  0  0  0  0  0  0  0  0  0
   -6.8338    1.1062    3.5372 C   0  0  0  0  0  0  0  0  0  0  0  0
   -6.8874    1.1773    2.1389 C   0  0  0  0  0  0  0  0  0  0  0  0
   -5.9051    1.7419    1.3028 C   0  0  0  0  0  0  0  0  0  0  0  0
   -4.6490    2.3049    1.8448 C   0  0  0  0  0  0  0  0  0  0  0  0
   -4.6563    3.4819    2.6066 C   0  0  0  0  0  0  0  0  0  0  0  0
   -3.4583    3.9943    3.1179 C   0  0  0  0  0  0  0  0  0  0  0  0
   -2.2487    3.3299    2.8772 C   0  0  0  0  0  0  0  0  0  0  0  0
   -0.7090    3.9934    3.5226 S   0  0  0  0  0  0  0  0  0  0  0  0
   -0.8032    3.0460    5.0796 C   0  0  0  0  0  0  0  0  0  0  0  0
    0.4025    3.3604    5.9551 C   0  0  0  0  0  0  0  0  0  0  0  0
   -2.2411    2.1508    2.1198 C   0  0  0  0  0  0  0  0  0  0  0  0
   -1.0788    1.4909    1.8843 F   0  0  0  0  0  0  0  0  0  0  0  0
   -3.4364    1.6414    1.6099 C   0  0  0  0  0  0  0  0  0  0  0  0
   -6.0894    1.5877   -0.0806 C   0  0  0  0  0  0  0  0  0  0  0  0
   -7.1662    0.8929   -0.6314 C   0  0  0  0  0  0  0  0  0  0  0  0
   -8.1722    0.3643    0.2061 C   0  0  0  0  0  0  0  0  0  0  0  0
   -9.3426   -0.3396   -0.3411 C   0  0  0  0  0  0  0  0  0  0  0  0
  -10.5582    0.3384   -0.5035 C   0  0  0  0  0  0  0  0  0  0  0  0
  -11.6727   -0.3290   -1.0194 C   0  0  0  0  0  0  0  0  0  0  0  0
  -11.5801   -1.6793   -1.3814 C   0  0  0  0  0  0  0  0  0  0  0  0
  -13.0247   -2.5327   -2.0217 S   0  0  0  0  0  0  0  0  0  0  0  0
  -12.5936   -2.3027   -3.7838 C   0  0  0  0  0  0  0  0  0  0  0  0
  -12.8884   -0.8803   -4.2484 C   0  0  0  0  0  0  0  0  0  0  0  0
  -10.3683   -2.3653   -1.2046 C   0  0  0  0  0  0  0  0  0  0  0  0
   -9.2516   -1.6948   -0.6904 C   0  0  0  0  0  0  0  0  0  0  0  0
  -10.2688   -3.6776   -1.5332 F   0  0  0  0  0  0  0  0  0  0  0  0
   -7.9939    0.5134    1.5929 C   0  0  0  0  0  0  0  0  0  0  0  0
   -8.8951   -0.1705    2.8417 S   0  0  0  0  0  0  0  0  0  0  0  0
   -7.0565    0.7122   -2.0246 C   0  0  0  0  0  0  0  0  0  0  0  0
   -5.9053    1.2998   -2.5553 C   0  0  0  0  0  0  0  0  0  0  0  0
   -5.0330    2.0249   -1.3064 S   0  0  0  0  0  0  0  0  0  0  0  0
   -5.2883    0.9783   -3.8491 C   0  0  0  0  0  0  0  0  0  0  0  0
   -4.1510    1.6335   -4.3189 C   0  0  0  0  0  0  0  0  0  0  0  0
   -3.3417    0.8310   -5.1335 C   0  0  0  0  0  0  0  0  0  0  0  0
   -2.0276    1.1437   -5.5427 C   0  0  0  0  0  0  0  0  0  0  0  0
   -1.3471    2.3798   -5.1001 C   0  0  0  0  0  0  0  0  0  0  0  0
   -1.1293    2.6082   -3.7309 C   0  0  0  0  0  0  0  0  0  0  0  0
   -0.4326    3.7423   -3.3052 C   0  0  0  0  0  0  0  0  0  0  0  0
    0.0859    4.6403   -4.2444 C   0  0  0  0  0  0  0  0  0  0  0  0
    0.9816    6.0930   -3.6809 S   0  0  0  0  0  0  0  0  0  0  0  0
    2.5684    5.2225   -3.4069 C   0  0  0  0  0  0  0  0  0  0  0  0
    3.2945    4.9600   -4.7217 C   0  0  0  0  0  0  0  0  0  0  0  0
   -0.1250    4.4194   -5.6129 C   0  0  0  0  0  0  0  0  0  0  0  0
    0.3494    5.2961   -6.5307 F   0  0  0  0  0  0  0  0  0  0  0  0
   -0.8344    3.2901   -6.0395 C   0  0  0  0  0  0  0  0  0  0  0  0
   -1.2825    0.1039   -6.1228 C   0  0  0  0  0  0  0  0  0  0  0  0
   -1.7801   -1.1969   -6.2669 C   0  0  0  0  0  0  0  0  0  0  0  0
   -3.1287   -1.4800   -5.9517 C   0  0  0  0  0  0  0  0  0  0  0  0
   -3.7017   -2.8288   -6.1452 C   0  0  0  0  0  0  0  0  0  0  0  0
   -3.8429   -3.3453   -7.4425 C   0  0  0  0  0  0  0  0  0  0  0  0
   -4.4507   -4.5870   -7.6432 C   0  0  0  0  0  0  0  0  0  0  0  0
   -4.9194   -5.3276   -6.5536 C   0  0  0  0  0  0  0  0  0  0  0  0
   -5.7498   -6.8988   -6.8309 S   0  0  0  0  0  0  0  0  0  0  0  0
   -7.4451   -6.2131   -6.7139 C   0  0  0  0  0  0  0  0  0  0  0  0
   -7.8432   -5.4752   -7.9887 C   0  0  0  0  0  0  0  0  0  0  0  0
   -4.7395   -4.8377   -5.2515 C   0  0  0  0  0  0  0  0  0  0  0  0
   -4.1337   -3.5932   -5.0489 C   0  0  0  0  0  0  0  0  0  0  0  0
   -5.1783   -5.5518   -4.1825 F   0  0  0  0  0  0  0  0  0  0  0  0
   -3.8768   -0.4423   -5.3569 C   0  0  0  0  0  0  0  0  0  0  0  0
   -5.3386   -0.5666   -4.5296 S   0  0  0  0  0  0  0  0  0  0  0  0
   -0.7654   -2.1571   -6.4590 C   0  0  0  0  0  0  0  0  0  0  0  0
    0.5240   -1.6153   -6.4374 C   0  0  0  0  0  0  0  0  0  0  0  0
    0.3813    0.0552   -6.2698 S   0  0  0  0  0  0  0  0  0  0  0  0
    1.6407   -2.2978   -5.7698 C   0  0  0  0  0  0  0  0  0  0  0  0
    2.0641   -1.9410   -4.4948 C   0  0  0  0  0  0  0  0  0  0  0  0
    3.1694   -2.6671   -4.0556 C   0  0  0  0  0  0  0  0  0  0  0  0
    3.8165   -2.4955   -2.8214 C   0  0  0  0  0  0  0  0  0  0  0  0
    3.3291   -1.5489   -1.7969 C   0  0  0  0  0  0  0  0  0  0  0  0
    4.1670   -0.5266   -1.3257 C   0  0  0  0  0  0  0  0  0  0  0  0
    3.7661    0.2674   -0.2499 C   0  0  0  0  0  0  0  0  0  0  0  0
    2.5169    0.0592    0.3489 C   0  0  0  0  0  0  0  0  0  0  0  0
    2.0863    0.9958    1.8170 S   0  0  0  0  0  0  0  0  0  0  0  0
    2.3952   -0.3558    3.0207 C   0  0  0  0  0  0  0  0  0  0  0  0
    3.7528   -1.0420    2.8429 C   0  0  0  0  0  0  0  0  0  0  0  0
    1.6458   -0.9083   -0.1670 C   0  0  0  0  0  0  0  0  0  0  0  0
    0.4272   -1.1080    0.3944 F   0  0  0  0  0  0  0  0  0  0  0  0
    2.0594   -1.7225   -1.2245 C   0  0  0  0  0  0  0  0  0  0  0  0
    4.9453   -3.2860   -2.5869 C   0  0  0  0  0  0  0  0  0  0  0  0
    5.4222   -4.2225   -3.5075 C   0  0  0  0  0  0  0  0  0  0  0  0
    4.7639   -4.4008   -4.7478 C   0  0  0  0  0  0  0  0  0  0  0  0
    5.2487   -5.3726   -5.7431 C   0  0  0  0  0  0  0  0  0  0  0  0
    5.8919   -4.9293   -6.9088 C   0  0  0  0  0  0  0  0  0  0  0  0
    6.4004   -5.8528   -7.8241 C   0  0  0  0  0  0  0  0  0  0  0  0
    6.2580   -7.2269   -7.5934 C   0  0  0  0  0  0  0  0  0  0  0  0
    6.9485   -8.4062   -8.7592 S   0  0  0  0  0  0  0  0  0  0  0  0
    5.5126   -8.3756   -9.8943 C   0  0  0  0  0  0  0  0  0  0  0  0
    4.3176   -9.1235   -9.3083 C   0  0  0  0  0  0  0  0  0  0  0  0
    5.6221   -7.6735   -6.4261 C   0  0  0  0  0  0  0  0  0  0  0  0
    5.1184   -6.7509   -5.5037 C   0  0  0  0  0  0  0  0  0  0  0  0
    5.4967   -8.9999   -6.1818 F   0  0  0  0  0  0  0  0  0  0  0  0
    3.6306   -3.5963   -4.9926 C   0  0  0  0  0  0  0  0  0  0  0  0
    2.6345   -3.5345   -6.3651 S   0  0  0  0  0  0  0  0  0  0  0  0
    6.5953   -4.8679   -3.0667 C   0  0  0  0  0  0  0  0  0  0  0  0
    7.0169   -4.4084   -1.8165 C   0  0  0  0  0  0  0  0  0  0  0  0
    5.9491   -3.2474   -1.2428 S   0  0  0  0  0  0  0  0  0  0  0  0
    8.2832   -4.7148   -1.1533 C   0  0  0  0  0  0  0  0  0  0  0  0
    8.4729   -6.0562   -0.1607 S   0  0  0  0  0  0  0  0  0  0  0  0
    9.8026   -5.4975    0.7048 C   0  0  0  0  0  0  0  0  0  0  0  0
   10.0947   -4.2146    0.2495 C   0  0  0  0  0  0  0  0  0  0  0  0
    9.2700   -3.7708   -0.8064 C   0  0  0  0  0  0  0  0  0  0  0  0
    9.4893   -2.5051   -1.4092 C   0  0  0  0  0  0  0  0  0  0  0  0
   10.5099   -1.6924   -0.8737 C   0  0  0  0  0  0  0  0  0  0  0  0
   11.2718   -2.1102    0.2286 C   0  0  0  0  0  0  0  0  0  0  0  0
   11.0883   -3.3902    0.7896 C   0  0  0  0  0  0  0  0  0  0  0  0
   11.8660   -3.8608    1.8581 O   0  0  0  0  0  0  0  0  0  0  0  0
   12.8463   -3.0896    2.5446 C   0  0  0  0  0  0  0  0  0  0  0  0
    8.8457   -2.1735   -2.7094 C   0  0  0  0  0  0  0  0  0  0  0  0
    8.5524   -0.9643   -3.2068 C   0  0  0  0  0  0  0  0  0  0  0  0
    8.7568    0.3368   -2.5545 C   0  0  0  0  0  0  0  0  0  0  0  0
    8.3790    0.7223   -1.2624 C   0  0  0  0  0  0  0  0  0  0  0  0
    8.5881    2.0967   -1.0318 C   0  0  0  0  0  0  0  0  0  0  0  0
    8.2539    2.8250    0.1310 C   0  0  0  0  0  0  0  0  0  0  0  0
    7.6142    2.2082    1.3049 C   0  0  0  0  0  0  0  0  0  0  0  0
    8.3398    1.3521    2.1450 C   0  0  0  0  0  0  0  0  0  0  0  0
    7.7905    0.9393    3.3641 C   0  0  0  0  0  0  0  0  0  0  0  0
    6.5169    1.3806    3.7495 C   0  0  0  0  0  0  0  0  0  0  0  0
    5.8534    0.9193    5.3534 S   0  0  0  0  0  0  0  0  0  0  0  0
    6.6193    2.3152    6.2595 C   0  0  0  0  0  0  0  0  0  0  0  0
    5.8936    3.6304    5.9929 C   0  0  0  0  0  0  0  0  0  0  0  0
    5.7680    2.1835    2.8792 C   0  0  0  0  0  0  0  0  0  0  0  0
    4.5231    2.5959    3.2278 F   0  0  0  0  0  0  0  0  0  0  0  0
    6.3157    2.6004    1.6668 C   0  0  0  0  0  0  0  0  0  0  0  0
    8.5079    4.2098    0.1146 C   0  0  0  0  0  0  0  0  0  0  0  0
    9.0482    4.8682   -0.9888 C   0  0  0  0  0  0  0  0  0  0  0  0
    9.3684    4.1496   -2.1593 C   0  0  0  0  0  0  0  0  0  0  0  0
    9.8964    4.8123   -3.3691 C   0  0  0  0  0  0  0  0  0  0  0  0
    9.1278    5.7814   -4.0340 C   0  0  0  0  0  0  0  0  0  0  0  0
    9.5984    6.3582   -5.2186 C   0  0  0  0  0  0  0  0  0  0  0  0
   10.8259    5.9590   -5.7570 C   0  0  0  0  0  0  0  0  0  0  0  0
   11.4113    6.7019   -7.2851 S   0  0  0  0  0  0  0  0  0  0  0  0
   10.5573    5.5179   -8.3862 C   0  0  0  0  0  0  0  0  0  0  0  0
   11.3909    4.2599   -8.5903 C   0  0  0  0  0  0  0  0  0  0  0  0
   11.6074    5.0082   -5.0851 C   0  0  0  0  0  0  0  0  0  0  0  0
   11.1409    4.4356   -3.8960 C   0  0  0  0  0  0  0  0  0  0  0  0
   12.7959    4.6127   -5.5969 F   0  0  0  0  0  0  0  0  0  0  0  0
    9.1265    2.7637   -2.1399 C   0  0  0  0  0  0  0  0  0  0  0  0
    9.3121    1.6766   -3.4048 S   0  0  0  0  0  0  0  0  0  0  0  0
    9.2355    6.2444   -0.7772 C   0  0  0  0  0  0  0  0  0  0  0  0
    8.8297    6.6643    0.4882 C   0  0  0  0  0  0  0  0  0  0  0  0
    8.2557    5.3324    1.3453 S   0  0  0  0  0  0  0  0  0  0  0  0
   -8.5895   -2.5375   13.1665 H   0  0  0  0  0  0  0  0  0  0  0  0
   -7.0450   -0.7164   12.1222 H   0  0  0  0  0  0  0  0  0  0  0  0
   -7.5914    2.2866   10.2828 H   0  0  0  0  0  0  0  0  0  0  0  0
   -5.7889    3.8402   10.9375 H   0  0  0  0  0  0  0  0  0  0  0  0
   -2.6185    1.9573   12.7412 H   0  0  0  0  0  0  0  0  0  0  0  0
   -3.7871    3.2663   13.1930 H   0  0  0  0  0  0  0  0  0  0  0  0
   -1.6589    3.4532   14.4757 H   0  0  0  0  0  0  0  0  0  0  0  0
   -1.8876    4.8799   13.3912 H   0  0  0  0  0  0  0  0  0  0  0  0
   -0.7278    3.5689   12.9324 H   0  0  0  0  0  0  0  0  0  0  0  0
   -4.6531   -0.7345    9.3829 H   0  0  0  0  0  0  0  0  0  0  0  0
   -9.2284   -4.7227    8.3074 H   0  0  0  0  0  0  0  0  0  0  0  0
  -10.9300   -6.2840    7.4481 H   0  0  0  0  0  0  0  0  0  0  0  0
  -11.8676   -5.9973    4.4342 H   0  0  0  0  0  0  0  0  0  0  0  0
  -13.1448   -4.7569    4.1037 H   0  0  0  0  0  0  0  0  0  0  0  0
  -13.3958   -6.6812    2.5747 H   0  0  0  0  0  0  0  0  0  0  0  0
  -14.8018   -6.6117    3.7019 H   0  0  0  0  0  0  0  0  0  0  0  0
  -13.4837   -7.8255    3.9672 H   0  0  0  0  0  0  0  0  0  0  0  0
  -11.7143   -1.3906    7.1638 H   0  0  0  0  0  0  0  0  0  0  0  0
   -9.5452   -1.5179    5.4744 H   0  0  0  0  0  0  0  0  0  0  0  0
   -6.0298    1.5174    4.1320 H   0  0  0  0  0  0  0  0  0  0  0  0
   -5.5850    4.0028    2.8051 H   0  0  0  0  0  0  0  0  0  0  0  0
   -3.4705    4.9070    3.7006 H   0  0  0  0  0  0  0  0  0  0  0  0
   -0.8209    1.9569    4.8571 H   0  0  0  0  0  0  0  0  0  0  0  0
   -1.7301    3.3256    5.6254 H   0  0  0  0  0  0  0  0  0  0  0  0
    0.3196    2.8108    6.9158 H   0  0  0  0  0  0  0  0  0  0  0  0
    1.3380    3.0514    5.4442 H   0  0  0  0  0  0  0  0  0  0  0  0
    0.4392    4.4477    6.1698 H   0  0  0  0  0  0  0  0  0  0  0  0
   -3.4198    0.7177    1.0391 H   0  0  0  0  0  0  0  0  0  0  0  0
  -10.6432    1.3852   -0.2358 H   0  0  0  0  0  0  0  0  0  0  0  0
  -12.6082    0.2018   -1.1406 H   0  0  0  0  0  0  0  0  0  0  0  0
  -13.2099   -3.0075   -4.3813 H   0  0  0  0  0  0  0  0  0  0  0  0
  -11.5243   -2.5492   -3.9599 H   0  0  0  0  0  0  0  0  0  0  0  0
  -12.1947   -0.1604   -3.7693 H   0  0  0  0  0  0  0  0  0  0  0  0
  -12.7514   -0.8149   -5.3478 H   0  0  0  0  0  0  0  0  0  0  0  0
  -13.9358   -0.6039   -4.0032 H   0  0  0  0  0  0  0  0  0  0  0  0
   -8.3197   -2.2320   -0.5600 H   0  0  0  0  0  0  0  0  0  0  0  0
   -7.7390    0.1092   -2.6126 H   0  0  0  0  0  0  0  0  0  0  0  0
   -3.8512    2.6052   -3.9518 H   0  0  0  0  0  0  0  0  0  0  0  0
   -1.4936    1.9039   -2.9921 H   0  0  0  0  0  0  0  0  0  0  0  0
   -0.2804    3.9104   -2.2482 H   0  0  0  0  0  0  0  0  0  0  0  0
    3.2110    5.8654   -2.7688 H   0  0  0  0  0  0  0  0  0  0  0  0
    2.4025    4.2652   -2.8664 H   0  0  0  0  0  0  0  0  0  0  0  0
    2.7211    4.2434   -5.3420 H   0  0  0  0  0  0  0  0  0  0  0  0
    4.2935    4.5222   -4.5141 H   0  0  0  0  0  0  0  0  0  0  0  0
    3.4285    5.9082   -5.2829 H   0  0  0  0  0  0  0  0  0  0  0  0
   -0.9801    3.1198   -7.0988 H   0  0  0  0  0  0  0  0  0  0  0  0
   -3.5062   -2.7725   -8.2975 H   0  0  0  0  0  0  0  0  0  0  0  0
   -4.5747   -4.9671   -8.6512 H   0  0  0  0  0  0  0  0  0  0  0  0
   -8.1509   -7.0592   -6.5634 H   0  0  0  0  0  0  0  0  0  0  0  0
   -7.5328   -5.5359   -5.8357 H   0  0  0  0  0  0  0  0  0  0  0  0
   -7.7422   -6.1449   -8.8683 H   0  0  0  0  0  0  0  0  0  0  0  0
   -8.8995   -5.1440   -7.9113 H   0  0  0  0  0  0  0  0  0  0  0  0
   -7.2084   -4.5787   -8.1345 H   0  0  0  0  0  0  0  0  0  0  0  0
   -4.0105   -3.2236   -4.0369 H   0  0  0  0  0  0  0  0  0  0  0  0
   -0.9481   -3.2222   -6.3916 H   0  0  0  0  0  0  0  0  0  0  0  0
    1.5792   -1.1657   -3.9103 H   0  0  0  0  0  0  0  0  0  0  0  0
    5.1452   -0.3674   -1.7632 H   0  0  0  0  0  0  0  0  0  0  0  0
    4.4386    1.0175    0.1389 H   0  0  0  0  0  0  0  0  0  0  0  0
    2.3571    0.0895    4.0350 H   0  0  0  0  0  0  0  0  0  0  0  0
    1.5843   -1.1121    2.9515 H   0  0  0  0  0  0  0  0  0  0  0  0
    3.7159   -1.7664    2.0015 H   0  0  0  0  0  0  0  0  0  0  0  0
    4.5480   -0.2983    2.6399 H   0  0  0  0  0  0  0  0  0  0  0  0
    4.0095   -1.5991    3.7691 H   0  0  0  0  0  0  0  0  0  0  0  0
    1.4049   -2.5108   -1.5765 H   0  0  0  0  0  0  0  0  0  0  0  0
    6.0187   -3.8674   -7.0960 H   0  0  0  0  0  0  0  0  0  0  0  0
    6.9039   -5.5003   -8.7158 H   0  0  0  0  0  0  0  0  0  0  0  0
    5.2289   -7.3282  -10.1363 H   0  0  0  0  0  0  0  0  0  0  0  0
    5.8153   -8.8736  -10.8430 H   0  0  0  0  0  0  0  0  0  0  0  0
    3.5345   -9.2381  -10.0833 H   0  0  0  0  0  0  0  0  0  0  0  0
    4.6262  -10.1285   -8.9575 H   0  0  0  0  0  0  0  0  0  0  0  0
    3.8875   -8.5541   -8.4583 H   0  0  0  0  0  0  0  0  0  0  0  0
    4.6304   -7.1030   -4.6028 H   0  0  0  0  0  0  0  0  0  0  0  0
    7.1529   -5.5911   -3.6533 H   0  0  0  0  0  0  0  0  0  0  0  0
   10.2956   -6.0263    1.5106 H   0  0  0  0  0  0  0  0  0  0  0  0
   10.7723   -0.7503   -1.3356 H   0  0  0  0  0  0  0  0  0  0  0  0
   12.0276   -1.4359    0.6076 H   0  0  0  0  0  0  0  0  0  0  0  0
   13.3097   -3.7125    3.3384 H   0  0  0  0  0  0  0  0  0  0  0  0
   13.6486   -2.7654    1.8433 H   0  0  0  0  0  0  0  0  0  0  0  0
   12.3661   -2.2069    3.0209 H   0  0  0  0  0  0  0  0  0  0  0  0
    8.6293   -3.0048   -3.3621 H   0  0  0  0  0  0  0  0  0  0  0  0
    8.1913   -0.9300   -4.2310 H   0  0  0  0  0  0  0  0  0  0  0  0
    7.9340    0.0450   -0.5407 H   0  0  0  0  0  0  0  0  0  0  0  0
    9.3468    1.0458    1.8802 H   0  0  0  0  0  0  0  0  0  0  0  0
    8.3706    0.3045    4.0216 H   0  0  0  0  0  0  0  0  0  0  0  0
    6.5644    2.0915    7.3485 H   0  0  0  0  0  0  0  0  0  0  0  0
    7.6927    2.4149    5.9874 H   0  0  0  0  0  0  0  0  0  0  0  0
    6.0603    3.9580    4.9462 H   0  0  0  0  0  0  0  0  0  0  0  0
    4.8053    3.5206    6.1798 H   0  0  0  0  0  0  0  0  0  0  0  0
    6.2955    4.4172    6.6644 H   0  0  0  0  0  0  0  0  0  0  0  0
    5.7446    3.2575    1.0218 H   0  0  0  0  0  0  0  0  0  0  0  0
    8.1564    6.0717   -3.6472 H   0  0  0  0  0  0  0  0  0  0  0  0
    8.9906    7.0981   -5.7273 H   0  0  0  0  0  0  0  0  0  0  0  0
    9.5602    5.2502   -7.9796 H   0  0  0  0  0  0  0  0  0  0  0  0
   10.4015    6.0105   -9.3689 H   0  0  0  0  0  0  0  0  0  0  0  0
   10.9366    3.6315   -9.3844 H   0  0  0  0  0  0  0  0  0  0  0  0
   12.4224    4.5284   -8.9001 H   0  0  0  0  0  0  0  0  0  0  0  0
   11.4293    3.6670   -7.6516 H   0  0  0  0  0  0  0  0  0  0  0  0
   11.7418    3.6854   -3.3991 H   0  0  0  0  0  0  0  0  0  0  0  0
    9.6551    6.9201   -1.5064 H   0  0  0  0  0  0  0  0  0  0  0  0
    8.8866    7.6794    0.8611 H   0  0  0  0  0  0  0  0  0  0  0  0
  1  2  2  0
  2  3  1  0
  3  4  2  0
  4  5  1  0
  5  6  2  0
  6  7  1  0
  7  8  2  0
  8  9  1  0
  9 10  1  0
 10 11  1  0
  8 12  1  0
 12 13  1  0
 12 14  2  0
  4 15  1  0
 15 16  2  0
 16 17  1  0
 17 18  1  0
 18 19  2  0
 19 20  1  0
 20 21  2  0
 21 22  1  0
 22 23  1  0
 23 24  1  0
 21 25  1  0
 25 26  2  0
 25 27  1  0
 17 28  2  0
 28 29  1  0
 16 30  1  0
 30 31  2  0
 31 32  1  0
 31 33  1  0
 33 34  2  0
 34 35  1  0
 35 36  2  0
 36 37  1  0
 37 38  2  0
 38 39  1  0
 39 40  2  0
 40 41  1  0
 41 42  1  0
 42 43  1  0
 40 44  1  0
 44 45  1  0
 44 46  2  0
 36 47  1  0
 47 48  2  0
 48 49  1  0
 49 50  1  0
 50 51  2  0
 51 52  1  0
 52 53  2  0
 53 54  1  0
 54 55  1  0
 55 56  1  0
 53 57  1  0
 57 58  2  0
 57 59  1  0
 49 60  2  0
 60 61  1  0
 48 62  1  0
 62 63  2  0
 63 64  1  0
 63 65  1  0
 65 66  2  0
 66 67  1  0
 67 68  2  0
 68 69  1  0
 69 70  2  0
 70 71  1  0
 71 72  2  0
 72 73  1  0
 73 74  1  0
 74 75  1  0
 72 76  1  0
 76 77  1  0
 76 78  2  0
 68 79  1  0
 79 80  2  0
 80 81  1  0
 81 82  1  0
 82 83  2  0
 83 84  1  0
 84 85  2  0
 85 86  1  0
 86 87  1  0
 87 88  1  0
 85 89  1  0
 89 90  2  0
 89 91  1  0
 81 92  2  0
 92 93  1  0
 80 94  1  0
 94 95  2  0
 95 96  1  0
 95 97  1  0
 97 98  2  0
 98 99  1  0
 99100  2  0
100101  1  0
101102  2  0
102103  1  0
103104  2  0
104105  1  0
105106  1  0
106107  1  0
104108  1  0
108109  1  0
108110  2  0
100111  1  0
111112  2  0
112113  1  0
113114  1  0
114115  2  0
115116  1  0
116117  2  0
117118  1  0
118119  1  0
119120  1  0
117121  1  0
121122  2  0
121123  1  0
113124  2  0
124125  1  0
112126  1  0
126127  2  0
127128  1  0
127129  1  0
129130  1  0
130131  1  0
131132  2  0
132133  1  0
133134  1  0
134135  2  0
135136  1  0
136137  2  0
137138  1  0
138139  1  0
134140  1  0
140141  2  3
141142  1  0
142143  2  0
143144  1  0
144145  2  0
145146  1  0
146147  2  0
147148  1  0
148149  2  0
149150  1  0
150151  1  0
151152  1  0
149153  1  0
153154  1  0
153155  2  0
145156  1  0
156157  2  0
157158  1  0
158159  1  0
159160  2  0
160161  1  0
161162  2  0
162163  1  0
163164  1  0
164165  1  0
162166  1  0
166167  2  0
166168  1  0
158169  2  0
169170  1  0
157171  1  0
171172  2  0
172173  1  0
 29  1  1  0
 61 33  1  0
 93 65  1  0
125 97  1  0
133129  2  0
170142  1  0
 28  3  1  0
 60 35  1  0
 92 67  1  0
124 99  1  0
137132  1  0
169144  1  0
 14  5  1  0
 32 15  1  0
 46 37  1  0
 64 47  1  0
 78 69  1  0
 96 79  1  0
110101  1  0
128111  1  0
155146  1  0
173156  1  0
 26 18  1  0
 58 50  1  0
 90 82  1  0
122114  1  0
167159  1  0
  1174  1  0
  2175  1  0
  6176  1  0
  7177  1  0
 10178  1  0
 10179  1  0
 11180  1  0
 11181  1  0
 11182  1  0
 14183  1  0
 19184  1  0
 20185  1  0
 23186  1  0
 23187  1  0
 24188  1  0
 24189  1  0
 24190  1  0
 26191  1  0
 30192  1  0
 34193  1  0
 38194  1  0
 39195  1  0
 42196  1  0
 42197  1  0
 43198  1  0
 43199  1  0
 43200  1  0
 46201  1  0
 51202  1  0
 52203  1  0
 55204  1  0
 55205  1  0
 56206  1  0
 56207  1  0
 56208  1  0
 58209  1  0
 62210  1  0
 66211  1  0
 70212  1  0
 71213  1  0
 74214  1  0
 74215  1  0
 75216  1  0
 75217  1  0
 75218  1  0
 78219  1  0
 83220  1  0
 84221  1  0
 87222  1  0
 87223  1  0
 88224  1  0
 88225  1  0
 88226  1  0
 90227  1  0
 94228  1  0
 98229  1  0
102230  1  0
103231  1  0
106232  1  0
106233  1  0
107234  1  0
107235  1  0
107236  1  0
110237  1  0
115238  1  0
116239  1  0
119240  1  0
119241  1  0
120242  1  0
120243  1  0
120244  1  0
122245  1  0
126246  1  0
131247  1  0
135248  1  0
136249  1  0
139250  1  0
139251  1  0
139252  1  0
140253  1  0
141254  1  0
143255  1  0
147256  1  0
148257  1  0
151258  1  0
151259  1  0
152260  1  0
152261  1  0
152262  1  0
155263  1  0
160264  1  0
161265  1  0
164266  1  0
164267  1  0
165268  1  0
165269  1  0
165270  1  0
167271  1  0
171272  1  0
172273  1  0
M  END

