
     RDKit          3D

156172  0  0  0  0  0  0  0  0999 V2000
    5.1719   -5.5064   16.8386 C   0  0  0  0  0  0  0  0  0  0  0  0
    3.9823   -5.8511   16.2102 C   0  0  0  0  0  0  0  0  0  0  0  0
    3.3434   -4.7611   15.5721 C   0  0  0  0  0  0  0  0  0  0  0  0
    2.1377   -4.8118   14.8526 C   0  0  0  0  0  0  0  0  0  0  0  0
    1.3520   -6.0878   14.6903 C   0  0  0  0  0  0  0  0  0  0  0  0
    0.5046   -6.3688   15.9274 C   0  0  0  0  0  0  0  0  0  0  0  0
    1.6779   -3.5904   14.2941 C   0  0  0  0  0  0  0  0  0  0  0  0
    2.3734   -2.3986   14.4291 C   0  0  0  0  0  0  0  0  0  0  0  0
    3.5804   -2.3528   15.1645 C   0  0  0  0  0  0  0  0  0  0  0  0
    4.3304   -1.0729   15.4398 C   0  0  0  0  0  0  0  0  0  0  0  0
    3.9092   -0.4945   16.7914 C   0  0  0  0  0  0  0  0  0  0  0  0
    4.0285   -3.5601   15.7144 C   0  0  0  0  0  0  0  0  0  0  0  0
    5.4214   -3.8540   16.6227 S   0  0  0  0  0  0  0  0  0  0  0  0
    1.7723   -1.3212   13.7375 C   0  0  0  0  0  0  0  0  0  0  0  0
    0.6115   -1.6940   13.0507 C   0  0  0  0  0  0  0  0  0  0  0  0
    0.3308   -3.3259   13.3366 S   0  0  0  0  0  0  0  0  0  0  0  0
   -0.1200   -0.8827   12.0527 C   0  0  0  0  0  0  0  0  0  0  0  0
    0.3879    0.2363   11.3853 C   0  0  0  0  0  0  0  0  0  0  0  0
   -0.4023    0.6257   10.2660 C   0  0  0  0  0  0  0  0  0  0  0  0
   -0.0651    1.6017    9.3081 C   0  0  0  0  0  0  0  0  0  0  0  0
    1.1457    2.4873    9.4445 C   0  0  0  0  0  0  0  0  0  0  0  0
    2.3890    1.7832    8.9264 C   0  0  0  0  0  0  0  0  0  0  0  0
   -0.8821    1.6741    8.1565 C   0  0  0  0  0  0  0  0  0  0  0  0
   -2.0068    0.8791    7.9896 C   0  0  0  0  0  0  0  0  0  0  0  0
   -2.3920   -0.0425    8.9816 C   0  0  0  0  0  0  0  0  0  0  0  0
   -3.5865   -0.9295    8.8227 C   0  0  0  0  0  0  0  0  0  0  0  0
   -3.2257   -2.1571    7.9872 C   0  0  0  0  0  0  0  0  0  0  0  0
   -1.5352   -0.1675   10.0947 C   0  0  0  0  0  0  0  0  0  0  0  0
   -1.5417   -1.3512   11.2886 S   0  0  0  0  0  0  0  0  0  0  0  0
   -2.6038    1.0130    6.7131 C   0  0  0  0  0  0  0  0  0  0  0  0
   -1.9275    1.8802    5.8737 C   0  0  0  0  0  0  0  0  0  0  0  0
   -0.6022    2.5102    6.7134 S   0  0  0  0  0  0  0  0  0  0  0  0
   -2.1516    1.9632    4.4143 C   0  0  0  0  0  0  0  0  0  0  0  0
   -1.3632    2.6719    3.5022 C   0  0  0  0  0  0  0  0  0  0  0  0
   -1.6319    2.3282    2.1514 C   0  0  0  0  0  0  0  0  0  0  0  0
   -0.9295    2.7836    1.0226 C   0  0  0  0  0  0  0  0  0  0  0  0
    0.0472    3.9319    1.0714 C   0  0  0  0  0  0  0  0  0  0  0  0
   -0.7215    5.2415    0.9154 C   0  0  0  0  0  0  0  0  0  0  0  0
   -1.2377    2.1773   -0.2094 C   0  0  0  0  0  0  0  0  0  0  0  0
   -2.2300    1.2146   -0.3477 C   0  0  0  0  0  0  0  0  0  0  0  0
   -3.0163    0.8515    0.7585 C   0  0  0  0  0  0  0  0  0  0  0  0
   -4.1764   -0.1002    0.6470 C   0  0  0  0  0  0  0  0  0  0  0  0
   -3.6931   -1.5380    0.7207 C   0  0  0  0  0  0  0  0  0  0  0  0
   -2.6500    1.3931    2.0129 C   0  0  0  0  0  0  0  0  0  0  0  0
   -3.2026    0.9825    3.5386 S   0  0  0  0  0  0  0  0  0  0  0  0
   -2.2912    0.6349   -1.6492 C   0  0  0  0  0  0  0  0  0  0  0  0
   -1.3535    1.1756   -2.5264 C   0  0  0  0  0  0  0  0  0  0  0  0
   -0.4670    2.3561   -1.6941 S   0  0  0  0  0  0  0  0  0  0  0  0
   -1.0208    0.7014   -3.8881 C   0  0  0  0  0  0  0  0  0  0  0  0
   -1.4533   -0.4862   -4.5054 C   0  0  0  0  0  0  0  0  0  0  0  0
   -0.7959   -0.7269   -5.7417 C   0  0  0  0  0  0  0  0  0  0  0  0
   -0.9596   -1.8533   -6.5772 C   0  0  0  0  0  0  0  0  0  0  0  0
   -1.9909   -2.9191   -6.3186 C   0  0  0  0  0  0  0  0  0  0  0  0
   -1.4511   -3.9696   -5.3575 C   0  0  0  0  0  0  0  0  0  0  0  0
   -0.0986   -1.9546   -7.7014 C   0  0  0  0  0  0  0  0  0  0  0  0
    0.7950   -0.9581   -8.0254 C   0  0  0  0  0  0  0  0  0  0  0  0
    0.9096    0.2109   -7.2437 C   0  0  0  0  0  0  0  0  0  0  0  0
    1.8322    1.3435   -7.6041 C   0  0  0  0  0  0  0  0  0  0  0  0
    3.2582    1.0342   -7.2361 C   0  0  0  0  0  0  0  0  0  0  0  0
    0.1118    0.2700   -6.0818 C   0  0  0  0  0  0  0  0  0  0  0  0
    0.1247    1.4374   -4.8732 S   0  0  0  0  0  0  0  0  0  0  0  0
    1.5571   -1.2505   -9.1741 C   0  0  0  0  0  0  0  0  0  0  0  0
    1.2743   -2.4739   -9.7593 C   0  0  0  0  0  0  0  0  0  0  0  0
    0.0166   -3.1974   -8.8595 S   0  0  0  0  0  0  0  0  0  0  0  0
    1.9404   -2.9615  -10.9820 C   0  0  0  0  0  0  0  0  0  0  0  0
    1.2243   -2.7939  -12.5509 S   0  0  0  0  0  0  0  0  0  0  0  0
    2.5182   -2.2036  -13.5166 C   0  0  0  0  0  0  0  0  0  0  0  0
    3.5095   -2.1269  -12.5762 C   0  0  0  0  0  0  0  0  0  0  0  0
    3.2275   -2.5807  -11.2736 C   0  0  0  0  0  0  0  0  0  0  0  0
    4.4681   -1.9881  -10.8834 C   0  0  0  0  0  0  0  0  0  0  0  0
    4.6290   -1.2875  -12.1163 N   0  0  0  0  0  0  0  0  0  0  0  0
    2.4944   -1.5341  -14.8178 C   0  0  0  0  0  0  0  0  0  0  0  0
    1.5043   -0.7511  -15.2594 C   0  0  0  0  0  0  0  0  0  0  0  0
    0.3273   -0.3616  -14.4780 C   0  0  0  0  0  0  0  0  0  0  0  0
    0.3121    0.1195  -13.1689 C   0  0  0  0  0  0  0  0  0  0  0  0
   -0.9806    0.4884  -12.7441 C   0  0  0  0  0  0  0  0  0  0  0  0
   -1.3262    1.0450  -11.4920 C   0  0  0  0  0  0  0  0  0  0  0  0
   -0.2869    1.4787  -10.4962 C   0  0  0  0  0  0  0  0  0  0  0  0
    0.3403    2.8167  -10.9201 C   0  0  0  0  0  0  0  0  0  0  0  0
   -2.6859    1.3001  -11.2537 C   0  0  0  0  0  0  0  0  0  0  0  0
   -3.6594    1.1414  -12.2412 C   0  0  0  0  0  0  0  0  0  0  0  0
   -3.3029    0.7296  -13.5360 C   0  0  0  0  0  0  0  0  0  0  0  0
   -4.2966    0.6624  -14.6722 C   0  0  0  0  0  0  0  0  0  0  0  0
   -5.0629   -0.6611  -14.6476 C   0  0  0  0  0  0  0  0  0  0  0  0
   -1.9628    0.3345  -13.7305 C   0  0  0  0  0  0  0  0  0  0  0  0
   -1.2264   -0.2362  -15.1263 S   0  0  0  0  0  0  0  0  0  0  0  0
   -4.9521    1.4827  -11.8065 C   0  0  0  0  0  0  0  0  0  0  0  0
   -5.0096    1.8511  -10.4762 C   0  0  0  0  0  0  0  0  0  0  0  0
   -3.4472    1.7929   -9.8388 S   0  0  0  0  0  0  0  0  0  0  0  0
    5.8100   -6.1851   17.3832 H   0  0  0  0  0  0  0  0  0  0  0  0
    3.6050   -6.8612   16.2126 H   0  0  0  0  0  0  0  0  0  0  0  0
    2.0413   -6.9351   14.5107 H   0  0  0  0  0  0  0  0  0  0  0  0
    0.6926   -6.0303   13.7983 H   0  0  0  0  0  0  0  0  0  0  0  0
    1.1623   -6.5884   16.7942 H   0  0  0  0  0  0  0  0  0  0  0  0
   -0.1220   -7.2623   15.7368 H   0  0  0  0  0  0  0  0  0  0  0  0
   -0.1500   -5.4982   16.1554 H   0  0  0  0  0  0  0  0  0  0  0  0
    5.4250   -1.2880   15.4496 H   0  0  0  0  0  0  0  0  0  0  0  0
    4.1688   -0.3335   14.6349 H   0  0  0  0  0  0  0  0  0  0  0  0
    2.8088   -0.3663   16.8321 H   0  0  0  0  0  0  0  0  0  0  0  0
    4.2343   -1.1797   17.6016 H   0  0  0  0  0  0  0  0  0  0  0  0
    4.4086    0.4829   16.9321 H   0  0  0  0  0  0  0  0  0  0  0  0
    2.1718   -0.3262   13.6860 H   0  0  0  0  0  0  0  0  0  0  0  0
    1.3217    0.6970   11.6384 H   0  0  0  0  0  0  0  0  0  0  0  0
    0.9803    3.4260    8.8816 H   0  0  0  0  0  0  0  0  0  0  0  0
    1.2844    2.7814   10.5057 H   0  0  0  0  0  0  0  0  0  0  0  0
    3.1648    2.5412    8.6794 H   0  0  0  0  0  0  0  0  0  0  0  0
    2.7991    1.1033    9.7118 H   0  0  0  0  0  0  0  0  0  0  0  0
    2.1603    1.1927    8.0126 H   0  0  0  0  0  0  0  0  0  0  0  0
   -3.9756   -1.2440    9.8084 H   0  0  0  0  0  0  0  0  0  0  0  0
   -4.4081   -0.3685    8.3393 H   0  0  0  0  0  0  0  0  0  0  0  0
   -4.1386   -2.5709    7.5129 H   0  0  0  0  0  0  0  0  0  0  0  0
   -2.4933   -1.8853    7.1934 H   0  0  0  0  0  0  0  0  0  0  0  0
   -2.7747   -2.9361    8.6442 H   0  0  0  0  0  0  0  0  0  0  0  0
   -3.4540    0.4312    6.3975 H   0  0  0  0  0  0  0  0  0  0  0  0
   -0.5853    3.3438    3.8029 H   0  0  0  0  0  0  0  0  0  0  0  0
    0.7972    3.8482    0.2671 H   0  0  0  0  0  0  0  0  0  0  0  0
    0.6158    3.9400    2.0328 H   0  0  0  0  0  0  0  0  0  0  0  0
   -0.0206    6.1055    0.9472 H   0  0  0  0  0  0  0  0  0  0  0  0
   -1.2676    5.2392   -0.0582 H   0  0  0  0  0  0  0  0  0  0  0  0
   -1.4634    5.3535    1.7224 H   0  0  0  0  0  0  0  0  0  0  0  0
   -4.7181    0.0772   -0.3053 H   0  0  0  0  0  0  0  0  0  0  0  0
   -4.9092    0.0893    1.4656 H   0  0  0  0  0  0  0  0  0  0  0  0
   -3.3294   -1.7556    1.7489 H   0  0  0  0  0  0  0  0  0  0  0  0
   -2.8903   -1.7168   -0.0121 H   0  0  0  0  0  0  0  0  0  0  0  0
   -4.5420   -2.2206    0.4892 H   0  0  0  0  0  0  0  0  0  0  0  0
   -2.9718   -0.1511   -1.9171 H   0  0  0  0  0  0  0  0  0  0  0  0
   -2.1449   -1.1618   -4.0482 H   0  0  0  0  0  0  0  0  0  0  0  0
   -2.2786   -3.4198   -7.2620 H   0  0  0  0  0  0  0  0  0  0  0  0
   -2.9187   -2.4637   -5.9144 H   0  0  0  0  0  0  0  0  0  0  0  0
   -0.5737   -4.4859   -5.8156 H   0  0  0  0  0  0  0  0  0  0  0  0
   -2.2549   -4.7084   -5.1621 H   0  0  0  0  0  0  0  0  0  0  0  0
   -1.1506   -3.5029   -4.3962 H   0  0  0  0  0  0  0  0  0  0  0  0
    1.7693    1.5223   -8.6881 H   0  0  0  0  0  0  0  0  0  0  0  0
    1.5139    2.2898   -7.0873 H   0  0  0  0  0  0  0  0  0  0  0  0
    3.9187    1.9027   -7.4634 H   0  0  0  0  0  0  0  0  0  0  0  0
    3.3488    0.7963   -6.1534 H   0  0  0  0  0  0  0  0  0  0  0  0
    3.6229    0.1676   -7.8232 H   0  0  0  0  0  0  0  0  0  0  0  0
    2.2501   -0.5617   -9.5967 H   0  0  0  0  0  0  0  0  0  0  0  0
    5.2568   -2.7683  -10.7061 H   0  0  0  0  0  0  0  0  0  0  0  0
    4.3471   -1.3168  -10.0247 H   0  0  0  0  0  0  0  0  0  0  0  0
    4.7141   -0.2538  -12.2028 H   0  0  0  0  0  0  0  0  0  0  0  0
    3.3756   -1.6669  -15.4316 H   0  0  0  0  0  0  0  0  0  0  0  0
    1.5844   -0.3521  -16.2644 H   0  0  0  0  0  0  0  0  0  0  0  0
    1.1918    0.2084  -12.5543 H   0  0  0  0  0  0  0  0  0  0  0  0
    0.4934    0.7211  -10.4418 H   0  0  0  0  0  0  0  0  0  0  0  0
   -0.7278    1.5907   -9.4805 H   0  0  0  0  0  0  0  0  0  0  0  0
    0.9996    2.6839  -11.8080 H   0  0  0  0  0  0  0  0  0  0  0  0
    0.9570    3.2254  -10.0806 H   0  0  0  0  0  0  0  0  0  0  0  0
   -0.4326    3.5716  -11.1554 H   0  0  0  0  0  0  0  0  0  0  0  0
   -3.7826    0.7601  -15.6610 H   0  0  0  0  0  0  0  0  0  0  0  0
   -4.9849    1.5101  -14.6003 H   0  0  0  0  0  0  0  0  0  0  0  0
   -5.6993   -0.7135  -13.7320 H   0  0  0  0  0  0  0  0  0  0  0  0
   -4.3706   -1.5236  -14.6906 H   0  0  0  0  0  0  0  0  0  0  0  0
   -5.7265   -0.7131  -15.5419 H   0  0  0  0  0  0  0  0  0  0  0  0
   -5.8275    1.4196  -12.4263 H   0  0  0  0  0  0  0  0  0  0  0  0
   -5.8987    2.1144   -9.9318 H   0  0  0  0  0  0  0  0  0  0  0  0
  1  2  2  0
  2  3  1  0
  3  4  2  0
  4  5  1  0
  5  6  1  0
  4  7  1  0
  7  8  2  0
  8  9  1  0
  9 10  1  0
 10 11  1  0
  9 12  2  0
 12 13  1  0
  8 14  1  0
 14 15  2  0
 15 16  1  0
 15 17  1  0
 17 18  2  0
 18 19  1  0
 19 20  2  0
 20 21  1  0
 21 22  1  0
 20 23  1  0
 23 24  2  0
 24 25  1  0
 25 26  1  0
 26 27  1  0
 25 28  2  0
 28 29  1  0
 24 30  1  0
 30 31  2  0
 31 32  1  0
 31 33  1  0
 33 34  2  0
 34 35  1  0
 35 36  2  0
 36 37  1  0
 37 38  1  0
 36 39  1  0
 39 40  2  0
 40 41  1  0
 41 42  1  0
 42 43  1  0
 41 44  2  0
 44 45  1  0
 40 46  1  0
 46 47  2  0
 47 48  1  0
 47 49  1  0
 49 50  2  0
 50 51  1  0
 51 52  2  0
 52 53  1  0
 53 54  1  0
 52 55  1  0
 55 56  2  0
 56 57  1  0
 57 58  1  0
 58 59  1  0
 57 60  2  0
 60 61  1  0
 56 62  1  0
 62 63  2  0
 63 64  1  0
 63 65  1  0
 65 66  1  0
 66 67  1  0
 67 68  2  0
 68 69  1  0
 69 70  1  0
 70 71  1  0
 67 72  1  0
 72 73  2  3
 73 74  1  0
 74 75  2  0
 75 76  1  0
 76 77  2  0
 77 78  1  0
 78 79  1  0
 77 80  1  0
 80 81  2  0
 81 82  1  0
 82 83  1  0
 83 84  1  0
 82 85  2  0
 85 86  1  0
 81 87  1  0
 87 88  2  0
 88 89  1  0
 13  1  1  0
 29 17  1  0
 45 33  1  0
 61 49  1  0
 69 65  2  0
 86 74  1  0
 12  3  1  0
 28 19  1  0
 44 35  1  0
 60 51  1  0
 71 68  1  0
 85 76  1  0
 16  7  1  0
 32 23  1  0
 48 39  1  0
 64 55  1  0
 89 80  1  0
  1 90  1  0
  2 91  1  0
  5 92  1  0
  5 93  1  0
  6 94  1  0
  6 95  1  0
  6 96  1  0
 10 97  1  0
 10 98  1  0
 11 99  1  0
 11100  1  0
 11101  1  0
 14102  1  0
 18103  1  0
 21104  1  0
 21105  1  0
 22106  1  0
 22107  1  0
 22108  1  0
 26109  1  0
 26110  1  0
 27111  1  0
 27112  1  0
 27113  1  0
 30114  1  0
 34115  1  0
 37116  1  0
 37117  1  0
 38118  1  0
 38119  1  0
 38120  1  0
 42121  1  0
 42122  1  0
 43123  1  0
 43124  1  0
 43125  1  0
 46126  1  0
 50127  1  0
 53128  1  0
 53129  1  0
 54130  1  0
 54131  1  0
 54132  1  0
 58133  1  0
 58134  1  0
 59135  1  0
 59136  1  0
 59137  1  0
 62138  1  0
 70139  1  0
 70140  1  0
 71141  1  0
 72142  1  0
 73143  1  0
 75144  1  0
 78145  1  0
 78146  1  0
 79147  1  0
 79148  1  0
 79149  1  0
 83150  1  0
 83151  1  0
 84152  1  0
 84153  1  0
 84154  1  0
 87155  1  0
 88156  1  0
M  END

