
     RDKit          3D

228254  0  0  0  0  0  0  0  0999 V2000
    2.9887  -10.5125    9.1302 C   0  0  0  0  0  0  0  0  0  0  0  0
    2.9671   -9.1588    8.8083 C   0  0  0  0  0  0  0  0  0  0  0  0
    1.9936   -8.8347    7.8512 C   0  0  0  0  0  0  0  0  0  0  0  0
    1.7444   -7.5595    7.3080 C   0  0  0  0  0  0  0  0  0  0  0  0
    2.5189   -6.3716    7.7057 C   0  0  0  0  0  0  0  0  0  0  0  0
    2.3729   -5.5746    9.1787 S   0  0  0  0  0  0  0  0  0  0  0  0
    3.4322   -4.3181    8.8067 C   0  0  0  0  0  0  0  0  0  0  0  0
    3.7000   -3.1357    9.6916 C   0  0  0  0  0  0  0  0  0  0  0  0
    2.6922   -2.0233    9.4244 C   0  0  0  0  0  0  0  0  0  0  0  0
    3.8998   -4.4996    7.5053 C   0  0  0  0  0  0  0  0  0  0  0  0
    5.0074   -3.3913    6.7051 Cl  0  0  0  0  0  0  0  0  0  0  0  0
    3.3900   -5.6523    6.8900 C   0  0  0  0  0  0  0  0  0  0  0  0
    3.8130   -6.1409    5.2543 Cl  0  0  0  0  0  0  0  0  0  0  0  0
    0.7288   -7.4650    6.3439 C   0  0  0  0  0  0  0  0  0  0  0  0
   -0.0042   -8.5707    5.9038 C   0  0  0  0  0  0  0  0  0  0  0  0
    0.2401   -9.8478    6.4513 C   0  0  0  0  0  0  0  0  0  0  0  0
   -0.5542  -11.0249    6.0608 C   0  0  0  0  0  0  0  0  0  0  0  0
   -0.5362  -11.7464    4.5410 S   0  0  0  0  0  0  0  0  0  0  0  0
   -1.6397  -12.9638    4.9092 C   0  0  0  0  0  0  0  0  0  0  0  0
   -2.1353  -13.9891    3.9330 C   0  0  0  0  0  0  0  0  0  0  0  0
   -3.4011  -13.5063    3.2349 C   0  0  0  0  0  0  0  0  0  0  0  0
   -2.0610  -12.8005    6.2286 C   0  0  0  0  0  0  0  0  0  0  0  0
   -1.4456  -11.7180    6.8768 C   0  0  0  0  0  0  0  0  0  0  0  0
   -1.8123  -11.2467    8.5324 Cl  0  0  0  0  0  0  0  0  0  0  0  0
   -3.2546  -13.8327    7.0016 Cl  0  0  0  0  0  0  0  0  0  0  0  0
    1.2507   -9.9411    7.4247 C   0  0  0  0  0  0  0  0  0  0  0  0
    1.8106  -11.3135    8.2229 S   0  0  0  0  0  0  0  0  0  0  0  0
   -0.9754   -8.2418    4.9415 C   0  0  0  0  0  0  0  0  0  0  0  0
   -1.0130   -6.8762    4.6603 C   0  0  0  0  0  0  0  0  0  0  0  0
    0.1553   -6.0808    5.5846 S   0  0  0  0  0  0  0  0  0  0  0  0
   -1.9073   -6.2111    3.7059 C   0  0  0  0  0  0  0  0  0  0  0  0
   -2.1665   -4.8438    3.6851 C   0  0  0  0  0  0  0  0  0  0  0  0
   -2.9923   -4.4619    2.6180 C   0  0  0  0  0  0  0  0  0  0  0  0
   -3.4400   -3.1569    2.3433 C   0  0  0  0  0  0  0  0  0  0  0  0
   -3.0192   -1.9976    3.1537 C   0  0  0  0  0  0  0  0  0  0  0  0
   -1.4351   -1.4438    3.2729 S   0  0  0  0  0  0  0  0  0  0  0  0
   -1.7857   -0.0908    4.2102 C   0  0  0  0  0  0  0  0  0  0  0  0
   -0.7763    0.9296    4.6393 C   0  0  0  0  0  0  0  0  0  0  0  0
   -0.6796    2.0557    3.6140 C   0  0  0  0  0  0  0  0  0  0  0  0
   -3.1638   -0.0363    4.4162 C   0  0  0  0  0  0  0  0  0  0  0  0
   -3.9588    1.2561    5.3037 Cl  0  0  0  0  0  0  0  0  0  0  0  0
   -3.8538   -1.1091    3.8319 C   0  0  0  0  0  0  0  0  0  0  0  0
   -5.5923   -1.3293    3.9737 Cl  0  0  0  0  0  0  0  0  0  0  0  0
   -4.2342   -2.9888    1.1981 C   0  0  0  0  0  0  0  0  0  0  0  0
   -4.5647   -4.0435    0.3416 C   0  0  0  0  0  0  0  0  0  0  0  0
   -4.1636   -5.3620    0.6490 C   0  0  0  0  0  0  0  0  0  0  0  0
   -4.5315   -6.5081   -0.2037 C   0  0  0  0  0  0  0  0  0  0  0  0
   -3.4341   -7.5194   -0.9804 S   0  0  0  0  0  0  0  0  0  0  0  0
   -4.5851   -8.4922   -1.7285 C   0  0  0  0  0  0  0  0  0  0  0  0
   -4.2682   -9.6007   -2.6844 C   0  0  0  0  0  0  0  0  0  0  0  0
   -4.2538   -9.0826   -4.1185 C   0  0  0  0  0  0  0  0  0  0  0  0
   -5.8541   -8.0218   -1.3912 C   0  0  0  0  0  0  0  0  0  0  0  0
   -5.8257   -6.9133   -0.5326 C   0  0  0  0  0  0  0  0  0  0  0  0
   -7.2796   -6.1563    0.1097 Cl  0  0  0  0  0  0  0  0  0  0  0  0
   -7.3454   -8.7425   -1.9819 Cl  0  0  0  0  0  0  0  0  0  0  0  0
   -3.3719   -5.5324    1.8002 C   0  0  0  0  0  0  0  0  0  0  0  0
   -2.7043   -6.9543    2.4143 S   0  0  0  0  0  0  0  0  0  0  0  0
   -5.2329   -3.6197   -0.8253 C   0  0  0  0  0  0  0  0  0  0  0  0
   -5.4634   -2.2439   -0.8368 C   0  0  0  0  0  0  0  0  0  0  0  0
   -4.7990   -1.5524    0.5472 S   0  0  0  0  0  0  0  0  0  0  0  0
   -5.9580   -1.4379   -1.9527 C   0  0  0  0  0  0  0  0  0  0  0  0
   -6.7060   -0.2815   -1.7523 C   0  0  0  0  0  0  0  0  0  0  0  0
   -6.5544    0.6648   -2.7758 C   0  0  0  0  0  0  0  0  0  0  0  0
   -7.0016    1.9999   -2.7157 C   0  0  0  0  0  0  0  0  0  0  0  0
   -7.9254    2.4533   -1.6563 C   0  0  0  0  0  0  0  0  0  0  0  0
   -7.5582    3.5759   -0.4558 S   0  0  0  0  0  0  0  0  0  0  0  0
   -9.0286    3.4565    0.3530 C   0  0  0  0  0  0  0  0  0  0  0  0
   -9.3643    4.1740    1.6252 C   0  0  0  0  0  0  0  0  0  0  0  0
   -9.0680    3.2921    2.8332 C   0  0  0  0  0  0  0  0  0  0  0  0
   -9.8222    2.5120   -0.2961 C   0  0  0  0  0  0  0  0  0  0  0  0
  -11.4290    2.0544    0.2509 Cl  0  0  0  0  0  0  0  0  0  0  0  0
   -9.2045    1.9499   -1.4222 C   0  0  0  0  0  0  0  0  0  0  0  0
   -9.9765    0.7438   -2.4462 Cl  0  0  0  0  0  0  0  0  0  0  0  0
   -6.4431    2.8940   -3.6401 C   0  0  0  0  0  0  0  0  0  0  0  0
   -5.5475    2.4887   -4.6347 C   0  0  0  0  0  0  0  0  0  0  0  0
   -5.1838    1.1294   -4.7605 C   0  0  0  0  0  0  0  0  0  0  0  0
   -4.2062    0.6685   -5.7628 C   0  0  0  0  0  0  0  0  0  0  0  0
   -2.5807    1.1123   -5.8136 S   0  0  0  0  0  0  0  0  0  0  0  0
   -2.1950    0.2102   -7.1810 C   0  0  0  0  0  0  0  0  0  0  0  0
   -0.8274    0.1341   -7.7932 C   0  0  0  0  0  0  0  0  0  0  0  0
   -0.1012   -1.1328   -7.3567 C   0  0  0  0  0  0  0  0  0  0  0  0
   -3.3358   -0.4723   -7.6031 C   0  0  0  0  0  0  0  0  0  0  0  0
   -4.4625   -0.2168   -6.8043 C   0  0  0  0  0  0  0  0  0  0  0  0
   -6.0451   -0.9166   -7.1098 Cl  0  0  0  0  0  0  0  0  0  0  0  0
   -3.3692   -1.5336   -9.0029 Cl  0  0  0  0  0  0  0  0  0  0  0  0
   -5.6922    0.2441   -3.7923 C   0  0  0  0  0  0  0  0  0  0  0  0
   -5.1255   -1.2980   -3.4175 S   0  0  0  0  0  0  0  0  0  0  0  0
   -4.9779    3.5682   -5.3335 C   0  0  0  0  0  0  0  0  0  0  0  0
   -5.3663    4.8197   -4.8436 C   0  0  0  0  0  0  0  0  0  0  0  0
   -6.4918    4.5721   -3.6100 S   0  0  0  0  0  0  0  0  0  0  0  0
   -4.5360    6.0356   -4.9845 C   0  0  0  0  0  0  0  0  0  0  0  0
   -2.9214    5.9786   -5.5012 S   0  0  0  0  0  0  0  0  0  0  0  0
   -2.3548    7.4051   -4.8047 C   0  0  0  0  0  0  0  0  0  0  0  0
   -3.4548    7.9332   -4.1472 C   0  0  0  0  0  0  0  0  0  0  0  0
   -4.6375    7.2192   -4.2497 C   0  0  0  0  0  0  0  0  0  0  0  0
   -5.6845    7.7586   -3.4983 C   0  0  0  0  0  0  0  0  0  0  0  0
   -5.2867    8.9061   -2.8042 C   0  0  0  0  0  0  0  0  0  0  0  0
   -6.1593    9.7236   -1.9536 C   0  0  0  0  0  0  0  0  0  0  0  0
   -7.3525    9.3639   -1.7496 O   0  0  0  0  0  0  0  0  0  0  0  0
   -5.6662   10.8993   -1.3774 O   0  0  0  0  0  0  0  0  0  0  0  0
   -6.4766   11.7540   -0.5806 C   0  0  0  0  0  0  0  0  0  0  0  0
   -3.6444    9.2340   -3.1037 S   0  0  0  0  0  0  0  0  0  0  0  0
   -0.9436    7.5933   -4.4601 C   0  0  0  0  0  0  0  0  0  0  0  0
   -0.4641    7.4465   -3.1558 C   0  0  0  0  0  0  0  0  0  0  0  0
    0.8752    7.0241   -3.0972 C   0  0  0  0  0  0  0  0  0  0  0  0
    1.5575    6.5882   -1.9394 C   0  0  0  0  0  0  0  0  0  0  0  0
    0.9739    6.7401   -0.5909 C   0  0  0  0  0  0  0  0  0  0  0  0
    0.6455    5.4763    0.4726 S   0  0  0  0  0  0  0  0  0  0  0  0
    0.0757    6.4416    1.7284 C   0  0  0  0  0  0  0  0  0  0  0  0
   -0.3214    5.9294    3.0793 C   0  0  0  0  0  0  0  0  0  0  0  0
    0.9016    5.7682    3.9763 C   0  0  0  0  0  0  0  0  0  0  0  0
    0.1583    7.7768    1.3373 C   0  0  0  0  0  0  0  0  0  0  0  0
   -0.2794    9.1235    2.3785 Cl  0  0  0  0  0  0  0  0  0  0  0  0
    0.6505    7.9444    0.0334 C   0  0  0  0  0  0  0  0  0  0  0  0
    0.9063    9.5208   -0.7042 Cl  0  0  0  0  0  0  0  0  0  0  0  0
    2.7801    5.9196   -2.1374 C   0  0  0  0  0  0  0  0  0  0  0  0
    3.3410    5.7503   -3.4072 C   0  0  0  0  0  0  0  0  0  0  0  0
    2.7092    6.2739   -4.5511 C   0  0  0  0  0  0  0  0  0  0  0  0
    3.2996    6.1176   -5.8932 C   0  0  0  0  0  0  0  0  0  0  0  0
    2.6577    5.1732   -7.1293 S   0  0  0  0  0  0  0  0  0  0  0  0
    3.9294    5.3991   -8.2041 C   0  0  0  0  0  0  0  0  0  0  0  0
    4.0596    4.7085   -9.5273 C   0  0  0  0  0  0  0  0  0  0  0  0
    4.8481    3.4155   -9.3708 C   0  0  0  0  0  0  0  0  0  0  0  0
    4.8954    6.1971   -7.5952 C   0  0  0  0  0  0  0  0  0  0  0  0
    4.5421    6.6046   -6.3007 C   0  0  0  0  0  0  0  0  0  0  0  0
    5.5606    7.6300   -5.2972 Cl  0  0  0  0  0  0  0  0  0  0  0  0
    6.4251    6.6233   -8.3519 Cl  0  0  0  0  0  0  0  0  0  0  0  0
    1.4507    6.8667   -4.3636 C   0  0  0  0  0  0  0  0  0  0  0  0
    0.3061    7.2350   -5.5365 S   0  0  0  0  0  0  0  0  0  0  0  0
    4.4589    4.9040   -3.4116 C   0  0  0  0  0  0  0  0  0  0  0  0
    4.7742    4.4065   -2.1515 C   0  0  0  0  0  0  0  0  0  0  0  0
    3.6914    5.0409   -1.0224 S   0  0  0  0  0  0  0  0  0  0  0  0
    5.6630    3.2604   -1.9111 C   0  0  0  0  0  0  0  0  0  0  0  0
    5.9825    2.2976   -2.8685 C   0  0  0  0  0  0  0  0  0  0  0  0
    6.6745    1.2020   -2.3374 C   0  0  0  0  0  0  0  0  0  0  0  0
    7.0513    0.0390   -3.0388 C   0  0  0  0  0  0  0  0  0  0  0  0
    6.7080   -0.1446   -4.4597 C   0  0  0  0  0  0  0  0  0  0  0  0
    7.3639    0.7398   -5.7325 S   0  0  0  0  0  0  0  0  0  0  0  0
    6.3778    0.0813   -6.9267 C   0  0  0  0  0  0  0  0  0  0  0  0
    6.4465    0.4395   -8.3793 C   0  0  0  0  0  0  0  0  0  0  0  0
    7.2424   -0.5963   -9.1615 C   0  0  0  0  0  0  0  0  0  0  0  0
    5.5154   -0.8445   -6.3395 C   0  0  0  0  0  0  0  0  0  0  0  0
    4.2717   -1.7108   -7.2284 Cl  0  0  0  0  0  0  0  0  0  0  0  0
    5.6985   -0.9646   -4.9542 C   0  0  0  0  0  0  0  0  0  0  0  0
    4.6984   -1.9884   -3.9326 Cl  0  0  0  0  0  0  0  0  0  0  0  0
    7.6806   -0.9736   -2.2997 C   0  0  0  0  0  0  0  0  0  0  0  0
    7.9307   -0.8588   -0.9299 C   0  0  0  0  0  0  0  0  0  0  0  0
    7.5351    0.2947   -0.2237 C   0  0  0  0  0  0  0  0  0  0  0  0
    7.7440    0.4233    1.2277 C   0  0  0  0  0  0  0  0  0  0  0  0
    9.2428    0.6090    1.9651 S   0  0  0  0  0  0  0  0  0  0  0  0
    8.6644    0.6090    3.5449 C   0  0  0  0  0  0  0  0  0  0  0  0
    9.5361    0.6588    4.7628 C   0  0  0  0  0  0  0  0  0  0  0  0
   10.0209   -0.7377    5.1346 C   0  0  0  0  0  0  0  0  0  0  0  0
    7.2807    0.4292    3.5153 C   0  0  0  0  0  0  0  0  0  0  0  0
    6.7632    0.3355    2.2143 C   0  0  0  0  0  0  0  0  0  0  0  0
    5.0637    0.0508    1.8644 Cl  0  0  0  0  0  0  0  0  0  0  0  0
    6.2887    0.2822    4.9592 Cl  0  0  0  0  0  0  0  0  0  0  0  0
    6.9029    1.3106   -0.9621 C   0  0  0  0  0  0  0  0  0  0  0  0
    6.2377    2.7555   -0.4037 S   0  0  0  0  0  0  0  0  0  0  0  0
    8.5479   -1.9991   -0.3880 C   0  0  0  0  0  0  0  0  0  0  0  0
    8.7834   -2.9950   -1.3333 C   0  0  0  0  0  0  0  0  0  0  0  0
    8.2245   -2.4714   -2.8368 S   0  0  0  0  0  0  0  0  0  0  0  0
    3.6603  -10.9792    9.8404 H   0  0  0  0  0  0  0  0  0  0  0  0
    3.6380   -8.4378    9.2572 H   0  0  0  0  0  0  0  0  0  0  0  0
    4.7296   -2.7544    9.5180 H   0  0  0  0  0  0  0  0  0  0  0  0
    3.6315   -3.4464   10.7565 H   0  0  0  0  0  0  0  0  0  0  0  0
    2.7097   -1.7323    8.3511 H   0  0  0  0  0  0  0  0  0  0  0  0
    2.9484   -1.1331   10.0386 H   0  0  0  0  0  0  0  0  0  0  0  0
    1.6690   -2.3633    9.6980 H   0  0  0  0  0  0  0  0  0  0  0  0
   -2.3479  -14.9441    4.4597 H   0  0  0  0  0  0  0  0  0  0  0  0
   -1.3487  -14.1899    3.1754 H   0  0  0  0  0  0  0  0  0  0  0  0
   -4.2022  -13.3142    3.9794 H   0  0  0  0  0  0  0  0  0  0  0  0
   -3.1969  -12.5729    2.6683 H   0  0  0  0  0  0  0  0  0  0  0  0
   -3.7543  -14.2851    2.5258 H   0  0  0  0  0  0  0  0  0  0  0  0
   -1.6381   -8.9634    4.4805 H   0  0  0  0  0  0  0  0  0  0  0  0
   -1.7710   -4.1542    4.4181 H   0  0  0  0  0  0  0  0  0  0  0  0
    0.2159    0.4473    4.7481 H   0  0  0  0  0  0  0  0  0  0  0  0
   -1.0589    1.3540    5.6268 H   0  0  0  0  0  0  0  0  0  0  0  0
   -1.6539    2.5831    3.5305 H   0  0  0  0  0  0  0  0  0  0  0  0
    0.0937    2.7836    3.9388 H   0  0  0  0  0  0  0  0  0  0  0  0
   -0.3901    1.6506    2.6211 H   0  0  0  0  0  0  0  0  0  0  0  0
   -5.0203  -10.4122   -2.5880 H   0  0  0  0  0  0  0  0  0  0  0  0
   -3.2717  -10.0255   -2.4394 H   0  0  0  0  0  0  0  0  0  0  0  0
   -5.2497   -8.6707   -4.3884 H   0  0  0  0  0  0  0  0  0  0  0  0
   -4.0144   -9.9162   -4.8135 H   0  0  0  0  0  0  0  0  0  0  0  0
   -3.4855   -8.2876   -4.2343 H   0  0  0  0  0  0  0  0  0  0  0  0
   -5.5124   -4.2720   -1.6421 H   0  0  0  0  0  0  0  0  0  0  0  0
   -7.2122   -0.0714   -0.8190 H   0  0  0  0  0  0  0  0  0  0  0  0
  -10.4384    4.4533    1.6247 H   0  0  0  0  0  0  0  0  0  0  0  0
   -8.7685    5.1067    1.6931 H   0  0  0  0  0  0  0  0  0  0  0  0
   -7.9913    3.0165    2.8575 H   0  0  0  0  0  0  0  0  0  0  0  0
   -9.6803    2.3661    2.7967 H   0  0  0  0  0  0  0  0  0  0  0  0
   -9.3169    3.8432    3.7655 H   0  0  0  0  0  0  0  0  0  0  0  0
   -0.2344    1.0196   -7.4815 H   0  0  0  0  0  0  0  0  0  0  0  0
   -0.9115    0.1519   -8.9006 H   0  0  0  0  0  0  0  0  0  0  0  0
    0.9234   -1.1366   -7.7879 H   0  0  0  0  0  0  0  0  0  0  0  0
   -0.6373   -2.0343   -7.7233 H   0  0  0  0  0  0  0  0  0  0  0  0
   -0.0251   -1.1755   -6.2494 H   0  0  0  0  0  0  0  0  0  0  0  0
   -4.2042    3.4458   -6.0789 H   0  0  0  0  0  0  0  0  0  0  0  0
   -6.6838    7.3505   -3.4608 H   0  0  0  0  0  0  0  0  0  0  0  0
   -7.3378   12.1215   -1.1770 H   0  0  0  0  0  0  0  0  0  0  0  0
   -6.8437   11.2047    0.3146 H   0  0  0  0  0  0  0  0  0  0  0  0
   -5.8732   12.6247   -0.2468 H   0  0  0  0  0  0  0  0  0  0  0  0
   -1.1123    7.4743   -2.2901 H   0  0  0  0  0  0  0  0  0  0  0  0
   -1.0437    6.6248    3.5570 H   0  0  0  0  0  0  0  0  0  0  0  0
   -0.8261    4.9506    2.9601 H   0  0  0  0  0  0  0  0  0  0  0  0
    1.3950    6.7516    4.1314 H   0  0  0  0  0  0  0  0  0  0  0  0
    1.6287    5.0618    3.5187 H   0  0  0  0  0  0  0  0  0  0  0  0
    0.5913    5.3673    4.9652 H   0  0  0  0  0  0  0  0  0  0  0  0
    4.5737    5.3726  -10.2548 H   0  0  0  0  0  0  0  0  0  0  0  0
    3.0491    4.4763   -9.9240 H   0  0  0  0  0  0  0  0  0  0  0  0
    4.3249    2.7336   -8.6649 H   0  0  0  0  0  0  0  0  0  0  0  0
    4.9395    2.9120  -10.3571 H   0  0  0  0  0  0  0  0  0  0  0  0
    5.8673    3.6288   -8.9818 H   0  0  0  0  0  0  0  0  0  0  0  0
    4.9665    4.5923   -4.3147 H   0  0  0  0  0  0  0  0  0  0  0  0
    5.6622    2.3553   -3.9012 H   0  0  0  0  0  0  0  0  0  0  0  0
    6.9331    1.4302   -8.4918 H   0  0  0  0  0  0  0  0  0  0  0  0
    5.4208    0.5110   -8.7999 H   0  0  0  0  0  0  0  0  0  0  0  0
    6.7419   -1.5854   -9.1117 H   0  0  0  0  0  0  0  0  0  0  0  0
    8.2712   -0.6795   -8.7508 H   0  0  0  0  0  0  0  0  0  0  0  0
    7.3077   -0.2861  -10.2263 H   0  0  0  0  0  0  0  0  0  0  0  0
    8.9803    1.1017    5.6162 H   0  0  0  0  0  0  0  0  0  0  0  0
   10.4132    1.3083    4.5572 H   0  0  0  0  0  0  0  0  0  0  0  0
   10.6141   -1.1735    4.3017 H   0  0  0  0  0  0  0  0  0  0  0  0
    9.1570   -1.4029    5.3500 H   0  0  0  0  0  0  0  0  0  0  0  0
   10.6633   -0.6804    6.0397 H   0  0  0  0  0  0  0  0  0  0  0  0
    8.8096   -2.1098    0.6560 H   0  0  0  0  0  0  0  0  0  0  0  0
    9.2517   -3.9479   -1.1353 H   0  0  0  0  0  0  0  0  0  0  0  0
  1  2  2  0
  2  3  1  0
  3  4  2  0
  4  5  1  0
  5  6  1  0
  6  7  1  0
  7  8  1  0
  8  9  1  0
  7 10  2  0
 10 11  1  0
 10 12  1  0
 12 13  1  0
  4 14  1  0
 14 15  2  0
 15 16  1  0
 16 17  1  0
 17 18  1  0
 18 19  1  0
 19 20  1  0
 20 21  1  0
 19 22  2  0
 22 23  1  0
 23 24  1  0
 22 25  1  0
 16 26  2  0
 26 27  1  0
 15 28  1  0
 28 29  2  0
 29 30  1  0
 29 31  1  0
 31 32  2  0
 32 33  1  0
 33 34  2  0
 34 35  1  0
 35 36  1  0
 36 37  1  0
 37 38  1  0
 38 39  1  0
 37 40  2  0
 40 41  1  0
 40 42  1  0
 42 43  1  0
 34 44  1  0
 44 45  2  0
 45 46  1  0
 46 47  1  0
 47 48  1  0
 48 49  1  0
 49 50  1  0
 50 51  1  0
 49 52  2  0
 52 53  1  0
 53 54  1  0
 52 55  1  0
 46 56  2  0
 56 57  1  0
 45 58  1  0
 58 59  2  0
 59 60  1  0
 59 61  1  0
 61 62  2  0
 62 63  1  0
 63 64  2  0
 64 65  1  0
 65 66  1  0
 66 67  1  0
 67 68  1  0
 68 69  1  0
 67 70  2  0
 70 71  1  0
 70 72  1  0
 72 73  1  0
 64 74  1  0
 74 75  2  0
 75 76  1  0
 76 77  1  0
 77 78  1  0
 78 79  1  0
 79 80  1  0
 80 81  1  0
 79 82  2  0
 82 83  1  0
 83 84  1  0
 82 85  1  0
 76 86  2  0
 86 87  1  0
 75 88  1  0
 88 89  2  0
 89 90  1  0
 89 91  1  0
 91 92  1  0
 92 93  1  0
 93 94  2  0
 94 95  1  0
 95 96  1  0
 96 97  2  0
 97 98  1  0
 98 99  2  0
 98100  1  0
100101  1  0
 97102  1  0
 93103  1  0
103104  2  0
104105  1  0
105106  2  0
106107  1  0
107108  1  0
108109  1  0
109110  1  0
110111  1  0
109112  2  0
112113  1  0
112114  1  0
114115  1  0
106116  1  0
116117  2  0
117118  1  0
118119  1  0
119120  1  0
120121  1  0
121122  1  0
122123  1  0
121124  2  0
124125  1  0
125126  1  0
124127  1  0
118128  2  0
128129  1  0
117130  1  0
130131  2  0
131132  1  0
131133  1  0
133134  2  0
134135  1  0
135136  2  0
136137  1  0
137138  1  0
138139  1  0
139140  1  0
140141  1  0
139142  2  0
142143  1  0
142144  1  0
144145  1  0
136146  1  0
146147  2  0
147148  1  0
148149  1  0
149150  1  0
150151  1  0
151152  1  0
152153  1  0
151154  2  0
154155  1  0
155156  1  0
154157  1  0
148158  2  0
158159  1  0
147160  1  0
160161  2  0
161162  1  0
 27  1  1  0
 57 31  1  0
 87 61  1  0
 95 91  2  0
129103  1  0
159133  1  0
 26  3  1  0
 56 33  1  0
 86 63  1  0
102 94  1  0
128105  1  0
158135  1  0
 12  5  2  0
 30 14  1  0
 42 35  2  0
 60 44  1  0
 72 65  2  0
 90 74  1  0
114107  2  0
132116  1  0
144137  2  0
162146  1  0
 23 17  2  0
 53 47  2  0
 83 77  2  0
125119  2  0
155149  2  0
  1163  1  0
  2164  1  0
  8165  1  0
  8166  1  0
  9167  1  0
  9168  1  0
  9169  1  0
 20170  1  0
 20171  1  0
 21172  1  0
 21173  1  0
 21174  1  0
 28175  1  0
 32176  1  0
 38177  1  0
 38178  1  0
 39179  1  0
 39180  1  0
 39181  1  0
 50182  1  0
 50183  1  0
 51184  1  0
 51185  1  0
 51186  1  0
 58187  1  0
 62188  1  0
 68189  1  0
 68190  1  0
 69191  1  0
 69192  1  0
 69193  1  0
 80194  1  0
 80195  1  0
 81196  1  0
 81197  1  0
 81198  1  0
 88199  1  0
 96200  1  0
101201  1  0
101202  1  0
101203  1  0
104204  1  0
110205  1  0
110206  1  0
111207  1  0
111208  1  0
111209  1  0
122210  1  0
122211  1  0
123212  1  0
123213  1  0
123214  1  0
130215  1  0
134216  1  0
140217  1  0
140218  1  0
141219  1  0
141220  1  0
141221  1  0
152222  1  0
152223  1  0
153224  1  0
153225  1  0
153226  1  0
160227  1  0
161228  1  0
M  END

