
     RDKit          3D

229255  0  0  0  0  0  0  0  0999 V2000
   -1.1007  -12.4119    4.5613 C   0  0  0  0  0  0  0  0  0  0  0  0
    0.0735  -11.8017    4.1305 C   0  0  0  0  0  0  0  0  0  0  0  0
    0.1016  -10.4207    4.3836 C   0  0  0  0  0  0  0  0  0  0  0  0
    1.1545   -9.5354    4.0758 C   0  0  0  0  0  0  0  0  0  0  0  0
    2.4078   -9.9962    3.4551 C   0  0  0  0  0  0  0  0  0  0  0  0
    2.5455  -10.5928    1.8902 S   0  0  0  0  0  0  0  0  0  0  0  0
    4.2150  -10.7779    1.9086 C   0  0  0  0  0  0  0  0  0  0  0  0
    5.0371  -11.1772    0.7181 C   0  0  0  0  0  0  0  0  0  0  0  0
    5.5346   -9.9430   -0.0300 C   0  0  0  0  0  0  0  0  0  0  0  0
    4.6980  -10.3512    3.1460 C   0  0  0  0  0  0  0  0  0  0  0  0
    6.4033  -10.3476    3.5748 Cl  0  0  0  0  0  0  0  0  0  0  0  0
    3.6839   -9.9187    4.0153 C   0  0  0  0  0  0  0  0  0  0  0  0
    3.9930   -9.3776    5.6602 Cl  0  0  0  0  0  0  0  0  0  0  0  0
    0.9607   -8.1811    4.4052 C   0  0  0  0  0  0  0  0  0  0  0  0
   -0.1899   -7.7208    5.0543 C   0  0  0  0  0  0  0  0  0  0  0  0
   -1.2283   -8.6105    5.3932 C   0  0  0  0  0  0  0  0  0  0  0  0
   -2.4554   -8.1478    6.0714 C   0  0  0  0  0  0  0  0  0  0  0  0
   -3.5542   -7.0432    5.4316 S   0  0  0  0  0  0  0  0  0  0  0  0
   -4.6034   -7.0396    6.7476 C   0  0  0  0  0  0  0  0  0  0  0  0
   -5.8477   -6.2122    6.8422 C   0  0  0  0  0  0  0  0  0  0  0  0
   -5.6062   -4.9394    7.6468 C   0  0  0  0  0  0  0  0  0  0  0  0
   -4.0971   -7.9030    7.7220 C   0  0  0  0  0  0  0  0  0  0  0  0
   -2.8937   -8.5244    7.3435 C   0  0  0  0  0  0  0  0  0  0  0  0
   -1.9844   -9.5910    8.4059 Cl  0  0  0  0  0  0  0  0  0  0  0  0
   -4.8724   -8.1730    9.2761 Cl  0  0  0  0  0  0  0  0  0  0  0  0
   -1.0521   -9.9567    5.0270 C   0  0  0  0  0  0  0  0  0  0  0  0
   -2.1050  -11.2478    5.2546 S   0  0  0  0  0  0  0  0  0  0  0  0
   -0.1476   -6.3503    5.3469 C   0  0  0  0  0  0  0  0  0  0  0  0
    1.0167   -5.7349    4.8892 C   0  0  0  0  0  0  0  0  0  0  0  0
    2.0079   -6.8877    4.1598 S   0  0  0  0  0  0  0  0  0  0  0  0
    1.4217   -4.3595    5.1968 C   0  0  0  0  0  0  0  0  0  0  0  0
    3.0071   -3.8913    5.5906 S   0  0  0  0  0  0  0  0  0  0  0  0
    2.6522   -2.3601    6.2233 C   0  0  0  0  0  0  0  0  0  0  0  0
    3.6120   -1.4245    6.8868 C   0  0  0  0  0  0  0  0  0  0  0  0
    3.8879   -1.8721    8.3186 C   0  0  0  0  0  0  0  0  0  0  0  0
    1.2774   -2.2487    6.1494 C   0  0  0  0  0  0  0  0  0  0  0  0
    0.6134   -3.2896    5.5749 C   0  0  0  0  0  0  0  0  0  0  0  0
   -0.7272   -2.9405    5.5280 C   0  0  0  0  0  0  0  0  0  0  0  0
   -0.7839   -1.6810    6.1418 C   0  0  0  0  0  0  0  0  0  0  0  0
    0.4485   -1.2622    6.5217 N   0  0  0  0  0  0  0  0  0  0  0  0
   -1.7961   -3.5132    4.6906 C   0  0  0  0  0  0  0  0  0  0  0  0
   -1.5936   -4.1479    3.4660 C   0  0  0  0  0  0  0  0  0  0  0  0
   -2.7575   -4.2261    2.6833 C   0  0  0  0  0  0  0  0  0  0  0  0
   -2.8164   -4.6461    1.3403 C   0  0  0  0  0  0  0  0  0  0  0  0
   -1.6296   -5.1770    0.6492 C   0  0  0  0  0  0  0  0  0  0  0  0
   -0.7855   -4.3799   -0.5686 S   0  0  0  0  0  0  0  0  0  0  0  0
    0.3148   -5.6171   -0.8604 C   0  0  0  0  0  0  0  0  0  0  0  0
    1.3334   -5.6036   -1.9588 C   0  0  0  0  0  0  0  0  0  0  0  0
    0.7557   -6.1959   -3.2400 C   0  0  0  0  0  0  0  0  0  0  0  0
    0.0205   -6.6871   -0.0143 C   0  0  0  0  0  0  0  0  0  0  0  0
    0.8768   -8.2175   -0.0526 Cl  0  0  0  0  0  0  0  0  0  0  0  0
   -1.0655   -6.4357    0.8394 C   0  0  0  0  0  0  0  0  0  0  0  0
   -1.7173   -7.6225    1.9586 Cl  0  0  0  0  0  0  0  0  0  0  0  0
   -4.0027   -4.3749    0.6407 C   0  0  0  0  0  0  0  0  0  0  0  0
   -5.1062   -3.7559    1.2349 C   0  0  0  0  0  0  0  0  0  0  0  0
   -5.0886   -3.4346    2.6110 C   0  0  0  0  0  0  0  0  0  0  0  0
   -6.2446   -2.7958    3.2735 C   0  0  0  0  0  0  0  0  0  0  0  0
   -6.2150   -1.3114    4.0678 S   0  0  0  0  0  0  0  0  0  0  0  0
   -7.8151   -1.3420    4.5789 C   0  0  0  0  0  0  0  0  0  0  0  0
   -8.4340   -0.3196    5.4839 C   0  0  0  0  0  0  0  0  0  0  0  0
   -8.2165   -0.6933    6.9468 C   0  0  0  0  0  0  0  0  0  0  0  0
   -8.3960   -2.5334    4.1475 C   0  0  0  0  0  0  0  0  0  0  0  0
   -7.5201   -3.3446    3.4089 C   0  0  0  0  0  0  0  0  0  0  0  0
   -7.9644   -4.9297    2.7934 Cl  0  0  0  0  0  0  0  0  0  0  0  0
  -10.0492   -2.9994    4.5281 Cl  0  0  0  0  0  0  0  0  0  0  0  0
   -3.8769   -3.6540    3.2961 C   0  0  0  0  0  0  0  0  0  0  0  0
   -3.4195   -3.0753    4.8068 S   0  0  0  0  0  0  0  0  0  0  0  0
   -6.0596   -3.3142    0.2961 C   0  0  0  0  0  0  0  0  0  0  0  0
   -5.6866   -3.5577   -1.0319 C   0  0  0  0  0  0  0  0  0  0  0  0
   -4.2207   -4.3977   -1.0199 S   0  0  0  0  0  0  0  0  0  0  0  0
   -6.0982   -2.7203   -2.1752 C   0  0  0  0  0  0  0  0  0  0  0  0
   -5.3413   -2.6021   -3.3444 C   0  0  0  0  0  0  0  0  0  0  0  0
   -5.4769   -1.3563   -3.9797 C   0  0  0  0  0  0  0  0  0  0  0  0
   -4.6539   -0.8669   -5.0167 C   0  0  0  0  0  0  0  0  0  0  0  0
   -3.5872   -1.6870   -5.6217 C   0  0  0  0  0  0  0  0  0  0  0  0
   -2.2027   -2.2109   -4.8238 S   0  0  0  0  0  0  0  0  0  0  0  0
   -1.4707   -2.9091   -6.1684 C   0  0  0  0  0  0  0  0  0  0  0  0
   -0.1103   -3.5437   -6.1667 C   0  0  0  0  0  0  0  0  0  0  0  0
    0.9275   -2.6108   -6.7839 C   0  0  0  0  0  0  0  0  0  0  0  0
   -2.2993   -2.7153   -7.2743 C   0  0  0  0  0  0  0  0  0  0  0  0
   -1.9002   -3.2682   -8.8959 Cl  0  0  0  0  0  0  0  0  0  0  0  0
   -3.4796   -2.0216   -6.9690 C   0  0  0  0  0  0  0  0  0  0  0  0
   -4.6978   -1.6006   -8.1679 Cl  0  0  0  0  0  0  0  0  0  0  0  0
   -4.7395    0.5083   -5.2962 C   0  0  0  0  0  0  0  0  0  0  0  0
   -5.6241    1.3574   -4.6262 C   0  0  0  0  0  0  0  0  0  0  0  0
   -6.5396    0.8418   -3.6848 C   0  0  0  0  0  0  0  0  0  0  0  0
   -7.5126    1.7203   -3.0046 C   0  0  0  0  0  0  0  0  0  0  0  0
   -7.6220    1.9615   -1.3408 S   0  0  0  0  0  0  0  0  0  0  0  0
   -8.8890    3.0663   -1.3977 C   0  0  0  0  0  0  0  0  0  0  0  0
   -9.5794    3.6286   -0.1910 C   0  0  0  0  0  0  0  0  0  0  0  0
  -10.6389    2.6560    0.3132 C   0  0  0  0  0  0  0  0  0  0  0  0
   -9.2621    3.2450   -2.7295 C   0  0  0  0  0  0  0  0  0  0  0  0
   -8.4827    2.5033   -3.6294 C   0  0  0  0  0  0  0  0  0  0  0  0
   -8.7459    2.5147   -5.3702 Cl  0  0  0  0  0  0  0  0  0  0  0  0
  -10.5918    4.2762   -3.2370 Cl  0  0  0  0  0  0  0  0  0  0  0  0
   -6.4052   -0.5182   -3.3506 C   0  0  0  0  0  0  0  0  0  0  0  0
   -7.0236   -1.3168   -2.0047 S   0  0  0  0  0  0  0  0  0  0  0  0
   -5.3125    2.7176   -4.7910 C   0  0  0  0  0  0  0  0  0  0  0  0
   -4.1791    2.9393   -5.5710 C   0  0  0  0  0  0  0  0  0  0  0  0
   -3.5906    1.4458   -6.0858 S   0  0  0  0  0  0  0  0  0  0  0  0
   -3.2658    4.0587   -5.3311 C   0  0  0  0  0  0  0  0  0  0  0  0
   -2.8025    4.3636   -4.0546 C   0  0  0  0  0  0  0  0  0  0  0  0
   -1.5874    5.0618   -4.0554 C   0  0  0  0  0  0  0  0  0  0  0  0
   -0.7945    5.3289   -2.9194 C   0  0  0  0  0  0  0  0  0  0  0  0
   -1.2391    4.9663   -1.5559 C   0  0  0  0  0  0  0  0  0  0  0  0
   -0.4657    3.8603   -0.5502 S   0  0  0  0  0  0  0  0  0  0  0  0
   -1.5345    3.9997    0.7386 C   0  0  0  0  0  0  0  0  0  0  0  0
   -1.3743    3.2987    2.0558 C   0  0  0  0  0  0  0  0  0  0  0  0
   -0.4800    4.1023    2.9945 C   0  0  0  0  0  0  0  0  0  0  0  0
   -2.5155    4.9358    0.4013 C   0  0  0  0  0  0  0  0  0  0  0  0
   -3.8133    5.4161    1.4874 Cl  0  0  0  0  0  0  0  0  0  0  0  0
   -2.3525    5.4709   -0.8875 C   0  0  0  0  0  0  0  0  0  0  0  0
   -3.4161    6.6978   -1.5613 Cl  0  0  0  0  0  0  0  0  0  0  0  0
    0.4935    5.8316   -3.1561 C   0  0  0  0  0  0  0  0  0  0  0  0
    0.9694    6.1269   -4.4389 C   0  0  0  0  0  0  0  0  0  0  0  0
    0.1509    5.9224   -5.5707 C   0  0  0  0  0  0  0  0  0  0  0  0
    0.6098    6.2675   -6.9321 C   0  0  0  0  0  0  0  0  0  0  0  0
    0.7152    5.1964   -8.2288 S   0  0  0  0  0  0  0  0  0  0  0  0
    1.2516    6.3257   -9.3542 C   0  0  0  0  0  0  0  0  0  0  0  0
    1.4497    6.0435  -10.8131 C   0  0  0  0  0  0  0  0  0  0  0  0
    0.1409    6.2056  -11.5772 C   0  0  0  0  0  0  0  0  0  0  0  0
    1.3385    7.5697   -8.7305 C   0  0  0  0  0  0  0  0  0  0  0  0
    0.9824    7.5362   -7.3726 C   0  0  0  0  0  0  0  0  0  0  0  0
    0.9280    8.9754   -6.3643 Cl  0  0  0  0  0  0  0  0  0  0  0  0
    1.7945    9.0436   -9.5734 Cl  0  0  0  0  0  0  0  0  0  0  0  0
   -1.1104    5.3390   -5.3415 C   0  0  0  0  0  0  0  0  0  0  0  0
   -2.1778    4.6786   -6.4681 S   0  0  0  0  0  0  0  0  0  0  0  0
    2.3252    6.5027   -4.4530 C   0  0  0  0  0  0  0  0  0  0  0  0
    2.9056    6.4863   -3.1851 C   0  0  0  0  0  0  0  0  0  0  0  0
    1.7402    6.0388   -2.0518 S   0  0  0  0  0  0  0  0  0  0  0  0
    4.3447    6.5864   -2.8989 C   0  0  0  0  0  0  0  0  0  0  0  0
    4.9612    6.0768   -1.7604 C   0  0  0  0  0  0  0  0  0  0  0  0
    6.3595    6.1541   -1.8130 C   0  0  0  0  0  0  0  0  0  0  0  0
    7.2548    5.6459   -0.8498 C   0  0  0  0  0  0  0  0  0  0  0  0
    6.7834    4.8767    0.3182 C   0  0  0  0  0  0  0  0  0  0  0  0
    7.0146    5.3227    1.9250 S   0  0  0  0  0  0  0  0  0  0  0  0
    6.1977    4.0152    2.5955 C   0  0  0  0  0  0  0  0  0  0  0  0
    6.0652    3.7581    4.0693 C   0  0  0  0  0  0  0  0  0  0  0  0
    7.3025    3.0495    4.6041 C   0  0  0  0  0  0  0  0  0  0  0  0
    5.7568    3.1877    1.5617 C   0  0  0  0  0  0  0  0  0  0  0  0
    4.8932    1.6772    1.8257 Cl  0  0  0  0  0  0  0  0  0  0  0  0
    6.0801    3.6717    0.2880 C   0  0  0  0  0  0  0  0  0  0  0  0
    5.6976    2.8086   -1.1982 Cl  0  0  0  0  0  0  0  0  0  0  0  0
    8.6237    5.8456   -1.0915 C   0  0  0  0  0  0  0  0  0  0  0  0
    9.1022    6.4835   -2.2429 C   0  0  0  0  0  0  0  0  0  0  0  0
    8.2088    6.9619   -3.2229 C   0  0  0  0  0  0  0  0  0  0  0  0
    8.6816    7.5764   -4.4783 C   0  0  0  0  0  0  0  0  0  0  0  0
    9.5885    6.7790   -5.6515 S   0  0  0  0  0  0  0  0  0  0  0  0
    9.6796    8.0748   -6.7210 C   0  0  0  0  0  0  0  0  0  0  0  0
   10.3059    8.0130   -8.0821 C   0  0  0  0  0  0  0  0  0  0  0  0
    9.2623    7.6672   -9.1384 C   0  0  0  0  0  0  0  0  0  0  0  0
    8.9710    9.1490   -6.1788 C   0  0  0  0  0  0  0  0  0  0  0  0
    8.4192    8.8729   -4.9190 C   0  0  0  0  0  0  0  0  0  0  0  0
    7.5339   10.0599   -3.9723 Cl  0  0  0  0  0  0  0  0  0  0  0  0
    8.7863   10.6944   -6.9988 Cl  0  0  0  0  0  0  0  0  0  0  0  0
    6.8360    6.7766   -2.9721 C   0  0  0  0  0  0  0  0  0  0  0  0
    5.5277    7.1586   -3.9640 S   0  0  0  0  0  0  0  0  0  0  0  0
   10.5055    6.5704   -2.2798 C   0  0  0  0  0  0  0  0  0  0  0  0
   11.1194    5.9852   -1.1767 C   0  0  0  0  0  0  0  0  0  0  0  0
    9.9322    5.3701   -0.1460 S   0  0  0  0  0  0  0  0  0  0  0  0
   -1.3312  -13.4640    4.4622 H   0  0  0  0  0  0  0  0  0  0  0  0
    0.8766  -12.3517    3.6603 H   0  0  0  0  0  0  0  0  0  0  0  0
    4.4149  -11.7909    0.0322 H   0  0  0  0  0  0  0  0  0  0  0  0
    5.9010  -11.7970    1.0393 H   0  0  0  0  0  0  0  0  0  0  0  0
    6.0833  -10.2568   -0.9418 H   0  0  0  0  0  0  0  0  0  0  0  0
    4.6787   -9.3001   -0.3275 H   0  0  0  0  0  0  0  0  0  0  0  0
    6.2228   -9.3582    0.6150 H   0  0  0  0  0  0  0  0  0  0  0  0
   -6.6560   -6.8045    7.3227 H   0  0  0  0  0  0  0  0  0  0  0  0
   -6.1826   -5.9326    5.8186 H   0  0  0  0  0  0  0  0  0  0  0  0
   -6.5265   -4.3190    7.6447 H   0  0  0  0  0  0  0  0  0  0  0  0
   -5.3473   -5.1914    8.6990 H   0  0  0  0  0  0  0  0  0  0  0  0
   -4.7799   -4.3472    7.2001 H   0  0  0  0  0  0  0  0  0  0  0  0
   -0.9022   -5.8385    5.9251 H   0  0  0  0  0  0  0  0  0  0  0  0
    4.5667   -1.4121    6.3171 H   0  0  0  0  0  0  0  0  0  0  0  0
    3.1919   -0.3956    6.8894 H   0  0  0  0  0  0  0  0  0  0  0  0
    4.5764   -1.1535    8.8066 H   0  0  0  0  0  0  0  0  0  0  0  0
    4.3652   -2.8754    8.3194 H   0  0  0  0  0  0  0  0  0  0  0  0
    2.9399   -1.9169    8.8968 H   0  0  0  0  0  0  0  0  0  0  0  0
   -1.6707   -1.0630    6.2219 H   0  0  0  0  0  0  0  0  0  0  0  0
    0.6969   -0.3489    6.9591 H   0  0  0  0  0  0  0  0  0  0  0  0
   -0.6160   -4.4284    3.0953 H   0  0  0  0  0  0  0  0  0  0  0  0
    2.2292   -6.1838   -1.6517 H   0  0  0  0  0  0  0  0  0  0  0  0
    1.6548   -4.5581   -2.1516 H   0  0  0  0  0  0  0  0  0  0  0  0
   -0.1578   -5.6403   -3.5467 H   0  0  0  0  0  0  0  0  0  0  0  0
    0.4985   -7.2665   -3.0870 H   0  0  0  0  0  0  0  0  0  0  0  0
    1.5064   -6.1231   -4.0537 H   0  0  0  0  0  0  0  0  0  0  0  0
   -9.5227   -0.2382    5.2783 H   0  0  0  0  0  0  0  0  0  0  0  0
   -7.9771    0.6720    5.2847 H   0  0  0  0  0  0  0  0  0  0  0  0
   -8.7079   -1.6623    7.1780 H   0  0  0  0  0  0  0  0  0  0  0  0
   -7.1300   -0.7711    7.1680 H   0  0  0  0  0  0  0  0  0  0  0  0
   -8.6547    0.0910    7.5996 H   0  0  0  0  0  0  0  0  0  0  0  0
   -6.9054   -2.6952    0.5632 H   0  0  0  0  0  0  0  0  0  0  0  0
   -4.5992   -3.3318   -3.6342 H   0  0  0  0  0  0  0  0  0  0  0  0
   -0.1399   -4.4998   -6.7330 H   0  0  0  0  0  0  0  0  0  0  0  0
    0.1886   -3.7690   -5.1220 H   0  0  0  0  0  0  0  0  0  0  0  0
    1.9331   -3.0766   -6.7063 H   0  0  0  0  0  0  0  0  0  0  0  0
    0.9442   -1.6406   -6.2455 H   0  0  0  0  0  0  0  0  0  0  0  0
    0.7047   -2.4318   -7.8564 H   0  0  0  0  0  0  0  0  0  0  0  0
   -8.8305    3.8075    0.6080 H   0  0  0  0  0  0  0  0  0  0  0  0
  -10.0537    4.6006   -0.4387 H   0  0  0  0  0  0  0  0  0  0  0  0
  -11.4085    2.4899   -0.4706 H   0  0  0  0  0  0  0  0  0  0  0  0
  -10.1753    1.6833    0.5862 H   0  0  0  0  0  0  0  0  0  0  0  0
  -11.1378    3.0756    1.2145 H   0  0  0  0  0  0  0  0  0  0  0  0
   -5.7853    3.5058   -4.2189 H   0  0  0  0  0  0  0  0  0  0  0  0
   -3.2598    3.9638   -3.1578 H   0  0  0  0  0  0  0  0  0  0  0  0
   -0.9147    2.3025    1.8830 H   0  0  0  0  0  0  0  0  0  0  0  0
   -2.3645    3.1383    2.5300 H   0  0  0  0  0  0  0  0  0  0  0  0
   -0.3761    3.5665    3.9609 H   0  0  0  0  0  0  0  0  0  0  0  0
   -0.9239    5.1037    3.1874 H   0  0  0  0  0  0  0  0  0  0  0  0
    0.5297    4.2324    2.5482 H   0  0  0  0  0  0  0  0  0  0  0  0
    2.2116    6.7348  -11.2321 H   0  0  0  0  0  0  0  0  0  0  0  0
    1.8241    5.0073  -10.9388 H   0  0  0  0  0  0  0  0  0  0  0  0
   -0.2495    7.2400  -11.4597 H   0  0  0  0  0  0  0  0  0  0  0  0
   -0.6173    5.4839  -11.2018 H   0  0  0  0  0  0  0  0  0  0  0  0
    0.3105    6.0103  -12.6569 H   0  0  0  0  0  0  0  0  0  0  0  0
    2.8888    6.6925   -5.3560 H   0  0  0  0  0  0  0  0  0  0  0  0
    4.4151    5.6224   -0.9438 H   0  0  0  0  0  0  0  0  0  0  0  0
    5.1678    3.1371    4.2700 H   0  0  0  0  0  0  0  0  0  0  0  0
    5.9372    4.7264    4.5972 H   0  0  0  0  0  0  0  0  0  0  0  0
    8.2137    3.6572    4.4121 H   0  0  0  0  0  0  0  0  0  0  0  0
    7.1992    2.8946    5.7007 H   0  0  0  0  0  0  0  0  0  0  0  0
    7.4184    2.0577    4.1139 H   0  0  0  0  0  0  0  0  0  0  0  0
   10.7785    8.9891   -8.3244 H   0  0  0  0  0  0  0  0  0  0  0  0
   11.1005    7.2372   -8.0891 H   0  0  0  0  0  0  0  0  0  0  0  0
    8.4427    8.4191   -9.1388 H   0  0  0  0  0  0  0  0  0  0  0  0
    8.8275    6.6635   -8.9447 H   0  0  0  0  0  0  0  0  0  0  0  0
    9.7368    7.6604  -10.1414 H   0  0  0  0  0  0  0  0  0  0  0  0
   11.0652    7.0382   -3.0772 H   0  0  0  0  0  0  0  0  0  0  0  0
   12.1857    5.9332   -1.0107 H   0  0  0  0  0  0  0  0  0  0  0  0
  1  2  2  0
  2  3  1  0
  3  4  2  0
  4  5  1  0
  5  6  1  0
  6  7  1  0
  7  8  1  0
  8  9  1  0
  7 10  2  0
 10 11  1  0
 10 12  1  0
 12 13  1  0
  4 14  1  0
 14 15  2  0
 15 16  1  0
 16 17  1  0
 17 18  1  0
 18 19  1  0
 19 20  1  0
 20 21  1  0
 19 22  2  0
 22 23  1  0
 23 24  1  0
 22 25  1  0
 16 26  2  0
 26 27  1  0
 15 28  1  0
 28 29  2  0
 29 30  1  0
 29 31  1  0
 31 32  1  0
 32 33  1  0
 33 34  1  0
 34 35  1  0
 33 36  2  0
 36 37  1  0
 37 38  1  0
 38 39  2  0
 39 40  1  0
 38 41  1  0
 41 42  2  0
 42 43  1  0
 43 44  2  0
 44 45  1  0
 45 46  1  0
 46 47  1  0
 47 48  1  0
 48 49  1  0
 47 50  2  0
 50 51  1  0
 50 52  1  0
 52 53  1  0
 44 54  1  0
 54 55  2  0
 55 56  1  0
 56 57  1  0
 57 58  1  0
 58 59  1  0
 59 60  1  0
 60 61  1  0
 59 62  2  0
 62 63  1  0
 63 64  1  0
 62 65  1  0
 56 66  2  0
 66 67  1  0
 55 68  1  0
 68 69  2  0
 69 70  1  0
 69 71  1  0
 71 72  2  0
 72 73  1  0
 73 74  2  0
 74 75  1  0
 75 76  1  0
 76 77  1  0
 77 78  1  0
 78 79  1  0
 77 80  2  0
 80 81  1  0
 80 82  1  0
 82 83  1  0
 74 84  1  0
 84 85  2  0
 85 86  1  0
 86 87  1  0
 87 88  1  0
 88 89  1  0
 89 90  1  0
 90 91  1  0
 89 92  2  0
 92 93  1  0
 93 94  1  0
 92 95  1  0
 86 96  2  0
 96 97  1  0
 85 98  1  0
 98 99  2  0
 99100  1  0
 99101  1  0
101102  2  0
102103  1  0
103104  2  0
104105  1  0
105106  1  0
106107  1  0
107108  1  0
108109  1  0
107110  2  0
110111  1  0
110112  1  0
112113  1  0
104114  1  0
114115  2  0
115116  1  0
116117  1  0
117118  1  0
118119  1  0
119120  1  0
120121  1  0
119122  2  0
122123  1  0
123124  1  0
122125  1  0
116126  2  0
126127  1  0
115128  1  0
128129  2  0
129130  1  0
129131  1  0
131132  2  0
132133  1  0
133134  2  0
134135  1  0
135136  1  0
136137  1  0
137138  1  0
138139  1  0
137140  2  0
140141  1  0
140142  1  0
142143  1  0
134144  1  0
144145  2  0
145146  1  0
146147  1  0
147148  1  0
148149  1  0
149150  1  0
150151  1  0
149152  2  0
152153  1  0
153154  1  0
152155  1  0
146156  2  0
156157  1  0
145158  1  0
158159  2  0
159160  1  0
 27  1  1  0
 37 31  2  0
 67 41  1  0
 97 71  1  0
127101  1  0
157131  1  0
 26  3  1  0
 40 36  1  0
 66 43  1  0
 96 73  1  0
126103  1  0
156133  1  0
 12  5  2  0
 30 14  1  0
 52 45  2  0
 70 54  1  0
 82 75  2  0
100 84  1  0
112105  2  0
130114  1  0
142135  2  0
160144  1  0
 23 17  2  0
 63 57  2  0
 93 87  2  0
123117  2  0
153147  2  0
  1161  1  0
  2162  1  0
  8163  1  0
  8164  1  0
  9165  1  0
  9166  1  0
  9167  1  0
 20168  1  0
 20169  1  0
 21170  1  0
 21171  1  0
 21172  1  0
 28173  1  0
 34174  1  0
 34175  1  0
 35176  1  0
 35177  1  0
 35178  1  0
 39179  1  0
 40180  1  0
 42181  1  0
 48182  1  0
 48183  1  0
 49184  1  0
 49185  1  0
 49186  1  0
 60187  1  0
 60188  1  0
 61189  1  0
 61190  1  0
 61191  1  0
 68192  1  0
 72193  1  0
 78194  1  0
 78195  1  0
 79196  1  0
 79197  1  0
 79198  1  0
 90199  1  0
 90200  1  0
 91201  1  0
 91202  1  0
 91203  1  0
 98204  1  0
102205  1  0
108206  1  0
108207  1  0
109208  1  0
109209  1  0
109210  1  0
120211  1  0
120212  1  0
121213  1  0
121214  1  0
121215  1  0
128216  1  0
132217  1  0
138218  1  0
138219  1  0
139220  1  0
139221  1  0
139222  1  0
150223  1  0
150224  1  0
151225  1  0
151226  1  0
151227  1  0
158228  1  0
159229  1  0
M  END

