
     RDKit          3D

229255  0  0  0  0  0  0  0  0999 V2000
    3.2805   -8.6295    7.9813 C   0  0  0  0  0  0  0  0  0  0  0  0
    3.4425   -7.2688    8.2225 C   0  0  0  0  0  0  0  0  0  0  0  0
    2.3088   -6.5069    7.8785 C   0  0  0  0  0  0  0  0  0  0  0  0
    2.1833   -5.1024    7.9639 C   0  0  0  0  0  0  0  0  0  0  0  0
    3.2730   -4.2576    8.4763 C   0  0  0  0  0  0  0  0  0  0  0  0
    4.1862   -3.1957    7.5408 S   0  0  0  0  0  0  0  0  0  0  0  0
    5.2381   -2.7340    8.7679 C   0  0  0  0  0  0  0  0  0  0  0  0
    6.4232   -1.8390    8.5730 C   0  0  0  0  0  0  0  0  0  0  0  0
    7.6492   -2.6504    8.1686 C   0  0  0  0  0  0  0  0  0  0  0  0
    4.8980   -3.4242    9.9315 C   0  0  0  0  0  0  0  0  0  0  0  0
    5.7765   -3.2665   11.4485 Cl  0  0  0  0  0  0  0  0  0  0  0  0
    3.7921   -4.2733    9.7679 C   0  0  0  0  0  0  0  0  0  0  0  0
    3.1241   -5.2508   11.0709 Cl  0  0  0  0  0  0  0  0  0  0  0  0
    0.9817   -4.5435    7.4985 C   0  0  0  0  0  0  0  0  0  0  0  0
   -0.0574   -5.3224    6.9774 C   0  0  0  0  0  0  0  0  0  0  0  0
    0.0658   -6.7231    6.8967 C   0  0  0  0  0  0  0  0  0  0  0  0
   -0.9850   -7.5577    6.2915 C   0  0  0  0  0  0  0  0  0  0  0  0
   -1.4828   -7.4430    4.6872 S   0  0  0  0  0  0  0  0  0  0  0  0
   -2.7332   -8.5578    4.8090 C   0  0  0  0  0  0  0  0  0  0  0  0
   -3.7068   -8.8586    3.7086 C   0  0  0  0  0  0  0  0  0  0  0  0
   -4.8624   -7.8623    3.7223 C   0  0  0  0  0  0  0  0  0  0  0  0
   -2.7962   -9.0141    6.1256 C   0  0  0  0  0  0  0  0  0  0  0  0
   -1.8089   -8.4591    6.9558 C   0  0  0  0  0  0  0  0  0  0  0  0
   -1.6791   -8.8129    8.6740 Cl  0  0  0  0  0  0  0  0  0  0  0  0
   -4.0134  -10.1459    6.7024 Cl  0  0  0  0  0  0  0  0  0  0  0  0
    1.2656   -7.2832    7.3620 C   0  0  0  0  0  0  0  0  0  0  0  0
    1.7461   -8.8965    7.3316 S   0  0  0  0  0  0  0  0  0  0  0  0
   -1.1652   -4.5673    6.5656 C   0  0  0  0  0  0  0  0  0  0  0  0
   -0.9890   -3.1982    6.7476 C   0  0  0  0  0  0  0  0  0  0  0  0
    0.5292   -2.9181    7.4399 S   0  0  0  0  0  0  0  0  0  0  0  0
   -1.9212   -2.1671    6.2685 C   0  0  0  0  0  0  0  0  0  0  0  0
   -1.7923   -0.7879    6.4464 C   0  0  0  0  0  0  0  0  0  0  0  0
   -2.7510   -0.0524    5.7267 C   0  0  0  0  0  0  0  0  0  0  0  0
   -2.8472    1.3552    5.6469 C   0  0  0  0  0  0  0  0  0  0  0  0
   -2.0037    2.2402    6.4710 C   0  0  0  0  0  0  0  0  0  0  0  0
   -0.8961    3.3572    5.8725 S   0  0  0  0  0  0  0  0  0  0  0  0
   -0.4366    3.9737    7.3692 C   0  0  0  0  0  0  0  0  0  0  0  0
    0.6247    5.0127    7.5745 C   0  0  0  0  0  0  0  0  0  0  0  0
    1.9746    4.3569    7.8442 C   0  0  0  0  0  0  0  0  0  0  0  0
   -1.1398    3.2979    8.3650 C   0  0  0  0  0  0  0  0  0  0  0  0
   -0.9506    3.6335   10.0818 Cl  0  0  0  0  0  0  0  0  0  0  0  0
   -2.0241    2.3323    7.8629 C   0  0  0  0  0  0  0  0  0  0  0  0
   -3.0984    1.3842    8.8821 Cl  0  0  0  0  0  0  0  0  0  0  0  0
   -3.7983    1.8792    4.7539 C   0  0  0  0  0  0  0  0  0  0  0  0
   -4.6660    1.0678    4.0177 C   0  0  0  0  0  0  0  0  0  0  0  0
   -4.5921   -0.3361    4.1195 C   0  0  0  0  0  0  0  0  0  0  0  0
   -5.4231   -1.2249    3.2841 C   0  0  0  0  0  0  0  0  0  0  0  0
   -4.8248   -2.2392    2.0798 S   0  0  0  0  0  0  0  0  0  0  0  0
   -6.3162   -2.8556    1.6073 C   0  0  0  0  0  0  0  0  0  0  0  0
   -6.4991   -3.9191    0.5681 C   0  0  0  0  0  0  0  0  0  0  0  0
   -6.3740   -5.3056    1.1902 C   0  0  0  0  0  0  0  0  0  0  0  0
   -7.3075   -2.2892    2.4088 C   0  0  0  0  0  0  0  0  0  0  0  0
   -6.8077   -1.3657    3.3432 C   0  0  0  0  0  0  0  0  0  0  0  0
   -7.8208   -0.5130    4.4984 Cl  0  0  0  0  0  0  0  0  0  0  0  0
   -9.0116   -2.7014    2.2787 Cl  0  0  0  0  0  0  0  0  0  0  0  0
   -3.6145   -0.8600    4.9808 C   0  0  0  0  0  0  0  0  0  0  0  0
   -3.2177   -2.4739    5.2299 S   0  0  0  0  0  0  0  0  0  0  0  0
   -5.4912    1.7893    3.1434 C   0  0  0  0  0  0  0  0  0  0  0  0
   -5.2801    3.1696    3.1861 C   0  0  0  0  0  0  0  0  0  0  0  0
   -4.0358    3.4803    4.2926 S   0  0  0  0  0  0  0  0  0  0  0  0
   -5.7882    4.1030    2.1566 C   0  0  0  0  0  0  0  0  0  0  0  0
   -6.0194    3.5763    0.5835 S   0  0  0  0  0  0  0  0  0  0  0  0
   -6.1391    5.0636   -0.1722 C   0  0  0  0  0  0  0  0  0  0  0  0
   -6.0100    6.0445    0.8229 C   0  0  0  0  0  0  0  0  0  0  0  0
   -5.8455    5.5133    2.1386 C   0  0  0  0  0  0  0  0  0  0  0  0
   -5.7791    6.3940    3.2498 C   0  0  0  0  0  0  0  0  0  0  0  0
   -5.9234    5.9481    4.6504 C   0  0  0  0  0  0  0  0  0  0  0  0
   -6.7313    5.0251    4.9422 O   0  0  0  0  0  0  0  0  0  0  0  0
   -5.2016    6.5761    5.6605 O   0  0  0  0  0  0  0  0  0  0  0  0
   -5.7379    7.7789    3.0106 C   0  0  0  0  0  0  0  0  0  0  0  0
   -5.8693    8.2921    1.7171 C   0  0  0  0  0  0  0  0  0  0  0  0
   -6.0609    7.4381    0.6240 C   0  0  0  0  0  0  0  0  0  0  0  0
   -6.3325    7.9769   -0.6315 O   0  0  0  0  0  0  0  0  0  0  0  0
   -6.0760    5.1752   -1.6440 C   0  0  0  0  0  0  0  0  0  0  0  0
   -5.1710    5.9718   -2.3558 C   0  0  0  0  0  0  0  0  0  0  0  0
   -4.9188    5.5066   -3.6614 C   0  0  0  0  0  0  0  0  0  0  0  0
   -3.9356    6.0139   -4.5375 C   0  0  0  0  0  0  0  0  0  0  0  0
   -3.3543    7.3635   -4.3421 C   0  0  0  0  0  0  0  0  0  0  0  0
   -1.7131    7.7518   -4.3214 S   0  0  0  0  0  0  0  0  0  0  0  0
   -1.9106    9.4148   -4.1641 C   0  0  0  0  0  0  0  0  0  0  0  0
   -0.7984   10.4225   -4.1542 C   0  0  0  0  0  0  0  0  0  0  0  0
   -0.5935   11.0173   -2.7654 C   0  0  0  0  0  0  0  0  0  0  0  0
   -3.2758    9.6946   -4.1199 C   0  0  0  0  0  0  0  0  0  0  0  0
   -3.9321   11.3244   -4.0189 Cl  0  0  0  0  0  0  0  0  0  0  0  0
   -4.0805    8.5504   -4.2163 C   0  0  0  0  0  0  0  0  0  0  0  0
   -5.8407    8.6343   -4.2702 Cl  0  0  0  0  0  0  0  0  0  0  0  0
   -3.5396    5.1608   -5.5890 C   0  0  0  0  0  0  0  0  0  0  0  0
   -4.1617    3.9284   -5.8338 C   0  0  0  0  0  0  0  0  0  0  0  0
   -5.2642    3.5150   -5.0616 C   0  0  0  0  0  0  0  0  0  0  0  0
   -5.9113    2.2046   -5.2790 C   0  0  0  0  0  0  0  0  0  0  0  0
   -5.9012    0.9296   -4.1842 S   0  0  0  0  0  0  0  0  0  0  0  0
   -6.7646   -0.1441   -5.1481 C   0  0  0  0  0  0  0  0  0  0  0  0
   -7.1855   -1.5165   -4.7247 C   0  0  0  0  0  0  0  0  0  0  0  0
   -8.5598   -1.4773   -4.0678 C   0  0  0  0  0  0  0  0  0  0  0  0
   -7.0774    0.4903   -6.3504 C   0  0  0  0  0  0  0  0  0  0  0  0
   -6.5863    1.8034   -6.4303 C   0  0  0  0  0  0  0  0  0  0  0  0
   -6.8432    2.8487   -7.8180 Cl  0  0  0  0  0  0  0  0  0  0  0  0
   -8.0081   -0.2698   -7.6368 Cl  0  0  0  0  0  0  0  0  0  0  0  0
   -5.5907    4.3191   -3.9580 C   0  0  0  0  0  0  0  0  0  0  0  0
   -6.5522    3.9034   -2.6487 S   0  0  0  0  0  0  0  0  0  0  0  0
   -3.4418    3.1045   -6.7181 C   0  0  0  0  0  0  0  0  0  0  0  0
   -2.2297    3.6617   -7.1266 C   0  0  0  0  0  0  0  0  0  0  0  0
   -2.1136    5.2186   -6.4749 S   0  0  0  0  0  0  0  0  0  0  0  0
   -1.0512    2.8434   -7.4636 C   0  0  0  0  0  0  0  0  0  0  0  0
    0.2290    3.1298   -6.9860 C   0  0  0  0  0  0  0  0  0  0  0  0
    1.0700    2.0084   -6.9566 C   0  0  0  0  0  0  0  0  0  0  0  0
    2.3310    1.9509   -6.3315 C   0  0  0  0  0  0  0  0  0  0  0  0
    2.9656    3.1510   -5.7604 C   0  0  0  0  0  0  0  0  0  0  0  0
    3.1643    3.4509   -4.1148 S   0  0  0  0  0  0  0  0  0  0  0  0
    3.8292    4.9870   -4.2980 C   0  0  0  0  0  0  0  0  0  0  0  0
    4.2944    5.8548   -3.1714 C   0  0  0  0  0  0  0  0  0  0  0  0
    5.7388    5.5401   -2.8063 C   0  0  0  0  0  0  0  0  0  0  0  0
    3.9220    5.2759   -5.6599 C   0  0  0  0  0  0  0  0  0  0  0  0
    4.6109    6.7627   -6.2961 Cl  0  0  0  0  0  0  0  0  0  0  0  0
    3.4198    4.2526   -6.4767 C   0  0  0  0  0  0  0  0  0  0  0  0
    3.3984    4.3340   -8.2329 Cl  0  0  0  0  0  0  0  0  0  0  0  0
    2.9117    0.6808   -6.1860 C   0  0  0  0  0  0  0  0  0  0  0  0
    2.3166   -0.4828   -6.6883 C   0  0  0  0  0  0  0  0  0  0  0  0
    1.0872   -0.4143   -7.3721 C   0  0  0  0  0  0  0  0  0  0  0  0
    0.4650   -1.6133   -7.9534 C   0  0  0  0  0  0  0  0  0  0  0  0
    0.9884   -2.3439   -9.3733 S   0  0  0  0  0  0  0  0  0  0  0  0
   -0.1104   -3.6158   -9.3321 C   0  0  0  0  0  0  0  0  0  0  0  0
   -0.2391   -4.6546  -10.4067 C   0  0  0  0  0  0  0  0  0  0  0  0
   -1.2366   -4.2078  -11.4720 C   0  0  0  0  0  0  0  0  0  0  0  0
   -0.9140   -3.4774   -8.1998 C   0  0  0  0  0  0  0  0  0  0  0  0
   -0.5815   -2.3579   -7.4185 C   0  0  0  0  0  0  0  0  0  0  0  0
   -1.3936   -1.9469   -5.9077 Cl  0  0  0  0  0  0  0  0  0  0  0  0
   -2.2043   -4.5939   -7.7812 Cl  0  0  0  0  0  0  0  0  0  0  0  0
    0.4733    0.8474   -7.4599 C   0  0  0  0  0  0  0  0  0  0  0  0
   -1.1083    1.2071   -7.9087 S   0  0  0  0  0  0  0  0  0  0  0  0
    3.0023   -1.6541   -6.3252 C   0  0  0  0  0  0  0  0  0  0  0  0
    4.1230   -1.4020   -5.5323 C   0  0  0  0  0  0  0  0  0  0  0  0
    4.2836    0.2664   -5.3081 S   0  0  0  0  0  0  0  0  0  0  0  0
    4.9044   -2.4093   -4.8060 C   0  0  0  0  0  0  0  0  0  0  0  0
    5.9043   -2.1268   -3.8742 C   0  0  0  0  0  0  0  0  0  0  0  0
    6.3672   -3.2656   -3.1982 C   0  0  0  0  0  0  0  0  0  0  0  0
    7.3284   -3.2907   -2.1647 C   0  0  0  0  0  0  0  0  0  0  0  0
    7.9273   -2.0546   -1.6252 C   0  0  0  0  0  0  0  0  0  0  0  0
    9.5671   -1.6800   -1.6565 S   0  0  0  0  0  0  0  0  0  0  0  0
    9.4326   -0.2051   -0.8573 C   0  0  0  0  0  0  0  0  0  0  0  0
   10.5790    0.7160   -0.5566 C   0  0  0  0  0  0  0  0  0  0  0  0
   10.6649    1.8340   -1.5893 C   0  0  0  0  0  0  0  0  0  0  0  0
    8.0874    0.0197   -0.5632 C   0  0  0  0  0  0  0  0  0  0  0  0
    7.5026    1.4556    0.2691 Cl  0  0  0  0  0  0  0  0  0  0  0  0
    7.2453   -1.0211   -0.9843 C   0  0  0  0  0  0  0  0  0  0  0  0
    5.5148   -1.0428   -0.6705 Cl  0  0  0  0  0  0  0  0  0  0  0  0
    7.6525   -4.5533   -1.6334 C   0  0  0  0  0  0  0  0  0  0  0  0
    7.0378   -5.7321   -2.0632 C   0  0  0  0  0  0  0  0  0  0  0  0
    6.0421   -5.7017   -3.0633 C   0  0  0  0  0  0  0  0  0  0  0  0
    5.2982   -6.9098   -3.4672 C   0  0  0  0  0  0  0  0  0  0  0  0
    5.1985   -7.4967   -5.0414 S   0  0  0  0  0  0  0  0  0  0  0  0
    4.1228   -8.7446   -4.7035 C   0  0  0  0  0  0  0  0  0  0  0  0
    3.4940   -9.6233   -5.7436 C   0  0  0  0  0  0  0  0  0  0  0  0
    2.3153   -8.9133   -6.3999 C   0  0  0  0  0  0  0  0  0  0  0  0
    3.8082   -8.7034   -3.3465 C   0  0  0  0  0  0  0  0  0  0  0  0
    4.4669   -7.6780   -2.6526 C   0  0  0  0  0  0  0  0  0  0  0  0
    4.1865   -7.3377   -0.9473 Cl  0  0  0  0  0  0  0  0  0  0  0  0
    2.6572   -9.7949   -2.5832 Cl  0  0  0  0  0  0  0  0  0  0  0  0
    5.7474   -4.4469   -3.6256 C   0  0  0  0  0  0  0  0  0  0  0  0
    4.6011   -4.0703   -4.8032 S   0  0  0  0  0  0  0  0  0  0  0  0
    7.5212   -6.8748   -1.4002 C   0  0  0  0  0  0  0  0  0  0  0  0
    8.4818   -6.5856   -0.4379 C   0  0  0  0  0  0  0  0  0  0  0  0
    8.7545   -4.9216   -0.4134 S   0  0  0  0  0  0  0  0  0  0  0  0
    4.0271   -9.3906    8.1537 H   0  0  0  0  0  0  0  0  0  0  0  0
    4.3610   -6.8484    8.6102 H   0  0  0  0  0  0  0  0  0  0  0  0
    6.6370   -1.2770    9.5075 H   0  0  0  0  0  0  0  0  0  0  0  0
    6.1987   -1.0965    7.7785 H   0  0  0  0  0  0  0  0  0  0  0  0
    7.9470   -3.3289    8.9946 H   0  0  0  0  0  0  0  0  0  0  0  0
    7.4318   -3.2493    7.2579 H   0  0  0  0  0  0  0  0  0  0  0  0
    8.4949   -1.9664    7.9492 H   0  0  0  0  0  0  0  0  0  0  0  0
   -4.1049   -9.8911    3.8175 H   0  0  0  0  0  0  0  0  0  0  0  0
   -3.1836   -8.7950    2.7303 H   0  0  0  0  0  0  0  0  0  0  0  0
   -5.5646   -8.0912    2.8933 H   0  0  0  0  0  0  0  0  0  0  0  0
   -4.4811   -6.8243    3.5972 H   0  0  0  0  0  0  0  0  0  0  0  0
   -5.4176   -7.9333    4.6824 H   0  0  0  0  0  0  0  0  0  0  0  0
   -2.0612   -4.9964    6.1366 H   0  0  0  0  0  0  0  0  0  0  0  0
   -1.0078   -0.3345    7.0395 H   0  0  0  0  0  0  0  0  0  0  0  0
    0.6998    5.6480    6.6675 H   0  0  0  0  0  0  0  0  0  0  0  0
    0.3515    5.6697    8.4275 H   0  0  0  0  0  0  0  0  0  0  0  0
    2.2777    3.7305    6.9783 H   0  0  0  0  0  0  0  0  0  0  0  0
    1.9211    3.7222    8.7544 H   0  0  0  0  0  0  0  0  0  0  0  0
    2.7431    5.1438    8.0068 H   0  0  0  0  0  0  0  0  0  0  0  0
   -7.4928   -3.8138    0.0838 H   0  0  0  0  0  0  0  0  0  0  0  0
   -5.7244   -3.8015   -0.2195 H   0  0  0  0  0  0  0  0  0  0  0  0
   -6.5529   -6.0804    0.4143 H   0  0  0  0  0  0  0  0  0  0  0  0
   -7.1264   -5.4377    1.9978 H   0  0  0  0  0  0  0  0  0  0  0  0
   -5.3560   -5.4458    1.6088 H   0  0  0  0  0  0  0  0  0  0  0  0
   -6.1810    1.3227    2.4523 H   0  0  0  0  0  0  0  0  0  0  0  0
   -5.3037    6.2931    6.6276 H   0  0  0  0  0  0  0  0  0  0  0  0
   -5.6775    8.4729    3.8411 H   0  0  0  0  0  0  0  0  0  0  0  0
   -5.8886    9.3681    1.5751 H   0  0  0  0  0  0  0  0  0  0  0  0
   -6.3620    8.9785   -0.7878 H   0  0  0  0  0  0  0  0  0  0  0  0
   -4.5868    6.7613   -1.9003 H   0  0  0  0  0  0  0  0  0  0  0  0
   -1.0338   11.2329   -4.8759 H   0  0  0  0  0  0  0  0  0  0  0  0
    0.1429    9.9366   -4.4847 H   0  0  0  0  0  0  0  0  0  0  0  0
   -1.5290   11.4840   -2.3938 H   0  0  0  0  0  0  0  0  0  0  0  0
    0.1951   11.8026   -2.8179 H   0  0  0  0  0  0  0  0  0  0  0  0
   -0.2688   10.2294   -2.0545 H   0  0  0  0  0  0  0  0  0  0  0  0
   -7.2089   -2.1949   -5.6067 H   0  0  0  0  0  0  0  0  0  0  0  0
   -6.4451   -1.9240   -4.0021 H   0  0  0  0  0  0  0  0  0  0  0  0
   -9.3187   -1.0978   -4.7855 H   0  0  0  0  0  0  0  0  0  0  0  0
   -8.8535   -2.5019   -3.7553 H   0  0  0  0  0  0  0  0  0  0  0  0
   -8.5347   -0.8271   -3.1682 H   0  0  0  0  0  0  0  0  0  0  0  0
   -3.7046    2.0686   -6.9049 H   0  0  0  0  0  0  0  0  0  0  0  0
    0.4961    4.0787   -6.5347 H   0  0  0  0  0  0  0  0  0  0  0  0
    3.6436    5.6877   -2.2880 H   0  0  0  0  0  0  0  0  0  0  0  0
    4.2023    6.9265   -3.4521 H   0  0  0  0  0  0  0  0  0  0  0  0
    5.8294    4.4876   -2.4643 H   0  0  0  0  0  0  0  0  0  0  0  0
    6.3992    5.6978   -3.6852 H   0  0  0  0  0  0  0  0  0  0  0  0
    6.0691    6.2138   -1.9882 H   0  0  0  0  0  0  0  0  0  0  0  0
    0.7545   -4.8201  -10.8785 H   0  0  0  0  0  0  0  0  0  0  0  0
   -0.5718   -5.6207   -9.9724 H   0  0  0  0  0  0  0  0  0  0  0  0
   -0.9334   -3.2294  -11.9014 H   0  0  0  0  0  0  0  0  0  0  0  0
   -1.2636   -4.9587  -12.2880 H   0  0  0  0  0  0  0  0  0  0  0  0
   -2.2525   -4.1234  -11.0341 H   0  0  0  0  0  0  0  0  0  0  0  0
    2.6513   -2.6511   -6.5699 H   0  0  0  0  0  0  0  0  0  0  0  0
    6.2566   -1.1239   -3.6686 H   0  0  0  0  0  0  0  0  0  0  0  0
   10.4514    1.1546    0.4560 H   0  0  0  0  0  0  0  0  0  0  0  0
   11.5301    0.1418   -0.5611 H   0  0  0  0  0  0  0  0  0  0  0  0
   10.8353    1.4105   -2.6024 H   0  0  0  0  0  0  0  0  0  0  0  0
    9.7298    2.4345   -1.5928 H   0  0  0  0  0  0  0  0  0  0  0  0
   11.5114    2.5091   -1.3356 H   0  0  0  0  0  0  0  0  0  0  0  0
    3.1476  -10.5731   -5.2849 H   0  0  0  0  0  0  0  0  0  0  0  0
    4.2492   -9.8765   -6.5159 H   0  0  0  0  0  0  0  0  0  0  0  0
    1.5601   -8.6306   -5.6361 H   0  0  0  0  0  0  0  0  0  0  0  0
    1.8352   -9.5923   -7.1384 H   0  0  0  0  0  0  0  0  0  0  0  0
    2.6637   -8.0005   -6.9272 H   0  0  0  0  0  0  0  0  0  0  0  0
    7.1850   -7.8843   -1.6063 H   0  0  0  0  0  0  0  0  0  0  0  0
    8.9747   -7.3119    0.1928 H   0  0  0  0  0  0  0  0  0  0  0  0
  1  2  2  0
  2  3  1  0
  3  4  2  0
  4  5  1  0
  5  6  1  0
  6  7  1  0
  7  8  1  0
  8  9  1  0
  7 10  2  0
 10 11  1  0
 10 12  1  0
 12 13  1  0
  4 14  1  0
 14 15  2  0
 15 16  1  0
 16 17  1  0
 17 18  1  0
 18 19  1  0
 19 20  1  0
 20 21  1  0
 19 22  2  0
 22 23  1  0
 23 24  1  0
 22 25  1  0
 16 26  2  0
 26 27  1  0
 15 28  1  0
 28 29  2  0
 29 30  1  0
 29 31  1  0
 31 32  2  0
 32 33  1  0
 33 34  2  0
 34 35  1  0
 35 36  1  0
 36 37  1  0
 37 38  1  0
 38 39  1  0
 37 40  2  0
 40 41  1  0
 40 42  1  0
 42 43  1  0
 34 44  1  0
 44 45  2  0
 45 46  1  0
 46 47  1  0
 47 48  1  0
 48 49  1  0
 49 50  1  0
 50 51  1  0
 49 52  2  0
 52 53  1  0
 53 54  1  0
 52 55  1  0
 46 56  2  0
 56 57  1  0
 45 58  1  0
 58 59  2  0
 59 60  1  0
 59 61  1  0
 61 62  1  0
 62 63  1  0
 63 64  2  0
 64 65  1  0
 65 66  1  0
 66 67  1  0
 67 68  2  0
 67 69  1  0
 66 70  2  0
 70 71  1  0
 71 72  2  0
 72 73  1  0
 63 74  1  0
 74 75  2  0
 75 76  1  0
 76 77  2  0
 77 78  1  0
 78 79  1  0
 79 80  1  0
 80 81  1  0
 81 82  1  0
 80 83  2  0
 83 84  1  0
 83 85  1  0
 85 86  1  0
 77 87  1  0
 87 88  2  0
 88 89  1  0
 89 90  1  0
 90 91  1  0
 91 92  1  0
 92 93  1  0
 93 94  1  0
 92 95  2  0
 95 96  1  0
 96 97  1  0
 95 98  1  0
 89 99  2  0
 99100  1  0
 88101  1  0
101102  2  0
102103  1  0
102104  1  0
104105  2  0
105106  1  0
106107  2  0
107108  1  0
108109  1  0
109110  1  0
110111  1  0
111112  1  0
110113  2  0
113114  1  0
113115  1  0
115116  1  0
107117  1  0
117118  2  0
118119  1  0
119120  1  0
120121  1  0
121122  1  0
122123  1  0
123124  1  0
122125  2  0
125126  1  0
126127  1  0
125128  1  0
119129  2  0
129130  1  0
118131  1  0
131132  2  0
132133  1  0
132134  1  0
134135  2  0
135136  1  0
136137  2  0
137138  1  0
138139  1  0
139140  1  0
140141  1  0
141142  1  0
140143  2  0
143144  1  0
143145  1  0
145146  1  0
137147  1  0
147148  2  0
148149  1  0
149150  1  0
150151  1  0
151152  1  0
152153  1  0
153154  1  0
152155  2  0
155156  1  0
156157  1  0
155158  1  0
149159  2  0
159160  1  0
148161  1  0
161162  2  0
162163  1  0
 27  1  1  0
 57 31  1  0
 65 61  2  0
100 74  1  0
130104  1  0
160134  1  0
 26  3  1  0
 56 33  1  0
 72 64  1  0
 99 76  1  0
129106  1  0
159136  1  0
 12  5  2  0
 30 14  1  0
 42 35  2  0
 60 44  1  0
 85 78  2  0
103 87  1  0
115108  2  0
133117  1  0
145138  2  0
163147  1  0
 23 17  2  0
 53 47  2  0
 96 90  2  0
126120  2  0
156150  2  0
  1164  1  0
  2165  1  0
  8166  1  0
  8167  1  0
  9168  1  0
  9169  1  0
  9170  1  0
 20171  1  0
 20172  1  0
 21173  1  0
 21174  1  0
 21175  1  0
 28176  1  0
 32177  1  0
 38178  1  0
 38179  1  0
 39180  1  0
 39181  1  0
 39182  1  0
 50183  1  0
 50184  1  0
 51185  1  0
 51186  1  0
 51187  1  0
 58188  1  0
 69189  1  0
 70190  1  0
 71191  1  0
 73192  1  0
 75193  1  0
 81194  1  0
 81195  1  0
 82196  1  0
 82197  1  0
 82198  1  0
 93199  1  0
 93200  1  0
 94201  1  0
 94202  1  0
 94203  1  0
101204  1  0
105205  1  0
111206  1  0
111207  1  0
112208  1  0
112209  1  0
112210  1  0
123211  1  0
123212  1  0
124213  1  0
124214  1  0
124215  1  0
131216  1  0
135217  1  0
141218  1  0
141219  1  0
142220  1  0
142221  1  0
142222  1  0
153223  1  0
153224  1  0
154225  1  0
154226  1  0
154227  1  0
161228  1  0
162229  1  0
M  END

