
     RDKit          3D

196221  0  0  0  0  0  0  0  0999 V2000
    6.8132   -5.5144   11.8095 C   0  0  0  0  0  0  0  0  0  0  0  0
    7.6985   -4.8830   10.9388 C   0  0  0  0  0  0  0  0  0  0  0  0
    7.0851   -4.4316    9.7579 C   0  0  0  0  0  0  0  0  0  0  0  0
    7.7155   -3.7634    8.6863 C   0  0  0  0  0  0  0  0  0  0  0  0
    9.1666   -3.5092    8.6625 C   0  0  0  0  0  0  0  0  0  0  0  0
    9.8757   -1.9848    8.5966 S   0  0  0  0  0  0  0  0  0  0  0  0
   11.4663   -2.5311    8.5352 C   0  0  0  0  0  0  0  0  0  0  0  0
   12.6634   -1.6435    8.3673 C   0  0  0  0  0  0  0  0  0  0  0  0
   12.9730   -1.4323    6.8887 C   0  0  0  0  0  0  0  0  0  0  0  0
   11.4598   -3.9237    8.5323 C   0  0  0  0  0  0  0  0  0  0  0  0
   12.9183   -4.9000    8.4153 Cl  0  0  0  0  0  0  0  0  0  0  0  0
   10.1712   -4.4735    8.6090 C   0  0  0  0  0  0  0  0  0  0  0  0
    9.8544   -6.2031    8.5611 Cl  0  0  0  0  0  0  0  0  0  0  0  0
    6.8939   -3.3605    7.6190 C   0  0  0  0  0  0  0  0  0  0  0  0
    5.5203   -3.6239    7.5878 C   0  0  0  0  0  0  0  0  0  0  0  0
    4.8927   -4.3106    8.6468 C   0  0  0  0  0  0  0  0  0  0  0  0
    3.4496   -4.6045    8.6376 C   0  0  0  0  0  0  0  0  0  0  0  0
    2.3267   -3.9232    9.6868 S   0  0  0  0  0  0  0  0  0  0  0  0
    0.9743   -4.6638    9.0104 C   0  0  0  0  0  0  0  0  0  0  0  0
   -0.4379   -4.4118    9.4389 C   0  0  0  0  0  0  0  0  0  0  0  0
   -1.0893   -3.3471    8.5593 C   0  0  0  0  0  0  0  0  0  0  0  0
    1.3894   -5.4490    7.9354 C   0  0  0  0  0  0  0  0  0  0  0  0
    2.7780   -5.4175    7.7282 C   0  0  0  0  0  0  0  0  0  0  0  0
    3.5826   -6.3303    6.4594 Cl  0  0  0  0  0  0  0  0  0  0  0  0
    0.2845   -6.3732    6.9254 Cl  0  0  0  0  0  0  0  0  0  0  0  0
    5.7092   -4.6885    9.7258 C   0  0  0  0  0  0  0  0  0  0  0  0
    5.2693   -5.4983   11.1318 S   0  0  0  0  0  0  0  0  0  0  0  0
    4.8914   -3.1288    6.4361 C   0  0  0  0  0  0  0  0  0  0  0  0
    5.7729   -2.4924    5.5642 C   0  0  0  0  0  0  0  0  0  0  0  0
    7.3307   -2.5355    6.2171 S   0  0  0  0  0  0  0  0  0  0  0  0
    5.3932   -1.8907    4.2807 C   0  0  0  0  0  0  0  0  0  0  0  0
    6.2124   -1.1245    3.4510 C   0  0  0  0  0  0  0  0  0  0  0  0
    5.5530   -0.6898    2.2872 C   0  0  0  0  0  0  0  0  0  0  0  0
    6.0986    0.1056    1.2538 C   0  0  0  0  0  0  0  0  0  0  0  0
    7.4975    0.5627    1.2822 C   0  0  0  0  0  0  0  0  0  0  0  0
    8.8369   -0.4537    1.2186 S   0  0  0  0  0  0  0  0  0  0  0  0
    9.9940    0.7666    1.3202 C   0  0  0  0  0  0  0  0  0  0  0  0
   11.4735    0.5302    1.3727 C   0  0  0  0  0  0  0  0  0  0  0  0
   11.9252    0.2489    2.8020 C   0  0  0  0  0  0  0  0  0  0  0  0
    9.3385    1.9931    1.4322 C   0  0  0  0  0  0  0  0  0  0  0  0
   10.1762    3.5260    1.6250 Cl  0  0  0  0  0  0  0  0  0  0  0  0
    7.9379    1.8793    1.4030 C   0  0  0  0  0  0  0  0  0  0  0  0
    6.8522    3.2514    1.5722 Cl  0  0  0  0  0  0  0  0  0  0  0  0
    5.2447    0.4292    0.1808 C   0  0  0  0  0  0  0  0  0  0  0  0
    3.9194   -0.0206    0.1266 C   0  0  0  0  0  0  0  0  0  0  0  0
    3.3712   -0.7971    1.1612 C   0  0  0  0  0  0  0  0  0  0  0  0
    1.9671   -1.2514    1.1294 C   0  0  0  0  0  0  0  0  0  0  0  0
    1.3165   -2.2709   -0.0393 S   0  0  0  0  0  0  0  0  0  0  0  0
   -0.2770   -2.1642    0.4933 C   0  0  0  0  0  0  0  0  0  0  0  0
   -1.4425   -2.8404   -0.1664 C   0  0  0  0  0  0  0  0  0  0  0  0
   -1.8793   -4.0740    0.6149 C   0  0  0  0  0  0  0  0  0  0  0  0
   -0.3188   -1.3281    1.6077 C   0  0  0  0  0  0  0  0  0  0  0  0
    0.9400   -0.8128    1.9624 C   0  0  0  0  0  0  0  0  0  0  0  0
    1.1741    0.3392    3.2711 Cl  0  0  0  0  0  0  0  0  0  0  0  0
   -1.8031   -0.9163    2.4537 Cl  0  0  0  0  0  0  0  0  0  0  0  0
    4.2204   -1.1120    2.2285 C   0  0  0  0  0  0  0  0  0  0  0  0
    3.8622   -2.0261    3.5885 S   0  0  0  0  0  0  0  0  0  0  0  0
    3.2434    0.3952   -1.0216 C   0  0  0  0  0  0  0  0  0  0  0  0
    4.0346    1.1530   -1.8748 C   0  0  0  0  0  0  0  0  0  0  0  0
    5.5782    1.3415   -1.2080 S   0  0  0  0  0  0  0  0  0  0  0  0
    3.5161    1.7277   -3.1140 C   0  0  0  0  0  0  0  0  0  0  0  0
    2.9228    2.9910   -3.1383 C   0  0  0  0  0  0  0  0  0  0  0  0
    1.8325    3.0799   -4.0241 C   0  0  0  0  0  0  0  0  0  0  0  0
    0.8917    4.1287   -4.0781 C   0  0  0  0  0  0  0  0  0  0  0  0
    1.0488    5.3735   -3.3051 C   0  0  0  0  0  0  0  0  0  0  0  0
    1.0165    5.4858   -1.6253 S   0  0  0  0  0  0  0  0  0  0  0  0
    1.1177    7.1632   -1.5600 C   0  0  0  0  0  0  0  0  0  0  0  0
    1.1963    7.9608   -0.2932 C   0  0  0  0  0  0  0  0  0  0  0  0
    2.6487    8.1881    0.1094 C   0  0  0  0  0  0  0  0  0  0  0  0
    1.1891    7.6595   -2.8604 C   0  0  0  0  0  0  0  0  0  0  0  0
    1.3321    9.3721   -3.2392 Cl  0  0  0  0  0  0  0  0  0  0  0  0
    1.1337    6.6571   -3.8396 C   0  0  0  0  0  0  0  0  0  0  0  0
    1.2084    6.9829   -5.5680 Cl  0  0  0  0  0  0  0  0  0  0  0  0
   -0.2878    3.8868   -4.8012 C   0  0  0  0  0  0  0  0  0  0  0  0
   -0.5181    2.6932   -5.4947 C   0  0  0  0  0  0  0  0  0  0  0  0
    0.4475    1.6689   -5.4929 C   0  0  0  0  0  0  0  0  0  0  0  0
    0.1590    0.3285   -6.0401 C   0  0  0  0  0  0  0  0  0  0  0  0
    0.9602   -0.3670   -7.3432 S   0  0  0  0  0  0  0  0  0  0  0  0
    0.1607   -1.8493   -7.2702 C   0  0  0  0  0  0  0  0  0  0  0  0
    0.3978   -2.9947   -8.2097 C   0  0  0  0  0  0  0  0  0  0  0  0
   -0.6658   -3.0348   -9.3021 C   0  0  0  0  0  0  0  0  0  0  0  0
   -0.7464   -1.8160   -6.2130 C   0  0  0  0  0  0  0  0  0  0  0  0
   -0.7400   -0.5971   -5.5168 C   0  0  0  0  0  0  0  0  0  0  0  0
   -1.7306   -0.2974   -4.0906 Cl  0  0  0  0  0  0  0  0  0  0  0  0
   -1.7812   -3.1689   -5.7769 Cl  0  0  0  0  0  0  0  0  0  0  0  0
    1.6119    1.8980   -4.7400 C   0  0  0  0  0  0  0  0  0  0  0  0
    2.7254    0.7507   -4.2392 S   0  0  0  0  0  0  0  0  0  0  0  0
   -1.8336    2.5755   -5.9692 C   0  0  0  0  0  0  0  0  0  0  0  0
   -2.6527    3.6307   -5.5765 C   0  0  0  0  0  0  0  0  0  0  0  0
   -1.7319    4.7430   -4.7024 S   0  0  0  0  0  0  0  0  0  0  0  0
   -4.1028    3.4900   -5.4373 C   0  0  0  0  0  0  0  0  0  0  0  0
   -4.7444    3.4940   -4.2013 C   0  0  0  0  0  0  0  0  0  0  0  0
   -6.0369    2.9527   -4.2502 C   0  0  0  0  0  0  0  0  0  0  0  0
   -6.8628    2.6831   -3.1402 C   0  0  0  0  0  0  0  0  0  0  0  0
   -6.4576    3.0488   -1.7679 C   0  0  0  0  0  0  0  0  0  0  0  0
   -6.1560    4.6215   -1.2466 S   0  0  0  0  0  0  0  0  0  0  0  0
   -5.6793    4.2100    0.3125 C   0  0  0  0  0  0  0  0  0  0  0  0
   -5.1878    5.1797    1.3431 C   0  0  0  0  0  0  0  0  0  0  0  0
   -3.6639    5.2483    1.3438 C   0  0  0  0  0  0  0  0  0  0  0  0
   -5.7259    2.8225    0.4389 C   0  0  0  0  0  0  0  0  0  0  0  0
   -5.2479    1.9634    1.8997 Cl  0  0  0  0  0  0  0  0  0  0  0  0
   -6.1633    2.1715   -0.7248 C   0  0  0  0  0  0  0  0  0  0  0  0
   -6.2329    0.4229   -0.8691 Cl  0  0  0  0  0  0  0  0  0  0  0  0
   -8.0620    1.9961   -3.3976 C   0  0  0  0  0  0  0  0  0  0  0  0
   -8.4443    1.5956   -4.6864 C   0  0  0  0  0  0  0  0  0  0  0  0
   -7.6238    1.8835   -5.7963 C   0  0  0  0  0  0  0  0  0  0  0  0
   -8.0050    1.5198   -7.1728 C   0  0  0  0  0  0  0  0  0  0  0  0
   -8.2588   -0.0476   -7.7332 S   0  0  0  0  0  0  0  0  0  0  0  0
   -8.6458    0.3888   -9.3117 C   0  0  0  0  0  0  0  0  0  0  0  0
   -9.0930   -0.5706  -10.3751 C   0  0  0  0  0  0  0  0  0  0  0  0
  -10.6093   -0.7282  -10.3533 C   0  0  0  0  0  0  0  0  0  0  0  0
   -8.6004    1.7778   -9.4160 C   0  0  0  0  0  0  0  0  0  0  0  0
   -8.2338    2.4109   -8.2192 C   0  0  0  0  0  0  0  0  0  0  0  0
   -8.1508    4.1592   -8.0371 Cl  0  0  0  0  0  0  0  0  0  0  0  0
   -8.9878    2.6543  -10.8889 Cl  0  0  0  0  0  0  0  0  0  0  0  0
   -6.4130    2.5466   -5.5344 C   0  0  0  0  0  0  0  0  0  0  0  0
   -5.1275    2.8080   -6.5913 S   0  0  0  0  0  0  0  0  0  0  0  0
   -9.6557    0.8839   -4.7060 C   0  0  0  0  0  0  0  0  0  0  0  0
  -10.2082    0.7397   -3.4364 C   0  0  0  0  0  0  0  0  0  0  0  0
   -9.2171    1.4786   -2.2944 S   0  0  0  0  0  0  0  0  0  0  0  0
  -11.3144   -0.1494   -3.0910 C   0  0  0  0  0  0  0  0  0  0  0  0
  -12.8885    0.3415   -2.6944 S   0  0  0  0  0  0  0  0  0  0  0  0
  -13.4290   -1.1041   -1.9829 C   0  0  0  0  0  0  0  0  0  0  0  0
  -12.3397   -1.9569   -2.0246 C   0  0  0  0  0  0  0  0  0  0  0  0
  -11.1947   -1.4477   -2.6214 C   0  0  0  0  0  0  0  0  0  0  0  0
  -10.1243   -2.3312   -2.5396 C   0  0  0  0  0  0  0  0  0  0  0  0
  -10.4604   -3.4697   -1.8731 C   0  0  0  0  0  0  0  0  0  0  0  0
  -12.0690   -3.4902   -1.3437 S   0  0  0  0  0  0  0  0  0  0  0  0
   -9.1396   -4.4779   -1.7032 S   0  0  0  0  0  0  0  0  0  0  0  0
   -8.1020   -3.4495   -2.5880 C   0  0  0  0  0  0  0  0  0  0  0  0
   -8.7962   -2.2847   -2.9591 C   0  0  0  0  0  0  0  0  0  0  0  0
   -6.6494   -3.6313   -2.7665 C   0  0  0  0  0  0  0  0  0  0  0  0
   -5.5449   -2.3461   -2.8703 S   0  0  0  0  0  0  0  0  0  0  0  0
   -4.1035   -3.2198   -2.7973 C   0  0  0  0  0  0  0  0  0  0  0  0
   -4.4911   -4.5411   -2.6932 C   0  0  0  0  0  0  0  0  0  0  0  0
   -5.8669   -4.7883   -2.7008 C   0  0  0  0  0  0  0  0  0  0  0  0
   -6.1289   -6.1629   -2.6908 C   0  0  0  0  0  0  0  0  0  0  0  0
   -4.9789   -6.8986   -2.6033 C   0  0  0  0  0  0  0  0  0  0  0  0
   -3.5718   -5.9648   -2.6106 S   0  0  0  0  0  0  0  0  0  0  0  0
   -5.2803   -8.5411   -2.7055 S   0  0  0  0  0  0  0  0  0  0  0  0
   -6.9585   -8.3149   -2.8787 C   0  0  0  0  0  0  0  0  0  0  0  0
   -7.2670   -6.9476   -2.8794 C   0  0  0  0  0  0  0  0  0  0  0  0
    7.0767   -5.9353   12.7718 H   0  0  0  0  0  0  0  0  0  0  0  0
    8.7500   -4.7572   11.1633 H   0  0  0  0  0  0  0  0  0  0  0  0
   12.4622   -0.6604    8.8458 H   0  0  0  0  0  0  0  0  0  0  0  0
   13.5448   -2.0946    8.8700 H   0  0  0  0  0  0  0  0  0  0  0  0
   12.1053   -0.9647    6.3742 H   0  0  0  0  0  0  0  0  0  0  0  0
   13.2078   -2.4022    6.4027 H   0  0  0  0  0  0  0  0  0  0  0  0
   13.8491   -0.7611    6.7836 H   0  0  0  0  0  0  0  0  0  0  0  0
   -1.0262   -5.3532    9.3797 H   0  0  0  0  0  0  0  0  0  0  0  0
   -0.4494   -4.0664   10.4945 H   0  0  0  0  0  0  0  0  0  0  0  0
   -0.4880   -2.4124    8.5774 H   0  0  0  0  0  0  0  0  0  0  0  0
   -1.1713   -3.7083    7.5118 H   0  0  0  0  0  0  0  0  0  0  0  0
   -2.1066   -3.1187    8.9381 H   0  0  0  0  0  0  0  0  0  0  0  0
    3.8301   -3.2232    6.2434 H   0  0  0  0  0  0  0  0  0  0  0  0
    7.2397   -0.8854    3.6895 H   0  0  0  0  0  0  0  0  0  0  0  0
   11.7304   -0.3348    0.7260 H   0  0  0  0  0  0  0  0  0  0  0  0
   12.0164    1.4166    0.9842 H   0  0  0  0  0  0  0  0  0  0  0  0
   13.0134    0.0354    2.8137 H   0  0  0  0  0  0  0  0  0  0  0  0
   11.3855   -0.6305    3.2142 H   0  0  0  0  0  0  0  0  0  0  0  0
   11.7310    1.1318    3.4490 H   0  0  0  0  0  0  0  0  0  0  0  0
   -2.2913   -2.1289   -0.2472 H   0  0  0  0  0  0  0  0  0  0  0  0
   -1.1564   -3.1454   -1.1960 H   0  0  0  0  0  0  0  0  0  0  0  0
   -2.7074   -4.5788    0.0739 H   0  0  0  0  0  0  0  0  0  0  0  0
   -2.2438   -3.7820    1.6219 H   0  0  0  0  0  0  0  0  0  0  0  0
   -1.0361   -4.7865    0.7226 H   0  0  0  0  0  0  0  0  0  0  0  0
    2.2039    0.1767   -1.2276 H   0  0  0  0  0  0  0  0  0  0  0  0
    3.1642    3.7559   -2.4105 H   0  0  0  0  0  0  0  0  0  0  0  0
    0.6957    8.9406   -0.4317 H   0  0  0  0  0  0  0  0  0  0  0  0
    0.6698    7.4169    0.5204 H   0  0  0  0  0  0  0  0  0  0  0  0
    3.1856    8.7482   -0.6886 H   0  0  0  0  0  0  0  0  0  0  0  0
    3.1600    7.2154    0.2793 H   0  0  0  0  0  0  0  0  0  0  0  0
    2.6877    8.7832    1.0456 H   0  0  0  0  0  0  0  0  0  0  0  0
    0.3901   -3.9505   -7.6468 H   0  0  0  0  0  0  0  0  0  0  0  0
    1.3967   -2.8867   -8.6812 H   0  0  0  0  0  0  0  0  0  0  0  0
   -1.6749   -3.1755   -8.8600 H   0  0  0  0  0  0  0  0  0  0  0  0
   -0.4607   -3.8829   -9.9897 H   0  0  0  0  0  0  0  0  0  0  0  0
   -0.6517   -2.0894   -9.8869 H   0  0  0  0  0  0  0  0  0  0  0  0
   -2.2203    1.6812   -6.4430 H   0  0  0  0  0  0  0  0  0  0  0  0
   -4.2449    3.7718   -3.2816 H   0  0  0  0  0  0  0  0  0  0  0  0
   -5.5446    4.8713    2.3508 H   0  0  0  0  0  0  0  0  0  0  0  0
   -5.5994    6.1885    1.1287 H   0  0  0  0  0  0  0  0  0  0  0  0
   -3.2918    5.5818    0.3521 H   0  0  0  0  0  0  0  0  0  0  0  0
   -3.3268    5.9694    2.1170 H   0  0  0  0  0  0  0  0  0  0  0  0
   -3.2319    4.2545    1.5804 H   0  0  0  0  0  0  0  0  0  0  0  0
   -8.6184   -1.5613  -10.2051 H   0  0  0  0  0  0  0  0  0  0  0  0
   -8.7731   -0.2068  -11.3734 H   0  0  0  0  0  0  0  0  0  0  0  0
  -10.9204   -1.4676  -11.1203 H   0  0  0  0  0  0  0  0  0  0  0  0
  -11.0970    0.2447  -10.5799 H   0  0  0  0  0  0  0  0  0  0  0  0
  -10.9485   -1.0820   -9.3557 H   0  0  0  0  0  0  0  0  0  0  0  0
  -10.0956    0.4513   -5.5938 H   0  0  0  0  0  0  0  0  0  0  0  0
  -14.3891   -1.2912   -1.5215 H   0  0  0  0  0  0  0  0  0  0  0  0
   -8.3536   -1.4506   -3.4847 H   0  0  0  0  0  0  0  0  0  0  0  0
   -3.0959   -2.8309   -2.8308 H   0  0  0  0  0  0  0  0  0  0  0  0
   -7.6757   -9.1117   -3.0270 H   0  0  0  0  0  0  0  0  0  0  0  0
   -8.2558   -6.5771   -3.0872 H   0  0  0  0  0  0  0  0  0  0  0  0
  1  2  2  0
  2  3  1  0
  3  4  2  0
  4  5  1  0
  5  6  1  0
  6  7  1  0
  7  8  1  0
  8  9  1  0
  7 10  2  0
 10 11  1  0
 10 12  1  0
 12 13  1  0
  4 14  1  0
 14 15  2  0
 15 16  1  0
 16 17  1  0
 17 18  1  0
 18 19  1  0
 19 20  1  0
 20 21  1  0
 19 22  2  0
 22 23  1  0
 23 24  1  0
 22 25  1  0
 16 26  2  0
 26 27  1  0
 15 28  1  0
 28 29  2  0
 29 30  1  0
 29 31  1  0
 31 32  2  0
 32 33  1  0
 33 34  2  0
 34 35  1  0
 35 36  1  0
 36 37  1  0
 37 38  1  0
 38 39  1  0
 37 40  2  0
 40 41  1  0
 40 42  1  0
 42 43  1  0
 34 44  1  0
 44 45  2  0
 45 46  1  0
 46 47  1  0
 47 48  1  0
 48 49  1  0
 49 50  1  0
 50 51  1  0
 49 52  2  0
 52 53  1  0
 53 54  1  0
 52 55  1  0
 46 56  2  0
 56 57  1  0
 45 58  1  0
 58 59  2  0
 59 60  1  0
 59 61  1  0
 61 62  2  0
 62 63  1  0
 63 64  2  0
 64 65  1  0
 65 66  1  0
 66 67  1  0
 67 68  1  0
 68 69  1  0
 67 70  2  0
 70 71  1  0
 70 72  1  0
 72 73  1  0
 64 74  1  0
 74 75  2  0
 75 76  1  0
 76 77  1  0
 77 78  1  0
 78 79  1  0
 79 80  1  0
 80 81  1  0
 79 82  2  0
 82 83  1  0
 83 84  1  0
 82 85  1  0
 76 86  2  0
 86 87  1  0
 75 88  1  0
 88 89  2  0
 89 90  1  0
 89 91  1  0
 91 92  2  0
 92 93  1  0
 93 94  2  0
 94 95  1  0
 95 96  1  0
 96 97  1  0
 97 98  1  0
 98 99  1  0
 97100  2  0
100101  1  0
100102  1  0
102103  1  0
 94104  1  0
104105  2  0
105106  1  0
106107  1  0
107108  1  0
108109  1  0
109110  1  0
110111  1  0
109112  2  0
112113  1  0
113114  1  0
112115  1  0
106116  2  0
116117  1  0
105118  1  0
118119  2  0
119120  1  0
119121  1  0
121122  1  0
122123  1  0
123124  2  0
124125  1  0
125126  1  0
126127  2  0
127128  1  0
127129  1  0
129130  1  0
130131  2  0
130132  1  0
132133  1  0
133134  1  0
134135  2  0
135136  1  0
136137  1  0
137138  2  0
138139  1  0
138140  1  0
140141  1  0
141142  2  0
 27  1  1  0
 57 31  1  0
 87 61  1  0
117 91  1  0
125121  2  0
131126  1  0
136132  2  0
142137  1  0
 26  3  1  0
 56 33  1  0
 86 63  1  0
116 93  1  0
128124  1  0
139135  1  0
 12  5  2  0
 30 14  1  0
 42 35  2  0
 60 44  1  0
 72 65  2  0
 90 74  1  0
102 95  2  0
120104  1  0
 23 17  2  0
 53 47  2  0
 83 77  2  0
113107  2  0
  1143  1  0
  2144  1  0
  8145  1  0
  8146  1  0
  9147  1  0
  9148  1  0
  9149  1  0
 20150  1  0
 20151  1  0
 21152  1  0
 21153  1  0
 21154  1  0
 28155  1  0
 32156  1  0
 38157  1  0
 38158  1  0
 39159  1  0
 39160  1  0
 39161  1  0
 50162  1  0
 50163  1  0
 51164  1  0
 51165  1  0
 51166  1  0
 58167  1  0
 62168  1  0
 68169  1  0
 68170  1  0
 69171  1  0
 69172  1  0
 69173  1  0
 80174  1  0
 80175  1  0
 81176  1  0
 81177  1  0
 81178  1  0
 88179  1  0
 92180  1  0
 98181  1  0
 98182  1  0
 99183  1  0
 99184  1  0
 99185  1  0
110186  1  0
110187  1  0
111188  1  0
111189  1  0
111190  1  0
118191  1  0
123192  1  0
131193  1  0
134194  1  0
141195  1  0
142196  1  0
M  END

