
     RDKit          3D

228253  0  0  0  0  0  0  0  0999 V2000
    0.8862    0.2031    9.8830 C   0  0  0  0  0  0  0  0  0  0  0  0
    2.0178   -0.1004    9.1284 C   0  0  0  0  0  0  0  0  0  0  0  0
    1.7342   -0.8895    8.0016 C   0  0  0  0  0  0  0  0  0  0  0  0
    2.6634   -1.3435    7.0448 C   0  0  0  0  0  0  0  0  0  0  0  0
    4.1082   -1.0578    7.1487 C   0  0  0  0  0  0  0  0  0  0  0  0
    4.7284   -0.2180    6.2129 C   0  0  0  0  0  0  0  0  0  0  0  0
    6.1113   -0.0223    6.2484 C   0  0  0  0  0  0  0  0  0  0  0  0
    6.8855   -0.6628    7.2244 C   0  0  0  0  0  0  0  0  0  0  0  0
    8.6719   -0.4588    7.2138 S   0  0  0  0  0  0  0  0  0  0  0  0
    8.6735    1.1219    8.1288 C   0  0  0  0  0  0  0  0  0  0  0  0
    8.5174    0.8953    9.6275 C   0  0  0  0  0  0  0  0  0  0  0  0
    6.2694   -1.5009    8.1668 C   0  0  0  0  0  0  0  0  0  0  0  0
    7.0127   -2.1491    9.0998 F   0  0  0  0  0  0  0  0  0  0  0  0
    4.8850   -1.6916    8.1319 C   0  0  0  0  0  0  0  0  0  0  0  0
    2.1592   -2.0928    5.9701 C   0  0  0  0  0  0  0  0  0  0  0  0
    0.8001   -2.3921    5.8317 C   0  0  0  0  0  0  0  0  0  0  0  0
   -0.1328   -1.9602    6.8013 C   0  0  0  0  0  0  0  0  0  0  0  0
   -1.5614   -2.3452    6.7343 C   0  0  0  0  0  0  0  0  0  0  0  0
   -2.3367   -2.0229    5.6101 C   0  0  0  0  0  0  0  0  0  0  0  0
   -3.6382   -2.5108    5.4836 C   0  0  0  0  0  0  0  0  0  0  0  0
   -4.1935   -3.2985    6.5004 C   0  0  0  0  0  0  0  0  0  0  0  0
   -5.8342   -3.9997    6.2885 S   0  0  0  0  0  0  0  0  0  0  0  0
   -6.7568   -2.4945    6.7545 C   0  0  0  0  0  0  0  0  0  0  0  0
   -7.8805   -2.2789    5.7486 C   0  0  0  0  0  0  0  0  0  0  0  0
   -3.4461   -3.5813    7.6481 C   0  0  0  0  0  0  0  0  0  0  0  0
   -2.1291   -3.1198    7.7601 C   0  0  0  0  0  0  0  0  0  0  0  0
   -3.9633   -4.3560    8.6342 F   0  0  0  0  0  0  0  0  0  0  0  0
    0.3764   -1.2022    7.8730 C   0  0  0  0  0  0  0  0  0  0  0  0
   -0.4642   -0.4999    9.1516 S   0  0  0  0  0  0  0  0  0  0  0  0
    0.5255   -3.1552    4.6849 C   0  0  0  0  0  0  0  0  0  0  0  0
    1.6695   -3.4884    3.9586 C   0  0  0  0  0  0  0  0  0  0  0  0
    3.0149   -2.7840    4.6949 S   0  0  0  0  0  0  0  0  0  0  0  0
    1.7015   -4.1721    2.6585 C   0  0  0  0  0  0  0  0  0  0  0  0
    2.7405   -3.7409    1.3883 S   0  0  0  0  0  0  0  0  0  0  0  0
    2.1183   -4.7525    0.1863 C   0  0  0  0  0  0  0  0  0  0  0  0
    1.0848   -5.4390    0.7954 C   0  0  0  0  0  0  0  0  0  0  0  0
    0.8547   -5.1529    2.1412 C   0  0  0  0  0  0  0  0  0  0  0  0
   -0.1788   -5.9396    2.6585 C   0  0  0  0  0  0  0  0  0  0  0  0
   -0.7216   -6.7499    1.6990 C   0  0  0  0  0  0  0  0  0  0  0  0
    0.0201   -6.6111    0.1829 S   0  0  0  0  0  0  0  0  0  0  0  0
   -1.9603   -7.6926    2.3091 S   0  0  0  0  0  0  0  0  0  0  0  0
   -1.8148   -7.0231    3.8719 C   0  0  0  0  0  0  0  0  0  0  0  0
   -0.7515   -6.1095    3.9224 C   0  0  0  0  0  0  0  0  0  0  0  0
   -2.6887   -7.3556    5.0024 C   0  0  0  0  0  0  0  0  0  0  0  0
   -2.1846   -7.8278    6.5542 S   0  0  0  0  0  0  0  0  0  0  0  0
   -3.7167   -8.0490    7.2471 C   0  0  0  0  0  0  0  0  0  0  0  0
   -4.6257   -7.7335    6.2523 C   0  0  0  0  0  0  0  0  0  0  0  0
   -4.0792   -7.3468    5.0360 C   0  0  0  0  0  0  0  0  0  0  0  0
   -5.0565   -6.9238    4.1457 C   0  0  0  0  0  0  0  0  0  0  0  0
   -6.3148   -7.0150    4.6716 C   0  0  0  0  0  0  0  0  0  0  0  0
   -6.3197   -7.5801    6.2694 S   0  0  0  0  0  0  0  0  0  0  0  0
   -7.4527   -6.2855    3.6721 S   0  0  0  0  0  0  0  0  0  0  0  0
   -6.2791   -5.9011    2.4923 C   0  0  0  0  0  0  0  0  0  0  0  0
   -5.0056   -6.2889    2.9147 C   0  0  0  0  0  0  0  0  0  0  0  0
   -6.5014   -5.1406    1.2632 C   0  0  0  0  0  0  0  0  0  0  0  0
   -6.9466   -3.8231    1.2263 C   0  0  0  0  0  0  0  0  0  0  0  0
   -6.6058   -3.1683    0.0263 C   0  0  0  0  0  0  0  0  0  0  0  0
   -6.7284   -1.7866   -0.2332 C   0  0  0  0  0  0  0  0  0  0  0  0
   -7.2839   -0.8537    0.7705 C   0  0  0  0  0  0  0  0  0  0  0  0
   -8.4678   -0.1532    0.5024 C   0  0  0  0  0  0  0  0  0  0  0  0
   -9.0126    0.7023    1.4670 C   0  0  0  0  0  0  0  0  0  0  0  0
   -8.3757    0.8688    2.7003 C   0  0  0  0  0  0  0  0  0  0  0  0
   -9.0818    1.9647    3.9356 S   0  0  0  0  0  0  0  0  0  0  0  0
   -8.2328    3.4381    3.2753 C   0  0  0  0  0  0  0  0  0  0  0  0
   -8.4732    4.6274    4.1904 C   0  0  0  0  0  0  0  0  0  0  0  0
   -7.1763    0.1926    2.9615 C   0  0  0  0  0  0  0  0  0  0  0  0
   -6.5364    0.3632    4.1445 F   0  0  0  0  0  0  0  0  0  0  0  0
   -6.6351   -0.6682    2.0016 C   0  0  0  0  0  0  0  0  0  0  0  0
   -6.1640   -1.3125   -1.4335 C   0  0  0  0  0  0  0  0  0  0  0  0
   -5.5084   -2.1526   -2.3403 C   0  0  0  0  0  0  0  0  0  0  0  0
   -5.3843   -3.5320   -2.0789 C   0  0  0  0  0  0  0  0  0  0  0  0
   -4.5354   -4.4170   -2.9082 C   0  0  0  0  0  0  0  0  0  0  0  0
   -5.0902   -5.5343   -3.5446 C   0  0  0  0  0  0  0  0  0  0  0  0
   -4.2784   -6.3906   -4.2968 C   0  0  0  0  0  0  0  0  0  0  0  0
   -2.9085   -6.1370   -4.4182 C   0  0  0  0  0  0  0  0  0  0  0  0
   -1.8753   -7.2531   -5.3775 S   0  0  0  0  0  0  0  0  0  0  0  0
   -1.2600   -8.1837   -3.9270 C   0  0  0  0  0  0  0  0  0  0  0  0
   -2.3030   -9.1621   -3.4001 C   0  0  0  0  0  0  0  0  0  0  0  0
   -2.3521   -5.0134   -3.7932 C   0  0  0  0  0  0  0  0  0  0  0  0
   -3.1575   -4.1654   -3.0289 C   0  0  0  0  0  0  0  0  0  0  0  0
   -1.0269   -4.7499   -3.9039 F   0  0  0  0  0  0  0  0  0  0  0  0
   -5.9480   -4.0017   -0.8838 C   0  0  0  0  0  0  0  0  0  0  0  0
   -5.7245   -5.5098   -0.1834 S   0  0  0  0  0  0  0  0  0  0  0  0
   -4.8815   -1.4599   -3.3871 C   0  0  0  0  0  0  0  0  0  0  0  0
   -4.9690   -0.0755   -3.2638 C   0  0  0  0  0  0  0  0  0  0  0  0
   -5.8978    0.2833   -1.8978 S   0  0  0  0  0  0  0  0  0  0  0  0
   -4.0370    0.8653   -3.9123 C   0  0  0  0  0  0  0  0  0  0  0  0
   -3.1088    0.5166   -4.8985 C   0  0  0  0  0  0  0  0  0  0  0  0
   -2.0516    1.4307   -5.0109 C   0  0  0  0  0  0  0  0  0  0  0  0
   -0.8871    1.2626   -5.7896 C   0  0  0  0  0  0  0  0  0  0  0  0
   -0.6844    0.0719   -6.6329 C   0  0  0  0  0  0  0  0  0  0  0  0
   -1.0076    0.1095   -7.9979 C   0  0  0  0  0  0  0  0  0  0  0  0
   -0.8146   -1.0247   -8.7930 C   0  0  0  0  0  0  0  0  0  0  0  0
   -0.2843   -2.1942   -8.2374 C   0  0  0  0  0  0  0  0  0  0  0  0
   -0.0252   -3.6429   -9.2695 S   0  0  0  0  0  0  0  0  0  0  0  0
   -1.5845   -4.4664   -8.7848 C   0  0  0  0  0  0  0  0  0  0  0  0
   -2.7341   -4.0232   -9.6772 C   0  0  0  0  0  0  0  0  0  0  0  0
    0.0691   -2.2215   -6.8805 C   0  0  0  0  0  0  0  0  0  0  0  0
    0.6021   -3.3420   -6.3344 F   0  0  0  0  0  0  0  0  0  0  0  0
   -0.1436   -1.0961   -6.0776 C   0  0  0  0  0  0  0  0  0  0  0  0
    0.1511    2.1909   -5.5937 C   0  0  0  0  0  0  0  0  0  0  0  0
    0.0512    3.2398   -4.6740 C   0  0  0  0  0  0  0  0  0  0  0  0
   -1.1374    3.4471   -3.9487 C   0  0  0  0  0  0  0  0  0  0  0  0
   -1.2560    4.5243   -2.9478 C   0  0  0  0  0  0  0  0  0  0  0  0
   -1.4246    5.8521   -3.3622 C   0  0  0  0  0  0  0  0  0  0  0  0
   -1.5973    6.8666   -2.4160 C   0  0  0  0  0  0  0  0  0  0  0  0
   -1.5995    6.5587   -1.0520 C   0  0  0  0  0  0  0  0  0  0  0  0
   -1.8819    7.8573    0.1550 S   0  0  0  0  0  0  0  0  0  0  0  0
   -3.6901    7.6109    0.1683 C   0  0  0  0  0  0  0  0  0  0  0  0
   -4.3373    8.5495    1.1739 C   0  0  0  0  0  0  0  0  0  0  0  0
   -1.4003    5.2366   -0.6317 C   0  0  0  0  0  0  0  0  0  0  0  0
   -1.2296    4.2219   -1.5780 C   0  0  0  0  0  0  0  0  0  0  0  0
   -1.3906    4.9254    0.6868 F   0  0  0  0  0  0  0  0  0  0  0  0
   -2.1676    2.5132   -4.1339 C   0  0  0  0  0  0  0  0  0  0  0  0
   -3.5692    2.3328   -3.2214 S   0  0  0  0  0  0  0  0  0  0  0  0
    1.2669    3.9057   -4.4660 C   0  0  0  0  0  0  0  0  0  0  0  0
    2.3072    3.3886   -5.2329 C   0  0  0  0  0  0  0  0  0  0  0  0
    1.7321    2.1079   -6.1699 S   0  0  0  0  0  0  0  0  0  0  0  0
    3.7234    3.6830   -5.0129 C   0  0  0  0  0  0  0  0  0  0  0  0
    4.7271    3.6695   -5.9764 C   0  0  0  0  0  0  0  0  0  0  0  0
    6.0073    3.8904   -5.4342 C   0  0  0  0  0  0  0  0  0  0  0  0
    7.2276    3.9119   -6.1441 C   0  0  0  0  0  0  0  0  0  0  0  0
    7.2846    3.7374   -7.6138 C   0  0  0  0  0  0  0  0  0  0  0  0
    6.5965    4.6189   -8.4642 C   0  0  0  0  0  0  0  0  0  0  0  0
    6.6270    4.4303   -9.8475 C   0  0  0  0  0  0  0  0  0  0  0  0
    7.3468    3.3622  -10.3974 C   0  0  0  0  0  0  0  0  0  0  0  0
    7.3898    3.1394  -12.1808 S   0  0  0  0  0  0  0  0  0  0  0  0
    6.0838    1.8592  -12.2340 C   0  0  0  0  0  0  0  0  0  0  0  0
    4.6931    2.4725  -12.1236 C   0  0  0  0  0  0  0  0  0  0  0  0
    8.0582    2.4964   -9.5559 C   0  0  0  0  0  0  0  0  0  0  0  0
    8.7758    1.4685  -10.0785 F   0  0  0  0  0  0  0  0  0  0  0  0
    8.0188    2.6791   -8.1697 C   0  0  0  0  0  0  0  0  0  0  0  0
    8.4003    4.0804   -5.3825 C   0  0  0  0  0  0  0  0  0  0  0  0
    8.3871    4.1812   -3.9871 C   0  0  0  0  0  0  0  0  0  0  0  0
    7.1707    4.1265   -3.2727 C   0  0  0  0  0  0  0  0  0  0  0  0
    7.1299    4.0142   -1.7952 C   0  0  0  0  0  0  0  0  0  0  0  0
    6.3456    4.8881   -1.0262 C   0  0  0  0  0  0  0  0  0  0  0  0
    6.2118    4.6894    0.3520 C   0  0  0  0  0  0  0  0  0  0  0  0
    6.8614    3.6173    0.9749 C   0  0  0  0  0  0  0  0  0  0  0  0
    6.6616    3.3509    2.7421 S   0  0  0  0  0  0  0  0  0  0  0  0
    5.3753    2.0617    2.5737 C   0  0  0  0  0  0  0  0  0  0  0  0
    3.9978    2.6755    2.3569 C   0  0  0  0  0  0  0  0  0  0  0  0
    7.6761    2.7641    0.2182 C   0  0  0  0  0  0  0  0  0  0  0  0
    7.7971    2.9529   -1.1599 C   0  0  0  0  0  0  0  0  0  0  0  0
    8.3221    1.7282    0.8096 F   0  0  0  0  0  0  0  0  0  0  0  0
    5.9957    4.0244   -4.0397 C   0  0  0  0  0  0  0  0  0  0  0  0
    4.4095    3.9125   -3.4932 S   0  0  0  0  0  0  0  0  0  0  0  0
    9.6701    4.3470   -3.4363 C   0  0  0  0  0  0  0  0  0  0  0  0
   10.6785    4.3883   -4.3933 C   0  0  0  0  0  0  0  0  0  0  0  0
    9.9896    4.2122   -5.9212 S   0  0  0  0  0  0  0  0  0  0  0  0
    0.8775    0.7958   10.7894 H   0  0  0  0  0  0  0  0  0  0  0  0
    3.0099    0.2453    9.3897 H   0  0  0  0  0  0  0  0  0  0  0  0
    4.1384    0.2738    5.4460 H   0  0  0  0  0  0  0  0  0  0  0  0
    6.5824    0.6179    5.5133 H   0  0  0  0  0  0  0  0  0  0  0  0
    7.8693    1.7930    7.7581 H   0  0  0  0  0  0  0  0  0  0  0  0
    9.6442    1.6264    7.9411 H   0  0  0  0  0  0  0  0  0  0  0  0
    9.2967    0.1949    9.9948 H   0  0  0  0  0  0  0  0  0  0  0  0
    7.5138    0.4784    9.8545 H   0  0  0  0  0  0  0  0  0  0  0  0
    8.6245    1.8648   10.1588 H   0  0  0  0  0  0  0  0  0  0  0  0
    4.4187   -2.3563    8.8501 H   0  0  0  0  0  0  0  0  0  0  0  0
   -1.9166   -1.4200    4.8128 H   0  0  0  0  0  0  0  0  0  0  0  0
   -4.2139   -2.2892    4.5944 H   0  0  0  0  0  0  0  0  0  0  0  0
   -7.1962   -2.6377    7.7675 H   0  0  0  0  0  0  0  0  0  0  0  0
   -6.1020   -1.5956    6.7646 H   0  0  0  0  0  0  0  0  0  0  0  0
   -8.5907   -3.1302    5.7855 H   0  0  0  0  0  0  0  0  0  0  0  0
   -8.4218   -1.3385    5.9840 H   0  0  0  0  0  0  0  0  0  0  0  0
   -7.4564   -2.2065    4.7235 H   0  0  0  0  0  0  0  0  0  0  0  0
   -1.5441   -3.3876    8.6306 H   0  0  0  0  0  0  0  0  0  0  0  0
   -0.4703   -3.4194    4.3573 H   0  0  0  0  0  0  0  0  0  0  0  0
    2.4495   -4.8436   -0.8390 H   0  0  0  0  0  0  0  0  0  0  0  0
   -0.4238   -5.6270    4.8301 H   0  0  0  0  0  0  0  0  0  0  0  0
   -3.9405   -8.3394    8.2651 H   0  0  0  0  0  0  0  0  0  0  0  0
   -4.1015   -6.0279    2.3891 H   0  0  0  0  0  0  0  0  0  0  0  0
   -7.3889   -3.3296    2.0818 H   0  0  0  0  0  0  0  0  0  0  0  0
   -8.9804   -0.2802   -0.4426 H   0  0  0  0  0  0  0  0  0  0  0  0
   -9.9327    1.2293    1.2551 H   0  0  0  0  0  0  0  0  0  0  0  0
   -8.6092    3.6685    2.2555 H   0  0  0  0  0  0  0  0  0  0  0  0
   -7.1386    3.2453    3.2179 H   0  0  0  0  0  0  0  0  0  0  0  0
   -8.0133    5.5367    3.7520 H   0  0  0  0  0  0  0  0  0  0  0  0
   -9.5602    4.7981    4.3313 H   0  0  0  0  0  0  0  0  0  0  0  0
   -7.9988    4.4409    5.1773 H   0  0  0  0  0  0  0  0  0  0  0  0
   -5.7088   -1.1864    2.2167 H   0  0  0  0  0  0  0  0  0  0  0  0
   -6.1504   -5.7429   -3.4577 H   0  0  0  0  0  0  0  0  0  0  0  0
   -4.7178   -7.2561   -4.7710 H   0  0  0  0  0  0  0  0  0  0  0  0
   -0.9484   -7.4882   -3.1175 H   0  0  0  0  0  0  0  0  0  0  0  0
   -0.3627   -8.7561   -4.2485 H   0  0  0  0  0  0  0  0  0  0  0  0
   -1.8659   -9.7491   -2.5656 H   0  0  0  0  0  0  0  0  0  0  0  0
   -3.1881   -8.6157   -3.0150 H   0  0  0  0  0  0  0  0  0  0  0  0
   -2.6222   -9.8589   -4.2048 H   0  0  0  0  0  0  0  0  0  0  0  0
   -2.7098   -3.3161   -2.5236 H   0  0  0  0  0  0  0  0  0  0  0  0
   -4.2784   -1.9500   -4.1371 H   0  0  0  0  0  0  0  0  0  0  0  0
   -3.1382   -0.4175   -5.4431 H   0  0  0  0  0  0  0  0  0  0  0  0
   -1.4002    1.0165   -8.4426 H   0  0  0  0  0  0  0  0  0  0  0  0
   -1.0669   -0.9905   -9.8451 H   0  0  0  0  0  0  0  0  0  0  0  0
   -1.8299   -4.2668   -7.7193 H   0  0  0  0  0  0  0  0  0  0  0  0
   -1.4465   -5.5630   -8.9011 H   0  0  0  0  0  0  0  0  0  0  0  0
   -2.5111   -4.2798  -10.7348 H   0  0  0  0  0  0  0  0  0  0  0  0
   -3.6655   -4.5430   -9.3660 H   0  0  0  0  0  0  0  0  0  0  0  0
   -2.8940   -2.9284   -9.5895 H   0  0  0  0  0  0  0  0  0  0  0  0
    0.1136   -1.1329   -5.0239 H   0  0  0  0  0  0  0  0  0  0  0  0
   -1.4475    6.0952   -4.4202 H   0  0  0  0  0  0  0  0  0  0  0  0
   -1.7460    7.8846   -2.7485 H   0  0  0  0  0  0  0  0  0  0  0  0
   -3.9225    6.5606    0.4449 H   0  0  0  0  0  0  0  0  0  0  0  0
   -4.1023    7.8152   -0.8465 H   0  0  0  0  0  0  0  0  0  0  0  0
   -4.0968    9.6051    0.9289 H   0  0  0  0  0  0  0  0  0  0  0  0
   -3.9733    8.3190    2.1988 H   0  0  0  0  0  0  0  0  0  0  0  0
   -5.4408    8.4192    1.1504 H   0  0  0  0  0  0  0  0  0  0  0  0
   -1.0875    3.1978   -1.2496 H   0  0  0  0  0  0  0  0  0  0  0  0
    1.4086    4.6836   -3.7243 H   0  0  0  0  0  0  0  0  0  0  0  0
    4.5324    3.4808   -7.0246 H   0  0  0  0  0  0  0  0  0  0  0  0
    6.0356    5.4475   -8.0519 H   0  0  0  0  0  0  0  0  0  0  0  0
    6.0932    5.1157  -10.4931 H   0  0  0  0  0  0  0  0  0  0  0  0
    6.2342    1.1115  -11.4262 H   0  0  0  0  0  0  0  0  0  0  0  0
    6.1634    1.3303  -13.2085 H   0  0  0  0  0  0  0  0  0  0  0  0
    4.5517    2.9297  -11.1213 H   0  0  0  0  0  0  0  0  0  0  0  0
    4.5473    3.2456  -12.9063 H   0  0  0  0  0  0  0  0  0  0  0  0
    3.9274    1.6769  -12.2554 H   0  0  0  0  0  0  0  0  0  0  0  0
    8.5525    1.9852   -7.5294 H   0  0  0  0  0  0  0  0  0  0  0  0
    5.8238    5.7156   -1.4943 H   0  0  0  0  0  0  0  0  0  0  0  0
    5.5910    5.3610    0.9316 H   0  0  0  0  0  0  0  0  0  0  0  0
    5.6176    1.3656    1.7409 H   0  0  0  0  0  0  0  0  0  0  0  0
    5.3548    1.4738    3.5150 H   0  0  0  0  0  0  0  0  0  0  0  0
    3.7550    3.3707    3.1864 H   0  0  0  0  0  0  0  0  0  0  0  0
    3.9690    3.2314    1.3960 H   0  0  0  0  0  0  0  0  0  0  0  0
    3.2326    1.8693    2.3204 H   0  0  0  0  0  0  0  0  0  0  0  0
    8.3938    2.2590   -1.7396 H   0  0  0  0  0  0  0  0  0  0  0  0
    9.8694    4.4573   -2.3776 H   0  0  0  0  0  0  0  0  0  0  0  0
   11.7322    4.5186   -4.1870 H   0  0  0  0  0  0  0  0  0  0  0  0
  1  2  2  0
  2  3  1  0
  3  4  2  0
  4  5  1  0
  5  6  2  0
  6  7  1  0
  7  8  2  0
  8  9  1  0
  9 10  1  0
 10 11  1  0
  8 12  1  0
 12 13  1  0
 12 14  2  0
  4 15  1  0
 15 16  2  0
 16 17  1  0
 17 18  1  0
 18 19  2  0
 19 20  1  0
 20 21  2  0
 21 22  1  0
 22 23  1  0
 23 24  1  0
 21 25  1  0
 25 26  2  0
 25 27  1  0
 17 28  2  0
 28 29  1  0
 16 30  1  0
 30 31  2  0
 31 32  1  0
 31 33  1  0
 33 34  1  0
 34 35  1  0
 35 36  2  0
 36 37  1  0
 37 38  1  0
 38 39  2  0
 39 40  1  0
 39 41  1  0
 41 42  1  0
 42 43  2  0
 42 44  1  0
 44 45  1  0
 45 46  1  0
 46 47  2  0
 47 48  1  0
 48 49  1  0
 49 50  2  0
 50 51  1  0
 50 52  1  0
 52 53  1  0
 53 54  2  0
 53 55  1  0
 55 56  2  0
 56 57  1  0
 57 58  2  0
 58 59  1  0
 59 60  2  0
 60 61  1  0
 61 62  2  0
 62 63  1  0
 63 64  1  0
 64 65  1  0
 62 66  1  0
 66 67  1  0
 66 68  2  0
 58 69  1  0
 69 70  2  0
 70 71  1  0
 71 72  1  0
 72 73  2  0
 73 74  1  0
 74 75  2  0
 75 76  1  0
 76 77  1  0
 77 78  1  0
 75 79  1  0
 79 80  2  0
 79 81  1  0
 71 82  2  0
 82 83  1  0
 70 84  1  0
 84 85  2  0
 85 86  1  0
 85 87  1  0
 87 88  2  0
 88 89  1  0
 89 90  2  0
 90 91  1  0
 91 92  2  0
 92 93  1  0
 93 94  2  0
 94 95  1  0
 95 96  1  0
 96 97  1  0
 94 98  1  0
 98 99  1  0
 98100  2  0
 90101  1  0
101102  2  0
102103  1  0
103104  1  0
104105  2  0
105106  1  0
106107  2  0
107108  1  0
108109  1  0
109110  1  0
107111  1  0
111112  2  0
111113  1  0
103114  2  0
114115  1  0
102116  1  0
116117  2  0
117118  1  0
117119  1  0
119120  2  0
120121  1  0
121122  2  0
122123  1  0
123124  2  0
124125  1  0
125126  2  0
126127  1  0
127128  1  0
128129  1  0
126130  1  0
130131  1  0
130132  2  0
122133  1  0
133134  2  0
134135  1  0
135136  1  0
136137  2  0
137138  1  0
138139  2  0
139140  1  0
140141  1  0
141142  1  0
139143  1  0
143144  2  0
143145  1  0
135146  2  0
146147  1  0
134148  1  0
148149  2  0
149150  1  0
 29  1  1  0
 37 33  2  0
 43 38  1  0
 48 44  2  0
 54 49  1  0
 83 55  1  0
115 87  1  0
147119  1  0
 28  3  1  0
 40 36  1  0
 51 47  1  0
 82 57  1  0
114 89  1  0
146121  1  0
 14  5  1  0
 32 15  1  0
 68 59  1  0
 86 69  1  0
100 91  1  0
118101  1  0
132123  1  0
150133  1  0
 26 18  1  0
 80 72  1  0
112104  1  0
144136  1  0
  1151  1  0
  2152  1  0
  6153  1  0
  7154  1  0
 10155  1  0
 10156  1  0
 11157  1  0
 11158  1  0
 11159  1  0
 14160  1  0
 19161  1  0
 20162  1  0
 23163  1  0
 23164  1  0
 24165  1  0
 24166  1  0
 24167  1  0
 26168  1  0
 30169  1  0
 35170  1  0
 43171  1  0
 46172  1  0
 54173  1  0
 56174  1  0
 60175  1  0
 61176  1  0
 64177  1  0
 64178  1  0
 65179  1  0
 65180  1  0
 65181  1  0
 68182  1  0
 73183  1  0
 74184  1  0
 77185  1  0
 77186  1  0
 78187  1  0
 78188  1  0
 78189  1  0
 80190  1  0
 84191  1  0
 88192  1  0
 92193  1  0
 93194  1  0
 96195  1  0
 96196  1  0
 97197  1  0
 97198  1  0
 97199  1  0
100200  1  0
105201  1  0
106202  1  0
109203  1  0
109204  1  0
110205  1  0
110206  1  0
110207  1  0
112208  1  0
116209  1  0
120210  1  0
124211  1  0
125212  1  0
128213  1  0
128214  1  0
129215  1  0
129216  1  0
129217  1  0
132218  1  0
137219  1  0
138220  1  0
141221  1  0
141222  1  0
142223  1  0
142224  1  0
142225  1  0
144226  1  0
148227  1  0
149228  1  0
M  END

