
     RDKit          3D

196221  0  0  0  0  0  0  0  0999 V2000
    5.8328  -10.4003    3.3505 C   0  0  0  0  0  0  0  0  0  0  0  0
    6.6944   -9.3726    2.9786 C   0  0  0  0  0  0  0  0  0  0  0  0
    6.0636   -8.1185    2.9080 C   0  0  0  0  0  0  0  0  0  0  0  0
    6.6825   -6.8891    2.6131 C   0  0  0  0  0  0  0  0  0  0  0  0
    8.1055   -6.8009    2.2271 C   0  0  0  0  0  0  0  0  0  0  0  0
    9.2733   -5.8994    3.0393 S   0  0  0  0  0  0  0  0  0  0  0  0
   10.5367   -6.2504    1.9821 C   0  0  0  0  0  0  0  0  0  0  0  0
   11.9133   -5.6659    2.0793 C   0  0  0  0  0  0  0  0  0  0  0  0
   12.0113   -4.3736    1.2750 C   0  0  0  0  0  0  0  0  0  0  0  0
   10.0480   -7.0590    0.9568 C   0  0  0  0  0  0  0  0  0  0  0  0
   11.0253   -7.5977   -0.4021 Cl  0  0  0  0  0  0  0  0  0  0  0  0
    8.6862   -7.3677    1.0934 C   0  0  0  0  0  0  0  0  0  0  0  0
    7.7866   -8.3069   -0.0910 Cl  0  0  0  0  0  0  0  0  0  0  0  0
    5.8741   -5.7402    2.6794 C   0  0  0  0  0  0  0  0  0  0  0  0
    4.5063   -5.7920    2.9749 C   0  0  0  0  0  0  0  0  0  0  0  0
    3.8887   -7.0222    3.2763 C   0  0  0  0  0  0  0  0  0  0  0  0
    2.4911   -7.1016    3.7352 C   0  0  0  0  0  0  0  0  0  0  0  0
    1.9453   -6.4793    5.1985 S   0  0  0  0  0  0  0  0  0  0  0  0
    0.3895   -7.1083    5.0921 C   0  0  0  0  0  0  0  0  0  0  0  0
   -0.6792   -6.9016    6.1224 C   0  0  0  0  0  0  0  0  0  0  0  0
   -1.5756   -5.7274    5.7501 C   0  0  0  0  0  0  0  0  0  0  0  0
    0.2713   -7.8072    3.8917 C   0  0  0  0  0  0  0  0  0  0  0  0
    1.4506   -7.8038    3.1312 C   0  0  0  0  0  0  0  0  0  0  0  0
    1.5909   -8.5780    1.5602 Cl  0  0  0  0  0  0  0  0  0  0  0  0
   -1.1944   -8.6394    3.3921 Cl  0  0  0  0  0  0  0  0  0  0  0  0
    4.7037   -8.1688    3.2348 C   0  0  0  0  0  0  0  0  0  0  0  0
    4.2936   -9.7576    3.6098 S   0  0  0  0  0  0  0  0  0  0  0  0
    3.8785   -4.5363    2.9068 C   0  0  0  0  0  0  0  0  0  0  0  0
    4.7678   -3.5107    2.5964 C   0  0  0  0  0  0  0  0  0  0  0  0
    6.3126   -4.1470    2.3755 S   0  0  0  0  0  0  0  0  0  0  0  0
    4.4323   -2.1010    2.3821 C   0  0  0  0  0  0  0  0  0  0  0  0
    5.2169   -1.0363    2.8036 C   0  0  0  0  0  0  0  0  0  0  0  0
    4.7915    0.1921    2.2794 C   0  0  0  0  0  0  0  0  0  0  0  0
    5.3530    1.4499    2.5581 C   0  0  0  0  0  0  0  0  0  0  0  0
    6.4933    1.6013    3.4777 C   0  0  0  0  0  0  0  0  0  0  0  0
    8.0534    1.0510    3.1746 S   0  0  0  0  0  0  0  0  0  0  0  0
    8.7055    1.5492    4.6434 C   0  0  0  0  0  0  0  0  0  0  0  0
   10.1480    1.4057    5.0278 C   0  0  0  0  0  0  0  0  0  0  0  0
   10.9073    2.7003    4.7620 C   0  0  0  0  0  0  0  0  0  0  0  0
    7.7042    2.1690    5.3895 C   0  0  0  0  0  0  0  0  0  0  0  0
    7.9613    2.8503    6.9906 Cl  0  0  0  0  0  0  0  0  0  0  0  0
    6.4627    2.1951    4.7352 C   0  0  0  0  0  0  0  0  0  0  0  0
    5.0053    2.8725    5.4470 Cl  0  0  0  0  0  0  0  0  0  0  0  0
    4.8082    2.5525    1.8832 C   0  0  0  0  0  0  0  0  0  0  0  0
    3.7866    2.4348    0.9421 C   0  0  0  0  0  0  0  0  0  0  0  0
    3.1694    1.1862    0.7225 C   0  0  0  0  0  0  0  0  0  0  0  0
    1.9398    1.0715   -0.0764 C   0  0  0  0  0  0  0  0  0  0  0  0
    0.5056    1.8518    0.3156 S   0  0  0  0  0  0  0  0  0  0  0  0
   -0.4261    1.1541   -0.8960 C   0  0  0  0  0  0  0  0  0  0  0  0
   -1.8965    1.3590   -1.1224 C   0  0  0  0  0  0  0  0  0  0  0  0
   -2.4872    2.5190   -0.3224 C   0  0  0  0  0  0  0  0  0  0  0  0
    0.3846    0.2838   -1.6244 C   0  0  0  0  0  0  0  0  0  0  0  0
    1.7111    0.2400   -1.1716 C   0  0  0  0  0  0  0  0  0  0  0  0
    2.9621   -0.7219   -1.9460 Cl  0  0  0  0  0  0  0  0  0  0  0  0
   -0.2021   -0.6871   -2.9644 Cl  0  0  0  0  0  0  0  0  0  0  0  0
    3.6973    0.0792    1.4167 C   0  0  0  0  0  0  0  0  0  0  0  0
    3.2125   -1.5360    1.3608 S   0  0  0  0  0  0  0  0  0  0  0  0
    3.5384    3.6327    0.2401 C   0  0  0  0  0  0  0  0  0  0  0  0
    4.3052    4.7104    0.6941 C   0  0  0  0  0  0  0  0  0  0  0  0
    5.3311    4.1399    1.9157 S   0  0  0  0  0  0  0  0  0  0  0  0
    4.4772    6.0569    0.0979 C   0  0  0  0  0  0  0  0  0  0  0  0
    5.8204    7.0257    0.4942 S   0  0  0  0  0  0  0  0  0  0  0  0
    5.6338    8.2484   -0.6367 C   0  0  0  0  0  0  0  0  0  0  0  0
    4.5024    7.9069   -1.3437 C   0  0  0  0  0  0  0  0  0  0  0  0
    3.8299    6.7400   -0.9535 C   0  0  0  0  0  0  0  0  0  0  0  0
    2.6584    6.5750   -1.7178 C   0  0  0  0  0  0  0  0  0  0  0  0
    2.5433    7.5603   -2.6664 C   0  0  0  0  0  0  0  0  0  0  0  0
    3.7578    8.7231   -2.6202 S   0  0  0  0  0  0  0  0  0  0  0  0
    1.1004    7.4898   -3.4951 S   0  0  0  0  0  0  0  0  0  0  0  0
    0.5827    6.1220   -2.6315 C   0  0  0  0  0  0  0  0  0  0  0  0
    1.5270    5.7473   -1.6612 C   0  0  0  0  0  0  0  0  0  0  0  0
   -0.7402    5.5286   -2.8332 C   0  0  0  0  0  0  0  0  0  0  0  0
   -1.9261    6.2556   -2.8570 C   0  0  0  0  0  0  0  0  0  0  0  0
   -3.0267    5.4952   -3.2737 C   0  0  0  0  0  0  0  0  0  0  0  0
   -4.3570    5.9499   -3.3728 C   0  0  0  0  0  0  0  0  0  0  0  0
   -4.7372    7.3338   -3.0365 C   0  0  0  0  0  0  0  0  0  0  0  0
   -5.2727    8.4738   -4.1510 S   0  0  0  0  0  0  0  0  0  0  0  0
   -5.3971    9.7491   -3.0617 C   0  0  0  0  0  0  0  0  0  0  0  0
   -5.7685   11.1526   -3.4357 C   0  0  0  0  0  0  0  0  0  0  0  0
   -4.5225   11.9965   -3.6819 C   0  0  0  0  0  0  0  0  0  0  0  0
   -5.0005    9.2993   -1.8026 C   0  0  0  0  0  0  0  0  0  0  0  0
   -4.9439   10.3269   -0.3765 Cl  0  0  0  0  0  0  0  0  0  0  0  0
   -4.6369    7.9434   -1.7880 C   0  0  0  0  0  0  0  0  0  0  0  0
   -4.1252    7.0936   -0.3355 Cl  0  0  0  0  0  0  0  0  0  0  0  0
   -5.3072    5.0336   -3.8475 C   0  0  0  0  0  0  0  0  0  0  0  0
   -4.9682    3.7327   -4.2312 C   0  0  0  0  0  0  0  0  0  0  0  0
   -3.6366    3.2761   -4.1489 C   0  0  0  0  0  0  0  0  0  0  0  0
   -3.2744    1.9027   -4.5544 C   0  0  0  0  0  0  0  0  0  0  0  0
   -3.9456    0.5053   -3.8990 S   0  0  0  0  0  0  0  0  0  0  0  0
   -3.1324   -0.5814   -4.8834 C   0  0  0  0  0  0  0  0  0  0  0  0
   -3.3237   -2.0675   -4.8373 C   0  0  0  0  0  0  0  0  0  0  0  0
   -4.5990   -2.4687   -5.5685 C   0  0  0  0  0  0  0  0  0  0  0  0
   -2.3357    0.1421   -5.7712 C   0  0  0  0  0  0  0  0  0  0  0  0
   -2.4128    1.5327   -5.5853 C   0  0  0  0  0  0  0  0  0  0  0  0
   -1.5814    2.6887   -6.6166 Cl  0  0  0  0  0  0  0  0  0  0  0  0
   -1.3508   -0.6057   -7.0196 Cl  0  0  0  0  0  0  0  0  0  0  0  0
   -2.6872    4.1867   -3.6440 C   0  0  0  0  0  0  0  0  0  0  0  0
   -1.0299    3.9639   -3.3981 S   0  0  0  0  0  0  0  0  0  0  0  0
   -6.0625    3.0009   -4.7010 C   0  0  0  0  0  0  0  0  0  0  0  0
   -7.2622    3.6973   -4.6141 C   0  0  0  0  0  0  0  0  0  0  0  0
   -6.9668    5.2595   -4.0494 S   0  0  0  0  0  0  0  0  0  0  0  0
   -8.5595    3.1798   -5.0592 C   0  0  0  0  0  0  0  0  0  0  0  0
   -9.6319    3.9993   -6.0817 S   0  0  0  0  0  0  0  0  0  0  0  0
  -10.6422    2.6984   -6.4794 C   0  0  0  0  0  0  0  0  0  0  0  0
  -10.1185    1.6089   -5.8038 C   0  0  0  0  0  0  0  0  0  0  0  0
   -9.0046    1.8603   -5.0137 C   0  0  0  0  0  0  0  0  0  0  0  0
   -8.5565    0.7085   -4.3685 C   0  0  0  0  0  0  0  0  0  0  0  0
   -9.2855   -0.3865   -4.7321 C   0  0  0  0  0  0  0  0  0  0  0  0
  -10.5493   -0.0344   -5.8010 S   0  0  0  0  0  0  0  0  0  0  0  0
   -8.7267   -1.7686   -3.9792 S   0  0  0  0  0  0  0  0  0  0  0  0
   -7.5195   -0.9288   -3.1116 C   0  0  0  0  0  0  0  0  0  0  0  0
   -7.5670    0.4401   -3.4179 C   0  0  0  0  0  0  0  0  0  0  0  0
   -6.5654   -1.5702   -2.1896 C   0  0  0  0  0  0  0  0  0  0  0  0
   -6.2632   -2.9293   -2.1810 C   0  0  0  0  0  0  0  0  0  0  0  0
   -5.3224   -3.2771   -1.2005 C   0  0  0  0  0  0  0  0  0  0  0  0
   -4.8008   -4.5653   -0.9776 C   0  0  0  0  0  0  0  0  0  0  0  0
   -5.2629   -5.7349   -1.7470 C   0  0  0  0  0  0  0  0  0  0  0  0
   -6.8266   -6.3527   -1.6907 S   0  0  0  0  0  0  0  0  0  0  0  0
   -6.5591   -7.6190   -2.7626 C   0  0  0  0  0  0  0  0  0  0  0  0
   -7.5868   -8.6438   -3.1402 C   0  0  0  0  0  0  0  0  0  0  0  0
   -7.4611   -9.8835   -2.2631 C   0  0  0  0  0  0  0  0  0  0  0  0
   -5.2241   -7.5876   -3.1652 C   0  0  0  0  0  0  0  0  0  0  0  0
   -4.5106   -8.7652   -4.2564 Cl  0  0  0  0  0  0  0  0  0  0  0  0
   -4.4994   -6.5257   -2.6018 C   0  0  0  0  0  0  0  0  0  0  0  0
   -2.8147   -6.1933   -2.9838 Cl  0  0  0  0  0  0  0  0  0  0  0  0
   -3.8544   -4.6994    0.0509 C   0  0  0  0  0  0  0  0  0  0  0  0
   -3.4483   -3.6249    0.8476 C   0  0  0  0  0  0  0  0  0  0  0  0
   -3.9682   -2.3307    0.6264 C   0  0  0  0  0  0  0  0  0  0  0  0
   -3.5974   -1.1920    1.4903 C   0  0  0  0  0  0  0  0  0  0  0  0
   -2.0199   -0.6817    1.7885 S   0  0  0  0  0  0  0  0  0  0  0  0
   -2.4132    0.4905    2.9268 C   0  0  0  0  0  0  0  0  0  0  0  0
   -1.4137    1.2978    3.6976 C   0  0  0  0  0  0  0  0  0  0  0  0
   -1.0652    0.6178    5.0164 C   0  0  0  0  0  0  0  0  0  0  0  0
   -3.7946    0.4798    3.1131 C   0  0  0  0  0  0  0  0  0  0  0  0
   -4.4567   -0.4645    2.3133 C   0  0  0  0  0  0  0  0  0  0  0  0
   -6.1785   -0.7958    2.4563 Cl  0  0  0  0  0  0  0  0  0  0  0  0
   -4.6210    1.4900    4.2928 Cl  0  0  0  0  0  0  0  0  0  0  0  0
   -4.8973   -2.1911   -0.4259 C   0  0  0  0  0  0  0  0  0  0  0  0
   -5.6667   -0.7950   -0.9824 S   0  0  0  0  0  0  0  0  0  0  0  0
   -2.5512   -4.0067    1.8602 C   0  0  0  0  0  0  0  0  0  0  0  0
   -2.2400   -5.3613    1.8376 C   0  0  0  0  0  0  0  0  0  0  0  0
   -3.0951   -6.1015    0.5896 S   0  0  0  0  0  0  0  0  0  0  0  0
    6.1126  -11.4375    3.4790 H   0  0  0  0  0  0  0  0  0  0  0  0
    7.7447   -9.5344    2.7851 H   0  0  0  0  0  0  0  0  0  0  0  0
   12.6620   -6.3971    1.7040 H   0  0  0  0  0  0  0  0  0  0  0  0
   12.1487   -5.4553    3.1441 H   0  0  0  0  0  0  0  0  0  0  0  0
   11.2947   -3.6209    1.6669 H   0  0  0  0  0  0  0  0  0  0  0  0
   11.7909   -4.5659    0.2038 H   0  0  0  0  0  0  0  0  0  0  0  0
   13.0393   -3.9654    1.3601 H   0  0  0  0  0  0  0  0  0  0  0  0
   -1.2922   -7.8216    6.2268 H   0  0  0  0  0  0  0  0  0  0  0  0
   -0.2045   -6.7009    7.1064 H   0  0  0  0  0  0  0  0  0  0  0  0
   -2.2708   -5.5106    6.5888 H   0  0  0  0  0  0  0  0  0  0  0  0
   -0.9691   -4.8172    5.5489 H   0  0  0  0  0  0  0  0  0  0  0  0
   -2.1804   -5.9748    4.8534 H   0  0  0  0  0  0  0  0  0  0  0  0
    2.8212   -4.3747    3.0732 H   0  0  0  0  0  0  0  0  0  0  0  0
    6.0717   -1.1558    3.4563 H   0  0  0  0  0  0  0  0  0  0  0  0
   10.2245    1.1393    6.1017 H   0  0  0  0  0  0  0  0  0  0  0  0
   10.6065    0.5869    4.4355 H   0  0  0  0  0  0  0  0  0  0  0  0
   10.8631    2.9598    3.6828 H   0  0  0  0  0  0  0  0  0  0  0  0
   10.4735    3.5318    5.3572 H   0  0  0  0  0  0  0  0  0  0  0  0
   11.9702    2.5737    5.0539 H   0  0  0  0  0  0  0  0  0  0  0  0
   -2.4400    0.4242   -0.8797 H   0  0  0  0  0  0  0  0  0  0  0  0
   -2.0401    1.5708   -2.1938 H   0  0  0  0  0  0  0  0  0  0  0  0
   -3.5643    2.6241   -0.5703 H   0  0  0  0  0  0  0  0  0  0  0  0
   -2.3970    2.3267    0.7642 H   0  0  0  0  0  0  0  0  0  0  0  0
   -1.9677    3.4689   -0.5694 H   0  0  0  0  0  0  0  0  0  0  0  0
    2.9200    3.6592   -0.6357 H   0  0  0  0  0  0  0  0  0  0  0  0
    6.2646    9.1164   -0.7814 H   0  0  0  0  0  0  0  0  0  0  0  0
    1.3175    5.0187   -0.8999 H   0  0  0  0  0  0  0  0  0  0  0  0
   -1.9778    7.3045   -2.5958 H   0  0  0  0  0  0  0  0  0  0  0  0
   -6.3735   11.6097   -2.6246 H   0  0  0  0  0  0  0  0  0  0  0  0
   -6.3867   11.1372   -4.3567 H   0  0  0  0  0  0  0  0  0  0  0  0
   -3.9010   11.5424   -4.4837 H   0  0  0  0  0  0  0  0  0  0  0  0
   -4.8216   13.0180   -3.9986 H   0  0  0  0  0  0  0  0  0  0  0  0
   -3.9211   12.0755   -2.7517 H   0  0  0  0  0  0  0  0  0  0  0  0
   -3.3881   -2.3945   -3.7769 H   0  0  0  0  0  0  0  0  0  0  0  0
   -2.4548   -2.5822   -5.2976 H   0  0  0  0  0  0  0  0  0  0  0  0
   -5.4836   -1.9836   -5.1019 H   0  0  0  0  0  0  0  0  0  0  0  0
   -4.7285   -3.5691   -5.5079 H   0  0  0  0  0  0  0  0  0  0  0  0
   -4.5431   -2.1704   -6.6358 H   0  0  0  0  0  0  0  0  0  0  0  0
   -5.9905    2.0068   -5.1192 H   0  0  0  0  0  0  0  0  0  0  0  0
  -11.4883    2.7051   -7.1493 H   0  0  0  0  0  0  0  0  0  0  0  0
   -6.9213    1.1831   -2.9688 H   0  0  0  0  0  0  0  0  0  0  0  0
   -6.6954   -3.6341   -2.8794 H   0  0  0  0  0  0  0  0  0  0  0  0
   -7.4664   -8.9271   -4.2072 H   0  0  0  0  0  0  0  0  0  0  0  0
   -8.6019   -8.2073   -3.0170 H   0  0  0  0  0  0  0  0  0  0  0  0
   -8.2621  -10.6059   -2.5243 H   0  0  0  0  0  0  0  0  0  0  0  0
   -7.5687   -9.6123   -1.1914 H   0  0  0  0  0  0  0  0  0  0  0  0
   -6.4774  -10.3712   -2.4260 H   0  0  0  0  0  0  0  0  0  0  0  0
   -0.4904    1.4164    3.0937 H   0  0  0  0  0  0  0  0  0  0  0  0
   -1.8214    2.3114    3.8928 H   0  0  0  0  0  0  0  0  0  0  0  0
   -0.6604   -0.3990    4.8289 H   0  0  0  0  0  0  0  0  0  0  0  0
   -1.9650    0.5418    5.6634 H   0  0  0  0  0  0  0  0  0  0  0  0
   -0.2950    1.2175    5.5481 H   0  0  0  0  0  0  0  0  0  0  0  0
   -2.1466   -3.3390    2.6075 H   0  0  0  0  0  0  0  0  0  0  0  0
   -1.5595   -5.8549    2.5135 H   0  0  0  0  0  0  0  0  0  0  0  0
  1  2  2  0
  2  3  1  0
  3  4  2  0
  4  5  1  0
  5  6  1  0
  6  7  1  0
  7  8  1  0
  8  9  1  0
  7 10  2  0
 10 11  1  0
 10 12  1  0
 12 13  1  0
  4 14  1  0
 14 15  2  0
 15 16  1  0
 16 17  1  0
 17 18  1  0
 18 19  1  0
 19 20  1  0
 20 21  1  0
 19 22  2  0
 22 23  1  0
 23 24  1  0
 22 25  1  0
 16 26  2  0
 26 27  1  0
 15 28  1  0
 28 29  2  0
 29 30  1  0
 29 31  1  0
 31 32  2  0
 32 33  1  0
 33 34  2  0
 34 35  1  0
 35 36  1  0
 36 37  1  0
 37 38  1  0
 38 39  1  0
 37 40  2  0
 40 41  1  0
 40 42  1  0
 42 43  1  0
 34 44  1  0
 44 45  2  0
 45 46  1  0
 46 47  1  0
 47 48  1  0
 48 49  1  0
 49 50  1  0
 50 51  1  0
 49 52  2  0
 52 53  1  0
 53 54  1  0
 52 55  1  0
 46 56  2  0
 56 57  1  0
 45 58  1  0
 58 59  2  0
 59 60  1  0
 59 61  1  0
 61 62  1  0
 62 63  1  0
 63 64  2  0
 64 65  1  0
 65 66  1  0
 66 67  2  0
 67 68  1  0
 67 69  1  0
 69 70  1  0
 70 71  2  0
 70 72  1  0
 72 73  2  0
 73 74  1  0
 74 75  2  0
 75 76  1  0
 76 77  1  0
 77 78  1  0
 78 79  1  0
 79 80  1  0
 78 81  2  0
 81 82  1  0
 81 83  1  0
 83 84  1  0
 75 85  1  0
 85 86  2  0
 86 87  1  0
 87 88  1  0
 88 89  1  0
 89 90  1  0
 90 91  1  0
 91 92  1  0
 90 93  2  0
 93 94  1  0
 94 95  1  0
 93 96  1  0
 87 97  2  0
 97 98  1  0
 86 99  1  0
 99100  2  0
100101  1  0
100102  1  0
102103  1  0
103104  1  0
104105  2  0
105106  1  0
106107  1  0
107108  2  0
108109  1  0
108110  1  0
110111  1  0
111112  2  0
111113  1  0
113114  2  0
114115  1  0
115116  2  0
116117  1  0
117118  1  0
118119  1  0
119120  1  0
120121  1  0
119122  2  0
122123  1  0
122124  1  0
124125  1  0
116126  1  0
126127  2  0
127128  1  0
128129  1  0
129130  1  0
130131  1  0
131132  1  0
132133  1  0
131134  2  0
134135  1  0
135136  1  0
134137  1  0
128138  2  0
138139  1  0
127140  1  0
140141  2  0
141142  1  0
 27  1  1  0
 57 31  1  0
 65 61  2  0
 71 66  1  0
 98 72  1  0
106102  2  0
112107  1  0
139113  1  0
 26  3  1  0
 56 33  1  0
 68 64  1  0
 97 74  1  0
109105  1  0
138115  1  0
 12  5  2  0
 30 14  1  0
 42 35  2  0
 60 44  1  0
 83 76  2  0
101 85  1  0
124117  2  0
142126  1  0
 23 17  2  0
 53 47  2  0
 94 88  2  0
135129  2  0
  1143  1  0
  2144  1  0
  8145  1  0
  8146  1  0
  9147  1  0
  9148  1  0
  9149  1  0
 20150  1  0
 20151  1  0
 21152  1  0
 21153  1  0
 21154  1  0
 28155  1  0
 32156  1  0
 38157  1  0
 38158  1  0
 39159  1  0
 39160  1  0
 39161  1  0
 50162  1  0
 50163  1  0
 51164  1  0
 51165  1  0
 51166  1  0
 58167  1  0
 63168  1  0
 71169  1  0
 73170  1  0
 79171  1  0
 79172  1  0
 80173  1  0
 80174  1  0
 80175  1  0
 91176  1  0
 91177  1  0
 92178  1  0
 92179  1  0
 92180  1  0
 99181  1  0
104182  1  0
112183  1  0
114184  1  0
120185  1  0
120186  1  0
121187  1  0
121188  1  0
121189  1  0
132190  1  0
132191  1  0
133192  1  0
133193  1  0
133194  1  0
140195  1  0
141196  1  0
M  END

