
     RDKit          3D

138159  0  0  0  0  0  0  0  0999 V2000
    2.4332   -0.3681    5.6197 C   0  0  0  0  0  0  0  0  0  0  0  0
    2.0690    0.9699    5.4998 C   0  0  0  0  0  0  0  0  0  0  0  0
    0.6884    1.1501    5.3173 C   0  0  0  0  0  0  0  0  0  0  0  0
    0.0178    2.3796    5.1560 C   0  0  0  0  0  0  0  0  0  0  0  0
    0.7391    3.6602    5.1223 C   0  0  0  0  0  0  0  0  0  0  0  0
    0.6957    4.8186    6.3387 S   0  0  0  0  0  0  0  0  0  0  0  0
    1.7376    5.9043    5.5838 C   0  0  0  0  0  0  0  0  0  0  0  0
    2.1269    7.2361    6.1485 C   0  0  0  0  0  0  0  0  0  0  0  0
    1.0932    8.2963    5.7953 C   0  0  0  0  0  0  0  0  0  0  0  0
    2.1081    5.3806    4.3443 C   0  0  0  0  0  0  0  0  0  0  0  0
    3.1526    6.2206    3.2060 Cl  0  0  0  0  0  0  0  0  0  0  0  0
    1.5558    4.1151    4.0918 C   0  0  0  0  0  0  0  0  0  0  0  0
    1.8405    3.2097    2.6109 Cl  0  0  0  0  0  0  0  0  0  0  0  0
   -1.3772    2.3279    4.9926 C   0  0  0  0  0  0  0  0  0  0  0  0
   -2.0842    1.1221    4.9580 C   0  0  0  0  0  0  0  0  0  0  0  0
   -1.4137   -0.1049    5.1119 C   0  0  0  0  0  0  0  0  0  0  0  0
   -2.1230   -1.3894    5.0129 C   0  0  0  0  0  0  0  0  0  0  0  0
   -2.7724   -2.0046    3.5934 S   0  0  0  0  0  0  0  0  0  0  0  0
   -3.4321   -3.3894    4.2809 C   0  0  0  0  0  0  0  0  0  0  0  0
   -4.2429   -4.4013    3.5305 C   0  0  0  0  0  0  0  0  0  0  0  0
   -5.6862   -3.9345    3.3870 C   0  0  0  0  0  0  0  0  0  0  0  0
   -3.1754   -3.3701    5.6515 C   0  0  0  0  0  0  0  0  0  0  0  0
   -2.4302   -2.2520    6.0591 C   0  0  0  0  0  0  0  0  0  0  0  0
   -1.9741   -1.9467    7.7295 Cl  0  0  0  0  0  0  0  0  0  0  0  0
   -3.7393   -4.6074    6.7654 Cl  0  0  0  0  0  0  0  0  0  0  0  0
   -0.0244   -0.0522    5.3018 C   0  0  0  0  0  0  0  0  0  0  0  0
    1.0510   -1.3288    5.5013 S   0  0  0  0  0  0  0  0  0  0  0  0
   -3.4591    1.2934    4.7465 C   0  0  0  0  0  0  0  0  0  0  0  0
   -3.8157    2.6287    4.5819 C   0  0  0  0  0  0  0  0  0  0  0  0
   -2.4480    3.6049    4.7455 S   0  0  0  0  0  0  0  0  0  0  0  0
   -5.1675    3.1115    4.2889 C   0  0  0  0  0  0  0  0  0  0  0  0
   -5.9569    4.3899    5.0701 S   0  0  0  0  0  0  0  0  0  0  0  0
   -7.4483    4.2871    4.2676 C   0  0  0  0  0  0  0  0  0  0  0  0
   -7.3134    3.2395    3.3738 C   0  0  0  0  0  0  0  0  0  0  0  0
   -6.0783    2.6027    3.3700 C   0  0  0  0  0  0  0  0  0  0  0  0
   -5.9929    1.6488    2.3599 C   0  0  0  0  0  0  0  0  0  0  0  0
   -7.1561    1.5472    1.6502 C   0  0  0  0  0  0  0  0  0  0  0  0
   -8.3465    2.6393    2.1622 S   0  0  0  0  0  0  0  0  0  0  0  0
   -6.9841    0.5272    0.3333 S   0  0  0  0  0  0  0  0  0  0  0  0
   -5.3493    0.1859    0.6984 C   0  0  0  0  0  0  0  0  0  0  0  0
   -4.9470    0.8926    1.8389 C   0  0  0  0  0  0  0  0  0  0  0  0
   -4.4443   -0.6243   -0.1309 C   0  0  0  0  0  0  0  0  0  0  0  0
   -4.7393   -1.1613   -1.3828 C   0  0  0  0  0  0  0  0  0  0  0  0
   -3.6355   -1.8032   -1.9717 C   0  0  0  0  0  0  0  0  0  0  0  0
   -3.5970   -2.3942   -3.2494 C   0  0  0  0  0  0  0  0  0  0  0  0
   -4.7692   -2.3983   -4.1393 C   0  0  0  0  0  0  0  0  0  0  0  0
   -6.1615   -3.3040   -3.8819 S   0  0  0  0  0  0  0  0  0  0  0  0
   -6.9494   -2.8243   -5.2906 C   0  0  0  0  0  0  0  0  0  0  0  0
   -8.2619   -3.3745   -5.7542 C   0  0  0  0  0  0  0  0  0  0  0  0
   -8.0505   -4.5584   -6.6917 C   0  0  0  0  0  0  0  0  0  0  0  0
   -6.1164   -1.9546   -5.9939 C   0  0  0  0  0  0  0  0  0  0  0  0
   -6.5332   -1.2521   -7.5511 Cl  0  0  0  0  0  0  0  0  0  0  0  0
   -4.8990   -1.7068   -5.3422 C   0  0  0  0  0  0  0  0  0  0  0  0
   -3.6653   -0.6212   -5.9762 Cl  0  0  0  0  0  0  0  0  0  0  0  0
   -2.3692   -2.9403   -3.6623 C   0  0  0  0  0  0  0  0  0  0  0  0
   -1.2209   -2.8978   -2.8639 C   0  0  0  0  0  0  0  0  0  0  0  0
   -1.2545   -2.2975   -1.5910 C   0  0  0  0  0  0  0  0  0  0  0  0
   -0.0456   -2.1909   -0.7540 C   0  0  0  0  0  0  0  0  0  0  0  0
    0.7984   -3.5018   -0.1218 S   0  0  0  0  0  0  0  0  0  0  0  0
    2.0445   -2.5991    0.5608 C   0  0  0  0  0  0  0  0  0  0  0  0
    3.1894   -3.1779    1.3335 C   0  0  0  0  0  0  0  0  0  0  0  0
    2.9485   -3.0604    2.8344 C   0  0  0  0  0  0  0  0  0  0  0  0
    1.8090   -1.2491    0.3054 C   0  0  0  0  0  0  0  0  0  0  0  0
    0.6399   -1.0208   -0.4365 C   0  0  0  0  0  0  0  0  0  0  0  0
    0.1293    0.5790   -0.9608 Cl  0  0  0  0  0  0  0  0  0  0  0  0
    2.8834    0.0405    0.8294 Cl  0  0  0  0  0  0  0  0  0  0  0  0
   -2.4839   -1.7603   -1.1776 C   0  0  0  0  0  0  0  0  0  0  0  0
   -2.8288   -0.9411    0.2449 S   0  0  0  0  0  0  0  0  0  0  0  0
   -0.0879   -3.4250   -3.5018 C   0  0  0  0  0  0  0  0  0  0  0  0
   -0.3538   -3.8610   -4.7941 C   0  0  0  0  0  0  0  0  0  0  0  0
   -1.9879   -3.6441   -5.1443 S   0  0  0  0  0  0  0  0  0  0  0  0
    0.6518   -4.3054   -5.7596 C   0  0  0  0  0  0  0  0  0  0  0  0
    0.5526   -5.6898   -6.7298 S   0  0  0  0  0  0  0  0  0  0  0  0
    2.0114   -5.5052   -7.5742 C   0  0  0  0  0  0  0  0  0  0  0  0
    2.5648   -4.3308   -7.0947 C   0  0  0  0  0  0  0  0  0  0  0  0
    1.8332   -3.6657   -6.1162 C   0  0  0  0  0  0  0  0  0  0  0  0
    2.4134   -2.4446   -5.7776 C   0  0  0  0  0  0  0  0  0  0  0  0
    3.5697   -2.2246   -6.4708 C   0  0  0  0  0  0  0  0  0  0  0  0
    3.9501   -3.4624   -7.5607 S   0  0  0  0  0  0  0  0  0  0  0  0
    4.2044   -0.7115   -6.1398 S   0  0  0  0  0  0  0  0  0  0  0  0
    2.9720   -0.3389   -5.0174 C   0  0  0  0  0  0  0  0  0  0  0  0
    2.0337   -1.3778   -4.9632 C   0  0  0  0  0  0  0  0  0  0  0  0
    2.8071    0.9502   -4.3325 C   0  0  0  0  0  0  0  0  0  0  0  0
    1.3421    1.7927   -4.1954 S   0  0  0  0  0  0  0  0  0  0  0  0
    1.9125    3.1697   -3.3914 C   0  0  0  0  0  0  0  0  0  0  0  0
    3.2685    2.9587   -3.2281 C   0  0  0  0  0  0  0  0  0  0  0  0
    3.7648    1.7541   -3.7203 C   0  0  0  0  0  0  0  0  0  0  0  0
    5.1181    1.6052   -3.4279 C   0  0  0  0  0  0  0  0  0  0  0  0
    5.6241    2.6964   -2.7800 C   0  0  0  0  0  0  0  0  0  0  0  0
    4.4683    3.8926   -2.4682 S   0  0  0  0  0  0  0  0  0  0  0  0
    7.2380    2.4917   -2.3845 S   0  0  0  0  0  0  0  0  0  0  0  0
    7.2847    0.9195   -3.0452 C   0  0  0  0  0  0  0  0  0  0  0  0
    6.0397    0.5748   -3.5878 C   0  0  0  0  0  0  0  0  0  0  0  0
    8.4843    0.0775   -3.1040 C   0  0  0  0  0  0  0  0  0  0  0  0
   10.0211    0.6036   -3.5882 S   0  0  0  0  0  0  0  0  0  0  0  0
   10.7986   -0.9015   -3.6347 C   0  0  0  0  0  0  0  0  0  0  0  0
    9.8341   -1.8210   -3.2653 C   0  0  0  0  0  0  0  0  0  0  0  0
    8.5778   -1.3034   -2.9656 C   0  0  0  0  0  0  0  0  0  0  0  0
    7.6973   -2.2978   -2.5457 C   0  0  0  0  0  0  0  0  0  0  0  0
    8.2815   -3.5322   -2.5768 C   0  0  0  0  0  0  0  0  0  0  0  0
    9.9015   -3.5074   -3.0653 S   0  0  0  0  0  0  0  0  0  0  0  0
    7.2457   -4.7123   -1.9972 S   0  0  0  0  0  0  0  0  0  0  0  0
    5.9922   -3.5974   -1.6881 C   0  0  0  0  0  0  0  0  0  0  0  0
    6.4020   -2.3015   -2.0252 C   0  0  0  0  0  0  0  0  0  0  0  0
    3.4413   -0.7312    5.7649 H   0  0  0  0  0  0  0  0  0  0  0  0
    2.7858    1.7793    5.5417 H   0  0  0  0  0  0  0  0  0  0  0  0
    3.1192    7.5414    5.7566 H   0  0  0  0  0  0  0  0  0  0  0  0
    2.2087    7.1564    7.2534 H   0  0  0  0  0  0  0  0  0  0  0  0
    0.9881    8.3836    4.6935 H   0  0  0  0  0  0  0  0  0  0  0  0
    1.4147    9.2791    6.2000 H   0  0  0  0  0  0  0  0  0  0  0  0
    0.1092    8.0333    6.2394 H   0  0  0  0  0  0  0  0  0  0  0  0
   -4.2186   -5.3788    4.0567 H   0  0  0  0  0  0  0  0  0  0  0  0
   -3.8013   -4.5500    2.5224 H   0  0  0  0  0  0  0  0  0  0  0  0
   -6.1428   -3.7828    4.3884 H   0  0  0  0  0  0  0  0  0  0  0  0
   -5.7299   -2.9838    2.8117 H   0  0  0  0  0  0  0  0  0  0  0  0
   -6.2692   -4.7077    2.8459 H   0  0  0  0  0  0  0  0  0  0  0  0
   -4.1708    0.4805    4.7014 H   0  0  0  0  0  0  0  0  0  0  0  0
   -8.3097    4.9273    4.4003 H   0  0  0  0  0  0  0  0  0  0  0  0
   -3.9330    0.9076    2.2087 H   0  0  0  0  0  0  0  0  0  0  0  0
   -5.7055   -1.0626   -1.8607 H   0  0  0  0  0  0  0  0  0  0  0  0
   -8.8528   -3.7050   -4.8732 H   0  0  0  0  0  0  0  0  0  0  0  0
   -8.8429   -2.5841   -6.2749 H   0  0  0  0  0  0  0  0  0  0  0  0
   -7.4247   -5.3331   -6.2013 H   0  0  0  0  0  0  0  0  0  0  0  0
   -9.0333   -5.0048   -6.9557 H   0  0  0  0  0  0  0  0  0  0  0  0
   -7.5505   -4.2242   -7.6263 H   0  0  0  0  0  0  0  0  0  0  0  0
    4.1286   -2.6486    1.0659 H   0  0  0  0  0  0  0  0  0  0  0  0
    3.3143   -4.2500    1.0681 H   0  0  0  0  0  0  0  0  0  0  0  0
    3.7975   -3.5176    3.3832 H   0  0  0  0  0  0  0  0  0  0  0  0
    2.8736   -1.9913    3.1280 H   0  0  0  0  0  0  0  0  0  0  0  0
    2.0134   -3.5846    3.1206 H   0  0  0  0  0  0  0  0  0  0  0  0
    0.9015   -3.4460   -3.0635 H   0  0  0  0  0  0  0  0  0  0  0  0
    2.4084   -6.1443   -8.3500 H   0  0  0  0  0  0  0  0  0  0  0  0
    1.1222   -1.3228   -4.3895 H   0  0  0  0  0  0  0  0  0  0  0  0
    1.3402    4.0248   -3.0621 H   0  0  0  0  0  0  0  0  0  0  0  0
    5.8326   -0.3783   -4.0434 H   0  0  0  0  0  0  0  0  0  0  0  0
   11.8288   -1.1022   -3.8956 H   0  0  0  0  0  0  0  0  0  0  0  0
    5.0295   -3.8485   -1.2614 H   0  0  0  0  0  0  0  0  0  0  0  0
    5.7955   -1.4241   -1.8555 H   0  0  0  0  0  0  0  0  0  0  0  0
  1  2  2  0
  2  3  1  0
  3  4  2  0
  4  5  1  0
  5  6  1  0
  6  7  1  0
  7  8  1  0
  8  9  1  0
  7 10  2  0
 10 11  1  0
 10 12  1  0
 12 13  1  0
  4 14  1  0
 14 15  2  0
 15 16  1  0
 16 17  1  0
 17 18  1  0
 18 19  1  0
 19 20  1  0
 20 21  1  0
 19 22  2  0
 22 23  1  0
 23 24  1  0
 22 25  1  0
 16 26  2  0
 26 27  1  0
 15 28  1  0
 28 29  2  0
 29 30  1  0
 29 31  1  0
 31 32  1  0
 32 33  1  0
 33 34  2  0
 34 35  1  0
 35 36  1  0
 36 37  2  0
 37 38  1  0
 37 39  1  0
 39 40  1  0
 40 41  2  0
 40 42  1  0
 42 43  2  0
 43 44  1  0
 44 45  2  0
 45 46  1  0
 46 47  1  0
 47 48  1  0
 48 49  1  0
 49 50  1  0
 48 51  2  0
 51 52  1  0
 51 53  1  0
 53 54  1  0
 45 55  1  0
 55 56  2  0
 56 57  1  0
 57 58  1  0
 58 59  1  0
 59 60  1  0
 60 61  1  0
 61 62  1  0
 60 63  2  0
 63 64  1  0
 64 65  1  0
 63 66  1  0
 57 67  2  0
 67 68  1  0
 56 69  1  0
 69 70  2  0
 70 71  1  0
 70 72  1  0
 72 73  1  0
 73 74  1  0
 74 75  2  0
 75 76  1  0
 76 77  1  0
 77 78  2  0
 78 79  1  0
 78 80  1  0
 80 81  1  0
 81 82  2  0
 81 83  1  0
 83 84  1  0
 84 85  1  0
 85 86  2  0
 86 87  1  0
 87 88  1  0
 88 89  2  0
 89 90  1  0
 89 91  1  0
 91 92  1  0
 92 93  2  0
 92 94  1  0
 94 95  1  0
 95 96  1  0
 96 97  2  0
 97 98  1  0
 98 99  1  0
 99100  2  0
100101  1  0
100102  1  0
102103  1  0
103104  2  0
 27  1  1  0
 35 31  2  0
 41 36  1  0
 68 42  1  0
 76 72  2  0
 82 77  1  0
 87 83  2  0
 93 88  1  0
 98 94  2  0
104 99  1  0
 26  3  1  0
 38 34  1  0
 67 44  1  0
 79 75  1  0
 90 86  1  0
101 97  1  0
 12  5  2  0
 30 14  1  0
 53 46  2  0
 71 55  1  0
 23 17  2  0
 64 58  2  0
  1105  1  0
  2106  1  0
  8107  1  0
  8108  1  0
  9109  1  0
  9110  1  0
  9111  1  0
 20112  1  0
 20113  1  0
 21114  1  0
 21115  1  0
 21116  1  0
 28117  1  0
 33118  1  0
 41119  1  0
 43120  1  0
 49121  1  0
 49122  1  0
 50123  1  0
 50124  1  0
 50125  1  0
 61126  1  0
 61127  1  0
 62128  1  0
 62129  1  0
 62130  1  0
 69131  1  0
 74132  1  0
 82133  1  0
 85134  1  0
 93135  1  0
 96136  1  0
103137  1  0
104138  1  0
M  END

