
     RDKit          3D

140152  0  0  0  0  0  0  0  0999 V2000
    1.7500    4.3110   -1.0593 C   0  0  0  0  0  0  0  0  0  0  0  0
    1.3145    3.9766    0.5311 S   0  0  0  0  0  0  0  0  0  0  0  0
   -0.2980    4.4479    0.4122 C   0  0  0  0  0  0  0  0  0  0  0  0
   -0.5160    4.8961   -0.8899 C   0  0  0  0  0  0  0  0  0  0  0  0
    0.6234    4.8092   -1.7029 C   0  0  0  0  0  0  0  0  0  0  0  0
    0.5813    5.1999   -3.0425 C   0  0  0  0  0  0  0  0  0  0  0  0
   -0.6250    5.7017   -3.5958 C   0  0  0  0  0  0  0  0  0  0  0  0
   -0.7147    6.1895   -5.0555 C   0  0  0  0  0  0  0  0  0  0  0  0
   -0.7596    7.7308   -5.0607 C   0  0  0  0  0  0  0  0  0  0  0  0
   -1.9953    5.6360   -5.7289 C   0  0  0  0  0  0  0  0  0  0  0  0
    0.4908    5.7336   -5.9165 C   0  0  0  0  0  0  0  0  0  0  0  0
   -1.7499    5.8353   -2.7377 C   0  0  0  0  0  0  0  0  0  0  0  0
   -1.7003    5.4322   -1.3979 C   0  0  0  0  0  0  0  0  0  0  0  0
   -1.2577    4.3866    1.5246 C   0  0  0  0  0  0  0  0  0  0  0  0
   -0.8887    4.8467    3.1020 S   0  0  0  0  0  0  0  0  0  0  0  0
   -2.3042    4.2886    3.8173 C   0  0  0  0  0  0  0  0  0  0  0  0
   -3.0714    3.6828    2.8253 C   0  0  0  0  0  0  0  0  0  0  0  0
   -2.4898    3.7268    1.5493 C   0  0  0  0  0  0  0  0  0  0  0  0
   -3.0695    3.0224    0.4887 C   0  0  0  0  0  0  0  0  0  0  0  0
   -4.2903    2.3266    0.6701 C   0  0  0  0  0  0  0  0  0  0  0  0
   -4.8820    1.4932   -0.4858 C   0  0  0  0  0  0  0  0  0  0  0  0
   -4.0809    0.1820   -0.5939 C   0  0  0  0  0  0  0  0  0  0  0  0
   -6.3725    1.1396   -0.2616 C   0  0  0  0  0  0  0  0  0  0  0  0
   -4.7922    2.2624   -1.8268 C   0  0  0  0  0  0  0  0  0  0  0  0
   -4.8585    2.3050    1.9712 C   0  0  0  0  0  0  0  0  0  0  0  0
   -4.2538    2.9745    3.0405 C   0  0  0  0  0  0  0  0  0  0  0  0
   -2.4299    4.0453    5.2540 C   0  0  0  0  0  0  0  0  0  0  0  0
   -2.7948    5.1870    6.4493 S   0  0  0  0  0  0  0  0  0  0  0  0
   -2.6257    4.1752    7.8027 C   0  0  0  0  0  0  0  0  0  0  0  0
   -2.2618    2.9376    7.2961 C   0  0  0  0  0  0  0  0  0  0  0  0
   -2.1489    2.8612    5.9160 C   0  0  0  0  0  0  0  0  0  0  0  0
   -1.7061    1.6128    5.4928 C   0  0  0  0  0  0  0  0  0  0  0  0
   -1.5064    0.7666    6.5425 C   0  0  0  0  0  0  0  0  0  0  0  0
   -1.8242    1.4761    8.0493 S   0  0  0  0  0  0  0  0  0  0  0  0
   -0.8880   -0.6972    6.0246 S   0  0  0  0  0  0  0  0  0  0  0  0
   -0.9074   -0.2440    4.3751 C   0  0  0  0  0  0  0  0  0  0  0  0
   -1.3643    1.0759    4.2511 C   0  0  0  0  0  0  0  0  0  0  0  0
   -0.3728   -1.0455    3.2539 C   0  0  0  0  0  0  0  0  0  0  0  0
    0.4158   -0.3831    1.9116 S   0  0  0  0  0  0  0  0  0  0  0  0
    0.8893   -1.8364    1.2059 C   0  0  0  0  0  0  0  0  0  0  0  0
    0.4278   -2.8730    2.0169 C   0  0  0  0  0  0  0  0  0  0  0  0
   -0.2835   -2.4405    3.1487 C   0  0  0  0  0  0  0  0  0  0  0  0
   -0.8436   -3.3816    4.0232 C   0  0  0  0  0  0  0  0  0  0  0  0
   -0.6525   -4.7686    3.8079 C   0  0  0  0  0  0  0  0  0  0  0  0
   -1.2550   -5.7798    4.8050 C   0  0  0  0  0  0  0  0  0  0  0  0
   -0.7100   -5.4973    6.2230 C   0  0  0  0  0  0  0  0  0  0  0  0
   -2.7926   -5.6444    4.8093 C   0  0  0  0  0  0  0  0  0  0  0  0
   -0.9115   -7.2495    4.4595 C   0  0  0  0  0  0  0  0  0  0  0  0
    0.0774   -5.1746    2.6601 C   0  0  0  0  0  0  0  0  0  0  0  0
    0.6042   -4.2364    1.7691 C   0  0  0  0  0  0  0  0  0  0  0  0
    1.8434   -1.9667    0.0921 C   0  0  0  0  0  0  0  0  0  0  0  0
    3.2645   -2.8624    0.1810 S   0  0  0  0  0  0  0  0  0  0  0  0
    3.7463   -2.6491   -1.4154 C   0  0  0  0  0  0  0  0  0  0  0  0
    2.7930   -1.8502   -2.0468 C   0  0  0  0  0  0  0  0  0  0  0  0
    1.7296   -1.4683   -1.2087 C   0  0  0  0  0  0  0  0  0  0  0  0
    0.6576   -0.7266   -1.7173 C   0  0  0  0  0  0  0  0  0  0  0  0
    0.6442   -0.3388   -3.0827 C   0  0  0  0  0  0  0  0  0  0  0  0
   -0.5480    0.4704   -3.6321 C   0  0  0  0  0  0  0  0  0  0  0  0
   -0.3487    0.9343   -5.0954 C   0  0  0  0  0  0  0  0  0  0  0  0
   -1.8190   -0.4015   -3.5831 C   0  0  0  0  0  0  0  0  0  0  0  0
   -0.7463    1.7364   -2.7728 C   0  0  0  0  0  0  0  0  0  0  0  0
    1.7262   -0.7466   -3.9072 C   0  0  0  0  0  0  0  0  0  0  0  0
    2.7891   -1.4969   -3.3961 C   0  0  0  0  0  0  0  0  0  0  0  0
    4.9321   -3.2804   -2.0163 C   0  0  0  0  0  0  0  0  0  0  0  0
    6.1426   -2.4701   -2.8642 S   0  0  0  0  0  0  0  0  0  0  0  0
    7.1627   -3.7926   -3.0901 C   0  0  0  0  0  0  0  0  0  0  0  0
    6.5561   -4.8905   -2.4916 C   0  0  0  0  0  0  0  0  0  0  0  0
    5.3188   -4.6147   -1.8966 C   0  0  0  0  0  0  0  0  0  0  0  0
    4.5799   -5.6367   -1.2911 C   0  0  0  0  0  0  0  0  0  0  0  0
    5.0964   -6.9533   -1.2322 C   0  0  0  0  0  0  0  0  0  0  0  0
    4.2651   -8.0569   -0.5466 C   0  0  0  0  0  0  0  0  0  0  0  0
    2.9496   -8.2652   -1.3305 C   0  0  0  0  0  0  0  0  0  0  0  0
    5.0008   -9.4166   -0.4856 C   0  0  0  0  0  0  0  0  0  0  0  0
    3.9344   -7.6373    0.9043 C   0  0  0  0  0  0  0  0  0  0  0  0
    6.3637   -7.2017   -1.8272 C   0  0  0  0  0  0  0  0  0  0  0  0
    7.0853   -6.1777   -2.4556 C   0  0  0  0  0  0  0  0  0  0  0  0
    2.7307    4.1647   -1.4980 H   0  0  0  0  0  0  0  0  0  0  0  0
    1.4853    5.1034   -3.6250 H   0  0  0  0  0  0  0  0  0  0  0  0
   -0.8130    8.1195   -6.1008 H   0  0  0  0  0  0  0  0  0  0  0  0
   -1.6465    8.1043   -4.5044 H   0  0  0  0  0  0  0  0  0  0  0  0
    0.1521    8.1436   -4.5749 H   0  0  0  0  0  0  0  0  0  0  0  0
   -1.9957    5.8539   -6.8207 H   0  0  0  0  0  0  0  0  0  0  0  0
   -2.0601    4.5318   -5.5938 H   0  0  0  0  0  0  0  0  0  0  0  0
   -2.9167    6.0983   -5.3134 H   0  0  0  0  0  0  0  0  0  0  0  0
    0.5993    4.6265   -5.8808 H   0  0  0  0  0  0  0  0  0  0  0  0
    0.3533    6.0349   -6.9777 H   0  0  0  0  0  0  0  0  0  0  0  0
    1.4338    6.2085   -5.5697 H   0  0  0  0  0  0  0  0  0  0  0  0
   -2.6721    6.2670   -3.0963 H   0  0  0  0  0  0  0  0  0  0  0  0
   -2.5736    5.5512   -0.7703 H   0  0  0  0  0  0  0  0  0  0  0  0
   -2.5489    2.9803   -0.4534 H   0  0  0  0  0  0  0  0  0  0  0  0
   -3.0012    0.3976   -0.7387 H   0  0  0  0  0  0  0  0  0  0  0  0
   -4.4407   -0.4298   -1.4490 H   0  0  0  0  0  0  0  0  0  0  0  0
   -4.1853   -0.4133    0.3377 H   0  0  0  0  0  0  0  0  0  0  0  0
   -6.9620    2.0590   -0.0467 H   0  0  0  0  0  0  0  0  0  0  0  0
   -6.4971    0.4200    0.5759 H   0  0  0  0  0  0  0  0  0  0  0  0
   -6.8075    0.6538   -1.1618 H   0  0  0  0  0  0  0  0  0  0  0  0
   -3.7466    2.3748   -2.1775 H   0  0  0  0  0  0  0  0  0  0  0  0
   -5.3288    1.7177   -2.6347 H   0  0  0  0  0  0  0  0  0  0  0  0
   -5.2448    3.2732   -1.7243 H   0  0  0  0  0  0  0  0  0  0  0  0
   -5.7603    1.7535    2.1876 H   0  0  0  0  0  0  0  0  0  0  0  0
   -4.6916    2.9160    4.0291 H   0  0  0  0  0  0  0  0  0  0  0  0
   -2.7354    4.4447    8.8427 H   0  0  0  0  0  0  0  0  0  0  0  0
   -1.4112    1.6085    3.3132 H   0  0  0  0  0  0  0  0  0  0  0  0
   -1.4433   -3.0499    4.8537 H   0  0  0  0  0  0  0  0  0  0  0  0
    0.4003   -5.5452    6.2271 H   0  0  0  0  0  0  0  0  0  0  0  0
   -1.0175   -4.4945    6.5888 H   0  0  0  0  0  0  0  0  0  0  0  0
   -1.0957   -6.2458    6.9491 H   0  0  0  0  0  0  0  0  0  0  0  0
   -3.2514   -6.3966    5.4877 H   0  0  0  0  0  0  0  0  0  0  0  0
   -3.1966   -5.8016    3.7865 H   0  0  0  0  0  0  0  0  0  0  0  0
   -3.1125   -4.6406    5.1597 H   0  0  0  0  0  0  0  0  0  0  0  0
   -1.3335   -7.5353    3.4708 H   0  0  0  0  0  0  0  0  0  0  0  0
   -1.3409   -7.9443    5.2162 H   0  0  0  0  0  0  0  0  0  0  0  0
    0.1911   -7.4078    4.4496 H   0  0  0  0  0  0  0  0  0  0  0  0
    0.2458   -6.2144    2.4256 H   0  0  0  0  0  0  0  0  0  0  0  0
    1.1288   -4.5810    0.8883 H   0  0  0  0  0  0  0  0  0  0  0  0
   -0.1658   -0.4744   -1.0610 H   0  0  0  0  0  0  0  0  0  0  0  0
   -1.2049    1.5606   -5.4294 H   0  0  0  0  0  0  0  0  0  0  0  0
    0.5755    1.5462   -5.1935 H   0  0  0  0  0  0  0  0  0  0  0  0
   -0.2921    0.0643   -5.7854 H   0  0  0  0  0  0  0  0  0  0  0  0
   -2.7059    0.1748   -3.9230 H   0  0  0  0  0  0  0  0  0  0  0  0
   -2.0194   -0.7683   -2.5567 H   0  0  0  0  0  0  0  0  0  0  0  0
   -1.6998   -1.2890   -4.2416 H   0  0  0  0  0  0  0  0  0  0  0  0
   -1.4987    2.4149   -3.2292 H   0  0  0  0  0  0  0  0  0  0  0  0
    0.2140    2.2843   -2.6906 H   0  0  0  0  0  0  0  0  0  0  0  0
   -1.0944    1.4879   -1.7500 H   0  0  0  0  0  0  0  0  0  0  0  0
    1.7647   -0.5013   -4.9572 H   0  0  0  0  0  0  0  0  0  0  0  0
    3.5856   -1.8096   -4.0579 H   0  0  0  0  0  0  0  0  0  0  0  0
    8.1163   -3.7869   -3.6017 H   0  0  0  0  0  0  0  0  0  0  0  0
    3.6021   -5.4191   -0.8886 H   0  0  0  0  0  0  0  0  0  0  0  0
    2.3264   -7.3457   -1.3324 H   0  0  0  0  0  0  0  0  0  0  0  0
    3.1675   -8.5405   -2.3861 H   0  0  0  0  0  0  0  0  0  0  0  0
    2.3444   -9.0807   -0.8747 H   0  0  0  0  0  0  0  0  0  0  0  0
    5.2021   -9.8067   -1.5070 H   0  0  0  0  0  0  0  0  0  0  0  0
    4.3834  -10.1774    0.0428 H   0  0  0  0  0  0  0  0  0  0  0  0
    5.9608   -9.3195    0.0669 H   0  0  0  0  0  0  0  0  0  0  0  0
    4.8681   -7.3979    1.4572 H   0  0  0  0  0  0  0  0  0  0  0  0
    3.2710   -6.7477    0.9352 H   0  0  0  0  0  0  0  0  0  0  0  0
    3.4094   -8.4554    1.4436 H   0  0  0  0  0  0  0  0  0  0  0  0
    6.8124   -8.1839   -1.8229 H   0  0  0  0  0  0  0  0  0  0  0  0
    8.0443   -6.3903   -2.9094 H   0  0  0  0  0  0  0  0  0  0  0  0
  1  2  1  0
  2  3  1  0
  3  4  2  0
  4  5  1  0
  5  6  1  0
  6  7  2  0
  7  8  1  0
  8  9  1  0
  8 10  1  0
  8 11  1  0
  7 12  1  0
 12 13  2  0
  3 14  1  0
 14 15  1  0
 15 16  1  0
 16 17  2  0
 17 18  1  0
 18 19  1  0
 19 20  2  0
 20 21  1  0
 21 22  1  0
 21 23  1  0
 21 24  1  0
 20 25  1  0
 25 26  2  0
 16 27  1  0
 27 28  1  0
 28 29  1  0
 29 30  2  0
 30 31  1  0
 31 32  1  0
 32 33  2  0
 33 34  1  0
 33 35  1  0
 35 36  1  0
 36 37  2  0
 36 38  1  0
 38 39  1  0
 39 40  1  0
 40 41  2  0
 41 42  1  0
 42 43  1  0
 43 44  2  0
 44 45  1  0
 45 46  1  0
 45 47  1  0
 45 48  1  0
 44 49  1  0
 49 50  2  0
 40 51  1  0
 51 52  1  0
 52 53  1  0
 53 54  2  0
 54 55  1  0
 55 56  1  0
 56 57  2  0
 57 58  1  0
 58 59  1  0
 58 60  1  0
 58 61  1  0
 57 62  1  0
 62 63  2  0
 53 64  1  0
 64 65  1  0
 65 66  1  0
 66 67  2  0
 67 68  1  0
 68 69  1  0
 69 70  2  0
 70 71  1  0
 71 72  1  0
 71 73  1  0
 71 74  1  0
 70 75  1  0
 75 76  2  0
  5  1  2  0
 18 14  2  0
 31 27  2  0
 37 32  1  0
 42 38  2  0
 55 51  2  0
 68 64  2  0
 13  4  1  0
 26 17  1  0
 34 30  1  0
 50 41  1  0
 63 54  1  0
 76 67  1  0
  1 77  1  0
  6 78  1  0
  9 79  1  0
  9 80  1  0
  9 81  1  0
 10 82  1  0
 10 83  1  0
 10 84  1  0
 11 85  1  0
 11 86  1  0
 11 87  1  0
 12 88  1  0
 13 89  1  0
 19 90  1  0
 22 91  1  0
 22 92  1  0
 22 93  1  0
 23 94  1  0
 23 95  1  0
 23 96  1  0
 24 97  1  0
 24 98  1  0
 24 99  1  0
 25100  1  0
 26101  1  0
 29102  1  0
 37103  1  0
 43104  1  0
 46105  1  0
 46106  1  0
 46107  1  0
 47108  1  0
 47109  1  0
 47110  1  0
 48111  1  0
 48112  1  0
 48113  1  0
 49114  1  0
 50115  1  0
 56116  1  0
 59117  1  0
 59118  1  0
 59119  1  0
 60120  1  0
 60121  1  0
 60122  1  0
 61123  1  0
 61124  1  0
 61125  1  0
 62126  1  0
 63127  1  0
 66128  1  0
 69129  1  0
 72130  1  0
 72131  1  0
 72132  1  0
 73133  1  0
 73134  1  0
 73135  1  0
 74136  1  0
 74137  1  0
 74138  1  0
 75139  1  0
 76140  1  0
M  END

