
     RDKit          3D

225252  0  0  0  0  0  0  0  0999 V2000
   -1.0426   -8.8146    9.1388 C   0  0  0  0  0  0  0  0  0  0  0  0
   -0.2076   -8.7288    8.0223 C   0  0  0  0  0  0  0  0  0  0  0  0
   -0.9194   -8.6651    6.8107 C   0  0  0  0  0  0  0  0  0  0  0  0
   -0.3563   -8.6681    5.5139 C   0  0  0  0  0  0  0  0  0  0  0  0
    1.0352   -9.0896    5.3222 C   0  0  0  0  0  0  0  0  0  0  0  0
    2.3511   -8.0645    5.1723 S   0  0  0  0  0  0  0  0  0  0  0  0
    3.5327   -9.2503    5.4096 C   0  0  0  0  0  0  0  0  0  0  0  0
    5.0180   -9.0275    5.5400 C   0  0  0  0  0  0  0  0  0  0  0  0
    5.4898   -7.7138    4.9231 C   0  0  0  0  0  0  0  0  0  0  0  0
    2.8920  -10.4616    5.6680 C   0  0  0  0  0  0  0  0  0  0  0  0
    3.7336  -11.9307    6.1438 Cl  0  0  0  0  0  0  0  0  0  0  0  0
    1.4911  -10.3693    5.6128 C   0  0  0  0  0  0  0  0  0  0  0  0
    0.4072  -11.7074    5.9752 Cl  0  0  0  0  0  0  0  0  0  0  0  0
   -1.2461   -8.5535    4.4329 C   0  0  0  0  0  0  0  0  0  0  0  0
   -2.6303   -8.5484    4.6128 C   0  0  0  0  0  0  0  0  0  0  0  0
   -3.1907   -8.6842    5.8922 C   0  0  0  0  0  0  0  0  0  0  0  0
   -4.6060   -9.0451    6.0751 C   0  0  0  0  0  0  0  0  0  0  0  0
   -5.7717   -8.1182    6.8572 S   0  0  0  0  0  0  0  0  0  0  0  0
   -7.0017   -9.2634    6.7529 C   0  0  0  0  0  0  0  0  0  0  0  0
   -8.4145   -9.0491    7.2047 C   0  0  0  0  0  0  0  0  0  0  0  0
   -9.2837   -8.5851    6.0435 C   0  0  0  0  0  0  0  0  0  0  0  0
   -6.5130  -10.3911    6.1012 C   0  0  0  0  0  0  0  0  0  0  0  0
   -5.1664  -10.2705    5.7234 C   0  0  0  0  0  0  0  0  0  0  0  0
   -4.2602  -11.5641    4.9578 Cl  0  0  0  0  0  0  0  0  0  0  0  0
   -7.4637  -11.8365    5.8034 Cl  0  0  0  0  0  0  0  0  0  0  0  0
   -2.3031   -8.6872    6.9789 C   0  0  0  0  0  0  0  0  0  0  0  0
   -2.6465   -8.8183    8.6191 S   0  0  0  0  0  0  0  0  0  0  0  0
   -3.3462   -8.3566    3.4284 C   0  0  0  0  0  0  0  0  0  0  0  0
   -2.5312   -8.1771    2.3137 C   0  0  0  0  0  0  0  0  0  0  0  0
   -0.9117   -8.3195    2.7944 S   0  0  0  0  0  0  0  0  0  0  0  0
   -2.9911   -7.4738    1.1100 C   0  0  0  0  0  0  0  0  0  0  0  0
   -3.8710   -6.3922    1.1622 C   0  0  0  0  0  0  0  0  0  0  0  0
   -4.0648   -5.7808   -0.0829 C   0  0  0  0  0  0  0  0  0  0  0  0
   -4.8470   -4.6350   -0.3193 C   0  0  0  0  0  0  0  0  0  0  0  0
   -5.4647   -3.8704    0.7807 C   0  0  0  0  0  0  0  0  0  0  0  0
   -7.1137   -3.5936    0.9644 S   0  0  0  0  0  0  0  0  0  0  0  0
   -6.9845   -2.6248    2.3344 C   0  0  0  0  0  0  0  0  0  0  0  0
   -8.1419   -2.0381    3.0876 C   0  0  0  0  0  0  0  0  0  0  0  0
   -8.4979   -2.9055    4.2918 C   0  0  0  0  0  0  0  0  0  0  0  0
   -5.6372   -2.5067    2.6707 C   0  0  0  0  0  0  0  0  0  0  0  0
   -5.0543   -1.5784    4.0476 Cl  0  0  0  0  0  0  0  0  0  0  0  0
   -4.7865   -3.1982    1.7973 C   0  0  0  0  0  0  0  0  0  0  0  0
   -3.0361   -3.1627    1.9301 Cl  0  0  0  0  0  0  0  0  0  0  0  0
   -4.9022   -4.1688   -1.6392 C   0  0  0  0  0  0  0  0  0  0  0  0
   -4.2013   -4.7714   -2.6880 C   0  0  0  0  0  0  0  0  0  0  0  0
   -3.4365   -5.9369   -2.4466 C   0  0  0  0  0  0  0  0  0  0  0  0
   -2.8585   -6.7158   -3.5463 C   0  0  0  0  0  0  0  0  0  0  0  0
   -1.4394   -6.3592   -4.3709 S   0  0  0  0  0  0  0  0  0  0  0  0
   -1.4479   -7.7470   -5.3261 C   0  0  0  0  0  0  0  0  0  0  0  0
   -0.4108   -8.0893   -6.3512 C   0  0  0  0  0  0  0  0  0  0  0  0
   -0.8516   -7.6356   -7.7372 C   0  0  0  0  0  0  0  0  0  0  0  0
   -2.5797   -8.4982   -5.0192 C   0  0  0  0  0  0  0  0  0  0  0  0
   -3.3532   -7.9323   -3.9952 C   0  0  0  0  0  0  0  0  0  0  0  0
   -4.8265   -8.6594   -3.3642 Cl  0  0  0  0  0  0  0  0  0  0  0  0
   -2.9864  -10.0209   -5.7995 Cl  0  0  0  0  0  0  0  0  0  0  0  0
   -3.3814   -6.4080   -1.1222 C   0  0  0  0  0  0  0  0  0  0  0  0
   -2.4788   -7.6992   -0.4889 S   0  0  0  0  0  0  0  0  0  0  0  0
   -4.2976   -4.0601   -3.9040 C   0  0  0  0  0  0  0  0  0  0  0  0
   -5.0808   -2.9030   -3.7931 C   0  0  0  0  0  0  0  0  0  0  0  0
   -5.6462   -2.7753   -2.2062 S   0  0  0  0  0  0  0  0  0  0  0  0
   -5.1083   -1.7721   -4.7375 C   0  0  0  0  0  0  0  0  0  0  0  0
   -5.9219   -0.6549   -4.5537 C   0  0  0  0  0  0  0  0  0  0  0  0
   -5.4188    0.5139   -5.1522 C   0  0  0  0  0  0  0  0  0  0  0  0
   -5.9037    1.8175   -4.9333 C   0  0  0  0  0  0  0  0  0  0  0  0
   -7.1982    2.0593   -4.2800 C   0  0  0  0  0  0  0  0  0  0  0  0
   -7.4336    2.8591   -2.8139 S   0  0  0  0  0  0  0  0  0  0  0  0
   -9.1146    2.7816   -2.8430 C   0  0  0  0  0  0  0  0  0  0  0  0
  -10.0081    3.2625   -1.7405 C   0  0  0  0  0  0  0  0  0  0  0  0
  -10.3890    2.1136   -0.8159 C   0  0  0  0  0  0  0  0  0  0  0  0
   -9.5146    2.1157   -4.0021 C   0  0  0  0  0  0  0  0  0  0  0  0
  -11.1978    1.8156   -4.4215 Cl  0  0  0  0  0  0  0  0  0  0  0  0
   -8.4402    1.7158   -4.8079 C   0  0  0  0  0  0  0  0  0  0  0  0
   -8.6459    0.9021   -6.3547 Cl  0  0  0  0  0  0  0  0  0  0  0  0
   -5.0593    2.8783   -5.3030 C   0  0  0  0  0  0  0  0  0  0  0  0
   -3.8489    2.6710   -5.9650 C   0  0  0  0  0  0  0  0  0  0  0  0
   -3.4475    1.3710   -6.3401 C   0  0  0  0  0  0  0  0  0  0  0  0
   -2.2571    1.1497   -7.1864 C   0  0  0  0  0  0  0  0  0  0  0  0
   -0.9904    0.0883   -6.8614 S   0  0  0  0  0  0  0  0  0  0  0  0
   -0.1427    0.3613   -8.2901 C   0  0  0  0  0  0  0  0  0  0  0  0
    1.0730   -0.4001   -8.7239 C   0  0  0  0  0  0  0  0  0  0  0  0
    0.6739   -1.6598   -9.4886 C   0  0  0  0  0  0  0  0  0  0  0  0
   -0.8555    1.2749   -9.0598 C   0  0  0  0  0  0  0  0  0  0  0  0
   -2.0324    1.7255   -8.4373 C   0  0  0  0  0  0  0  0  0  0  0  0
   -3.1668    2.8200   -9.2221 Cl  0  0  0  0  0  0  0  0  0  0  0  0
   -0.3692    1.7779  -10.6730 Cl  0  0  0  0  0  0  0  0  0  0  0  0
   -4.2250    0.3009   -5.8523 C   0  0  0  0  0  0  0  0  0  0  0  0
   -3.8030   -1.3258   -5.7130 S   0  0  0  0  0  0  0  0  0  0  0  0
   -3.0330    3.8165   -5.9979 C   0  0  0  0  0  0  0  0  0  0  0  0
   -3.5797    4.9125   -5.3223 C   0  0  0  0  0  0  0  0  0  0  0  0
   -5.1099    4.4700   -4.7624 S   0  0  0  0  0  0  0  0  0  0  0  0
   -2.7353    5.9123   -4.6422 C   0  0  0  0  0  0  0  0  0  0  0  0
   -2.7928    6.0823   -3.2555 C   0  0  0  0  0  0  0  0  0  0  0  0
   -1.5673    6.4459   -2.6789 C   0  0  0  0  0  0  0  0  0  0  0  0
   -1.2453    6.3742   -1.3037 C   0  0  0  0  0  0  0  0  0  0  0  0
   -2.2233    5.9115   -0.2947 C   0  0  0  0  0  0  0  0  0  0  0  0
   -3.0634    4.4515   -0.3630 S   0  0  0  0  0  0  0  0  0  0  0  0
   -3.8676    4.6310    1.1058 C   0  0  0  0  0  0  0  0  0  0  0  0
   -4.8320    3.6300    1.6629 C   0  0  0  0  0  0  0  0  0  0  0  0
   -6.2737    4.1393    1.5997 C   0  0  0  0  0  0  0  0  0  0  0  0
   -3.4669    5.8373    1.6847 C   0  0  0  0  0  0  0  0  0  0  0  0
   -4.0434    6.4020    3.2485 Cl  0  0  0  0  0  0  0  0  0  0  0  0
   -2.5436    6.5523    0.9059 C   0  0  0  0  0  0  0  0  0  0  0  0
   -1.8897    8.1139    1.3793 Cl  0  0  0  0  0  0  0  0  0  0  0  0
    0.1082    6.5664   -0.9611 C   0  0  0  0  0  0  0  0  0  0  0  0
    1.0886    6.8606   -1.9120 C   0  0  0  0  0  0  0  0  0  0  0  0
    0.7624    6.9250   -3.2727 C   0  0  0  0  0  0  0  0  0  0  0  0
    1.8061    7.0142   -4.3026 C   0  0  0  0  0  0  0  0  0  0  0  0
    2.2525    8.4137   -5.1076 S   0  0  0  0  0  0  0  0  0  0  0  0
    3.5311    7.7231   -5.9716 C   0  0  0  0  0  0  0  0  0  0  0  0
    4.4693    8.4489   -6.8962 C   0  0  0  0  0  0  0  0  0  0  0  0
    3.8391    9.6971   -7.5141 C   0  0  0  0  0  0  0  0  0  0  0  0
    3.6375    6.3803   -5.6019 C   0  0  0  0  0  0  0  0  0  0  0  0
    2.6770    5.9920   -4.6533 C   0  0  0  0  0  0  0  0  0  0  0  0
    2.6116    4.3874   -3.9352 Cl  0  0  0  0  0  0  0  0  0  0  0  0
    4.8596    5.2851   -6.2367 Cl  0  0  0  0  0  0  0  0  0  0  0  0
   -0.5784    6.7014   -3.6308 C   0  0  0  0  0  0  0  0  0  0  0  0
   -1.1831    6.3490   -5.1591 S   0  0  0  0  0  0  0  0  0  0  0  0
    2.3955    6.8448   -1.3956 C   0  0  0  0  0  0  0  0  0  0  0  0
    2.4503    6.4579   -0.0629 C   0  0  0  0  0  0  0  0  0  0  0  0
    0.8758    6.1873    0.4888 S   0  0  0  0  0  0  0  0  0  0  0  0
    3.6784    5.9819    0.5931 C   0  0  0  0  0  0  0  0  0  0  0  0
    4.9632    6.4447    0.3110 C   0  0  0  0  0  0  0  0  0  0  0  0
    5.9687    5.6212    0.8405 C   0  0  0  0  0  0  0  0  0  0  0  0
    7.3623    5.7882    0.6766 C   0  0  0  0  0  0  0  0  0  0  0  0
    7.9470    6.9425   -0.0325 C   0  0  0  0  0  0  0  0  0  0  0  0
    9.0378    6.8190   -1.3156 S   0  0  0  0  0  0  0  0  0  0  0  0
    9.3061    8.4693   -1.4849 C   0  0  0  0  0  0  0  0  0  0  0  0
   10.2377    9.0785   -2.4892 C   0  0  0  0  0  0  0  0  0  0  0  0
    9.4761    9.5183   -3.7355 C   0  0  0  0  0  0  0  0  0  0  0  0
    8.5371    9.1503   -0.5418 C   0  0  0  0  0  0  0  0  0  0  0  0
    8.5309   10.8973   -0.3801 Cl  0  0  0  0  0  0  0  0  0  0  0  0
    7.7850    8.2927    0.2828 C   0  0  0  0  0  0  0  0  0  0  0  0
    6.8374    8.8699    1.6451 Cl  0  0  0  0  0  0  0  0  0  0  0  0
    8.1904    4.7708    1.1920 C   0  0  0  0  0  0  0  0  0  0  0  0
    7.6811    3.6257    1.8078 C   0  0  0  0  0  0  0  0  0  0  0  0
    6.2937    3.4679    1.9803 C   0  0  0  0  0  0  0  0  0  0  0  0
    5.7209    2.2696    2.6205 C   0  0  0  0  0  0  0  0  0  0  0  0
    4.9186    2.2572    4.1018 S   0  0  0  0  0  0  0  0  0  0  0  0
    4.6297    0.6013    4.1270 C   0  0  0  0  0  0  0  0  0  0  0  0
    3.8951   -0.1220    5.2181 C   0  0  0  0  0  0  0  0  0  0  0  0
    2.4141   -0.2821    4.8707 C   0  0  0  0  0  0  0  0  0  0  0  0
    5.1243    0.0386    2.9517 C   0  0  0  0  0  0  0  0  0  0  0  0
    5.7484    0.9752    2.1096 C   0  0  0  0  0  0  0  0  0  0  0  0
    6.4160    0.5686    0.5369 Cl  0  0  0  0  0  0  0  0  0  0  0  0
    4.9956   -1.6698    2.5613 Cl  0  0  0  0  0  0  0  0  0  0  0  0
    5.4649    4.4976    1.5011 C   0  0  0  0  0  0  0  0  0  0  0  0
    3.7828    4.5407    1.4686 S   0  0  0  0  0  0  0  0  0  0  0  0
    8.6744    2.7148    2.2039 C   0  0  0  0  0  0  0  0  0  0  0  0
    9.9655    3.1828    1.9647 C   0  0  0  0  0  0  0  0  0  0  0  0
    9.8745    4.6793    1.1877 S   0  0  0  0  0  0  0  0  0  0  0  0
   11.2158    2.4427    2.1863 C   0  0  0  0  0  0  0  0  0  0  0  0
   12.5641    2.5136    1.1624 S   0  0  0  0  0  0  0  0  0  0  0  0
   13.5142    1.3191    1.8831 C   0  0  0  0  0  0  0  0  0  0  0  0
   12.7594    0.8566    2.9437 C   0  0  0  0  0  0  0  0  0  0  0  0
   11.5199    1.4687    3.1356 C   0  0  0  0  0  0  0  0  0  0  0  0
   10.8830    0.9705    4.2754 C   0  0  0  0  0  0  0  0  0  0  0  0
   11.6072   -0.0224    4.8674 C   0  0  0  0  0  0  0  0  0  0  0  0
   13.0893   -0.3264    4.1177 S   0  0  0  0  0  0  0  0  0  0  0  0
   10.8875   -0.5453    6.2829 S   0  0  0  0  0  0  0  0  0  0  0  0
    9.5781    0.5344    6.1378 C   0  0  0  0  0  0  0  0  0  0  0  0
    9.7348    1.3242    4.9933 C   0  0  0  0  0  0  0  0  0  0  0  0
   -0.7114   -8.8819   10.1639 H   0  0  0  0  0  0  0  0  0  0  0  0
    0.8706   -8.7124    8.0885 H   0  0  0  0  0  0  0  0  0  0  0  0
    5.2914   -9.0419    6.6181 H   0  0  0  0  0  0  0  0  0  0  0  0
    5.5508   -9.8616    5.0353 H   0  0  0  0  0  0  0  0  0  0  0  0
    5.0195   -6.8532    5.4430 H   0  0  0  0  0  0  0  0  0  0  0  0
    6.5951   -7.6285    5.0213 H   0  0  0  0  0  0  0  0  0  0  0  0
    5.2136   -7.6745    3.8469 H   0  0  0  0  0  0  0  0  0  0  0  0
   -8.4307   -8.2842    8.0120 H   0  0  0  0  0  0  0  0  0  0  0  0
   -8.8238   -9.9949    7.6232 H   0  0  0  0  0  0  0  0  0  0  0  0
   -8.9124   -7.6061    5.6643 H   0  0  0  0  0  0  0  0  0  0  0  0
  -10.3339   -8.4630    6.3824 H   0  0  0  0  0  0  0  0  0  0  0  0
   -9.2595   -9.3295    5.2142 H   0  0  0  0  0  0  0  0  0  0  0  0
   -4.4212   -8.2426    3.3954 H   0  0  0  0  0  0  0  0  0  0  0  0
   -4.3134   -6.0334    2.0790 H   0  0  0  0  0  0  0  0  0  0  0  0
   -7.8850   -1.0109    3.4276 H   0  0  0  0  0  0  0  0  0  0  0  0
   -9.0219   -1.9601    2.4137 H   0  0  0  0  0  0  0  0  0  0  0  0
   -9.3440   -2.4518    4.8445 H   0  0  0  0  0  0  0  0  0  0  0  0
   -8.7891   -3.9218    3.9531 H   0  0  0  0  0  0  0  0  0  0  0  0
   -7.6297   -2.9885    4.9773 H   0  0  0  0  0  0  0  0  0  0  0  0
    0.5501   -7.6047   -6.0811 H   0  0  0  0  0  0  0  0  0  0  0  0
   -0.2446   -9.1875   -6.3602 H   0  0  0  0  0  0  0  0  0  0  0  0
   -1.8222   -8.1002   -8.0133 H   0  0  0  0  0  0  0  0  0  0  0  0
   -0.0877   -7.9420   -8.4812 H   0  0  0  0  0  0  0  0  0  0  0  0
   -0.9514   -6.5296   -7.7679 H   0  0  0  0  0  0  0  0  0  0  0  0
   -3.7605   -4.3347   -4.8005 H   0  0  0  0  0  0  0  0  0  0  0  0
   -6.7684   -0.6485   -3.8805 H   0  0  0  0  0  0  0  0  0  0  0  0
  -10.9306    3.7101   -2.1713 H   0  0  0  0  0  0  0  0  0  0  0  0
   -9.4871    4.0533   -1.1568 H   0  0  0  0  0  0  0  0  0  0  0  0
   -9.4805    1.6597   -0.3651 H   0  0  0  0  0  0  0  0  0  0  0  0
  -10.9374    1.3336   -1.3826 H   0  0  0  0  0  0  0  0  0  0  0  0
  -11.0434    2.4851   -0.0025 H   0  0  0  0  0  0  0  0  0  0  0  0
    1.6765   -0.6844   -7.8325 H   0  0  0  0  0  0  0  0  0  0  0  0
    1.7014    0.2402   -9.3783 H   0  0  0  0  0  0  0  0  0  0  0  0
    0.1355   -2.3569   -8.8118 H   0  0  0  0  0  0  0  0  0  0  0  0
    0.0137   -1.4100  -10.3470 H   0  0  0  0  0  0  0  0  0  0  0  0
    1.5872   -2.1636   -9.8681 H   0  0  0  0  0  0  0  0  0  0  0  0
   -2.0088    3.7967   -6.3365 H   0  0  0  0  0  0  0  0  0  0  0  0
   -3.6612    5.8242   -2.6793 H   0  0  0  0  0  0  0  0  0  0  0  0
   -4.7664    2.6842    1.0755 H   0  0  0  0  0  0  0  0  0  0  0  0
   -4.5637    3.4009    2.7178 H   0  0  0  0  0  0  0  0  0  0  0  0
   -6.5246    4.4776    0.5735 H   0  0  0  0  0  0  0  0  0  0  0  0
   -6.4205    4.9767    2.3141 H   0  0  0  0  0  0  0  0  0  0  0  0
   -6.9656    3.3145    1.8709 H   0  0  0  0  0  0  0  0  0  0  0  0
    5.3772    8.7400   -6.3246 H   0  0  0  0  0  0  0  0  0  0  0  0
    4.7747    7.7707   -7.7244 H   0  0  0  0  0  0  0  0  0  0  0  0
    2.8791    9.4366   -8.0168 H   0  0  0  0  0  0  0  0  0  0  0  0
    3.6467   10.4619   -6.7285 H   0  0  0  0  0  0  0  0  0  0  0  0
    4.5387   10.1266   -8.2666 H   0  0  0  0  0  0  0  0  0  0  0  0
    3.2754    6.9721   -2.0060 H   0  0  0  0  0  0  0  0  0  0  0  0
    5.1585    7.3121   -0.2996 H   0  0  0  0  0  0  0  0  0  0  0  0
   10.7617    9.9515   -2.0443 H   0  0  0  0  0  0  0  0  0  0  0  0
   11.0094    8.3358   -2.7740 H   0  0  0  0  0  0  0  0  0  0  0  0
   10.1883    9.9364   -4.4761 H   0  0  0  0  0  0  0  0  0  0  0  0
    8.7373   10.3010   -3.4743 H   0  0  0  0  0  0  0  0  0  0  0  0
    8.9537    8.6528   -4.1948 H   0  0  0  0  0  0  0  0  0  0  0  0
    4.3469   -1.1253    5.3630 H   0  0  0  0  0  0  0  0  0  0  0  0
    3.9941    0.4442    6.1700 H   0  0  0  0  0  0  0  0  0  0  0  0
    2.2829   -0.6857    3.8440 H   0  0  0  0  0  0  0  0  0  0  0  0
    1.8983    0.6981    4.9537 H   0  0  0  0  0  0  0  0  0  0  0  0
    1.9418   -0.9788    5.5982 H   0  0  0  0  0  0  0  0  0  0  0  0
    8.4663    1.7254    2.5834 H   0  0  0  0  0  0  0  0  0  0  0  0
   14.4976    0.9898    1.5872 H   0  0  0  0  0  0  0  0  0  0  0  0
    8.7800    0.6526    6.8576 H   0  0  0  0  0  0  0  0  0  0  0  0
    9.0895    2.1603    4.7659 H   0  0  0  0  0  0  0  0  0  0  0  0
  1  2  2  0
  2  3  1  0
  3  4  2  0
  4  5  1  0
  5  6  1  0
  6  7  1  0
  7  8  1  0
  8  9  1  0
  7 10  2  0
 10 11  1  0
 10 12  1  0
 12 13  1  0
  4 14  1  0
 14 15  2  0
 15 16  1  0
 16 17  1  0
 17 18  1  0
 18 19  1  0
 19 20  1  0
 20 21  1  0
 19 22  2  0
 22 23  1  0
 23 24  1  0
 22 25  1  0
 16 26  2  0
 26 27  1  0
 15 28  1  0
 28 29  2  0
 29 30  1  0
 29 31  1  0
 31 32  2  0
 32 33  1  0
 33 34  2  0
 34 35  1  0
 35 36  1  0
 36 37  1  0
 37 38  1  0
 38 39  1  0
 37 40  2  0
 40 41  1  0
 40 42  1  0
 42 43  1  0
 34 44  1  0
 44 45  2  0
 45 46  1  0
 46 47  1  0
 47 48  1  0
 48 49  1  0
 49 50  1  0
 50 51  1  0
 49 52  2  0
 52 53  1  0
 53 54  1  0
 52 55  1  0
 46 56  2  0
 56 57  1  0
 45 58  1  0
 58 59  2  0
 59 60  1  0
 59 61  1  0
 61 62  2  0
 62 63  1  0
 63 64  2  0
 64 65  1  0
 65 66  1  0
 66 67  1  0
 67 68  1  0
 68 69  1  0
 67 70  2  0
 70 71  1  0
 70 72  1  0
 72 73  1  0
 64 74  1  0
 74 75  2  0
 75 76  1  0
 76 77  1  0
 77 78  1  0
 78 79  1  0
 79 80  1  0
 80 81  1  0
 79 82  2  0
 82 83  1  0
 83 84  1  0
 82 85  1  0
 76 86  2  0
 86 87  1  0
 75 88  1  0
 88 89  2  0
 89 90  1  0
 89 91  1  0
 91 92  2  0
 92 93  1  0
 93 94  2  0
 94 95  1  0
 95 96  1  0
 96 97  1  0
 97 98  1  0
 98 99  1  0
 97100  2  0
100101  1  0
100102  1  0
102103  1  0
 94104  1  0
104105  2  0
105106  1  0
106107  1  0
107108  1  0
108109  1  0
109110  1  0
110111  1  0
109112  2  0
112113  1  0
113114  1  0
112115  1  0
106116  2  0
116117  1  0
105118  1  0
118119  2  0
119120  1  0
119121  1  0
121122  2  0
122123  1  0
123124  2  0
124125  1  0
125126  1  0
126127  1  0
127128  1  0
128129  1  0
127130  2  0
130131  1  0
130132  1  0
132133  1  0
124134  1  0
134135  2  0
135136  1  0
136137  1  0
137138  1  0
138139  1  0
139140  1  0
140141  1  0
139142  2  0
142143  1  0
143144  1  0
142145  1  0
136146  2  0
146147  1  0
135148  1  0
148149  2  0
149150  1  0
149151  1  0
151152  1  0
152153  1  0
153154  2  0
154155  1  0
155156  1  0
156157  2  0
157158  1  0
157159  1  0
159160  1  0
160161  2  0
 27  1  1  0
 57 31  1  0
 87 61  1  0
117 91  1  0
147121  1  0
155151  2  0
161156  1  0
 26  3  1  0
 56 33  1  0
 86 63  1  0
116 93  1  0
146123  1  0
158154  1  0
 12  5  2  0
 30 14  1  0
 42 35  2  0
 60 44  1  0
 72 65  2  0
 90 74  1  0
102 95  2  0
120104  1  0
132125  2  0
150134  1  0
 23 17  2  0
 53 47  2  0
 83 77  2  0
113107  2  0
143137  2  0
  1162  1  0
  2163  1  0
  8164  1  0
  8165  1  0
  9166  1  0
  9167  1  0
  9168  1  0
 20169  1  0
 20170  1  0
 21171  1  0
 21172  1  0
 21173  1  0
 28174  1  0
 32175  1  0
 38176  1  0
 38177  1  0
 39178  1  0
 39179  1  0
 39180  1  0
 50181  1  0
 50182  1  0
 51183  1  0
 51184  1  0
 51185  1  0
 58186  1  0
 62187  1  0
 68188  1  0
 68189  1  0
 69190  1  0
 69191  1  0
 69192  1  0
 80193  1  0
 80194  1  0
 81195  1  0
 81196  1  0
 81197  1  0
 88198  1  0
 92199  1  0
 98200  1  0
 98201  1  0
 99202  1  0
 99203  1  0
 99204  1  0
110205  1  0
110206  1  0
111207  1  0
111208  1  0
111209  1  0
118210  1  0
122211  1  0
128212  1  0
128213  1  0
129214  1  0
129215  1  0
129216  1  0
140217  1  0
140218  1  0
141219  1  0
141220  1  0
141221  1  0
148222  1  0
153223  1  0
160224  1  0
161225  1  0
M  END

