
     RDKit          3D

109128  0  0  0  0  0  0  0  0999 V2000
    2.6451   -5.2967    6.7314 C   0  0  0  0  0  0  0  0  0  0  0  0
    2.3392   -6.3135    8.0531 S   0  0  0  0  0  0  0  0  0  0  0  0
    1.2738   -5.3157    8.9170 C   0  0  0  0  0  0  0  0  0  0  0  0
    1.1596   -4.1710    8.1532 C   0  0  0  0  0  0  0  0  0  0  0  0
    1.8900   -4.1627    6.9715 C   0  0  0  0  0  0  0  0  0  0  0  0
    1.7314   -2.9804    6.2680 C   0  0  0  0  0  0  0  0  0  0  0  0
    0.9159   -2.1083    6.9241 C   0  0  0  0  0  0  0  0  0  0  0  0
    0.3098   -2.7149    8.3874 S   0  0  0  0  0  0  0  0  0  0  0  0
    0.7873   -0.6632    6.0954 S   0  0  0  0  0  0  0  0  0  0  0  0
    1.7661   -1.2011    4.8009 C   0  0  0  0  0  0  0  0  0  0  0  0
    2.2354   -2.5006    5.0637 C   0  0  0  0  0  0  0  0  0  0  0  0
    2.2092   -0.3899    3.6520 C   0  0  0  0  0  0  0  0  0  0  0  0
    3.7404   -0.5397    2.9372 S   0  0  0  0  0  0  0  0  0  0  0  0
    3.5666    0.5922    1.6983 C   0  0  0  0  0  0  0  0  0  0  0  0
    2.2825    1.0818    1.8334 C   0  0  0  0  0  0  0  0  0  0  0  0
    1.5269    0.5680    2.8920 C   0  0  0  0  0  0  0  0  0  0  0  0
    0.2115    1.0437    2.8446 C   0  0  0  0  0  0  0  0  0  0  0  0
    0.0175    1.8821    1.7821 C   0  0  0  0  0  0  0  0  0  0  0  0
    1.3891    2.1124    0.8244 S   0  0  0  0  0  0  0  0  0  0  0  0
   -1.5873    2.3089    1.6147 S   0  0  0  0  0  0  0  0  0  0  0  0
   -2.0712    1.3849    2.9592 C   0  0  0  0  0  0  0  0  0  0  0  0
   -0.9581    0.7904    3.5626 C   0  0  0  0  0  0  0  0  0  0  0  0
   -3.4658    1.2776    3.4128 C   0  0  0  0  0  0  0  0  0  0  0  0
   -4.6018    2.5276    3.2657 S   0  0  0  0  0  0  0  0  0  0  0  0
   -5.9541    1.7283    3.8829 C   0  0  0  0  0  0  0  0  0  0  0  0
   -5.5138    0.4561    4.1938 C   0  0  0  0  0  0  0  0  0  0  0  0
   -4.1664    0.1846    3.9399 C   0  0  0  0  0  0  0  0  0  0  0  0
   -3.8668   -1.1571    4.2119 C   0  0  0  0  0  0  0  0  0  0  0  0
   -4.9629   -1.8348    4.6741 C   0  0  0  0  0  0  0  0  0  0  0  0
   -6.3623   -0.8954    4.7716 S   0  0  0  0  0  0  0  0  0  0  0  0
   -4.6166   -3.4357    5.0022 S   0  0  0  0  0  0  0  0  0  0  0  0
   -2.9911   -3.2808    4.5119 C   0  0  0  0  0  0  0  0  0  0  0  0
   -2.7285   -1.9636    4.1156 C   0  0  0  0  0  0  0  0  0  0  0  0
   -1.9919   -4.3517    4.6552 C   0  0  0  0  0  0  0  0  0  0  0  0
   -2.0167   -5.5095    5.8944 S   0  0  0  0  0  0  0  0  0  0  0  0
   -0.5697   -6.3050    5.5437 C   0  0  0  0  0  0  0  0  0  0  0  0
   -0.0582   -5.6513    4.4407 C   0  0  0  0  0  0  0  0  0  0  0  0
   -0.8177   -4.5944    3.9370 C   0  0  0  0  0  0  0  0  0  0  0  0
   -0.2261   -4.0448    2.7967 C   0  0  0  0  0  0  0  0  0  0  0  0
    0.9609   -4.6561    2.5006 C   0  0  0  0  0  0  0  0  0  0  0  0
    1.3562   -5.9247    3.5441 S   0  0  0  0  0  0  0  0  0  0  0  0
    1.6521   -4.0433    1.1064 S   0  0  0  0  0  0  0  0  0  0  0  0
    0.3683   -2.9484    0.8537 C   0  0  0  0  0  0  0  0  0  0  0  0
   -0.6058   -3.0909    1.8514 C   0  0  0  0  0  0  0  0  0  0  0  0
    0.2786   -2.0151   -0.2750 C   0  0  0  0  0  0  0  0  0  0  0  0
    1.0581   -2.0648   -1.4274 C   0  0  0  0  0  0  0  0  0  0  0  0
    0.7569   -1.0379   -2.3349 C   0  0  0  0  0  0  0  0  0  0  0  0
    1.3692   -0.8305   -3.5866 C   0  0  0  0  0  0  0  0  0  0  0  0
    2.3664   -1.7690   -4.1300 C   0  0  0  0  0  0  0  0  0  0  0  0
    3.9631   -1.3815   -4.4898 S   0  0  0  0  0  0  0  0  0  0  0  0
    4.3938   -2.9104   -5.0473 C   0  0  0  0  0  0  0  0  0  0  0  0
    5.7330   -3.2614   -5.6213 C   0  0  0  0  0  0  0  0  0  0  0  0
    5.7443   -3.0606   -7.1324 C   0  0  0  0  0  0  0  0  0  0  0  0
    3.2761   -3.7405   -4.9830 C   0  0  0  0  0  0  0  0  0  0  0  0
    3.2785   -5.4109   -5.5291 Cl  0  0  0  0  0  0  0  0  0  0  0  0
    2.1408   -3.1021   -4.4651 C   0  0  0  0  0  0  0  0  0  0  0  0
    0.5752   -3.8880   -4.3216 Cl  0  0  0  0  0  0  0  0  0  0  0  0
    0.9554    0.2951   -4.3166 C   0  0  0  0  0  0  0  0  0  0  0  0
   -0.0271    1.1764   -3.8511 C   0  0  0  0  0  0  0  0  0  0  0  0
   -0.6553    0.9617   -2.6059 C   0  0  0  0  0  0  0  0  0  0  0  0
   -1.6706    1.8977   -2.0790 C   0  0  0  0  0  0  0  0  0  0  0  0
   -1.4112    3.5423   -1.8274 S   0  0  0  0  0  0  0  0  0  0  0  0
   -2.9698    3.9036   -1.3078 C   0  0  0  0  0  0  0  0  0  0  0  0
   -3.4284    5.2585   -0.8603 C   0  0  0  0  0  0  0  0  0  0  0  0
   -3.2618    5.4196    0.6446 C   0  0  0  0  0  0  0  0  0  0  0  0
   -3.7155    2.7263   -1.2992 C   0  0  0  0  0  0  0  0  0  0  0  0
   -2.9947    1.6067   -1.7482 C   0  0  0  0  0  0  0  0  0  0  0  0
   -3.7231    0.0173   -1.9391 Cl  0  0  0  0  0  0  0  0  0  0  0  0
   -5.3854    2.6407   -0.7559 Cl  0  0  0  0  0  0  0  0  0  0  0  0
   -0.2407   -0.1693   -1.8773 C   0  0  0  0  0  0  0  0  0  0  0  0
   -0.7658   -0.6927   -0.3660 S   0  0  0  0  0  0  0  0  0  0  0  0
   -0.3047    2.2126   -4.7559 C   0  0  0  0  0  0  0  0  0  0  0  0
    0.4330    2.1212   -5.9315 C   0  0  0  0  0  0  0  0  0  0  0  0
    1.4658    0.7908   -5.8424 S   0  0  0  0  0  0  0  0  0  0  0  0
    0.4031    3.0836   -7.0383 C   0  0  0  0  0  0  0  0  0  0  0  0
    1.7703    3.6559   -7.8607 S   0  0  0  0  0  0  0  0  0  0  0  0
    1.0120    4.8121   -8.8399 C   0  0  0  0  0  0  0  0  0  0  0  0
   -0.3305    4.7401   -8.5157 C   0  0  0  0  0  0  0  0  0  0  0  0
   -0.6788    3.7969   -7.5510 C   0  0  0  0  0  0  0  0  0  0  0  0
   -2.0595    3.7528   -7.3528 C   0  0  0  0  0  0  0  0  0  0  0  0
   -2.7084    4.6772   -8.1221 C   0  0  0  0  0  0  0  0  0  0  0  0
   -1.6822    5.5679   -9.1300 S   0  0  0  0  0  0  0  0  0  0  0  0
   -4.3676    4.5615   -7.9560 S   0  0  0  0  0  0  0  0  0  0  0  0
   -4.2609    3.2718   -6.8473 C   0  0  0  0  0  0  0  0  0  0  0  0
   -2.9216    2.9286   -6.6276 C   0  0  0  0  0  0  0  0  0  0  0  0
    3.2969   -5.4842    5.8876 H   0  0  0  0  0  0  0  0  0  0  0  0
    0.7944   -5.5225    9.8630 H   0  0  0  0  0  0  0  0  0  0  0  0
    2.9055   -3.0572    4.4225 H   0  0  0  0  0  0  0  0  0  0  0  0
    4.2808    0.8405    0.9244 H   0  0  0  0  0  0  0  0  0  0  0  0
   -1.0170    0.2407    4.4774 H   0  0  0  0  0  0  0  0  0  0  0  0
   -6.9582    2.1143    3.9856 H   0  0  0  0  0  0  0  0  0  0  0  0
   -1.7545   -1.6388    3.8113 H   0  0  0  0  0  0  0  0  0  0  0  0
   -0.1320   -7.1420    6.0674 H   0  0  0  0  0  0  0  0  0  0  0  0
   -1.5529   -2.5765    1.8290 H   0  0  0  0  0  0  0  0  0  0  0  0
    1.8167   -2.8169   -1.6022 H   0  0  0  0  0  0  0  0  0  0  0  0
    5.9797   -4.3181   -5.3849 H   0  0  0  0  0  0  0  0  0  0  0  0
    6.5139   -2.6203   -5.1605 H   0  0  0  0  0  0  0  0  0  0  0  0
    6.7409   -3.3399   -7.5377 H   0  0  0  0  0  0  0  0  0  0  0  0
    5.5449   -1.9965   -7.3819 H   0  0  0  0  0  0  0  0  0  0  0  0
    4.9719   -3.6957   -7.6129 H   0  0  0  0  0  0  0  0  0  0  0  0
   -4.4963    5.4054   -1.1340 H   0  0  0  0  0  0  0  0  0  0  0  0
   -2.8311    6.0377   -1.3797 H   0  0  0  0  0  0  0  0  0  0  0  0
   -2.1889    5.3255    0.9269 H   0  0  0  0  0  0  0  0  0  0  0  0
   -3.8545    4.6471    1.1774 H   0  0  0  0  0  0  0  0  0  0  0  0
   -3.6246    6.4221    0.9566 H   0  0  0  0  0  0  0  0  0  0  0  0
   -1.0094    3.0108   -4.5681 H   0  0  0  0  0  0  0  0  0  0  0  0
    1.4741    5.4634   -9.5683 H   0  0  0  0  0  0  0  0  0  0  0  0
   -5.1066    2.7646   -6.4040 H   0  0  0  0  0  0  0  0  0  0  0  0
   -2.6193    2.0891   -6.0220 H   0  0  0  0  0  0  0  0  0  0  0  0
  1  2  1  0
  2  3  1  0
  3  4  2  0
  4  5  1  0
  5  6  1  0
  6  7  2  0
  7  8  1  0
  7  9  1  0
  9 10  1  0
 10 11  2  0
 10 12  1  0
 12 13  1  0
 13 14  1  0
 14 15  2  0
 15 16  1  0
 16 17  1  0
 17 18  2  0
 18 19  1  0
 18 20  1  0
 20 21  1  0
 21 22  2  0
 21 23  1  0
 23 24  1  0
 24 25  1  0
 25 26  2  0
 26 27  1  0
 27 28  1  0
 28 29  2  0
 29 30  1  0
 29 31  1  0
 31 32  1  0
 32 33  2  0
 32 34  1  0
 34 35  1  0
 35 36  1  0
 36 37  2  0
 37 38  1  0
 38 39  1  0
 39 40  2  0
 40 41  1  0
 40 42  1  0
 42 43  1  0
 43 44  2  0
 43 45  1  0
 45 46  2  0
 46 47  1  0
 47 48  2  0
 48 49  1  0
 49 50  1  0
 50 51  1  0
 51 52  1  0
 52 53  1  0
 51 54  2  0
 54 55  1  0
 54 56  1  0
 56 57  1  0
 48 58  1  0
 58 59  2  0
 59 60  1  0
 60 61  1  0
 61 62  1  0
 62 63  1  0
 63 64  1  0
 64 65  1  0
 63 66  2  0
 66 67  1  0
 67 68  1  0
 66 69  1  0
 60 70  2  0
 70 71  1  0
 59 72  1  0
 72 73  2  0
 73 74  1  0
 73 75  1  0
 75 76  1  0
 76 77  1  0
 77 78  2  0
 78 79  1  0
 79 80  1  0
 80 81  2  0
 81 82  1  0
 81 83  1  0
 83 84  1  0
 84 85  2  0
  5  1  2  0
 11  6  1  0
 16 12  2  0
 22 17  1  0
 27 23  2  0
 33 28  1  0
 38 34  2  0
 44 39  1  0
 71 45  1  0
 79 75  2  0
 85 80  1  0
  8  4  1  0
 19 15  1  0
 30 26  1  0
 41 37  1  0
 70 47  1  0
 82 78  1  0
 56 49  2  0
 74 58  1  0
 67 61  2  0
  1 86  1  0
  3 87  1  0
 11 88  1  0
 14 89  1  0
 22 90  1  0
 25 91  1  0
 33 92  1  0
 36 93  1  0
 44 94  1  0
 46 95  1  0
 52 96  1  0
 52 97  1  0
 53 98  1  0
 53 99  1  0
 53100  1  0
 64101  1  0
 64102  1  0
 65103  1  0
 65104  1  0
 65105  1  0
 72106  1  0
 77107  1  0
 84108  1  0
 85109  1  0
M  END

