
     RDKit          3D

167190  0  0  0  0  0  0  0  0999 V2000
   14.2839   -5.9463    6.7124 C   0  0  0  0  0  0  0  0  0  0  0  0
   14.6458   -7.3853    5.8835 S   0  0  0  0  0  0  0  0  0  0  0  0
   13.0667   -7.9541    5.6439 C   0  0  0  0  0  0  0  0  0  0  0  0
   12.2513   -6.9966    6.2181 C   0  0  0  0  0  0  0  0  0  0  0  0
   12.9061   -5.9188    6.7997 C   0  0  0  0  0  0  0  0  0  0  0  0
   12.0204   -5.0190    7.3759 C   0  0  0  0  0  0  0  0  0  0  0  0
   10.7238   -5.4129    7.2183 C   0  0  0  0  0  0  0  0  0  0  0  0
   10.5622   -6.8848    6.3949 S   0  0  0  0  0  0  0  0  0  0  0  0
    9.6825   -4.3945    8.0433 S   0  0  0  0  0  0  0  0  0  0  0  0
   10.9488   -3.3806    8.5913 C   0  0  0  0  0  0  0  0  0  0  0  0
   12.1865   -3.8750    8.1499 C   0  0  0  0  0  0  0  0  0  0  0  0
   10.7957   -2.3326    9.6111 C   0  0  0  0  0  0  0  0  0  0  0  0
   11.8090   -2.1577   10.9629 S   0  0  0  0  0  0  0  0  0  0  0  0
   10.8744   -1.0537   11.8431 C   0  0  0  0  0  0  0  0  0  0  0  0
    9.7518   -0.8334   11.0693 C   0  0  0  0  0  0  0  0  0  0  0  0
    9.7031   -1.5049    9.8503 C   0  0  0  0  0  0  0  0  0  0  0  0
    8.5565   -1.1758    9.1309 C   0  0  0  0  0  0  0  0  0  0  0  0
    7.7408   -0.3350    9.8325 C   0  0  0  0  0  0  0  0  0  0  0  0
    8.3731    0.1283   11.3289 S   0  0  0  0  0  0  0  0  0  0  0  0
    6.3977    0.1105    8.9399 S   0  0  0  0  0  0  0  0  0  0  0  0
    6.8978   -0.7919    7.5773 C   0  0  0  0  0  0  0  0  0  0  0  0
    8.1204   -1.4319    7.8322 C   0  0  0  0  0  0  0  0  0  0  0  0
    6.1762   -0.8100    6.2985 C   0  0  0  0  0  0  0  0  0  0  0  0
    6.7362   -1.0384    5.0406 C   0  0  0  0  0  0  0  0  0  0  0  0
    5.8066   -0.8886    3.9958 C   0  0  0  0  0  0  0  0  0  0  0  0
    6.0770   -0.9706    2.6114 C   0  0  0  0  0  0  0  0  0  0  0  0
    7.4282   -1.2501    2.0983 C   0  0  0  0  0  0  0  0  0  0  0  0
    8.3470   -0.1771    1.1824 S   0  0  0  0  0  0  0  0  0  0  0  0
    9.6872   -1.1818    1.0214 C   0  0  0  0  0  0  0  0  0  0  0  0
   10.9033   -0.8445    0.2134 C   0  0  0  0  0  0  0  0  0  0  0  0
   10.6849   -1.1722   -1.2598 C   0  0  0  0  0  0  0  0  0  0  0  0
    9.4205   -2.3895    1.6667 C   0  0  0  0  0  0  0  0  0  0  0  0
   10.5393   -3.7473    1.6917 Cl  0  0  0  0  0  0  0  0  0  0  0  0
    8.1569   -2.4233    2.2802 C   0  0  0  0  0  0  0  0  0  0  0  0
    7.5346   -3.8300    3.1281 Cl  0  0  0  0  0  0  0  0  0  0  0  0
    5.0153   -0.6699    1.7360 C   0  0  0  0  0  0  0  0  0  0  0  0
    3.7440   -0.3301    2.2043 C   0  0  0  0  0  0  0  0  0  0  0  0
    3.4572   -0.2915    3.5807 C   0  0  0  0  0  0  0  0  0  0  0  0
    2.1160    0.0751    4.0818 C   0  0  0  0  0  0  0  0  0  0  0  0
    1.7701    1.4507    4.9910 S   0  0  0  0  0  0  0  0  0  0  0  0
    0.0989    1.2366    5.0161 C   0  0  0  0  0  0  0  0  0  0  0  0
   -0.8652    2.1485    5.7133 C   0  0  0  0  0  0  0  0  0  0  0  0
   -1.1226    1.6887    7.1408 C   0  0  0  0  0  0  0  0  0  0  0  0
   -0.2118    0.0677    4.3215 C   0  0  0  0  0  0  0  0  0  0  0  0
    0.9169   -0.5779    3.7911 C   0  0  0  0  0  0  0  0  0  0  0  0
    0.8208   -2.0799    2.8767 Cl  0  0  0  0  0  0  0  0  0  0  0  0
   -1.8520   -0.5217    4.1072 Cl  0  0  0  0  0  0  0  0  0  0  0  0
    4.5258   -0.5487    4.4497 C   0  0  0  0  0  0  0  0  0  0  0  0
    4.5413   -0.4309    6.1252 S   0  0  0  0  0  0  0  0  0  0  0  0
    2.8630    0.0344    1.1844 C   0  0  0  0  0  0  0  0  0  0  0  0
    3.4249   -0.0459   -0.0836 C   0  0  0  0  0  0  0  0  0  0  0  0
    5.0255   -0.5612    0.0438 S   0  0  0  0  0  0  0  0  0  0  0  0
    2.7213    0.4163   -1.2831 C   0  0  0  0  0  0  0  0  0  0  0  0
    1.8498    1.4935   -1.2300 C   0  0  0  0  0  0  0  0  0  0  0  0
    0.8484    1.4531   -2.2026 C   0  0  0  0  0  0  0  0  0  0  0  0
   -0.2756    2.2910   -2.2294 C   0  0  0  0  0  0  0  0  0  0  0  0
   -0.5043    3.2925   -1.1780 C   0  0  0  0  0  0  0  0  0  0  0  0
   -0.3121    4.9500   -1.3651 S   0  0  0  0  0  0  0  0  0  0  0  0
   -0.6056    5.3421    0.2474 C   0  0  0  0  0  0  0  0  0  0  0  0
   -0.4822    6.7230    0.8246 C   0  0  0  0  0  0  0  0  0  0  0  0
    0.9522    6.9942    1.2658 C   0  0  0  0  0  0  0  0  0  0  0  0
   -0.8368    4.1666    0.9573 C   0  0  0  0  0  0  0  0  0  0  0  0
   -1.1565    4.1171    2.6846 Cl  0  0  0  0  0  0  0  0  0  0  0  0
   -0.7863    3.0182    0.1572 C   0  0  0  0  0  0  0  0  0  0  0  0
   -1.0490    1.3927    0.7760 Cl  0  0  0  0  0  0  0  0  0  0  0  0
   -1.2711    1.9793   -3.1580 C   0  0  0  0  0  0  0  0  0  0  0  0
   -1.1784    0.8920   -4.0356 C   0  0  0  0  0  0  0  0  0  0  0  0
   -0.0217    0.0771   -4.0453 C   0  0  0  0  0  0  0  0  0  0  0  0
    0.1338   -1.0411   -4.9976 C   0  0  0  0  0  0  0  0  0  0  0  0
    0.5086   -2.6341   -4.5909 S   0  0  0  0  0  0  0  0  0  0  0  0
    0.5801   -3.2179   -6.1640 C   0  0  0  0  0  0  0  0  0  0  0  0
    0.9595   -4.6167   -6.5394 C   0  0  0  0  0  0  0  0  0  0  0  0
    2.4540   -4.7119   -6.8291 C   0  0  0  0  0  0  0  0  0  0  0  0
    0.3364   -2.1629   -7.0399 C   0  0  0  0  0  0  0  0  0  0  0  0
    0.0811   -0.9465   -6.3887 C   0  0  0  0  0  0  0  0  0  0  0  0
   -0.1672    0.5659   -7.2514 Cl  0  0  0  0  0  0  0  0  0  0  0  0
    0.3719   -2.3250   -8.7909 Cl  0  0  0  0  0  0  0  0  0  0  0  0
    0.9645    0.3680   -3.0784 C   0  0  0  0  0  0  0  0  0  0  0  0
    2.2945   -0.5613   -2.5948 S   0  0  0  0  0  0  0  0  0  0  0  0
   -2.3898    0.6375   -4.7130 C   0  0  0  0  0  0  0  0  0  0  0  0
   -3.4118    1.5236   -4.3532 C   0  0  0  0  0  0  0  0  0  0  0  0
   -2.8152    2.6199   -3.2203 S   0  0  0  0  0  0  0  0  0  0  0  0
   -4.8470    1.3669   -4.6354 C   0  0  0  0  0  0  0  0  0  0  0  0
   -5.4383    0.4199   -5.4731 C   0  0  0  0  0  0  0  0  0  0  0  0
   -6.8413    0.3825   -5.3463 C   0  0  0  0  0  0  0  0  0  0  0  0
   -7.7208   -0.5036   -6.0039 C   0  0  0  0  0  0  0  0  0  0  0  0
   -7.2412   -1.4859   -6.9872 C   0  0  0  0  0  0  0  0  0  0  0  0
   -7.3137   -3.1554   -6.7874 S   0  0  0  0  0  0  0  0  0  0  0  0
   -6.6379   -3.5426   -8.2800 C   0  0  0  0  0  0  0  0  0  0  0  0
   -6.2885   -4.9323   -8.7120 C   0  0  0  0  0  0  0  0  0  0  0  0
   -4.8353   -5.2519   -8.3730 C   0  0  0  0  0  0  0  0  0  0  0  0
   -6.3353   -2.3606   -8.9541 C   0  0  0  0  0  0  0  0  0  0  0  0
   -5.5793   -2.3138  -10.5384 Cl  0  0  0  0  0  0  0  0  0  0  0  0
   -6.6810   -1.2056   -8.2312 C   0  0  0  0  0  0  0  0  0  0  0  0
   -6.4600    0.4245   -8.8487 Cl  0  0  0  0  0  0  0  0  0  0  0  0
   -9.0776   -0.4448   -5.6353 C   0  0  0  0  0  0  0  0  0  0  0  0
   -9.5580    0.4466   -4.6719 C   0  0  0  0  0  0  0  0  0  0  0  0
   -8.6866    1.3461   -4.0333 C   0  0  0  0  0  0  0  0  0  0  0  0
   -9.1391    2.2394   -2.9506 C   0  0  0  0  0  0  0  0  0  0  0  0
   -8.6628    2.1083   -1.3410 S   0  0  0  0  0  0  0  0  0  0  0  0
   -9.5498    3.4235   -0.7833 C   0  0  0  0  0  0  0  0  0  0  0  0
   -9.5335    3.9165    0.6322 C   0  0  0  0  0  0  0  0  0  0  0  0
   -8.4373    4.9557    0.8350 C   0  0  0  0  0  0  0  0  0  0  0  0
  -10.2107    4.0071   -1.8629 C   0  0  0  0  0  0  0  0  0  0  0  0
   -9.9893    3.3343   -3.0780 C   0  0  0  0  0  0  0  0  0  0  0  0
  -10.6607    3.8607   -4.6148 Cl  0  0  0  0  0  0  0  0  0  0  0  0
  -11.2143    5.4419   -1.7270 Cl  0  0  0  0  0  0  0  0  0  0  0  0
   -7.3331    1.2867   -4.3999 C   0  0  0  0  0  0  0  0  0  0  0  0
   -6.0521    2.1517   -3.7518 S   0  0  0  0  0  0  0  0  0  0  0  0
  -10.9265    0.2911   -4.4037 C   0  0  0  0  0  0  0  0  0  0  0  0
  -11.5096   -0.7254   -5.1549 C   0  0  0  0  0  0  0  0  0  0  0  0
  -10.3520   -1.4046   -6.1758 S   0  0  0  0  0  0  0  0  0  0  0  0
  -12.9193   -1.1244   -5.1049 C   0  0  0  0  0  0  0  0  0  0  0  0
  -13.9104   -1.3813   -6.4543 S   0  0  0  0  0  0  0  0  0  0  0  0
  -15.3673   -1.6803   -5.6421 C   0  0  0  0  0  0  0  0  0  0  0  0
  -15.0628   -1.5831   -4.2970 C   0  0  0  0  0  0  0  0  0  0  0  0
  -13.7381   -1.2892   -3.9912 C   0  0  0  0  0  0  0  0  0  0  0  0
  -13.5165   -1.2903   -2.6126 C   0  0  0  0  0  0  0  0  0  0  0  0
  -14.6625   -1.5549   -1.9176 C   0  0  0  0  0  0  0  0  0  0  0  0
  -16.0078   -1.8356   -2.9044 S   0  0  0  0  0  0  0  0  0  0  0  0
  -14.3679   -1.6781   -0.2779 S   0  0  0  0  0  0  0  0  0  0  0  0
  -12.6993   -1.3632   -0.4532 C   0  0  0  0  0  0  0  0  0  0  0  0
  -12.3802   -1.1880   -1.8048 C   0  0  0  0  0  0  0  0  0  0  0  0
   14.9784   -5.2104    7.0978 H   0  0  0  0  0  0  0  0  0  0  0  0
   12.7591   -8.8674    5.1532 H   0  0  0  0  0  0  0  0  0  0  0  0
   13.1473   -3.4571    8.4148 H   0  0  0  0  0  0  0  0  0  0  0  0
   11.0974   -0.6253   12.8096 H   0  0  0  0  0  0  0  0  0  0  0  0
    8.6702   -2.0004    7.0984 H   0  0  0  0  0  0  0  0  0  0  0  0
    7.7864   -1.2558    4.8892 H   0  0  0  0  0  0  0  0  0  0  0  0
   11.7845   -1.4047    0.5958 H   0  0  0  0  0  0  0  0  0  0  0  0
   11.1242    0.2384    0.3209 H   0  0  0  0  0  0  0  0  0  0  0  0
   11.6015   -0.9274   -1.8339 H   0  0  0  0  0  0  0  0  0  0  0  0
   10.4549   -2.2504   -1.3878 H   0  0  0  0  0  0  0  0  0  0  0  0
    9.8407   -0.5718   -1.6635 H   0  0  0  0  0  0  0  0  0  0  0  0
   -0.4513    3.1785    5.7332 H   0  0  0  0  0  0  0  0  0  0  0  0
   -1.8287    2.1814    5.1560 H   0  0  0  0  0  0  0  0  0  0  0  0
   -1.5801    0.6745    7.1425 H   0  0  0  0  0  0  0  0  0  0  0  0
   -0.1705    1.6565    7.7158 H   0  0  0  0  0  0  0  0  0  0  0  0
   -1.8148    2.3973    7.6391 H   0  0  0  0  0  0  0  0  0  0  0  0
    1.8537    0.3849    1.3585 H   0  0  0  0  0  0  0  0  0  0  0  0
    1.8672    2.2143   -0.4242 H   0  0  0  0  0  0  0  0  0  0  0  0
   -0.7914    7.4703    0.0655 H   0  0  0  0  0  0  0  0  0  0  0  0
   -1.1602    6.8278    1.6980 H   0  0  0  0  0  0  0  0  0  0  0  0
    1.6498    6.8809    0.4076 H   0  0  0  0  0  0  0  0  0  0  0  0
    1.0263    8.0259    1.6643 H   0  0  0  0  0  0  0  0  0  0  0  0
    1.2450    6.2797    2.0652 H   0  0  0  0  0  0  0  0  0  0  0  0
    0.7046   -5.3088   -5.7111 H   0  0  0  0  0  0  0  0  0  0  0  0
    0.3917   -4.9352   -7.4371 H   0  0  0  0  0  0  0  0  0  0  0  0
    2.7353   -4.0439   -7.6728 H   0  0  0  0  0  0  0  0  0  0  0  0
    2.7182   -5.7552   -7.1160 H   0  0  0  0  0  0  0  0  0  0  0  0
    3.0469   -4.4380   -5.9254 H   0  0  0  0  0  0  0  0  0  0  0  0
   -2.5480   -0.2183   -5.3580 H   0  0  0  0  0  0  0  0  0  0  0  0
   -4.8727   -0.2504   -6.1069 H   0  0  0  0  0  0  0  0  0  0  0  0
   -6.9505   -5.6579   -8.1950 H   0  0  0  0  0  0  0  0  0  0  0  0
   -6.4524   -5.0448   -9.8061 H   0  0  0  0  0  0  0  0  0  0  0  0
   -4.1487   -4.6053   -8.9614 H   0  0  0  0  0  0  0  0  0  0  0  0
   -4.6154   -6.3124   -8.6062 H   0  0  0  0  0  0  0  0  0  0  0  0
   -4.6475   -5.0876   -7.2879 H   0  0  0  0  0  0  0  0  0  0  0  0
  -10.5220    4.3517    0.9006 H   0  0  0  0  0  0  0  0  0  0  0  0
   -9.3471    3.0605    1.3145 H   0  0  0  0  0  0  0  0  0  0  0  0
   -8.4296    5.2820    1.8936 H   0  0  0  0  0  0  0  0  0  0  0  0
   -7.4443    4.5173    0.5902 H   0  0  0  0  0  0  0  0  0  0  0  0
   -8.6134    5.8394    0.1866 H   0  0  0  0  0  0  0  0  0  0  0  0
  -11.4765    0.8914   -3.6912 H   0  0  0  0  0  0  0  0  0  0  0  0
  -16.3265   -1.9188   -6.0780 H   0  0  0  0  0  0  0  0  0  0  0  0
  -11.9815   -1.3450    0.3557 H   0  0  0  0  0  0  0  0  0  0  0  0
  -11.3736   -1.0477   -2.1639 H   0  0  0  0  0  0  0  0  0  0  0  0
  1  2  1  0
  2  3  1  0
  3  4  2  0
  4  5  1  0
  5  6  1  0
  6  7  2  0
  7  8  1  0
  7  9  1  0
  9 10  1  0
 10 11  2  0
 10 12  1  0
 12 13  1  0
 13 14  1  0
 14 15  2  0
 15 16  1  0
 16 17  1  0
 17 18  2  0
 18 19  1  0
 18 20  1  0
 20 21  1  0
 21 22  2  0
 21 23  1  0
 23 24  2  0
 24 25  1  0
 25 26  2  0
 26 27  1  0
 27 28  1  0
 28 29  1  0
 29 30  1  0
 30 31  1  0
 29 32  2  0
 32 33  1  0
 32 34  1  0
 34 35  1  0
 26 36  1  0
 36 37  2  0
 37 38  1  0
 38 39  1  0
 39 40  1  0
 40 41  1  0
 41 42  1  0
 42 43  1  0
 41 44  2  0
 44 45  1  0
 45 46  1  0
 44 47  1  0
 38 48  2  0
 48 49  1  0
 37 50  1  0
 50 51  2  0
 51 52  1  0
 51 53  1  0
 53 54  2  0
 54 55  1  0
 55 56  2  0
 56 57  1  0
 57 58  1  0
 58 59  1  0
 59 60  1  0
 60 61  1  0
 59 62  2  0
 62 63  1  0
 62 64  1  0
 64 65  1  0
 56 66  1  0
 66 67  2  0
 67 68  1  0
 68 69  1  0
 69 70  1  0
 70 71  1  0
 71 72  1  0
 72 73  1  0
 71 74  2  0
 74 75  1  0
 75 76  1  0
 74 77  1  0
 68 78  2  0
 78 79  1  0
 67 80  1  0
 80 81  2  0
 81 82  1  0
 81 83  1  0
 83 84  2  0
 84 85  1  0
 85 86  2  0
 86 87  1  0
 87 88  1  0
 88 89  1  0
 89 90  1  0
 90 91  1  0
 89 92  2  0
 92 93  1  0
 92 94  1  0
 94 95  1  0
 86 96  1  0
 96 97  2  0
 97 98  1  0
 98 99  1  0
 99100  1  0
100101  1  0
101102  1  0
102103  1  0
101104  2  0
104105  1  0
105106  1  0
104107  1  0
 98108  2  0
108109  1  0
 97110  1  0
110111  2  0
111112  1  0
111113  1  0
113114  1  0
114115  1  0
115116  2  0
116117  1  0
117118  1  0
118119  2  0
119120  1  0
119121  1  0
121122  1  0
122123  2  0
  5  1  2  0
 11  6  1  0
 16 12  2  0
 22 17  1  0
 49 23  1  0
 79 53  1  0
109 83  1  0
117113  2  0
123118  1  0
  8  4  1  0
 19 15  1  0
 48 25  1  0
 78 55  1  0
108 85  1  0
120116  1  0
 34 27  2  0
 52 36  1  0
 64 57  2  0
 82 66  1  0
 94 87  2  0
112 96  1  0
 45 39  2  0
 75 69  2  0
105 99  2  0
  1124  1  0
  3125  1  0
 11126  1  0
 14127  1  0
 22128  1  0
 24129  1  0
 30130  1  0
 30131  1  0
 31132  1  0
 31133  1  0
 31134  1  0
 42135  1  0
 42136  1  0
 43137  1  0
 43138  1  0
 43139  1  0
 50140  1  0
 54141  1  0
 60142  1  0
 60143  1  0
 61144  1  0
 61145  1  0
 61146  1  0
 72147  1  0
 72148  1  0
 73149  1  0
 73150  1  0
 73151  1  0
 80152  1  0
 84153  1  0
 90154  1  0
 90155  1  0
 91156  1  0
 91157  1  0
 91158  1  0
102159  1  0
102160  1  0
103161  1  0
103162  1  0
103163  1  0
110164  1  0
115165  1  0
122166  1  0
123167  1  0
M  END

