
     RDKit          3D

196221  0  0  0  0  0  0  0  0999 V2000
    5.0007  -13.2665    9.2586 C   0  0  0  0  0  0  0  0  0  0  0  0
    5.2218  -12.4626    8.1458 C   0  0  0  0  0  0  0  0  0  0  0  0
    4.0473  -11.8721    7.6505 C   0  0  0  0  0  0  0  0  0  0  0  0
    3.9512  -11.0185    6.5354 C   0  0  0  0  0  0  0  0  0  0  0  0
    5.1453  -10.5288    5.8211 C   0  0  0  0  0  0  0  0  0  0  0  0
    5.4983  -10.8332    4.2036 S   0  0  0  0  0  0  0  0  0  0  0  0
    6.9256   -9.9400    4.1611 C   0  0  0  0  0  0  0  0  0  0  0  0
    7.8430   -9.8460    2.9811 C   0  0  0  0  0  0  0  0  0  0  0  0
    8.9079  -10.9327    3.0447 C   0  0  0  0  0  0  0  0  0  0  0  0
    7.1517   -9.4007    5.4267 C   0  0  0  0  0  0  0  0  0  0  0  0
    8.5448   -8.4024    5.8223 Cl  0  0  0  0  0  0  0  0  0  0  0  0
    6.1464   -9.7197    6.3528 C   0  0  0  0  0  0  0  0  0  0  0  0
    6.1402   -9.1200    8.0078 Cl  0  0  0  0  0  0  0  0  0  0  0  0
    2.6664  -10.5746    6.1884 C   0  0  0  0  0  0  0  0  0  0  0  0
    1.5230  -10.9040    6.9283 C   0  0  0  0  0  0  0  0  0  0  0  0
    1.6226  -11.7571    8.0476 C   0  0  0  0  0  0  0  0  0  0  0  0
    0.4491  -12.1246    8.8559 C   0  0  0  0  0  0  0  0  0  0  0  0
    0.2456  -11.7412   10.4819 S   0  0  0  0  0  0  0  0  0  0  0  0
   -1.2321  -12.5265   10.6624 C   0  0  0  0  0  0  0  0  0  0  0  0
   -2.0425  -12.5372   11.9241 C   0  0  0  0  0  0  0  0  0  0  0  0
   -3.0293  -11.3770   11.9357 C   0  0  0  0  0  0  0  0  0  0  0  0
   -1.5946  -13.0877    9.4390 C   0  0  0  0  0  0  0  0  0  0  0  0
   -0.6479  -12.8687    8.4273 C   0  0  0  0  0  0  0  0  0  0  0  0
   -0.8058  -13.5196    6.8007 Cl  0  0  0  0  0  0  0  0  0  0  0  0
   -3.0823  -13.9884    9.1899 Cl  0  0  0  0  0  0  0  0  0  0  0  0
    2.9064  -12.2214    8.3786 C   0  0  0  0  0  0  0  0  0  0  0  0
    3.3521  -13.2542    9.6284 S   0  0  0  0  0  0  0  0  0  0  0  0
    0.3671  -10.2364    6.4818 C   0  0  0  0  0  0  0  0  0  0  0  0
    0.6080   -9.3994    5.3888 C   0  0  0  0  0  0  0  0  0  0  0  0
    2.2455   -9.4770    4.9867 S   0  0  0  0  0  0  0  0  0  0  0  0
   -0.3131   -8.3956    4.8388 C   0  0  0  0  0  0  0  0  0  0  0  0
   -1.4049   -7.8507    5.5130 C   0  0  0  0  0  0  0  0  0  0  0  0
   -1.8822   -6.6717    4.9166 C   0  0  0  0  0  0  0  0  0  0  0  0
   -2.8804   -5.8158    5.4315 C   0  0  0  0  0  0  0  0  0  0  0  0
   -3.5694   -6.1001    6.6994 C   0  0  0  0  0  0  0  0  0  0  0  0
   -2.8244   -6.1219    8.2086 S   0  0  0  0  0  0  0  0  0  0  0  0
   -4.2313   -6.3841    9.0937 C   0  0  0  0  0  0  0  0  0  0  0  0
   -4.2990   -6.4042   10.5912 C   0  0  0  0  0  0  0  0  0  0  0  0
   -4.5389   -5.0022   11.1381 C   0  0  0  0  0  0  0  0  0  0  0  0
   -5.3111   -6.4344    8.2125 C   0  0  0  0  0  0  0  0  0  0  0  0
   -6.9746   -6.6541    8.7365 Cl  0  0  0  0  0  0  0  0  0  0  0  0
   -4.9387   -6.2757    6.8676 C   0  0  0  0  0  0  0  0  0  0  0  0
   -6.0824   -6.3238    5.5321 Cl  0  0  0  0  0  0  0  0  0  0  0  0
   -3.0694   -4.5895    4.7660 C   0  0  0  0  0  0  0  0  0  0  0  0
   -2.3270   -4.2276    3.6427 C   0  0  0  0  0  0  0  0  0  0  0  0
   -1.4107   -5.1225    3.0705 C   0  0  0  0  0  0  0  0  0  0  0  0
   -0.7196   -4.7904    1.8138 C   0  0  0  0  0  0  0  0  0  0  0  0
   -1.4917   -4.7256    0.3204 S   0  0  0  0  0  0  0  0  0  0  0  0
   -0.2141   -4.0274   -0.5166 C   0  0  0  0  0  0  0  0  0  0  0  0
   -0.2483   -3.6868   -1.9782 C   0  0  0  0  0  0  0  0  0  0  0  0
   -0.1110   -4.9405   -2.8359 C   0  0  0  0  0  0  0  0  0  0  0  0
    0.8395   -3.8201    0.3723 C   0  0  0  0  0  0  0  0  0  0  0  0
    0.5488   -4.2309    1.6832 C   0  0  0  0  0  0  0  0  0  0  0  0
    1.6327   -3.9690    3.0369 Cl  0  0  0  0  0  0  0  0  0  0  0  0
    2.3666   -3.0698   -0.0723 Cl  0  0  0  0  0  0  0  0  0  0  0  0
   -1.1856   -6.3247    3.7525 C   0  0  0  0  0  0  0  0  0  0  0  0
    0.0200   -7.4575    3.4724 S   0  0  0  0  0  0  0  0  0  0  0  0
   -2.4722   -2.8792    3.2913 C   0  0  0  0  0  0  0  0  0  0  0  0
   -3.3496   -2.1780    4.1194 C   0  0  0  0  0  0  0  0  0  0  0  0
   -3.9228   -3.2458    5.3025 S   0  0  0  0  0  0  0  0  0  0  0  0
   -3.4093   -0.7082    4.2497 C   0  0  0  0  0  0  0  0  0  0  0  0
   -3.6952    0.0643    5.7340 S   0  0  0  0  0  0  0  0  0  0  0  0
   -3.0538    1.5865    5.3872 C   0  0  0  0  0  0  0  0  0  0  0  0
   -2.5883    1.4830    4.0928 C   0  0  0  0  0  0  0  0  0  0  0  0
   -2.8060    0.2652    3.4443 C   0  0  0  0  0  0  0  0  0  0  0  0
   -2.3305    0.2971    2.1309 C   0  0  0  0  0  0  0  0  0  0  0  0
   -1.6821    1.4714    1.8700 C   0  0  0  0  0  0  0  0  0  0  0  0
   -1.7405    2.5908    3.1358 S   0  0  0  0  0  0  0  0  0  0  0  0
   -1.2619    1.5954    0.2621 S   0  0  0  0  0  0  0  0  0  0  0  0
   -1.9377    0.0832   -0.1380 C   0  0  0  0  0  0  0  0  0  0  0  0
   -2.5332   -0.4995    0.9912 C   0  0  0  0  0  0  0  0  0  0  0  0
   -2.2337   -0.2350   -1.5363 C   0  0  0  0  0  0  0  0  0  0  0  0
   -3.3503    0.3525   -2.1247 C   0  0  0  0  0  0  0  0  0  0  0  0
   -3.1024    0.8720   -3.4064 C   0  0  0  0  0  0  0  0  0  0  0  0
   -3.9026    1.8229   -4.0843 C   0  0  0  0  0  0  0  0  0  0  0  0
   -5.2930    2.1238   -3.6854 C   0  0  0  0  0  0  0  0  0  0  0  0
   -5.8032    2.7221   -2.1952 S   0  0  0  0  0  0  0  0  0  0  0  0
   -7.4495    2.7517   -2.5677 C   0  0  0  0  0  0  0  0  0  0  0  0
   -8.5419    3.0985   -1.5949 C   0  0  0  0  0  0  0  0  0  0  0  0
   -9.1319    1.8311   -0.9815 C   0  0  0  0  0  0  0  0  0  0  0  0
   -7.6183    2.2884   -3.8725 C   0  0  0  0  0  0  0  0  0  0  0  0
   -9.1871    2.1214   -4.6466 Cl  0  0  0  0  0  0  0  0  0  0  0  0
   -6.4066    1.9470   -4.4968 C   0  0  0  0  0  0  0  0  0  0  0  0
   -6.3149    1.2812   -6.1202 Cl  0  0  0  0  0  0  0  0  0  0  0  0
   -3.2856    2.5278   -5.1344 C   0  0  0  0  0  0  0  0  0  0  0  0
   -2.0004    2.2217   -5.5907 C   0  0  0  0  0  0  0  0  0  0  0  0
   -1.2713    1.1651   -5.0156 C   0  0  0  0  0  0  0  0  0  0  0  0
    0.0421    0.7625   -5.5419 C   0  0  0  0  0  0  0  0  0  0  0  0
    1.5352    1.3504   -5.0354 S   0  0  0  0  0  0  0  0  0  0  0  0
    2.4513    0.4611   -6.1424 C   0  0  0  0  0  0  0  0  0  0  0  0
    3.9446    0.5060   -6.2493 C   0  0  0  0  0  0  0  0  0  0  0  0
    4.3994    1.2889   -7.4849 C   0  0  0  0  0  0  0  0  0  0  0  0
    1.5833   -0.3118   -6.9220 C   0  0  0  0  0  0  0  0  0  0  0  0
    0.2318   -0.1285   -6.5909 C   0  0  0  0  0  0  0  0  0  0  0  0
   -1.0929   -0.9048   -7.4487 Cl  0  0  0  0  0  0  0  0  0  0  0  0
    2.1222   -1.3929   -8.2022 Cl  0  0  0  0  0  0  0  0  0  0  0  0
   -1.8267    0.5534   -3.8835 C   0  0  0  0  0  0  0  0  0  0  0  0
   -0.9882   -0.2542   -2.6781 S   0  0  0  0  0  0  0  0  0  0  0  0
   -1.4670    3.1919   -6.4504 C   0  0  0  0  0  0  0  0  0  0  0  0
   -2.2873    4.3102   -6.5968 C   0  0  0  0  0  0  0  0  0  0  0  0
   -3.7258    4.0335   -5.7488 S   0  0  0  0  0  0  0  0  0  0  0  0
   -1.7803    5.6471   -6.9506 C   0  0  0  0  0  0  0  0  0  0  0  0
   -0.4831    5.9218   -7.3977 C   0  0  0  0  0  0  0  0  0  0  0  0
   -0.1165    7.2712   -7.2530 C   0  0  0  0  0  0  0  0  0  0  0  0
    1.1538    7.8209   -7.5214 C   0  0  0  0  0  0  0  0  0  0  0  0
    2.2494    7.0186   -8.0944 C   0  0  0  0  0  0  0  0  0  0  0  0
    2.2841    6.4476   -9.6782 S   0  0  0  0  0  0  0  0  0  0  0  0
    3.8351    5.7927   -9.5978 C   0  0  0  0  0  0  0  0  0  0  0  0
    4.5662    5.1973  -10.7647 C   0  0  0  0  0  0  0  0  0  0  0  0
    5.3690    6.2664  -11.5041 C   0  0  0  0  0  0  0  0  0  0  0  0
    4.3502    6.0214   -8.3219 C   0  0  0  0  0  0  0  0  0  0  0  0
    5.9742    5.5547   -7.8322 Cl  0  0  0  0  0  0  0  0  0  0  0  0
    3.4618    6.7068   -7.4799 C   0  0  0  0  0  0  0  0  0  0  0  0
    3.8299    7.1127   -5.8088 Cl  0  0  0  0  0  0  0  0  0  0  0  0
    1.3448    9.1740   -7.1933 C   0  0  0  0  0  0  0  0  0  0  0  0
    0.3435    9.9601   -6.6148 C   0  0  0  0  0  0  0  0  0  0  0  0
   -0.9355    9.4159   -6.3605 C   0  0  0  0  0  0  0  0  0  0  0  0
   -2.0237   10.2166   -5.7687 C   0  0  0  0  0  0  0  0  0  0  0  0
   -2.8205    9.8475   -4.3292 S   0  0  0  0  0  0  0  0  0  0  0  0
   -3.9265   11.1114   -4.4086 C   0  0  0  0  0  0  0  0  0  0  0  0
   -4.9812   11.3870   -3.3819 C   0  0  0  0  0  0  0  0  0  0  0  0
   -4.4766   12.3875   -2.3456 C   0  0  0  0  0  0  0  0  0  0  0  0
   -3.6801   11.8506   -5.5645 C   0  0  0  0  0  0  0  0  0  0  0  0
   -2.6173   11.3446   -6.3303 C   0  0  0  0  0  0  0  0  0  0  0  0
   -2.1587   12.0185   -7.8896 Cl  0  0  0  0  0  0  0  0  0  0  0  0
   -4.6321   13.2495   -6.0389 Cl  0  0  0  0  0  0  0  0  0  0  0  0
   -1.1265    8.0600   -6.6927 C   0  0  0  0  0  0  0  0  0  0  0  0
   -2.4733    7.0880   -6.4010 S   0  0  0  0  0  0  0  0  0  0  0  0
    0.7747   11.2652   -6.3177 C   0  0  0  0  0  0  0  0  0  0  0  0
    2.1068   11.4924   -6.6611 C   0  0  0  0  0  0  0  0  0  0  0  0
    2.7333   10.1037   -7.3861 S   0  0  0  0  0  0  0  0  0  0  0  0
    2.7898   12.7922   -6.5560 C   0  0  0  0  0  0  0  0  0  0  0  0
    2.0505   14.2876   -6.8673 S   0  0  0  0  0  0  0  0  0  0  0  0
    3.4118   15.2833   -6.7343 C   0  0  0  0  0  0  0  0  0  0  0  0
    4.4609   14.4272   -6.4427 C   0  0  0  0  0  0  0  0  0  0  0  0
    4.1383   13.0764   -6.3240 C   0  0  0  0  0  0  0  0  0  0  0  0
    5.2497   12.3205   -5.9546 C   0  0  0  0  0  0  0  0  0  0  0  0
    6.3784   13.0878   -5.8623 C   0  0  0  0  0  0  0  0  0  0  0  0
    6.1066   14.7305   -6.1475 S   0  0  0  0  0  0  0  0  0  0  0  0
    7.6937   12.1834   -5.3547 S   0  0  0  0  0  0  0  0  0  0  0  0
    6.7867   10.7471   -5.2406 C   0  0  0  0  0  0  0  0  0  0  0  0
    5.4540   10.9873   -5.5901 C   0  0  0  0  0  0  0  0  0  0  0  0
    5.7643  -13.8142    9.7919 H   0  0  0  0  0  0  0  0  0  0  0  0
    6.2051  -12.3184    7.7103 H   0  0  0  0  0  0  0  0  0  0  0  0
    7.2529   -9.9610    2.0435 H   0  0  0  0  0  0  0  0  0  0  0  0
    8.3299   -8.8478    2.9565 H   0  0  0  0  0  0  0  0  0  0  0  0
    9.6132  -10.8143    2.1921 H   0  0  0  0  0  0  0  0  0  0  0  0
    8.4332  -11.9347    2.9821 H   0  0  0  0  0  0  0  0  0  0  0  0
    9.4816  -10.8585    3.9914 H   0  0  0  0  0  0  0  0  0  0  0  0
   -2.5907  -13.4992   12.0155 H   0  0  0  0  0  0  0  0  0  0  0  0
   -1.3623  -12.4433   12.8025 H   0  0  0  0  0  0  0  0  0  0  0  0
   -2.4863  -10.4080   11.9476 H   0  0  0  0  0  0  0  0  0  0  0  0
   -3.6804  -11.4160   11.0371 H   0  0  0  0  0  0  0  0  0  0  0  0
   -3.6684  -11.4406   12.8423 H   0  0  0  0  0  0  0  0  0  0  0  0
   -0.5976  -10.3128    6.9688 H   0  0  0  0  0  0  0  0  0  0  0  0
   -1.7779   -8.2399    6.4470 H   0  0  0  0  0  0  0  0  0  0  0  0
   -5.1166   -7.0744   10.9268 H   0  0  0  0  0  0  0  0  0  0  0  0
   -3.3383   -6.8015   10.9947 H   0  0  0  0  0  0  0  0  0  0  0  0
   -5.5079   -4.6009   10.7671 H   0  0  0  0  0  0  0  0  0  0  0  0
   -3.7212   -4.3169   10.8217 H   0  0  0  0  0  0  0  0  0  0  0  0
   -4.5611   -5.0343   12.2476 H   0  0  0  0  0  0  0  0  0  0  0  0
   -1.2168   -3.1952   -2.2141 H   0  0  0  0  0  0  0  0  0  0  0  0
    0.5678   -2.9794   -2.2362 H   0  0  0  0  0  0  0  0  0  0  0  0
   -0.9799   -5.6135   -2.6704 H   0  0  0  0  0  0  0  0  0  0  0  0
    0.8269   -5.4892   -2.5816 H   0  0  0  0  0  0  0  0  0  0  0  0
   -0.0851   -4.6583   -3.9083 H   0  0  0  0  0  0  0  0  0  0  0  0
   -1.8239   -2.4092    2.5713 H   0  0  0  0  0  0  0  0  0  0  0  0
   -2.9690    2.4387    6.0462 H   0  0  0  0  0  0  0  0  0  0  0  0
   -3.1539   -1.3800    0.9612 H   0  0  0  0  0  0  0  0  0  0  0  0
   -4.2289    0.5998   -1.5470 H   0  0  0  0  0  0  0  0  0  0  0  0
   -9.3405    3.6599   -2.1170 H   0  0  0  0  0  0  0  0  0  0  0  0
   -8.1346    3.7416   -0.7851 H   0  0  0  0  0  0  0  0  0  0  0  0
   -9.5053    1.1472   -1.7742 H   0  0  0  0  0  0  0  0  0  0  0  0
   -9.9825    2.0987   -0.3176 H   0  0  0  0  0  0  0  0  0  0  0  0
   -8.3587    1.3060   -0.3807 H   0  0  0  0  0  0  0  0  0  0  0  0
    4.3385   -0.5307   -6.3089 H   0  0  0  0  0  0  0  0  0  0  0  0
    4.3696    0.9850   -5.3412 H   0  0  0  0  0  0  0  0  0  0  0  0
    5.5077    1.2846   -7.5168 H   0  0  0  0  0  0  0  0  0  0  0  0
    4.0233    0.8091   -8.4129 H   0  0  0  0  0  0  0  0  0  0  0  0
    4.0371    2.3416   -7.4332 H   0  0  0  0  0  0  0  0  0  0  0  0
   -0.4452    3.1569   -6.8058 H   0  0  0  0  0  0  0  0  0  0  0  0
    0.1995    5.1610   -7.7450 H   0  0  0  0  0  0  0  0  0  0  0  0
    3.8347    4.7421  -11.4668 H   0  0  0  0  0  0  0  0  0  0  0  0
    5.2463    4.3924  -10.4217 H   0  0  0  0  0  0  0  0  0  0  0  0
    4.6878    7.0574  -11.8824 H   0  0  0  0  0  0  0  0  0  0  0  0
    6.1175    6.7202  -10.8259 H   0  0  0  0  0  0  0  0  0  0  0  0
    5.8984    5.8105  -12.3683 H   0  0  0  0  0  0  0  0  0  0  0  0
   -5.8914   11.7901   -3.8764 H   0  0  0  0  0  0  0  0  0  0  0  0
   -5.2608   10.4376   -2.8760 H   0  0  0  0  0  0  0  0  0  0  0  0
   -4.1989   13.3405   -2.8419 H   0  0  0  0  0  0  0  0  0  0  0  0
   -3.5893   11.9757   -1.8151 H   0  0  0  0  0  0  0  0  0  0  0  0
   -5.2802   12.5888   -1.6066 H   0  0  0  0  0  0  0  0  0  0  0  0
    0.1473   12.0171   -5.8565 H   0  0  0  0  0  0  0  0  0  0  0  0
    3.4637   16.3534   -6.8647 H   0  0  0  0  0  0  0  0  0  0  0  0
    7.1759    9.7827   -4.9301 H   0  0  0  0  0  0  0  0  0  0  0  0
    4.6854   10.2354   -5.5293 H   0  0  0  0  0  0  0  0  0  0  0  0
  1  2  2  0
  2  3  1  0
  3  4  2  0
  4  5  1  0
  5  6  1  0
  6  7  1  0
  7  8  1  0
  8  9  1  0
  7 10  2  0
 10 11  1  0
 10 12  1  0
 12 13  1  0
  4 14  1  0
 14 15  2  0
 15 16  1  0
 16 17  1  0
 17 18  1  0
 18 19  1  0
 19 20  1  0
 20 21  1  0
 19 22  2  0
 22 23  1  0
 23 24  1  0
 22 25  1  0
 16 26  2  0
 26 27  1  0
 15 28  1  0
 28 29  2  0
 29 30  1  0
 29 31  1  0
 31 32  2  0
 32 33  1  0
 33 34  2  0
 34 35  1  0
 35 36  1  0
 36 37  1  0
 37 38  1  0
 38 39  1  0
 37 40  2  0
 40 41  1  0
 40 42  1  0
 42 43  1  0
 34 44  1  0
 44 45  2  0
 45 46  1  0
 46 47  1  0
 47 48  1  0
 48 49  1  0
 49 50  1  0
 50 51  1  0
 49 52  2  0
 52 53  1  0
 53 54  1  0
 52 55  1  0
 46 56  2  0
 56 57  1  0
 45 58  1  0
 58 59  2  0
 59 60  1  0
 59 61  1  0
 61 62  1  0
 62 63  1  0
 63 64  2  0
 64 65  1  0
 65 66  1  0
 66 67  2  0
 67 68  1  0
 67 69  1  0
 69 70  1  0
 70 71  2  0
 70 72  1  0
 72 73  2  0
 73 74  1  0
 74 75  2  0
 75 76  1  0
 76 77  1  0
 77 78  1  0
 78 79  1  0
 79 80  1  0
 78 81  2  0
 81 82  1  0
 81 83  1  0
 83 84  1  0
 75 85  1  0
 85 86  2  0
 86 87  1  0
 87 88  1  0
 88 89  1  0
 89 90  1  0
 90 91  1  0
 91 92  1  0
 90 93  2  0
 93 94  1  0
 94 95  1  0
 93 96  1  0
 87 97  2  0
 97 98  1  0
 86 99  1  0
 99100  2  0
100101  1  0
100102  1  0
102103  2  0
103104  1  0
104105  2  0
105106  1  0
106107  1  0
107108  1  0
108109  1  0
109110  1  0
108111  2  0
111112  1  0
111113  1  0
113114  1  0
105115  1  0
115116  2  0
116117  1  0
117118  1  0
118119  1  0
119120  1  0
120121  1  0
121122  1  0
120123  2  0
123124  1  0
124125  1  0
123126  1  0
117127  2  0
127128  1  0
116129  1  0
129130  2  0
130131  1  0
130132  1  0
132133  1  0
133134  1  0
134135  2  0
135136  1  0
136137  1  0
137138  2  0
138139  1  0
138140  1  0
140141  1  0
141142  2  0
 27  1  1  0
 57 31  1  0
 65 61  2  0
 71 66  1  0
 98 72  1  0
128102  1  0
136132  2  0
142137  1  0
 26  3  1  0
 56 33  1  0
 68 64  1  0
 97 74  1  0
127104  1  0
139135  1  0
 12  5  2  0
 30 14  1  0
 42 35  2  0
 60 44  1  0
 83 76  2  0
101 85  1  0
113106  2  0
131115  1  0
 23 17  2  0
 53 47  2  0
 94 88  2  0
124118  2  0
  1143  1  0
  2144  1  0
  8145  1  0
  8146  1  0
  9147  1  0
  9148  1  0
  9149  1  0
 20150  1  0
 20151  1  0
 21152  1  0
 21153  1  0
 21154  1  0
 28155  1  0
 32156  1  0
 38157  1  0
 38158  1  0
 39159  1  0
 39160  1  0
 39161  1  0
 50162  1  0
 50163  1  0
 51164  1  0
 51165  1  0
 51166  1  0
 58167  1  0
 63168  1  0
 71169  1  0
 73170  1  0
 79171  1  0
 79172  1  0
 80173  1  0
 80174  1  0
 80175  1  0
 91176  1  0
 91177  1  0
 92178  1  0
 92179  1  0
 92180  1  0
 99181  1  0
103182  1  0
109183  1  0
109184  1  0
110185  1  0
110186  1  0
110187  1  0
121188  1  0
121189  1  0
122190  1  0
122191  1  0
122192  1  0
129193  1  0
134194  1  0
141195  1  0
142196  1  0
M  END

