
     RDKit          3D

225252  0  0  0  0  0  0  0  0999 V2000
    4.2830    0.1390   11.4727 C   0  0  0  0  0  0  0  0  0  0  0  0
    5.3597    0.7857   12.6151 S   0  0  0  0  0  0  0  0  0  0  0  0
    6.3691   -0.5608   12.8251 C   0  0  0  0  0  0  0  0  0  0  0  0
    5.8524   -1.5262   11.9806 C   0  0  0  0  0  0  0  0  0  0  0  0
    4.7301   -1.1538   11.2555 C   0  0  0  0  0  0  0  0  0  0  0  0
    4.2792   -2.1714   10.4330 C   0  0  0  0  0  0  0  0  0  0  0  0
    5.0556   -3.2886   10.5345 C   0  0  0  0  0  0  0  0  0  0  0  0
    6.3353   -3.1210   11.6321 S   0  0  0  0  0  0  0  0  0  0  0  0
    4.5166   -4.4982    9.5129 S   0  0  0  0  0  0  0  0  0  0  0  0
    3.2269   -3.5454    8.9223 C   0  0  0  0  0  0  0  0  0  0  0  0
    3.2288   -2.2781    9.5299 C   0  0  0  0  0  0  0  0  0  0  0  0
    2.2652   -3.9860    7.9002 C   0  0  0  0  0  0  0  0  0  0  0  0
    2.3509   -5.1621    7.1536 C   0  0  0  0  0  0  0  0  0  0  0  0
    1.3030   -5.3033    6.2280 C   0  0  0  0  0  0  0  0  0  0  0  0
    1.1180   -6.3724    5.3262 C   0  0  0  0  0  0  0  0  0  0  0  0
    2.0749   -7.4878    5.2284 C   0  0  0  0  0  0  0  0  0  0  0  0
    3.6819   -7.3326    4.7648 S   0  0  0  0  0  0  0  0  0  0  0  0
    4.0603   -8.9680    4.8783 C   0  0  0  0  0  0  0  0  0  0  0  0
    5.4324   -9.5353    4.6680 C   0  0  0  0  0  0  0  0  0  0  0  0
    6.2667   -9.4024    5.9378 C   0  0  0  0  0  0  0  0  0  0  0  0
    2.9258   -9.6612    5.2995 C   0  0  0  0  0  0  0  0  0  0  0  0
    2.8943  -11.3973    5.5904 Cl  0  0  0  0  0  0  0  0  0  0  0  0
    1.8076   -8.8324    5.4840 C   0  0  0  0  0  0  0  0  0  0  0  0
    0.2507   -9.4200    6.0551 Cl  0  0  0  0  0  0  0  0  0  0  0  0
   -0.0003   -6.3026    4.4779 C   0  0  0  0  0  0  0  0  0  0  0  0
   -0.9129   -5.2466    4.5229 C   0  0  0  0  0  0  0  0  0  0  0  0
   -0.7352   -4.1814    5.4289 C   0  0  0  0  0  0  0  0  0  0  0  0
   -1.6654   -3.0394    5.4669 C   0  0  0  0  0  0  0  0  0  0  0  0
   -3.2890   -3.1425    5.8885 S   0  0  0  0  0  0  0  0  0  0  0  0
   -3.6599   -1.5338    5.5608 C   0  0  0  0  0  0  0  0  0  0  0  0
   -5.0352   -0.9469    5.6400 C   0  0  0  0  0  0  0  0  0  0  0  0
   -5.7958   -1.1743    4.3392 C   0  0  0  0  0  0  0  0  0  0  0  0
   -2.5139   -0.9003    5.0828 C   0  0  0  0  0  0  0  0  0  0  0  0
   -1.3914   -1.7433    5.0367 C   0  0  0  0  0  0  0  0  0  0  0  0
    0.1671   -1.2394    4.4004 Cl  0  0  0  0  0  0  0  0  0  0  0  0
   -2.4829    0.7751    4.5443 Cl  0  0  0  0  0  0  0  0  0  0  0  0
    0.3928   -4.2399    6.2648 C   0  0  0  0  0  0  0  0  0  0  0  0
    0.8891   -3.1292    7.4255 S   0  0  0  0  0  0  0  0  0  0  0  0
   -1.8945   -5.3203    3.5238 C   0  0  0  0  0  0  0  0  0  0  0  0
   -1.7383   -6.4211    2.6824 C   0  0  0  0  0  0  0  0  0  0  0  0
   -0.3881   -7.3044    3.1818 S   0  0  0  0  0  0  0  0  0  0  0  0
   -2.4303   -6.5964    1.3978 C   0  0  0  0  0  0  0  0  0  0  0  0
   -3.5382   -5.8602    0.9788 C   0  0  0  0  0  0  0  0  0  0  0  0
   -3.7649   -5.9437   -0.4033 C   0  0  0  0  0  0  0  0  0  0  0  0
   -4.7090   -5.1945   -1.1308 C   0  0  0  0  0  0  0  0  0  0  0  0
   -5.6665   -4.2999   -0.4519 C   0  0  0  0  0  0  0  0  0  0  0  0
   -5.6365   -2.6182   -0.5179 S   0  0  0  0  0  0  0  0  0  0  0  0
   -6.8942   -2.3759    0.5742 C   0  0  0  0  0  0  0  0  0  0  0  0
   -7.4433   -1.0359    0.9595 C   0  0  0  0  0  0  0  0  0  0  0  0
   -8.5938   -0.6304    0.0444 C   0  0  0  0  0  0  0  0  0  0  0  0
   -7.3652   -3.6184    0.9976 C   0  0  0  0  0  0  0  0  0  0  0  0
   -8.6922   -3.8176    2.1333 Cl  0  0  0  0  0  0  0  0  0  0  0  0
   -6.6703   -4.6971    0.4293 C   0  0  0  0  0  0  0  0  0  0  0  0
   -7.0499   -6.3801    0.7695 Cl  0  0  0  0  0  0  0  0  0  0  0  0
   -4.5935   -5.2201   -2.5286 C   0  0  0  0  0  0  0  0  0  0  0  0
   -3.6148   -5.9687   -3.1923 C   0  0  0  0  0  0  0  0  0  0  0  0
   -2.7311   -6.7912   -2.4659 C   0  0  0  0  0  0  0  0  0  0  0  0
   -1.6943   -7.5985   -3.1297 C   0  0  0  0  0  0  0  0  0  0  0  0
   -1.9935   -9.0417   -3.9355 S   0  0  0  0  0  0  0  0  0  0  0  0
   -0.3810   -9.4223   -4.2281 C   0  0  0  0  0  0  0  0  0  0  0  0
    0.0935  -10.7115   -4.8263 C   0  0  0  0  0  0  0  0  0  0  0  0
    0.2712  -11.7716   -3.7435 C   0  0  0  0  0  0  0  0  0  0  0  0
    0.4200   -8.4245   -3.6719 C   0  0  0  0  0  0  0  0  0  0  0  0
   -0.3159   -7.4000   -3.0608 C   0  0  0  0  0  0  0  0  0  0  0  0
    0.4289   -6.0102   -2.2815 Cl  0  0  0  0  0  0  0  0  0  0  0  0
    2.1781   -8.4638   -3.6995 Cl  0  0  0  0  0  0  0  0  0  0  0  0
   -2.8283   -6.7423   -1.0647 C   0  0  0  0  0  0  0  0  0  0  0  0
   -1.7558   -7.3762    0.0654 S   0  0  0  0  0  0  0  0  0  0  0  0
   -3.5163   -5.6569   -4.5603 C   0  0  0  0  0  0  0  0  0  0  0  0
   -4.4080   -4.6556   -4.9634 C   0  0  0  0  0  0  0  0  0  0  0  0
   -5.3484   -4.2094   -3.6331 S   0  0  0  0  0  0  0  0  0  0  0  0
   -4.1778   -3.7405   -6.0936 C   0  0  0  0  0  0  0  0  0  0  0  0
   -2.9025   -3.4059   -6.5483 C   0  0  0  0  0  0  0  0  0  0  0  0
   -2.8321   -2.1289   -7.1309 C   0  0  0  0  0  0  0  0  0  0  0  0
   -1.6439   -1.4271   -7.4181 C   0  0  0  0  0  0  0  0  0  0  0  0
   -0.3237   -2.0679   -7.2617 C   0  0  0  0  0  0  0  0  0  0  0  0
    0.7482   -1.7627   -6.0020 S   0  0  0  0  0  0  0  0  0  0  0  0
    1.8516   -2.9664   -6.4073 C   0  0  0  0  0  0  0  0  0  0  0  0
    3.0629   -3.3194   -5.5966 C   0  0  0  0  0  0  0  0  0  0  0  0
    2.7303   -4.4019   -4.5769 C   0  0  0  0  0  0  0  0  0  0  0  0
    1.3693   -3.6550   -7.5207 C   0  0  0  0  0  0  0  0  0  0  0  0
    2.1786   -5.0488   -8.2214 Cl  0  0  0  0  0  0  0  0  0  0  0  0
    0.1516   -3.1518   -7.9993 C   0  0  0  0  0  0  0  0  0  0  0  0
   -0.7019   -3.8344   -9.3771 Cl  0  0  0  0  0  0  0  0  0  0  0  0
   -1.7673   -0.0477   -7.6542 C   0  0  0  0  0  0  0  0  0  0  0  0
   -3.0025    0.6087   -7.6613 C   0  0  0  0  0  0  0  0  0  0  0  0
   -4.1939   -0.1161   -7.4749 C   0  0  0  0  0  0  0  0  0  0  0  0
   -5.5020    0.5543   -7.4254 C   0  0  0  0  0  0  0  0  0  0  0  0
   -6.4589    0.8726   -8.7632 S   0  0  0  0  0  0  0  0  0  0  0  0
   -7.7264    1.5847   -7.9114 C   0  0  0  0  0  0  0  0  0  0  0  0
   -8.9772    2.1247   -8.5417 C   0  0  0  0  0  0  0  0  0  0  0  0
   -9.7334    1.0254   -9.2817 C   0  0  0  0  0  0  0  0  0  0  0  0
   -7.4028    1.5874   -6.5530 C   0  0  0  0  0  0  0  0  0  0  0  0
   -6.1551    1.0038   -6.2816 C   0  0  0  0  0  0  0  0  0  0  0  0
   -5.4669    0.8768   -4.6702 Cl  0  0  0  0  0  0  0  0  0  0  0  0
   -8.4381    2.2499   -5.2965 Cl  0  0  0  0  0  0  0  0  0  0  0  0
   -4.0681   -1.4802   -7.1757 C   0  0  0  0  0  0  0  0  0  0  0  0
   -5.2296   -2.4759   -6.4822 S   0  0  0  0  0  0  0  0  0  0  0  0
   -2.8912    2.0095   -7.6533 C   0  0  0  0  0  0  0  0  0  0  0  0
   -1.5678    2.4548   -7.6136 C   0  0  0  0  0  0  0  0  0  0  0  0
   -0.5478    1.1080   -7.6466 S   0  0  0  0  0  0  0  0  0  0  0  0
   -1.1517    3.7202   -6.9897 C   0  0  0  0  0  0  0  0  0  0  0  0
   -1.8216    4.2539   -5.8866 C   0  0  0  0  0  0  0  0  0  0  0  0
   -1.0006    5.0294   -5.0540 C   0  0  0  0  0  0  0  0  0  0  0  0
   -1.3225    5.4415   -3.7404 C   0  0  0  0  0  0  0  0  0  0  0  0
   -2.6691    5.2184   -3.1725 C   0  0  0  0  0  0  0  0  0  0  0  0
   -3.0051    4.2230   -1.8575 S   0  0  0  0  0  0  0  0  0  0  0  0
   -4.6731    4.4259   -1.8918 C   0  0  0  0  0  0  0  0  0  0  0  0
   -5.6320    3.7514   -0.9555 C   0  0  0  0  0  0  0  0  0  0  0  0
   -6.1449    2.4460   -1.5482 C   0  0  0  0  0  0  0  0  0  0  0  0
   -4.9995    5.2533   -2.9642 C   0  0  0  0  0  0  0  0  0  0  0  0
   -6.6485    5.6813   -3.3926 Cl  0  0  0  0  0  0  0  0  0  0  0  0
   -3.8759    5.7045   -3.6784 C   0  0  0  0  0  0  0  0  0  0  0  0
   -3.9862    6.7920   -5.0562 Cl  0  0  0  0  0  0  0  0  0  0  0  0
   -0.2544    5.8967   -2.9442 C   0  0  0  0  0  0  0  0  0  0  0  0
    1.0543    5.9902   -3.4256 C   0  0  0  0  0  0  0  0  0  0  0  0
    1.3540    5.6552   -4.7587 C   0  0  0  0  0  0  0  0  0  0  0  0
    2.7307    5.7054   -5.2699 C   0  0  0  0  0  0  0  0  0  0  0  0
    3.4013    7.0235   -6.0632 S   0  0  0  0  0  0  0  0  0  0  0  0
    4.9426    6.3622   -6.2250 C   0  0  0  0  0  0  0  0  0  0  0  0
    6.1192    7.0937   -6.7960 C   0  0  0  0  0  0  0  0  0  0  0  0
    6.8256    7.9048   -5.7138 C   0  0  0  0  0  0  0  0  0  0  0  0
    4.9525    5.0990   -5.6369 C   0  0  0  0  0  0  0  0  0  0  0  0
    3.7067    4.7272   -5.1072 C   0  0  0  0  0  0  0  0  0  0  0  0
    3.4162    3.1971   -4.2904 Cl  0  0  0  0  0  0  0  0  0  0  0  0
    6.3857    4.0768   -5.5476 Cl  0  0  0  0  0  0  0  0  0  0  0  0
    0.3061    5.1489   -5.5411 C   0  0  0  0  0  0  0  0  0  0  0  0
    0.4444    4.2673   -6.9654 S   0  0  0  0  0  0  0  0  0  0  0  0
    1.9968    6.2645   -2.4241 C   0  0  0  0  0  0  0  0  0  0  0  0
    1.4265    6.3979   -1.1615 C   0  0  0  0  0  0  0  0  0  0  0  0
   -0.2422    6.1686   -1.2812 S   0  0  0  0  0  0  0  0  0  0  0  0
    2.1771    6.2292    0.0796 C   0  0  0  0  0  0  0  0  0  0  0  0
    2.7587    5.0299    0.4792 C   0  0  0  0  0  0  0  0  0  0  0  0
    3.4322    5.1384    1.7037 C   0  0  0  0  0  0  0  0  0  0  0  0
    4.0878    4.0975    2.3903 C   0  0  0  0  0  0  0  0  0  0  0  0
    4.1533    2.7312    1.8396 C   0  0  0  0  0  0  0  0  0  0  0  0
    4.9768    2.3000    0.4368 S   0  0  0  0  0  0  0  0  0  0  0  0
    4.5079    0.6844    0.4446 C   0  0  0  0  0  0  0  0  0  0  0  0
    4.9284   -0.3307   -0.5770 C   0  0  0  0  0  0  0  0  0  0  0  0
    6.0698   -1.1953   -0.0573 C   0  0  0  0  0  0  0  0  0  0  0  0
    3.6949    0.4599    1.5569 C   0  0  0  0  0  0  0  0  0  0  0  0
    2.9709   -1.1005    1.9314 Cl  0  0  0  0  0  0  0  0  0  0  0  0
    3.4931    1.6102    2.3391 C   0  0  0  0  0  0  0  0  0  0  0  0
    2.4605    1.6439    3.7597 Cl  0  0  0  0  0  0  0  0  0  0  0  0
    4.6893    4.4274    3.6167 C   0  0  0  0  0  0  0  0  0  0  0  0
    4.6556    5.7191    4.1501 C   0  0  0  0  0  0  0  0  0  0  0  0
    3.9967    6.7602    3.4647 C   0  0  0  0  0  0  0  0  0  0  0  0
    3.9788    8.1415    3.9788 C   0  0  0  0  0  0  0  0  0  0  0  0
    3.1767    8.6455    5.3672 S   0  0  0  0  0  0  0  0  0  0  0  0
    3.6198   10.2635    5.2526 C   0  0  0  0  0  0  0  0  0  0  0  0
    3.1599   11.3451    6.1889 C   0  0  0  0  0  0  0  0  0  0  0  0
    1.8695   11.9820    5.6828 C   0  0  0  0  0  0  0  0  0  0  0  0
    4.3882   10.4361    4.1016 C   0  0  0  0  0  0  0  0  0  0  0  0
    4.5978    9.2432    3.3935 C   0  0  0  0  0  0  0  0  0  0  0  0
    5.5827    9.1463    1.9391 Cl  0  0  0  0  0  0  0  0  0  0  0  0
    5.0309   11.9900    3.5852 Cl  0  0  0  0  0  0  0  0  0  0  0  0
    3.3824    6.4298    2.2434 C   0  0  0  0  0  0  0  0  0  0  0  0
    2.4803    7.4271    1.2236 S   0  0  0  0  0  0  0  0  0  0  0  0
    5.3540    5.8303    5.3624 C   0  0  0  0  0  0  0  0  0  0  0  0
    5.9328    4.6319    5.7747 C   0  0  0  0  0  0  0  0  0  0  0  0
    5.5856    3.4364    4.6369 S   0  0  0  0  0  0  0  0  0  0  0  0
    3.4359    0.6276   11.0090 H   0  0  0  0  0  0  0  0  0  0  0  0
    7.2302   -0.6511   13.4754 H   0  0  0  0  0  0  0  0  0  0  0  0
    2.5215   -1.4869    9.3192 H   0  0  0  0  0  0  0  0  0  0  0  0
    3.1460   -5.8834    7.2762 H   0  0  0  0  0  0  0  0  0  0  0  0
    5.3677  -10.6034    4.3734 H   0  0  0  0  0  0  0  0  0  0  0  0
    5.9307   -8.9866    3.8427 H   0  0  0  0  0  0  0  0  0  0  0  0
    6.4110   -8.3325    6.1937 H   0  0  0  0  0  0  0  0  0  0  0  0
    5.7697   -9.9211    6.7839 H   0  0  0  0  0  0  0  0  0  0  0  0
    7.2659   -9.8593    5.7734 H   0  0  0  0  0  0  0  0  0  0  0  0
   -4.9770    0.1424    5.8561 H   0  0  0  0  0  0  0  0  0  0  0  0
   -5.5917   -1.4269    6.4744 H   0  0  0  0  0  0  0  0  0  0  0  0
   -6.8021   -0.7147    4.4120 H   0  0  0  0  0  0  0  0  0  0  0  0
   -5.9161   -2.2610    4.1424 H   0  0  0  0  0  0  0  0  0  0  0  0
   -5.2519   -0.7111    3.4886 H   0  0  0  0  0  0  0  0  0  0  0  0
   -2.6355   -4.5491    3.3614 H   0  0  0  0  0  0  0  0  0  0  0  0
   -4.1041   -5.2169    1.6363 H   0  0  0  0  0  0  0  0  0  0  0  0
   -6.6363   -0.2734    0.8899 H   0  0  0  0  0  0  0  0  0  0  0  0
   -7.7984   -1.0612    2.0124 H   0  0  0  0  0  0  0  0  0  0  0  0
   -8.2356   -0.5335   -1.0035 H   0  0  0  0  0  0  0  0  0  0  0  0
   -8.9948    0.3468    0.3774 H   0  0  0  0  0  0  0  0  0  0  0  0
   -9.4052   -1.3859    0.0888 H   0  0  0  0  0  0  0  0  0  0  0  0
   -0.6484  -11.0653   -5.5747 H   0  0  0  0  0  0  0  0  0  0  0  0
    1.0624  -10.5549   -5.3514 H   0  0  0  0  0  0  0  0  0  0  0  0
    0.6816  -12.6997   -4.1915 H   0  0  0  0  0  0  0  0  0  0  0  0
    0.9757  -11.4120   -2.9638 H   0  0  0  0  0  0  0  0  0  0  0  0
   -0.7045  -12.0063   -3.2688 H   0  0  0  0  0  0  0  0  0  0  0  0
   -2.7278   -6.0392   -5.1976 H   0  0  0  0  0  0  0  0  0  0  0  0
   -2.0245   -3.9852   -6.2981 H   0  0  0  0  0  0  0  0  0  0  0  0
    3.8741   -3.6739   -6.2681 H   0  0  0  0  0  0  0  0  0  0  0  0
    3.4313   -2.4155   -5.0695 H   0  0  0  0  0  0  0  0  0  0  0  0
    1.9646   -4.0234   -3.8673 H   0  0  0  0  0  0  0  0  0  0  0  0
    3.6429   -4.6757   -4.0075 H   0  0  0  0  0  0  0  0  0  0  0  0
    2.3379   -5.3084   -5.0856 H   0  0  0  0  0  0  0  0  0  0  0  0
   -9.6491    2.5655   -7.7719 H   0  0  0  0  0  0  0  0  0  0  0  0
   -8.6992    2.9285   -9.2570 H   0  0  0  0  0  0  0  0  0  0  0  0
   -9.1410    0.6684  -10.1505 H   0  0  0  0  0  0  0  0  0  0  0  0
  -10.6998    1.4228   -9.6553 H   0  0  0  0  0  0  0  0  0  0  0  0
   -9.9354    0.1730   -8.6002 H   0  0  0  0  0  0  0  0  0  0  0  0
   -3.7389    2.6745   -7.5203 H   0  0  0  0  0  0  0  0  0  0  0  0
   -2.8150    3.9359   -5.6007 H   0  0  0  0  0  0  0  0  0  0  0  0
   -5.1164    3.5366    0.0048 H   0  0  0  0  0  0  0  0  0  0  0  0
   -6.4892    4.4260   -0.7398 H   0  0  0  0  0  0  0  0  0  0  0  0
   -6.7833    1.9230   -0.8062 H   0  0  0  0  0  0  0  0  0  0  0  0
   -6.7502    2.6498   -2.4552 H   0  0  0  0  0  0  0  0  0  0  0  0
   -5.2934    1.7824   -1.8142 H   0  0  0  0  0  0  0  0  0  0  0  0
    5.7758    7.7779   -7.6008 H   0  0  0  0  0  0  0  0  0  0  0  0
    6.8372    6.3739   -7.2462 H   0  0  0  0  0  0  0  0  0  0  0  0
    6.1388    8.6802   -5.3073 H   0  0  0  0  0  0  0  0  0  0  0  0
    7.7125    8.4147   -6.1471 H   0  0  0  0  0  0  0  0  0  0  0  0
    7.1589    7.2431   -4.8838 H   0  0  0  0  0  0  0  0  0  0  0  0
    3.0679    6.2544   -2.5840 H   0  0  0  0  0  0  0  0  0  0  0  0
    2.6806    4.1158   -0.0938 H   0  0  0  0  0  0  0  0  0  0  0  0
    4.0639   -0.9675   -0.8520 H   0  0  0  0  0  0  0  0  0  0  0  0
    5.2619    0.1946   -1.4961 H   0  0  0  0  0  0  0  0  0  0  0  0
    5.7557   -1.7474    0.8536 H   0  0  0  0  0  0  0  0  0  0  0  0
    6.9515   -0.5619    0.1797 H   0  0  0  0  0  0  0  0  0  0  0  0
    6.3579   -1.9296   -0.8382 H   0  0  0  0  0  0  0  0  0  0  0  0
    2.9841   10.9095    7.1944 H   0  0  0  0  0  0  0  0  0  0  0  0
    3.9466   12.1227    6.2821 H   0  0  0  0  0  0  0  0  0  0  0  0
    2.0157   12.3983    4.6658 H   0  0  0  0  0  0  0  0  0  0  0  0
    1.0556   11.2270    5.6540 H   0  0  0  0  0  0  0  0  0  0  0  0
    1.5683   12.8021    6.3670 H   0  0  0  0  0  0  0  0  0  0  0  0
    5.4552    6.7470    5.9257 H   0  0  0  0  0  0  0  0  0  0  0  0
    6.5202    4.4964    6.6707 H   0  0  0  0  0  0  0  0  0  0  0  0
  1  2  1  0
  2  3  1  0
  3  4  2  0
  4  5  1  0
  5  6  1  0
  6  7  2  0
  7  8  1  0
  7  9  1  0
  9 10  1  0
 10 11  2  0
 10 12  1  0
 12 13  2  0
 13 14  1  0
 14 15  2  0
 15 16  1  0
 16 17  1  0
 17 18  1  0
 18 19  1  0
 19 20  1  0
 18 21  2  0
 21 22  1  0
 21 23  1  0
 23 24  1  0
 15 25  1  0
 25 26  2  0
 26 27  1  0
 27 28  1  0
 28 29  1  0
 29 30  1  0
 30 31  1  0
 31 32  1  0
 30 33  2  0
 33 34  1  0
 34 35  1  0
 33 36  1  0
 27 37  2  0
 37 38  1  0
 26 39  1  0
 39 40  2  0
 40 41  1  0
 40 42  1  0
 42 43  2  0
 43 44  1  0
 44 45  2  0
 45 46  1  0
 46 47  1  0
 47 48  1  0
 48 49  1  0
 49 50  1  0
 48 51  2  0
 51 52  1  0
 51 53  1  0
 53 54  1  0
 45 55  1  0
 55 56  2  0
 56 57  1  0
 57 58  1  0
 58 59  1  0
 59 60  1  0
 60 61  1  0
 61 62  1  0
 60 63  2  0
 63 64  1  0
 64 65  1  0
 63 66  1  0
 57 67  2  0
 67 68  1  0
 56 69  1  0
 69 70  2  0
 70 71  1  0
 70 72  1  0
 72 73  2  0
 73 74  1  0
 74 75  2  0
 75 76  1  0
 76 77  1  0
 77 78  1  0
 78 79  1  0
 79 80  1  0
 78 81  2  0
 81 82  1  0
 81 83  1  0
 83 84  1  0
 75 85  1  0
 85 86  2  0
 86 87  1  0
 87 88  1  0
 88 89  1  0
 89 90  1  0
 90 91  1  0
 91 92  1  0
 90 93  2  0
 93 94  1  0
 94 95  1  0
 93 96  1  0
 87 97  2  0
 97 98  1  0
 86 99  1  0
 99100  2  0
100101  1  0
100102  1  0
102103  2  0
103104  1  0
104105  2  0
105106  1  0
106107  1  0
107108  1  0
108109  1  0
109110  1  0
108111  2  0
111112  1  0
111113  1  0
113114  1  0
105115  1  0
115116  2  0
116117  1  0
117118  1  0
118119  1  0
119120  1  0
120121  1  0
121122  1  0
120123  2  0
123124  1  0
124125  1  0
123126  1  0
117127  2  0
127128  1  0
116129  1  0
129130  2  0
130131  1  0
130132  1  0
132133  2  0
133134  1  0
134135  2  0
135136  1  0
136137  1  0
137138  1  0
138139  1  0
139140  1  0
138141  2  0
141142  1  0
141143  1  0
143144  1  0
135145  1  0
145146  2  0
146147  1  0
147148  1  0
148149  1  0
149150  1  0
150151  1  0
151152  1  0
150153  2  0
153154  1  0
154155  1  0
153156  1  0
147157  2  0
157158  1  0
146159  1  0
159160  2  0
160161  1  0
  5  1  2  0
 11  6  1  0
 38 12  1  0
 68 42  1  0
 98 72  1  0
128102  1  0
158132  1  0
  8  4  1  0
 37 14  1  0
 67 44  1  0
 97 74  1  0
127104  1  0
157134  1  0
 23 16  2  0
 41 25  1  0
 53 46  2  0
 71 55  1  0
 83 76  2  0
101 85  1  0
113106  2  0
131115  1  0
143136  2  0
161145  1  0
 34 28  2  0
 64 58  2  0
 94 88  2  0
124118  2  0
154148  2  0
  1162  1  0
  3163  1  0
 11164  1  0
 13165  1  0
 19166  1  0
 19167  1  0
 20168  1  0
 20169  1  0
 20170  1  0
 31171  1  0
 31172  1  0
 32173  1  0
 32174  1  0
 32175  1  0
 39176  1  0
 43177  1  0
 49178  1  0
 49179  1  0
 50180  1  0
 50181  1  0
 50182  1  0
 61183  1  0
 61184  1  0
 62185  1  0
 62186  1  0
 62187  1  0
 69188  1  0
 73189  1  0
 79190  1  0
 79191  1  0
 80192  1  0
 80193  1  0
 80194  1  0
 91195  1  0
 91196  1  0
 92197  1  0
 92198  1  0
 92199  1  0
 99200  1  0
103201  1  0
109202  1  0
109203  1  0
110204  1  0
110205  1  0
110206  1  0
121207  1  0
121208  1  0
122209  1  0
122210  1  0
122211  1  0
129212  1  0
133213  1  0
139214  1  0
139215  1  0
140216  1  0
140217  1  0
140218  1  0
151219  1  0
151220  1  0
152221  1  0
152222  1  0
152223  1  0
159224  1  0
160225  1  0
M  END

