
     RDKit          3D

196221  0  0  0  0  0  0  0  0999 V2000
    7.6538   11.8160    7.6407 C   0  0  0  0  0  0  0  0  0  0  0  0
    7.9072   10.7249    8.4657 C   0  0  0  0  0  0  0  0  0  0  0  0
    6.8838    9.7618    8.4408 C   0  0  0  0  0  0  0  0  0  0  0  0
    6.8718    8.5280    9.1291 C   0  0  0  0  0  0  0  0  0  0  0  0
    7.9978    8.0972    9.9768 C   0  0  0  0  0  0  0  0  0  0  0  0
    8.9547    6.7444    9.6826 S   0  0  0  0  0  0  0  0  0  0  0  0
    9.9620    6.9411   11.0151 C   0  0  0  0  0  0  0  0  0  0  0  0
   11.0373    5.9734   11.4140 C   0  0  0  0  0  0  0  0  0  0  0  0
   10.4603    4.8626   12.2844 C   0  0  0  0  0  0  0  0  0  0  0  0
    9.5398    8.0605   11.7309 C   0  0  0  0  0  0  0  0  0  0  0  0
   10.2856    8.5952   13.2330 Cl  0  0  0  0  0  0  0  0  0  0  0  0
    8.4432    8.7131   11.1455 C   0  0  0  0  0  0  0  0  0  0  0  0
    7.6671   10.1230   11.8554 Cl  0  0  0  0  0  0  0  0  0  0  0  0
    5.7578    7.6954    8.9248 C   0  0  0  0  0  0  0  0  0  0  0  0
    4.7127    8.0410    8.0615 C   0  0  0  0  0  0  0  0  0  0  0  0
    4.7415    9.2557    7.3510 C   0  0  0  0  0  0  0  0  0  0  0  0
    3.7029    9.5987    6.3663 C   0  0  0  0  0  0  0  0  0  0  0  0
    2.5530   10.8089    6.5612 S   0  0  0  0  0  0  0  0  0  0  0  0
    1.7617   10.5366    5.1009 C   0  0  0  0  0  0  0  0  0  0  0  0
    0.5316   11.2670    4.6498 C   0  0  0  0  0  0  0  0  0  0  0  0
   -0.7291   10.5244    5.0817 C   0  0  0  0  0  0  0  0  0  0  0  0
    2.3848    9.4736    4.4469 C   0  0  0  0  0  0  0  0  0  0  0  0
    3.4786    8.9535    5.1552 C   0  0  0  0  0  0  0  0  0  0  0  0
    4.4716    7.6249    4.5692 Cl  0  0  0  0  0  0  0  0  0  0  0  0
    1.8563    8.8385    2.8974 Cl  0  0  0  0  0  0  0  0  0  0  0  0
    5.8363   10.1022    7.5812 C   0  0  0  0  0  0  0  0  0  0  0  0
    6.1739   11.5864    6.8648 S   0  0  0  0  0  0  0  0  0  0  0  0
    3.7130    7.0627    7.9836 C   0  0  0  0  0  0  0  0  0  0  0  0
    3.9706    5.9646    8.7912 C   0  0  0  0  0  0  0  0  0  0  0  0
    5.4468    6.1777    9.5871 S   0  0  0  0  0  0  0  0  0  0  0  0
    3.2354    4.7054    8.7171 C   0  0  0  0  0  0  0  0  0  0  0  0
    1.9521    4.2194    9.7104 S   0  0  0  0  0  0  0  0  0  0  0  0
    1.5079    2.8175    8.8605 C   0  0  0  0  0  0  0  0  0  0  0  0
    2.3685    2.7563    7.7777 C   0  0  0  0  0  0  0  0  0  0  0  0
    3.2963    3.7826    7.6911 C   0  0  0  0  0  0  0  0  0  0  0  0
    4.1322    3.6440    6.5913 C   0  0  0  0  0  0  0  0  0  0  0  0
    3.8320    2.5332    5.8669 C   0  0  0  0  0  0  0  0  0  0  0  0
    2.5469    1.6322    6.5111 S   0  0  0  0  0  0  0  0  0  0  0  0
    4.9596    2.2903    4.6542 S   0  0  0  0  0  0  0  0  0  0  0  0
    5.8359    3.7053    5.0437 C   0  0  0  0  0  0  0  0  0  0  0  0
    5.2595    4.3325    6.1573 C   0  0  0  0  0  0  0  0  0  0  0  0
    7.1680    4.0536    4.5169 C   0  0  0  0  0  0  0  0  0  0  0  0
    8.4235    4.6794    5.4731 S   0  0  0  0  0  0  0  0  0  0  0  0
    9.6931    4.5266    4.3673 C   0  0  0  0  0  0  0  0  0  0  0  0
    9.1238    3.9742    3.2384 C   0  0  0  0  0  0  0  0  0  0  0  0
    7.7535    3.7330    3.2928 C   0  0  0  0  0  0  0  0  0  0  0  0
    7.2761    3.2422    2.0777 C   0  0  0  0  0  0  0  0  0  0  0  0
    8.2858    3.0567    1.1750 C   0  0  0  0  0  0  0  0  0  0  0  0
    9.8039    3.5348    1.7433 S   0  0  0  0  0  0  0  0  0  0  0  0
    7.7089    2.5278   -0.3036 S   0  0  0  0  0  0  0  0  0  0  0  0
    6.0863    2.5681    0.2190 C   0  0  0  0  0  0  0  0  0  0  0  0
    6.0071    3.0043    1.5510 C   0  0  0  0  0  0  0  0  0  0  0  0
    4.9353    2.2318   -0.6324 C   0  0  0  0  0  0  0  0  0  0  0  0
    3.6254    2.6611   -0.4363 C   0  0  0  0  0  0  0  0  0  0  0  0
    2.7322    2.1331   -1.3824 C   0  0  0  0  0  0  0  0  0  0  0  0
    1.3439    2.3630   -1.4289 C   0  0  0  0  0  0  0  0  0  0  0  0
    0.6778    3.2916   -0.5032 C   0  0  0  0  0  0  0  0  0  0  0  0
   -0.3622    2.8390    0.7389 S   0  0  0  0  0  0  0  0  0  0  0  0
   -0.7309    4.4032    1.2404 C   0  0  0  0  0  0  0  0  0  0  0  0
   -1.7224    4.7418    2.3136 C   0  0  0  0  0  0  0  0  0  0  0  0
   -3.1271    4.8684    1.7315 C   0  0  0  0  0  0  0  0  0  0  0  0
   -0.0614    5.3044    0.4135 C   0  0  0  0  0  0  0  0  0  0  0  0
   -0.2309    7.0499    0.5369 Cl  0  0  0  0  0  0  0  0  0  0  0  0
    0.7337    4.6778   -0.5578 C   0  0  0  0  0  0  0  0  0  0  0  0
    1.6641    5.5559   -1.7648 Cl  0  0  0  0  0  0  0  0  0  0  0  0
    0.6178    1.6649   -2.4009 C   0  0  0  0  0  0  0  0  0  0  0  0
    1.2171    0.7889   -3.3139 C   0  0  0  0  0  0  0  0  0  0  0  0
    2.6141    0.5842   -3.2917 C   0  0  0  0  0  0  0  0  0  0  0  0
    3.2754   -0.3706   -4.1997 C   0  0  0  0  0  0  0  0  0  0  0  0
    4.0672   -1.7713   -3.7041 S   0  0  0  0  0  0  0  0  0  0  0  0
    4.4723   -2.3055   -5.2468 C   0  0  0  0  0  0  0  0  0  0  0  0
    5.2447   -3.5588   -5.5323 C   0  0  0  0  0  0  0  0  0  0  0  0
    6.7426   -3.3248   -5.3784 C   0  0  0  0  0  0  0  0  0  0  0  0
    4.0062   -1.3761   -6.1765 C   0  0  0  0  0  0  0  0  0  0  0  0
    3.3269   -0.2962   -5.5898 C   0  0  0  0  0  0  0  0  0  0  0  0
    2.6377    1.0326   -6.5160 Cl  0  0  0  0  0  0  0  0  0  0  0  0
    4.2426   -1.5354   -7.9113 Cl  0  0  0  0  0  0  0  0  0  0  0  0
    3.3412    1.2761   -2.3050 C   0  0  0  0  0  0  0  0  0  0  0  0
    4.9911    1.2092   -1.9777 S   0  0  0  0  0  0  0  0  0  0  0  0
    0.2848    0.1051   -4.1138 C   0  0  0  0  0  0  0  0  0  0  0  0
   -1.0358    0.4465   -3.8205 C   0  0  0  0  0  0  0  0  0  0  0  0
   -1.0483    1.5990   -2.5877 S   0  0  0  0  0  0  0  0  0  0  0  0
   -2.2170   -0.3173   -4.2418 C   0  0  0  0  0  0  0  0  0  0  0  0
   -2.2844   -1.1931   -5.3247 C   0  0  0  0  0  0  0  0  0  0  0  0
   -3.4177   -2.0250   -5.2863 C   0  0  0  0  0  0  0  0  0  0  0  0
   -3.7114   -3.0810   -6.1744 C   0  0  0  0  0  0  0  0  0  0  0  0
   -2.9144   -3.3182   -7.3920 C   0  0  0  0  0  0  0  0  0  0  0  0
   -2.0586   -4.7270   -7.7306 S   0  0  0  0  0  0  0  0  0  0  0  0
   -1.4764   -4.2292   -9.2280 C   0  0  0  0  0  0  0  0  0  0  0  0
   -0.5627   -5.0406  -10.0997 C   0  0  0  0  0  0  0  0  0  0  0  0
    0.8956   -4.7647   -9.7542 C   0  0  0  0  0  0  0  0  0  0  0  0
   -1.9311   -2.9372   -9.4776 C   0  0  0  0  0  0  0  0  0  0  0  0
   -1.5357   -2.0306  -10.9300 Cl  0  0  0  0  0  0  0  0  0  0  0  0
   -2.7450   -2.4297   -8.4521 C   0  0  0  0  0  0  0  0  0  0  0  0
   -3.5157   -0.8492   -8.5265 Cl  0  0  0  0  0  0  0  0  0  0  0  0
   -4.7702   -3.9362   -5.8123 C   0  0  0  0  0  0  0  0  0  0  0  0
   -5.5277   -3.7426   -4.6524 C   0  0  0  0  0  0  0  0  0  0  0  0
   -5.2899   -2.6349   -3.8207 C   0  0  0  0  0  0  0  0  0  0  0  0
   -6.0599   -2.4188   -2.5855 C   0  0  0  0  0  0  0  0  0  0  0  0
   -5.4863   -2.7191   -1.0369 S   0  0  0  0  0  0  0  0  0  0  0  0
   -6.9116   -2.3054   -0.2413 C   0  0  0  0  0  0  0  0  0  0  0  0
   -7.1263   -2.4412    1.2358 C   0  0  0  0  0  0  0  0  0  0  0  0
   -7.6532   -3.8331    1.5718 C   0  0  0  0  0  0  0  0  0  0  0  0
   -7.8660   -1.9464   -1.1913 C   0  0  0  0  0  0  0  0  0  0  0  0
   -7.3881   -2.0114   -2.5088 C   0  0  0  0  0  0  0  0  0  0  0  0
   -8.3614   -1.6192   -3.9179 Cl  0  0  0  0  0  0  0  0  0  0  0  0
   -9.5082   -1.4690   -0.7853 Cl  0  0  0  0  0  0  0  0  0  0  0  0
   -4.2158   -1.8030   -4.1612 C   0  0  0  0  0  0  0  0  0  0  0  0
   -3.5577   -0.5615   -3.2459 S   0  0  0  0  0  0  0  0  0  0  0  0
   -6.4079   -4.7979   -4.3772 C   0  0  0  0  0  0  0  0  0  0  0  0
   -6.3516   -5.8126   -5.3299 C   0  0  0  0  0  0  0  0  0  0  0  0
   -5.2286   -5.3934   -6.5205 S   0  0  0  0  0  0  0  0  0  0  0  0
   -6.9070   -7.1575   -5.1456 C   0  0  0  0  0  0  0  0  0  0  0  0
   -7.1128   -8.1037   -6.1461 C   0  0  0  0  0  0  0  0  0  0  0  0
   -7.4459   -9.3732   -5.6374 C   0  0  0  0  0  0  0  0  0  0  0  0
   -7.7108  -10.5376   -6.3875 C   0  0  0  0  0  0  0  0  0  0  0  0
   -7.6848  -10.5399   -7.8616 C   0  0  0  0  0  0  0  0  0  0  0  0
   -9.0038  -10.9049   -8.8397 S   0  0  0  0  0  0  0  0  0  0  0  0
   -8.2126  -10.6756  -10.3063 C   0  0  0  0  0  0  0  0  0  0  0  0
   -8.8299  -10.9044  -11.6534 C   0  0  0  0  0  0  0  0  0  0  0  0
   -8.5924  -12.3370  -12.1169 C   0  0  0  0  0  0  0  0  0  0  0  0
   -6.8873  -10.3297  -10.0470 C   0  0  0  0  0  0  0  0  0  0  0  0
   -5.6972  -10.0345  -11.3076 Cl  0  0  0  0  0  0  0  0  0  0  0  0
   -6.5914  -10.2506   -8.6771 C   0  0  0  0  0  0  0  0  0  0  0  0
   -4.9853   -9.8897   -8.0576 Cl  0  0  0  0  0  0  0  0  0  0  0  0
   -8.0103  -11.7045   -5.6633 C   0  0  0  0  0  0  0  0  0  0  0  0
   -8.0272  -11.7437   -4.2644 C   0  0  0  0  0  0  0  0  0  0  0  0
   -7.7592  -10.5808   -3.5151 C   0  0  0  0  0  0  0  0  0  0  0  0
   -7.6601  -10.5934   -2.0424 C   0  0  0  0  0  0  0  0  0  0  0  0
   -6.2615  -10.2277   -1.1824 S   0  0  0  0  0  0  0  0  0  0  0  0
   -6.9488  -10.3540    0.3460 C   0  0  0  0  0  0  0  0  0  0  0  0
   -6.1994  -10.1647    1.6309 C   0  0  0  0  0  0  0  0  0  0  0  0
   -5.6426  -11.4912    2.1342 C   0  0  0  0  0  0  0  0  0  0  0  0
   -8.2909  -10.7000    0.2035 C   0  0  0  0  0  0  0  0  0  0  0  0
   -8.6934  -10.8247   -1.1363 C   0  0  0  0  0  0  0  0  0  0  0  0
  -10.3477  -11.1790   -1.6185 Cl  0  0  0  0  0  0  0  0  0  0  0  0
   -9.3783  -10.9408    1.5640 Cl  0  0  0  0  0  0  0  0  0  0  0  0
   -7.4861   -9.4088   -4.2398 C   0  0  0  0  0  0  0  0  0  0  0  0
   -7.1328   -7.8809   -3.6360 S   0  0  0  0  0  0  0  0  0  0  0  0
   -8.2834  -13.0264   -3.7514 C   0  0  0  0  0  0  0  0  0  0  0  0
   -8.4729  -13.9835   -4.7421 C   0  0  0  0  0  0  0  0  0  0  0  0
   -8.3113  -13.2515   -6.2540 S   0  0  0  0  0  0  0  0  0  0  0  0
    8.3064   12.6699    7.5098 H   0  0  0  0  0  0  0  0  0  0  0  0
    8.8138   10.6354    9.0473 H   0  0  0  0  0  0  0  0  0  0  0  0
   11.4928    5.5308   10.5025 H   0  0  0  0  0  0  0  0  0  0  0  0
   11.8381    6.5031   11.9723 H   0  0  0  0  0  0  0  0  0  0  0  0
    9.6992    4.2868   11.7168 H   0  0  0  0  0  0  0  0  0  0  0  0
    9.9936    5.2871   13.2000 H   0  0  0  0  0  0  0  0  0  0  0  0
   11.2739    4.1705   12.5873 H   0  0  0  0  0  0  0  0  0  0  0  0
    0.5387   11.3754    3.5439 H   0  0  0  0  0  0  0  0  0  0  0  0
    0.5247   12.2856    5.0935 H   0  0  0  0  0  0  0  0  0  0  0  0
   -0.7463    9.5031    4.6429 H   0  0  0  0  0  0  0  0  0  0  0  0
   -0.7688   10.4491    6.1891 H   0  0  0  0  0  0  0  0  0  0  0  0
   -1.6260   11.0776    4.7316 H   0  0  0  0  0  0  0  0  0  0  0  0
    2.8494    7.1277    7.3353 H   0  0  0  0  0  0  0  0  0  0  0  0
    0.7188    2.1192    9.1043 H   0  0  0  0  0  0  0  0  0  0  0  0
    5.6837    5.1910    6.6618 H   0  0  0  0  0  0  0  0  0  0  0  0
   10.7298    4.7915    4.5136 H   0  0  0  0  0  0  0  0  0  0  0  0
    5.0803    3.1787    2.0773 H   0  0  0  0  0  0  0  0  0  0  0  0
    3.3261    3.3204    0.3687 H   0  0  0  0  0  0  0  0  0  0  0  0
   -1.4393    5.6949    2.8066 H   0  0  0  0  0  0  0  0  0  0  0  0
   -1.7160    3.9433    3.0867 H   0  0  0  0  0  0  0  0  0  0  0  0
   -3.4343    3.9152    1.2525 H   0  0  0  0  0  0  0  0  0  0  0  0
   -3.8475    5.1048    2.5414 H   0  0  0  0  0  0  0  0  0  0  0  0
   -3.1605    5.6828    0.9779 H   0  0  0  0  0  0  0  0  0  0  0  0
    4.9223   -4.3514   -4.8256 H   0  0  0  0  0  0  0  0  0  0  0  0
    5.0286   -3.9208   -6.5611 H   0  0  0  0  0  0  0  0  0  0  0  0
    7.2807   -4.2779   -5.5542 H   0  0  0  0  0  0  0  0  0  0  0  0
    6.9774   -2.9680   -4.3524 H   0  0  0  0  0  0  0  0  0  0  0  0
    7.0915   -2.5752   -6.1194 H   0  0  0  0  0  0  0  0  0  0  0  0
    0.5534   -0.6747   -4.8119 H   0  0  0  0  0  0  0  0  0  0  0  0
   -1.5008   -1.2773   -6.0656 H   0  0  0  0  0  0  0  0  0  0  0  0
   -0.7770   -6.1201   -9.9545 H   0  0  0  0  0  0  0  0  0  0  0  0
   -0.7462   -4.7987  -11.1681 H   0  0  0  0  0  0  0  0  0  0  0  0
    1.5519   -5.3651  -10.4181 H   0  0  0  0  0  0  0  0  0  0  0  0
    1.1006   -5.0489   -8.6985 H   0  0  0  0  0  0  0  0  0  0  0  0
    1.1289   -3.6873   -9.8957 H   0  0  0  0  0  0  0  0  0  0  0  0
   -6.1634   -2.2796    1.7664 H   0  0  0  0  0  0  0  0  0  0  0  0
   -7.8459   -1.6722    1.5899 H   0  0  0  0  0  0  0  0  0  0  0  0
   -8.6258   -4.0116    1.0625 H   0  0  0  0  0  0  0  0  0  0  0  0
   -6.9223   -4.6078    1.2470 H   0  0  0  0  0  0  0  0  0  0  0  0
   -7.8007   -3.9235    2.6657 H   0  0  0  0  0  0  0  0  0  0  0  0
   -7.0065   -4.8630   -3.4767 H   0  0  0  0  0  0  0  0  0  0  0  0
   -7.0060   -7.8776   -7.1970 H   0  0  0  0  0  0  0  0  0  0  0  0
   -9.9225  -10.7153  -11.5958 H   0  0  0  0  0  0  0  0  0  0  0  0
   -8.3998  -10.1978  -12.3977 H   0  0  0  0  0  0  0  0  0  0  0  0
   -7.5027  -12.5553  -12.1619 H   0  0  0  0  0  0  0  0  0  0  0  0
   -9.0789  -13.0543  -11.4214 H   0  0  0  0  0  0  0  0  0  0  0  0
   -9.0247  -12.4753  -13.1306 H   0  0  0  0  0  0  0  0  0  0  0  0
   -5.3612   -9.4558    1.4651 H   0  0  0  0  0  0  0  0  0  0  0  0
   -6.8673   -9.7249    2.3989 H   0  0  0  0  0  0  0  0  0  0  0  0
   -4.9551  -11.9318    1.3812 H   0  0  0  0  0  0  0  0  0  0  0  0
   -5.0774  -11.3252    3.0747 H   0  0  0  0  0  0  0  0  0  0  0  0
   -6.4706  -12.2038    2.3353 H   0  0  0  0  0  0  0  0  0  0  0  0
   -8.3225  -13.2646   -2.6954 H   0  0  0  0  0  0  0  0  0  0  0  0
   -8.6759  -15.0322   -4.5694 H   0  0  0  0  0  0  0  0  0  0  0  0
  1  2  2  0
  2  3  1  0
  3  4  2  0
  4  5  1  0
  5  6  1  0
  6  7  1  0
  7  8  1  0
  8  9  1  0
  7 10  2  0
 10 11  1  0
 10 12  1  0
 12 13  1  0
  4 14  1  0
 14 15  2  0
 15 16  1  0
 16 17  1  0
 17 18  1  0
 18 19  1  0
 19 20  1  0
 20 21  1  0
 19 22  2  0
 22 23  1  0
 23 24  1  0
 22 25  1  0
 16 26  2  0
 26 27  1  0
 15 28  1  0
 28 29  2  0
 29 30  1  0
 29 31  1  0
 31 32  1  0
 32 33  1  0
 33 34  2  0
 34 35  1  0
 35 36  1  0
 36 37  2  0
 37 38  1  0
 37 39  1  0
 39 40  1  0
 40 41  2  0
 40 42  1  0
 42 43  1  0
 43 44  1  0
 44 45  2  0
 45 46  1  0
 46 47  1  0
 47 48  2  0
 48 49  1  0
 48 50  1  0
 50 51  1  0
 51 52  2  0
 51 53  1  0
 53 54  2  0
 54 55  1  0
 55 56  2  0
 56 57  1  0
 57 58  1  0
 58 59  1  0
 59 60  1  0
 60 61  1  0
 59 62  2  0
 62 63  1  0
 62 64  1  0
 64 65  1  0
 56 66  1  0
 66 67  2  0
 67 68  1  0
 68 69  1  0
 69 70  1  0
 70 71  1  0
 71 72  1  0
 72 73  1  0
 71 74  2  0
 74 75  1  0
 75 76  1  0
 74 77  1  0
 68 78  2  0
 78 79  1  0
 67 80  1  0
 80 81  2  0
 81 82  1  0
 81 83  1  0
 83 84  2  0
 84 85  1  0
 85 86  2  0
 86 87  1  0
 87 88  1  0
 88 89  1  0
 89 90  1  0
 90 91  1  0
 89 92  2  0
 92 93  1  0
 92 94  1  0
 94 95  1  0
 86 96  1  0
 96 97  2  0
 97 98  1  0
 98 99  1  0
 99100  1  0
100101  1  0
101102  1  0
102103  1  0
101104  2  0
104105  1  0
105106  1  0
104107  1  0
 98108  2  0
108109  1  0
 97110  1  0
110111  2  0
111112  1  0
111113  1  0
113114  2  0
114115  1  0
115116  2  0
116117  1  0
117118  1  0
118119  1  0
119120  1  0
120121  1  0
119122  2  0
122123  1  0
122124  1  0
124125  1  0
116126  1  0
126127  2  0
127128  1  0
128129  1  0
129130  1  0
130131  1  0
131132  1  0
132133  1  0
131134  2  0
134135  1  0
135136  1  0
134137  1  0
128138  2  0
138139  1  0
127140  1  0
140141  2  0
141142  1  0
 27  1  1  0
 35 31  2  0
 41 36  1  0
 46 42  2  0
 52 47  1  0
 79 53  1  0
109 83  1  0
139113  1  0
 26  3  1  0
 38 34  1  0
 49 45  1  0
 78 55  1  0
108 85  1  0
138115  1  0
 12  5  2  0
 30 14  1  0
 64 57  2  0
 82 66  1  0
 94 87  2  0
112 96  1  0
124117  2  0
142126  1  0
 23 17  2  0
 75 69  2  0
105 99  2  0
135129  2  0
  1143  1  0
  2144  1  0
  8145  1  0
  8146  1  0
  9147  1  0
  9148  1  0
  9149  1  0
 20150  1  0
 20151  1  0
 21152  1  0
 21153  1  0
 21154  1  0
 28155  1  0
 33156  1  0
 41157  1  0
 44158  1  0
 52159  1  0
 54160  1  0
 60161  1  0
 60162  1  0
 61163  1  0
 61164  1  0
 61165  1  0
 72166  1  0
 72167  1  0
 73168  1  0
 73169  1  0
 73170  1  0
 80171  1  0
 84172  1  0
 90173  1  0
 90174  1  0
 91175  1  0
 91176  1  0
 91177  1  0
102178  1  0
102179  1  0
103180  1  0
103181  1  0
103182  1  0
110183  1  0
114184  1  0
120185  1  0
120186  1  0
121187  1  0
121188  1  0
121189  1  0
132190  1  0
132191  1  0
133192  1  0
133193  1  0
133194  1  0
140195  1  0
141196  1  0
M  END

