
     RDKit          3D

225252  0  0  0  0  0  0  0  0999 V2000
    1.6570   -4.3394    9.3913 C   0  0  0  0  0  0  0  0  0  0  0  0
    2.1910   -5.1768    8.4176 C   0  0  0  0  0  0  0  0  0  0  0  0
    1.3792   -5.2895    7.2764 C   0  0  0  0  0  0  0  0  0  0  0  0
    1.6514   -6.0564    6.1251 C   0  0  0  0  0  0  0  0  0  0  0  0
    2.8668   -6.8797    5.9996 C   0  0  0  0  0  0  0  0  0  0  0  0
    4.0436   -6.6725    4.8139 S   0  0  0  0  0  0  0  0  0  0  0  0
    5.0276   -7.9429    5.3124 C   0  0  0  0  0  0  0  0  0  0  0  0
    6.2683   -8.3839    4.5967 C   0  0  0  0  0  0  0  0  0  0  0  0
    5.9277   -9.3804    3.4945 C   0  0  0  0  0  0  0  0  0  0  0  0
    4.4271   -8.5710    6.4034 C   0  0  0  0  0  0  0  0  0  0  0  0
    5.0964   -9.9905    7.1972 Cl  0  0  0  0  0  0  0  0  0  0  0  0
    3.2197   -7.9691    6.7943 C   0  0  0  0  0  0  0  0  0  0  0  0
    2.2134   -8.5867    8.0997 Cl  0  0  0  0  0  0  0  0  0  0  0  0
    0.7113   -5.9892    5.0817 C   0  0  0  0  0  0  0  0  0  0  0  0
   -0.4436   -5.2030    5.1556 C   0  0  0  0  0  0  0  0  0  0  0  0
   -0.7208   -4.4467    6.3115 C   0  0  0  0  0  0  0  0  0  0  0  0
   -1.9595   -3.6610    6.4595 C   0  0  0  0  0  0  0  0  0  0  0  0
   -3.1553   -3.9773    7.5993 S   0  0  0  0  0  0  0  0  0  0  0  0
   -4.1852   -2.7319    7.1295 C   0  0  0  0  0  0  0  0  0  0  0  0
   -5.5427   -2.4889    7.7171 C   0  0  0  0  0  0  0  0  0  0  0  0
   -6.5799   -3.3887    7.0567 C   0  0  0  0  0  0  0  0  0  0  0  0
   -3.6076   -2.0562    6.0554 C   0  0  0  0  0  0  0  0  0  0  0  0
   -2.3564   -2.5734    5.6828 C   0  0  0  0  0  0  0  0  0  0  0  0
   -1.3774   -1.8910    4.3890 Cl  0  0  0  0  0  0  0  0  0  0  0  0
   -4.3692   -0.6965    5.2413 Cl  0  0  0  0  0  0  0  0  0  0  0  0
    0.2135   -4.5216    7.3582 C   0  0  0  0  0  0  0  0  0  0  0  0
    0.1867   -3.7230    8.8394 S   0  0  0  0  0  0  0  0  0  0  0  0
   -1.2609   -5.3138    4.0187 C   0  0  0  0  0  0  0  0  0  0  0  0
   -0.7504   -6.1960    3.0704 C   0  0  0  0  0  0  0  0  0  0  0  0
    0.7037   -6.8450    3.6307 S   0  0  0  0  0  0  0  0  0  0  0  0
   -1.3922   -6.5387    1.7967 C   0  0  0  0  0  0  0  0  0  0  0  0
   -2.2554   -5.7129    1.0810 C   0  0  0  0  0  0  0  0  0  0  0  0
   -2.7480   -6.3197   -0.0847 C   0  0  0  0  0  0  0  0  0  0  0  0
   -3.6125   -5.7343   -1.0311 C   0  0  0  0  0  0  0  0  0  0  0  0
   -4.0664   -4.3354   -0.9202 C   0  0  0  0  0  0  0  0  0  0  0  0
   -4.9925   -3.7095    0.3384 S   0  0  0  0  0  0  0  0  0  0  0  0
   -5.0321   -2.1274   -0.2365 C   0  0  0  0  0  0  0  0  0  0  0  0
   -5.6541   -0.9776    0.4937 C   0  0  0  0  0  0  0  0  0  0  0  0
   -4.6655   -0.3698    1.4829 C   0  0  0  0  0  0  0  0  0  0  0  0
   -4.2947   -2.0638   -1.4194 C   0  0  0  0  0  0  0  0  0  0  0  0
   -4.0266   -0.5772   -2.3230 Cl  0  0  0  0  0  0  0  0  0  0  0  0
   -3.7631   -3.3026   -1.8076 C   0  0  0  0  0  0  0  0  0  0  0  0
   -2.7528   -3.5139   -3.2332 Cl  0  0  0  0  0  0  0  0  0  0  0  0
   -3.9904   -6.5317   -2.1230 C   0  0  0  0  0  0  0  0  0  0  0  0
   -3.5198   -7.8341   -2.3083 C   0  0  0  0  0  0  0  0  0  0  0  0
   -2.6365   -8.4113   -1.3756 C   0  0  0  0  0  0  0  0  0  0  0  0
   -2.1485   -9.7913   -1.5193 C   0  0  0  0  0  0  0  0  0  0  0  0
   -1.0603  -10.3129   -2.6911 S   0  0  0  0  0  0  0  0  0  0  0  0
   -1.0204  -11.9202   -2.1903 C   0  0  0  0  0  0  0  0  0  0  0  0
   -0.2396  -13.0060   -2.8694 C   0  0  0  0  0  0  0  0  0  0  0  0
   -1.0849  -13.6917   -3.9368 C   0  0  0  0  0  0  0  0  0  0  0  0
   -1.8871  -12.0740   -1.1091 C   0  0  0  0  0  0  0  0  0  0  0  0
   -2.5139  -10.8774   -0.7280 C   0  0  0  0  0  0  0  0  0  0  0  0
   -3.6780  -10.7670    0.5855 Cl  0  0  0  0  0  0  0  0  0  0  0  0
   -2.1806  -13.6124   -0.3072 Cl  0  0  0  0  0  0  0  0  0  0  0  0
   -2.2707   -7.6222   -0.2719 C   0  0  0  0  0  0  0  0  0  0  0  0
   -1.2240   -8.0121    0.9895 S   0  0  0  0  0  0  0  0  0  0  0  0
   -4.0576   -8.4589   -3.4469 C   0  0  0  0  0  0  0  0  0  0  0  0
   -4.9282   -7.6342   -4.1598 C   0  0  0  0  0  0  0  0  0  0  0  0
   -5.0836   -6.1662   -3.3421 S   0  0  0  0  0  0  0  0  0  0  0  0
   -5.7540   -8.0516   -5.3003 C   0  0  0  0  0  0  0  0  0  0  0  0
   -6.4912   -9.5749   -5.4431 S   0  0  0  0  0  0  0  0  0  0  0  0
   -7.5458   -9.2305   -6.7230 C   0  0  0  0  0  0  0  0  0  0  0  0
   -7.3193   -7.9033   -7.0336 C   0  0  0  0  0  0  0  0  0  0  0  0
   -6.3339   -7.2600   -6.2899 C   0  0  0  0  0  0  0  0  0  0  0  0
   -6.1572   -5.9426   -6.7081 C   0  0  0  0  0  0  0  0  0  0  0  0
   -7.0447   -5.5943   -7.6849 C   0  0  0  0  0  0  0  0  0  0  0  0
   -8.0517   -6.8653   -8.1631 S   0  0  0  0  0  0  0  0  0  0  0  0
   -6.8205   -4.0145   -8.1904 S   0  0  0  0  0  0  0  0  0  0  0  0
   -5.4980   -3.7756   -7.1392 C   0  0  0  0  0  0  0  0  0  0  0  0
   -5.2370   -4.9409   -6.4052 C   0  0  0  0  0  0  0  0  0  0  0  0
   -4.7355   -2.5265   -7.0235 C   0  0  0  0  0  0  0  0  0  0  0  0
   -3.4048   -2.4281   -6.6241 C   0  0  0  0  0  0  0  0  0  0  0  0
   -2.9551   -1.1021   -6.5436 C   0  0  0  0  0  0  0  0  0  0  0  0
   -1.6719   -0.6775   -6.1442 C   0  0  0  0  0  0  0  0  0  0  0  0
   -0.6095   -1.6295   -5.7642 C   0  0  0  0  0  0  0  0  0  0  0  0
    0.1296   -1.6835   -4.2530 S   0  0  0  0  0  0  0  0  0  0  0  0
    1.1739   -2.9552   -4.6018 C   0  0  0  0  0  0  0  0  0  0  0  0
    2.2150   -3.4806   -3.6581 C   0  0  0  0  0  0  0  0  0  0  0  0
    3.5308   -2.7259   -3.8292 C   0  0  0  0  0  0  0  0  0  0  0  0
    0.9780   -3.3398   -5.9271 C   0  0  0  0  0  0  0  0  0  0  0  0
    1.9080   -4.6065   -6.7184 Cl  0  0  0  0  0  0  0  0  0  0  0  0
   -0.0269   -2.6030   -6.5766 C   0  0  0  0  0  0  0  0  0  0  0  0
   -0.4389   -2.8242   -8.2729 Cl  0  0  0  0  0  0  0  0  0  0  0  0
   -1.4710    0.7082   -6.0362 C   0  0  0  0  0  0  0  0  0  0  0  0
   -2.4849    1.6427   -6.2755 C   0  0  0  0  0  0  0  0  0  0  0  0
   -3.7558    1.2184   -6.7086 C   0  0  0  0  0  0  0  0  0  0  0  0
   -4.8440    2.1736   -6.9656 C   0  0  0  0  0  0  0  0  0  0  0  0
   -5.6073    3.0990   -5.7869 S   0  0  0  0  0  0  0  0  0  0  0  0
   -6.6489    3.8984   -6.8388 C   0  0  0  0  0  0  0  0  0  0  0  0
   -7.6984    4.8783   -6.4104 C   0  0  0  0  0  0  0  0  0  0  0  0
   -9.0626    4.2051   -6.3133 C   0  0  0  0  0  0  0  0  0  0  0  0
   -6.4213    3.4339   -8.1346 C   0  0  0  0  0  0  0  0  0  0  0  0
   -5.4075    2.4660   -8.2044 C   0  0  0  0  0  0  0  0  0  0  0  0
   -4.8768    1.7242   -9.7106 Cl  0  0  0  0  0  0  0  0  0  0  0  0
   -7.3104    4.0010   -9.5399 Cl  0  0  0  0  0  0  0  0  0  0  0  0
   -3.9519   -0.1668   -6.8474 C   0  0  0  0  0  0  0  0  0  0  0  0
   -5.3696   -0.9799   -7.2548 S   0  0  0  0  0  0  0  0  0  0  0  0
   -2.0906    2.9666   -6.0135 C   0  0  0  0  0  0  0  0  0  0  0  0
   -0.7629    3.0592   -5.6061 C   0  0  0  0  0  0  0  0  0  0  0  0
   -0.0843    1.5183   -5.5490 S   0  0  0  0  0  0  0  0  0  0  0  0
   -0.1345    4.2241   -4.9833 C   0  0  0  0  0  0  0  0  0  0  0  0
   -0.6879    4.9008   -3.8977 C   0  0  0  0  0  0  0  0  0  0  0  0
    0.2662    5.6205   -3.1568 C   0  0  0  0  0  0  0  0  0  0  0  0
    0.0576    6.2075   -1.8922 C   0  0  0  0  0  0  0  0  0  0  0  0
   -1.2749    6.2201   -1.2647 C   0  0  0  0  0  0  0  0  0  0  0  0
   -2.5903    7.0917   -1.8459 S   0  0  0  0  0  0  0  0  0  0  0  0
   -3.6945    6.5313   -0.7060 C   0  0  0  0  0  0  0  0  0  0  0  0
   -5.1243    6.9694   -0.6204 C   0  0  0  0  0  0  0  0  0  0  0  0
   -5.2726    8.1629    0.3172 C   0  0  0  0  0  0  0  0  0  0  0  0
   -3.0399    5.6509    0.1559 C   0  0  0  0  0  0  0  0  0  0  0  0
   -3.8330    4.8386    1.4995 Cl  0  0  0  0  0  0  0  0  0  0  0  0
   -1.6851    5.4652   -0.1657 C   0  0  0  0  0  0  0  0  0  0  0  0
   -0.6420    4.3236    0.6758 Cl  0  0  0  0  0  0  0  0  0  0  0  0
    1.1975    6.6615   -1.2047 C   0  0  0  0  0  0  0  0  0  0  0  0
    2.4841    6.5652   -1.7430 C   0  0  0  0  0  0  0  0  0  0  0  0
    2.6880    6.0202   -3.0243 C   0  0  0  0  0  0  0  0  0  0  0  0
    4.0326    5.8802   -3.6158 C   0  0  0  0  0  0  0  0  0  0  0  0
    5.2782    4.9311   -2.9958 S   0  0  0  0  0  0  0  0  0  0  0  0
    6.4126    5.3374   -4.1716 C   0  0  0  0  0  0  0  0  0  0  0  0
    7.8442    4.8922   -4.1619 C   0  0  0  0  0  0  0  0  0  0  0  0
    8.7106    5.8838   -3.3907 C   0  0  0  0  0  0  0  0  0  0  0  0
    5.8315    6.2420   -5.0602 C   0  0  0  0  0  0  0  0  0  0  0  0
    4.4935    6.5381   -4.7538 C   0  0  0  0  0  0  0  0  0  0  0  0
    3.5169    7.6704   -5.6796 Cl  0  0  0  0  0  0  0  0  0  0  0  0
    6.6942    6.9738   -6.4061 Cl  0  0  0  0  0  0  0  0  0  0  0  0
    1.5542    5.5404   -3.6973 C   0  0  0  0  0  0  0  0  0  0  0  0
    1.5207    4.5408   -5.0483 S   0  0  0  0  0  0  0  0  0  0  0  0
    3.4887    6.9232   -0.8342 C   0  0  0  0  0  0  0  0  0  0  0  0
    2.9981    7.2742    0.4196 C   0  0  0  0  0  0  0  0  0  0  0  0
    1.3130    7.1783    0.3941 S   0  0  0  0  0  0  0  0  0  0  0  0
    3.7828    7.0721    1.6358 C   0  0  0  0  0  0  0  0  0  0  0  0
    4.3737    5.8571    1.9604 C   0  0  0  0  0  0  0  0  0  0  0  0
    5.0183    5.8802    3.2011 C   0  0  0  0  0  0  0  0  0  0  0  0
    5.6707    4.7938    3.8096 C   0  0  0  0  0  0  0  0  0  0  0  0
    5.6621    3.4587    3.1921 C   0  0  0  0  0  0  0  0  0  0  0  0
    4.2797    2.5190    3.0003 S   0  0  0  0  0  0  0  0  0  0  0  0
    4.9893    1.3489    2.0221 C   0  0  0  0  0  0  0  0  0  0  0  0
    4.2401    0.2297    1.3653 C   0  0  0  0  0  0  0  0  0  0  0  0
    3.6482    0.6837    0.0357 C   0  0  0  0  0  0  0  0  0  0  0  0
    6.3190    1.7046    1.7989 C   0  0  0  0  0  0  0  0  0  0  0  0
    7.3957    0.8057    0.7361 Cl  0  0  0  0  0  0  0  0  0  0  0  0
    6.6989    2.8846    2.4606 C   0  0  0  0  0  0  0  0  0  0  0  0
    8.2836    3.6233    2.2913 Cl  0  0  0  0  0  0  0  0  0  0  0  0
    6.2701    5.0307    5.0542 C   0  0  0  0  0  0  0  0  0  0  0  0
    6.2241    6.2777    5.6849 C   0  0  0  0  0  0  0  0  0  0  0  0
    5.5615    7.3662    5.0771 C   0  0  0  0  0  0  0  0  0  0  0  0
    5.5222    8.7001    5.7009 C   0  0  0  0  0  0  0  0  0  0  0  0
    4.7309    9.0684    7.1383 S   0  0  0  0  0  0  0  0  0  0  0  0
    5.1751   10.6915    7.1752 C   0  0  0  0  0  0  0  0  0  0  0  0
    4.7452   11.6675    8.2273 C   0  0  0  0  0  0  0  0  0  0  0  0
    3.5291   12.4629    7.7646 C   0  0  0  0  0  0  0  0  0  0  0  0
    5.9423   10.9699    6.0459 C   0  0  0  0  0  0  0  0  0  0  0  0
    6.1423    9.8517    5.2214 C   0  0  0  0  0  0  0  0  0  0  0  0
    7.1111    9.8937    3.7546 Cl  0  0  0  0  0  0  0  0  0  0  0  0
    6.6133   12.5577    5.6977 Cl  0  0  0  0  0  0  0  0  0  0  0  0
    4.9565    7.1287    3.8308 C   0  0  0  0  0  0  0  0  0  0  0  0
    4.0502    8.1889    2.8748 S   0  0  0  0  0  0  0  0  0  0  0  0
    6.8960    6.2899    6.9195 C   0  0  0  0  0  0  0  0  0  0  0  0
    7.4502    5.0549    7.2535 C   0  0  0  0  0  0  0  0  0  0  0  0
    7.1186    3.9486    6.0227 S   0  0  0  0  0  0  0  0  0  0  0  0
    2.1139   -4.1173   10.3465 H   0  0  0  0  0  0  0  0  0  0  0  0
    3.1406   -5.6819    8.5394 H   0  0  0  0  0  0  0  0  0  0  0  0
    6.7674   -7.4974    4.1501 H   0  0  0  0  0  0  0  0  0  0  0  0
    6.9756   -8.8512    5.3127 H   0  0  0  0  0  0  0  0  0  0  0  0
    5.2303   -8.9230    2.7596 H   0  0  0  0  0  0  0  0  0  0  0  0
    6.8544   -9.6785    2.9631 H   0  0  0  0  0  0  0  0  0  0  0  0
    5.4570  -10.2906    3.9247 H   0  0  0  0  0  0  0  0  0  0  0  0
   -5.5139   -2.7002    8.8073 H   0  0  0  0  0  0  0  0  0  0  0  0
   -5.8341   -1.4261    7.5853 H   0  0  0  0  0  0  0  0  0  0  0  0
   -7.5791   -3.1949    7.5015 H   0  0  0  0  0  0  0  0  0  0  0  0
   -6.3192   -4.4579    7.2158 H   0  0  0  0  0  0  0  0  0  0  0  0
   -6.6258   -3.1862    5.9660 H   0  0  0  0  0  0  0  0  0  0  0  0
   -2.2069   -4.8010    3.9013 H   0  0  0  0  0  0  0  0  0  0  0  0
   -2.4988   -4.7060    1.3924 H   0  0  0  0  0  0  0  0  0  0  0  0
   -5.9836   -0.1991   -0.2274 H   0  0  0  0  0  0  0  0  0  0  0  0
   -6.5505   -1.3351    1.0442 H   0  0  0  0  0  0  0  0  0  0  0  0
   -3.7820    0.0356    0.9465 H   0  0  0  0  0  0  0  0  0  0  0  0
   -5.1551    0.4575    2.0375 H   0  0  0  0  0  0  0  0  0  0  0  0
   -4.3307   -1.1365    2.2135 H   0  0  0  0  0  0  0  0  0  0  0  0
    0.6652  -12.5674   -3.3429 H   0  0  0  0  0  0  0  0  0  0  0  0
    0.0981  -13.7567   -2.1216 H   0  0  0  0  0  0  0  0  0  0  0  0
   -1.3989  -12.9585   -4.7105 H   0  0  0  0  0  0  0  0  0  0  0  0
   -0.4883  -14.4899   -4.4248 H   0  0  0  0  0  0  0  0  0  0  0  0
   -1.9884  -14.1502   -3.4808 H   0  0  0  0  0  0  0  0  0  0  0  0
   -3.8443   -9.4797   -3.7340 H   0  0  0  0  0  0  0  0  0  0  0  0
   -8.2655   -9.8943   -7.1817 H   0  0  0  0  0  0  0  0  0  0  0  0
   -4.4096   -5.0482   -5.7208 H   0  0  0  0  0  0  0  0  0  0  0  0
   -2.7935   -3.2893   -6.3902 H   0  0  0  0  0  0  0  0  0  0  0  0
    1.8602   -3.3568   -2.6126 H   0  0  0  0  0  0  0  0  0  0  0  0
    2.3806   -4.5655   -3.8354 H   0  0  0  0  0  0  0  0  0  0  0  0
    3.9129   -2.8486   -4.8649 H   0  0  0  0  0  0  0  0  0  0  0  0
    3.3897   -1.6434   -3.6171 H   0  0  0  0  0  0  0  0  0  0  0  0
    4.2865   -3.1313   -3.1217 H   0  0  0  0  0  0  0  0  0  0  0  0
   -7.4275    5.3008   -5.4182 H   0  0  0  0  0  0  0  0  0  0  0  0
   -7.7485    5.7173   -7.1370 H   0  0  0  0  0  0  0  0  0  0  0  0
   -9.0143    3.3259   -5.6364 H   0  0  0  0  0  0  0  0  0  0  0  0
   -9.3991    3.8742   -7.3181 H   0  0  0  0  0  0  0  0  0  0  0  0
   -9.8057    4.9250   -5.9097 H   0  0  0  0  0  0  0  0  0  0  0  0
   -2.7503    3.8237   -6.0802 H   0  0  0  0  0  0  0  0  0  0  0  0
   -1.7103    4.7509   -3.5742 H   0  0  0  0  0  0  0  0  0  0  0  0
   -5.4837    7.2543   -1.6319 H   0  0  0  0  0  0  0  0  0  0  0  0
   -5.7579    6.1308   -0.2608 H   0  0  0  0  0  0  0  0  0  0  0  0
   -6.3384    8.4744    0.3545 H   0  0  0  0  0  0  0  0  0  0  0  0
   -4.6647    9.0206   -0.0473 H   0  0  0  0  0  0  0  0  0  0  0  0
   -4.9469    7.8904    1.3436 H   0  0  0  0  0  0  0  0  0  0  0  0
    8.2226    4.7966   -5.2028 H   0  0  0  0  0  0  0  0  0  0  0  0
    7.9146    3.8932   -3.6807 H   0  0  0  0  0  0  0  0  0  0  0  0
    8.6757    6.8838   -3.8710 H   0  0  0  0  0  0  0  0  0  0  0  0
    8.3585    5.9674   -2.3409 H   0  0  0  0  0  0  0  0  0  0  0  0
    9.7626    5.5283   -3.3855 H   0  0  0  0  0  0  0  0  0  0  0  0
    4.5472    6.8116   -1.0288 H   0  0  0  0  0  0  0  0  0  0  0  0
    4.3200    4.9851    1.3187 H   0  0  0  0  0  0  0  0  0  0  0  0
    3.4197   -0.1053    2.0343 H   0  0  0  0  0  0  0  0  0  0  0  0
    4.9155   -0.6355    1.1973 H   0  0  0  0  0  0  0  0  0  0  0  0
    2.9520    1.5352    0.1928 H   0  0  0  0  0  0  0  0  0  0  0  0
    4.4546    1.0031   -0.6584 H   0  0  0  0  0  0  0  0  0  0  0  0
    3.0865   -0.1543   -0.4287 H   0  0  0  0  0  0  0  0  0  0  0  0
    4.4886   11.1176    9.1577 H   0  0  0  0  0  0  0  0  0  0  0  0
    5.5788   12.3628    8.4587 H   0  0  0  0  0  0  0  0  0  0  0  0
    3.7809   13.0608    6.8641 H   0  0  0  0  0  0  0  0  0  0  0  0
    2.6882   11.7773    7.5280 H   0  0  0  0  0  0  0  0  0  0  0  0
    3.2104   13.1566    8.5732 H   0  0  0  0  0  0  0  0  0  0  0  0
    6.9823    7.1582    7.5578 H   0  0  0  0  0  0  0  0  0  0  0  0
    8.0063    4.8446    8.1566 H   0  0  0  0  0  0  0  0  0  0  0  0
  1  2  2  0
  2  3  1  0
  3  4  2  0
  4  5  1  0
  5  6  1  0
  6  7  1  0
  7  8  1  0
  8  9  1  0
  7 10  2  0
 10 11  1  0
 10 12  1  0
 12 13  1  0
  4 14  1  0
 14 15  2  0
 15 16  1  0
 16 17  1  0
 17 18  1  0
 18 19  1  0
 19 20  1  0
 20 21  1  0
 19 22  2  0
 22 23  1  0
 23 24  1  0
 22 25  1  0
 16 26  2  0
 26 27  1  0
 15 28  1  0
 28 29  2  0
 29 30  1  0
 29 31  1  0
 31 32  2  0
 32 33  1  0
 33 34  2  0
 34 35  1  0
 35 36  1  0
 36 37  1  0
 37 38  1  0
 38 39  1  0
 37 40  2  0
 40 41  1  0
 40 42  1  0
 42 43  1  0
 34 44  1  0
 44 45  2  0
 45 46  1  0
 46 47  1  0
 47 48  1  0
 48 49  1  0
 49 50  1  0
 50 51  1  0
 49 52  2  0
 52 53  1  0
 53 54  1  0
 52 55  1  0
 46 56  2  0
 56 57  1  0
 45 58  1  0
 58 59  2  0
 59 60  1  0
 59 61  1  0
 61 62  1  0
 62 63  1  0
 63 64  2  0
 64 65  1  0
 65 66  1  0
 66 67  2  0
 67 68  1  0
 67 69  1  0
 69 70  1  0
 70 71  2  0
 70 72  1  0
 72 73  2  0
 73 74  1  0
 74 75  2  0
 75 76  1  0
 76 77  1  0
 77 78  1  0
 78 79  1  0
 79 80  1  0
 78 81  2  0
 81 82  1  0
 81 83  1  0
 83 84  1  0
 75 85  1  0
 85 86  2  0
 86 87  1  0
 87 88  1  0
 88 89  1  0
 89 90  1  0
 90 91  1  0
 91 92  1  0
 90 93  2  0
 93 94  1  0
 94 95  1  0
 93 96  1  0
 87 97  2  0
 97 98  1  0
 86 99  1  0
 99100  2  0
100101  1  0
100102  1  0
102103  2  0
103104  1  0
104105  2  0
105106  1  0
106107  1  0
107108  1  0
108109  1  0
109110  1  0
108111  2  0
111112  1  0
111113  1  0
113114  1  0
105115  1  0
115116  2  0
116117  1  0
117118  1  0
118119  1  0
119120  1  0
120121  1  0
121122  1  0
120123  2  0
123124  1  0
124125  1  0
123126  1  0
117127  2  0
127128  1  0
116129  1  0
129130  2  0
130131  1  0
130132  1  0
132133  2  0
133134  1  0
134135  2  0
135136  1  0
136137  1  0
137138  1  0
138139  1  0
139140  1  0
138141  2  0
141142  1  0
141143  1  0
143144  1  0
135145  1  0
145146  2  0
146147  1  0
147148  1  0
148149  1  0
149150  1  0
150151  1  0
151152  1  0
150153  2  0
153154  1  0
154155  1  0
153156  1  0
147157  2  0
157158  1  0
146159  1  0
159160  2  0
160161  1  0
 27  1  1  0
 57 31  1  0
 65 61  2  0
 71 66  1  0
 98 72  1  0
128102  1  0
158132  1  0
 26  3  1  0
 56 33  1  0
 68 64  1  0
 97 74  1  0
127104  1  0
157134  1  0
 12  5  2  0
 30 14  1  0
 42 35  2  0
 60 44  1  0
 83 76  2  0
101 85  1  0
113106  2  0
131115  1  0
143136  2  0
161145  1  0
 23 17  2  0
 53 47  2  0
 94 88  2  0
124118  2  0
154148  2  0
  1162  1  0
  2163  1  0
  8164  1  0
  8165  1  0
  9166  1  0
  9167  1  0
  9168  1  0
 20169  1  0
 20170  1  0
 21171  1  0
 21172  1  0
 21173  1  0
 28174  1  0
 32175  1  0
 38176  1  0
 38177  1  0
 39178  1  0
 39179  1  0
 39180  1  0
 50181  1  0
 50182  1  0
 51183  1  0
 51184  1  0
 51185  1  0
 58186  1  0
 63187  1  0
 71188  1  0
 73189  1  0
 79190  1  0
 79191  1  0
 80192  1  0
 80193  1  0
 80194  1  0
 91195  1  0
 91196  1  0
 92197  1  0
 92198  1  0
 92199  1  0
 99200  1  0
103201  1  0
109202  1  0
109203  1  0
110204  1  0
110205  1  0
110206  1  0
121207  1  0
121208  1  0
122209  1  0
122210  1  0
122211  1  0
129212  1  0
133213  1  0
139214  1  0
139215  1  0
140216  1  0
140217  1  0
140218  1  0
151219  1  0
151220  1  0
152221  1  0
152222  1  0
152223  1  0
159224  1  0
160225  1  0
M  END

