
     RDKit          3D

227252  0  0  0  0  0  0  0  0999 V2000
    2.2448  -11.4271    9.0970 C   0  0  0  0  0  0  0  0  0  0  0  0
    3.2940  -10.5090    9.1238 C   0  0  0  0  0  0  0  0  0  0  0  0
    3.0869   -9.4120    8.2660 C   0  0  0  0  0  0  0  0  0  0  0  0
    3.9492   -8.3036    8.1006 C   0  0  0  0  0  0  0  0  0  0  0  0
    5.2365   -8.1975    8.8115 C   0  0  0  0  0  0  0  0  0  0  0  0
    5.6295   -6.9728    9.8970 S   0  0  0  0  0  0  0  0  0  0  0  0
    7.1795   -7.5280   10.2383 C   0  0  0  0  0  0  0  0  0  0  0  0
    8.1623   -6.8136   11.1185 C   0  0  0  0  0  0  0  0  0  0  0  0
    8.9784   -5.8134   10.3075 C   0  0  0  0  0  0  0  0  0  0  0  0
    7.4213   -8.6723    9.4790 C   0  0  0  0  0  0  0  0  0  0  0  0
    8.9530   -9.5389    9.4869 Cl  0  0  0  0  0  0  0  0  0  0  0  0
    6.3295   -9.0486    8.6790 C   0  0  0  0  0  0  0  0  0  0  0  0
    6.3694  -10.4130    7.5702 Cl  0  0  0  0  0  0  0  0  0  0  0  0
    3.5040   -7.2795    7.2412 C   0  0  0  0  0  0  0  0  0  0  0  0
    2.2926   -7.3527    6.5502 C   0  0  0  0  0  0  0  0  0  0  0  0
    1.4366   -8.4586    6.7168 C   0  0  0  0  0  0  0  0  0  0  0  0
    0.1164   -8.5191    6.0672 C   0  0  0  0  0  0  0  0  0  0  0  0
   -1.1422   -7.4456    6.3742 S   0  0  0  0  0  0  0  0  0  0  0  0
   -2.1608   -8.0122    5.1663 C   0  0  0  0  0  0  0  0  0  0  0  0
   -3.4715   -7.3838    4.8070 C   0  0  0  0  0  0  0  0  0  0  0  0
   -3.2598   -6.1401    3.9489 C   0  0  0  0  0  0  0  0  0  0  0  0
   -1.5127   -9.0401    4.4810 C   0  0  0  0  0  0  0  0  0  0  0  0
   -0.2353   -9.3222    4.9893 C   0  0  0  0  0  0  0  0  0  0  0  0
    0.8384  -10.5286    4.2854 Cl  0  0  0  0  0  0  0  0  0  0  0  0
   -2.1974   -9.8466    3.0762 Cl  0  0  0  0  0  0  0  0  0  0  0  0
    1.8726   -9.4759    7.5819 C   0  0  0  0  0  0  0  0  0  0  0  0
    1.0582  -10.8768    8.0323 S   0  0  0  0  0  0  0  0  0  0  0  0
    2.0593   -6.2449    5.7203 C   0  0  0  0  0  0  0  0  0  0  0  0
    3.0660   -5.2866    5.7916 C   0  0  0  0  0  0  0  0  0  0  0  0
    4.2680   -5.8265    6.8448 S   0  0  0  0  0  0  0  0  0  0  0  0
    3.0694   -4.0141    5.0544 C   0  0  0  0  0  0  0  0  0  0  0  0
    3.7729   -2.8587    5.4021 C   0  0  0  0  0  0  0  0  0  0  0  0
    3.4871   -1.7705    4.5483 C   0  0  0  0  0  0  0  0  0  0  0  0
    3.9652   -0.4453    4.6783 C   0  0  0  0  0  0  0  0  0  0  0  0
    4.8460   -0.0328    5.7889 C   0  0  0  0  0  0  0  0  0  0  0  0
    4.3956   -0.0327    7.4113 S   0  0  0  0  0  0  0  0  0  0  0  0
    5.8069    0.6826    7.9805 C   0  0  0  0  0  0  0  0  0  0  0  0
    6.0401    1.0823    9.4102 C   0  0  0  0  0  0  0  0  0  0  0  0
    5.6695    2.5446    9.6239 C   0  0  0  0  0  0  0  0  0  0  0  0
    6.6491    0.9410    6.8989 C   0  0  0  0  0  0  0  0  0  0  0  0
    8.2122    1.7333    7.0490 Cl  0  0  0  0  0  0  0  0  0  0  0  0
    6.1129    0.5342    5.6699 C   0  0  0  0  0  0  0  0  0  0  0  0
    6.9579    0.7276    4.1338 Cl  0  0  0  0  0  0  0  0  0  0  0  0
    3.5117    0.4901    3.7308 C   0  0  0  0  0  0  0  0  0  0  0  0
    2.6612    0.1405    2.6770 C   0  0  0  0  0  0  0  0  0  0  0  0
    2.1567   -1.1696    2.5610 C   0  0  0  0  0  0  0  0  0  0  0  0
    1.1404   -1.5281    1.5483 C   0  0  0  0  0  0  0  0  0  0  0  0
    1.3270   -2.7231    0.3756 S   0  0  0  0  0  0  0  0  0  0  0  0
   -0.2030   -2.5415   -0.3064 C   0  0  0  0  0  0  0  0  0  0  0  0
   -0.7403   -3.3733   -1.4320 C   0  0  0  0  0  0  0  0  0  0  0  0
   -0.7602   -2.5940   -2.7394 C   0  0  0  0  0  0  0  0  0  0  0  0
   -0.8807   -1.5366    0.3811 C   0  0  0  0  0  0  0  0  0  0  0  0
   -0.1371   -0.9790    1.4300 C   0  0  0  0  0  0  0  0  0  0  0  0
   -0.7867    0.2338    2.5319 Cl  0  0  0  0  0  0  0  0  0  0  0  0
   -2.5312   -1.0432    0.0029 Cl  0  0  0  0  0  0  0  0  0  0  0  0
    2.6010   -2.1046    3.5146 C   0  0  0  0  0  0  0  0  0  0  0  0
    2.1109   -3.7023    3.6983 S   0  0  0  0  0  0  0  0  0  0  0  0
    2.3292    1.2266    1.8528 C   0  0  0  0  0  0  0  0  0  0  0  0
    2.8544    2.4309    2.3026 C   0  0  0  0  0  0  0  0  0  0  0  0
    3.7507    2.1635    3.7045 S   0  0  0  0  0  0  0  0  0  0  0  0
    2.4643    3.7334    1.7665 C   0  0  0  0  0  0  0  0  0  0  0  0
    1.5307    4.5669    2.3843 C   0  0  0  0  0  0  0  0  0  0  0  0
    0.9313    5.4779    1.4958 C   0  0  0  0  0  0  0  0  0  0  0  0
   -0.1923    6.2921    1.7702 C   0  0  0  0  0  0  0  0  0  0  0  0
   -0.8686    6.2582    3.0748 C   0  0  0  0  0  0  0  0  0  0  0  0
   -0.9156    7.5314    4.1707 S   0  0  0  0  0  0  0  0  0  0  0  0
   -1.8409    6.7326    5.3281 C   0  0  0  0  0  0  0  0  0  0  0  0
   -2.3015    7.3389    6.6226 C   0  0  0  0  0  0  0  0  0  0  0  0
   -3.5745    8.1512    6.4173 C   0  0  0  0  0  0  0  0  0  0  0  0
   -2.1617    5.4648    4.8447 C   0  0  0  0  0  0  0  0  0  0  0  0
   -3.1658    4.3160    5.7254 Cl  0  0  0  0  0  0  0  0  0  0  0  0
   -1.6080    5.1953    3.5855 C   0  0  0  0  0  0  0  0  0  0  0  0
   -1.8535    3.6767    2.7261 Cl  0  0  0  0  0  0  0  0  0  0  0  0
   -0.7767    6.9590    0.6779 C   0  0  0  0  0  0  0  0  0  0  0  0
   -0.2614    6.8659   -0.6186 C   0  0  0  0  0  0  0  0  0  0  0  0
    0.8760    6.0807   -0.8874 C   0  0  0  0  0  0  0  0  0  0  0  0
    1.3039    5.8175   -2.2729 C   0  0  0  0  0  0  0  0  0  0  0  0
    2.1993    6.8894   -3.2116 S   0  0  0  0  0  0  0  0  0  0  0  0
    2.0323    6.0358   -4.6543 C   0  0  0  0  0  0  0  0  0  0  0  0
    2.6431    6.4504   -5.9622 C   0  0  0  0  0  0  0  0  0  0  0  0
    3.9500    5.7003   -6.2117 C   0  0  0  0  0  0  0  0  0  0  0  0
    1.2567    4.9001   -4.4181 C   0  0  0  0  0  0  0  0  0  0  0  0
    0.8334    4.7881   -3.0862 C   0  0  0  0  0  0  0  0  0  0  0  0
   -0.2269    3.5075   -2.5031 Cl  0  0  0  0  0  0  0  0  0  0  0  0
    0.8491    3.7216   -5.6625 Cl  0  0  0  0  0  0  0  0  0  0  0  0
    1.4389    5.3833    0.1947 C   0  0  0  0  0  0  0  0  0  0  0  0
    2.5616    4.1328    0.1316 S   0  0  0  0  0  0  0  0  0  0  0  0
   -1.1201    7.3838   -1.5957 C   0  0  0  0  0  0  0  0  0  0  0  0
   -2.3598    7.7910   -1.0940 C   0  0  0  0  0  0  0  0  0  0  0  0
   -2.3306    7.6009    0.5896 S   0  0  0  0  0  0  0  0  0  0  0  0
   -3.5954    7.6900   -1.8989 C   0  0  0  0  0  0  0  0  0  0  0  0
   -3.5818    7.5242   -3.2858 C   0  0  0  0  0  0  0  0  0  0  0  0
   -4.6002    6.6846   -3.7603 C   0  0  0  0  0  0  0  0  0  0  0  0
   -4.5878    6.0415   -5.0134 C   0  0  0  0  0  0  0  0  0  0  0  0
   -3.5714    6.3572   -6.0388 C   0  0  0  0  0  0  0  0  0  0  0  0
   -2.3908    5.2918   -6.5822 S   0  0  0  0  0  0  0  0  0  0  0  0
   -1.6848    6.3492   -7.6797 C   0  0  0  0  0  0  0  0  0  0  0  0
   -0.5814    5.9729   -8.6276 C   0  0  0  0  0  0  0  0  0  0  0  0
   -1.1370    5.2106   -9.8255 C   0  0  0  0  0  0  0  0  0  0  0  0
   -2.3734    7.5619   -7.6341 C   0  0  0  0  0  0  0  0  0  0  0  0
   -1.9862    8.9381   -8.6604 Cl  0  0  0  0  0  0  0  0  0  0  0  0
   -3.4273    7.5676   -6.7091 C   0  0  0  0  0  0  0  0  0  0  0  0
   -4.4825    8.9550   -6.4518 Cl  0  0  0  0  0  0  0  0  0  0  0  0
   -5.4510    4.9433   -5.1649 C   0  0  0  0  0  0  0  0  0  0  0  0
   -6.3281    4.5265   -4.1602 C   0  0  0  0  0  0  0  0  0  0  0  0
   -6.3963    5.2278   -2.9405 C   0  0  0  0  0  0  0  0  0  0  0  0
   -7.2105    4.7484   -1.8105 C   0  0  0  0  0  0  0  0  0  0  0  0
   -8.6320    5.4746   -1.2774 S   0  0  0  0  0  0  0  0  0  0  0  0
   -8.8804    4.4276    0.0158 C   0  0  0  0  0  0  0  0  0  0  0  0
  -10.0091    4.5440    0.9989 C   0  0  0  0  0  0  0  0  0  0  0  0
   -9.6782    5.5513    2.0950 C   0  0  0  0  0  0  0  0  0  0  0  0
   -7.8247    3.5167    0.0684 C   0  0  0  0  0  0  0  0  0  0  0  0
   -6.8904    3.6919   -0.9623 C   0  0  0  0  0  0  0  0  0  0  0  0
   -5.4393    2.7070   -1.1399 Cl  0  0  0  0  0  0  0  0  0  0  0  0
   -7.6701    2.2796    1.3123 Cl  0  0  0  0  0  0  0  0  0  0  0  0
   -5.4947    6.2878   -2.7628 C   0  0  0  0  0  0  0  0  0  0  0  0
   -4.9754    6.9220   -1.2983 S   0  0  0  0  0  0  0  0  0  0  0  0
   -6.9325    3.2859   -4.4257 C   0  0  0  0  0  0  0  0  0  0  0  0
   -6.4965    2.7218   -5.6242 C   0  0  0  0  0  0  0  0  0  0  0  0
   -5.4139    3.7713   -6.3629 S   0  0  0  0  0  0  0  0  0  0  0  0
   -6.5599    1.2987   -5.9519 C   0  0  0  0  0  0  0  0  0  0  0  0
   -7.6336    0.6329   -5.6742 N   0  0  0  0  0  2  0  0  0  0  0  0
   -5.3078    0.6167   -6.1256 N   0  0  0  0  0  0  0  0  0  0  0  0
   -5.0799   -0.5410   -6.6758 C   0  0  0  0  0  0  0  0  0  0  0  0
   -6.1382   -1.2371   -7.4595 C   0  0  0  0  0  0  0  0  0  0  0  0
   -6.8134   -0.6427   -8.4445 C   0  0  0  0  0  0  0  0  0  0  0  0
   -8.0862   -1.6511   -9.2231 S   0  0  0  0  0  0  0  0  0  0  0  0
   -7.6744   -2.9826   -8.0818 C   0  0  0  0  0  0  0  0  0  0  0  0
   -6.6332   -2.6971   -7.1490 S   0  0  0  0  0  3  0  0  0  0  0  0
   -3.6727   -1.0162   -6.6369 C   0  0  0  0  0  0  0  0  0  0  0  0
   -3.2724   -2.2668   -6.9368 C   0  0  0  0  0  0  0  0  0  0  0  0
   -1.8795   -2.7239   -6.7781 C   0  0  0  0  0  0  0  0  0  0  0  0
   -1.4533   -4.0233   -7.0463 C   0  0  0  0  0  0  0  0  0  0  0  0
   -0.0873   -4.2251   -6.7832 C   0  0  0  0  0  0  0  0  0  0  0  0
    0.6097   -5.4406   -6.9290 C   0  0  0  0  0  0  0  0  0  0  0  0
   -0.0541   -6.6903   -7.3396 C   0  0  0  0  0  0  0  0  0  0  0  0
   -0.2446   -8.0299   -6.3421 S   0  0  0  0  0  0  0  0  0  0  0  0
   -1.0897   -8.9631   -7.4581 C   0  0  0  0  0  0  0  0  0  0  0  0
   -1.6835  -10.3089   -7.1576 C   0  0  0  0  0  0  0  0  0  0  0  0
   -3.0195  -10.1552   -6.4393 C   0  0  0  0  0  0  0  0  0  0  0  0
   -1.2442   -8.2256   -8.6312 C   0  0  0  0  0  0  0  0  0  0  0  0
   -2.1021   -8.8200  -10.0494 Cl  0  0  0  0  0  0  0  0  0  0  0  0
   -0.6545   -6.9525   -8.5697 C   0  0  0  0  0  0  0  0  0  0  0  0
   -0.6488   -5.8218   -9.9163 Cl  0  0  0  0  0  0  0  0  0  0  0  0
    1.9681   -5.4353   -6.5850 C   0  0  0  0  0  0  0  0  0  0  0  0
    2.6180   -4.2991   -6.0987 C   0  0  0  0  0  0  0  0  0  0  0  0
    1.9085   -3.0980   -5.8893 C   0  0  0  0  0  0  0  0  0  0  0  0
    2.5322   -1.9465   -5.2032 C   0  0  0  0  0  0  0  0  0  0  0  0
    2.7401   -0.4169   -5.8708 S   0  0  0  0  0  0  0  0  0  0  0  0
    3.6327    0.2197   -4.5894 C   0  0  0  0  0  0  0  0  0  0  0  0
    4.1909    1.6132   -4.5500 C   0  0  0  0  0  0  0  0  0  0  0  0
    3.5178    2.4462   -3.4663 C   0  0  0  0  0  0  0  0  0  0  0  0
    3.7845   -0.7683   -3.6170 C   0  0  0  0  0  0  0  0  0  0  0  0
    3.1579   -1.9769   -3.9553 C   0  0  0  0  0  0  0  0  0  0  0  0
    3.1256   -3.3697   -2.8816 Cl  0  0  0  0  0  0  0  0  0  0  0  0
    4.7075   -0.5517   -2.1345 Cl  0  0  0  0  0  0  0  0  0  0  0  0
    0.5575   -3.0852   -6.2845 C   0  0  0  0  0  0  0  0  0  0  0  0
   -0.5670   -1.8292   -6.1865 S   0  0  0  0  0  0  0  0  0  0  0  0
    3.9898   -4.5094   -5.8816 C   0  0  0  0  0  0  0  0  0  0  0  0
    4.4012   -5.8072   -6.1644 C   0  0  0  0  0  0  0  0  0  0  0  0
    3.0753   -6.6949   -6.7121 S   0  0  0  0  0  0  0  0  0  0  0  0
    2.1936  -12.3379    9.6765 H   0  0  0  0  0  0  0  0  0  0  0  0
    4.1657  -10.6357    9.7497 H   0  0  0  0  0  0  0  0  0  0  0  0
    7.6068   -6.2700   11.9140 H   0  0  0  0  0  0  0  0  0  0  0  0
    8.8401   -7.5483   11.6069 H   0  0  0  0  0  0  0  0  0  0  0  0
    8.3115   -5.1261    9.7473 H   0  0  0  0  0  0  0  0  0  0  0  0
    9.6381   -6.3398    9.5853 H   0  0  0  0  0  0  0  0  0  0  0  0
    9.6113   -5.2078   10.9917 H   0  0  0  0  0  0  0  0  0  0  0  0
   -4.0103   -7.1064    5.7380 H   0  0  0  0  0  0  0  0  0  0  0  0
   -4.1118   -8.1082    4.2575 H   0  0  0  0  0  0  0  0  0  0  0  0
   -4.2418   -5.6836    3.7043 H   0  0  0  0  0  0  0  0  0  0  0  0
   -2.7449   -6.4076    2.9993 H   0  0  0  0  0  0  0  0  0  0  0  0
   -2.6452   -5.3946    4.4991 H   0  0  0  0  0  0  0  0  0  0  0  0
    1.1740   -6.1302    5.1071 H   0  0  0  0  0  0  0  0  0  0  0  0
    4.4376   -2.8008    6.2551 H   0  0  0  0  0  0  0  0  0  0  0  0
    7.1081    0.9307    9.6754 H   0  0  0  0  0  0  0  0  0  0  0  0
    5.4276    0.4473   10.0826 H   0  0  0  0  0  0  0  0  0  0  0  0
    6.2828    3.1977    8.9709 H   0  0  0  0  0  0  0  0  0  0  0  0
    4.5939    2.7085    9.4033 H   0  0  0  0  0  0  0  0  0  0  0  0
    5.8558    2.8231   10.6822 H   0  0  0  0  0  0  0  0  0  0  0  0
   -0.1103   -4.2771   -1.5620 H   0  0  0  0  0  0  0  0  0  0  0  0
   -1.7711   -3.7090   -1.1862 H   0  0  0  0  0  0  0  0  0  0  0  0
   -1.1836   -3.2362   -3.5426 H   0  0  0  0  0  0  0  0  0  0  0  0
    0.2651   -2.2945   -3.0295 H   0  0  0  0  0  0  0  0  0  0  0  0
   -1.3911   -1.6867   -2.6453 H   0  0  0  0  0  0  0  0  0  0  0  0
    1.6618    1.1601    1.0020 H   0  0  0  0  0  0  0  0  0  0  0  0
    1.2050    4.4316    3.4116 H   0  0  0  0  0  0  0  0  0  0  0  0
   -1.5013    7.9940    7.0249 H   0  0  0  0  0  0  0  0  0  0  0  0
   -2.4883    6.5415    7.3686 H   0  0  0  0  0  0  0  0  0  0  0  0
   -4.3801    7.5167    5.9912 H   0  0  0  0  0  0  0  0  0  0  0  0
   -3.9181    8.5584    7.3880 H   0  0  0  0  0  0  0  0  0  0  0  0
   -3.3793    8.9995    5.7276 H   0  0  0  0  0  0  0  0  0  0  0  0
    1.9314    6.2401   -6.7906 H   0  0  0  0  0  0  0  0  0  0  0  0
    2.8505    7.5410   -5.9440 H   0  0  0  0  0  0  0  0  0  0  0  0
    3.7589    4.6074   -6.2889 H   0  0  0  0  0  0  0  0  0  0  0  0
    4.6708    5.8899   -5.3844 H   0  0  0  0  0  0  0  0  0  0  0  0
    4.4026    6.0526   -7.1646 H   0  0  0  0  0  0  0  0  0  0  0  0
   -0.9147    7.2781   -2.6498 H   0  0  0  0  0  0  0  0  0  0  0  0
   -2.7415    7.8196   -3.9024 H   0  0  0  0  0  0  0  0  0  0  0  0
   -0.0470    6.8855   -8.9778 H   0  0  0  0  0  0  0  0  0  0  0  0
    0.1484    5.3279   -8.0994 H   0  0  0  0  0  0  0  0  0  0  0  0
   -0.3141    4.9975  -10.5441 H   0  0  0  0  0  0  0  0  0  0  0  0
   -1.9209    5.7974  -10.3405 H   0  0  0  0  0  0  0  0  0  0  0  0
   -1.5729    4.2434   -9.4968 H   0  0  0  0  0  0  0  0  0  0  0  0
  -10.9279    4.8616    0.4628 H   0  0  0  0  0  0  0  0  0  0  0  0
  -10.2140    3.5511    1.4596 H   0  0  0  0  0  0  0  0  0  0  0  0
   -8.6955    5.3167    2.5552 H   0  0  0  0  0  0  0  0  0  0  0  0
   -9.6557    6.5766    1.6666 H   0  0  0  0  0  0  0  0  0  0  0  0
  -10.4585    5.5162    2.8840 H   0  0  0  0  0  0  0  0  0  0  0  0
   -7.5572    2.7572   -3.7176 H   0  0  0  0  0  0  0  0  0  0  0  0
   -6.6188    0.3797   -8.7532 H   0  0  0  0  0  0  0  0  0  0  0  0
   -8.1839   -3.9411   -8.1040 H   0  0  0  0  0  0  0  0  0  0  0  0
   -2.9293   -0.3082   -6.2762 H   0  0  0  0  0  0  0  0  0  0  0  0
   -3.9804   -3.0030   -7.2829 H   0  0  0  0  0  0  0  0  0  0  0  0
   -2.1157   -4.7973   -7.4164 H   0  0  0  0  0  0  0  0  0  0  0  0
   -1.8278  -10.8828   -8.0966 H   0  0  0  0  0  0  0  0  0  0  0  0
   -0.9815  -10.8762   -6.5110 H   0  0  0  0  0  0  0  0  0  0  0  0
   -3.4535  -11.1565   -6.2362 H   0  0  0  0  0  0  0  0  0  0  0  0
   -2.8762   -9.6312   -5.4711 H   0  0  0  0  0  0  0  0  0  0  0  0
   -3.7320   -9.5720   -7.0614 H   0  0  0  0  0  0  0  0  0  0  0  0
    5.2899    1.5701   -4.3700 H   0  0  0  0  0  0  0  0  0  0  0  0
    4.0229    2.0982   -5.5334 H   0  0  0  0  0  0  0  0  0  0  0  0
    2.4117    2.3252   -3.5022 H   0  0  0  0  0  0  0  0  0  0  0  0
    3.7708    3.5167   -3.6124 H   0  0  0  0  0  0  0  0  0  0  0  0
    3.8685    2.1430   -2.4613 H   0  0  0  0  0  0  0  0  0  0  0  0
    4.6753   -3.7469   -5.5285 H   0  0  0  0  0  0  0  0  0  0  0  0
    5.4103   -6.1777   -6.0619 H   0  0  0  0  0  0  0  0  0  0  0  0
  1  2  2  0
  2  3  1  0
  3  4  2  0
  4  5  1  0
  5  6  1  0
  6  7  1  0
  7  8  1  0
  8  9  1  0
  7 10  2  0
 10 11  1  0
 10 12  1  0
 12 13  1  0
  4 14  1  0
 14 15  2  0
 15 16  1  0
 16 17  1  0
 17 18  1  0
 18 19  1  0
 19 20  1  0
 20 21  1  0
 19 22  2  0
 22 23  1  0
 23 24  1  0
 22 25  1  0
 16 26  2  0
 26 27  1  0
 15 28  1  0
 28 29  2  0
 29 30  1  0
 29 31  1  0
 31 32  2  0
 32 33  1  0
 33 34  2  0
 34 35  1  0
 35 36  1  0
 36 37  1  0
 37 38  1  0
 38 39  1  0
 37 40  2  0
 40 41  1  0
 40 42  1  0
 42 43  1  0
 34 44  1  0
 44 45  2  0
 45 46  1  0
 46 47  1  0
 47 48  1  0
 48 49  1  0
 49 50  1  0
 50 51  1  0
 49 52  2  0
 52 53  1  0
 53 54  1  0
 52 55  1  0
 46 56  2  0
 56 57  1  0
 45 58  1  0
 58 59  2  0
 59 60  1  0
 59 61  1  0
 61 62  2  0
 62 63  1  0
 63 64  2  0
 64 65  1  0
 65 66  1  0
 66 67  1  0
 67 68  1  0
 68 69  1  0
 67 70  2  0
 70 71  1  0
 70 72  1  0
 72 73  1  0
 64 74  1  0
 74 75  2  0
 75 76  1  0
 76 77  1  0
 77 78  1  0
 78 79  1  0
 79 80  1  0
 80 81  1  0
 79 82  2  0
 82 83  1  0
 83 84  1  0
 82 85  1  0
 76 86  2  0
 86 87  1  0
 75 88  1  0
 88 89  2  0
 89 90  1  0
 89 91  1  0
 91 92  2  0
 92 93  1  0
 93 94  2  0
 94 95  1  0
 95 96  1  0
 96 97  1  0
 97 98  1  0
 98 99  1  0
 97100  2  0
100101  1  0
100102  1  0
102103  1  0
 94104  1  0
104105  2  0
105106  1  0
106107  1  0
107108  1  0
108109  1  0
109110  1  0
110111  1  0
109112  2  0
112113  1  0
113114  1  0
112115  1  0
106116  2  0
116117  1  0
105118  1  0
118119  2  0
119120  1  0
119121  1  0
121122  2  0
121123  1  0
123124  2  0
124125  1  0
125126  2  0
126127  1  0
127128  1  0
128129  2  0
124130  1  0
130131  2  3
131132  1  0
132133  2  0
133134  1  0
134135  2  0
135136  1  0
136137  1  0
137138  1  0
138139  1  0
139140  1  0
138141  2  0
141142  1  0
141143  1  0
143144  1  0
135145  1  0
145146  2  0
146147  1  0
147148  1  0
148149  1  0
149150  1  0
150151  1  0
151152  1  0
150153  2  0
153154  1  0
154155  1  0
153156  1  0
147157  2  0
157158  1  0
146159  1  0
159160  2  0
160161  1  0
 27  1  1  0
 57 31  1  0
 87 61  1  0
117 91  1  0
129125  1  0
158132  1  0
 26  3  1  0
 56 33  1  0
 86 63  1  0
116 93  1  0
157134  1  0
 12  5  2  0
 30 14  1  0
 42 35  2  0
 60 44  1  0
 72 65  2  0
 90 74  1  0
102 95  2  0
120104  1  0
143136  2  0
161145  1  0
 23 17  2  0
 53 47  2  0
 83 77  2  0
113107  2  0
154148  2  0
  1162  1  0
  2163  1  0
  8164  1  0
  8165  1  0
  9166  1  0
  9167  1  0
  9168  1  0
 20169  1  0
 20170  1  0
 21171  1  0
 21172  1  0
 21173  1  0
 28174  1  0
 32175  1  0
 38176  1  0
 38177  1  0
 39178  1  0
 39179  1  0
 39180  1  0
 50181  1  0
 50182  1  0
 51183  1  0
 51184  1  0
 51185  1  0
 58186  1  0
 62187  1  0
 68188  1  0
 68189  1  0
 69190  1  0
 69191  1  0
 69192  1  0
 80193  1  0
 80194  1  0
 81195  1  0
 81196  1  0
 81197  1  0
 88198  1  0
 92199  1  0
 98200  1  0
 98201  1  0
 99202  1  0
 99203  1  0
 99204  1  0
110205  1  0
110206  1  0
111207  1  0
111208  1  0
111209  1  0
118210  1  0
126211  1  0
128212  1  0
130213  1  0
131214  1  0
133215  1  0
139216  1  0
139217  1  0
140218  1  0
140219  1  0
140220  1  0
151221  1  0
151222  1  0
152223  1  0
152224  1  0
152225  1  0
159226  1  0
160227  1  0
M  RAD  2 122   2 129   2
M  END

