
     RDKit          3D

154161  0  0  0  0  0  0  0  0999 V2000
   -1.6160   -2.3310    6.0557 C   0  0  0  0  0  0  0  0  0  0  0  0
   -2.2548   -1.0322    5.1901 S   0  0  0  0  0  0  0  0  0  0  0  0
   -0.9272   -0.7776    4.1907 C   0  0  0  0  0  0  0  0  0  0  0  0
    0.0478   -1.7219    4.5192 C   0  0  0  0  0  0  0  0  0  0  0  0
   -0.3304   -2.5787    5.5823 C   0  0  0  0  0  0  0  0  0  0  0  0
    0.5112   -3.7584    6.0162 C   0  0  2  0  0  0  0  0  0  0  0  0
    0.4656   -3.9659    7.5356 C   0  0  0  0  0  0  0  0  0  0  0  0
    1.9784   -3.5958    5.5447 C   0  0  0  0  0  0  0  0  0  0  0  0
    2.0322   -3.1939    4.0731 C   0  0  0  0  0  0  0  0  0  0  0  0
    1.3987   -1.8088    3.8617 C   0  0  0  0  0  0  0  0  0  0  0  0
   -0.8286    0.2379    3.1246 C   0  0  0  0  0  0  0  0  0  0  0  0
   -1.9030    0.8926    2.6634 C   0  0  0  0  0  0  0  0  0  0  0  0
   -1.8831    1.8706    1.5378 C   0  0  0  0  0  0  0  0  0  0  0  0
   -2.7512    1.6570    0.4423 C   0  0  0  0  0  0  0  0  0  0  0  0
   -3.5643    0.4029    0.3169 C   0  0  0  0  0  0  0  0  0  0  0  0
   -2.8092    2.6006   -0.5844 C   0  0  0  0  0  0  0  0  0  0  0  0
   -2.0837    3.8027   -0.5140 C   0  0  0  0  0  0  0  0  0  0  0  0
   -2.1318    4.7237   -1.7137 C   0  0  0  0  0  0  0  0  0  0  0  0
   -0.8927    4.5699   -2.5724 C   0  0  0  0  0  0  0  0  0  0  0  0
   -1.2647    4.0606    0.6005 C   0  0  0  0  0  0  0  0  0  0  0  0
   -0.6210    5.4123    0.7953 C   0  0  0  0  0  0  0  0  0  0  0  0
   -1.0560    3.0262    1.5511 C   0  0  0  0  0  0  0  0  0  0  0  0
    0.1135    3.0727    2.4575 C   0  0  0  0  0  0  0  0  0  0  0  0
    1.3377    3.2202    1.9396 C   0  0  0  0  0  0  0  0  0  0  0  0
    2.4935    2.6250    2.6421 C   0  0  0  0  0  0  0  0  0  0  0  0
    3.1310    3.3430    3.6764 C   0  0  0  0  0  0  0  0  0  0  0  0
    2.6878    4.7379    4.0344 C   0  0  0  0  0  0  0  0  0  0  0  0
    4.2078    2.7616    4.3409 C   0  0  0  0  0  0  0  0  0  0  0  0
    4.6535    1.4685    4.0279 C   0  0  0  0  0  0  0  0  0  0  0  0
    5.8039    0.9135    4.8341 C   0  0  0  0  0  0  0  0  0  0  0  0
    5.2986    0.2884    6.1233 C   0  0  0  0  0  0  0  0  0  0  0  0
    4.0280    0.7391    2.9885 C   0  0  0  0  0  0  0  0  0  0  0  0
    4.4800   -0.6671    2.6755 C   0  0  0  0  0  0  0  0  0  0  0  0
    2.9938    1.3552    2.2291 C   0  0  0  0  0  0  0  0  0  0  0  0
    2.4432    0.7572    0.9698 C   0  0  0  0  0  0  0  0  0  0  0  0
    3.2582    0.4189   -0.0383 C   0  0  0  0  0  0  0  0  0  0  0  0
    2.8570    0.6989   -1.4308 C   0  0  0  0  0  0  0  0  0  0  0  0
    3.1431    1.9783   -1.9596 C   0  0  0  0  0  0  0  0  0  0  0  0
    3.7739    3.0952   -1.1443 C   0  0  0  0  0  0  0  0  0  0  0  0
    2.8218    2.2724   -3.2836 C   0  0  0  0  0  0  0  0  0  0  0  0
    2.3004    1.3072   -4.1435 C   0  0  0  0  0  0  0  0  0  0  0  0
    1.9920    1.7408   -5.5591 C   0  0  0  0  0  0  0  0  0  0  0  0
    0.4918    1.8883   -5.8089 C   0  0  0  0  0  0  0  0  0  0  0  0
    2.0511   -0.0042   -3.6485 C   0  0  0  0  0  0  0  0  0  0  0  0
    1.6263   -1.1011   -4.6020 C   0  0  0  0  0  0  0  0  0  0  0  0
    2.2359   -0.2826   -2.2487 C   0  0  0  0  0  0  0  0  0  0  0  0
    1.6465   -1.4905   -1.5759 C   0  0  0  0  0  0  0  0  0  0  0  0
    1.6768   -2.7362   -2.0808 C   0  0  0  0  0  0  0  0  0  0  0  0
    0.7661   -3.8099   -1.6638 C   0  0  0  0  0  0  0  0  0  0  0  0
    1.2842   -4.9864   -1.0847 C   0  0  0  0  0  0  0  0  0  0  0  0
    2.6795   -5.0367   -0.4983 C   0  0  0  0  0  0  0  0  0  0  0  0
    0.4421   -6.1012   -0.9344 C   0  0  0  0  0  0  0  0  0  0  0  0
   -0.8291   -6.1288   -1.5274 C   0  0  0  0  0  0  0  0  0  0  0  0
   -1.7388   -7.3120   -1.2943 C   0  0  0  0  0  0  0  0  0  0  0  0
   -1.5481   -8.4251   -2.3121 C   0  0  0  0  0  0  0  0  0  0  0  0
   -1.2634   -5.0110   -2.2804 C   0  0  0  0  0  0  0  0  0  0  0  0
   -2.0849   -5.2734   -3.5142 C   0  0  0  0  0  0  0  0  0  0  0  0
   -0.5381   -3.7941   -2.1874 C   0  0  0  0  0  0  0  0  0  0  0  0
   -1.3354   -2.5543   -2.0217 C   0  0  0  0  0  0  0  0  0  0  0  0
   -2.1329   -2.0998   -2.9816 C   0  0  0  0  0  0  0  0  0  0  0  0
   -3.5401   -1.8101   -2.6605 C   0  0  0  0  0  0  0  0  0  0  0  0
   -4.4286   -2.7647   -1.5990 S   0  0  0  0  0  0  0  0  0  0  0  0
   -5.9370   -2.1629   -1.9837 C   0  0  0  0  0  0  0  0  0  0  0  0
   -5.7694   -1.1331   -2.9318 C   0  0  0  0  0  0  0  0  0  0  0  0
   -4.4212   -0.9264   -3.3147 C   0  0  0  0  0  0  0  0  0  0  0  0
   -4.0201    0.1929   -4.2578 C   0  0  2  0  0  0  0  0  0  0  0  0
   -2.6187    0.7707   -3.9469 C   0  0  0  0  0  0  0  0  0  0  0  0
   -5.0683    1.3092   -4.2069 C   0  0  0  0  0  0  0  0  0  0  0  0
   -6.4727    0.7554   -4.4685 C   0  0  0  0  0  0  0  0  0  0  0  0
   -6.9052   -0.2471   -3.3825 C   0  0  0  0  0  0  0  0  0  0  0  0
   -7.1675   -2.5667   -1.2876 C   0  0  0  0  0  0  0  0  0  0  0  0
   -8.2763   -2.9090   -1.9363 C   0  0  0  0  0  0  0  0  0  0  0  0
   -2.1330   -2.8887    6.8182 H   0  0  0  0  0  0  0  0  0  0  0  0
    0.1087   -4.6717    5.5323 H   0  0  0  0  0  0  0  0  0  0  0  0
   -0.5587   -4.2648    7.8430 H   0  0  0  0  0  0  0  0  0  0  0  0
    1.1628   -4.7728    7.8389 H   0  0  0  0  0  0  0  0  0  0  0  0
    0.7482   -3.0281    8.0663 H   0  0  0  0  0  0  0  0  0  0  0  0
    2.5250   -4.5515    5.6953 H   0  0  0  0  0  0  0  0  0  0  0  0
    2.4959   -2.8177    6.1613 H   0  0  0  0  0  0  0  0  0  0  0  0
    1.4890   -3.9416    3.4584 H   0  0  0  0  0  0  0  0  0  0  0  0
    3.0901   -3.1660    3.7362 H   0  0  0  0  0  0  0  0  0  0  0  0
    2.0516   -1.0356    4.3191 H   0  0  0  0  0  0  0  0  0  0  0  0
    1.3108   -1.6136    2.7765 H   0  0  0  0  0  0  0  0  0  0  0  0
    0.1359    0.4353    2.6751 H   0  0  0  0  0  0  0  0  0  0  0  0
   -2.8839    0.6339    3.0497 H   0  0  0  0  0  0  0  0  0  0  0  0
   -2.9170   -0.4882    0.4514 H   0  0  0  0  0  0  0  0  0  0  0  0
   -4.0483    0.3295   -0.6787 H   0  0  0  0  0  0  0  0  0  0  0  0
   -4.3698    0.3930    1.0793 H   0  0  0  0  0  0  0  0  0  0  0  0
   -3.4086    2.3920   -1.4569 H   0  0  0  0  0  0  0  0  0  0  0  0
   -2.2661    5.7781   -1.4129 H   0  0  0  0  0  0  0  0  0  0  0  0
   -3.0329    4.4780   -2.3373 H   0  0  0  0  0  0  0  0  0  0  0  0
   -0.7024    3.4987   -2.8198 H   0  0  0  0  0  0  0  0  0  0  0  0
    0.0113    4.9532   -2.0479 H   0  0  0  0  0  0  0  0  0  0  0  0
   -1.0163    5.1489   -3.5193 H   0  0  0  0  0  0  0  0  0  0  0  0
    0.3224    5.4831    0.2097 H   0  0  0  0  0  0  0  0  0  0  0  0
   -0.3774    5.6041    1.8662 H   0  0  0  0  0  0  0  0  0  0  0  0
   -1.3208    6.2250    0.5144 H   0  0  0  0  0  0  0  0  0  0  0  0
    0.0022    2.7383    3.4817 H   0  0  0  0  0  0  0  0  0  0  0  0
    1.4591    3.4179    0.8805 H   0  0  0  0  0  0  0  0  0  0  0  0
    1.6524    4.7160    4.4288 H   0  0  0  0  0  0  0  0  0  0  0  0
    3.3473    5.1924    4.7988 H   0  0  0  0  0  0  0  0  0  0  0  0
    2.7266    5.3800    3.1358 H   0  0  0  0  0  0  0  0  0  0  0  0
    4.7050    3.3168    5.1205 H   0  0  0  0  0  0  0  0  0  0  0  0
    6.5048    1.7417    5.1075 H   0  0  0  0  0  0  0  0  0  0  0  0
    6.4127    0.1815    4.2555 H   0  0  0  0  0  0  0  0  0  0  0  0
    4.6379    0.9969    6.6685 H   0  0  0  0  0  0  0  0  0  0  0  0
    4.7441   -0.6578    5.9194 H   0  0  0  0  0  0  0  0  0  0  0  0
    6.1603    0.0368    6.7840 H   0  0  0  0  0  0  0  0  0  0  0  0
    3.7174   -1.2412    2.1091 H   0  0  0  0  0  0  0  0  0  0  0  0
    4.6561   -1.2398    3.6115 H   0  0  0  0  0  0  0  0  0  0  0  0
    5.4159   -0.6362    2.0786 H   0  0  0  0  0  0  0  0  0  0  0  0
    1.4149    0.9604    0.7115 H   0  0  0  0  0  0  0  0  0  0  0  0
    4.3241    0.3435    0.1361 H   0  0  0  0  0  0  0  0  0  0  0  0
    4.0627    2.7902   -0.1187 H   0  0  0  0  0  0  0  0  0  0  0  0
    4.7056    3.4252   -1.6659 H   0  0  0  0  0  0  0  0  0  0  0  0
    3.0669    3.9479   -1.0753 H   0  0  0  0  0  0  0  0  0  0  0  0
    3.0061    3.2685   -3.6427 H   0  0  0  0  0  0  0  0  0  0  0  0
    2.4583    2.7393   -5.7596 H   0  0  0  0  0  0  0  0  0  0  0  0
    2.4523    1.0518   -6.2957 H   0  0  0  0  0  0  0  0  0  0  0  0
    0.3124    2.4838   -6.7308 H   0  0  0  0  0  0  0  0  0  0  0  0
    0.0073    0.8980   -5.9409 H   0  0  0  0  0  0  0  0  0  0  0  0
   -0.0044    2.4163   -4.9563 H   0  0  0  0  0  0  0  0  0  0  0  0
    2.4602   -1.8231   -4.7131 H   0  0  0  0  0  0  0  0  0  0  0  0
    1.4483   -0.7664   -5.6380 H   0  0  0  0  0  0  0  0  0  0  0  0
    0.7007   -1.6043   -4.2610 H   0  0  0  0  0  0  0  0  0  0  0  0
    1.0727   -1.3217   -0.6667 H   0  0  0  0  0  0  0  0  0  0  0  0
    2.3278   -2.9818   -2.9065 H   0  0  0  0  0  0  0  0  0  0  0  0
    3.0344   -6.0970   -0.4160 H   0  0  0  0  0  0  0  0  0  0  0  0
    3.4065   -4.5099   -1.1374 H   0  0  0  0  0  0  0  0  0  0  0  0
    2.6819   -4.5834    0.5167 H   0  0  0  0  0  0  0  0  0  0  0  0
    0.7905   -6.9614   -0.3789 H   0  0  0  0  0  0  0  0  0  0  0  0
   -1.5692   -7.7290   -0.2721 H   0  0  0  0  0  0  0  0  0  0  0  0
   -2.7972   -6.9659   -1.3009 H   0  0  0  0  0  0  0  0  0  0  0  0
   -1.4073   -8.0218   -3.3393 H   0  0  0  0  0  0  0  0  0  0  0  0
   -0.6486   -9.0172   -2.0311 H   0  0  0  0  0  0  0  0  0  0  0  0
   -2.4338   -9.0794   -2.2881 H   0  0  0  0  0  0  0  0  0  0  0  0
   -1.3821   -5.5173   -4.3260 H   0  0  0  0  0  0  0  0  0  0  0  0
   -2.8274   -6.0835   -3.4346 H   0  0  0  0  0  0  0  0  0  0  0  0
   -2.6384   -4.3683   -3.8612 H   0  0  0  0  0  0  0  0  0  0  0  0
   -1.6424   -2.3584   -0.9971 H   0  0  0  0  0  0  0  0  0  0  0  0
   -1.8612   -2.2234   -4.0311 H   0  0  0  0  0  0  0  0  0  0  0  0
   -4.0096   -0.2113   -5.2959 H   0  0  0  0  0  0  0  0  0  0  0  0
   -1.8508    0.2229   -4.5181 H   0  0  0  0  0  0  0  0  0  0  0  0
   -2.3969    0.6864   -2.8675 H   0  0  0  0  0  0  0  0  0  0  0  0
   -2.5402    1.8394   -4.2269 H   0  0  0  0  0  0  0  0  0  0  0  0
   -4.8564    2.0836   -4.9804 H   0  0  0  0  0  0  0  0  0  0  0  0
   -5.0702    1.8120   -3.2101 H   0  0  0  0  0  0  0  0  0  0  0  0
   -7.2108    1.6074   -4.4605 H   0  0  0  0  0  0  0  0  0  0  0  0
   -6.5112    0.2896   -5.4898 H   0  0  0  0  0  0  0  0  0  0  0  0
   -7.7318   -0.8563   -3.7911 H   0  0  0  0  0  0  0  0  0  0  0  0
   -7.2669    0.3097   -2.4965 H   0  0  0  0  0  0  0  0  0  0  0  0
   -7.1260   -2.7054   -0.2196 H   0  0  0  0  0  0  0  0  0  0  0  0
   -8.3295   -2.8918   -3.0183 H   0  0  0  0  0  0  0  0  0  0  0  0
   -9.1516   -3.2471   -1.3890 H   0  0  0  0  0  0  0  0  0  0  0  0
  1  2  1  0
  2  3  1  0
  3  4  2  0
  4  5  1  0
  5  6  1  0
  6  7  1  0
  6  8  1  0
  8  9  1  0
  9 10  1  0
  3 11  1  0
 11 12  2  3
 12 13  1  0
 13 14  2  0
 14 15  1  0
 14 16  1  0
 16 17  2  0
 17 18  1  0
 18 19  1  0
 17 20  1  0
 20 21  1  0
 20 22  2  0
 22 23  1  0
 23 24  2  3
 24 25  1  0
 25 26  2  0
 26 27  1  0
 26 28  1  0
 28 29  2  0
 29 30  1  0
 30 31  1  0
 29 32  1  0
 32 33  1  0
 32 34  2  0
 34 35  1  0
 35 36  2  3
 36 37  1  0
 37 38  2  0
 38 39  1  0
 38 40  1  0
 40 41  2  0
 41 42  1  0
 42 43  1  0
 41 44  1  0
 44 45  1  0
 44 46  2  0
 46 47  1  0
 47 48  2  3
 48 49  1  0
 49 50  2  0
 50 51  1  0
 50 52  1  0
 52 53  2  0
 53 54  1  0
 54 55  1  0
 53 56  1  0
 56 57  1  0
 56 58  2  0
 58 59  1  0
 59 60  2  3
 60 61  1  0
 61 62  1  0
 62 63  1  0
 63 64  2  0
 64 65  1  0
 65 66  1  0
 66 67  1  0
 66 68  1  0
 68 69  1  0
 69 70  1  0
 63 71  1  0
 71 72  2  3
  5  1  2  0
 22 13  1  0
 34 25  1  0
 46 37  1  0
 58 49  1  0
 65 61  2  0
 10  4  1  0
 70 64  1  0
  1 73  1  0
  6 74  1  6
  7 75  1  0
  7 76  1  0
  7 77  1  0
  8 78  1  0
  8 79  1  0
  9 80  1  0
  9 81  1  0
 10 82  1  0
 10 83  1  0
 11 84  1  0
 12 85  1  0
 15 86  1  0
 15 87  1  0
 15 88  1  0
 16 89  1  0
 18 90  1  0
 18 91  1  0
 19 92  1  0
 19 93  1  0
 19 94  1  0
 21 95  1  0
 21 96  1  0
 21 97  1  0
 23 98  1  0
 24 99  1  0
 27100  1  0
 27101  1  0
 27102  1  0
 28103  1  0
 30104  1  0
 30105  1  0
 31106  1  0
 31107  1  0
 31108  1  0
 33109  1  0
 33110  1  0
 33111  1  0
 35112  1  0
 36113  1  0
 39114  1  0
 39115  1  0
 39116  1  0
 40117  1  0
 42118  1  0
 42119  1  0
 43120  1  0
 43121  1  0
 43122  1  0
 45123  1  0
 45124  1  0
 45125  1  0
 47126  1  0
 48127  1  0
 51128  1  0
 51129  1  0
 51130  1  0
 52131  1  0
 54132  1  0
 54133  1  0
 55134  1  0
 55135  1  0
 55136  1  0
 57137  1  0
 57138  1  0
 57139  1  0
 59140  1  0
 60141  1  0
 66142  1  6
 67143  1  0
 67144  1  0
 67145  1  0
 68146  1  0
 68147  1  0
 69148  1  0
 69149  1  0
 70150  1  0
 70151  1  0
 71152  1  0
 72153  1  0
 72154  1  0
M  END

