
     RDKit          3D

236259  0  0  0  0  0  0  0  0999 V2000
    3.7995   -2.8074   11.5571 C   0  0  0  0  0  0  0  0  0  0  0  0
    2.9995   -1.8613   10.9215 C   0  0  0  0  0  0  0  0  0  0  0  0
    1.9472   -2.4322   10.1844 C   0  0  0  0  0  0  0  0  0  0  0  0
    0.9899   -1.7419    9.4099 C   0  0  0  0  0  0  0  0  0  0  0  0
    0.9511   -0.2643    9.3381 C   0  0  0  0  0  0  0  0  0  0  0  0
    0.7814    0.4926   10.5107 C   0  0  0  0  0  0  0  0  0  0  0  0
    0.6998    1.8880   10.4433 C   0  0  0  0  0  0  0  0  0  0  0  0
    0.7650    2.5362    9.2046 C   0  0  0  0  0  0  0  0  0  0  0  0
    0.6028    4.3267    9.1237 S   0  0  0  0  0  0  0  0  0  0  0  0
    2.3996    4.6634    9.0709 C   0  0  0  0  0  0  0  0  0  0  0  0
    2.7143    5.5578    7.8792 C   0  0  0  0  0  0  0  0  0  0  0  0
    0.9284    1.7867    8.0320 C   0  0  0  0  0  0  0  0  0  0  0  0
    0.9935    2.4064    6.8285 F   0  0  0  0  0  0  0  0  0  0  0  0
    1.0301    0.3943    8.1014 C   0  0  0  0  0  0  0  0  0  0  0  0
    0.0402   -2.5324    8.7322 C   0  0  0  0  0  0  0  0  0  0  0  0
    0.0213   -3.9270    8.8060 C   0  0  0  0  0  0  0  0  0  0  0  0
    0.9934   -4.6119    9.5592 C   0  0  0  0  0  0  0  0  0  0  0  0
    1.0879   -6.0810    9.5421 C   0  0  0  0  0  0  0  0  0  0  0  0
    1.6892   -6.7203    8.4494 C   0  0  0  0  0  0  0  0  0  0  0  0
    1.8112   -8.1106    8.4324 C   0  0  0  0  0  0  0  0  0  0  0  0
    1.3233   -8.8742    9.5000 C   0  0  0  0  0  0  0  0  0  0  0  0
    1.5263  -10.6590    9.4850 S   0  0  0  0  0  0  0  0  0  0  0  0
   -0.0157  -10.9621    8.5590 C   0  0  0  0  0  0  0  0  0  0  0  0
   -0.1771  -12.4492    8.2883 C   0  0  0  0  0  0  0  0  0  0  0  0
    0.7115   -8.2359   10.5920 C   0  0  0  0  0  0  0  0  0  0  0  0
    0.5987   -6.8409   10.6152 C   0  0  0  0  0  0  0  0  0  0  0  0
    0.2401   -8.9673   11.6320 F   0  0  0  0  0  0  0  0  0  0  0  0
    1.9372   -3.8298   10.2438 C   0  0  0  0  0  0  0  0  0  0  0  0
    3.2161   -4.3502   11.2051 S   0  0  0  0  0  0  0  0  0  0  0  0
   -1.0313   -4.5123    8.0785 C   0  0  0  0  0  0  0  0  0  0  0  0
   -1.8202   -3.5774    7.4000 C   0  0  0  0  0  0  0  0  0  0  0  0
   -1.2312   -2.0311    7.7555 S   0  0  0  0  0  0  0  0  0  0  0  0
   -2.9523   -3.8181    6.4671 C   0  0  0  0  0  0  0  0  0  0  0  0
   -3.8744   -2.5605    5.8310 S   0  0  0  0  0  0  0  0  0  0  0  0
   -4.8138   -3.4643    4.7820 C   0  0  0  0  0  0  0  0  0  0  0  0
   -4.3945   -4.7959    4.8771 C   0  0  0  0  0  0  0  0  0  0  0  0
   -3.3579   -5.0045    5.8214 C   0  0  0  0  0  0  0  0  0  0  0  0
   -2.7996   -6.3786    6.0993 C   0  0  0  0  0  0  0  0  0  0  0  0
   -3.2145   -7.4445    5.0662 C   0  0  0  0  0  0  0  0  0  0  0  0
   -4.6521   -7.2512    4.5755 C   0  0  0  0  0  0  0  0  0  0  0  0
   -4.7961   -5.8764    3.9148 C   0  0  0  0  0  0  0  0  0  0  0  0
   -5.6474   -2.8615    3.7314 C   0  0  0  0  0  0  0  0  0  0  0  0
   -5.0685   -1.7014    2.6672 S   0  0  0  0  0  0  0  0  0  0  0  0
   -6.5189   -1.4171    1.8774 C   0  0  0  0  0  0  0  0  0  0  0  0
   -7.4977   -2.2425    2.4286 C   0  0  0  0  0  0  0  0  0  0  0  0
   -7.0197   -3.0261    3.5024 C   0  0  0  0  0  0  0  0  0  0  0  0
   -7.9292   -3.9193    4.3085 C   0  0  0  0  0  0  0  0  0  0  0  0
   -9.4029   -3.5081    4.1571 C   0  0  0  0  0  0  0  0  0  0  0  0
   -9.7624   -3.3172    2.6751 C   0  0  0  0  0  0  0  0  0  0  0  0
   -8.9553   -2.1656    2.0574 C   0  0  0  0  0  0  0  0  0  0  0  0
   -6.6439   -0.5218    0.7256 C   0  0  0  0  0  0  0  0  0  0  0  0
   -6.2837    0.8266    0.7491 C   0  0  0  0  0  0  0  0  0  0  0  0
   -5.9792    1.3423   -0.5247 C   0  0  0  0  0  0  0  0  0  0  0  0
   -5.4570    2.6249   -0.8108 C   0  0  0  0  0  0  0  0  0  0  0  0
   -5.3600    3.6951    0.2065 C   0  0  0  0  0  0  0  0  0  0  0  0
   -4.5612    3.5363    1.3492 C   0  0  0  0  0  0  0  0  0  0  0  0
   -4.4736    4.5634    2.2937 C   0  0  0  0  0  0  0  0  0  0  0  0
   -5.1807    5.7570    2.1037 C   0  0  0  0  0  0  0  0  0  0  0  0
   -5.0474    7.0738    3.3220 S   0  0  0  0  0  0  0  0  0  0  0  0
   -6.3632    6.4343    4.4220 C   0  0  0  0  0  0  0  0  0  0  0  0
   -7.7469    6.8361    3.9224 C   0  0  0  0  0  0  0  0  0  0  0  0
   -5.9560    5.9324    0.9502 C   0  0  0  0  0  0  0  0  0  0  0  0
   -6.6155    7.0986    0.7374 F   0  0  0  0  0  0  0  0  0  0  0  0
   -6.0516    4.9021    0.0105 C   0  0  0  0  0  0  0  0  0  0  0  0
   -4.9983    2.8414   -2.1216 C   0  0  0  0  0  0  0  0  0  0  0  0
   -5.0956    1.8732   -3.1250 C   0  0  0  0  0  0  0  0  0  0  0  0
   -5.6978    0.6251   -2.8620 C   0  0  0  0  0  0  0  0  0  0  0  0
   -5.7689   -0.4468   -3.8782 C   0  0  0  0  0  0  0  0  0  0  0  0
   -4.5927   -1.0181   -4.3974 C   0  0  0  0  0  0  0  0  0  0  0  0
   -4.6697   -2.0373   -5.3498 C   0  0  0  0  0  0  0  0  0  0  0  0
   -5.9138   -2.5084   -5.7783 C   0  0  0  0  0  0  0  0  0  0  0  0
   -6.0055   -3.8058   -7.0152 S   0  0  0  0  0  0  0  0  0  0  0  0
   -5.9572   -5.1877   -5.8176 C   0  0  0  0  0  0  0  0  0  0  0  0
   -4.5657   -5.8058   -5.7859 C   0  0  0  0  0  0  0  0  0  0  0  0
   -7.0895   -1.9458   -5.2589 C   0  0  0  0  0  0  0  0  0  0  0  0
   -7.0150   -0.9229   -4.3097 C   0  0  0  0  0  0  0  0  0  0  0  0
   -8.3006   -2.4097   -5.6522 F   0  0  0  0  0  0  0  0  0  0  0  0
   -6.1184    0.3921   -1.5421 C   0  0  0  0  0  0  0  0  0  0  0  0
   -6.5962   -1.0717   -0.8667 S   0  0  0  0  0  0  0  0  0  0  0  0
   -4.4291    2.2321   -4.3071 C   0  0  0  0  0  0  0  0  0  0  0  0
   -3.7448    3.4473   -4.2106 C   0  0  0  0  0  0  0  0  0  0  0  0
   -4.0396    4.1075   -2.6828 S   0  0  0  0  0  0  0  0  0  0  0  0
   -2.6139    3.8342   -5.0771 C   0  0  0  0  0  0  0  0  0  0  0  0
   -2.1515    3.0670   -6.1492 C   0  0  0  0  0  0  0  0  0  0  0  0
   -0.8096    3.3181   -6.4715 C   0  0  0  0  0  0  0  0  0  0  0  0
   -0.0126    2.5181   -7.3112 C   0  0  0  0  0  0  0  0  0  0  0  0
   -0.5512    1.3356   -8.0047 C   0  0  0  0  0  0  0  0  0  0  0  0
   -0.6818    1.3377   -9.4000 C   0  0  0  0  0  0  0  0  0  0  0  0
   -1.1627    0.2039  -10.0592 C   0  0  0  0  0  0  0  0  0  0  0  0
   -1.5056   -0.9401   -9.3288 C   0  0  0  0  0  0  0  0  0  0  0  0
   -2.1391   -2.3903  -10.1770 S   0  0  0  0  0  0  0  0  0  0  0  0
   -3.9010   -1.9349   -9.9789 C   0  0  0  0  0  0  0  0  0  0  0  0
   -4.3588   -1.0370  -11.1245 C   0  0  0  0  0  0  0  0  0  0  0  0
   -1.3391   -0.9586   -7.9366 C   0  0  0  0  0  0  0  0  0  0  0  0
   -1.6264   -2.0747   -7.2251 F   0  0  0  0  0  0  0  0  0  0  0  0
   -0.8711    0.1804   -7.2772 C   0  0  0  0  0  0  0  0  0  0  0  0
    1.3717    2.7462   -7.2836 C   0  0  0  0  0  0  0  0  0  0  0  0
    1.9573    3.7425   -6.4993 C   0  0  0  0  0  0  0  0  0  0  0  0
    1.1480    4.5994   -5.7212 C   0  0  0  0  0  0  0  0  0  0  0  0
    1.7320    5.6253   -4.8424 C   0  0  0  0  0  0  0  0  0  0  0  0
    2.2982    5.2622   -3.6129 C   0  0  0  0  0  0  0  0  0  0  0  0
    2.8396    6.2428   -2.7751 C   0  0  0  0  0  0  0  0  0  0  0  0
    2.8129    7.5897   -3.1596 C   0  0  0  0  0  0  0  0  0  0  0  0
    3.4858    8.8405   -2.0584 S   0  0  0  0  0  0  0  0  0  0  0  0
    1.9600    9.0375   -1.0691 C   0  0  0  0  0  0  0  0  0  0  0  0
    0.9569    9.9445   -1.7713 C   0  0  0  0  0  0  0  0  0  0  0  0
    2.2676    7.9493   -4.3998 C   0  0  0  0  0  0  0  0  0  0  0  0
    1.7223    6.9704   -5.2355 C   0  0  0  0  0  0  0  0  0  0  0  0
    2.2601    9.2476   -4.7961 F   0  0  0  0  0  0  0  0  0  0  0  0
   -0.2348    4.3386   -5.7102 C   0  0  0  0  0  0  0  0  0  0  0  0
   -1.3770    4.8884   -4.6036 S   0  0  0  0  0  0  0  0  0  0  0  0
    3.3598    3.6332   -6.4249 C   0  0  0  0  0  0  0  0  0  0  0  0
    3.8539    2.5199   -7.1050 C   0  0  0  0  0  0  0  0  0  0  0  0
    2.5693    1.7095   -7.8314 S   0  0  0  0  0  0  0  0  0  0  0  0
    5.1078    1.8510   -6.7634 C   0  0  0  0  0  0  0  0  0  0  0  0
    5.1648    0.5994   -6.1624 C   0  0  0  0  0  0  0  0  0  0  0  0
    6.4595    0.2425   -5.7629 C   0  0  0  0  0  0  0  0  0  0  0  0
    6.8186   -0.9263   -5.0602 C   0  0  0  0  0  0  0  0  0  0  0  0
    5.8015   -1.8903   -4.5801 C   0  0  0  0  0  0  0  0  0  0  0  0
    4.7811   -1.4641   -3.7135 C   0  0  0  0  0  0  0  0  0  0  0  0
    3.7966   -2.3601   -3.2869 C   0  0  0  0  0  0  0  0  0  0  0  0
    3.8387   -3.6997   -3.6964 C   0  0  0  0  0  0  0  0  0  0  0  0
    2.5591   -4.8421   -3.1643 S   0  0  0  0  0  0  0  0  0  0  0  0
    3.2784   -5.1587   -1.5107 C   0  0  0  0  0  0  0  0  0  0  0  0
    4.5207   -6.0385   -1.6022 C   0  0  0  0  0  0  0  0  0  0  0  0
    4.8600   -4.1321   -4.5556 C   0  0  0  0  0  0  0  0  0  0  0  0
    4.9017   -5.4221   -4.9758 F   0  0  0  0  0  0  0  0  0  0  0  0
    5.8371   -3.2312   -4.9944 C   0  0  0  0  0  0  0  0  0  0  0  0
    8.1854   -1.0958   -4.7768 C   0  0  0  0  0  0  0  0  0  0  0  0
    9.1555   -0.1600   -5.1495 C   0  0  0  0  0  0  0  0  0  0  0  0
    8.7875    1.0244   -5.8268 C   0  0  0  0  0  0  0  0  0  0  0  0
    9.7832    2.0351   -6.2397 C   0  0  0  0  0  0  0  0  0  0  0  0
   10.6058    2.6613   -5.2910 C   0  0  0  0  0  0  0  0  0  0  0  0
   11.5565    3.6008   -5.6945 C   0  0  0  0  0  0  0  0  0  0  0  0
   11.6913    3.9285   -7.0491 C   0  0  0  0  0  0  0  0  0  0  0  0
   12.9256    5.1297   -7.5623 S   0  0  0  0  0  0  0  0  0  0  0  0
   14.1942    3.8868   -7.9926 C   0  0  0  0  0  0  0  0  0  0  0  0
   14.9349    3.4044   -6.7521 C   0  0  0  0  0  0  0  0  0  0  0  0
   10.8541    3.3257   -7.9987 C   0  0  0  0  0  0  0  0  0  0  0  0
    9.9107    2.3786   -7.5974 C   0  0  0  0  0  0  0  0  0  0  0  0
   10.9696    3.6392   -9.3143 F   0  0  0  0  0  0  0  0  0  0  0  0
    7.4212    1.1958   -6.1088 C   0  0  0  0  0  0  0  0  0  0  0  0
    6.6541    2.5203   -6.8217 S   0  0  0  0  0  0  0  0  0  0  0  0
   10.4547   -0.5432   -4.7716 C   0  0  0  0  0  0  0  0  0  0  0  0
   10.4954   -1.7522   -4.0848 C   0  0  0  0  0  0  0  0  0  0  0  0
    8.9301   -2.3594   -3.9531 S   0  0  0  0  0  0  0  0  0  0  0  0
    4.6621   -2.5922   12.1752 H   0  0  0  0  0  0  0  0  0  0  0  0
    3.1937   -0.8012   10.9865 H   0  0  0  0  0  0  0  0  0  0  0  0
    0.6968    0.0021   11.4723 H   0  0  0  0  0  0  0  0  0  0  0  0
    0.5664    2.4611   11.3527 H   0  0  0  0  0  0  0  0  0  0  0  0
    2.9959    3.7293    8.9859 H   0  0  0  0  0  0  0  0  0  0  0  0
    2.6915    5.1777   10.0100 H   0  0  0  0  0  0  0  0  0  0  0  0
    2.4187    5.0565    6.9334 H   0  0  0  0  0  0  0  0  0  0  0  0
    2.1714    6.5225    7.9659 H   0  0  0  0  0  0  0  0  0  0  0  0
    3.8048    5.7673    7.8424 H   0  0  0  0  0  0  0  0  0  0  0  0
    1.1623   -0.1733    7.1871 H   0  0  0  0  0  0  0  0  0  0  0  0
    2.0723   -6.1415    7.6176 H   0  0  0  0  0  0  0  0  0  0  0  0
    2.2845   -8.5976    7.5902 H   0  0  0  0  0  0  0  0  0  0  0  0
    0.0184  -10.4164    7.5919 H   0  0  0  0  0  0  0  0  0  0  0  0
   -0.8814  -10.5971    9.1534 H   0  0  0  0  0  0  0  0  0  0  0  0
    0.6871  -12.8270    7.7046 H   0  0  0  0  0  0  0  0  0  0  0  0
   -1.1059  -12.6241    7.7083 H   0  0  0  0  0  0  0  0  0  0  0  0
   -0.2437  -13.0059    9.2455 H   0  0  0  0  0  0  0  0  0  0  0  0
    0.1373   -6.3557   11.4657 H   0  0  0  0  0  0  0  0  0  0  0  0
   -1.2049   -5.5744    8.0852 H   0  0  0  0  0  0  0  0  0  0  0  0
   -1.6943   -6.3365    6.0944 H   0  0  0  0  0  0  0  0  0  0  0  0
   -3.1609   -6.6962    7.0987 H   0  0  0  0  0  0  0  0  0  0  0  0
   -2.5225   -7.4035    4.1967 H   0  0  0  0  0  0  0  0  0  0  0  0
   -3.1154   -8.4552    5.5247 H   0  0  0  0  0  0  0  0  0  0  0  0
   -4.9003   -8.0378    3.8304 H   0  0  0  0  0  0  0  0  0  0  0  0
   -5.3715   -7.3429    5.4224 H   0  0  0  0  0  0  0  0  0  0  0  0
   -5.8380   -5.7478    3.5777 H   0  0  0  0  0  0  0  0  0  0  0  0
   -4.1385   -5.8213    3.0177 H   0  0  0  0  0  0  0  0  0  0  0  0
   -7.6478   -3.8807    5.3811 H   0  0  0  0  0  0  0  0  0  0  0  0
   -7.8314   -4.9620    3.9477 H   0  0  0  0  0  0  0  0  0  0  0  0
  -10.0477   -4.3003    4.5966 H   0  0  0  0  0  0  0  0  0  0  0  0
   -9.5871   -2.5619    4.7121 H   0  0  0  0  0  0  0  0  0  0  0  0
   -9.5626   -4.2584    2.1137 H   0  0  0  0  0  0  0  0  0  0  0  0
  -10.8479   -3.0894    2.5847 H   0  0  0  0  0  0  0  0  0  0  0  0
   -9.3613   -1.2043    2.4394 H   0  0  0  0  0  0  0  0  0  0  0  0
   -9.0671   -2.1874    0.9549 H   0  0  0  0  0  0  0  0  0  0  0  0
   -6.1521    1.3711    1.6727 H   0  0  0  0  0  0  0  0  0  0  0  0
   -4.0014    2.6211    1.5058 H   0  0  0  0  0  0  0  0  0  0  0  0
   -3.8572    4.4297    3.1738 H   0  0  0  0  0  0  0  0  0  0  0  0
   -6.2120    6.8732    5.4310 H   0  0  0  0  0  0  0  0  0  0  0  0
   -6.2978    5.3300    4.5178 H   0  0  0  0  0  0  0  0  0  0  0  0
   -8.5183    6.5116    4.6544 H   0  0  0  0  0  0  0  0  0  0  0  0
   -7.9639    6.3519    2.9480 H   0  0  0  0  0  0  0  0  0  0  0  0
   -7.8069    7.9402    3.8057 H   0  0  0  0  0  0  0  0  0  0  0  0
   -6.6622    5.0446   -0.8717 H   0  0  0  0  0  0  0  0  0  0  0  0
   -3.6195   -0.6711   -4.0710 H   0  0  0  0  0  0  0  0  0  0  0  0
   -3.7600   -2.4775   -5.7398 H   0  0  0  0  0  0  0  0  0  0  0  0
   -6.2451   -4.8586   -4.7950 H   0  0  0  0  0  0  0  0  0  0  0  0
   -6.6873   -5.9565   -6.1491 H   0  0  0  0  0  0  0  0  0  0  0  0
   -4.5536   -6.6631   -5.0810 H   0  0  0  0  0  0  0  0  0  0  0  0
   -3.8222   -5.0557   -5.4478 H   0  0  0  0  0  0  0  0  0  0  0  0
   -4.2873   -6.1714   -6.7971 H   0  0  0  0  0  0  0  0  0  0  0  0
   -7.9295   -0.4972   -3.9104 H   0  0  0  0  0  0  0  0  0  0  0  0
   -4.3558    1.5796   -5.1656 H   0  0  0  0  0  0  0  0  0  0  0  0
   -2.7183    2.2606   -6.5904 H   0  0  0  0  0  0  0  0  0  0  0  0
   -0.4182    2.2186   -9.9763 H   0  0  0  0  0  0  0  0  0  0  0  0
   -1.2674    0.2117  -11.1363 H   0  0  0  0  0  0  0  0  0  0  0  0
   -4.5049   -2.8682   -9.9932 H   0  0  0  0  0  0  0  0  0  0  0  0
   -4.0760   -1.4302   -9.0059 H   0  0  0  0  0  0  0  0  0  0  0  0
   -3.7885   -0.0860  -11.1211 H   0  0  0  0  0  0  0  0  0  0  0  0
   -5.4379   -0.8047  -11.0107 H   0  0  0  0  0  0  0  0  0  0  0  0
   -4.2010   -1.5578  -12.0922 H   0  0  0  0  0  0  0  0  0  0  0  0
   -0.7432    0.1618   -6.2022 H   0  0  0  0  0  0  0  0  0  0  0  0
    2.3150    4.2236   -3.3043 H   0  0  0  0  0  0  0  0  0  0  0  0
    3.2682    5.9511   -1.8241 H   0  0  0  0  0  0  0  0  0  0  0  0
    2.2382    9.4998   -0.0995 H   0  0  0  0  0  0  0  0  0  0  0  0
    1.4987    8.0501   -0.8574 H   0  0  0  0  0  0  0  0  0  0  0  0
    0.0901   10.1301   -1.1013 H   0  0  0  0  0  0  0  0  0  0  0  0
    1.4294   10.9196   -2.0193 H   0  0  0  0  0  0  0  0  0  0  0  0
    0.5822    9.4667   -2.6999 H   0  0  0  0  0  0  0  0  0  0  0  0
    1.2977    7.2578   -6.1879 H   0  0  0  0  0  0  0  0  0  0  0  0
    3.9761    4.2409   -5.7740 H   0  0  0  0  0  0  0  0  0  0  0  0
    4.2882   -0.0085   -5.9850 H   0  0  0  0  0  0  0  0  0  0  0  0
    4.7431   -0.4353   -3.3744 H   0  0  0  0  0  0  0  0  0  0  0  0
    3.0061   -2.0175   -2.6324 H   0  0  0  0  0  0  0  0  0  0  0  0
    3.5249   -4.1984   -1.0084 H   0  0  0  0  0  0  0  0  0  0  0  0
    2.5169   -5.6810   -0.8935 H   0  0  0  0  0  0  0  0  0  0  0  0
    4.8424   -6.3326   -0.5814 H   0  0  0  0  0  0  0  0  0  0  0  0
    5.3533   -5.4874   -2.0867 H   0  0  0  0  0  0  0  0  0  0  0  0
    4.3008   -6.9559   -2.1905 H   0  0  0  0  0  0  0  0  0  0  0  0
    6.6121   -3.5745   -5.6688 H   0  0  0  0  0  0  0  0  0  0  0  0
   10.5128    2.4172   -4.2385 H   0  0  0  0  0  0  0  0  0  0  0  0
   12.1935    4.0692   -4.9556 H   0  0  0  0  0  0  0  0  0  0  0  0
   14.9252    4.3628   -8.6807 H   0  0  0  0  0  0  0  0  0  0  0  0
   13.7330    3.0268   -8.5222 H   0  0  0  0  0  0  0  0  0  0  0  0
   15.7676    2.7357   -7.0557 H   0  0  0  0  0  0  0  0  0  0  0  0
   14.2526    2.8365   -6.0876 H   0  0  0  0  0  0  0  0  0  0  0  0
   15.3542    4.2711   -6.1966 H   0  0  0  0  0  0  0  0  0  0  0  0
    9.2852    1.8999   -8.3409 H   0  0  0  0  0  0  0  0  0  0  0  0
   11.3470    0.0333   -4.9880 H   0  0  0  0  0  0  0  0  0  0  0  0
   11.3881   -2.2207   -3.6997 H   0  0  0  0  0  0  0  0  0  0  0  0
  1  2  2  0
  2  3  1  0
  3  4  2  0
  4  5  1  0
  5  6  2  0
  6  7  1  0
  7  8  2  0
  8  9  1  0
  9 10  1  0
 10 11  1  0
  8 12  1  0
 12 13  1  0
 12 14  2  0
  4 15  1  0
 15 16  2  0
 16 17  1  0
 17 18  1  0
 18 19  2  0
 19 20  1  0
 20 21  2  0
 21 22  1  0
 22 23  1  0
 23 24  1  0
 21 25  1  0
 25 26  2  0
 25 27  1  0
 17 28  2  0
 28 29  1  0
 16 30  1  0
 30 31  2  0
 31 32  1  0
 31 33  1  0
 33 34  1  0
 34 35  1  0
 35 36  2  0
 36 37  1  0
 37 38  1  0
 38 39  1  0
 39 40  1  0
 40 41  1  0
 35 42  1  0
 42 43  1  0
 43 44  1  0
 44 45  2  0
 45 46  1  0
 46 47  1  0
 47 48  1  0
 48 49  1  0
 49 50  1  0
 44 51  1  0
 51 52  2  0
 52 53  1  0
 53 54  2  0
 54 55  1  0
 55 56  2  0
 56 57  1  0
 57 58  2  0
 58 59  1  0
 59 60  1  0
 60 61  1  0
 58 62  1  0
 62 63  1  0
 62 64  2  0
 54 65  1  0
 65 66  2  0
 66 67  1  0
 67 68  1  0
 68 69  2  0
 69 70  1  0
 70 71  2  0
 71 72  1  0
 72 73  1  0
 73 74  1  0
 71 75  1  0
 75 76  2  0
 75 77  1  0
 67 78  2  0
 78 79  1  0
 66 80  1  0
 80 81  2  0
 81 82  1  0
 81 83  1  0
 83 84  2  0
 84 85  1  0
 85 86  2  0
 86 87  1  0
 87 88  2  0
 88 89  1  0
 89 90  2  0
 90 91  1  0
 91 92  1  0
 92 93  1  0
 90 94  1  0
 94 95  1  0
 94 96  2  0
 86 97  1  0
 97 98  2  0
 98 99  1  0
 99100  1  0
100101  2  0
101102  1  0
102103  2  0
103104  1  0
104105  1  0
105106  1  0
103107  1  0
107108  2  0
107109  1  0
 99110  2  0
110111  1  0
 98112  1  0
112113  2  0
113114  1  0
113115  1  0
115116  2  0
116117  1  0
117118  2  0
118119  1  0
119120  2  0
120121  1  0
121122  2  0
122123  1  0
123124  1  0
124125  1  0
122126  1  0
126127  1  0
126128  2  0
118129  1  0
129130  2  0
130131  1  0
131132  1  0
132133  2  0
133134  1  0
134135  2  0
135136  1  0
136137  1  0
137138  1  0
135139  1  0
139140  2  0
139141  1  0
131142  2  0
142143  1  0
130144  1  0
144145  2  0
145146  1  0
 29  1  1  0
 37 33  2  0
 46 42  2  0
 79 51  1  0
111 83  1  0
143115  1  0
 28  3  1  0
 41 36  1  0
 50 45  1  0
 78 53  1  0
110 85  1  0
142117  1  0
 14  5  1  0
 32 15  1  0
 64 55  1  0
 82 65  1  0
 96 87  1  0
114 97  1  0
128119  1  0
146129  1  0
 26 18  1  0
 76 68  1  0
108100  1  0
140132  1  0
  1147  1  0
  2148  1  0
  6149  1  0
  7150  1  0
 10151  1  0
 10152  1  0
 11153  1  0
 11154  1  0
 11155  1  0
 14156  1  0
 19157  1  0
 20158  1  0
 23159  1  0
 23160  1  0
 24161  1  0
 24162  1  0
 24163  1  0
 26164  1  0
 30165  1  0
 38166  1  0
 38167  1  0
 39168  1  0
 39169  1  0
 40170  1  0
 40171  1  0
 41172  1  0
 41173  1  0
 47174  1  0
 47175  1  0
 48176  1  0
 48177  1  0
 49178  1  0
 49179  1  0
 50180  1  0
 50181  1  0
 52182  1  0
 56183  1  0
 57184  1  0
 60185  1  0
 60186  1  0
 61187  1  0
 61188  1  0
 61189  1  0
 64190  1  0
 69191  1  0
 70192  1  0
 73193  1  0
 73194  1  0
 74195  1  0
 74196  1  0
 74197  1  0
 76198  1  0
 80199  1  0
 84200  1  0
 88201  1  0
 89202  1  0
 92203  1  0
 92204  1  0
 93205  1  0
 93206  1  0
 93207  1  0
 96208  1  0
101209  1  0
102210  1  0
105211  1  0
105212  1  0
106213  1  0
106214  1  0
106215  1  0
108216  1  0
112217  1  0
116218  1  0
120219  1  0
121220  1  0
124221  1  0
124222  1  0
125223  1  0
125224  1  0
125225  1  0
128226  1  0
133227  1  0
134228  1  0
137229  1  0
137230  1  0
138231  1  0
138232  1  0
138233  1  0
140234  1  0
144235  1  0
145236  1  0
M  END

