
     RDKit          3D

250275  0  0  0  0  0  0  0  0999 V2000
   -2.7454   -4.7023    9.6317 C   0  0  0  0  0  0  0  0  0  0  0  0
   -2.2378   -3.6210    8.9168 C   0  0  0  0  0  0  0  0  0  0  0  0
   -2.1912   -3.8512    7.5333 C   0  0  0  0  0  0  0  0  0  0  0  0
   -1.7306   -2.9526    6.5501 C   0  0  0  0  0  0  0  0  0  0  0  0
   -1.1755   -1.6328    6.8959 C   0  0  0  0  0  0  0  0  0  0  0  0
    0.1060   -1.5352    7.4588 C   0  0  0  0  0  0  0  0  0  0  0  0
    0.6386   -0.2827    7.7761 C   0  0  0  0  0  0  0  0  0  0  0  0
   -0.1031    0.8816    7.5327 C   0  0  0  0  0  0  0  0  0  0  0  0
    0.5827    2.4857    7.9700 S   0  0  0  0  0  0  0  0  0  0  0  0
    1.1708    2.8953    6.2887 C   0  0  0  0  0  0  0  0  0  0  0  0
    2.4499    2.1434    5.9471 C   0  0  0  0  0  0  0  0  0  0  0  0
   -1.3875    0.7850    6.9797 C   0  0  0  0  0  0  0  0  0  0  0  0
   -2.1236    1.9014    6.7507 F   0  0  0  0  0  0  0  0  0  0  0  0
   -1.9178   -0.4683    6.6537 C   0  0  0  0  0  0  0  0  0  0  0  0
   -1.7890   -3.3865    5.2140 C   0  0  0  0  0  0  0  0  0  0  0  0
   -2.2416   -4.6588    4.8561 C   0  0  0  0  0  0  0  0  0  0  0  0
   -2.7070   -5.5517    5.8381 C   0  0  0  0  0  0  0  0  0  0  0  0
   -3.2131   -6.8885    5.4928 C   0  0  0  0  0  0  0  0  0  0  0  0
   -2.3214   -7.9539    5.3101 C   0  0  0  0  0  0  0  0  0  0  0  0
   -2.8057   -9.2196    4.9670 C   0  0  0  0  0  0  0  0  0  0  0  0
   -4.1799   -9.4231    4.7838 C   0  0  0  0  0  0  0  0  0  0  0  0
   -4.7892  -11.0442    4.3096 S   0  0  0  0  0  0  0  0  0  0  0  0
   -4.8262  -10.6940    2.5148 C   0  0  0  0  0  0  0  0  0  0  0  0
   -3.4342  -10.7923    1.9045 C   0  0  0  0  0  0  0  0  0  0  0  0
   -5.0721   -8.3606    4.9845 C   0  0  0  0  0  0  0  0  0  0  0  0
   -4.5903   -7.0970    5.3374 C   0  0  0  0  0  0  0  0  0  0  0  0
   -6.4074   -8.5462    4.8281 F   0  0  0  0  0  0  0  0  0  0  0  0
   -2.6716   -5.1110    7.1701 C   0  0  0  0  0  0  0  0  0  0  0  0
   -3.1400   -5.9423    8.5552 S   0  0  0  0  0  0  0  0  0  0  0  0
   -2.1495   -4.9154    3.4796 C   0  0  0  0  0  0  0  0  0  0  0  0
   -1.6335   -3.8397    2.7567 C   0  0  0  0  0  0  0  0  0  0  0  0
   -1.2922   -2.5729    3.8286 S   0  0  0  0  0  0  0  0  0  0  0  0
   -1.3244   -3.8799    1.2790 C   0  0  0  0  0  0  0  0  0  0  0  0
   -0.4692   -2.7586    0.8270 C   0  0  0  0  0  0  0  0  0  0  0  0
    0.6451   -2.4601    1.3381 O   0  0  0  0  0  0  0  0  0  0  0  0
   -0.9782   -2.0966   -0.2619 O   0  0  0  0  0  0  0  0  0  0  0  0
   -2.2231   -2.6171   -0.6775 C   0  0  1  0  0  0  0  0  0  0  0  0
   -2.5492   -3.7713    0.3170 C   0  0  2  0  0  0  0  0  0  0  0  0
   -3.9331   -3.6053    0.9683 C   0  0  0  0  0  0  0  0  0  0  0  0
   -4.9675   -3.3027   -0.1213 C   0  0  0  0  0  0  0  0  0  0  0  0
   -4.7382   -1.8998   -0.7358 C   0  0  1  0  0  0  0  0  0  0  0  0
   -3.2433   -1.4585   -0.7263 C   0  0  2  0  0  0  0  0  0  0  0  0
   -3.0524   -0.7626   -1.9413 O   0  0  0  0  0  0  0  0  0  0  0  0
   -4.0762   -1.0145   -2.8232 C   0  0  0  0  0  0  0  0  0  0  0  0
   -4.0324   -0.6280   -4.0186 O   0  0  0  0  0  0  0  0  0  0  0  0
   -5.2254   -1.7561   -2.2105 C   0  0  0  0  0  0  0  0  0  0  0  0
   -6.5244   -0.9085   -2.3632 C   0  0  0  0  0  0  0  0  0  0  0  0
   -7.7696   -1.4163   -1.7293 C   0  0  0  0  0  0  0  0  0  0  0  0
   -7.8400   -1.9952   -0.6163 O   0  0  0  0  0  0  0  0  0  0  0  0
   -8.8905   -1.0606   -2.4554 O   0  0  0  0  0  0  0  0  0  0  0  0
   -8.5153   -0.3076   -3.6014 C   0  0  1  0  0  0  0  0  0  0  0  0
   -7.0293   -0.6728   -3.8141 C   0  0  2  0  0  0  0  0  0  0  0  0
   -6.9315   -1.9164   -4.7235 C   0  0  0  0  0  0  0  0  0  0  0  0
   -7.4723   -1.6362   -6.1283 C   0  0  0  0  0  0  0  0  0  0  0  0
   -8.7657   -0.7796   -6.1576 C   0  0  1  0  0  0  0  0  0  0  0  0
   -9.4723   -0.5715   -4.7940 C   0  0  2  0  0  0  0  0  0  0  0  0
  -10.2795    0.5780   -5.0108 O   0  0  0  0  0  0  0  0  0  0  0  0
   -9.8721    1.2727   -6.1361 C   0  0  0  0  0  0  0  0  0  0  0  0
  -10.4222    2.3377   -6.5162 O   0  0  0  0  0  0  0  0  0  0  0  0
   -8.7289    0.6256   -6.8362 C   0  0  0  0  0  0  0  0  0  0  0  0
   -7.4499    1.4210   -6.6439 C   0  0  0  0  0  0  0  0  0  0  0  0
   -7.1459    2.2531   -5.5607 C   0  0  0  0  0  0  0  0  0  0  0  0
   -5.7835    2.5904   -5.4792 C   0  0  0  0  0  0  0  0  0  0  0  0
   -5.1553    3.1999   -4.3699 C   0  0  0  0  0  0  0  0  0  0  0  0
   -5.9535    3.6813   -3.2258 C   0  0  0  0  0  0  0  0  0  0  0  0
   -6.8659    4.7333   -3.4048 C   0  0  0  0  0  0  0  0  0  0  0  0
   -7.7912    5.0383   -2.4046 C   0  0  0  0  0  0  0  0  0  0  0  0
   -7.8216    4.2887   -1.2224 C   0  0  0  0  0  0  0  0  0  0  0  0
   -9.1259    4.5693   -0.0196 S   0  0  0  0  0  0  0  0  0  0  0  0
  -10.3768    3.5637   -0.9022 C   0  0  0  0  0  0  0  0  0  0  0  0
  -10.1218    2.0696   -0.7364 C   0  0  0  0  0  0  0  0  0  0  0  0
   -6.8635    3.2862   -1.0102 C   0  0  0  0  0  0  0  0  0  0  0  0
   -6.8692    2.5628    0.1383 F   0  0  0  0  0  0  0  0  0  0  0  0
   -5.9306    2.9867   -2.0064 C   0  0  0  0  0  0  0  0  0  0  0  0
   -3.7498    3.1660   -4.3394 C   0  0  0  0  0  0  0  0  0  0  0  0
   -2.9979    2.6001   -5.3731 C   0  0  0  0  0  0  0  0  0  0  0  0
   -3.6227    2.0582   -6.5119 C   0  0  0  0  0  0  0  0  0  0  0  0
   -2.8426    1.3724   -7.5594 C   0  0  0  0  0  0  0  0  0  0  0  0
   -2.6925    1.9572   -8.8251 C   0  0  0  0  0  0  0  0  0  0  0  0
   -1.8359    1.3783   -9.7690 C   0  0  0  0  0  0  0  0  0  0  0  0
   -1.1294    0.2103   -9.4557 C   0  0  0  0  0  0  0  0  0  0  0  0
    0.0015   -0.4987  -10.6557 S   0  0  0  0  0  0  0  0  0  0  0  0
    1.4442    0.4355  -10.0418 C   0  0  0  0  0  0  0  0  0  0  0  0
    2.6811    0.0596  -10.8404 C   0  0  0  0  0  0  0  0  0  0  0  0
   -1.3056   -0.3983   -8.2048 C   0  0  0  0  0  0  0  0  0  0  0  0
   -2.1631    0.1794   -7.2629 C   0  0  0  0  0  0  0  0  0  0  0  0
   -0.6328   -1.5311   -7.8877 F   0  0  0  0  0  0  0  0  0  0  0  0
   -5.0255    2.0648   -6.5289 C   0  0  0  0  0  0  0  0  0  0  0  0
   -6.0399    1.2065   -7.5572 S   0  0  0  0  0  0  0  0  0  0  0  0
   -1.6318    2.5179   -5.0799 C   0  0  0  0  0  0  0  0  0  0  0  0
   -1.3133    3.0004   -3.8191 C   0  0  0  0  0  0  0  0  0  0  0  0
   -2.7151    3.5603   -3.0644 S   0  0  0  0  0  0  0  0  0  0  0  0
   -0.0606    2.6767   -3.1375 C   0  0  0  0  0  0  0  0  0  0  0  0
    0.6785    3.5012   -2.2931 C   0  0  0  0  0  0  0  0  0  0  0  0
    1.8123    2.8539   -1.7630 C   0  0  0  0  0  0  0  0  0  0  0  0
    2.7835    3.4111   -0.8987 C   0  0  0  0  0  0  0  0  0  0  0  0
    2.6921    4.8073   -0.4163 C   0  0  0  0  0  0  0  0  0  0  0  0
    1.5772    5.2308    0.3277 C   0  0  0  0  0  0  0  0  0  0  0  0
    1.4890    6.5529    0.7763 C   0  0  0  0  0  0  0  0  0  0  0  0
    2.5142    7.4614    0.4893 C   0  0  0  0  0  0  0  0  0  0  0  0
    2.4030    9.1563    1.0851 S   0  0  0  0  0  0  0  0  0  0  0  0
    1.7212    9.8400   -0.4674 C   0  0  0  0  0  0  0  0  0  0  0  0
    0.2235    9.5868   -0.5733 C   0  0  0  0  0  0  0  0  0  0  0  0
    3.6370    7.0396   -0.2331 C   0  0  0  0  0  0  0  0  0  0  0  0
    4.6420    7.9088   -0.5102 F   0  0  0  0  0  0  0  0  0  0  0  0
    3.7236    5.7180   -0.6873 C   0  0  0  0  0  0  0  0  0  0  0  0
    3.8357    2.5619   -0.4896 C   0  0  0  0  0  0  0  0  0  0  0  0
    3.9051    1.2191   -0.8761 C   0  0  0  0  0  0  0  0  0  0  0  0
    2.9532    0.6679   -1.7538 C   0  0  0  0  0  0  0  0  0  0  0  0
    2.9504   -0.7737   -2.0973 C   0  0  0  0  0  0  0  0  0  0  0  0
    1.8631   -1.5680   -1.7171 C   0  0  0  0  0  0  0  0  0  0  0  0
    1.8625   -2.9440   -1.9674 C   0  0  0  0  0  0  0  0  0  0  0  0
    2.9497   -3.5362   -2.6133 C   0  0  0  0  0  0  0  0  0  0  0  0
    2.9529   -5.3055   -2.9212 S   0  0  0  0  0  0  0  0  0  0  0  0
    2.1994   -5.1870   -4.5818 C   0  0  0  0  0  0  0  0  0  0  0  0
    0.6794   -5.1570   -4.4895 C   0  0  0  0  0  0  0  0  0  0  0  0
    4.0431   -2.7478   -2.9992 C   0  0  0  0  0  0  0  0  0  0  0  0
    4.0421   -1.3704   -2.7467 C   0  0  0  0  0  0  0  0  0  0  0  0
    5.1110   -3.3124   -3.6182 F   0  0  0  0  0  0  0  0  0  0  0  0
    1.9257    1.5223   -2.1842 C   0  0  0  0  0  0  0  0  0  0  0  0
    0.6624    1.1586   -3.2254 S   0  0  0  0  0  0  0  0  0  0  0  0
    4.9490    0.5193   -0.2610 C   0  0  0  0  0  0  0  0  0  0  0  0
    5.7219    1.3155    0.5771 C   0  0  0  0  0  0  0  0  0  0  0  0
    5.1002    2.8878    0.5852 S   0  0  0  0  0  0  0  0  0  0  0  0
    6.8517    0.8129    1.3687 C   0  0  0  0  0  0  0  0  0  0  0  0
    7.0021   -0.5156    1.7508 C   0  0  0  0  0  0  0  0  0  0  0  0
    8.2089   -0.7641    2.4095 C   0  0  0  0  0  0  0  0  0  0  0  0
    8.6295   -2.0106    2.9053 C   0  0  0  0  0  0  0  0  0  0  0  0
    7.8300   -3.2290    2.6704 C   0  0  0  0  0  0  0  0  0  0  0  0
    7.1078   -3.8219    3.7152 C   0  0  0  0  0  0  0  0  0  0  0  0
    6.2306   -4.8794    3.4472 C   0  0  0  0  0  0  0  0  0  0  0  0
    6.0657   -5.3436    2.1355 C   0  0  0  0  0  0  0  0  0  0  0  0
    4.8857   -6.6541    1.7849 S   0  0  0  0  0  0  0  0  0  0  0  0
    3.5050   -5.5302    1.3554 C   0  0  0  0  0  0  0  0  0  0  0  0
    2.7911   -5.0408    2.6093 C   0  0  0  0  0  0  0  0  0  0  0  0
    6.8228   -4.7830    1.0985 C   0  0  0  0  0  0  0  0  0  0  0  0
    6.6825   -5.2283   -0.1755 F   0  0  0  0  0  0  0  0  0  0  0  0
    7.7004   -3.7290    1.3658 C   0  0  0  0  0  0  0  0  0  0  0  0
    9.8728   -2.0486    3.5528 C   0  0  0  0  0  0  0  0  0  0  0  0
   10.6981   -0.9231    3.6662 C   0  0  0  0  0  0  0  0  0  0  0  0
   10.2881    0.3254    3.1378 C   0  0  0  0  0  0  0  0  0  0  0  0
   11.1830    1.5023    3.1180 C   0  0  0  0  0  0  0  0  0  0  0  0
   11.5654    2.0668    1.8923 C   0  0  0  0  0  0  0  0  0  0  0  0
   12.4243    3.1664    1.8582 C   0  0  0  0  0  0  0  0  0  0  0  0
   12.9073    3.7186    3.0519 C   0  0  0  0  0  0  0  0  0  0  0  0
   14.0272    5.1225    2.9893 S   0  0  0  0  0  0  0  0  0  0  0  0
   12.7103    6.3831    2.8557 C   0  0  0  0  0  0  0  0  0  0  0  0
   12.1387    6.7243    4.2250 C   0  0  0  0  0  0  0  0  0  0  0  0
   12.5379    3.1505    4.2801 C   0  0  0  0  0  0  0  0  0  0  0  0
   11.6761    2.0502    4.3134 C   0  0  0  0  0  0  0  0  0  0  0  0
   13.0199    3.6568    5.4447 F   0  0  0  0  0  0  0  0  0  0  0  0
    9.0144    0.3696    2.5351 C   0  0  0  0  0  0  0  0  0  0  0  0
    8.2139    1.6906    1.8453 S   0  0  0  0  0  0  0  0  0  0  0  0
   11.9273   -1.2129    4.2846 C   0  0  0  0  0  0  0  0  0  0  0  0
   12.0507   -2.5477    4.6652 C   0  0  0  0  0  0  0  0  0  0  0  0
   10.6541   -3.3778    4.2204 S   0  0  0  0  0  0  0  0  0  0  0  0
   -2.8691   -4.7414   10.7037 H   0  0  0  0  0  0  0  0  0  0  0  0
   -1.9176   -2.7004    9.3893 H   0  0  0  0  0  0  0  0  0  0  0  0
    0.6932   -2.4277    7.6395 H   0  0  0  0  0  0  0  0  0  0  0  0
    1.6281   -0.2156    8.2095 H   0  0  0  0  0  0  0  0  0  0  0  0
    1.3790    3.9850    6.2536 H   0  0  0  0  0  0  0  0  0  0  0  0
    0.3845    2.6735    5.5359 H   0  0  0  0  0  0  0  0  0  0  0  0
    3.2185    2.3168    6.7284 H   0  0  0  0  0  0  0  0  0  0  0  0
    2.2489    1.0585    5.8603 H   0  0  0  0  0  0  0  0  0  0  0  0
    2.8437    2.5054    4.9730 H   0  0  0  0  0  0  0  0  0  0  0  0
   -2.9059   -0.5347    6.2164 H   0  0  0  0  0  0  0  0  0  0  0  0
   -1.2549   -7.8033    5.4309 H   0  0  0  0  0  0  0  0  0  0  0  0
   -2.1108  -10.0389    4.8348 H   0  0  0  0  0  0  0  0  0  0  0  0
   -5.2604   -9.6912    2.3177 H   0  0  0  0  0  0  0  0  0  0  0  0
   -5.4801  -11.4502    2.0297 H   0  0  0  0  0  0  0  0  0  0  0  0
   -2.7850   -9.9822    2.2937 H   0  0  0  0  0  0  0  0  0  0  0  0
   -2.9813  -11.7770    2.1456 H   0  0  0  0  0  0  0  0  0  0  0  0
   -3.5010  -10.6861    0.8007 H   0  0  0  0  0  0  0  0  0  0  0  0
   -5.2848   -6.2771    5.4817 H   0  0  0  0  0  0  0  0  0  0  0  0
   -2.4213   -5.8576    3.0218 H   0  0  0  0  0  0  0  0  0  0  0  0
   -0.7751   -4.8246    1.0660 H   0  0  0  0  0  0  0  0  0  0  0  0
   -2.1057   -3.0510   -1.6964 H   0  0  0  0  0  0  0  0  0  0  0  0
   -2.5861   -4.7207   -0.2675 H   0  0  0  0  0  0  0  0  0  0  0  0
   -3.9261   -2.7850    1.7171 H   0  0  0  0  0  0  0  0  0  0  0  0
   -4.2131   -4.5466    1.4866 H   0  0  0  0  0  0  0  0  0  0  0  0
   -5.9782   -3.3568    0.3331 H   0  0  0  0  0  0  0  0  0  0  0  0
   -4.9189   -4.0943   -0.8979 H   0  0  0  0  0  0  0  0  0  0  0  0
   -5.2832   -1.1669   -0.0977 H   0  0  0  0  0  0  0  0  0  0  0  0
   -3.0627   -0.7671    0.1281 H   0  0  0  0  0  0  0  0  0  0  0  0
   -5.3262   -2.7511   -2.6922 H   0  0  0  0  0  0  0  0  0  0  0  0
   -6.3363    0.0877   -1.9067 H   0  0  0  0  0  0  0  0  0  0  0  0
   -8.5566    0.7691   -3.3246 H   0  0  0  0  0  0  0  0  0  0  0  0
   -6.4624    0.1603   -4.2647 H   0  0  0  0  0  0  0  0  0  0  0  0
   -7.5001   -2.7591   -4.2706 H   0  0  0  0  0  0  0  0  0  0  0  0
   -5.8798   -2.2452   -4.8356 H   0  0  0  0  0  0  0  0  0  0  0  0
   -7.6846   -2.6212   -6.6000 H   0  0  0  0  0  0  0  0  0  0  0  0
   -6.6752   -1.1986   -6.7514 H   0  0  0  0  0  0  0  0  0  0  0  0
   -9.4907   -1.3651   -6.7726 H   0  0  0  0  0  0  0  0  0  0  0  0
  -10.1220   -1.4468   -4.5690 H   0  0  0  0  0  0  0  0  0  0  0  0
   -8.9475    0.5381   -7.9220 H   0  0  0  0  0  0  0  0  0  0  0  0
   -7.8657    2.5019   -4.7920 H   0  0  0  0  0  0  0  0  0  0  0  0
   -6.8964    5.2750   -4.3419 H   0  0  0  0  0  0  0  0  0  0  0  0
   -8.5172    5.8244   -2.5690 H   0  0  0  0  0  0  0  0  0  0  0  0
  -10.3940    3.8276   -1.9810 H   0  0  0  0  0  0  0  0  0  0  0  0
  -11.3750    3.8043   -0.4796 H   0  0  0  0  0  0  0  0  0  0  0  0
   -9.1510    1.7882   -1.1846 H   0  0  0  0  0  0  0  0  0  0  0  0
  -10.1258    1.7980    0.3408 H   0  0  0  0  0  0  0  0  0  0  0  0
  -10.9198    1.4980   -1.2578 H   0  0  0  0  0  0  0  0  0  0  0  0
   -5.2329    2.1709   -1.8572 H   0  0  0  0  0  0  0  0  0  0  0  0
   -3.2054    2.8790   -9.0667 H   0  0  0  0  0  0  0  0  0  0  0  0
   -1.7089    1.8497  -10.7365 H   0  0  0  0  0  0  0  0  0  0  0  0
    1.6151    0.1968   -8.9695 H   0  0  0  0  0  0  0  0  0  0  0  0
    1.2558    1.5265  -10.1409 H   0  0  0  0  0  0  0  0  0  0  0  0
    2.5319    0.3055  -11.9148 H   0  0  0  0  0  0  0  0  0  0  0  0
    3.5579    0.6264  -10.4624 H   0  0  0  0  0  0  0  0  0  0  0  0
    2.8855   -1.0269  -10.7374 H   0  0  0  0  0  0  0  0  0  0  0  0
   -2.2707   -0.2793   -6.2871 H   0  0  0  0  0  0  0  0  0  0  0  0
   -0.9008    2.0456   -5.7245 H   0  0  0  0  0  0  0  0  0  0  0  0
    0.4105    4.5289   -2.0917 H   0  0  0  0  0  0  0  0  0  0  0  0
    0.7763    4.5388    0.5571 H   0  0  0  0  0  0  0  0  0  0  0  0
    0.6235    6.8686    1.3460 H   0  0  0  0  0  0  0  0  0  0  0  0
    1.8987   10.9366   -0.4633 H   0  0  0  0  0  0  0  0  0  0  0  0
    2.2420    9.4121   -1.3491 H   0  0  0  0  0  0  0  0  0  0  0  0
   -0.1689   10.0821   -1.4866 H   0  0  0  0  0  0  0  0  0  0  0  0
    0.0160    8.4997   -0.6476 H   0  0  0  0  0  0  0  0  0  0  0  0
   -0.2984   10.0055    0.3131 H   0  0  0  0  0  0  0  0  0  0  0  0
    4.5889    5.4106   -1.2600 H   0  0  0  0  0  0  0  0  0  0  0  0
    1.0260   -1.1110   -1.2117 H   0  0  0  0  0  0  0  0  0  0  0  0
    1.0177   -3.5443   -1.6522 H   0  0  0  0  0  0  0  0  0  0  0  0
    2.5630   -4.2901   -5.1247 H   0  0  0  0  0  0  0  0  0  0  0  0
    2.5043   -6.0829   -5.1629 H   0  0  0  0  0  0  0  0  0  0  0  0
    0.2458   -5.1363   -5.5125 H   0  0  0  0  0  0  0  0  0  0  0  0
    0.3125   -6.0621   -3.9614 H   0  0  0  0  0  0  0  0  0  0  0  0
    0.3388   -4.2536   -3.9442 H   0  0  0  0  0  0  0  0  0  0  0  0
    4.8961   -0.7730   -3.0428 H   0  0  0  0  0  0  0  0  0  0  0  0
    5.1366   -0.5351   -0.4099 H   0  0  0  0  0  0  0  0  0  0  0  0
    6.2541   -1.2759    1.5644 H   0  0  0  0  0  0  0  0  0  0  0  0
    7.1909   -3.4379    4.7236 H   0  0  0  0  0  0  0  0  0  0  0  0
    5.6565   -5.3148    4.2552 H   0  0  0  0  0  0  0  0  0  0  0  0
    3.8680   -4.6672    0.7596 H   0  0  0  0  0  0  0  0  0  0  0  0
    2.7799   -6.0945    0.7307 H   0  0  0  0  0  0  0  0  0  0  0  0
    1.8827   -4.4792    2.3227 H   0  0  0  0  0  0  0  0  0  0  0  0
    2.4893   -5.9010    3.2449 H   0  0  0  0  0  0  0  0  0  0  0  0
    3.4526   -4.3619    3.1883 H   0  0  0  0  0  0  0  0  0  0  0  0
    8.2526   -3.2750    0.5516 H   0  0  0  0  0  0  0  0  0  0  0  0
   11.2066    1.6487    0.9595 H   0  0  0  0  0  0  0  0  0  0  0  0
   12.7132    3.5924    0.9056 H   0  0  0  0  0  0  0  0  0  0  0  0
   13.1547    7.3008    2.4156 H   0  0  0  0  0  0  0  0  0  0  0  0
   11.8996    6.0391    2.1781 H   0  0  0  0  0  0  0  0  0  0  0  0
   11.6052    5.8498    4.6481 H   0  0  0  0  0  0  0  0  0  0  0  0
   11.4151    7.5602    4.1285 H   0  0  0  0  0  0  0  0  0  0  0  0
   12.9529    7.0313    4.9157 H   0  0  0  0  0  0  0  0  0  0  0  0
   11.3931    1.6209    5.2656 H   0  0  0  0  0  0  0  0  0  0  0  0
   12.7159   -0.4906    4.4427 H   0  0  0  0  0  0  0  0  0  0  0  0
   12.9139   -2.9818    5.1510 H   0  0  0  0  0  0  0  0  0  0  0  0
  1  2  2  0
  2  3  1  0
  3  4  2  0
  4  5  1  0
  5  6  2  0
  6  7  1  0
  7  8  2  0
  8  9  1  0
  9 10  1  0
 10 11  1  0
  8 12  1  0
 12 13  1  0
 12 14  2  0
  4 15  1  0
 15 16  2  0
 16 17  1  0
 17 18  1  0
 18 19  2  0
 19 20  1  0
 20 21  2  0
 21 22  1  0
 22 23  1  0
 23 24  1  0
 21 25  1  0
 25 26  2  0
 25 27  1  0
 17 28  2  0
 28 29  1  0
 16 30  1  0
 30 31  2  0
 31 32  1  0
 31 33  1  0
 33 34  1  0
 34 35  2  0
 34 36  1  0
 36 37  1  0
 37 38  1  0
 38 39  1  0
 39 40  1  0
 40 41  1  0
 41 42  1  0
 42 43  1  0
 43 44  1  0
 44 45  2  0
 44 46  1  0
 46 47  1  0
 47 48  1  0
 48 49  2  0
 48 50  1  0
 50 51  1  0
 51 52  1  0
 52 53  1  0
 53 54  1  0
 54 55  1  0
 55 56  1  0
 56 57  1  0
 57 58  1  0
 58 59  2  0
 58 60  1  0
 60 61  1  0
 61 62  2  0
 62 63  1  0
 63 64  2  0
 64 65  1  0
 65 66  2  0
 66 67  1  0
 67 68  2  0
 68 69  1  0
 69 70  1  0
 70 71  1  0
 68 72  1  0
 72 73  1  0
 72 74  2  0
 64 75  1  0
 75 76  2  0
 76 77  1  0
 77 78  1  0
 78 79  2  0
 79 80  1  0
 80 81  2  0
 81 82  1  0
 82 83  1  0
 83 84  1  0
 81 85  1  0
 85 86  2  0
 85 87  1  0
 77 88  2  0
 88 89  1  0
 76 90  1  0
 90 91  2  0
 91 92  1  0
 91 93  1  0
 93 94  2  0
 94 95  1  0
 95 96  2  0
 96 97  1  0
 97 98  2  0
 98 99  1  0
 99100  2  0
100101  1  0
101102  1  0
102103  1  0
100104  1  0
104105  1  0
104106  2  0
 96107  1  0
107108  2  0
108109  1  0
109110  1  0
110111  2  0
111112  1  0
112113  2  0
113114  1  0
114115  1  0
115116  1  0
113117  1  0
117118  2  0
117119  1  0
109120  2  0
120121  1  0
108122  1  0
122123  2  0
123124  1  0
123125  1  0
125126  2  0
126127  1  0
127128  2  0
128129  1  0
129130  2  0
130131  1  0
131132  2  0
132133  1  0
133134  1  0
134135  1  0
132136  1  0
136137  1  0
136138  2  0
128139  1  0
139140  2  0
140141  1  0
141142  1  0
142143  2  0
143144  1  0
144145  2  0
145146  1  0
146147  1  0
147148  1  0
145149  1  0
149150  2  0
149151  1  0
141152  2  0
152153  1  0
140154  1  0
154155  2  0
155156  1  0
 29  1  1  0
 38 33  1  0
 46 41  1  0
 52 47  1  0
 60 55  1  0
 89 61  1  0
121 93  1  0
153125  1  0
 28  3  1  0
 42 37  1  0
 56 51  1  0
 88 63  1  0
120 95  1  0
152127  1  0
 14  5  1  0
 32 15  1  0
 74 65  1  0
 92 75  1  0
106 97  1  0
124107  1  0
138129  1  0
156139  1  0
 26 18  1  0
 86 78  1  0
118110  1  0
150142  1  0
  1157  1  0
  2158  1  0
  6159  1  0
  7160  1  0
 10161  1  0
 10162  1  0
 11163  1  0
 11164  1  0
 11165  1  0
 14166  1  0
 19167  1  0
 20168  1  0
 23169  1  0
 23170  1  0
 24171  1  0
 24172  1  0
 24173  1  0
 26174  1  0
 30175  1  0
 33176  1  0
 37177  1  6
 38178  1  6
 39179  1  0
 39180  1  0
 40181  1  0
 40182  1  0
 41183  1  1
 42184  1  1
 46185  1  0
 47186  1  0
 51187  1  1
 52188  1  6
 53189  1  0
 53190  1  0
 54191  1  0
 54192  1  0
 55193  1  6
 56194  1  1
 60195  1  0
 62196  1  0
 66197  1  0
 67198  1  0
 70199  1  0
 70200  1  0
 71201  1  0
 71202  1  0
 71203  1  0
 74204  1  0
 79205  1  0
 80206  1  0
 83207  1  0
 83208  1  0
 84209  1  0
 84210  1  0
 84211  1  0
 86212  1  0
 90213  1  0
 94214  1  0
 98215  1  0
 99216  1  0
102217  1  0
102218  1  0
103219  1  0
103220  1  0
103221  1  0
106222  1  0
111223  1  0
112224  1  0
115225  1  0
115226  1  0
116227  1  0
116228  1  0
116229  1  0
118230  1  0
122231  1  0
126232  1  0
130233  1  0
131234  1  0
134235  1  0
134236  1  0
135237  1  0
135238  1  0
135239  1  0
138240  1  0
143241  1  0
144242  1  0
147243  1  0
147244  1  0
148245  1  0
148246  1  0
148247  1  0
150248  1  0
154249  1  0
155250  1  0
M  END

