
     RDKit          3D

231257  0  0  0  0  0  0  0  0999 V2000
    1.2474   -6.9963   10.2214 C   0  0  0  0  0  0  0  0  0  0  0  0
    1.4178   -5.8037    9.5226 C   0  0  0  0  0  0  0  0  0  0  0  0
    0.5111   -5.6519    8.4633 C   0  0  0  0  0  0  0  0  0  0  0  0
    0.4580   -4.5750    7.5601 C   0  0  0  0  0  0  0  0  0  0  0  0
    1.3840   -3.4334    7.6407 C   0  0  0  0  0  0  0  0  0  0  0  0
    1.2934   -2.2036    8.7834 S   0  0  0  0  0  0  0  0  0  0  0  0
    2.4875   -1.2379    8.0951 C   0  0  0  0  0  0  0  0  0  0  0  0
    2.9255    0.0895    8.6361 C   0  0  0  0  0  0  0  0  0  0  0  0
    4.1954   -0.0509    9.4679 C   0  0  0  0  0  0  0  0  0  0  0  0
    2.9861   -1.8790    6.9622 C   0  0  0  0  0  0  0  0  0  0  0  0
    4.2536   -1.2094    5.9413 Cl  0  0  0  0  0  0  0  0  0  0  0  0
    2.3621   -3.1079    6.7045 C   0  0  0  0  0  0  0  0  0  0  0  0
    2.7617   -4.1278    5.3260 Cl  0  0  0  0  0  0  0  0  0  0  0  0
   -0.5257   -4.6321    6.5596 C   0  0  0  0  0  0  0  0  0  0  0  0
   -1.4201   -5.7009    6.4347 C   0  0  0  0  0  0  0  0  0  0  0  0
   -1.3463   -6.7966    7.3206 C   0  0  0  0  0  0  0  0  0  0  0  0
   -2.2113   -7.9792    7.1753 C   0  0  0  0  0  0  0  0  0  0  0  0
   -3.2819   -8.5420    8.3447 S   0  0  0  0  0  0  0  0  0  0  0  0
   -3.7753   -9.9114    7.5001 C   0  0  0  0  0  0  0  0  0  0  0  0
   -4.8139  -10.8811    7.9785 C   0  0  0  0  0  0  0  0  0  0  0  0
   -6.2080  -10.4066    7.5843 C   0  0  0  0  0  0  0  0  0  0  0  0
   -3.1118   -9.9362    6.2719 C   0  0  0  0  0  0  0  0  0  0  0  0
   -2.2260   -8.8632    6.0979 C   0  0  0  0  0  0  0  0  0  0  0  0
   -1.1856   -8.6902    4.6888 Cl  0  0  0  0  0  0  0  0  0  0  0  0
   -3.3349  -11.2036    5.0728 Cl  0  0  0  0  0  0  0  0  0  0  0  0
   -0.3701   -6.7309    8.3320 C   0  0  0  0  0  0  0  0  0  0  0  0
   -0.0167   -7.8677    9.5216 S   0  0  0  0  0  0  0  0  0  0  0  0
   -2.3432   -5.5274    5.3870 C   0  0  0  0  0  0  0  0  0  0  0  0
   -2.1522   -4.3349    4.6903 C   0  0  0  0  0  0  0  0  0  0  0  0
   -0.8596   -3.4907    5.3742 S   0  0  0  0  0  0  0  0  0  0  0  0
   -2.9194   -3.8779    3.5236 C   0  0  0  0  0  0  0  0  0  0  0  0
   -2.5578   -2.8126    2.7032 C   0  0  0  0  0  0  0  0  0  0  0  0
   -3.4555   -2.6076    1.6480 C   0  0  0  0  0  0  0  0  0  0  0  0
   -3.3486   -1.6219    0.6517 C   0  0  0  0  0  0  0  0  0  0  0  0
   -2.2483   -0.6437    0.6402 C   0  0  0  0  0  0  0  0  0  0  0  0
   -0.6607   -0.9692    0.1921 S   0  0  0  0  0  0  0  0  0  0  0  0
   -0.0655    0.5746    0.5140 C   0  0  0  0  0  0  0  0  0  0  0  0
    1.3722    0.9839    0.3924 C   0  0  0  0  0  0  0  0  0  0  0  0
    2.1007    0.7740    1.7134 C   0  0  0  0  0  0  0  0  0  0  0  0
   -1.1062    1.3565    1.0106 C   0  0  0  0  0  0  0  0  0  0  0  0
   -0.8817    2.9929    1.6089 Cl  0  0  0  0  0  0  0  0  0  0  0  0
   -2.3345    0.6818    1.0611 C   0  0  0  0  0  0  0  0  0  0  0  0
   -3.8238    1.4255    1.6262 Cl  0  0  0  0  0  0  0  0  0  0  0  0
   -4.3640   -1.5840   -0.3127 C   0  0  0  0  0  0  0  0  0  0  0  0
   -5.4632   -2.4503   -0.2951 C   0  0  0  0  0  0  0  0  0  0  0  0
   -5.5718   -3.4356    0.7081 C   0  0  0  0  0  0  0  0  0  0  0  0
   -6.7006   -4.3802    0.7491 C   0  0  0  0  0  0  0  0  0  0  0  0
   -6.5739   -6.0287    0.4514 S   0  0  0  0  0  0  0  0  0  0  0  0
   -8.2156   -6.3622    0.6103 C   0  0  0  0  0  0  0  0  0  0  0  0
   -8.8374   -7.6978    0.3361 C   0  0  0  0  0  0  0  0  0  0  0  0
   -9.1737   -7.8323   -1.1453 C   0  0  0  0  0  0  0  0  0  0  0  0
   -8.8900   -5.1750    0.8881 C   0  0  0  0  0  0  0  0  0  0  0  0
   -8.0382   -4.0620    0.9708 C   0  0  0  0  0  0  0  0  0  0  0  0
   -8.5988   -2.4375    1.3364 Cl  0  0  0  0  0  0  0  0  0  0  0  0
  -10.6337   -5.0672    1.0861 Cl  0  0  0  0  0  0  0  0  0  0  0  0
   -4.5335   -3.4983    1.6553 C   0  0  0  0  0  0  0  0  0  0  0  0
   -4.3613   -4.5579    2.9543 S   0  0  0  0  0  0  0  0  0  0  0  0
   -6.3572   -2.2282   -1.3611 C   0  0  0  0  0  0  0  0  0  0  0  0
   -5.9263   -1.2196   -2.2154 C   0  0  0  0  0  0  0  0  0  0  0  0
   -4.4747   -0.5740   -1.6457 S   0  0  0  0  0  0  0  0  0  0  0  0
   -6.6501   -0.6700   -3.3661 C   0  0  0  0  0  0  0  0  0  0  0  0
   -5.8779    0.1244   -4.6366 S   0  0  0  0  0  0  0  0  0  0  0  0
   -7.1224    1.1665   -5.1259 C   0  0  0  0  0  0  0  0  0  0  0  0
   -8.1742    0.8877   -4.2592 C   0  0  0  0  0  0  0  0  0  0  0  0
   -9.3849    1.5472   -4.0631 C   0  0  0  0  0  0  0  0  0  0  0  0
  -10.0799    1.0273   -2.9622 C   0  0  0  0  0  0  0  0  0  0  0  0
  -11.4018    1.4712   -2.5073 C   0  0  0  0  0  0  0  0  0  0  0  0
  -11.8746    1.0170   -1.4309 O   0  0  0  0  0  0  0  0  0  0  0  0
  -12.1326    2.3734   -3.2863 O   0  0  0  0  0  0  0  0  0  0  0  0
  -13.4175    2.8630   -2.9145 C   0  0  0  0  0  0  0  0  0  0  0  0
  -13.2893    3.9621   -1.8689 C   0  0  0  0  0  0  0  0  0  0  0  0
   -9.1645   -0.1953   -2.2142 S   0  0  0  0  0  0  0  0  0  0  0  0
   -7.9186   -0.1122   -3.3342 C   0  0  0  0  0  0  0  0  0  0  0  0
   -6.7692    2.4854   -5.6589 C   0  0  0  0  0  0  0  0  0  0  0  0
   -5.9125    2.5763   -6.7580 C   0  0  0  0  0  0  0  0  0  0  0  0
   -4.8679    3.5020   -6.5906 C   0  0  0  0  0  0  0  0  0  0  0  0
   -3.7019    3.5492   -7.3798 C   0  0  0  0  0  0  0  0  0  0  0  0
   -3.6076    2.8119   -8.6574 C   0  0  0  0  0  0  0  0  0  0  0  0
   -2.5111    1.5804   -9.0005 S   0  0  0  0  0  0  0  0  0  0  0  0
   -2.9999    1.3325  -10.5876 C   0  0  0  0  0  0  0  0  0  0  0  0
   -2.3165    0.4083  -11.5508 C   0  0  0  0  0  0  0  0  0  0  0  0
   -1.0649    1.0643  -12.1275 C   0  0  0  0  0  0  0  0  0  0  0  0
   -4.0394    2.2157  -10.8734 C   0  0  0  0  0  0  0  0  0  0  0  0
   -4.8191    2.3179  -12.4488 Cl  0  0  0  0  0  0  0  0  0  0  0  0
   -4.3867    3.0383   -9.7915 C   0  0  0  0  0  0  0  0  0  0  0  0
   -5.6253    4.2790   -9.8838 Cl  0  0  0  0  0  0  0  0  0  0  0  0
   -2.5817    4.1782   -6.8086 C   0  0  0  0  0  0  0  0  0  0  0  0
   -2.6197    4.7987   -5.5557 C   0  0  0  0  0  0  0  0  0  0  0  0
   -3.8321    4.8919   -4.8382 C   0  0  0  0  0  0  0  0  0  0  0  0
   -3.8850    5.5357   -3.5068 C   0  0  0  0  0  0  0  0  0  0  0  0
   -4.3195    4.7795   -2.0657 S   0  0  0  0  0  0  0  0  0  0  0  0
   -4.0827    6.1156   -1.0707 C   0  0  0  0  0  0  0  0  0  0  0  0
   -4.3226    6.1359    0.4109 C   0  0  0  0  0  0  0  0  0  0  0  0
   -3.0096    6.0763    1.1843 C   0  0  0  0  0  0  0  0  0  0  0  0
   -3.6387    7.1760   -1.8558 C   0  0  0  0  0  0  0  0  0  0  0  0
   -3.5263    6.8543   -3.2181 C   0  0  0  0  0  0  0  0  0  0  0  0
   -3.0168    8.0137   -4.4401 Cl  0  0  0  0  0  0  0  0  0  0  0  0
   -3.2627    8.7703   -1.2126 Cl  0  0  0  0  0  0  0  0  0  0  0  0
   -4.9351    4.1961   -5.3770 C   0  0  0  0  0  0  0  0  0  0  0  0
   -6.3046    3.6782   -4.5575 S   0  0  0  0  0  0  0  0  0  0  0  0
   -1.3370    5.0648   -5.0337 C   0  0  0  0  0  0  0  0  0  0  0  0
   -0.3039    4.6323   -5.8627 C   0  0  0  0  0  0  0  0  0  0  0  0
   -0.9790    3.9970   -7.2688 S   0  0  0  0  0  0  0  0  0  0  0  0
    1.0120    4.2114   -5.3661 C   0  0  0  0  0  0  0  0  0  0  0  0
    1.6655    4.6932   -4.2280 C   0  0  0  0  0  0  0  0  0  0  0  0
    2.6933    3.8393   -3.7781 C   0  0  0  0  0  0  0  0  0  0  0  0
    3.4758    3.9943   -2.6097 C   0  0  0  0  0  0  0  0  0  0  0  0
    3.3509    5.1736   -1.7316 C   0  0  0  0  0  0  0  0  0  0  0  0
    4.5826    6.2900   -1.4621 S   0  0  0  0  0  0  0  0  0  0  0  0
    3.6943    7.3052   -0.4606 C   0  0  0  0  0  0  0  0  0  0  0  0
    4.1910    8.6027    0.0984 C   0  0  0  0  0  0  0  0  0  0  0  0
    3.8562    9.7630   -0.8357 C   0  0  0  0  0  0  0  0  0  0  0  0
    2.4055    6.7896   -0.3309 C   0  0  0  0  0  0  0  0  0  0  0  0
    1.1334    7.5678    0.5992 Cl  0  0  0  0  0  0  0  0  0  0  0  0
    2.2155    5.5919   -1.0394 C   0  0  0  0  0  0  0  0  0  0  0  0
    0.6883    4.7130   -1.0423 Cl  0  0  0  0  0  0  0  0  0  0  0  0
    4.3963    2.9683   -2.3196 C   0  0  0  0  0  0  0  0  0  0  0  0
    4.5267    1.8301   -3.1241 C   0  0  0  0  0  0  0  0  0  0  0  0
    3.7502    1.6753   -4.2865 C   0  0  0  0  0  0  0  0  0  0  0  0
    3.7865    0.4400   -5.0927 C   0  0  0  0  0  0  0  0  0  0  0  0
    3.4021   -1.0930   -4.5136 S   0  0  0  0  0  0  0  0  0  0  0  0
    3.6345   -1.9043   -5.9681 C   0  0  0  0  0  0  0  0  0  0  0  0
    3.4036   -3.3716   -6.1719 C   0  0  0  0  0  0  0  0  0  0  0  0
    1.9319   -3.6502   -6.4627 C   0  0  0  0  0  0  0  0  0  0  0  0
    3.9893   -0.9740   -6.9433 C   0  0  0  0  0  0  0  0  0  0  0  0
    4.0878    0.3366   -6.4503 C   0  0  0  0  0  0  0  0  0  0  0  0
    4.5852    1.7010   -7.4449 Cl  0  0  0  0  0  0  0  0  0  0  0  0
    4.2709   -1.3954   -8.6298 Cl  0  0  0  0  0  0  0  0  0  0  0  0
    2.8533    2.7115   -4.5865 C   0  0  0  0  0  0  0  0  0  0  0  0
    1.7192    2.7505   -5.8178 S   0  0  0  0  0  0  0  0  0  0  0  0
    5.4607    0.9093   -2.6376 C   0  0  0  0  0  0  0  0  0  0  0  0
    6.0491    1.3061   -1.4414 C   0  0  0  0  0  0  0  0  0  0  0  0
    5.4244    2.8125   -0.9886 S   0  0  0  0  0  0  0  0  0  0  0  0
    7.0019    0.4860   -0.6831 C   0  0  0  0  0  0  0  0  0  0  0  0
    7.7295    0.8738    0.4425 C   0  0  0  0  0  0  0  0  0  0  0  0
    8.5291   -0.1681    0.9565 C   0  0  0  0  0  0  0  0  0  0  0  0
    9.3778   -0.1077    2.0798 C   0  0  0  0  0  0  0  0  0  0  0  0
    9.5240    1.1146    2.8840 C   0  0  0  0  0  0  0  0  0  0  0  0
    8.3049    1.8039    3.8163 S   0  0  0  0  0  0  0  0  0  0  0  0
    9.2392    3.0587    4.4327 C   0  0  0  0  0  0  0  0  0  0  0  0
    8.7177    4.1496    5.3204 C   0  0  0  0  0  0  0  0  0  0  0  0
    8.1154    5.2723    4.4850 C   0  0  0  0  0  0  0  0  0  0  0  0
   10.5224    2.9678    3.8932 C   0  0  0  0  0  0  0  0  0  0  0  0
   11.8099    4.1135    4.2501 Cl  0  0  0  0  0  0  0  0  0  0  0  0
   10.6834    1.8686    3.0349 C   0  0  0  0  0  0  0  0  0  0  0  0
   12.1888    1.5122    2.1978 Cl  0  0  0  0  0  0  0  0  0  0  0  0
   10.0731   -1.2840    2.4169 C   0  0  0  0  0  0  0  0  0  0  0  0
    9.9447   -2.4730    1.6889 C   0  0  0  0  0  0  0  0  0  0  0  0
    9.1112   -2.5293    0.5585 C   0  0  0  0  0  0  0  0  0  0  0  0
    8.9063   -3.7664   -0.2104 C   0  0  0  0  0  0  0  0  0  0  0  0
    9.3327   -3.9750   -1.8232 S   0  0  0  0  0  0  0  0  0  0  0  0
    8.6179   -5.4862   -2.0100 C   0  0  0  0  0  0  0  0  0  0  0  0
    8.5650   -6.2412   -3.3062 C   0  0  0  0  0  0  0  0  0  0  0  0
    7.5543   -5.6137   -4.2618 C   0  0  0  0  0  0  0  0  0  0  0  0
    8.0114   -5.8405   -0.8033 C   0  0  0  0  0  0  0  0  0  0  0  0
    8.1775   -4.8795    0.2061 C   0  0  0  0  0  0  0  0  0  0  0  0
    7.4663   -5.0177    1.8069 Cl  0  0  0  0  0  0  0  0  0  0  0  0
    7.0903   -7.3210   -0.5686 Cl  0  0  0  0  0  0  0  0  0  0  0  0
    8.4259   -1.3526    0.2175 C   0  0  0  0  0  0  0  0  0  0  0  0
    7.3537   -1.1228   -1.0484 S   0  0  0  0  0  0  0  0  0  0  0  0
   10.7217   -3.5228    2.2027 C   0  0  0  0  0  0  0  0  0  0  0  0
   11.4424   -3.1683    3.3392 C   0  0  0  0  0  0  0  0  0  0  0  0
   11.1249   -1.5505    3.7037 S   0  0  0  0  0  0  0  0  0  0  0  0
    1.8375   -7.3153   11.0720 H   0  0  0  0  0  0  0  0  0  0  0  0
    2.1817   -5.0787    9.7744 H   0  0  0  0  0  0  0  0  0  0  0  0
    2.1181    0.5134    9.2730 H   0  0  0  0  0  0  0  0  0  0  0  0
    3.1046    0.7972    7.7982 H   0  0  0  0  0  0  0  0  0  0  0  0
    4.0265   -0.7480   10.3172 H   0  0  0  0  0  0  0  0  0  0  0  0
    4.4825    0.9394    9.8758 H   0  0  0  0  0  0  0  0  0  0  0  0
    5.0289   -0.4293    8.8382 H   0  0  0  0  0  0  0  0  0  0  0  0
   -4.7573  -10.9713    9.0850 H   0  0  0  0  0  0  0  0  0  0  0  0
   -4.6306  -11.8891    7.5472 H   0  0  0  0  0  0  0  0  0  0  0  0
   -6.2858  -10.3149    6.4801 H   0  0  0  0  0  0  0  0  0  0  0  0
   -6.4207   -9.4186    8.0489 H   0  0  0  0  0  0  0  0  0  0  0  0
   -6.9647  -11.1408    7.9362 H   0  0  0  0  0  0  0  0  0  0  0  0
   -3.1154   -6.2463    5.1383 H   0  0  0  0  0  0  0  0  0  0  0  0
   -1.6700   -2.2125    2.8607 H   0  0  0  0  0  0  0  0  0  0  0  0
    1.8682    0.3916   -0.4053 H   0  0  0  0  0  0  0  0  0  0  0  0
    1.4372    2.0532    0.1058 H   0  0  0  0  0  0  0  0  0  0  0  0
    2.0918   -0.3024    1.9817 H   0  0  0  0  0  0  0  0  0  0  0  0
    1.6149    1.3572    2.5256 H   0  0  0  0  0  0  0  0  0  0  0  0
    3.1573    1.1048    1.6134 H   0  0  0  0  0  0  0  0  0  0  0  0
   -8.1239   -8.5009    0.6205 H   0  0  0  0  0  0  0  0  0  0  0  0
   -9.7605   -7.8255    0.9423 H   0  0  0  0  0  0  0  0  0  0  0  0
   -9.8903   -7.0400   -1.4507 H   0  0  0  0  0  0  0  0  0  0  0  0
   -8.2478   -7.7463   -1.7560 H   0  0  0  0  0  0  0  0  0  0  0  0
   -9.6363   -8.8257   -1.3363 H   0  0  0  0  0  0  0  0  0  0  0  0
   -7.2735   -2.7876   -1.5171 H   0  0  0  0  0  0  0  0  0  0  0  0
   -9.7346    2.3699   -4.6756 H   0  0  0  0  0  0  0  0  0  0  0  0
  -14.0551    2.0375   -2.5282 H   0  0  0  0  0  0  0  0  0  0  0  0
  -13.9087    3.2808   -3.8154 H   0  0  0  0  0  0  0  0  0  0  0  0
  -14.2999    4.3779   -1.6458 H   0  0  0  0  0  0  0  0  0  0  0  0
  -12.8514    3.5564   -0.9317 H   0  0  0  0  0  0  0  0  0  0  0  0
  -12.6421    4.7816   -2.2550 H   0  0  0  0  0  0  0  0  0  0  0  0
   -5.8995    1.8166   -7.5299 H   0  0  0  0  0  0  0  0  0  0  0  0
   -2.0348   -0.5260  -11.0219 H   0  0  0  0  0  0  0  0  0  0  0  0
   -3.0012    0.1388  -12.3794 H   0  0  0  0  0  0  0  0  0  0  0  0
   -1.3431    1.9738  -12.7023 H   0  0  0  0  0  0  0  0  0  0  0  0
   -0.3625    1.3430  -11.3130 H   0  0  0  0  0  0  0  0  0  0  0  0
   -0.5557    0.3521  -12.8110 H   0  0  0  0  0  0  0  0  0  0  0  0
   -4.9443    5.2597    0.6964 H   0  0  0  0  0  0  0  0  0  0  0  0
   -4.8757    7.0592    0.6882 H   0  0  0  0  0  0  0  0  0  0  0  0
   -2.3787    6.9628    0.9611 H   0  0  0  0  0  0  0  0  0  0  0  0
   -2.4545    5.1568    0.9077 H   0  0  0  0  0  0  0  0  0  0  0  0
   -3.2192    6.0594    2.2760 H   0  0  0  0  0  0  0  0  0  0  0  0
   -1.1699    5.3892   -4.0144 H   0  0  0  0  0  0  0  0  0  0  0  0
    1.3581    5.5941   -3.7154 H   0  0  0  0  0  0  0  0  0  0  0  0
    3.7346    8.7823    1.0959 H   0  0  0  0  0  0  0  0  0  0  0  0
    5.2931    8.5503    0.2283 H   0  0  0  0  0  0  0  0  0  0  0  0
    4.2309   10.7108   -0.4011 H   0  0  0  0  0  0  0  0  0  0  0  0
    4.3312    9.6121   -1.8312 H   0  0  0  0  0  0  0  0  0  0  0  0
    2.7542    9.8464   -0.9665 H   0  0  0  0  0  0  0  0  0  0  0  0
    3.7016   -3.9212   -5.2531 H   0  0  0  0  0  0  0  0  0  0  0  0
    4.0284   -3.7450   -7.0087 H   0  0  0  0  0  0  0  0  0  0  0  0
    1.7805   -4.7391   -6.6158 H   0  0  0  0  0  0  0  0  0  0  0  0
    1.3013   -3.3190   -5.6109 H   0  0  0  0  0  0  0  0  0  0  0  0
    1.6119   -3.1136   -7.3842 H   0  0  0  0  0  0  0  0  0  0  0  0
    5.7012   -0.0202   -3.1360 H   0  0  0  0  0  0  0  0  0  0  0  0
    7.6832    1.8674    0.8654 H   0  0  0  0  0  0  0  0  0  0  0  0
    9.5329    4.5556    5.9536 H   0  0  0  0  0  0  0  0  0  0  0  0
    7.9369    3.7341    5.9954 H   0  0  0  0  0  0  0  0  0  0  0  0
    8.8994    5.7344    3.8461 H   0  0  0  0  0  0  0  0  0  0  0  0
    7.6970    6.0507    5.1546 H   0  0  0  0  0  0  0  0  0  0  0  0
    7.3006    4.8791    3.8401 H   0  0  0  0  0  0  0  0  0  0  0  0
    9.5718   -6.2286   -3.7732 H   0  0  0  0  0  0  0  0  0  0  0  0
    8.2930   -7.3040   -3.1288 H   0  0  0  0  0  0  0  0  0  0  0  0
    7.5315   -6.1926   -5.2070 H   0  0  0  0  0  0  0  0  0  0  0  0
    6.5389   -5.6219   -3.8128 H   0  0  0  0  0  0  0  0  0  0  0  0
    7.8385   -4.5642   -4.4924 H   0  0  0  0  0  0  0  0  0  0  0  0
   10.7630   -4.5133    1.7689 H   0  0  0  0  0  0  0  0  0  0  0  0
   12.1051   -3.8193    3.8911 H   0  0  0  0  0  0  0  0  0  0  0  0
  1  2  2  0
  2  3  1  0
  3  4  2  0
  4  5  1  0
  5  6  1  0
  6  7  1  0
  7  8  1  0
  8  9  1  0
  7 10  2  0
 10 11  1  0
 10 12  1  0
 12 13  1  0
  4 14  1  0
 14 15  2  0
 15 16  1  0
 16 17  1  0
 17 18  1  0
 18 19  1  0
 19 20  1  0
 20 21  1  0
 19 22  2  0
 22 23  1  0
 23 24  1  0
 22 25  1  0
 16 26  2  0
 26 27  1  0
 15 28  1  0
 28 29  2  0
 29 30  1  0
 29 31  1  0
 31 32  2  0
 32 33  1  0
 33 34  2  0
 34 35  1  0
 35 36  1  0
 36 37  1  0
 37 38  1  0
 38 39  1  0
 37 40  2  0
 40 41  1  0
 40 42  1  0
 42 43  1  0
 34 44  1  0
 44 45  2  0
 45 46  1  0
 46 47  1  0
 47 48  1  0
 48 49  1  0
 49 50  1  0
 50 51  1  0
 49 52  2  0
 52 53  1  0
 53 54  1  0
 52 55  1  0
 46 56  2  0
 56 57  1  0
 45 58  1  0
 58 59  2  0
 59 60  1  0
 59 61  1  0
 61 62  1  0
 62 63  1  0
 63 64  2  0
 64 65  1  0
 65 66  2  0
 66 67  1  0
 67 68  2  0
 67 69  1  0
 69 70  1  0
 70 71  1  0
 66 72  1  0
 72 73  1  0
 63 74  1  0
 74 75  2  0
 75 76  1  0
 76 77  2  0
 77 78  1  0
 78 79  1  0
 79 80  1  0
 80 81  1  0
 81 82  1  0
 80 83  2  0
 83 84  1  0
 83 85  1  0
 85 86  1  0
 77 87  1  0
 87 88  2  0
 88 89  1  0
 89 90  1  0
 90 91  1  0
 91 92  1  0
 92 93  1  0
 93 94  1  0
 92 95  2  0
 95 96  1  0
 96 97  1  0
 95 98  1  0
 89 99  2  0
 99100  1  0
 88101  1  0
101102  2  0
102103  1  0
102104  1  0
104105  2  0
105106  1  0
106107  2  0
107108  1  0
108109  1  0
109110  1  0
110111  1  0
111112  1  0
110113  2  0
113114  1  0
113115  1  0
115116  1  0
107117  1  0
117118  2  0
118119  1  0
119120  1  0
120121  1  0
121122  1  0
122123  1  0
123124  1  0
122125  2  0
125126  1  0
126127  1  0
125128  1  0
119129  2  0
129130  1  0
118131  1  0
131132  2  0
132133  1  0
132134  1  0
134135  2  0
135136  1  0
136137  2  0
137138  1  0
138139  1  0
139140  1  0
140141  1  0
141142  1  0
140143  2  0
143144  1  0
143145  1  0
145146  1  0
137147  1  0
147148  2  0
148149  1  0
149150  1  0
150151  1  0
151152  1  0
152153  1  0
153154  1  0
152155  2  0
155156  1  0
156157  1  0
155158  1  0
149159  2  0
159160  1  0
148161  1  0
161162  2  0
162163  1  0
 27  1  1  0
 57 31  1  0
 73 61  2  0
100 74  1  0
130104  1  0
160134  1  0
 26  3  1  0
 56 33  1  0
 73 64  1  0
 99 76  1  0
129106  1  0
159136  1  0
 12  5  2  0
 30 14  1  0
 42 35  2  0
 60 44  1  0
 85 78  2  0
103 87  1  0
115108  2  0
133117  1  0
145138  2  0
163147  1  0
 23 17  2  0
 53 47  2  0
 96 90  2  0
126120  2  0
156150  2  0
  1164  1  0
  2165  1  0
  8166  1  0
  8167  1  0
  9168  1  0
  9169  1  0
  9170  1  0
 20171  1  0
 20172  1  0
 21173  1  0
 21174  1  0
 21175  1  0
 28176  1  0
 32177  1  0
 38178  1  0
 38179  1  0
 39180  1  0
 39181  1  0
 39182  1  0
 50183  1  0
 50184  1  0
 51185  1  0
 51186  1  0
 51187  1  0
 58188  1  0
 65189  1  0
 70190  1  0
 70191  1  0
 71192  1  0
 71193  1  0
 71194  1  0
 75195  1  0
 81196  1  0
 81197  1  0
 82198  1  0
 82199  1  0
 82200  1  0
 93201  1  0
 93202  1  0
 94203  1  0
 94204  1  0
 94205  1  0
101206  1  0
105207  1  0
111208  1  0
111209  1  0
112210  1  0
112211  1  0
112212  1  0
123213  1  0
123214  1  0
124215  1  0
124216  1  0
124217  1  0
131218  1  0
135219  1  0
141220  1  0
141221  1  0
142222  1  0
142223  1  0
142224  1  0
153225  1  0
153226  1  0
154227  1  0
154228  1  0
154229  1  0
161230  1  0
162231  1  0
M  END

