
     RDKit          3D

185205  0  0  0  0  0  0  0  0999 V2000
    5.2469   -7.8415   13.6179 C   0  0  0  0  0  0  0  0  0  0  0  0
    4.9412   -6.5480   13.2070 C   0  0  0  0  0  0  0  0  0  0  0  0
    4.0276   -6.5058   12.1388 C   0  0  0  0  0  0  0  0  0  0  0  0
    3.5444   -5.3489   11.4911 C   0  0  0  0  0  0  0  0  0  0  0  0
    3.9239   -3.9914   11.9238 C   0  0  0  0  0  0  0  0  0  0  0  0
    4.7101   -2.8611   10.9547 S   0  0  0  0  0  0  0  0  0  0  0  0
    4.7338   -1.6280   12.0967 C   0  0  0  0  0  0  0  0  0  0  0  0
    5.3574   -0.2809   11.8831 C   0  0  0  0  0  0  0  0  0  0  0  0
    6.7915   -0.2587   12.3993 C   0  0  0  0  0  0  0  0  0  0  0  0
    4.1327   -2.0904   13.2666 C   0  0  0  0  0  0  0  0  0  0  0  0
    3.9488   -1.1115   14.7164 Cl  0  0  0  0  0  0  0  0  0  0  0  0
    3.6712   -3.4127   13.1686 C   0  0  0  0  0  0  0  0  0  0  0  0
    2.7909   -4.2225   14.4592 Cl  0  0  0  0  0  0  0  0  0  0  0  0
    2.6881   -5.5471   10.3933 C   0  0  0  0  0  0  0  0  0  0  0  0
    2.3123   -6.8209    9.9483 C   0  0  0  0  0  0  0  0  0  0  0  0
    2.7632   -7.9730   10.6214 C   0  0  0  0  0  0  0  0  0  0  0  0
    2.3214   -9.3246   10.2390 C   0  0  0  0  0  0  0  0  0  0  0  0
    2.6298  -10.0641    8.7590 S   0  0  0  0  0  0  0  0  0  0  0  0
    1.8035  -11.4909    9.0983 C   0  0  0  0  0  0  0  0  0  0  0  0
    1.6263  -12.6216    8.1337 C   0  0  0  0  0  0  0  0  0  0  0  0
    0.3560  -12.4361    7.3110 C   0  0  0  0  0  0  0  0  0  0  0  0
    1.2536  -11.3980   10.3773 C   0  0  0  0  0  0  0  0  0  0  0  0
    1.5476  -10.1851   11.0177 C   0  0  0  0  0  0  0  0  0  0  0  0
    0.9284   -9.7622   12.6097 Cl  0  0  0  0  0  0  0  0  0  0  0  0
    0.2603  -12.6548   11.1003 Cl  0  0  0  0  0  0  0  0  0  0  0  0
    3.6302   -7.7760   11.7112 C   0  0  0  0  0  0  0  0  0  0  0  0
    4.3988   -8.9369   12.6549 S   0  0  0  0  0  0  0  0  0  0  0  0
    1.4501   -6.7872    8.8394 C   0  0  0  0  0  0  0  0  0  0  0  0
    1.1351   -5.4917    8.4396 C   0  0  0  0  0  0  0  0  0  0  0  0
    1.9257   -4.3870    9.4423 S   0  0  0  0  0  0  0  0  0  0  0  0
    0.3048   -5.1415    7.2818 C   0  0  0  0  0  0  0  0  0  0  0  0
    0.2980   -5.9380    5.7834 S   0  0  0  0  0  0  0  0  0  0  0  0
   -0.7454   -4.8765    4.9711 C   0  0  0  0  0  0  0  0  0  0  0  0
   -1.0739   -3.8750    5.8743 C   0  0  0  0  0  0  0  0  0  0  0  0
   -1.8000   -2.6948    5.7132 C   0  0  0  0  0  0  0  0  0  0  0  0
   -1.7887   -1.9267    6.8832 C   0  0  0  0  0  0  0  0  0  0  0  0
   -2.4232   -0.6118    7.0405 C   0  0  0  0  0  0  0  0  0  0  0  0
   -3.1027   -0.1221    6.0964 O   0  0  0  0  0  0  0  0  0  0  0  0
   -2.2564    0.0939    8.2354 O   0  0  0  0  0  0  0  0  0  0  0  0
   -2.7876    1.3982    8.4370 C   0  0  0  0  0  0  0  0  0  0  0  0
   -2.4042    1.8967    9.8214 C   0  0  0  0  0  0  0  0  0  0  0  0
   -0.8707   -2.7050    8.0870 S   0  0  0  0  0  0  0  0  0  0  0  0
   -0.4973   -4.0237    7.1171 C   0  0  0  0  0  0  0  0  0  0  0  0
   -0.9820   -4.8478    3.5261 C   0  0  0  0  0  0  0  0  0  0  0  0
    0.2040   -4.6442    2.3427 S   0  0  0  0  0  0  0  0  0  0  0  0
   -0.8218   -4.4019    1.0099 C   0  0  0  0  0  0  0  0  0  0  0  0
   -2.1218   -4.4853    1.5104 C   0  0  0  0  0  0  0  0  0  0  0  0
   -3.3718   -4.3804    0.8948 C   0  0  0  0  0  0  0  0  0  0  0  0
   -4.4144   -4.5257    1.8183 C   0  0  0  0  0  0  0  0  0  0  0  0
   -5.8429   -4.5175    1.4845 C   0  0  0  0  0  0  0  0  0  0  0  0
   -6.2086   -4.3504    0.2892 O   0  0  0  0  0  0  0  0  0  0  0  0
   -6.7893   -4.7041    2.4965 O   0  0  0  0  0  0  0  0  0  0  0  0
   -8.1849   -4.8625    2.2403 C   0  0  0  0  0  0  0  0  0  0  0  0
   -8.4752   -6.2709    1.7346 C   0  0  0  0  0  0  0  0  0  0  0  0
   -3.7885   -4.7779    3.3802 S   0  0  0  0  0  0  0  0  0  0  0  0
   -2.1914   -4.7125    2.8710 C   0  0  0  0  0  0  0  0  0  0  0  0
   -0.3926   -3.9775   -0.3383 C   0  0  0  0  0  0  0  0  0  0  0  0
   -1.3355   -3.1717   -1.4905 S   0  0  0  0  0  0  0  0  0  0  0  0
   -0.1159   -2.7991   -2.6068 C   0  0  0  0  0  0  0  0  0  0  0  0
    1.0625   -3.3173   -2.0690 C   0  0  0  0  0  0  0  0  0  0  0  0
    2.3847   -3.3017   -2.5277 C   0  0  0  0  0  0  0  0  0  0  0  0
    3.2537   -3.9070   -1.6120 C   0  0  0  0  0  0  0  0  0  0  0  0
    4.7089   -4.0204   -1.7625 C   0  0  0  0  0  0  0  0  0  0  0  0
    5.2691   -3.6064   -2.8134 O   0  0  0  0  0  0  0  0  0  0  0  0
    5.4658   -4.5693   -0.7207 O   0  0  0  0  0  0  0  0  0  0  0  0
    6.8825   -4.7230   -0.7711 C   0  0  0  0  0  0  0  0  0  0  0  0
    7.2638   -5.9128   -1.6427 C   0  0  0  0  0  0  0  0  0  0  0  0
    2.3839   -4.4699   -0.2657 S   0  0  0  0  0  0  0  0  0  0  0  0
    0.9004   -3.9427   -0.8454 C   0  0  0  0  0  0  0  0  0  0  0  0
   -0.2892   -1.8914   -3.7551 C   0  0  0  0  0  0  0  0  0  0  0  0
    0.6618   -0.9889   -4.2311 C   0  0  0  0  0  0  0  0  0  0  0  0
    0.1415   -0.0837   -5.1682 C   0  0  0  0  0  0  0  0  0  0  0  0
    0.8338    0.9949   -5.7492 C   0  0  0  0  0  0  0  0  0  0  0  0
    2.2588    1.2434   -5.4827 C   0  0  0  0  0  0  0  0  0  0  0  0
    2.8886    1.7699   -4.0145 S   0  0  0  0  0  0  0  0  0  0  0  0
    4.4895    1.8462   -4.5286 C   0  0  0  0  0  0  0  0  0  0  0  0
    5.6315    2.3363   -3.6902 C   0  0  0  0  0  0  0  0  0  0  0  0
    5.9396    3.7992   -3.9931 C   0  0  0  0  0  0  0  0  0  0  0  0
    4.5460    1.4753   -5.8722 C   0  0  0  0  0  0  0  0  0  0  0  0
    6.0335    1.4375   -6.8100 Cl  0  0  0  0  0  0  0  0  0  0  0  0
    3.2942    1.1382   -6.4064 C   0  0  0  0  0  0  0  0  0  0  0  0
    3.0559    0.6201   -8.0711 Cl  0  0  0  0  0  0  0  0  0  0  0  0
    0.0942    1.8583   -6.5720 C   0  0  0  0  0  0  0  0  0  0  0  0
   -1.2644    1.6625   -6.8467 C   0  0  0  0  0  0  0  0  0  0  0  0
   -1.9567    0.5716   -6.2767 C   0  0  0  0  0  0  0  0  0  0  0  0
   -3.4036    0.3734   -6.4735 C   0  0  0  0  0  0  0  0  0  0  0  0
   -4.0935   -0.9689   -7.2168 S   0  0  0  0  0  0  0  0  0  0  0  0
   -5.6916   -0.4697   -7.0426 C   0  0  0  0  0  0  0  0  0  0  0  0
   -6.8800   -1.2144   -7.5725 C   0  0  0  0  0  0  0  0  0  0  0  0
   -7.2673   -0.7036   -8.9565 C   0  0  0  0  0  0  0  0  0  0  0  0
   -5.7040    0.7719   -6.4056 C   0  0  0  0  0  0  0  0  0  0  0  0
   -4.4242    1.2381   -6.0739 C   0  0  0  0  0  0  0  0  0  0  0  0
   -4.1442    2.7359   -5.1943 Cl  0  0  0  0  0  0  0  0  0  0  0  0
   -7.1764    1.6638   -6.0454 Cl  0  0  0  0  0  0  0  0  0  0  0  0
   -1.2161   -0.2835   -5.4397 C   0  0  0  0  0  0  0  0  0  0  0  0
   -1.7734   -1.5602   -4.4944 S   0  0  0  0  0  0  0  0  0  0  0  0
   -1.8194    2.6888   -7.6338 C   0  0  0  0  0  0  0  0  0  0  0  0
   -0.9087    3.7049   -7.9123 C   0  0  0  0  0  0  0  0  0  0  0  0
    0.5821    3.3296   -7.2196 S   0  0  0  0  0  0  0  0  0  0  0  0
   -1.2747    5.0417   -8.3744 C   0  0  0  0  0  0  0  0  0  0  0  0
   -1.1367    6.1899   -7.6065 C   0  0  0  0  0  0  0  0  0  0  0  0
   -1.6459    7.3323   -8.2386 C   0  0  0  0  0  0  0  0  0  0  0  0
   -1.6605    8.6353   -7.7033 C   0  0  0  0  0  0  0  0  0  0  0  0
   -1.2014    8.9150   -6.3324 C   0  0  0  0  0  0  0  0  0  0  0  0
    0.1316    9.8617   -5.9372 S   0  0  0  0  0  0  0  0  0  0  0  0
    0.0101    9.6490   -4.2717 C   0  0  0  0  0  0  0  0  0  0  0  0
    0.9126   10.2916   -3.2618 C   0  0  0  0  0  0  0  0  0  0  0  0
    0.3791   11.6573   -2.8473 C   0  0  0  0  0  0  0  0  0  0  0  0
   -1.0995    8.8481   -4.0011 C   0  0  0  0  0  0  0  0  0  0  0  0
   -1.6137    8.4160   -2.3760 Cl  0  0  0  0  0  0  0  0  0  0  0  0
   -1.7725    8.4281   -5.1577 C   0  0  0  0  0  0  0  0  0  0  0  0
   -3.2242    7.4347   -5.1232 Cl  0  0  0  0  0  0  0  0  0  0  0  0
   -2.1725    9.6517   -8.5225 C   0  0  0  0  0  0  0  0  0  0  0  0
   -2.6621    9.4067   -9.8098 C   0  0  0  0  0  0  0  0  0  0  0  0
   -2.6639    8.0994  -10.3409 C   0  0  0  0  0  0  0  0  0  0  0  0
   -3.1093    7.8269  -11.7179 C   0  0  0  0  0  0  0  0  0  0  0  0
   -2.3976    8.4872  -13.0929 S   0  0  0  0  0  0  0  0  0  0  0  0
   -3.4317    7.7574  -14.2004 C   0  0  0  0  0  0  0  0  0  0  0  0
   -3.2936    7.8679  -15.6872 C   0  0  0  0  0  0  0  0  0  0  0  0
   -2.3342    6.8099  -16.2186 C   0  0  0  0  0  0  0  0  0  0  0  0
   -4.3406    6.9577  -13.5033 C   0  0  0  0  0  0  0  0  0  0  0  0
   -4.1698    7.0097  -12.1092 C   0  0  0  0  0  0  0  0  0  0  0  0
   -5.2223    6.1740  -10.9762 Cl  0  0  0  0  0  0  0  0  0  0  0  0
   -5.5893    5.9973  -14.2873 Cl  0  0  0  0  0  0  0  0  0  0  0  0
   -2.1543    7.0767   -9.5163 C   0  0  0  0  0  0  0  0  0  0  0  0
   -2.0073    5.4274   -9.8470 S   0  0  0  0  0  0  0  0  0  0  0  0
   -3.1564   10.5641  -10.4374 C   0  0  0  0  0  0  0  0  0  0  0  0
   -3.0500   11.7045   -9.6452 C   0  0  0  0  0  0  0  0  0  0  0  0
   -2.3532   11.2848   -8.1671 S   0  0  0  0  0  0  0  0  0  0  0  0
    5.9283   -8.1006   14.4167 H   0  0  0  0  0  0  0  0  0  0  0  0
    5.3812   -5.6729   13.6648 H   0  0  0  0  0  0  0  0  0  0  0  0
    4.7601    0.4974   12.4049 H   0  0  0  0  0  0  0  0  0  0  0  0
    5.3552   -0.0405   10.7992 H   0  0  0  0  0  0  0  0  0  0  0  0
    7.3959   -1.0391   11.8916 H   0  0  0  0  0  0  0  0  0  0  0  0
    7.2447    0.7338   12.1944 H   0  0  0  0  0  0  0  0  0  0  0  0
    6.8086   -0.4386   13.4947 H   0  0  0  0  0  0  0  0  0  0  0  0
    1.5761  -13.5877    8.6820 H   0  0  0  0  0  0  0  0  0  0  0  0
    2.5031  -12.6657    7.4525 H   0  0  0  0  0  0  0  0  0  0  0  0
   -0.5347  -12.3984    7.9741 H   0  0  0  0  0  0  0  0  0  0  0  0
    0.4123  -11.4968    6.7199 H   0  0  0  0  0  0  0  0  0  0  0  0
    0.2401  -13.2891    6.6103 H   0  0  0  0  0  0  0  0  0  0  0  0
    1.0531   -7.6665    8.3523 H   0  0  0  0  0  0  0  0  0  0  0  0
   -2.2854   -2.4004    4.7927 H   0  0  0  0  0  0  0  0  0  0  0  0
   -3.8966    1.3708    8.3451 H   0  0  0  0  0  0  0  0  0  0  0  0
   -2.3738    2.0928    7.6714 H   0  0  0  0  0  0  0  0  0  0  0  0
   -2.7896    2.9285    9.9664 H   0  0  0  0  0  0  0  0  0  0  0  0
   -1.2991    1.9058    9.9276 H   0  0  0  0  0  0  0  0  0  0  0  0
   -2.8424    1.2348   10.5976 H   0  0  0  0  0  0  0  0  0  0  0  0
   -3.5271   -4.2345   -0.1636 H   0  0  0  0  0  0  0  0  0  0  0  0
   -8.5328   -4.1074    1.5035 H   0  0  0  0  0  0  0  0  0  0  0  0
   -8.7405   -4.7027    3.1881 H   0  0  0  0  0  0  0  0  0  0  0  0
   -9.5675   -6.3869    1.5633 H   0  0  0  0  0  0  0  0  0  0  0  0
   -7.9407   -6.4570    0.7800 H   0  0  0  0  0  0  0  0  0  0  0  0
   -8.1470   -7.0183    2.4872 H   0  0  0  0  0  0  0  0  0  0  0  0
    2.7060   -2.8874   -3.4720 H   0  0  0  0  0  0  0  0  0  0  0  0
    7.3602   -3.7952   -1.1523 H   0  0  0  0  0  0  0  0  0  0  0  0
    7.2539   -4.9022    0.2598 H   0  0  0  0  0  0  0  0  0  0  0  0
    6.7646   -6.8327   -1.2679 H   0  0  0  0  0  0  0  0  0  0  0  0
    6.9560   -5.7353   -2.6944 H   0  0  0  0  0  0  0  0  0  0  0  0
    8.3631   -6.0610   -1.6120 H   0  0  0  0  0  0  0  0  0  0  0  0
    1.6677   -0.9223   -3.8475 H   0  0  0  0  0  0  0  0  0  0  0  0
    6.5325    1.7172   -3.8847 H   0  0  0  0  0  0  0  0  0  0  0  0
    5.3724    2.2357   -2.6153 H   0  0  0  0  0  0  0  0  0  0  0  0
    6.7828    4.1418   -3.3568 H   0  0  0  0  0  0  0  0  0  0  0  0
    5.0515    4.4305   -3.7804 H   0  0  0  0  0  0  0  0  0  0  0  0
    6.2260    3.9222   -5.0587 H   0  0  0  0  0  0  0  0  0  0  0  0
   -6.6376   -2.2971   -7.6384 H   0  0  0  0  0  0  0  0  0  0  0  0
   -7.7386   -1.0983   -6.8780 H   0  0  0  0  0  0  0  0  0  0  0  0
   -6.4191   -0.8266   -9.6614 H   0  0  0  0  0  0  0  0  0  0  0  0
   -8.1361   -1.2782   -9.3383 H   0  0  0  0  0  0  0  0  0  0  0  0
   -7.5469    0.3699   -8.9054 H   0  0  0  0  0  0  0  0  0  0  0  0
   -2.8648    2.7411   -7.9121 H   0  0  0  0  0  0  0  0  0  0  0  0
   -0.7019    6.1883   -6.6156 H   0  0  0  0  0  0  0  0  0  0  0  0
    1.9280   10.4124   -3.6958 H   0  0  0  0  0  0  0  0  0  0  0  0
    1.0058    9.6404   -2.3660 H   0  0  0  0  0  0  0  0  0  0  0  0
    1.0082   12.0662   -2.0300 H   0  0  0  0  0  0  0  0  0  0  0  0
    0.4124   12.3568   -3.7095 H   0  0  0  0  0  0  0  0  0  0  0  0
   -0.6667   11.5727   -2.4839 H   0  0  0  0  0  0  0  0  0  0  0  0
   -2.9049    8.8759  -15.9461 H   0  0  0  0  0  0  0  0  0  0  0  0
   -4.2852    7.7528  -16.1741 H   0  0  0  0  0  0  0  0  0  0  0  0
   -1.3285    6.9449  -15.7670 H   0  0  0  0  0  0  0  0  0  0  0  0
   -2.2445    6.9061  -17.3206 H   0  0  0  0  0  0  0  0  0  0  0  0
   -2.7087    5.7932  -15.9726 H   0  0  0  0  0  0  0  0  0  0  0  0
   -3.5951   10.5799  -11.4264 H   0  0  0  0  0  0  0  0  0  0  0  0
   -3.3731   12.6961   -9.9295 H   0  0  0  0  0  0  0  0  0  0  0  0
  1  2  2  0
  2  3  1  0
  3  4  2  0
  4  5  1  0
  5  6  1  0
  6  7  1  0
  7  8  1  0
  8  9  1  0
  7 10  2  0
 10 11  1  0
 10 12  1  0
 12 13  1  0
  4 14  1  0
 14 15  2  0
 15 16  1  0
 16 17  1  0
 17 18  1  0
 18 19  1  0
 19 20  1  0
 20 21  1  0
 19 22  2  0
 22 23  1  0
 23 24  1  0
 22 25  1  0
 16 26  2  0
 26 27  1  0
 15 28  1  0
 28 29  2  0
 29 30  1  0
 29 31  1  0
 31 32  1  0
 32 33  1  0
 33 34  2  0
 34 35  1  0
 35 36  2  0
 36 37  1  0
 37 38  2  0
 37 39  1  0
 39 40  1  0
 40 41  1  0
 36 42  1  0
 42 43  1  0
 33 44  1  0
 44 45  1  0
 45 46  1  0
 46 47  2  0
 47 48  1  0
 48 49  2  0
 49 50  1  0
 50 51  2  0
 50 52  1  0
 52 53  1  0
 53 54  1  0
 49 55  1  0
 55 56  1  0
 46 57  1  0
 57 58  1  0
 58 59  1  0
 59 60  2  0
 60 61  1  0
 61 62  2  0
 62 63  1  0
 63 64  2  0
 63 65  1  0
 65 66  1  0
 66 67  1  0
 62 68  1  0
 68 69  1  0
 59 70  1  0
 70 71  2  0
 71 72  1  0
 72 73  2  0
 73 74  1  0
 74 75  1  0
 75 76  1  0
 76 77  1  0
 77 78  1  0
 76 79  2  0
 79 80  1  0
 79 81  1  0
 81 82  1  0
 73 83  1  0
 83 84  2  0
 84 85  1  0
 85 86  1  0
 86 87  1  0
 87 88  1  0
 88 89  1  0
 89 90  1  0
 88 91  2  0
 91 92  1  0
 92 93  1  0
 91 94  1  0
 85 95  2  0
 95 96  1  0
 84 97  1  0
 97 98  2  0
 98 99  1  0
 98100  1  0
100101  2  0
101102  1  0
102103  2  0
103104  1  0
104105  1  0
105106  1  0
106107  1  0
107108  1  0
106109  2  0
109110  1  0
109111  1  0
111112  1  0
103113  1  0
113114  2  0
114115  1  0
115116  1  0
116117  1  0
117118  1  0
118119  1  0
119120  1  0
118121  2  0
121122  1  0
122123  1  0
121124  1  0
115125  2  0
125126  1  0
114127  1  0
127128  2  0
128129  1  0
 27  1  1  0
 43 31  2  0
 56 44  2  0
 69 57  2  0
 96 70  1  0
126100  1  0
 26  3  1  0
 43 34  1  0
 56 47  1  0
 69 60  1  0
 95 72  1  0
125102  1  0
 12  5  2  0
 30 14  1  0
 81 74  2  0
 99 83  1  0
111104  2  0
129113  1  0
 23 17  2  0
 92 86  2  0
122116  2  0
  1130  1  0
  2131  1  0
  8132  1  0
  8133  1  0
  9134  1  0
  9135  1  0
  9136  1  0
 20137  1  0
 20138  1  0
 21139  1  0
 21140  1  0
 21141  1  0
 28142  1  0
 35143  1  0
 40144  1  0
 40145  1  0
 41146  1  0
 41147  1  0
 41148  1  0
 48149  1  0
 53150  1  0
 53151  1  0
 54152  1  0
 54153  1  0
 54154  1  0
 61155  1  0
 66156  1  0
 66157  1  0
 67158  1  0
 67159  1  0
 67160  1  0
 71161  1  0
 77162  1  0
 77163  1  0
 78164  1  0
 78165  1  0
 78166  1  0
 89167  1  0
 89168  1  0
 90169  1  0
 90170  1  0
 90171  1  0
 97172  1  0
101173  1  0
107174  1  0
107175  1  0
108176  1  0
108177  1  0
108178  1  0
119179  1  0
119180  1  0
120181  1  0
120182  1  0
120183  1  0
127184  1  0
128185  1  0
M  END

