
     RDKit          3D

120135  0  0  0  0  0  0  0  0999 V2000
  -11.5589   -9.5283   -7.0622 C   0  0  0  0  0  0  0  0  0  0  0  0
  -10.6662  -10.2373   -5.7796 S   0  0  0  0  0  0  0  0  0  0  0  0
   -9.6021   -8.9503   -5.7097 C   0  0  0  0  0  0  0  0  0  0  0  0
   -8.5185   -8.4819   -5.0225 C   0  0  0  0  0  0  0  0  0  0  0  0
   -8.2236   -7.2725   -5.5574 C   0  0  0  0  0  0  0  0  0  0  0  0
   -9.0627   -6.9390   -6.5723 N   0  0  0  0  0  0  0  0  0  0  0  0
   -9.1241   -5.6861   -7.3218 C   0  0  0  0  0  0  0  0  0  0  0  0
   -9.9485   -4.6561   -6.5583 C   0  0  0  0  0  0  0  0  0  0  0  0
   -9.9077   -8.0007   -6.6273 C   0  0  0  0  0  0  0  0  0  0  0  0
  -11.0152   -8.2824   -7.4182 C   0  0  0  0  0  0  0  0  0  0  0  0
   -7.1521   -6.6123   -4.9680 C   0  0  0  0  0  0  0  0  0  0  0  0
   -6.6185   -7.3972   -3.9269 C   0  0  0  0  0  0  0  0  0  0  0  0
   -7.4910   -8.8702   -3.7618 S   0  0  0  0  0  0  0  0  0  0  0  0
   -5.4577   -7.0204   -3.1037 C   0  0  0  0  0  0  0  0  0  0  0  0
   -4.5796   -5.5548   -3.2764 S   0  0  0  0  0  0  0  0  0  0  0  0
   -3.5123   -5.9670   -2.0615 C   0  0  0  0  0  0  0  0  0  0  0  0
   -2.5093   -5.4395   -1.3032 C   0  0  0  0  0  0  0  0  0  0  0  0
   -2.2532   -6.3451   -0.3272 C   0  0  0  0  0  0  0  0  0  0  0  0
   -3.0424   -7.4465   -0.4271 N   0  0  0  0  0  0  0  0  0  0  0  0
   -3.1835   -8.5455    0.5248 C   0  0  0  0  0  0  0  0  0  0  0  0
   -4.1486   -8.1624    1.6397 C   0  0  0  0  0  0  0  0  0  0  0  0
   -3.8161   -7.1669   -1.5087 C   0  0  0  0  0  0  0  0  0  0  0  0
   -4.9201   -7.8033   -2.0628 C   0  0  0  0  0  0  0  0  0  0  0  0
   -1.3646   -5.9170    0.6545 C   0  0  0  0  0  0  0  0  0  0  0  0
   -0.9294   -4.6046    0.3744 C   0  0  0  0  0  0  0  0  0  0  0  0
   -1.6828   -4.0116   -1.0519 S   0  0  0  0  0  0  0  0  0  0  0  0
   -0.0178   -3.7912    1.2000 C   0  0  0  0  0  0  0  0  0  0  0  0
    0.3674   -2.1674    0.9129 S   0  0  0  0  0  0  0  0  0  0  0  0
    1.3941   -1.9191    2.2350 C   0  0  0  0  0  0  0  0  0  0  0  0
    1.4251   -3.1220    2.9332 C   0  0  0  0  0  0  0  0  0  0  0  0
    2.0323   -3.4782    4.1394 C   0  0  0  0  0  0  0  0  0  0  0  0
    1.7547   -4.8059    4.4810 C   0  0  0  0  0  0  0  0  0  0  0  0
    2.2751   -5.4952    5.6668 C   0  0  0  0  0  0  0  0  0  0  0  0
    1.8788   -6.6642    5.9388 O   0  0  0  0  0  0  0  0  0  0  0  0
    3.2248   -4.8587    6.4723 O   0  0  0  0  0  0  0  0  0  0  0  0
    3.8108   -5.4845    7.6116 C   0  0  0  0  0  0  0  0  0  0  0  0
    4.9015   -4.5917    8.1751 C   0  0  0  0  0  0  0  0  0  0  0  0
    0.7429   -5.5101    3.3124 S   0  0  0  0  0  0  0  0  0  0  0  0
    0.6666   -4.1280    2.3623 C   0  0  0  0  0  0  0  0  0  0  0  0
    2.0393   -0.6433    2.5674 C   0  0  0  0  0  0  0  0  0  0  0  0
    1.3735    0.8838    2.2780 S   0  0  0  0  0  0  0  0  0  0  0  0
    2.7005    1.8185    2.7605 C   0  0  0  0  0  0  0  0  0  0  0  0
    3.6909    0.9194    3.1469 C   0  0  0  0  0  0  0  0  0  0  0  0
    4.9967    1.1178    3.6016 C   0  0  0  0  0  0  0  0  0  0  0  0
    5.6592   -0.0981    3.8045 C   0  0  0  0  0  0  0  0  0  0  0  0
    7.0444   -0.2417    4.2710 C   0  0  0  0  0  0  0  0  0  0  0  0
    7.7324    0.7843    4.5240 O   0  0  0  0  0  0  0  0  0  0  0  0
    7.5886   -1.5175    4.4383 O   0  0  0  0  0  0  0  0  0  0  0  0
    8.9310   -1.7268    4.8620 C   0  0  0  0  0  0  0  0  0  0  0  0
    9.1952   -3.2182    5.0030 C   0  0  0  0  0  0  0  0  0  0  0  0
    4.6266   -1.3942    3.4236 S   0  0  0  0  0  0  0  0  0  0  0  0
    3.3257   -0.4087    3.0326 C   0  0  0  0  0  0  0  0  0  0  0  0
    2.7804    3.2823    2.6536 C   0  0  0  0  0  0  0  0  0  0  0  0
    1.4072    4.3000    2.6318 S   0  0  0  0  0  0  0  0  0  0  0  0
    2.3148    5.6642    2.3046 C   0  0  0  0  0  0  0  0  0  0  0  0
    2.1053    6.8507    1.6655 C   0  0  0  0  0  0  0  0  0  0  0  0
    3.2927    7.2067    1.1092 C   0  0  0  0  0  0  0  0  0  0  0  0
    4.2695    6.3009    1.3778 N   0  0  0  0  0  0  0  0  0  0  0  0
    5.5654    6.1716    0.7085 C   0  0  0  0  0  0  0  0  0  0  0  0
    5.4239    5.4064   -0.6047 C   0  0  0  0  0  0  0  0  0  0  0  0
    3.6258    5.3532    2.1105 C   0  0  0  0  0  0  0  0  0  0  0  0
    3.9335    4.0075    2.3044 C   0  0  0  0  0  0  0  0  0  0  0  0
    3.1956    8.1564    0.0945 C   0  0  0  0  0  0  0  0  0  0  0  0
    1.8517    8.5105   -0.1201 C   0  0  0  0  0  0  0  0  0  0  0  0
    0.8246    7.5953    0.8957 S   0  0  0  0  0  0  0  0  0  0  0  0
    1.3715    9.4439   -1.1509 C   0  0  0  0  0  0  0  0  0  0  0  0
    2.3780   10.4990   -2.0605 S   0  0  0  0  0  0  0  0  0  0  0  0
    1.0720   11.1420   -2.8846 C   0  0  0  0  0  0  0  0  0  0  0  0
    0.7533   12.0234   -3.8779 C   0  0  0  0  0  0  0  0  0  0  0  0
   -0.5879   11.9365   -4.0486 C   0  0  0  0  0  0  0  0  0  0  0  0
   -1.1591   11.0439   -3.1989 N   0  0  0  0  0  0  0  0  0  0  0  0
   -2.5431   10.5810   -3.1683 C   0  0  0  0  0  0  0  0  0  0  0  0
   -2.7355    9.4349   -4.1538 C   0  0  0  0  0  0  0  0  0  0  0  0
   -0.0949   10.5680   -2.5019 C   0  0  0  0  0  0  0  0  0  0  0  0
    0.0216    9.5968   -1.5170 C   0  0  0  0  0  0  0  0  0  0  0  0
   -1.1019   12.7234   -5.0704 C   0  0  0  0  0  0  0  0  0  0  0  0
   -0.0676   13.4448   -5.6917 C   0  0  0  0  0  0  0  0  0  0  0  0
    1.4472   13.0776   -4.9755 S   0  0  0  0  0  0  0  0  0  0  0  0
  -12.4246   -9.9771   -7.5319 H   0  0  0  0  0  0  0  0  0  0  0  0
   -8.0959   -5.2931   -7.4811 H   0  0  0  0  0  0  0  0  0  0  0  0
   -9.5822   -5.8645   -8.3175 H   0  0  0  0  0  0  0  0  0  0  0  0
  -10.9577   -5.0650   -6.3371 H   0  0  0  0  0  0  0  0  0  0  0  0
   -9.4388   -4.3941   -5.6087 H   0  0  0  0  0  0  0  0  0  0  0  0
  -10.0541   -3.7363   -7.1701 H   0  0  0  0  0  0  0  0  0  0  0  0
  -11.4037   -7.6411   -8.1970 H   0  0  0  0  0  0  0  0  0  0  0  0
   -6.7862   -5.6415   -5.2710 H   0  0  0  0  0  0  0  0  0  0  0  0
   -2.1926   -8.7932    0.9625 H   0  0  0  0  0  0  0  0  0  0  0  0
   -3.5614   -9.4521    0.0011 H   0  0  0  0  0  0  0  0  0  0  0  0
   -4.2738   -9.0174    2.3379 H   0  0  0  0  0  0  0  0  0  0  0  0
   -3.7505   -7.2925    2.2057 H   0  0  0  0  0  0  0  0  0  0  0  0
   -5.1389   -7.8975    1.2100 H   0  0  0  0  0  0  0  0  0  0  0  0
   -5.3170   -8.7503   -1.7245 H   0  0  0  0  0  0  0  0  0  0  0  0
   -1.0926   -6.5031    1.5193 H   0  0  0  0  0  0  0  0  0  0  0  0
    2.6116   -2.8067    4.7545 H   0  0  0  0  0  0  0  0  0  0  0  0
    4.2574   -6.4615    7.3199 H   0  0  0  0  0  0  0  0  0  0  0  0
    3.0321   -5.6603    8.3868 H   0  0  0  0  0  0  0  0  0  0  0  0
    5.6910   -4.4262    7.4098 H   0  0  0  0  0  0  0  0  0  0  0  0
    5.3605   -5.0734    9.0664 H   0  0  0  0  0  0  0  0  0  0  0  0
    4.4736   -3.6108    8.4750 H   0  0  0  0  0  0  0  0  0  0  0  0
    5.4434    2.0872    3.7841 H   0  0  0  0  0  0  0  0  0  0  0  0
    9.6347   -1.2990    4.1131 H   0  0  0  0  0  0  0  0  0  0  0  0
    9.0981   -1.2317    5.8446 H   0  0  0  0  0  0  0  0  0  0  0  0
    9.0089   -3.7297    4.0350 H   0  0  0  0  0  0  0  0  0  0  0  0
    8.5261   -3.6479    5.7780 H   0  0  0  0  0  0  0  0  0  0  0  0
   10.2513   -3.3852    5.3043 H   0  0  0  0  0  0  0  0  0  0  0  0
    5.9862    7.1791    0.5045 H   0  0  0  0  0  0  0  0  0  0  0  0
    6.2759    5.6354    1.3740 H   0  0  0  0  0  0  0  0  0  0  0  0
    4.7462    5.9519   -1.2966 H   0  0  0  0  0  0  0  0  0  0  0  0
    5.0117    4.3924   -0.4175 H   0  0  0  0  0  0  0  0  0  0  0  0
    6.4201    5.3023   -1.0867 H   0  0  0  0  0  0  0  0  0  0  0  0
    4.8894    3.5637    2.0597 H   0  0  0  0  0  0  0  0  0  0  0  0
    4.0241    8.4884   -0.5144 H   0  0  0  0  0  0  0  0  0  0  0  0
   -2.8037   10.2353   -2.1439 H   0  0  0  0  0  0  0  0  0  0  0  0
   -3.2269   11.4151   -3.4334 H   0  0  0  0  0  0  0  0  0  0  0  0
   -2.4997    9.7769   -5.1860 H   0  0  0  0  0  0  0  0  0  0  0  0
   -3.7876    9.0846   -4.1219 H   0  0  0  0  0  0  0  0  0  0  0  0
   -2.0667    8.5855   -3.8894 H   0  0  0  0  0  0  0  0  0  0  0  0
   -0.8061    9.0362   -1.1050 H   0  0  0  0  0  0  0  0  0  0  0  0
   -2.1446   12.7713   -5.3536 H   0  0  0  0  0  0  0  0  0  0  0  0
   -0.2076   14.1283   -6.5186 H   0  0  0  0  0  0  0  0  0  0  0  0
  1  2  1  0
  2  3  1  0
  3  4  1  0
  4  5  2  0
  5  6  1  0
  6  7  1  0
  7  8  1  0
  6  9  1  0
  9 10  1  0
  5 11  1  0
 11 12  2  0
 12 13  1  0
 12 14  1  0
 14 15  1  0
 15 16  1  0
 16 17  1  0
 17 18  2  0
 18 19  1  0
 19 20  1  0
 20 21  1  0
 19 22  1  0
 22 23  1  0
 18 24  1  0
 24 25  2  0
 25 26  1  0
 25 27  1  0
 27 28  1  0
 28 29  1  0
 29 30  2  0
 30 31  1  0
 31 32  2  0
 32 33  1  0
 33 34  2  0
 33 35  1  0
 35 36  1  0
 36 37  1  0
 32 38  1  0
 38 39  1  0
 29 40  1  0
 40 41  1  0
 41 42  1  0
 42 43  2  0
 43 44  1  0
 44 45  2  0
 45 46  1  0
 46 47  2  0
 46 48  1  0
 48 49  1  0
 49 50  1  0
 45 51  1  0
 51 52  1  0
 42 53  1  0
 53 54  1  0
 54 55  1  0
 55 56  1  0
 56 57  2  0
 57 58  1  0
 58 59  1  0
 59 60  1  0
 58 61  1  0
 61 62  1  0
 57 63  1  0
 63 64  2  0
 64 65  1  0
 64 66  1  0
 66 67  1  0
 67 68  1  0
 68 69  1  0
 69 70  2  0
 70 71  1  0
 71 72  1  0
 72 73  1  0
 71 74  1  0
 74 75  1  0
 70 76  1  0
 76 77  2  0
 77 78  1  0
 10  1  2  0
 23 14  2  0
 39 27  2  0
 52 40  2  0
 62 53  2  0
 75 66  2  0
  9  3  2  0
 22 16  2  0
 39 30  1  0
 52 43  1  0
 61 55  2  0
 74 68  2  0
 13  4  1  0
 26 17  1  0
 65 56  1  0
 78 69  1  0
  1 79  1  0
  7 80  1  0
  7 81  1  0
  8 82  1  0
  8 83  1  0
  8 84  1  0
 10 85  1  0
 11 86  1  0
 20 87  1  0
 20 88  1  0
 21 89  1  0
 21 90  1  0
 21 91  1  0
 23 92  1  0
 24 93  1  0
 31 94  1  0
 36 95  1  0
 36 96  1  0
 37 97  1  0
 37 98  1  0
 37 99  1  0
 44100  1  0
 49101  1  0
 49102  1  0
 50103  1  0
 50104  1  0
 50105  1  0
 59106  1  0
 59107  1  0
 60108  1  0
 60109  1  0
 60110  1  0
 62111  1  0
 63112  1  0
 72113  1  0
 72114  1  0
 73115  1  0
 73116  1  0
 73117  1  0
 75118  1  0
 76119  1  0
 77120  1  0
M  END

