
     RDKit          3D

231257  0  0  0  0  0  0  0  0999 V2000
   -0.4507   -6.1850   13.0749 C   0  0  0  0  0  0  0  0  0  0  0  0
   -0.3662   -4.8980   12.5543 C   0  0  0  0  0  0  0  0  0  0  0  0
   -1.1348   -4.7199   11.3933 C   0  0  0  0  0  0  0  0  0  0  0  0
   -1.2449   -3.5425   10.6157 C   0  0  0  0  0  0  0  0  0  0  0  0
   -0.3987   -2.3571   10.8594 C   0  0  0  0  0  0  0  0  0  0  0  0
   -0.9627   -0.7790   11.0063 S   0  0  0  0  0  0  0  0  0  0  0  0
    0.5477   -0.0392   11.0223 C   0  0  0  0  0  0  0  0  0  0  0  0
    0.7774    1.4379   11.0347 C   0  0  0  0  0  0  0  0  0  0  0  0
    0.8538    1.9784    9.6119 C   0  0  0  0  0  0  0  0  0  0  0  0
    1.5253   -1.0270   10.8857 C   0  0  0  0  0  0  0  0  0  0  0  0
    3.2390   -0.6724   10.7476 Cl  0  0  0  0  0  0  0  0  0  0  0  0
    0.9944   -2.3235   10.7990 C   0  0  0  0  0  0  0  0  0  0  0  0
    1.9943   -3.7387   10.5002 Cl  0  0  0  0  0  0  0  0  0  0  0  0
   -2.1180   -3.5804    9.5227 C   0  0  0  0  0  0  0  0  0  0  0  0
   -2.8203   -4.7333    9.1528 C   0  0  0  0  0  0  0  0  0  0  0  0
   -2.6720   -5.9218    9.8952 C   0  0  0  0  0  0  0  0  0  0  0  0
   -3.2487   -7.1901    9.4522 C   0  0  0  0  0  0  0  0  0  0  0  0
   -4.8692   -7.6121    9.5680 S   0  0  0  0  0  0  0  0  0  0  0  0
   -4.6714   -9.1977    9.0308 C   0  0  0  0  0  0  0  0  0  0  0  0
   -5.7592  -10.2130    8.9396 C   0  0  0  0  0  0  0  0  0  0  0  0
   -6.4206  -10.1845    7.5615 C   0  0  0  0  0  0  0  0  0  0  0  0
   -3.3212   -9.4144    8.7560 C   0  0  0  0  0  0  0  0  0  0  0  0
   -2.5213   -8.2932    9.0069 C   0  0  0  0  0  0  0  0  0  0  0  0
   -0.7732   -8.2984    8.8155 Cl  0  0  0  0  0  0  0  0  0  0  0  0
   -2.6838  -10.9394    8.1358 Cl  0  0  0  0  0  0  0  0  0  0  0  0
   -1.8397   -5.8709   11.0243 C   0  0  0  0  0  0  0  0  0  0  0  0
   -1.4892   -7.0971   12.1199 S   0  0  0  0  0  0  0  0  0  0  0  0
   -3.5792   -4.5644    7.9817 C   0  0  0  0  0  0  0  0  0  0  0  0
   -3.4537   -3.2925    7.4259 C   0  0  0  0  0  0  0  0  0  0  0  0
   -2.4021   -2.3807    8.3821 S   0  0  0  0  0  0  0  0  0  0  0  0
   -4.0669   -2.8250    6.1674 C   0  0  0  0  0  0  0  0  0  0  0  0
   -5.0260   -3.7485    5.0969 S   0  0  0  0  0  0  0  0  0  0  0  0
   -5.1803   -2.5822    3.8704 C   0  0  0  0  0  0  0  0  0  0  0  0
   -4.4351   -1.4911    4.2758 C   0  0  0  0  0  0  0  0  0  0  0  0
   -4.1076   -0.3231    3.5896 C   0  0  0  0  0  0  0  0  0  0  0  0
   -3.2724    0.4981    4.3509 C   0  0  0  0  0  0  0  0  0  0  0  0
   -2.7629    1.8056    3.9064 C   0  0  0  0  0  0  0  0  0  0  0  0
   -2.9814    2.1930    2.7274 O   0  0  0  0  0  0  0  0  0  0  0  0
   -2.0545    2.6224    4.7914 O   0  0  0  0  0  0  0  0  0  0  0  0
   -1.5556    3.9115    4.4300 C   0  0  0  0  0  0  0  0  0  0  0  0
   -0.2712    3.7909    3.6186 C   0  0  0  0  0  0  0  0  0  0  0  0
   -2.9291   -0.2401    5.8394 S   0  0  0  0  0  0  0  0  0  0  0  0
   -3.8587   -1.6118    5.5237 C   0  0  0  0  0  0  0  0  0  0  0  0
   -5.6227   -2.8085    2.4940 C   0  0  0  0  0  0  0  0  0  0  0  0
   -6.8271   -2.3399    1.9485 C   0  0  0  0  0  0  0  0  0  0  0  0
   -6.8214   -2.3313    0.5394 C   0  0  0  0  0  0  0  0  0  0  0  0
   -7.7907   -1.7352   -0.3128 C   0  0  0  0  0  0  0  0  0  0  0  0
   -8.8571   -0.8607    0.2136 C   0  0  0  0  0  0  0  0  0  0  0  0
  -10.4960   -1.0136   -0.1211 S   0  0  0  0  0  0  0  0  0  0  0  0
  -11.0037    0.3812    0.6836 C   0  0  0  0  0  0  0  0  0  0  0  0
  -12.4206    0.8937    0.7173 C   0  0  0  0  0  0  0  0  0  0  0  0
  -13.3941   -0.1581    1.2430 C   0  0  0  0  0  0  0  0  0  0  0  0
   -9.8701    1.0113    1.1966 C   0  0  0  0  0  0  0  0  0  0  0  0
   -9.8948    2.5723    1.9982 Cl  0  0  0  0  0  0  0  0  0  0  0  0
   -8.6668    0.3149    0.9411 C   0  0  0  0  0  0  0  0  0  0  0  0
   -7.0863    0.9692    1.3358 Cl  0  0  0  0  0  0  0  0  0  0  0  0
   -7.5471   -1.7914   -1.6964 C   0  0  0  0  0  0  0  0  0  0  0  0
   -6.3920   -2.3751   -2.2226 C   0  0  0  0  0  0  0  0  0  0  0  0
   -5.3271   -2.7237   -1.3634 C   0  0  0  0  0  0  0  0  0  0  0  0
   -3.9762   -2.3065   -1.7947 C   0  0  0  0  0  0  0  0  0  0  0  0
   -2.7201   -3.3087   -2.2850 S   0  0  0  0  0  0  0  0  0  0  0  0
   -1.7537   -2.0656   -2.9232 C   0  0  0  0  0  0  0  0  0  0  0  0
   -0.4190   -2.2186   -3.6089 C   0  0  0  0  0  0  0  0  0  0  0  0
    0.1272   -3.6461   -3.5497 C   0  0  0  0  0  0  0  0  0  0  0  0
   -2.4096   -0.8571   -2.7613 C   0  0  0  0  0  0  0  0  0  0  0  0
   -3.6352   -0.9863   -2.0921 C   0  0  0  0  0  0  0  0  0  0  0  0
   -4.6879    0.3895   -1.7674 Cl  0  0  0  0  0  0  0  0  0  0  0  0
   -1.8595    0.6628   -3.4475 Cl  0  0  0  0  0  0  0  0  0  0  0  0
   -5.6173   -2.8068    0.0023 C   0  0  0  0  0  0  0  0  0  0  0  0
   -4.5550   -3.1610    1.2487 S   0  0  0  0  0  0  0  0  0  0  0  0
   -6.2065   -2.1519   -3.5899 C   0  0  0  0  0  0  0  0  0  0  0  0
   -7.0666   -1.2038   -4.1241 C   0  0  0  0  0  0  0  0  0  0  0  0
   -8.1862   -0.7931   -2.9160 S   0  0  0  0  0  0  0  0  0  0  0  0
   -6.5888   -0.3273   -5.2119 C   0  0  0  0  0  0  0  0  0  0  0  0
   -5.7759   -0.8098   -6.2498 C   0  0  0  0  0  0  0  0  0  0  0  0
   -4.8110    0.1110   -6.7016 C   0  0  0  0  0  0  0  0  0  0  0  0
   -3.7242   -0.1801   -7.5658 C   0  0  0  0  0  0  0  0  0  0  0  0
   -3.6869   -1.4005   -8.4003 C   0  0  0  0  0  0  0  0  0  0  0  0
   -2.3315   -2.3761   -8.6638 S   0  0  0  0  0  0  0  0  0  0  0  0
   -2.9824   -3.3115   -9.8928 C   0  0  0  0  0  0  0  0  0  0  0  0
   -2.2135   -4.3026  -10.7133 C   0  0  0  0  0  0  0  0  0  0  0  0
   -1.8451   -3.7072  -12.0699 C   0  0  0  0  0  0  0  0  0  0  0  0
   -4.2831   -2.8641  -10.1343 C   0  0  0  0  0  0  0  0  0  0  0  0
   -5.3162   -3.5294  -11.3875 Cl  0  0  0  0  0  0  0  0  0  0  0  0
   -4.6742   -1.7977   -9.3060 C   0  0  0  0  0  0  0  0  0  0  0  0
   -6.2042   -0.9569   -9.5141 Cl  0  0  0  0  0  0  0  0  0  0  0  0
   -2.6739    0.7630   -7.5839 C   0  0  0  0  0  0  0  0  0  0  0  0
   -2.7395    1.9779   -6.9079 C   0  0  0  0  0  0  0  0  0  0  0  0
   -3.9142    2.3401   -6.2012 C   0  0  0  0  0  0  0  0  0  0  0  0
   -4.1162    3.7193   -5.7188 C   0  0  0  0  0  0  0  0  0  0  0  0
   -4.5395    4.1673   -4.1504 S   0  0  0  0  0  0  0  0  0  0  0  0
   -4.6986    5.8117   -4.4755 C   0  0  0  0  0  0  0  0  0  0  0  0
   -5.1504    6.8445   -3.4909 C   0  0  0  0  0  0  0  0  0  0  0  0
   -6.6631    7.0185   -3.5572 C   0  0  0  0  0  0  0  0  0  0  0  0
   -4.4506    6.0317   -5.8295 C   0  0  0  0  0  0  0  0  0  0  0  0
   -4.1142    4.8562   -6.5246 C   0  0  0  0  0  0  0  0  0  0  0  0
   -3.8345    4.8176   -8.2665 Cl  0  0  0  0  0  0  0  0  0  0  0  0
   -4.5753    7.6049   -6.6034 Cl  0  0  0  0  0  0  0  0  0  0  0  0
   -4.9028    1.3525   -6.0636 C   0  0  0  0  0  0  0  0  0  0  0  0
   -6.1552    1.2788   -4.9407 S   0  0  0  0  0  0  0  0  0  0  0  0
   -1.5158    2.6833   -6.8962 C   0  0  0  0  0  0  0  0  0  0  0  0
   -0.4751    1.9973   -7.5419 C   0  0  0  0  0  0  0  0  0  0  0  0
   -1.1186    0.5810   -8.1880 S   0  0  0  0  0  0  0  0  0  0  0  0
    0.9662    2.1868   -7.2903 C   0  0  0  0  0  0  0  0  0  0  0  0
    1.5307    3.1825   -6.4769 C   0  0  0  0  0  0  0  0  0  0  0  0
    2.8082    2.8442   -5.9962 C   0  0  0  0  0  0  0  0  0  0  0  0
    3.5320    3.5140   -4.9835 C   0  0  0  0  0  0  0  0  0  0  0  0
    3.1359    4.8533   -4.5084 C   0  0  0  0  0  0  0  0  0  0  0  0
    2.7281    5.2478   -2.9293 S   0  0  0  0  0  0  0  0  0  0  0  0
    2.5615    6.8968   -3.1890 C   0  0  0  0  0  0  0  0  0  0  0  0
    2.2708    7.9067   -2.1217 C   0  0  0  0  0  0  0  0  0  0  0  0
    3.5687    8.4437   -1.5349 C   0  0  0  0  0  0  0  0  0  0  0  0
    2.8601    7.1709   -4.5239 C   0  0  0  0  0  0  0  0  0  0  0  0
    2.9051    8.7950   -5.1939 Cl  0  0  0  0  0  0  0  0  0  0  0  0
    3.1654    6.0194   -5.2724 C   0  0  0  0  0  0  0  0  0  0  0  0
    3.6128    6.0704   -6.9709 Cl  0  0  0  0  0  0  0  0  0  0  0  0
    4.6164    2.8279   -4.4094 C   0  0  0  0  0  0  0  0  0  0  0  0
    5.0215    1.5618   -4.8434 C   0  0  0  0  0  0  0  0  0  0  0  0
    4.3551    0.9328   -5.9171 C   0  0  0  0  0  0  0  0  0  0  0  0
    4.6461   -0.4559   -6.2835 C   0  0  0  0  0  0  0  0  0  0  0  0
    5.3433   -0.9401   -7.7281 S   0  0  0  0  0  0  0  0  0  0  0  0
    5.1517   -2.5902   -7.4708 C   0  0  0  0  0  0  0  0  0  0  0  0
    5.5043   -3.6554   -8.4641 C   0  0  0  0  0  0  0  0  0  0  0  0
    4.3299   -3.9131   -9.3997 C   0  0  0  0  0  0  0  0  0  0  0  0
    4.4965   -2.7833   -6.2538 C   0  0  0  0  0  0  0  0  0  0  0  0
    4.2182   -1.5759   -5.5823 C   0  0  0  0  0  0  0  0  0  0  0  0
    3.3596   -1.4989   -4.0506 Cl  0  0  0  0  0  0  0  0  0  0  0  0
    4.0157   -4.3553   -5.6398 Cl  0  0  0  0  0  0  0  0  0  0  0  0
    3.2490    1.5992   -6.4598 C   0  0  0  0  0  0  0  0  0  0  0  0
    2.0785    0.9348   -7.4528 S   0  0  0  0  0  0  0  0  0  0  0  0
    6.0392    0.9985   -4.0553 C   0  0  0  0  0  0  0  0  0  0  0  0
    6.4207    1.8171   -2.9944 C   0  0  0  0  0  0  0  0  0  0  0  0
    5.5276    3.2465   -3.0539 S   0  0  0  0  0  0  0  0  0  0  0  0
    7.3269    1.4298   -1.9091 C   0  0  0  0  0  0  0  0  0  0  0  0
    7.9901    0.2091   -1.8044 C   0  0  0  0  0  0  0  0  0  0  0  0
    8.7017    0.0726   -0.6023 C   0  0  0  0  0  0  0  0  0  0  0  0
    9.4533   -1.0485   -0.1970 C   0  0  0  0  0  0  0  0  0  0  0  0
    9.5363   -2.2468   -1.0438 C   0  0  0  0  0  0  0  0  0  0  0  0
    8.2378   -3.2442   -1.4134 S   0  0  0  0  0  0  0  0  0  0  0  0
    9.1180   -4.3771   -2.2922 C   0  0  0  0  0  0  0  0  0  0  0  0
    8.5379   -5.6116   -2.9092 C   0  0  0  0  0  0  0  0  0  0  0  0
    8.2561   -5.4012   -4.3943 C   0  0  0  0  0  0  0  0  0  0  0  0
   10.4581   -3.9818   -2.3063 C   0  0  0  0  0  0  0  0  0  0  0  0
   11.7360   -4.8848   -3.1038 Cl  0  0  0  0  0  0  0  0  0  0  0  0
   10.6963   -2.7959   -1.5924 C   0  0  0  0  0  0  0  0  0  0  0  0
   12.2843   -2.0619   -1.4371 Cl  0  0  0  0  0  0  0  0  0  0  0  0
   10.0651   -0.9898    1.0665 C   0  0  0  0  0  0  0  0  0  0  0  0
    9.9439    0.1241    1.9057 C   0  0  0  0  0  0  0  0  0  0  0  0
    9.2068    1.2515    1.4911 C   0  0  0  0  0  0  0  0  0  0  0  0
    9.0320    2.4379    2.3479 C   0  0  0  0  0  0  0  0  0  0  0  0
    9.5258    3.9960    1.9474 S   0  0  0  0  0  0  0  0  0  0  0  0
    8.8502    4.7470    3.2911 C   0  0  0  0  0  0  0  0  0  0  0  0
    8.8524    6.2254    3.5436 C   0  0  0  0  0  0  0  0  0  0  0  0
    7.5987    6.8662    2.9575 C   0  0  0  0  0  0  0  0  0  0  0  0
    8.1854    3.7895    4.0517 C   0  0  0  0  0  0  0  0  0  0  0  0
    8.3055    2.4863    3.5346 C   0  0  0  0  0  0  0  0  0  0  0  0
    7.5156    1.0891    4.2448 Cl  0  0  0  0  0  0  0  0  0  0  0  0
    7.2289    4.1684    5.4727 Cl  0  0  0  0  0  0  0  0  0  0  0  0
    8.6065    1.1948    0.2232 C   0  0  0  0  0  0  0  0  0  0  0  0
    7.6200    2.3383   -0.5237 S   0  0  0  0  0  0  0  0  0  0  0  0
   10.6235   -0.0300    3.1242 C   0  0  0  0  0  0  0  0  0  0  0  0
   11.2745   -1.2568    3.2372 C   0  0  0  0  0  0  0  0  0  0  0  0
   11.0017   -2.1486    1.8387 S   0  0  0  0  0  0  0  0  0  0  0  0
    0.0598   -6.5336   13.9612 H   0  0  0  0  0  0  0  0  0  0  0  0
    0.2424   -4.1222   12.9964 H   0  0  0  0  0  0  0  0  0  0  0  0
    1.7170    1.6751   11.5837 H   0  0  0  0  0  0  0  0  0  0  0  0
   -0.0593    1.9401   11.5678 H   0  0  0  0  0  0  0  0  0  0  0  0
    0.9774    3.0779    9.6387 H   0  0  0  0  0  0  0  0  0  0  0  0
   -0.0762    1.7209    9.0564 H   0  0  0  0  0  0  0  0  0  0  0  0
    1.7253    1.5333    9.0800 H   0  0  0  0  0  0  0  0  0  0  0  0
   -6.5190  -10.0167    9.7288 H   0  0  0  0  0  0  0  0  0  0  0  0
   -5.3362  -11.2209    9.1325 H   0  0  0  0  0  0  0  0  0  0  0  0
   -7.2387   -9.4354    7.5720 H   0  0  0  0  0  0  0  0  0  0  0  0
   -5.6952   -9.9293    6.7590 H   0  0  0  0  0  0  0  0  0  0  0  0
   -6.8546  -11.1833    7.3547 H   0  0  0  0  0  0  0  0  0  0  0  0
   -4.1643   -5.3500    7.5306 H   0  0  0  0  0  0  0  0  0  0  0  0
   -4.4513   -0.0977    2.5882 H   0  0  0  0  0  0  0  0  0  0  0  0
   -2.3215    4.4709    3.8478 H   0  0  0  0  0  0  0  0  0  0  0  0
   -1.3404    4.4895    5.3543 H   0  0  0  0  0  0  0  0  0  0  0  0
    0.0424    4.7917    3.2610 H   0  0  0  0  0  0  0  0  0  0  0  0
    0.5354    3.3611    4.2544 H   0  0  0  0  0  0  0  0  0  0  0  0
   -0.4325    3.1276    2.7452 H   0  0  0  0  0  0  0  0  0  0  0  0
   -7.6165   -1.9030    2.5402 H   0  0  0  0  0  0  0  0  0  0  0  0
  -12.5002    1.7905    1.3772 H   0  0  0  0  0  0  0  0  0  0  0  0
  -12.7306    1.1999   -0.3057 H   0  0  0  0  0  0  0  0  0  0  0  0
  -13.4103   -1.0419    0.5659 H   0  0  0  0  0  0  0  0  0  0  0  0
  -14.4144    0.2747    1.2930 H   0  0  0  0  0  0  0  0  0  0  0  0
  -13.0910   -0.4826    2.2586 H   0  0  0  0  0  0  0  0  0  0  0  0
    0.2975   -1.5454   -3.0956 H   0  0  0  0  0  0  0  0  0  0  0  0
   -0.5117   -1.9014   -4.6716 H   0  0  0  0  0  0  0  0  0  0  0  0
    0.1820   -3.9913   -2.4930 H   0  0  0  0  0  0  0  0  0  0  0  0
    1.1504   -3.6585   -3.9690 H   0  0  0  0  0  0  0  0  0  0  0  0
   -0.5122   -4.3259   -4.1409 H   0  0  0  0  0  0  0  0  0  0  0  0
   -5.3061   -2.4459   -4.0965 H   0  0  0  0  0  0  0  0  0  0  0  0
   -5.7735   -1.8452   -6.5449 H   0  0  0  0  0  0  0  0  0  0  0  0
   -1.2802   -4.5934  -10.1749 H   0  0  0  0  0  0  0  0  0  0  0  0
   -2.8267   -5.2245  -10.8539 H   0  0  0  0  0  0  0  0  0  0  0  0
   -1.1684   -4.3931  -12.6202 H   0  0  0  0  0  0  0  0  0  0  0  0
   -2.7586   -3.5659  -12.6807 H   0  0  0  0  0  0  0  0  0  0  0  0
   -1.3365   -2.7313  -11.9322 H   0  0  0  0  0  0  0  0  0  0  0  0
   -4.6579    7.8154   -3.7129 H   0  0  0  0  0  0  0  0  0  0  0  0
   -4.8510    6.5326   -2.4695 H   0  0  0  0  0  0  0  0  0  0  0  0
   -6.9810    7.8104   -2.8466 H   0  0  0  0  0  0  0  0  0  0  0  0
   -6.9697    7.3101   -4.5855 H   0  0  0  0  0  0  0  0  0  0  0  0
   -7.1697    6.0660   -3.2877 H   0  0  0  0  0  0  0  0  0  0  0  0
   -1.3591    3.5795   -6.3102 H   0  0  0  0  0  0  0  0  0  0  0  0
    0.9891    4.0554   -6.1535 H   0  0  0  0  0  0  0  0  0  0  0  0
    1.6685    7.4285   -1.3172 H   0  0  0  0  0  0  0  0  0  0  0  0
    1.6821    8.7480   -2.5429 H   0  0  0  0  0  0  0  0  0  0  0  0
    4.1459    7.6208   -1.0604 H   0  0  0  0  0  0  0  0  0  0  0  0
    4.1862    8.9134   -2.3327 H   0  0  0  0  0  0  0  0  0  0  0  0
    3.3395    9.2114   -0.7640 H   0  0  0  0  0  0  0  0  0  0  0  0
    5.7814   -4.5931   -7.9366 H   0  0  0  0  0  0  0  0  0  0  0  0
    6.3810   -3.3268   -9.0661 H   0  0  0  0  0  0  0  0  0  0  0  0
    4.0400   -2.9735   -9.9197 H   0  0  0  0  0  0  0  0  0  0  0  0
    4.6195   -4.6690  -10.1586 H   0  0  0  0  0  0  0  0  0  0  0  0
    3.4547   -4.2923   -8.8273 H   0  0  0  0  0  0  0  0  0  0  0  0
    6.4289    0.0042   -4.2215 H   0  0  0  0  0  0  0  0  0  0  0  0
    7.9500   -0.5617   -2.5577 H   0  0  0  0  0  0  0  0  0  0  0  0
    9.2336   -6.4678   -2.7720 H   0  0  0  0  0  0  0  0  0  0  0  0
    7.5932   -5.8746   -2.3881 H   0  0  0  0  0  0  0  0  0  0  0  0
    7.5253   -4.5751   -4.5316 H   0  0  0  0  0  0  0  0  0  0  0  0
    7.8292   -6.3332   -4.8198 H   0  0  0  0  0  0  0  0  0  0  0  0
    9.2014   -5.1671   -4.9271 H   0  0  0  0  0  0  0  0  0  0  0  0
    8.8982    6.4207    4.6361 H   0  0  0  0  0  0  0  0  0  0  0  0
    9.7520    6.6828    3.0702 H   0  0  0  0  0  0  0  0  0  0  0  0
    6.6885    6.4112    3.3959 H   0  0  0  0  0  0  0  0  0  0  0  0
    7.5906    7.9532    3.1920 H   0  0  0  0  0  0  0  0  0  0  0  0
    7.5788    6.7372    1.8548 H   0  0  0  0  0  0  0  0  0  0  0  0
   10.6502    0.7248    3.9007 H   0  0  0  0  0  0  0  0  0  0  0  0
   11.8680   -1.5716    4.0830 H   0  0  0  0  0  0  0  0  0  0  0  0
  1  2  2  0
  2  3  1  0
  3  4  2  0
  4  5  1  0
  5  6  1  0
  6  7  1  0
  7  8  1  0
  8  9  1  0
  7 10  2  0
 10 11  1  0
 10 12  1  0
 12 13  1  0
  4 14  1  0
 14 15  2  0
 15 16  1  0
 16 17  1  0
 17 18  1  0
 18 19  1  0
 19 20  1  0
 20 21  1  0
 19 22  2  0
 22 23  1  0
 23 24  1  0
 22 25  1  0
 16 26  2  0
 26 27  1  0
 15 28  1  0
 28 29  2  0
 29 30  1  0
 29 31  1  0
 31 32  1  0
 32 33  1  0
 33 34  2  0
 34 35  1  0
 35 36  2  0
 36 37  1  0
 37 38  2  0
 37 39  1  0
 39 40  1  0
 40 41  1  0
 36 42  1  0
 42 43  1  0
 33 44  1  0
 44 45  2  0
 45 46  1  0
 46 47  2  0
 47 48  1  0
 48 49  1  0
 49 50  1  0
 50 51  1  0
 51 52  1  0
 50 53  2  0
 53 54  1  0
 53 55  1  0
 55 56  1  0
 47 57  1  0
 57 58  2  0
 58 59  1  0
 59 60  1  0
 60 61  1  0
 61 62  1  0
 62 63  1  0
 63 64  1  0
 62 65  2  0
 65 66  1  0
 66 67  1  0
 65 68  1  0
 59 69  2  0
 69 70  1  0
 58 71  1  0
 71 72  2  0
 72 73  1  0
 72 74  1  0
 74 75  2  0
 75 76  1  0
 76 77  2  0
 77 78  1  0
 78 79  1  0
 79 80  1  0
 80 81  1  0
 81 82  1  0
 80 83  2  0
 83 84  1  0
 83 85  1  0
 85 86  1  0
 77 87  1  0
 87 88  2  0
 88 89  1  0
 89 90  1  0
 90 91  1  0
 91 92  1  0
 92 93  1  0
 93 94  1  0
 92 95  2  0
 95 96  1  0
 96 97  1  0
 95 98  1  0
 89 99  2  0
 99100  1  0
 88101  1  0
101102  2  0
102103  1  0
102104  1  0
104105  2  0
105106  1  0
106107  2  0
107108  1  0
108109  1  0
109110  1  0
110111  1  0
111112  1  0
110113  2  0
113114  1  0
113115  1  0
115116  1  0
107117  1  0
117118  2  0
118119  1  0
119120  1  0
120121  1  0
121122  1  0
122123  1  0
123124  1  0
122125  2  0
125126  1  0
126127  1  0
125128  1  0
119129  2  0
129130  1  0
118131  1  0
131132  2  0
132133  1  0
132134  1  0
134135  2  0
135136  1  0
136137  2  0
137138  1  0
138139  1  0
139140  1  0
140141  1  0
141142  1  0
140143  2  0
143144  1  0
143145  1  0
145146  1  0
137147  1  0
147148  2  0
148149  1  0
149150  1  0
150151  1  0
151152  1  0
152153  1  0
153154  1  0
152155  2  0
155156  1  0
156157  1  0
155158  1  0
149159  2  0
159160  1  0
148161  1  0
161162  2  0
162163  1  0
 27  1  1  0
 43 31  2  0
 70 44  1  0
100 74  1  0
130104  1  0
160134  1  0
 26  3  1  0
 43 34  1  0
 69 46  1  0
 99 76  1  0
129106  1  0
159136  1  0
 12  5  2  0
 30 14  1  0
 55 48  2  0
 73 57  1  0
 85 78  2  0
103 87  1  0
115108  2  0
133117  1  0
145138  2  0
163147  1  0
 23 17  2  0
 66 60  2  0
 96 90  2  0
126120  2  0
156150  2  0
  1164  1  0
  2165  1  0
  8166  1  0
  8167  1  0
  9168  1  0
  9169  1  0
  9170  1  0
 20171  1  0
 20172  1  0
 21173  1  0
 21174  1  0
 21175  1  0
 28176  1  0
 35177  1  0
 40178  1  0
 40179  1  0
 41180  1  0
 41181  1  0
 41182  1  0
 45183  1  0
 51184  1  0
 51185  1  0
 52186  1  0
 52187  1  0
 52188  1  0
 63189  1  0
 63190  1  0
 64191  1  0
 64192  1  0
 64193  1  0
 71194  1  0
 75195  1  0
 81196  1  0
 81197  1  0
 82198  1  0
 82199  1  0
 82200  1  0
 93201  1  0
 93202  1  0
 94203  1  0
 94204  1  0
 94205  1  0
101206  1  0
105207  1  0
111208  1  0
111209  1  0
112210  1  0
112211  1  0
112212  1  0
123213  1  0
123214  1  0
124215  1  0
124216  1  0
124217  1  0
131218  1  0
135219  1  0
141220  1  0
141221  1  0
142222  1  0
142223  1  0
142224  1  0
153225  1  0
153226  1  0
154227  1  0
154228  1  0
154229  1  0
161230  1  0
162231  1  0
M  END

