
     RDKit          3D

120135  0  0  0  0  0  0  0  0999 V2000
   15.3224    1.4992    4.5619 C   0  0  0  0  0  0  0  0  0  0  0  0
   14.1132    2.4469    3.7971 S   0  0  0  0  0  0  0  0  0  0  0  0
   12.9446    1.2759    4.0290 C   0  0  0  0  0  0  0  0  0  0  0  0
   11.6060    1.0530    3.8880 C   0  0  0  0  0  0  0  0  0  0  0  0
   11.3592   -0.1513    4.4591 C   0  0  0  0  0  0  0  0  0  0  0  0
   12.4830   -0.7236    4.9629 N   0  0  0  0  0  0  0  0  0  0  0  0
   12.5955   -1.9208    5.7927 C   0  0  0  0  0  0  0  0  0  0  0  0
   12.4200   -1.5606    7.2635 C   0  0  0  0  0  0  0  0  0  0  0  0
   13.4412    0.1970    4.6811 C   0  0  0  0  0  0  0  0  0  0  0  0
   14.7885    0.2801    5.0108 C   0  0  0  0  0  0  0  0  0  0  0  0
   10.0216   -0.5242    4.4900 C   0  0  0  0  0  0  0  0  0  0  0  0
    9.2269    0.4769    3.8973 C   0  0  0  0  0  0  0  0  0  0  0  0
   10.2001    1.7949    3.3759 S   0  0  0  0  0  0  0  0  0  0  0  0
    7.7666    0.3849    3.7339 C   0  0  0  0  0  0  0  0  0  0  0  0
    6.8247   -1.0004    3.9733 S   0  0  0  0  0  0  0  0  0  0  0  0
    5.3111   -0.3504    3.5639 C   0  0  0  0  0  0  0  0  0  0  0  0
    5.5483    0.9864    3.2360 C   0  0  0  0  0  0  0  0  0  0  0  0
    4.6912    2.0227    2.8478 C   0  0  0  0  0  0  0  0  0  0  0  0
    5.3852    3.2191    2.6401 C   0  0  0  0  0  0  0  0  0  0  0  0
    4.7663    4.4929    2.2580 C   0  0  0  0  0  0  0  0  0  0  0  0
    5.4752    5.5295    2.1535 O   0  0  0  0  0  0  0  0  0  0  0  0
    3.3890    4.5483    2.0249 O   0  0  0  0  0  0  0  0  0  0  0  0
    2.7093    5.7579    1.7082 C   0  0  0  0  0  0  0  0  0  0  0  0
    1.2276    5.4736    1.5121 C   0  0  0  0  0  0  0  0  0  0  0  0
    7.0429    2.9927    2.9388 S   0  0  0  0  0  0  0  0  0  0  0  0
    6.8755    1.3677    3.3289 C   0  0  0  0  0  0  0  0  0  0  0  0
    4.0392   -1.1003    3.5069 C   0  0  0  0  0  0  0  0  0  0  0  0
    2.5693   -0.5637    2.8580 S   0  0  0  0  0  0  0  0  0  0  0  0
    1.6677   -1.9782    3.0814 C   0  0  0  0  0  0  0  0  0  0  0  0
    2.5231   -2.8937    3.6801 C   0  0  0  0  0  0  0  0  0  0  0  0
    2.3084   -4.1942    4.1392 C   0  0  0  0  0  0  0  0  0  0  0  0
    3.4615   -4.7220    4.7320 C   0  0  0  0  0  0  0  0  0  0  0  0
    3.5664   -6.0474    5.3540 C   0  0  0  0  0  0  0  0  0  0  0  0
    2.5861   -6.8408    5.3159 O   0  0  0  0  0  0  0  0  0  0  0  0
    4.7575   -6.4167    5.9897 O   0  0  0  0  0  0  0  0  0  0  0  0
    4.9246   -7.6499    6.6882 C   0  0  0  0  0  0  0  0  0  0  0  0
    4.2171   -7.6033    8.0387 C   0  0  0  0  0  0  0  0  0  0  0  0
    4.7204   -3.5790    4.6832 S   0  0  0  0  0  0  0  0  0  0  0  0
    3.7985   -2.4107    3.9071 C   0  0  0  0  0  0  0  0  0  0  0  0
    0.2708   -2.1649    2.6724 C   0  0  0  0  0  0  0  0  0  0  0  0
   -0.8655   -0.8881    2.5851 S   0  0  0  0  0  0  0  0  0  0  0  0
   -2.0412   -1.8764    1.9287 C   0  0  0  0  0  0  0  0  0  0  0  0
   -3.1614   -1.7333    1.1662 C   0  0  0  0  0  0  0  0  0  0  0  0
   -3.3146   -2.8981    0.4857 C   0  0  0  0  0  0  0  0  0  0  0  0
   -2.3334   -3.7917    0.7803 N   0  0  0  0  0  0  0  0  0  0  0  0
   -2.0466   -5.0625    0.1134 C   0  0  0  0  0  0  0  0  0  0  0  0
   -2.7983   -6.1940    0.7993 C   0  0  0  0  0  0  0  0  0  0  0  0
   -1.5664   -3.1261    1.6847 C   0  0  0  0  0  0  0  0  0  0  0  0
   -0.2542   -3.3391    2.1037 C   0  0  0  0  0  0  0  0  0  0  0  0
   -4.2032   -2.8317   -0.5863 C   0  0  0  0  0  0  0  0  0  0  0  0
   -4.7321   -1.5314   -0.7016 C   0  0  0  0  0  0  0  0  0  0  0  0
   -4.0453   -0.4960    0.4792 S   0  0  0  0  0  0  0  0  0  0  0  0
   -5.6282   -1.0711   -1.7743 C   0  0  0  0  0  0  0  0  0  0  0  0
   -6.1764   -2.0462   -3.0795 S   0  0  0  0  0  0  0  0  0  0  0  0
   -6.9962   -0.7691   -3.7806 C   0  0  0  0  0  0  0  0  0  0  0  0
   -7.7224   -0.4327   -4.8870 C   0  0  0  0  0  0  0  0  0  0  0  0
   -7.9884    0.8920   -4.7783 C   0  0  0  0  0  0  0  0  0  0  0  0
   -7.4566    1.4340   -3.6535 N   0  0  0  0  0  0  0  0  0  0  0  0
   -7.5538    2.8095   -3.1709 C   0  0  0  0  0  0  0  0  0  0  0  0
   -8.7802    2.9664   -2.2818 C   0  0  0  0  0  0  0  0  0  0  0  0
   -6.8592    0.3701   -3.0593 C   0  0  0  0  0  0  0  0  0  0  0  0
   -6.0937    0.2504   -1.9083 C   0  0  0  0  0  0  0  0  0  0  0  0
   -8.6864    1.4440   -5.8451 C   0  0  0  0  0  0  0  0  0  0  0  0
   -8.9489    0.4528   -6.8119 C   0  0  0  0  0  0  0  0  0  0  0  0
   -8.3091   -1.0644   -6.3178 S   0  0  0  0  0  0  0  0  0  0  0  0
   -9.6353    0.6820   -8.0941 C   0  0  0  0  0  0  0  0  0  0  0  0
   -9.9549   -0.5494   -9.2503 S   0  0  0  0  0  0  0  0  0  0  0  0
  -10.6793    0.5266  -10.3021 C   0  0  0  0  0  0  0  0  0  0  0  0
  -11.3559    0.5799  -11.4864 C   0  0  0  0  0  0  0  0  0  0  0  0
  -11.7477    1.8683  -11.6425 C   0  0  0  0  0  0  0  0  0  0  0  0
  -11.3456    2.6583  -10.6135 N   0  0  0  0  0  0  0  0  0  0  0  0
  -11.6784    4.0578  -10.3598 C   0  0  0  0  0  0  0  0  0  0  0  0
  -12.9793    4.1561   -9.5733 C   0  0  0  0  0  0  0  0  0  0  0  0
  -10.6965    1.7857   -9.7996 C   0  0  0  0  0  0  0  0  0  0  0  0
  -10.1204    1.9265   -8.5435 C   0  0  0  0  0  0  0  0  0  0  0  0
  -12.5309    2.1110  -12.7646 C   0  0  0  0  0  0  0  0  0  0  0  0
  -12.7228    0.9208  -13.4864 C   0  0  0  0  0  0  0  0  0  0  0  0
  -11.9421   -0.3950  -12.7097 S   0  0  0  0  0  0  0  0  0  0  0  0
   16.3495    1.8062    4.7027 H   0  0  0  0  0  0  0  0  0  0  0  0
   13.5923   -2.3880    5.6425 H   0  0  0  0  0  0  0  0  0  0  0  0
   11.8208   -2.6614    5.4976 H   0  0  0  0  0  0  0  0  0  0  0  0
   13.1863   -0.8130    7.5676 H   0  0  0  0  0  0  0  0  0  0  0  0
   12.5374   -2.4698    7.8899 H   0  0  0  0  0  0  0  0  0  0  0  0
   11.4092   -1.1330    7.4339 H   0  0  0  0  0  0  0  0  0  0  0  0
   15.3422   -0.4757    5.5512 H   0  0  0  0  0  0  0  0  0  0  0  0
    9.6487   -1.4454    4.9164 H   0  0  0  0  0  0  0  0  0  0  0  0
    3.6219    1.9349    2.7397 H   0  0  0  0  0  0  0  0  0  0  0  0
    2.8360    6.4857    2.5380 H   0  0  0  0  0  0  0  0  0  0  0  0
    3.1269    6.1923    0.7743 H   0  0  0  0  0  0  0  0  0  0  0  0
    1.0866    4.7551    0.6775 H   0  0  0  0  0  0  0  0  0  0  0  0
    0.6944    6.4165    1.2718 H   0  0  0  0  0  0  0  0  0  0  0  0
    0.7979    5.0424    2.4408 H   0  0  0  0  0  0  0  0  0  0  0  0
    1.3640   -4.7178    4.0756 H   0  0  0  0  0  0  0  0  0  0  0  0
    6.0089   -7.8142    6.8607 H   0  0  0  0  0  0  0  0  0  0  0  0
    4.5399   -8.4974    6.0790 H   0  0  0  0  0  0  0  0  0  0  0  0
    4.3984   -8.5522    8.5868 H   0  0  0  0  0  0  0  0  0  0  0  0
    4.6088   -6.7572    8.6437 H   0  0  0  0  0  0  0  0  0  0  0  0
    3.1231   -7.4758    7.8993 H   0  0  0  0  0  0  0  0  0  0  0  0
   -2.3484   -5.0097   -0.9551 H   0  0  0  0  0  0  0  0  0  0  0  0
   -0.9570   -5.2743    0.1419 H   0  0  0  0  0  0  0  0  0  0  0  0
   -2.4966   -6.2593    1.8669 H   0  0  0  0  0  0  0  0  0  0  0  0
   -3.8921   -6.0143    0.7386 H   0  0  0  0  0  0  0  0  0  0  0  0
   -2.5631   -7.1569    0.2992 H   0  0  0  0  0  0  0  0  0  0  0  0
    0.3176   -4.2337    1.9022 H   0  0  0  0  0  0  0  0  0  0  0  0
   -4.3899   -3.6391   -1.2823 H   0  0  0  0  0  0  0  0  0  0  0  0
   -6.6412    3.0727   -2.5943 H   0  0  0  0  0  0  0  0  0  0  0  0
   -7.6267    3.5085   -4.0313 H   0  0  0  0  0  0  0  0  0  0  0  0
   -8.8508    4.0140   -1.9220 H   0  0  0  0  0  0  0  0  0  0  0  0
   -8.7029    2.2891   -1.4044 H   0  0  0  0  0  0  0  0  0  0  0  0
   -9.7001    2.7185   -2.8535 H   0  0  0  0  0  0  0  0  0  0  0  0
   -5.8669    1.0647   -1.2331 H   0  0  0  0  0  0  0  0  0  0  0  0
   -8.9628    2.4858   -5.9219 H   0  0  0  0  0  0  0  0  0  0  0  0
  -11.7851    4.6010  -11.3226 H   0  0  0  0  0  0  0  0  0  0  0  0
  -10.8584    4.5410   -9.7847 H   0  0  0  0  0  0  0  0  0  0  0  0
  -12.8733    3.6403   -8.5943 H   0  0  0  0  0  0  0  0  0  0  0  0
  -13.8068    3.6873  -10.1459 H   0  0  0  0  0  0  0  0  0  0  0  0
  -13.2261    5.2229   -9.3919 H   0  0  0  0  0  0  0  0  0  0  0  0
  -10.0670    2.8577   -7.9959 H   0  0  0  0  0  0  0  0  0  0  0  0
  -12.9453    3.0721  -13.0368 H   0  0  0  0  0  0  0  0  0  0  0  0
  -13.3005    0.8438  -14.3967 H   0  0  0  0  0  0  0  0  0  0  0  0
  1  2  1  0
  2  3  1  0
  3  4  1  0
  4  5  2  0
  5  6  1  0
  6  7  1  0
  7  8  1  0
  6  9  1  0
  9 10  1  0
  5 11  1  0
 11 12  2  0
 12 13  1  0
 12 14  1  0
 14 15  1  0
 15 16  1  0
 16 17  2  0
 17 18  1  0
 18 19  2  0
 19 20  1  0
 20 21  2  0
 20 22  1  0
 22 23  1  0
 23 24  1  0
 19 25  1  0
 25 26  1  0
 16 27  1  0
 27 28  1  0
 28 29  1  0
 29 30  2  0
 30 31  1  0
 31 32  2  0
 32 33  1  0
 33 34  2  0
 33 35  1  0
 35 36  1  0
 36 37  1  0
 32 38  1  0
 38 39  1  0
 29 40  1  0
 40 41  1  0
 41 42  1  0
 42 43  1  0
 43 44  2  0
 44 45  1  0
 45 46  1  0
 46 47  1  0
 45 48  1  0
 48 49  1  0
 44 50  1  0
 50 51  2  0
 51 52  1  0
 51 53  1  0
 53 54  1  0
 54 55  1  0
 55 56  1  0
 56 57  2  0
 57 58  1  0
 58 59  1  0
 59 60  1  0
 58 61  1  0
 61 62  1  0
 57 63  1  0
 63 64  2  0
 64 65  1  0
 64 66  1  0
 66 67  1  0
 67 68  1  0
 68 69  1  0
 69 70  2  0
 70 71  1  0
 71 72  1  0
 72 73  1  0
 71 74  1  0
 74 75  1  0
 70 76  1  0
 76 77  2  0
 77 78  1  0
 10  1  2  0
 26 14  2  0
 39 27  2  0
 49 40  2  0
 62 53  2  0
 75 66  2  0
  9  3  2  0
 26 17  1  0
 39 30  1  0
 48 42  2  0
 61 55  2  0
 74 68  2  0
 13  4  1  0
 52 43  1  0
 65 56  1  0
 78 69  1  0
  1 79  1  0
  7 80  1  0
  7 81  1  0
  8 82  1  0
  8 83  1  0
  8 84  1  0
 10 85  1  0
 11 86  1  0
 18 87  1  0
 23 88  1  0
 23 89  1  0
 24 90  1  0
 24 91  1  0
 24 92  1  0
 31 93  1  0
 36 94  1  0
 36 95  1  0
 37 96  1  0
 37 97  1  0
 37 98  1  0
 46 99  1  0
 46100  1  0
 47101  1  0
 47102  1  0
 47103  1  0
 49104  1  0
 50105  1  0
 59106  1  0
 59107  1  0
 60108  1  0
 60109  1  0
 60110  1  0
 62111  1  0
 63112  1  0
 72113  1  0
 72114  1  0
 73115  1  0
 73116  1  0
 73117  1  0
 75118  1  0
 76119  1  0
 77120  1  0
M  END

