
     RDKit          3D

231257  0  0  0  0  0  0  0  0999 V2000
    2.3921   -7.5839   12.1409 C   0  0  0  0  0  0  0  0  0  0  0  0
    3.1679   -6.4281   12.1758 C   0  0  0  0  0  0  0  0  0  0  0  0
    2.8428   -5.5119   11.1614 C   0  0  0  0  0  0  0  0  0  0  0  0
    3.4547   -4.2599   10.9286 C   0  0  0  0  0  0  0  0  0  0  0  0
    4.5979   -3.7852   11.7275 C   0  0  0  0  0  0  0  0  0  0  0  0
    4.6207   -2.3624   12.6236 S   0  0  0  0  0  0  0  0  0  0  0  0
    6.2199   -2.4933   13.1295 C   0  0  0  0  0  0  0  0  0  0  0  0
    6.9422   -1.4574   13.9361 C   0  0  0  0  0  0  0  0  0  0  0  0
    7.6165   -0.4358   13.0248 C   0  0  0  0  0  0  0  0  0  0  0  0
    6.7710   -3.6463   12.5716 C   0  0  0  0  0  0  0  0  0  0  0  0
    8.4504   -4.1195   12.7852 Cl  0  0  0  0  0  0  0  0  0  0  0  0
    5.8618   -4.3710   11.7864 C   0  0  0  0  0  0  0  0  0  0  0  0
    6.3010   -5.8228   10.8964 Cl  0  0  0  0  0  0  0  0  0  0  0  0
    2.9451   -3.4923    9.8659 C   0  0  0  0  0  0  0  0  0  0  0  0
    1.9096   -3.9476    9.0437 C   0  0  0  0  0  0  0  0  0  0  0  0
    1.3112   -5.2003    9.2671 C   0  0  0  0  0  0  0  0  0  0  0  0
    0.2253   -5.6972    8.4078 C   0  0  0  0  0  0  0  0  0  0  0  0
    0.4233   -6.2182    6.8200 S   0  0  0  0  0  0  0  0  0  0  0  0
   -1.2125   -6.4585    6.5071 C   0  0  0  0  0  0  0  0  0  0  0  0
   -1.7708   -6.8834    5.1813 C   0  0  0  0  0  0  0  0  0  0  0  0
   -1.8385   -5.7021    4.2183 C   0  0  0  0  0  0  0  0  0  0  0  0
   -1.9418   -6.1073    7.6456 C   0  0  0  0  0  0  0  0  0  0  0  0
   -1.1314   -5.6867    8.7125 C   0  0  0  0  0  0  0  0  0  0  0  0
   -1.7661   -5.1214   10.2506 Cl  0  0  0  0  0  0  0  0  0  0  0  0
   -3.6973   -6.1326    7.7254 Cl  0  0  0  0  0  0  0  0  0  0  0  0
    1.7962   -5.9528   10.3460 C   0  0  0  0  0  0  0  0  0  0  0  0
    1.2949   -7.4720   10.8637 S   0  0  0  0  0  0  0  0  0  0  0  0
    1.5759   -3.0487    8.0242 C   0  0  0  0  0  0  0  0  0  0  0  0
    2.3518   -1.8928    8.0422 C   0  0  0  0  0  0  0  0  0  0  0  0
    3.4527   -1.9799    9.3214 S   0  0  0  0  0  0  0  0  0  0  0  0
    2.2595   -0.8100    7.0553 C   0  0  0  0  0  0  0  0  0  0  0  0
    2.8505    0.4527    7.1452 C   0  0  0  0  0  0  0  0  0  0  0  0
    2.5887    1.2570    6.0206 C   0  0  0  0  0  0  0  0  0  0  0  0
    3.0100    2.5908    5.8149 C   0  0  0  0  0  0  0  0  0  0  0  0
    3.7701    3.3371    6.8321 C   0  0  0  0  0  0  0  0  0  0  0  0
    5.3282    3.9351    6.6183 S   0  0  0  0  0  0  0  0  0  0  0  0
    5.4645    4.6346    8.1428 C   0  0  0  0  0  0  0  0  0  0  0  0
    6.6982    5.3115    8.6606 C   0  0  0  0  0  0  0  0  0  0  0  0
    7.5820    4.3177    9.4066 C   0  0  0  0  0  0  0  0  0  0  0  0
    4.2863    4.3964    8.8483 C   0  0  0  0  0  0  0  0  0  0  0  0
    4.0145    4.9468   10.4957 Cl  0  0  0  0  0  0  0  0  0  0  0  0
    3.3326    3.6770    8.1111 C   0  0  0  0  0  0  0  0  0  0  0  0
    1.7326    3.2865    8.7265 Cl  0  0  0  0  0  0  0  0  0  0  0  0
    2.6669    3.1828    4.5839 C   0  0  0  0  0  0  0  0  0  0  0  0
    1.9382    2.4974    3.6072 C   0  0  0  0  0  0  0  0  0  0  0  0
    1.4673    1.1938    3.8348 C   0  0  0  0  0  0  0  0  0  0  0  0
    0.6043    0.4974    2.8612 C   0  0  0  0  0  0  0  0  0  0  0  0
    0.9969   -0.9401    2.0829 S   0  0  0  0  0  0  0  0  0  0  0  0
   -0.4109   -1.0385    1.1675 C   0  0  0  0  0  0  0  0  0  0  0  0
   -0.7644   -2.1812    0.2645 C   0  0  0  0  0  0  0  0  0  0  0  0
   -1.5165   -3.2607    1.0356 C   0  0  0  0  0  0  0  0  0  0  0  0
   -1.2243    0.0456    1.4834 C   0  0  0  0  0  0  0  0  0  0  0  0
   -0.6563    0.9097    2.4303 C   0  0  0  0  0  0  0  0  0  0  0  0
   -1.4868    2.3282    3.0555 Cl  0  0  0  0  0  0  0  0  0  0  0  0
   -2.8133    0.2986    0.7866 Cl  0  0  0  0  0  0  0  0  0  0  0  0
    1.8264    0.5976    5.0493 C   0  0  0  0  0  0  0  0  0  0  0  0
    1.4320   -0.9369    5.5919 S   0  0  0  0  0  0  0  0  0  0  0  0
    1.7188    3.2498    2.4524 C   0  0  0  0  0  0  0  0  0  0  0  0
    2.2247    4.5392    2.5371 C   0  0  0  0  0  0  0  0  0  0  0  0
    2.9578    4.7614    4.0430 S   0  0  0  0  0  0  0  0  0  0  0  0
    1.9485    5.5500    1.5188 C   0  0  0  0  0  0  0  0  0  0  0  0
    0.8726    6.4324    1.6403 C   0  0  0  0  0  0  0  0  0  0  0  0
    0.2445    6.7174    0.4137 C   0  0  0  0  0  0  0  0  0  0  0  0
   -1.0100    7.3424    0.2506 C   0  0  0  0  0  0  0  0  0  0  0  0
   -1.7266    7.9688    1.3737 C   0  0  0  0  0  0  0  0  0  0  0  0
   -2.3761    7.1504    2.6926 S   0  0  0  0  0  0  0  0  0  0  0  0
   -3.0030    8.5155    3.4511 C   0  0  0  0  0  0  0  0  0  0  0  0
   -3.8015    8.4912    4.7187 C   0  0  0  0  0  0  0  0  0  0  0  0
   -5.2961    8.5309    4.4202 C   0  0  0  0  0  0  0  0  0  0  0  0
   -2.7309    9.6329    2.6622 C   0  0  0  0  0  0  0  0  0  0  0  0
   -3.2319   11.2657    3.0815 Cl  0  0  0  0  0  0  0  0  0  0  0  0
   -2.0179    9.3243    1.4945 C   0  0  0  0  0  0  0  0  0  0  0  0
   -1.5233   10.5291    0.3116 Cl  0  0  0  0  0  0  0  0  0  0  0  0
   -1.6165    7.2319   -1.0134 C   0  0  0  0  0  0  0  0  0  0  0  0
   -0.9928    6.5972   -2.0900 C   0  0  0  0  0  0  0  0  0  0  0  0
    0.2895    6.0357   -1.9479 C   0  0  0  0  0  0  0  0  0  0  0  0
    0.8518    5.1408   -2.9729 C   0  0  0  0  0  0  0  0  0  0  0  0
    2.0749    5.5515   -4.0479 S   0  0  0  0  0  0  0  0  0  0  0  0
    2.1353    4.0566   -4.8233 C   0  0  0  0  0  0  0  0  0  0  0  0
    3.0045    3.7461   -6.0032 C   0  0  0  0  0  0  0  0  0  0  0  0
    2.2376    3.9435   -7.3070 C   0  0  0  0  0  0  0  0  0  0  0  0
    1.1782    3.2173   -4.2541 C   0  0  0  0  0  0  0  0  0  0  0  0
    0.4621    3.8251   -3.2113 C   0  0  0  0  0  0  0  0  0  0  0  0
   -0.8052    3.0126   -2.2988 Cl  0  0  0  0  0  0  0  0  0  0  0  0
    0.8852    1.5685   -4.7868 Cl  0  0  0  0  0  0  0  0  0  0  0  0
    0.8753    6.1085   -0.6766 C   0  0  0  0  0  0  0  0  0  0  0  0
    2.1602    5.1911   -0.1158 S   0  0  0  0  0  0  0  0  0  0  0  0
   -1.8482    6.3785   -3.1752 C   0  0  0  0  0  0  0  0  0  0  0  0
   -3.1710    6.7409   -2.9258 C   0  0  0  0  0  0  0  0  0  0  0  0
   -3.2503    7.4228   -1.3800 S   0  0  0  0  0  0  0  0  0  0  0  0
   -4.2742    6.0027   -3.5575 C   0  0  0  0  0  0  0  0  0  0  0  0
   -4.2078    5.5643   -4.8817 C   0  0  0  0  0  0  0  0  0  0  0  0
   -4.7874    4.3017   -5.0865 C   0  0  0  0  0  0  0  0  0  0  0  0
   -4.6074    3.5016   -6.2329 C   0  0  0  0  0  0  0  0  0  0  0  0
   -3.9881    4.0432   -7.4577 C   0  0  0  0  0  0  0  0  0  0  0  0
   -2.5334    3.5201   -8.1244 S   0  0  0  0  0  0  0  0  0  0  0  0
   -2.5089    4.6231   -9.3945 C   0  0  0  0  0  0  0  0  0  0  0  0
   -1.4656    4.6654  -10.4683 C   0  0  0  0  0  0  0  0  0  0  0  0
   -1.8721    3.7919  -11.6509 C   0  0  0  0  0  0  0  0  0  0  0  0
   -3.6553    5.4132   -9.3185 C   0  0  0  0  0  0  0  0  0  0  0  0
   -4.0460    6.6717  -10.4840 Cl  0  0  0  0  0  0  0  0  0  0  0  0
   -4.4775    5.0957   -8.2282 C   0  0  0  0  0  0  0  0  0  0  0  0
   -5.9944    5.9207   -7.8925 Cl  0  0  0  0  0  0  0  0  0  0  0  0
   -4.9072    2.1336   -6.1012 C   0  0  0  0  0  0  0  0  0  0  0  0
   -5.4099    1.5836   -4.9162 C   0  0  0  0  0  0  0  0  0  0  0  0
   -5.7065    2.4104   -3.8138 C   0  0  0  0  0  0  0  0  0  0  0  0
   -6.2332    1.8712   -2.5469 C   0  0  0  0  0  0  0  0  0  0  0  0
   -5.4350    0.7804   -1.5443 S   0  0  0  0  0  0  0  0  0  0  0  0
   -6.6511    0.6736   -0.3867 C   0  0  0  0  0  0  0  0  0  0  0  0
   -6.5807   -0.1741    0.8493 C   0  0  0  0  0  0  0  0  0  0  0  0
   -6.3421    0.6778    2.0918 C   0  0  0  0  0  0  0  0  0  0  0  0
   -7.7022    1.5088   -0.7678 C   0  0  0  0  0  0  0  0  0  0  0  0
   -7.4619    2.1871   -1.9729 C   0  0  0  0  0  0  0  0  0  0  0  0
   -8.6203    3.2839   -2.7134 Cl  0  0  0  0  0  0  0  0  0  0  0  0
   -9.1937    1.6741    0.1481 Cl  0  0  0  0  0  0  0  0  0  0  0  0
   -5.3624    3.7672   -3.9292 C   0  0  0  0  0  0  0  0  0  0  0  0
   -5.1392    4.8533   -2.6692 S   0  0  0  0  0  0  0  0  0  0  0  0
   -5.4335    0.1788   -4.9292 C   0  0  0  0  0  0  0  0  0  0  0  0
   -4.9532   -0.3657   -6.1159 C   0  0  0  0  0  0  0  0  0  0  0  0
   -4.5110    0.8846   -7.1554 S   0  0  0  0  0  0  0  0  0  0  0  0
   -4.3790   -1.7059   -6.2152 C   0  0  0  0  0  0  0  0  0  0  0  0
   -3.0613   -2.2409   -5.3015 S   0  0  0  0  0  0  0  0  0  0  0  0
   -2.6756   -3.6202   -6.2106 C   0  0  0  0  0  0  0  0  0  0  0  0
   -3.5981   -3.6539   -7.2600 C   0  0  0  0  0  0  0  0  0  0  0  0
   -3.7586   -4.5227   -8.3439 C   0  0  0  0  0  0  0  0  0  0  0  0
   -4.8010   -4.1157   -9.1826 C   0  0  0  0  0  0  0  0  0  0  0  0
   -5.2564   -4.8539  -10.3669 C   0  0  0  0  0  0  0  0  0  0  0  0
   -6.2078   -4.4047  -11.0609 O   0  0  0  0  0  0  0  0  0  0  0  0
   -4.6407   -6.0646  -10.7012 O   0  0  0  0  0  0  0  0  0  0  0  0
   -5.0900   -6.8946  -11.7673 C   0  0  0  0  0  0  0  0  0  0  0  0
   -4.2152   -8.1359  -11.8420 C   0  0  0  0  0  0  0  0  0  0  0  0
   -5.5071   -2.6822   -8.5934 S   0  0  0  0  0  0  0  0  0  0  0  0
   -4.4941   -2.6020   -7.2596 C   0  0  0  0  0  0  0  0  0  0  0  0
   -1.4609   -4.4380   -6.0167 C   0  0  0  0  0  0  0  0  0  0  0  0
   -0.4495   -4.1654   -5.0925 C   0  0  0  0  0  0  0  0  0  0  0  0
    0.6635   -5.0153   -5.2212 C   0  0  0  0  0  0  0  0  0  0  0  0
    1.8538   -4.9660   -4.4622 C   0  0  0  0  0  0  0  0  0  0  0  0
    2.0799   -3.9522   -3.4136 C   0  0  0  0  0  0  0  0  0  0  0  0
    2.1285   -2.2901   -3.6777 S   0  0  0  0  0  0  0  0  0  0  0  0
    2.5519   -1.8641   -2.1061 C   0  0  0  0  0  0  0  0  0  0  0  0
    2.8135   -0.4619   -1.6413 C   0  0  0  0  0  0  0  0  0  0  0  0
    4.3091   -0.1669   -1.6070 C   0  0  0  0  0  0  0  0  0  0  0  0
    2.6923   -3.0305   -1.3548 C   0  0  0  0  0  0  0  0  0  0  0  0
    3.1950   -3.0516    0.3298 Cl  0  0  0  0  0  0  0  0  0  0  0  0
    2.4138   -4.1984   -2.0822 C   0  0  0  0  0  0  0  0  0  0  0  0
    2.4305   -5.8032   -1.3622 Cl  0  0  0  0  0  0  0  0  0  0  0  0
    2.8559   -5.8993   -4.7972 C   0  0  0  0  0  0  0  0  0  0  0  0
    2.6979   -6.8456   -5.8139 C   0  0  0  0  0  0  0  0  0  0  0  0
    1.5030   -6.9043   -6.5561 C   0  0  0  0  0  0  0  0  0  0  0  0
    1.3240   -7.8446   -7.6763 C   0  0  0  0  0  0  0  0  0  0  0  0
    1.1773   -7.3896   -9.2888 S   0  0  0  0  0  0  0  0  0  0  0  0
    1.0606   -8.9507   -9.9046 C   0  0  0  0  0  0  0  0  0  0  0  0
    0.9894   -9.2806  -11.3627 C   0  0  0  0  0  0  0  0  0  0  0  0
    2.3881   -9.4641  -11.9387 C   0  0  0  0  0  0  0  0  0  0  0  0
    1.1528   -9.8551   -8.8476 C   0  0  0  0  0  0  0  0  0  0  0  0
    1.2941   -9.2361   -7.5973 C   0  0  0  0  0  0  0  0  0  0  0  0
    1.3908  -10.1261   -6.0818 Cl  0  0  0  0  0  0  0  0  0  0  0  0
    1.1026  -11.5993   -9.0605 Cl  0  0  0  0  0  0  0  0  0  0  0  0
    0.5112   -5.9648   -6.2368 C   0  0  0  0  0  0  0  0  0  0  0  0
   -0.9842   -5.7455   -6.9699 S   0  0  0  0  0  0  0  0  0  0  0  0
    3.8467   -7.6276   -6.0241 C   0  0  0  0  0  0  0  0  0  0  0  0
    4.9004   -7.2953   -5.1804 C   0  0  0  0  0  0  0  0  0  0  0  0
    4.4169   -6.0264   -4.1823 S   0  0  0  0  0  0  0  0  0  0  0  0
    2.4814   -8.4168   12.8221 H   0  0  0  0  0  0  0  0  0  0  0  0
    3.9418   -6.2644   12.9135 H   0  0  0  0  0  0  0  0  0  0  0  0
    7.7078   -1.9418   14.5796 H   0  0  0  0  0  0  0  0  0  0  0  0
    6.2193   -0.9343   14.5980 H   0  0  0  0  0  0  0  0  0  0  0  0
    8.3484   -0.9411   12.3564 H   0  0  0  0  0  0  0  0  0  0  0  0
    8.1565    0.3112   13.6435 H   0  0  0  0  0  0  0  0  0  0  0  0
    6.8561    0.0910   12.4100 H   0  0  0  0  0  0  0  0  0  0  0  0
   -2.7848   -7.3163    5.3059 H   0  0  0  0  0  0  0  0  0  0  0  0
   -1.1199   -7.6726    4.7474 H   0  0  0  0  0  0  0  0  0  0  0  0
   -2.2625   -6.0364    3.2480 H   0  0  0  0  0  0  0  0  0  0  0  0
   -2.4890   -4.9031    4.6346 H   0  0  0  0  0  0  0  0  0  0  0  0
   -0.8204   -5.2933    4.0387 H   0  0  0  0  0  0  0  0  0  0  0  0
    0.8002   -3.2324    7.2917 H   0  0  0  0  0  0  0  0  0  0  0  0
    3.4383    0.7727    7.9942 H   0  0  0  0  0  0  0  0  0  0  0  0
    7.2693    5.7403    7.8090 H   0  0  0  0  0  0  0  0  0  0  0  0
    6.4198    6.1452    9.3398 H   0  0  0  0  0  0  0  0  0  0  0  0
    8.5020    4.8290    9.7589 H   0  0  0  0  0  0  0  0  0  0  0  0
    7.8761    3.4833    8.7344 H   0  0  0  0  0  0  0  0  0  0  0  0
    7.0442    3.9058   10.2885 H   0  0  0  0  0  0  0  0  0  0  0  0
   -1.3887   -1.8216   -0.5806 H   0  0  0  0  0  0  0  0  0  0  0  0
    0.1613   -2.6181   -0.1610 H   0  0  0  0  0  0  0  0  0  0  0  0
   -2.4488   -2.8446    1.4767 H   0  0  0  0  0  0  0  0  0  0  0  0
   -1.7863   -4.0883    0.3475 H   0  0  0  0  0  0  0  0  0  0  0  0
   -0.8757   -3.6643    1.8485 H   0  0  0  0  0  0  0  0  0  0  0  0
    1.1649    2.8929    1.5927 H   0  0  0  0  0  0  0  0  0  0  0  0
    0.4541    6.6967    2.6004 H   0  0  0  0  0  0  0  0  0  0  0  0
   -3.5231    9.3549    5.3582 H   0  0  0  0  0  0  0  0  0  0  0  0
   -3.5691    7.5621    5.2817 H   0  0  0  0  0  0  0  0  0  0  0  0
   -5.8665    8.4875    5.3718 H   0  0  0  0  0  0  0  0  0  0  0  0
   -5.5862    7.6625    3.7914 H   0  0  0  0  0  0  0  0  0  0  0  0
   -5.5606    9.4721    3.8945 H   0  0  0  0  0  0  0  0  0  0  0  0
    3.8900    4.4179   -5.9935 H   0  0  0  0  0  0  0  0  0  0  0  0
    3.3706    2.6983   -5.9393 H   0  0  0  0  0  0  0  0  0  0  0  0
    1.8417    4.9783   -7.3715 H   0  0  0  0  0  0  0  0  0  0  0  0
    2.9159    3.7691   -8.1675 H   0  0  0  0  0  0  0  0  0  0  0  0
    1.3917    3.2266   -7.3682 H   0  0  0  0  0  0  0  0  0  0  0  0
   -1.5556    5.7946   -4.0402 H   0  0  0  0  0  0  0  0  0  0  0  0
   -3.5776    6.0467   -5.6175 H   0  0  0  0  0  0  0  0  0  0  0  0
   -0.4979    4.3031  -10.0608 H   0  0  0  0  0  0  0  0  0  0  0  0
   -1.3179    5.7107  -10.8129 H   0  0  0  0  0  0  0  0  0  0  0  0
   -1.9734    2.7339  -11.3309 H   0  0  0  0  0  0  0  0  0  0  0  0
   -2.8376    4.1400  -12.0760 H   0  0  0  0  0  0  0  0  0  0  0  0
   -1.0964    3.8543  -12.4423 H   0  0  0  0  0  0  0  0  0  0  0  0
   -5.7509   -0.9050    0.7478 H   0  0  0  0  0  0  0  0  0  0  0  0
   -7.5258   -0.7454    0.9679 H   0  0  0  0  0  0  0  0  0  0  0  0
   -6.2248    0.0182    2.9779 H   0  0  0  0  0  0  0  0  0  0  0  0
   -7.2046    1.3504    2.2724 H   0  0  0  0  0  0  0  0  0  0  0  0
   -5.4195    1.2833    1.9742 H   0  0  0  0  0  0  0  0  0  0  0  0
   -5.6899   -0.4323   -4.0752 H   0  0  0  0  0  0  0  0  0  0  0  0
   -3.1698   -5.4098   -8.5231 H   0  0  0  0  0  0  0  0  0  0  0  0
   -6.1430   -7.1969  -11.5867 H   0  0  0  0  0  0  0  0  0  0  0  0
   -5.0268   -6.3399  -12.7281 H   0  0  0  0  0  0  0  0  0  0  0  0
   -3.1773   -7.8526  -12.1101 H   0  0  0  0  0  0  0  0  0  0  0  0
   -4.2104   -8.6536  -10.8604 H   0  0  0  0  0  0  0  0  0  0  0  0
   -4.6110   -8.8294  -12.6134 H   0  0  0  0  0  0  0  0  0  0  0  0
   -0.5067   -3.3578   -4.3743 H   0  0  0  0  0  0  0  0  0  0  0  0
    2.3175    0.2536   -2.3296 H   0  0  0  0  0  0  0  0  0  0  0  0
    2.3823   -0.3132   -0.6301 H   0  0  0  0  0  0  0  0  0  0  0  0
    4.8182   -0.8272   -0.8741 H   0  0  0  0  0  0  0  0  0  0  0  0
    4.4731    0.8881   -1.3028 H   0  0  0  0  0  0  0  0  0  0  0  0
    4.7561   -0.3206   -2.6125 H   0  0  0  0  0  0  0  0  0  0  0  0
    0.4773   -8.4543  -11.9004 H   0  0  0  0  0  0  0  0  0  0  0  0
    0.3944  -10.2058  -11.5177 H   0  0  0  0  0  0  0  0  0  0  0  0
    2.9828   -8.5338  -11.8096 H   0  0  0  0  0  0  0  0  0  0  0  0
    2.3181   -9.6942  -13.0222 H   0  0  0  0  0  0  0  0  0  0  0  0
    2.9090  -10.3039  -11.4307 H   0  0  0  0  0  0  0  0  0  0  0  0
    3.9258   -8.4000   -6.7774 H   0  0  0  0  0  0  0  0  0  0  0  0
    5.8761   -7.7634   -5.1799 H   0  0  0  0  0  0  0  0  0  0  0  0
  1  2  2  0
  2  3  1  0
  3  4  2  0
  4  5  1  0
  5  6  1  0
  6  7  1  0
  7  8  1  0
  8  9  1  0
  7 10  2  0
 10 11  1  0
 10 12  1  0
 12 13  1  0
  4 14  1  0
 14 15  2  0
 15 16  1  0
 16 17  1  0
 17 18  1  0
 18 19  1  0
 19 20  1  0
 20 21  1  0
 19 22  2  0
 22 23  1  0
 23 24  1  0
 22 25  1  0
 16 26  2  0
 26 27  1  0
 15 28  1  0
 28 29  2  0
 29 30  1  0
 29 31  1  0
 31 32  2  0
 32 33  1  0
 33 34  2  0
 34 35  1  0
 35 36  1  0
 36 37  1  0
 37 38  1  0
 38 39  1  0
 37 40  2  0
 40 41  1  0
 40 42  1  0
 42 43  1  0
 34 44  1  0
 44 45  2  0
 45 46  1  0
 46 47  1  0
 47 48  1  0
 48 49  1  0
 49 50  1  0
 50 51  1  0
 49 52  2  0
 52 53  1  0
 53 54  1  0
 52 55  1  0
 46 56  2  0
 56 57  1  0
 45 58  1  0
 58 59  2  0
 59 60  1  0
 59 61  1  0
 61 62  2  0
 62 63  1  0
 63 64  2  0
 64 65  1  0
 65 66  1  0
 66 67  1  0
 67 68  1  0
 68 69  1  0
 67 70  2  0
 70 71  1  0
 70 72  1  0
 72 73  1  0
 64 74  1  0
 74 75  2  0
 75 76  1  0
 76 77  1  0
 77 78  1  0
 78 79  1  0
 79 80  1  0
 80 81  1  0
 79 82  2  0
 82 83  1  0
 83 84  1  0
 82 85  1  0
 76 86  2  0
 86 87  1  0
 75 88  1  0
 88 89  2  0
 89 90  1  0
 89 91  1  0
 91 92  2  0
 92 93  1  0
 93 94  2  0
 94 95  1  0
 95 96  1  0
 96 97  1  0
 97 98  1  0
 98 99  1  0
 97100  2  0
100101  1  0
100102  1  0
102103  1  0
 94104  1  0
104105  2  0
105106  1  0
106107  1  0
107108  1  0
108109  1  0
109110  1  0
110111  1  0
109112  2  0
112113  1  0
113114  1  0
112115  1  0
106116  2  0
116117  1  0
105118  1  0
118119  2  0
119120  1  0
119121  1  0
121122  1  0
122123  1  0
123124  2  0
124125  1  0
125126  2  0
126127  1  0
127128  2  0
127129  1  0
129130  1  0
130131  1  0
126132  1  0
132133  1  0
123134  1  0
134135  2  0
135136  1  0
136137  2  0
137138  1  0
138139  1  0
139140  1  0
140141  1  0
141142  1  0
140143  2  0
143144  1  0
143145  1  0
145146  1  0
137147  1  0
147148  2  0
148149  1  0
149150  1  0
150151  1  0
151152  1  0
152153  1  0
153154  1  0
152155  2  0
155156  1  0
156157  1  0
155158  1  0
149159  2  0
159160  1  0
148161  1  0
161162  2  0
162163  1  0
 27  1  1  0
 57 31  1  0
 87 61  1  0
117 91  1  0
133121  2  0
160134  1  0
 26  3  1  0
 56 33  1  0
 86 63  1  0
116 93  1  0
133124  1  0
159136  1  0
 12  5  2  0
 30 14  1  0
 42 35  2  0
 60 44  1  0
 72 65  2  0
 90 74  1  0
102 95  2  0
120104  1  0
145138  2  0
163147  1  0
 23 17  2  0
 53 47  2  0
 83 77  2  0
113107  2  0
156150  2  0
  1164  1  0
  2165  1  0
  8166  1  0
  8167  1  0
  9168  1  0
  9169  1  0
  9170  1  0
 20171  1  0
 20172  1  0
 21173  1  0
 21174  1  0
 21175  1  0
 28176  1  0
 32177  1  0
 38178  1  0
 38179  1  0
 39180  1  0
 39181  1  0
 39182  1  0
 50183  1  0
 50184  1  0
 51185  1  0
 51186  1  0
 51187  1  0
 58188  1  0
 62189  1  0
 68190  1  0
 68191  1  0
 69192  1  0
 69193  1  0
 69194  1  0
 80195  1  0
 80196  1  0
 81197  1  0
 81198  1  0
 81199  1  0
 88200  1  0
 92201  1  0
 98202  1  0
 98203  1  0
 99204  1  0
 99205  1  0
 99206  1  0
110207  1  0
110208  1  0
111209  1  0
111210  1  0
111211  1  0
118212  1  0
125213  1  0
130214  1  0
130215  1  0
131216  1  0
131217  1  0
131218  1  0
135219  1  0
141220  1  0
141221  1  0
142222  1  0
142223  1  0
142224  1  0
153225  1  0
153226  1  0
154227  1  0
154228  1  0
154229  1  0
161230  1  0
162231  1  0
M  END

