
     RDKit          3D

 56 61  0  0  0  0  0  0  0  0999 V2000
    8.5133   -2.9603    3.9413 C   0  0  0  0  0  0  0  0  0  0  0  0
    8.2461   -2.9831    2.2848 S   0  0  0  0  0  0  0  0  0  0  0  0
    6.6434   -2.4638    2.3159 C   0  0  0  0  0  0  0  0  0  0  0  0
    6.2953   -2.2558    3.6570 C   0  0  0  0  0  0  0  0  0  0  0  0
    7.3421   -2.5388    4.5550 C   0  0  0  0  0  0  0  0  0  0  0  0
    7.2307   -2.4103    5.9860 C   0  0  0  0  0  0  0  0  0  0  0  0
    7.1410   -2.3074    7.1353 N   0  0  0  0  0  0  0  0  0  0  0  0
    4.9865   -1.8344    4.0967 C   0  0  0  0  0  0  0  0  0  0  0  0
    3.9378   -1.4964    4.4513 N   0  0  0  0  0  0  0  0  0  0  0  0
    5.8064   -2.2201    1.1161 C   0  0  0  0  0  0  0  0  0  0  0  0
    4.5352   -1.1170    1.0336 S   0  0  0  0  0  0  0  0  0  0  0  0
    4.1581   -1.3522   -0.5846 C   0  0  0  0  0  0  0  0  0  0  0  0
    5.0138   -2.3285   -1.0949 C   0  0  0  0  0  0  0  0  0  0  0  0
    5.9414   -2.8084   -0.1490 C   0  0  0  0  0  0  0  0  0  0  0  0
    6.8842   -3.8588   -0.4528 C   0  0  0  0  0  0  0  0  0  0  0  0
    7.6362   -4.7016   -0.7010 N   0  0  0  0  0  0  0  0  0  0  0  0
    4.8969   -2.8695   -2.4280 C   0  0  0  0  0  0  0  0  0  0  0  0
    4.8032   -3.3052   -3.4960 N   0  0  0  0  0  0  0  0  0  0  0  0
    3.0585   -0.6685   -1.2858 C   0  0  0  0  0  0  0  0  0  0  0  0
    1.5039   -0.5034   -0.6654 S   0  0  0  0  0  0  0  0  0  0  0  0
    0.8771    0.3787   -1.9523 C   0  0  0  0  0  0  0  0  0  0  0  0
    1.8860    0.5556   -2.9017 C   0  0  0  0  0  0  0  0  0  0  0  0
    3.1123   -0.0229   -2.5233 C   0  0  0  0  0  0  0  0  0  0  0  0
    4.3172    0.1015   -3.3078 C   0  0  0  0  0  0  0  0  0  0  0  0
    5.2826    0.2025   -3.9374 N   0  0  0  0  0  0  0  0  0  0  0  0
    1.6787    1.2004   -4.1764 C   0  0  0  0  0  0  0  0  0  0  0  0
    1.5130    1.7156   -5.1992 N   0  0  0  0  0  0  0  0  0  0  0  0
   -0.5211    0.8315   -2.0393 C   0  0  0  0  0  0  0  0  0  0  0  0
   -1.8497   -0.1451   -1.7212 S   0  0  0  0  0  0  0  0  0  0  0  0
   -3.0310    1.0281   -1.9780 C   0  0  0  0  0  0  0  0  0  0  0  0
   -2.3838    2.2279   -2.2965 C   0  0  0  0  0  0  0  0  0  0  0  0
   -0.9802    2.1163   -2.3307 C   0  0  0  0  0  0  0  0  0  0  0  0
   -0.1056    3.2423   -2.5561 C   0  0  0  0  0  0  0  0  0  0  0  0
    0.5945    4.1459   -2.7354 N   0  0  0  0  0  0  0  0  0  0  0  0
   -3.0752    3.4599   -2.5909 C   0  0  0  0  0  0  0  0  0  0  0  0
   -3.6272    4.4486   -2.8276 N   0  0  0  0  0  0  0  0  0  0  0  0
   -4.4878    0.8080   -1.8280 C   0  0  0  0  0  0  0  0  0  0  0  0
   -5.5849    1.9575   -1.2760 S   0  0  0  0  0  0  0  0  0  0  0  0
   -6.9638    0.9973   -1.3549 C   0  0  0  0  0  0  0  0  0  0  0  0
   -6.5789   -0.2619   -1.8278 C   0  0  0  0  0  0  0  0  0  0  0  0
   -5.1969   -0.3703   -2.0824 C   0  0  0  0  0  0  0  0  0  0  0  0
   -4.5925   -1.5704   -2.6107 C   0  0  0  0  0  0  0  0  0  0  0  0
   -4.1116   -2.5332   -3.0371 N   0  0  0  0  0  0  0  0  0  0  0  0
   -7.4932   -1.3658   -2.0023 C   0  0  0  0  0  0  0  0  0  0  0  0
   -8.2238   -2.2524   -2.1417 N   0  0  0  0  0  0  0  0  0  0  0  0
   -8.3347    1.4582   -1.0365 C   0  0  0  0  0  0  0  0  0  0  0  0
   -9.7363    0.9170   -1.7991 S   0  0  0  0  0  0  0  0  0  0  0  0
  -10.8175    1.9093   -0.9845 C   0  0  0  0  0  0  0  0  0  0  0  0
  -10.0924    2.6894   -0.0942 C   0  0  0  0  0  0  0  0  0  0  0  0
   -8.7061    2.4488   -0.1206 C   0  0  0  0  0  0  0  0  0  0  0  0
   -7.7793    3.1267    0.7536 C   0  0  0  0  0  0  0  0  0  0  0  0
   -7.0386    3.6699    1.4574 N   0  0  0  0  0  0  0  0  0  0  0  0
  -10.7235    3.6528    0.7711 C   0  0  0  0  0  0  0  0  0  0  0  0
  -11.2288    4.4271    1.4674 N   0  0  0  0  0  0  0  0  0  0  0  0
    9.4373   -3.2246    4.4395 H   0  0  0  0  0  0  0  0  0  0  0  0
  -11.8894    1.9325   -1.1284 H   0  0  0  0  0  0  0  0  0  0  0  0
  1  2  1  0
  2  3  1  0
  3  4  2  0
  4  5  1  0
  5  6  1  0
  6  7  3  0
  4  8  1  0
  8  9  3  0
  3 10  1  0
 10 11  1  0
 11 12  1  0
 12 13  2  0
 13 14  1  0
 14 15  1  0
 15 16  3  0
 13 17  1  0
 17 18  3  0
 12 19  1  0
 19 20  1  0
 20 21  1  0
 21 22  2  0
 22 23  1  0
 23 24  1  0
 24 25  3  0
 22 26  1  0
 26 27  3  0
 21 28  1  0
 28 29  1  0
 29 30  1  0
 30 31  2  0
 31 32  1  0
 32 33  1  0
 33 34  3  0
 31 35  1  0
 35 36  3  0
 30 37  1  0
 37 38  1  0
 38 39  1  0
 39 40  2  0
 40 41  1  0
 41 42  1  0
 42 43  3  0
 40 44  1  0
 44 45  3  0
 39 46  1  0
 46 47  1  0
 47 48  1  0
 48 49  2  0
 49 50  1  0
 50 51  1  0
 51 52  3  0
 49 53  1  0
 53 54  3  0
  5  1  2  0
 14 10  2  0
 23 19  2  0
 32 28  2  0
 41 37  2  0
 50 46  2  0
  1 55  1  0
 48 56  1  0
M  END

