
     RDKit          3D

182199  0  0  0  0  0  0  0  0999 V2000
    5.2433   -7.9504   10.4183 C   0  0  0  0  0  0  0  0  0  0  0  0
    4.4272   -7.0920    9.8072 C   0  0  0  0  0  0  0  0  0  0  0  0
    3.1903   -7.7978    9.3213 C   0  0  0  0  0  0  0  0  0  0  0  0
    3.1292   -9.0625    9.6762 C   0  0  0  0  0  0  0  0  0  0  0  0
    4.5577   -9.5377   10.5457 S   0  0  0  0  0  3  0  0  0  0  0  0
    4.1977   -9.8233   12.1633 O   0  0  0  0  0  0  0  0  0  0  0  0
    2.1680   -7.2099    8.6185 O   0  0  0  0  0  0  0  0  0  0  0  0
    4.6527   -5.6228    9.9326 C   0  0  0  0  0  0  0  0  0  0  0  0
    3.9858   -4.5878    9.3493 C   0  0  0  0  0  0  0  0  0  0  0  0
    4.2937   -3.2893    9.9917 C   0  0  0  0  0  0  0  0  0  0  0  0
    5.2095   -3.3385   10.9462 C   0  0  0  0  0  0  0  0  0  0  0  0
    5.7909   -4.9550   11.1044 S   0  0  0  0  0  3  0  0  0  0  0  0
    7.3427   -5.0588   10.4527 O   0  0  0  0  0  0  0  0  0  0  0  0
    3.6439   -2.1165    9.6557 O   0  0  0  0  0  0  0  0  0  0  0  0
    3.1003   -4.6200    8.1870 C   0  0  0  0  0  0  0  0  0  0  0  0
    3.5222   -4.8586    6.8809 C   0  0  0  0  0  0  0  0  0  0  0  0
    2.5069   -4.6024    5.9082 C   0  0  0  0  0  0  0  0  0  0  0  0
    2.6568   -4.6992    4.5186 C   0  0  0  0  0  0  0  0  0  0  0  0
    3.9384   -4.9733    3.8564 C   0  0  0  0  0  0  0  0  0  0  0  0
    4.6916   -6.1172    4.1784 C   0  0  0  0  0  0  0  0  0  0  0  0
    5.9648   -6.3083    3.6171 C   0  0  0  0  0  0  0  0  0  0  0  0
    6.4696   -5.3589    2.7252 C   0  0  0  0  0  0  0  0  0  0  0  0
    8.1439   -5.5055    2.0764 S   0  0  0  0  0  0  0  0  0  0  0  0
    7.7610   -6.2289    0.4402 C   0  0  0  0  0  0  0  0  0  0  0  0
    7.2726   -7.6678    0.5618 C   0  0  0  0  0  0  0  0  0  0  0  0
    5.7111   -4.2535    2.3663 C   0  0  0  0  0  0  0  0  0  0  0  0
    6.2076   -3.3508    1.4808 F   0  0  0  0  0  0  0  0  0  0  0  0
    4.4486   -4.0547    2.9399 C   0  0  0  0  0  0  0  0  0  0  0  0
    1.5214   -4.3498    3.7217 C   0  0  0  0  0  0  0  0  0  0  0  0
    0.3381   -3.8987    4.2794 C   0  0  0  0  0  0  0  0  0  0  0  0
    0.2055   -3.7949    5.6617 C   0  0  0  0  0  0  0  0  0  0  0  0
   -1.0226   -3.3510    6.3365 C   0  0  0  0  0  0  0  0  0  0  0  0
   -1.5554   -2.0777    6.1000 C   0  0  0  0  0  0  0  0  0  0  0  0
   -2.7078   -1.6617    6.7928 C   0  0  0  0  0  0  0  0  0  0  0  0
   -3.3208   -2.5173    7.7099 C   0  0  0  0  0  0  0  0  0  0  0  0
   -4.8240   -2.0069    8.5602 S   0  0  0  0  0  0  0  0  0  0  0  0
   -4.0651   -1.1510    9.9922 C   0  0  0  0  0  0  0  0  0  0  0  0
   -3.4687   -2.1264   11.0003 C   0  0  0  0  0  0  0  0  0  0  0  0
   -2.7983   -3.7999    7.9228 C   0  0  0  0  0  0  0  0  0  0  0  0
   -1.6544   -4.2143    7.2368 C   0  0  0  0  0  0  0  0  0  0  0  0
   -3.4001   -4.6564    8.7897 F   0  0  0  0  0  0  0  0  0  0  0  0
    1.3232   -4.1659    6.4590 C   0  0  0  0  0  0  0  0  0  0  0  0
    1.5158   -4.0505    8.1251 S   0  0  0  0  0  0  0  0  0  0  0  0
   -0.6540   -3.5369    3.3072 C   0  0  0  0  0  0  0  0  0  0  0  0
   -0.2396   -3.7333    1.9842 C   0  0  0  0  0  0  0  0  0  0  0  0
    1.3376   -4.3429    2.0469 S   0  0  0  0  0  0  0  0  0  0  0  0
   -0.9481   -3.2772    0.7487 C   0  0  0  0  0  0  0  0  0  0  0  0
   -2.0286   -2.4091    0.6901 C   0  0  0  0  0  0  0  0  0  0  0  0
   -2.2739   -1.8829   -0.6197 C   0  0  0  0  0  0  0  0  0  0  0  0
   -3.1374   -0.8124   -0.9182 C   0  0  0  0  0  0  0  0  0  0  0  0
   -3.8830   -0.1733    0.1508 C   0  0  0  0  0  0  0  0  0  0  0  0
   -3.1586    0.4491    1.1788 C   0  0  0  0  0  0  0  0  0  0  0  0
   -3.6357    0.3923    2.4783 C   0  0  0  0  0  0  0  0  0  0  0  0
   -4.8868   -0.1612    2.7586 C   0  0  0  0  0  0  0  0  0  0  0  0
   -5.3803   -0.4174    4.4649 S   0  0  0  0  0  0  0  0  0  0  0  0
   -6.6443    0.9281    4.5070 C   0  0  0  0  0  0  0  0  0  0  0  0
   -6.5498    1.6920    5.8299 C   0  0  0  0  0  0  0  0  0  0  0  0
   -5.6826   -0.6406    1.7018 C   0  0  0  0  0  0  0  0  0  0  0  0
   -6.9081   -1.1603    1.9598 F   0  0  0  0  0  0  0  0  0  0  0  0
   -5.1812   -0.6348    0.3983 C   0  0  0  0  0  0  0  0  0  0  0  0
   -3.0880   -0.2889   -2.2476 C   0  0  0  0  0  0  0  0  0  0  0  0
   -2.2410   -0.8357   -3.2077 C   0  0  0  0  0  0  0  0  0  0  0  0
   -1.4102   -1.9079   -2.8983 C   0  0  0  0  0  0  0  0  0  0  0  0
   -0.4124   -2.4092   -3.8375 C   0  0  0  0  0  0  0  0  0  0  0  0
    0.9220   -1.9764   -3.7431 C   0  0  0  0  0  0  0  0  0  0  0  0
    1.8727   -2.4555   -4.6355 C   0  0  0  0  0  0  0  0  0  0  0  0
    1.5099   -3.3646   -5.6434 C   0  0  0  0  0  0  0  0  0  0  0  0
    2.7435   -3.9564   -6.8207 S   0  0  0  0  0  0  0  0  0  0  0  0
    3.1744   -5.5368   -5.9982 C   0  0  0  0  0  0  0  0  0  0  0  0
    4.0903   -5.3019   -4.8047 C   0  0  0  0  0  0  0  0  0  0  0  0
    0.1772   -3.7371   -5.7772 C   0  0  0  0  0  0  0  0  0  0  0  0
   -0.7919   -3.2661   -4.8748 C   0  0  0  0  0  0  0  0  0  0  0  0
   -0.1883   -4.6016   -6.7686 F   0  0  0  0  0  0  0  0  0  0  0  0
   -1.4286   -2.4183   -1.5748 C   0  0  0  0  0  0  0  0  0  0  0  0
   -0.3496   -3.4652   -0.8183 S   0  0  0  0  0  0  0  0  0  0  0  0
   -2.1664   -0.0839   -4.4048 C   0  0  0  0  0  0  0  0  0  0  0  0
   -2.9254    1.0775   -4.3753 C   0  0  0  0  0  0  0  0  0  0  0  0
   -3.7094    1.1503   -2.8712 S   0  0  0  0  0  0  0  0  0  0  0  0
   -2.6333    2.1977   -5.3304 C   0  0  0  0  0  0  0  0  0  0  0  0
   -3.4852    3.2521   -5.7105 C   0  0  0  0  0  0  0  0  0  0  0  0
   -2.8060    4.2462   -6.4867 C   0  0  0  0  0  0  0  0  0  0  0  0
   -3.3277    5.4980   -6.9155 C   0  0  0  0  0  0  0  0  0  0  0  0
   -4.7009    5.9839   -6.6076 C   0  0  0  0  0  0  0  0  0  0  0  0
   -5.2755    5.7707   -5.3467 C   0  0  0  0  0  0  0  0  0  0  0  0
   -6.6166    6.1148   -5.1195 C   0  0  0  0  0  0  0  0  0  0  0  0
   -7.3531    6.7698   -6.1049 C   0  0  0  0  0  0  0  0  0  0  0  0
   -9.0252    7.3320   -5.7153 S   0  0  0  0  0  0  0  0  0  0  0  0
   -9.9750    5.9787   -6.4959 C   0  0  0  0  0  0  0  0  0  0  0  0
   -9.9856    4.7312   -5.6261 C   0  0  0  0  0  0  0  0  0  0  0  0
   -6.7635    7.1017   -7.3104 C   0  0  0  0  0  0  0  0  0  0  0  0
   -7.4538    7.7886   -8.2563 F   0  0  0  0  0  0  0  0  0  0  0  0
   -5.4564    6.6503   -7.5945 C   0  0  0  0  0  0  0  0  0  0  0  0
   -2.4317    6.3572   -7.6343 C   0  0  0  0  0  0  0  0  0  0  0  0
   -1.1236    5.9859   -7.9245 C   0  0  0  0  0  0  0  0  0  0  0  0
   -0.6131    4.7712   -7.4702 C   0  0  0  0  0  0  0  0  0  0  0  0
    0.8243    4.4758   -7.4187 C   0  0  0  0  0  0  0  0  0  0  0  0
    1.5022    3.8490   -8.4690 C   0  0  0  0  0  0  0  0  0  0  0  0
    2.8616    3.5313   -8.3191 C   0  0  0  0  0  0  0  0  0  0  0  0
    3.5401    3.8400   -7.1185 C   0  0  0  0  0  0  0  0  0  0  0  0
    5.2824    3.4630   -6.9119 S   0  0  0  0  0  0  0  0  0  0  0  0
    5.1477    1.7207   -6.3904 C   0  0  0  0  0  0  0  0  0  0  0  0
    4.6091    1.5906   -4.9723 C   0  0  0  0  0  0  0  0  0  0  0  0
    2.8555    4.4900   -6.0922 C   0  0  0  0  0  0  0  0  0  0  0  0
    1.4971    4.8131   -6.2559 C   0  0  0  0  0  0  0  0  0  0  0  0
    3.4874    4.8211   -4.9507 F   0  0  0  0  0  0  0  0  0  0  0  0
   -1.4815    3.9333   -6.7477 C   0  0  0  0  0  0  0  0  0  0  0  0
   -1.1145    2.4770   -6.0033 S   0  0  0  0  0  0  0  0  0  0  0  0
   -0.3764    6.9719   -8.6127 C   0  0  0  0  0  0  0  0  0  0  0  0
   -1.0900    8.1518   -8.8283 C   0  0  0  0  0  0  0  0  0  0  0  0
   -2.6232    7.9442   -8.1684 S   0  0  0  0  0  0  0  0  0  0  0  0
   -0.5879    9.3687   -9.5054 C   0  0  0  0  0  0  0  0  0  0  0  0
    0.5132    9.4188  -10.2605 C   0  0  0  0  0  0  0  0  0  0  0  0
    0.7636   10.7570  -10.8255 C   0  0  0  0  0  0  0  0  0  0  0  0
   -0.1334   11.6650  -10.4323 C   0  0  0  0  0  0  0  0  0  0  0  0
   -1.2977   10.9474   -9.3530 S   0  0  0  0  0  3  0  0  0  0  0  0
   -1.0177   11.5462   -7.8009 O   0  0  0  0  0  0  0  0  0  0  0  0
    1.8000   11.0276  -11.6960 O   0  0  0  0  0  0  0  0  0  0  0  0
    6.1604   -7.6672   10.9413 H   0  0  0  0  0  0  0  0  0  0  0  0
    2.3173   -9.7308    9.3915 H   0  0  0  0  0  0  0  0  0  0  0  0
    3.9305  -10.7801   12.2336 H   0  0  0  0  0  0  0  0  0  0  0  0
    2.2210   -7.1961    7.6063 H   0  0  0  0  0  0  0  0  0  0  0  0
    5.5436   -2.4941   11.5465 H   0  0  0  0  0  0  0  0  0  0  0  0
    7.8509   -4.2904   10.8175 H   0  0  0  0  0  0  0  0  0  0  0  0
    3.5559   -1.3649   10.3225 H   0  0  0  0  0  0  0  0  0  0  0  0
    4.5226   -5.1398    6.6383 H   0  0  0  0  0  0  0  0  0  0  0  0
    4.3143   -6.8365    4.8781 H   0  0  0  0  0  0  0  0  0  0  0  0
    6.5616   -7.1643    3.8988 H   0  0  0  0  0  0  0  0  0  0  0  0
    8.7070   -6.2433   -0.1729 H   0  0  0  0  0  0  0  0  0  0  0  0
    7.0166   -5.6165   -0.1029 H   0  0  0  0  0  0  0  0  0  0  0  0
    6.3446   -7.7050    1.1736 H   0  0  0  0  0  0  0  0  0  0  0  0
    7.0393   -8.0759   -0.4475 H   0  0  0  0  0  0  0  0  0  0  0  0
    8.0565   -8.2992    1.0307 H   0  0  0  0  0  0  0  0  0  0  0  0
    3.9010   -3.1551    2.6813 H   0  0  0  0  0  0  0  0  0  0  0  0
   -1.0761   -1.4192    5.4028 H   0  0  0  0  0  0  0  0  0  0  0  0
   -3.1197   -0.6888    6.6049 H   0  0  0  0  0  0  0  0  0  0  0  0
   -3.2756   -0.4436    9.6481 H   0  0  0  0  0  0  0  0  0  0  0  0
   -4.8698   -0.5507   10.4986 H   0  0  0  0  0  0  0  0  0  0  0  0
   -2.5938   -2.6368   10.5517 H   0  0  0  0  0  0  0  0  0  0  0  0
   -4.2325   -2.8679   11.3408 H   0  0  0  0  0  0  0  0  0  0  0  0
   -3.1125   -1.5376   11.8677 H   0  0  0  0  0  0  0  0  0  0  0  0
   -1.2607   -5.2010    7.4263 H   0  0  0  0  0  0  0  0  0  0  0  0
   -1.6118   -3.1302    3.5540 H   0  0  0  0  0  0  0  0  0  0  0  0
   -2.5497   -2.1104    1.5663 H   0  0  0  0  0  0  0  0  0  0  0  0
   -2.1333    0.7853    1.0165 H   0  0  0  0  0  0  0  0  0  0  0  0
   -2.9855    0.7049    3.2836 H   0  0  0  0  0  0  0  0  0  0  0  0
   -7.6680    0.4774    4.4214 H   0  0  0  0  0  0  0  0  0  0  0  0
   -6.4954    1.6408    3.6722 H   0  0  0  0  0  0  0  0  0  0  0  0
   -6.9073    1.0550    6.6818 H   0  0  0  0  0  0  0  0  0  0  0  0
   -5.4970    2.0123    6.0081 H   0  0  0  0  0  0  0  0  0  0  0  0
   -7.1658    2.6265    5.7493 H   0  0  0  0  0  0  0  0  0  0  0  0
   -5.7232   -1.1506   -0.3894 H   0  0  0  0  0  0  0  0  0  0  0  0
    1.2152   -1.2837   -2.9714 H   0  0  0  0  0  0  0  0  0  0  0  0
    2.9061   -2.1180   -4.5619 H   0  0  0  0  0  0  0  0  0  0  0  0
    3.6986   -6.1923   -6.7284 H   0  0  0  0  0  0  0  0  0  0  0  0
    2.2557   -6.0694   -5.6605 H   0  0  0  0  0  0  0  0  0  0  0  0
    4.9260   -4.6348   -5.0918 H   0  0  0  0  0  0  0  0  0  0  0  0
    3.5061   -4.8287   -3.9907 H   0  0  0  0  0  0  0  0  0  0  0  0
    4.5062   -6.2760   -4.4490 H   0  0  0  0  0  0  0  0  0  0  0  0
   -1.8170   -3.5618   -4.9796 H   0  0  0  0  0  0  0  0  0  0  0  0
   -1.5107   -0.3387   -5.2119 H   0  0  0  0  0  0  0  0  0  0  0  0
   -4.5126    3.2747   -5.4509 H   0  0  0  0  0  0  0  0  0  0  0  0
   -4.7100    5.3132   -4.5590 H   0  0  0  0  0  0  0  0  0  0  0  0
   -7.0619    5.8510   -4.1773 H   0  0  0  0  0  0  0  0  0  0  0  0
   -9.5399    5.7150   -7.4866 H   0  0  0  0  0  0  0  0  0  0  0  0
  -11.0194    6.3276   -6.6709 H   0  0  0  0  0  0  0  0  0  0  0  0
   -8.9628    4.3101   -5.5904 H   0  0  0  0  0  0  0  0  0  0  0  0
  -10.3546    4.9413   -4.5997 H   0  0  0  0  0  0  0  0  0  0  0  0
  -10.6349    3.9621   -6.0992 H   0  0  0  0  0  0  0  0  0  0  0  0
   -5.0580    6.8086   -8.5874 H   0  0  0  0  0  0  0  0  0  0  0  0
    0.9959    3.5808   -9.3801 H   0  0  0  0  0  0  0  0  0  0  0  0
    3.3886    3.0403   -9.1173 H   0  0  0  0  0  0  0  0  0  0  0  0
    4.5385    1.1365   -7.1111 H   0  0  0  0  0  0  0  0  0  0  0  0
    6.1884    1.3072   -6.3918 H   0  0  0  0  0  0  0  0  0  0  0  0
    3.5808    1.9858   -4.8861 H   0  0  0  0  0  0  0  0  0  0  0  0
    4.5932    0.5117   -4.6955 H   0  0  0  0  0  0  0  0  0  0  0  0
    5.2804    2.1318   -4.2689 H   0  0  0  0  0  0  0  0  0  0  0  0
    0.9705    5.3093   -5.4496 H   0  0  0  0  0  0  0  0  0  0  0  0
    0.6440    6.8448   -8.9089 H   0  0  0  0  0  0  0  0  0  0  0  0
    1.1208    8.5626  -10.5054 H   0  0  0  0  0  0  0  0  0  0  0  0
   -0.1559   12.6982  -10.7652 H   0  0  0  0  0  0  0  0  0  0  0  0
   -1.0565   10.7607   -7.1919 H   0  0  0  0  0  0  0  0  0  0  0  0
    2.0616   11.9973  -11.8972 H   0  0  0  0  0  0  0  0  0  0  0  0
  1  2  2  0
  2  3  1  0
  3  4  2  0
  4  5  1  0
  5  6  1  0
  3  7  1  0
  2  8  1  0
  8  9  2  0
  9 10  1  0
 10 11  2  0
 11 12  1  0
 12 13  1  0
 10 14  1  0
  9 15  1  0
 15 16  2  0
 16 17  1  0
 17 18  2  0
 18 19  1  0
 19 20  2  0
 20 21  1  0
 21 22  2  0
 22 23  1  0
 23 24  1  0
 24 25  1  0
 22 26  1  0
 26 27  1  0
 26 28  2  0
 18 29  1  0
 29 30  2  0
 30 31  1  0
 31 32  1  0
 32 33  2  0
 33 34  1  0
 34 35  2  0
 35 36  1  0
 36 37  1  0
 37 38  1  0
 35 39  1  0
 39 40  2  0
 39 41  1  0
 31 42  2  0
 42 43  1  0
 30 44  1  0
 44 45  2  0
 45 46  1  0
 45 47  1  0
 47 48  2  0
 48 49  1  0
 49 50  2  0
 50 51  1  0
 51 52  2  0
 52 53  1  0
 53 54  2  0
 54 55  1  0
 55 56  1  0
 56 57  1  0
 54 58  1  0
 58 59  1  0
 58 60  2  0
 50 61  1  0
 61 62  2  0
 62 63  1  0
 63 64  1  0
 64 65  2  0
 65 66  1  0
 66 67  2  0
 67 68  1  0
 68 69  1  0
 69 70  1  0
 67 71  1  0
 71 72  2  0
 71 73  1  0
 63 74  2  0
 74 75  1  0
 62 76  1  0
 76 77  2  0
 77 78  1  0
 77 79  1  0
 79 80  2  0
 80 81  1  0
 81 82  2  0
 82 83  1  0
 83 84  2  0
 84 85  1  0
 85 86  2  0
 86 87  1  0
 87 88  1  0
 88 89  1  0
 86 90  1  0
 90 91  1  0
 90 92  2  0
 82 93  1  0
 93 94  2  0
 94 95  1  0
 95 96  1  0
 96 97  2  0
 97 98  1  0
 98 99  2  0
 99100  1  0
100101  1  0
101102  1  0
 99103  1  0
103104  2  0
103105  1  0
 95106  2  0
106107  1  0
 94108  1  0
108109  2  0
109110  1  0
109111  1  0
111112  2  0
112113  1  0
113114  2  0
114115  1  0
115116  1  0
113117  1  0
  5  1  1  0
 12  8  1  0
 43 15  1  0
 75 47  1  0
107 79  1  0
115111  1  0
 42 17  1  0
 74 49  1  0
106 81  1  0
 28 19  1  0
 46 29  1  0
 60 51  1  0
 78 61  1  0
 92 83  1  0
110 93  1  0
 40 32  1  0
 72 64  1  0
104 96  1  0
  1118  1  0
  4119  1  0
  6120  1  0
  7121  1  0
 11122  1  0
 13123  1  0
 14124  1  0
 16125  1  0
 20126  1  0
 21127  1  0
 24128  1  0
 24129  1  0
 25130  1  0
 25131  1  0
 25132  1  0
 28133  1  0
 33134  1  0
 34135  1  0
 37136  1  0
 37137  1  0
 38138  1  0
 38139  1  0
 38140  1  0
 40141  1  0
 44142  1  0
 48143  1  0
 52144  1  0
 53145  1  0
 56146  1  0
 56147  1  0
 57148  1  0
 57149  1  0
 57150  1  0
 60151  1  0
 65152  1  0
 66153  1  0
 69154  1  0
 69155  1  0
 70156  1  0
 70157  1  0
 70158  1  0
 72159  1  0
 76160  1  0
 80161  1  0
 84162  1  0
 85163  1  0
 88164  1  0
 88165  1  0
 89166  1  0
 89167  1  0
 89168  1  0
 92169  1  0
 97170  1  0
 98171  1  0
101172  1  0
101173  1  0
102174  1  0
102175  1  0
102176  1  0
104177  1  0
108178  1  0
112179  1  0
114180  1  0
116181  1  0
117182  1  0
M  RAD  3   5   2  12   2 115   2
M  END

