
     RDKit          3D

238263  0  0  0  0  0  0  0  0999 V2000
   -0.6413    0.6515   13.3389 C   0  0  0  0  0  0  0  0  0  0  0  0
   -1.8333    0.7468   12.6233 C   0  0  0  0  0  0  0  0  0  0  0  0
   -1.7428    0.2148   11.3259 C   0  0  0  0  0  0  0  0  0  0  0  0
   -2.7710    0.1815   10.3594 C   0  0  0  0  0  0  0  0  0  0  0  0
   -4.1199    0.6961   10.6536 C   0  0  0  0  0  0  0  0  0  0  0  0
   -4.5672    1.8930   10.0740 C   0  0  0  0  0  0  0  0  0  0  0  0
   -5.8216    2.4089   10.4089 C   0  0  0  0  0  0  0  0  0  0  0  0
   -6.6398    1.7328   11.3226 C   0  0  0  0  0  0  0  0  0  0  0  0
   -8.2668    2.3847   11.7300 S   0  0  0  0  0  0  0  0  0  0  0  0
   -7.7275    3.2563   13.2444 C   0  0  0  0  0  0  0  0  0  0  0  0
   -7.2029    4.6439   12.9119 C   0  0  0  0  0  0  0  0  0  0  0  0
   -6.2035    0.5291   11.8899 C   0  0  0  0  0  0  0  0  0  0  0  0
   -6.9921   -0.1478   12.7617 F   0  0  0  0  0  0  0  0  0  0  0  0
   -4.9449    0.0153   11.5609 C   0  0  0  0  0  0  0  0  0  0  0  0
   -2.4385   -0.3384    9.0930 C   0  0  0  0  0  0  0  0  0  0  0  0
   -1.1591   -0.8126    8.7912 C   0  0  0  0  0  0  0  0  0  0  0  0
   -0.1477   -0.8278    9.7739 C   0  0  0  0  0  0  0  0  0  0  0  0
    1.1911   -1.3742    9.4839 C   0  0  0  0  0  0  0  0  0  0  0  0
    1.3369   -2.7289    9.1450 C   0  0  0  0  0  0  0  0  0  0  0  0
    2.5798   -3.2220    8.7418 C   0  0  0  0  0  0  0  0  0  0  0  0
    3.6864   -2.3658    8.6831 C   0  0  0  0  0  0  0  0  0  0  0  0
    5.2356   -2.9542    8.0033 S   0  0  0  0  0  0  0  0  0  0  0  0
    4.7959   -2.4486    6.3037 C   0  0  0  0  0  0  0  0  0  0  0  0
    6.0244   -2.4715    5.4160 C   0  0  0  0  0  0  0  0  0  0  0  0
    3.5567   -1.0280    9.0854 C   0  0  0  0  0  0  0  0  0  0  0  0
    2.3122   -0.5331    9.4798 C   0  0  0  0  0  0  0  0  0  0  0  0
    4.6284   -0.1956    9.0440 F   0  0  0  0  0  0  0  0  0  0  0  0
   -0.4724   -0.2884   11.0280 C   0  0  0  0  0  0  0  0  0  0  0  0
    0.5228   -0.0947   12.3714 S   0  0  0  0  0  0  0  0  0  0  0  0
   -1.0098   -1.1958    7.4517 C   0  0  0  0  0  0  0  0  0  0  0  0
   -2.1824   -1.0630    6.7149 C   0  0  0  0  0  0  0  0  0  0  0  0
   -3.4053   -0.4522    7.7130 S   0  0  0  0  0  0  0  0  0  0  0  0
   -2.2815   -1.2855    5.2672 C   0  0  0  0  0  0  0  0  0  0  0  0
   -1.3487   -0.8428    4.3333 C   0  0  0  0  0  0  0  0  0  0  0  0
   -1.6358   -1.2689    3.0261 C   0  0  0  0  0  0  0  0  0  0  0  0
   -0.8931   -0.9595    1.8692 C   0  0  0  0  0  0  0  0  0  0  0  0
    0.2531   -0.0292    1.9078 C   0  0  0  0  0  0  0  0  0  0  0  0
    0.0479    1.3169    2.2425 C   0  0  0  0  0  0  0  0  0  0  0  0
    1.1239    2.2062    2.2749 C   0  0  0  0  0  0  0  0  0  0  0  0
    2.4162    1.7570    1.9791 C   0  0  0  0  0  0  0  0  0  0  0  0
    3.7974    2.9069    2.0421 S   0  0  0  0  0  0  0  0  0  0  0  0
    3.7642    3.3280    0.2620 C   0  0  0  0  0  0  0  0  0  0  0  0
    2.6518    4.3220   -0.0499 C   0  0  0  0  0  0  0  0  0  0  0  0
    2.6338    0.4048    1.6798 C   0  0  0  0  0  0  0  0  0  0  0  0
    3.8917   -0.0561    1.4570 F   0  0  0  0  0  0  0  0  0  0  0  0
    1.5517   -0.4814    1.6219 C   0  0  0  0  0  0  0  0  0  0  0  0
   -1.3256   -1.5388    0.6610 C   0  0  0  0  0  0  0  0  0  0  0  0
   -2.4418   -2.3810    0.5860 C   0  0  0  0  0  0  0  0  0  0  0  0
   -3.1974   -2.6751    1.7453 C   0  0  0  0  0  0  0  0  0  0  0  0
   -4.3663   -3.5790    1.7187 C   0  0  0  0  0  0  0  0  0  0  0  0
   -5.5338   -3.2177    1.0254 C   0  0  0  0  0  0  0  0  0  0  0  0
   -6.6593   -4.0468    1.0692 C   0  0  0  0  0  0  0  0  0  0  0  0
   -6.6269   -5.2454    1.7955 C   0  0  0  0  0  0  0  0  0  0  0  0
   -8.1025   -6.2653    1.9202 S   0  0  0  0  0  0  0  0  0  0  0  0
   -7.7202   -7.3179    0.4758 C   0  0  0  0  0  0  0  0  0  0  0  0
   -8.3167   -6.7193   -0.7902 C   0  0  0  0  0  0  0  0  0  0  0  0
   -5.4578   -5.6162    2.4693 C   0  0  0  0  0  0  0  0  0  0  0  0
   -4.3331   -4.7853    2.4315 C   0  0  0  0  0  0  0  0  0  0  0  0
   -5.4112   -6.7739    3.1789 F   0  0  0  0  0  0  0  0  0  0  0  0
   -2.7661   -2.0874    2.9516 C   0  0  0  0  0  0  0  0  0  0  0  0
   -3.4484   -2.2261    4.4901 S   0  0  0  0  0  0  0  0  0  0  0  0
   -2.6785   -2.8646   -0.7134 C   0  0  0  0  0  0  0  0  0  0  0  0
   -1.7617   -2.3805   -1.6482 C   0  0  0  0  0  0  0  0  0  0  0  0
   -0.6544   -1.3673   -0.8732 S   0  0  0  0  0  0  0  0  0  0  0  0
   -1.7477   -2.7051   -3.0815 C   0  0  0  0  0  0  0  0  0  0  0  0
   -0.7034   -1.9676   -4.2242 S   0  0  0  0  0  0  0  0  0  0  0  0
   -1.3603   -2.9028   -5.4445 C   0  0  0  0  0  0  0  0  0  0  0  0
   -2.3622   -3.6859   -4.9721 C   0  0  0  0  0  0  0  0  0  0  0  0
   -2.6164   -3.5884   -3.6474 N   0  0  0  0  0  0  0  0  0  0  0  0
   -3.1648   -4.3344   -6.0709 C   0  0  0  0  0  0  0  0  0  0  0  0
   -2.4355   -3.7511   -7.2568 C   0  0  0  0  0  0  0  0  0  0  0  0
   -1.4017   -2.9416   -6.8782 C   0  0  0  0  0  0  0  0  0  0  0  0
   -0.8274   -2.0373   -8.1602 S   0  0  0  0  0  0  0  0  0  0  0  0
   -1.9114   -2.7615   -9.2621 C   0  0  0  0  0  0  0  0  0  0  0  0
   -2.7410   -3.6811   -8.6104 C   0  0  0  0  0  0  0  0  0  0  0  0
   -1.9993   -2.4337  -10.6932 C   0  0  0  0  0  0  0  0  0  0  0  0
   -2.3856   -1.2443  -11.1741 C   0  0  0  0  0  0  0  0  0  0  0  0
   -2.9141   -0.1247  -10.3675 C   0  0  0  0  0  0  0  0  0  0  0  0
   -3.1839    1.4387  -11.0095 S   0  0  0  0  0  0  0  0  0  0  0  0
   -3.8161    1.9544   -9.5474 C   0  0  0  0  0  0  0  0  0  0  0  0
   -3.7486    0.9627   -8.6195 C   0  0  0  0  0  0  0  0  0  0  0  0
   -3.2401   -0.2168   -9.0480 N   0  0  0  0  0  0  0  0  0  0  0  0
   -3.9611    1.4670   -7.2185 C   0  0  0  0  0  0  0  0  0  0  0  0
   -4.1320    2.9339   -7.5286 C   0  0  0  0  0  0  0  0  0  0  0  0
   -4.0627    3.1937   -8.8649 C   0  0  0  0  0  0  0  0  0  0  0  0
   -3.8532    4.8302   -9.1676 S   0  0  0  0  0  0  0  0  0  0  0  0
   -3.9218    5.2276   -7.5101 C   0  0  0  0  0  0  0  0  0  0  0  0
   -4.0573    4.0674   -6.7294 C   0  0  0  0  0  0  0  0  0  0  0  0
   -3.6916    6.5805   -6.9744 C   0  0  0  0  0  0  0  0  0  0  0  0
   -2.7764    6.8449   -6.0288 C   0  0  0  0  0  0  0  0  0  0  0  0
   -1.7624    5.8648   -5.6085 C   0  0  0  0  0  0  0  0  0  0  0  0
   -1.5172    5.4727   -4.2970 C   0  0  0  0  0  0  0  0  0  0  0  0
   -0.5999    4.4096   -4.2123 C   0  0  0  0  0  0  0  0  0  0  0  0
   -0.2167    3.7185   -3.0403 C   0  0  0  0  0  0  0  0  0  0  0  0
   -0.7387    4.0888   -1.7064 C   0  0  0  0  0  0  0  0  0  0  0  0
   -1.4617    3.1496   -0.9519 C   0  0  0  0  0  0  0  0  0  0  0  0
   -1.9844    3.5011    0.2953 C   0  0  0  0  0  0  0  0  0  0  0  0
   -1.7912    4.7914    0.8002 C   0  0  0  0  0  0  0  0  0  0  0  0
   -2.5078    5.2435    2.3843 S   0  0  0  0  0  0  0  0  0  0  0  0
   -4.1293    5.6683    1.6618 C   0  0  0  0  0  0  0  0  0  0  0  0
   -5.0745    6.1604    2.7464 C   0  0  0  0  0  0  0  0  0  0  0  0
   -1.0556    5.7294    0.0604 C   0  0  0  0  0  0  0  0  0  0  0  0
   -0.8545    6.9824    0.5402 F   0  0  0  0  0  0  0  0  0  0  0  0
   -0.5288    5.3769   -1.1888 C   0  0  0  0  0  0  0  0  0  0  0  0
    0.6391    2.6134   -3.2092 C   0  0  0  0  0  0  0  0  0  0  0  0
    1.0829    2.1899   -4.4673 C   0  0  0  0  0  0  0  0  0  0  0  0
    0.7185    2.8880   -5.6353 C   0  0  0  0  0  0  0  0  0  0  0  0
    1.2025    2.4883   -6.9733 C   0  0  0  0  0  0  0  0  0  0  0  0
    0.9008    1.2156   -7.4887 C   0  0  0  0  0  0  0  0  0  0  0  0
    1.4345    0.8125   -8.7149 C   0  0  0  0  0  0  0  0  0  0  0  0
    2.2638    1.6751   -9.4430 C   0  0  0  0  0  0  0  0  0  0  0  0
    2.9912    1.1217  -10.9920 S   0  0  0  0  0  0  0  0  0  0  0  0
    4.6029    0.6619  -10.2587 C   0  0  0  0  0  0  0  0  0  0  0  0
    4.5535   -0.7303   -9.6433 C   0  0  0  0  0  0  0  0  0  0  0  0
    2.5265    2.9622   -8.9559 C   0  0  0  0  0  0  0  0  0  0  0  0
    2.0045    3.3643   -7.7221 C   0  0  0  0  0  0  0  0  0  0  0  0
    3.3128    3.8167   -9.6574 F   0  0  0  0  0  0  0  0  0  0  0  0
   -0.1229    3.9985   -5.4654 C   0  0  0  0  0  0  0  0  0  0  0  0
   -0.8249    4.9384   -6.6640 S   0  0  0  0  0  0  0  0  0  0  0  0
    1.9117    1.0639   -4.4102 C   0  0  0  0  0  0  0  0  0  0  0  0
    2.1316    0.6250   -3.1126 C   0  0  0  0  0  0  0  0  0  0  0  0
    1.2999    1.6091   -2.0261 S   0  0  0  0  0  0  0  0  0  0  0  0
    2.9566   -0.5288   -2.7632 C   0  0  0  0  0  0  0  0  0  0  0  0
    2.9970   -1.7138   -3.4877 C   0  0  0  0  0  0  0  0  0  0  0  0
    3.9766   -2.6000   -3.0218 C   0  0  0  0  0  0  0  0  0  0  0  0
    4.2580   -3.8691   -3.5526 C   0  0  0  0  0  0  0  0  0  0  0  0
    3.4673   -4.4189   -4.6717 C   0  0  0  0  0  0  0  0  0  0  0  0
    3.9950   -4.4226   -5.9708 C   0  0  0  0  0  0  0  0  0  0  0  0
    3.1984   -4.8190   -7.0506 C   0  0  0  0  0  0  0  0  0  0  0  0
    1.8770   -5.2327   -6.8375 C   0  0  0  0  0  0  0  0  0  0  0  0
    0.8421   -5.6861   -8.2372 S   0  0  0  0  0  0  0  0  0  0  0  0
    1.1846   -7.4763   -8.1266 C   0  0  0  0  0  0  0  0  0  0  0  0
    2.5167   -7.8226   -8.7807 C   0  0  0  0  0  0  0  0  0  0  0  0
    1.3558   -5.2551   -5.5363 C   0  0  0  0  0  0  0  0  0  0  0  0
    0.0845   -5.6743   -5.3127 F   0  0  0  0  0  0  0  0  0  0  0  0
    2.1457   -4.8409   -4.4585 C   0  0  0  0  0  0  0  0  0  0  0  0
    5.3350   -4.5675   -2.9899 C   0  0  0  0  0  0  0  0  0  0  0  0
    6.1054   -4.0503   -1.9429 C   0  0  0  0  0  0  0  0  0  0  0  0
    5.8136   -2.7800   -1.3968 C   0  0  0  0  0  0  0  0  0  0  0  0
    6.6424   -2.1777   -0.3297 C   0  0  0  0  0  0  0  0  0  0  0  0
    6.7474   -2.8013    0.9251 C   0  0  0  0  0  0  0  0  0  0  0  0
    7.5712   -2.2552    1.9142 C   0  0  0  0  0  0  0  0  0  0  0  0
    8.2828   -1.0731    1.6663 C   0  0  0  0  0  0  0  0  0  0  0  0
    9.3646   -0.3986    2.9309 S   0  0  0  0  0  0  0  0  0  0  0  0
    8.0637    0.6319    3.6834 C   0  0  0  0  0  0  0  0  0  0  0  0
    8.6353    1.4139    4.8560 C   0  0  0  0  0  0  0  0  0  0  0  0
    8.1674   -0.4392    0.4216 C   0  0  0  0  0  0  0  0  0  0  0  0
    7.3503   -0.9889   -0.5725 C   0  0  0  0  0  0  0  0  0  0  0  0
    8.8636    0.6971    0.1611 F   0  0  0  0  0  0  0  0  0  0  0  0
    4.7270   -2.0841   -1.9600 C   0  0  0  0  0  0  0  0  0  0  0  0
    4.1440   -0.5493   -1.5719 S   0  0  0  0  0  0  0  0  0  0  0  0
    7.1578   -4.9031   -1.5684 C   0  0  0  0  0  0  0  0  0  0  0  0
    7.1942   -6.0883   -2.3000 C   0  0  0  0  0  0  0  0  0  0  0  0
    5.9356   -6.0755   -3.4266 S   0  0  0  0  0  0  0  0  0  0  0  0
   -0.4827    1.0107   14.3476 H   0  0  0  0  0  0  0  0  0  0  0  0
   -2.7253    1.2070   13.0330 H   0  0  0  0  0  0  0  0  0  0  0  0
   -3.9341    2.4334    9.3779 H   0  0  0  0  0  0  0  0  0  0  0  0
   -6.1518    3.3397    9.9625 H   0  0  0  0  0  0  0  0  0  0  0  0
   -6.9507    2.6764   13.7878 H   0  0  0  0  0  0  0  0  0  0  0  0
   -8.6050    3.3604   13.9175 H   0  0  0  0  0  0  0  0  0  0  0  0
   -6.2835    4.5775   12.2915 H   0  0  0  0  0  0  0  0  0  0  0  0
   -6.9547    5.1874   13.8499 H   0  0  0  0  0  0  0  0  0  0  0  0
   -7.9739    5.2230   12.3621 H   0  0  0  0  0  0  0  0  0  0  0  0
   -4.6116   -0.9109   12.0121 H   0  0  0  0  0  0  0  0  0  0  0  0
    0.4807   -3.3969    9.1662 H   0  0  0  0  0  0  0  0  0  0  0  0
    2.6794   -4.2603    8.4481 H   0  0  0  0  0  0  0  0  0  0  0  0
    4.0262   -3.1379    5.8969 H   0  0  0  0  0  0  0  0  0  0  0  0
    4.3839   -1.4151    6.3040 H   0  0  0  0  0  0  0  0  0  0  0  0
    5.7353   -2.1973    4.3784 H   0  0  0  0  0  0  0  0  0  0  0  0
    6.7683   -1.7351    5.7871 H   0  0  0  0  0  0  0  0  0  0  0  0
    6.4828   -3.4816    5.4088 H   0  0  0  0  0  0  0  0  0  0  0  0
    2.2115    0.5149    9.7404 H   0  0  0  0  0  0  0  0  0  0  0  0
   -0.0817   -1.5501    7.0154 H   0  0  0  0  0  0  0  0  0  0  0  0
   -0.4890   -0.2392    4.5983 H   0  0  0  0  0  0  0  0  0  0  0  0
   -0.9453    1.6786    2.4794 H   0  0  0  0  0  0  0  0  0  0  0  0
    0.9529    3.2438    2.5357 H   0  0  0  0  0  0  0  0  0  0  0  0
    3.6426    2.4101   -0.3515 H   0  0  0  0  0  0  0  0  0  0  0  0
    4.7393    3.7910   -0.0015 H   0  0  0  0  0  0  0  0  0  0  0  0
    2.7591    5.2319    0.5772 H   0  0  0  0  0  0  0  0  0  0  0  0
    2.7015    4.6144   -1.1201 H   0  0  0  0  0  0  0  0  0  0  0  0
    1.6602    3.8662    0.1390 H   0  0  0  0  0  0  0  0  0  0  0  0
    1.7241   -1.5203    1.3692 H   0  0  0  0  0  0  0  0  0  0  0  0
   -5.5782   -2.2869    0.4736 H   0  0  0  0  0  0  0  0  0  0  0  0
   -7.5658   -3.7491    0.5558 H   0  0  0  0  0  0  0  0  0  0  0  0
   -8.1760   -8.3170    0.6441 H   0  0  0  0  0  0  0  0  0  0  0  0
   -6.6234   -7.4604    0.3553 H   0  0  0  0  0  0  0  0  0  0  0  0
   -8.1601   -7.4136   -1.6421 H   0  0  0  0  0  0  0  0  0  0  0  0
   -9.4062   -6.5554   -0.6583 H   0  0  0  0  0  0  0  0  0  0  0  0
   -7.8267   -5.7534   -1.0285 H   0  0  0  0  0  0  0  0  0  0  0  0
   -3.4359   -5.0824    2.9640 H   0  0  0  0  0  0  0  0  0  0  0  0
   -3.4832   -3.5394   -0.9679 H   0  0  0  0  0  0  0  0  0  0  0  0
   -3.0748   -5.4404   -6.0468 H   0  0  0  0  0  0  0  0  0  0  0  0
   -4.2218   -3.9974   -6.0477 H   0  0  0  0  0  0  0  0  0  0  0  0
   -3.5579   -4.2155   -9.0785 H   0  0  0  0  0  0  0  0  0  0  0  0
   -1.7298   -3.2095  -11.3940 H   0  0  0  0  0  0  0  0  0  0  0  0
   -2.3479   -1.1024  -12.2461 H   0  0  0  0  0  0  0  0  0  0  0  0
   -3.0564    1.2934   -6.5964 H   0  0  0  0  0  0  0  0  0  0  0  0
   -4.8786    1.0344   -6.7638 H   0  0  0  0  0  0  0  0  0  0  0  0
   -4.0186    4.0439   -5.6480 H   0  0  0  0  0  0  0  0  0  0  0  0
   -4.3207    7.3831   -7.3336 H   0  0  0  0  0  0  0  0  0  0  0  0
   -2.7541    7.8322   -5.5785 H   0  0  0  0  0  0  0  0  0  0  0  0
   -2.0414    5.8932   -3.4493 H   0  0  0  0  0  0  0  0  0  0  0  0
   -1.6421    2.1533   -1.3414 H   0  0  0  0  0  0  0  0  0  0  0  0
   -2.5595    2.7757    0.8585 H   0  0  0  0  0  0  0  0  0  0  0  0
   -4.0068    6.4657    0.8972 H   0  0  0  0  0  0  0  0  0  0  0  0
   -4.5665    4.7714    1.1732 H   0  0  0  0  0  0  0  0  0  0  0  0
   -5.1161    5.4340    3.5839 H   0  0  0  0  0  0  0  0  0  0  0  0
   -6.0959    6.2760    2.3235 H   0  0  0  0  0  0  0  0  0  0  0  0
   -4.7310    7.1457    3.1288 H   0  0  0  0  0  0  0  0  0  0  0  0
    0.0381    6.1063   -1.7559 H   0  0  0  0  0  0  0  0  0  0  0  0
    0.2720    0.5342   -6.9253 H   0  0  0  0  0  0  0  0  0  0  0  0
    1.2166   -0.1767   -9.0960 H   0  0  0  0  0  0  0  0  0  0  0  0
    4.9142    1.4030   -9.4908 H   0  0  0  0  0  0  0  0  0  0  0  0
    5.3663    0.6710  -11.0652 H   0  0  0  0  0  0  0  0  0  0  0  0
    3.7965   -0.7776   -8.8336 H   0  0  0  0  0  0  0  0  0  0  0  0
    4.3073   -1.4811  -10.4207 H   0  0  0  0  0  0  0  0  0  0  0  0
    5.5460   -0.9788   -9.2109 H   0  0  0  0  0  0  0  0  0  0  0  0
    2.2455    4.3476   -7.3374 H   0  0  0  0  0  0  0  0  0  0  0  0
    2.3630    0.5946   -5.2743 H   0  0  0  0  0  0  0  0  0  0  0  0
    2.3512   -1.9135   -4.3318 H   0  0  0  0  0  0  0  0  0  0  0  0
    5.0106   -4.0867   -6.1515 H   0  0  0  0  0  0  0  0  0  0  0  0
    3.6070   -4.7920   -8.0538 H   0  0  0  0  0  0  0  0  0  0  0  0
    0.3726   -8.0103   -8.6637 H   0  0  0  0  0  0  0  0  0  0  0  0
    1.1778   -7.8179   -7.0668 H   0  0  0  0  0  0  0  0  0  0  0  0
    2.6261   -8.9260   -8.8356 H   0  0  0  0  0  0  0  0  0  0  0  0
    2.5627   -7.4049   -9.8094 H   0  0  0  0  0  0  0  0  0  0  0  0
    3.3582   -7.4186   -8.1807 H   0  0  0  0  0  0  0  0  0  0  0  0
    1.7269   -4.8346   -3.4576 H   0  0  0  0  0  0  0  0  0  0  0  0
    6.2022   -3.7143    1.1304 H   0  0  0  0  0  0  0  0  0  0  0  0
    7.6658   -2.7564    2.8689 H   0  0  0  0  0  0  0  0  0  0  0  0
    7.2345   -0.0131    4.0429 H   0  0  0  0  0  0  0  0  0  0  0  0
    7.6643    1.3436    2.9286 H   0  0  0  0  0  0  0  0  0  0  0  0
    7.8274    1.9923    5.3496 H   0  0  0  0  0  0  0  0  0  0  0  0
    9.4113    2.1231    4.4985 H   0  0  0  0  0  0  0  0  0  0  0  0
    9.0850    0.7226    5.5999 H   0  0  0  0  0  0  0  0  0  0  0  0
    7.2864   -0.5043   -1.5388 H   0  0  0  0  0  0  0  0  0  0  0  0
    7.8830   -4.6740   -0.7974 H   0  0  0  0  0  0  0  0  0  0  0  0
    7.9194   -6.8807   -2.1770 H   0  0  0  0  0  0  0  0  0  0  0  0
  1  2  2  0
  2  3  1  0
  3  4  2  0
  4  5  1  0
  5  6  2  0
  6  7  1  0
  7  8  2  0
  8  9  1  0
  9 10  1  0
 10 11  1  0
  8 12  1  0
 12 13  1  0
 12 14  2  0
  4 15  1  0
 15 16  2  0
 16 17  1  0
 17 18  1  0
 18 19  2  0
 19 20  1  0
 20 21  2  0
 21 22  1  0
 22 23  1  0
 23 24  1  0
 21 25  1  0
 25 26  2  0
 25 27  1  0
 17 28  2  0
 28 29  1  0
 16 30  1  0
 30 31  2  0
 31 32  1  0
 31 33  1  0
 33 34  2  0
 34 35  1  0
 35 36  2  0
 36 37  1  0
 37 38  2  0
 38 39  1  0
 39 40  2  0
 40 41  1  0
 41 42  1  0
 42 43  1  0
 40 44  1  0
 44 45  1  0
 44 46  2  0
 36 47  1  0
 47 48  2  0
 48 49  1  0
 49 50  1  0
 50 51  2  0
 51 52  1  0
 52 53  2  0
 53 54  1  0
 54 55  1  0
 55 56  1  0
 53 57  1  0
 57 58  2  0
 57 59  1  0
 49 60  2  0
 60 61  1  0
 48 62  1  0
 62 63  2  0
 63 64  1  0
 63 65  1  0
 65 66  1  0
 66 67  1  0
 67 68  2  0
 68 69  1  0
 68 70  1  0
 70 71  1  0
 71 72  2  0
 72 73  1  0
 73 74  1  0
 74 75  2  0
 74 76  1  0
 76 77  2  3
 77 78  1  0
 78 79  1  0
 79 80  1  0
 80 81  2  0
 81 82  1  0
 81 83  1  0
 83 84  1  0
 84 85  2  0
 85 86  1  0
 86 87  1  0
 87 88  2  0
 87 89  1  0
 89 90  2  3
 90 91  1  0
 91 92  2  0
 92 93  1  0
 93 94  2  0
 94 95  1  0
 95 96  2  0
 96 97  1  0
 97 98  2  0
 98 99  1  0
 99100  1  0
100101  1  0
 98102  1  0
102103  1  0
102104  2  0
 94105  1  0
105106  2  0
106107  1  0
107108  1  0
108109  2  0
109110  1  0
110111  2  0
111112  1  0
112113  1  0
113114  1  0
111115  1  0
115116  2  0
115117  1  0
107118  2  0
118119  1  0
106120  1  0
120121  2  0
121122  1  0
121123  1  0
123124  2  0
124125  1  0
125126  2  0
126127  1  0
127128  2  0
128129  1  0
129130  2  0
130131  1  0
131132  1  0
132133  1  0
130134  1  0
134135  1  0
134136  2  0
126137  1  0
137138  2  0
138139  1  0
139140  1  0
140141  2  0
141142  1  0
142143  2  0
143144  1  0
144145  1  0
145146  1  0
143147  1  0
147148  2  0
147149  1  0
139150  2  0
150151  1  0
138152  1  0
152153  2  0
153154  1  0
 29  1  1  0
 61 33  1  0
 69 65  2  0
 75 71  1  0
 82 78  2  0
 88 84  1  0
119 91  1  0
151123  1  0
 28  3  1  0
 60 35  1  0
 72 67  1  0
 85 80  1  0
118 93  1  0
150125  1  0
 14  5  1  0
 32 15  1  0
 46 37  1  0
 64 47  1  0
104 95  1  0
122105  1  0
136127  1  0
154137  1  0
 26 18  1  0
 58 50  1  0
116108  1  0
148140  1  0
  1155  1  0
  2156  1  0
  6157  1  0
  7158  1  0
 10159  1  0
 10160  1  0
 11161  1  0
 11162  1  0
 11163  1  0
 14164  1  0
 19165  1  0
 20166  1  0
 23167  1  0
 23168  1  0
 24169  1  0
 24170  1  0
 24171  1  0
 26172  1  0
 30173  1  0
 34174  1  0
 38175  1  0
 39176  1  0
 42177  1  0
 42178  1  0
 43179  1  0
 43180  1  0
 43181  1  0
 46182  1  0
 51183  1  0
 52184  1  0
 55185  1  0
 55186  1  0
 56187  1  0
 56188  1  0
 56189  1  0
 58190  1  0
 62191  1  0
 70192  1  0
 70193  1  0
 75194  1  0
 76195  1  0
 77196  1  0
 83197  1  0
 83198  1  0
 88199  1  0
 89200  1  0
 90201  1  0
 92202  1  0
 96203  1  0
 97204  1  0
100205  1  0
100206  1  0
101207  1  0
101208  1  0
101209  1  0
104210  1  0
109211  1  0
110212  1  0
113213  1  0
113214  1  0
114215  1  0
114216  1  0
114217  1  0
116218  1  0
120219  1  0
124220  1  0
128221  1  0
129222  1  0
132223  1  0
132224  1  0
133225  1  0
133226  1  0
133227  1  0
136228  1  0
141229  1  0
142230  1  0
145231  1  0
145232  1  0
146233  1  0
146234  1  0
146235  1  0
148236  1  0
152237  1  0
153238  1  0
M  END

