
     RDKit          3D

226249  0  0  0  0  0  0  0  0999 V2000
   -1.7413    4.1346    9.8263 C   0  0  0  0  0  0  0  0  0  0  0  0
   -2.3915    4.7584    8.7684 C   0  0  0  0  0  0  0  0  0  0  0  0
   -3.2373    3.8979    8.0485 C   0  0  0  0  0  0  0  0  0  0  0  0
   -4.0307    4.2403    6.9386 C   0  0  0  0  0  0  0  0  0  0  0  0
   -3.9603    5.5697    6.2851 C   0  0  0  0  0  0  0  0  0  0  0  0
   -3.5512    5.6632    4.9389 C   0  0  0  0  0  0  0  0  0  0  0  0
   -3.4821    6.9050    4.3109 C   0  0  0  0  0  0  0  0  0  0  0  0
   -3.7901    8.0702    5.0207 C   0  0  0  0  0  0  0  0  0  0  0  0
   -3.6259    9.6607    4.2093 S   0  0  0  0  0  0  0  0  0  0  0  0
   -1.8453    9.7819    4.5782 C   0  0  0  0  0  0  0  0  0  0  0  0
   -1.2428   10.9893    3.8794 C   0  0  0  0  0  0  0  0  0  0  0  0
   -4.2057    7.9850    6.3564 C   0  0  0  0  0  0  0  0  0  0  0  0
   -4.5164    9.1059    7.0531 F   0  0  0  0  0  0  0  0  0  0  0  0
   -4.2993    6.7375    6.9828 C   0  0  0  0  0  0  0  0  0  0  0  0
   -4.8255    3.2201    6.3956 C   0  0  0  0  0  0  0  0  0  0  0  0
   -4.7904    1.8933    6.8411 C   0  0  0  0  0  0  0  0  0  0  0  0
   -3.9686    1.5387    7.9369 C   0  0  0  0  0  0  0  0  0  0  0  0
   -3.9195    0.1674    8.5001 C   0  0  0  0  0  0  0  0  0  0  0  0
   -2.6891   -0.4813    8.6955 C   0  0  0  0  0  0  0  0  0  0  0  0
   -2.6262   -1.6810    9.4102 C   0  0  0  0  0  0  0  0  0  0  0  0
   -3.7955   -2.2515    9.9291 C   0  0  0  0  0  0  0  0  0  0  0  0
   -3.6920   -3.7113   10.9719 S   0  0  0  0  0  0  0  0  0  0  0  0
   -3.9003   -4.9272    9.6250 C   0  0  0  0  0  0  0  0  0  0  0  0
   -2.5972   -5.6819    9.3986 C   0  0  0  0  0  0  0  0  0  0  0  0
   -5.0343   -1.6452    9.6769 C   0  0  0  0  0  0  0  0  0  0  0  0
   -5.0965   -0.4401    8.9755 C   0  0  0  0  0  0  0  0  0  0  0  0
   -6.1748   -2.1979   10.1675 F   0  0  0  0  0  0  0  0  0  0  0  0
   -3.2199    2.5815    8.5271 C   0  0  0  0  0  0  0  0  0  0  0  0
   -2.1967    2.5149    9.8641 S   0  0  0  0  0  0  0  0  0  0  0  0
   -5.6057    1.0387    6.0662 C   0  0  0  0  0  0  0  0  0  0  0  0
   -6.3053    1.7172    5.0604 C   0  0  0  0  0  0  0  0  0  0  0  0
   -5.8964    3.3468    5.1190 S   0  0  0  0  0  0  0  0  0  0  0  0
   -7.0950    1.1443    3.9600 C   0  0  0  0  0  0  0  0  0  0  0  0
   -7.0468   -0.1759    3.5016 C   0  0  0  0  0  0  0  0  0  0  0  0
   -7.5896   -0.3207    2.2070 C   0  0  0  0  0  0  0  0  0  0  0  0
   -7.5249   -1.4721    1.3931 C   0  0  0  0  0  0  0  0  0  0  0  0
   -6.9687   -2.7449    1.8921 C   0  0  0  0  0  0  0  0  0  0  0  0
   -5.6270   -2.8270    2.2952 C   0  0  0  0  0  0  0  0  0  0  0  0
   -5.1289   -4.0192    2.8276 C   0  0  0  0  0  0  0  0  0  0  0  0
   -5.9527   -5.1449    2.9280 C   0  0  0  0  0  0  0  0  0  0  0  0
   -5.2840   -6.6698    3.6023 S   0  0  0  0  0  0  0  0  0  0  0  0
   -4.4763   -7.1997    2.0492 C   0  0  0  0  0  0  0  0  0  0  0  0
   -5.4849   -7.8071    1.0832 C   0  0  0  0  0  0  0  0  0  0  0  0
   -7.2909   -5.0705    2.5180 C   0  0  0  0  0  0  0  0  0  0  0  0
   -8.1108   -6.1446    2.6371 F   0  0  0  0  0  0  0  0  0  0  0  0
   -7.7959   -3.8741    1.9967 C   0  0  0  0  0  0  0  0  0  0  0  0
   -7.9179   -1.3244    0.0475 C   0  0  0  0  0  0  0  0  0  0  0  0
   -8.3801   -0.1106   -0.4749 C   0  0  0  0  0  0  0  0  0  0  0  0
   -8.5246    1.0138    0.3606 C   0  0  0  0  0  0  0  0  0  0  0  0
   -8.9691    2.3293   -0.1473 C   0  0  0  0  0  0  0  0  0  0  0  0
   -8.1798    3.0423   -1.0621 C   0  0  0  0  0  0  0  0  0  0  0  0
   -8.5806    4.3082   -1.4985 C   0  0  0  0  0  0  0  0  0  0  0  0
   -9.7721    4.8733   -1.0205 C   0  0  0  0  0  0  0  0  0  0  0  0
  -10.2616    6.5100   -1.5752 S   0  0  0  0  0  0  0  0  0  0  0  0
  -11.1109    5.9263   -3.0830 C   0  0  0  0  0  0  0  0  0  0  0  0
  -12.5408    5.4993   -2.7798 C   0  0  0  0  0  0  0  0  0  0  0  0
  -10.5534    4.1740   -0.0908 C   0  0  0  0  0  0  0  0  0  0  0  0
  -10.1533    2.9049    0.3413 C   0  0  0  0  0  0  0  0  0  0  0  0
  -11.6906    4.7227    0.4037 F   0  0  0  0  0  0  0  0  0  0  0  0
   -8.1030    0.8737    1.6897 C   0  0  0  0  0  0  0  0  0  0  0  0
   -7.8620    2.1012    2.8024 S   0  0  0  0  0  0  0  0  0  0  0  0
   -8.5144   -0.1199   -1.8751 C   0  0  0  0  0  0  0  0  0  0  0  0
   -8.1249   -1.3234   -2.4562 C   0  0  0  0  0  0  0  0  0  0  0  0
   -7.6529   -2.3902   -1.2277 S   0  0  0  0  0  0  0  0  0  0  0  0
   -7.6640   -1.4348   -3.8483 C   0  0  0  0  0  0  0  0  0  0  0  0
   -6.6900   -0.2615   -4.5835 S   0  0  0  0  0  0  0  0  0  0  0  0
   -5.9258   -1.2232   -5.7519 C   0  0  0  0  0  0  0  0  0  0  0  0
   -6.4396   -2.5000   -5.5456 C   0  0  0  0  0  0  0  0  0  0  0  0
   -7.3748   -2.6042   -4.5323 C   0  0  0  0  0  0  0  0  0  0  0  0
   -7.7476   -4.2145   -4.2454 S   0  0  0  0  0  0  0  0  0  0  0  0
   -6.7078   -4.7866   -5.4613 C   0  0  0  0  0  0  0  0  0  0  0  0
   -6.5171   -6.1693   -5.7712 N   0  0  0  0  0  4  0  0  0  0  0  0
   -7.2584   -7.1277   -5.1222 O   0  0  0  0  0  1  0  0  0  0  0  0
   -5.6943   -6.5180   -6.6411 O   0  0  0  0  0  0  0  0  0  0  0  0
   -6.0330   -3.7256   -6.0764 C   0  0  0  0  0  0  0  0  0  0  0  0
   -4.5292   -0.9808   -6.1175 C   0  0  0  0  0  0  0  0  0  0  0  0
   -3.2415   -1.5183   -5.1758 S   0  0  0  0  0  0  0  0  0  0  0  0
   -2.0194   -0.5464   -5.8315 C   0  0  0  0  0  0  0  0  0  0  0  0
   -2.6361    0.2367   -6.8065 C   0  0  0  0  0  0  0  0  0  0  0  0
   -3.9982    0.0052   -6.9381 C   0  0  0  0  0  0  0  0  0  0  0  0
   -4.6761    1.0666   -8.0400 S   0  0  0  0  0  0  0  0  0  0  0  0
   -3.1889    1.8310   -8.3744 C   0  0  0  0  0  0  0  0  0  0  0  0
   -3.0164    2.8949   -9.3164 N   0  0  0  0  0  4  0  0  0  0  0  0
   -1.7762    3.4583   -9.5052 O   0  0  0  0  0  1  0  0  0  0  0  0
   -3.9813    3.2989   -9.9914 O   0  0  0  0  0  0  0  0  0  0  0  0
   -2.1593    1.2784   -7.6053 C   0  0  0  0  0  0  0  0  0  0  0  0
   -0.6588   -0.4758   -5.2741 C   0  0  0  0  0  0  0  0  0  0  0  0
    0.5277   -0.1016   -5.9160 C   0  0  0  0  0  0  0  0  0  0  0  0
    1.6675   -0.3009   -5.1097 C   0  0  0  0  0  0  0  0  0  0  0  0
    3.0180   -0.1049   -5.4822 C   0  0  0  0  0  0  0  0  0  0  0  0
    3.3765    0.4804   -6.7869 C   0  0  0  0  0  0  0  0  0  0  0  0
    3.9471   -0.3179   -7.7858 C   0  0  0  0  0  0  0  0  0  0  0  0
    4.2209    0.2263   -9.0470 C   0  0  0  0  0  0  0  0  0  0  0  0
    3.9345    1.5727   -9.3096 C   0  0  0  0  0  0  0  0  0  0  0  0
    4.2313    2.2439  -10.9510 S   0  0  0  0  0  0  0  0  0  0  0  0
    5.9042    2.8726  -10.5784 C   0  0  0  0  0  0  0  0  0  0  0  0
    6.9478    1.7754  -10.7387 C   0  0  0  0  0  0  0  0  0  0  0  0
    3.3669    2.3746   -8.3088 C   0  0  0  0  0  0  0  0  0  0  0  0
    3.0711    3.6765   -8.5547 F   0  0  0  0  0  0  0  0  0  0  0  0
    3.0881    1.8284   -7.0508 C   0  0  0  0  0  0  0  0  0  0  0  0
    4.0018   -0.5152   -4.5561 C   0  0  0  0  0  0  0  0  0  0  0  0
    3.6717   -1.0681   -3.3150 C   0  0  0  0  0  0  0  0  0  0  0  0
    2.3324   -1.1944   -2.9192 C   0  0  0  0  0  0  0  0  0  0  0  0
    1.9537   -1.7339   -1.6033 C   0  0  0  0  0  0  0  0  0  0  0  0
    2.0224   -3.1129   -1.3593 C   0  0  0  0  0  0  0  0  0  0  0  0
    1.6086   -3.6258   -0.1261 C   0  0  0  0  0  0  0  0  0  0  0  0
    1.1268   -2.7609    0.8683 C   0  0  0  0  0  0  0  0  0  0  0  0
    0.5546   -3.4417    2.4276 S   0  0  0  0  0  0  0  0  0  0  0  0
   -1.2239   -3.3350    2.0189 C   0  0  0  0  0  0  0  0  0  0  0  0
   -1.6264   -4.3231    0.9292 C   0  0  0  0  0  0  0  0  0  0  0  0
    1.0955   -1.3775    0.6367 C   0  0  0  0  0  0  0  0  0  0  0  0
    1.4963   -0.8657   -0.5988 C   0  0  0  0  0  0  0  0  0  0  0  0
    0.6477   -0.5283    1.5973 F   0  0  0  0  0  0  0  0  0  0  0  0
    1.3578   -0.8202   -3.8495 C   0  0  0  0  0  0  0  0  0  0  0  0
   -0.2954   -1.0356   -3.7277 S   0  0  0  0  0  0  0  0  0  0  0  0
    4.7813   -1.4847   -2.5738 C   0  0  0  0  0  0  0  0  0  0  0  0
    5.9858   -1.2494   -3.2203 C   0  0  0  0  0  0  0  0  0  0  0  0
    5.6874   -0.5082   -4.7143 S   0  0  0  0  0  0  0  0  0  0  0  0
    7.2781   -1.7286   -2.7200 C   0  0  0  0  0  0  0  0  0  0  0  0
    8.4963   -1.0535   -2.7889 C   0  0  0  0  0  0  0  0  0  0  0  0
    9.5322   -1.7517   -2.1403 C   0  0  0  0  0  0  0  0  0  0  0  0
   10.8622   -1.3210   -1.9785 C   0  0  0  0  0  0  0  0  0  0  0  0
   11.3185    0.0032   -2.4242 C   0  0  0  0  0  0  0  0  0  0  0  0
   11.9615    0.1484   -3.6629 C   0  0  0  0  0  0  0  0  0  0  0  0
   12.5034    1.3839   -4.0234 C   0  0  0  0  0  0  0  0  0  0  0  0
   12.4263    2.4709   -3.1440 C   0  0  0  0  0  0  0  0  0  0  0  0
   13.2266    4.0214   -3.5679 S   0  0  0  0  0  0  0  0  0  0  0  0
   14.8927    3.4909   -3.0217 C   0  0  0  0  0  0  0  0  0  0  0  0
   15.0377    3.5752   -1.5062 C   0  0  0  0  0  0  0  0  0  0  0  0
   11.7407    2.3395   -1.9274 C   0  0  0  0  0  0  0  0  0  0  0  0
   11.6360    3.3932   -1.0776 F   0  0  0  0  0  0  0  0  0  0  0  0
   11.1908    1.1064   -1.5696 C   0  0  0  0  0  0  0  0  0  0  0  0
   11.7326   -2.1784   -1.2792 C   0  0  0  0  0  0  0  0  0  0  0  0
   11.3221   -3.4137   -0.7673 C   0  0  0  0  0  0  0  0  0  0  0  0
    9.9903   -3.8435   -0.9199 C   0  0  0  0  0  0  0  0  0  0  0  0
    9.5338   -5.1533   -0.4173 C   0  0  0  0  0  0  0  0  0  0  0  0
    8.7152   -5.2300    0.7206 C   0  0  0  0  0  0  0  0  0  0  0  0
    8.2730   -6.4738    1.1831 C   0  0  0  0  0  0  0  0  0  0  0  0
    8.6314   -7.6459    0.5025 C   0  0  0  0  0  0  0  0  0  0  0  0
    8.0561   -9.2446    1.0904 S   0  0  0  0  0  0  0  0  0  0  0  0
    6.4061   -9.1279    0.3125 C   0  0  0  0  0  0  0  0  0  0  0  0
    6.0434  -10.4616   -0.3270 C   0  0  0  0  0  0  0  0  0  0  0  0
    9.4392   -7.5707   -0.6407 C   0  0  0  0  0  0  0  0  0  0  0  0
    9.8954   -6.3280   -1.0920 C   0  0  0  0  0  0  0  0  0  0  0  0
    9.7937   -8.6962   -1.3116 F   0  0  0  0  0  0  0  0  0  0  0  0
    9.1202   -2.9747   -1.5992 C   0  0  0  0  0  0  0  0  0  0  0  0
    7.4816   -3.1824   -1.8891 S   0  0  0  0  0  0  0  0  0  0  0  0
   12.3436   -4.0954   -0.0909 C   0  0  0  0  0  0  0  0  0  0  0  0
   13.5460   -3.3933   -0.0656 C   0  0  0  0  0  0  0  0  0  0  0  0
   13.3469   -1.9321   -0.8853 S   0  0  0  0  0  0  0  0  0  0  0  0
   -1.0526    4.6127   10.5116 H   0  0  0  0  0  0  0  0  0  0  0  0
   -2.2597    5.8090    8.5455 H   0  0  0  0  0  0  0  0  0  0  0  0
   -3.2907    4.7716    4.3808 H   0  0  0  0  0  0  0  0  0  0  0  0
   -3.1698    6.9660    3.2770 H   0  0  0  0  0  0  0  0  0  0  0  0
   -1.6982    9.8739    5.6770 H   0  0  0  0  0  0  0  0  0  0  0  0
   -1.3207    8.8680    4.2250 H   0  0  0  0  0  0  0  0  0  0  0  0
   -1.7555   11.9143    4.2125 H   0  0  0  0  0  0  0  0  0  0  0  0
   -0.1626   11.0637    4.1319 H   0  0  0  0  0  0  0  0  0  0  0  0
   -1.3544   10.8825    2.7797 H   0  0  0  0  0  0  0  0  0  0  0  0
   -4.6305    6.6794    8.0162 H   0  0  0  0  0  0  0  0  0  0  0  0
   -1.7721   -0.0297    8.3306 H   0  0  0  0  0  0  0  0  0  0  0  0
   -1.6646   -2.1456    9.5941 H   0  0  0  0  0  0  0  0  0  0  0  0
   -4.2177   -4.4485    8.6732 H   0  0  0  0  0  0  0  0  0  0  0  0
   -4.6871   -5.6486    9.9252 H   0  0  0  0  0  0  0  0  0  0  0  0
   -2.7554   -6.4698    8.6335 H   0  0  0  0  0  0  0  0  0  0  0  0
   -2.2598   -6.1658   10.3424 H   0  0  0  0  0  0  0  0  0  0  0  0
   -1.8104   -4.9901    9.0412 H   0  0  0  0  0  0  0  0  0  0  0  0
   -6.0544    0.0451    8.8400 H   0  0  0  0  0  0  0  0  0  0  0  0
   -5.6562   -0.0323    6.2073 H   0  0  0  0  0  0  0  0  0  0  0  0
   -6.5415   -0.9637    4.0403 H   0  0  0  0  0  0  0  0  0  0  0  0
   -4.9769   -1.9648    2.2169 H   0  0  0  0  0  0  0  0  0  0  0  0
   -4.1004   -4.0678    3.1545 H   0  0  0  0  0  0  0  0  0  0  0  0
   -3.7121   -7.9648    2.3000 H   0  0  0  0  0  0  0  0  0  0  0  0
   -3.9580   -6.3454    1.5656 H   0  0  0  0  0  0  0  0  0  0  0  0
   -6.0032   -8.6620    1.5594 H   0  0  0  0  0  0  0  0  0  0  0  0
   -4.9604   -8.1666    0.1739 H   0  0  0  0  0  0  0  0  0  0  0  0
   -6.2310   -7.0500    0.7696 H   0  0  0  0  0  0  0  0  0  0  0  0
   -8.8355   -3.8215    1.6954 H   0  0  0  0  0  0  0  0  0  0  0  0
   -7.2476    2.6251   -1.4225 H   0  0  0  0  0  0  0  0  0  0  0  0
   -7.9650    4.8508   -2.2063 H   0  0  0  0  0  0  0  0  0  0  0  0
  -11.1354    6.7664   -3.8091 H   0  0  0  0  0  0  0  0  0  0  0  0
  -10.5546    5.0887   -3.5555 H   0  0  0  0  0  0  0  0  0  0  0  0
  -13.0881    6.3235   -2.2714 H   0  0  0  0  0  0  0  0  0  0  0  0
  -13.0647    5.2542   -3.7269 H   0  0  0  0  0  0  0  0  0  0  0  0
  -12.5492    4.6000   -2.1312 H   0  0  0  0  0  0  0  0  0  0  0  0
  -10.7597    2.3731    1.0640 H   0  0  0  0  0  0  0  0  0  0  0  0
   -8.7579    0.7550   -2.4608 H   0  0  0  0  0  0  0  0  0  0  0  0
   -5.2781   -3.8366   -6.8459 H   0  0  0  0  0  0  0  0  0  0  0  0
   -1.1391    1.6318   -7.6194 H   0  0  0  0  0  0  0  0  0  0  0  0
    0.5725    0.2284   -6.9426 H   0  0  0  0  0  0  0  0  0  0  0  0
    4.1443   -1.3694   -7.6035 H   0  0  0  0  0  0  0  0  0  0  0  0
    4.6431   -0.4029   -9.8190 H   0  0  0  0  0  0  0  0  0  0  0  0
    5.9535    3.2992   -9.5536 H   0  0  0  0  0  0  0  0  0  0  0  0
    6.1331    3.6871  -11.2950 H   0  0  0  0  0  0  0  0  0  0  0  0
    6.8040    0.9937   -9.9689 H   0  0  0  0  0  0  0  0  0  0  0  0
    6.8740    1.3176  -11.7471 H   0  0  0  0  0  0  0  0  0  0  0  0
    7.9630    2.2042  -10.6135 H   0  0  0  0  0  0  0  0  0  0  0  0
    2.6348    2.4506   -6.2895 H   0  0  0  0  0  0  0  0  0  0  0  0
    2.3771   -3.7904   -2.1290 H   0  0  0  0  0  0  0  0  0  0  0  0
    1.6502   -4.6906    0.0528 H   0  0  0  0  0  0  0  0  0  0  0  0
   -1.7897   -3.5681    2.9425 H   0  0  0  0  0  0  0  0  0  0  0  0
   -1.4907   -2.3023    1.7099 H   0  0  0  0  0  0  0  0  0  0  0  0
   -2.7287   -4.3062    0.8066 H   0  0  0  0  0  0  0  0  0  0  0  0
   -1.1717   -4.0408   -0.0410 H   0  0  0  0  0  0  0  0  0  0  0  0
   -1.3099   -5.3521    1.2042 H   0  0  0  0  0  0  0  0  0  0  0  0
    1.4469    0.2021   -0.7833 H   0  0  0  0  0  0  0  0  0  0  0  0
    4.7144   -1.9648   -1.6047 H   0  0  0  0  0  0  0  0  0  0  0  0
    8.6187   -0.0825   -3.2538 H   0  0  0  0  0  0  0  0  0  0  0  0
   12.0610   -0.6990   -4.3298 H   0  0  0  0  0  0  0  0  0  0  0  0
   13.0221    1.4844   -4.9692 H   0  0  0  0  0  0  0  0  0  0  0  0
   15.1066    2.4564   -3.3644 H   0  0  0  0  0  0  0  0  0  0  0  0
   15.6414    4.1658   -3.4887 H   0  0  0  0  0  0  0  0  0  0  0  0
   14.3612    2.8550   -1.0068 H   0  0  0  0  0  0  0  0  0  0  0  0
   14.8105    4.6028   -1.1540 H   0  0  0  0  0  0  0  0  0  0  0  0
   16.0812    3.3238   -1.2214 H   0  0  0  0  0  0  0  0  0  0  0  0
   10.6939    0.9987   -0.6109 H   0  0  0  0  0  0  0  0  0  0  0  0
    8.4182   -4.3292    1.2415 H   0  0  0  0  0  0  0  0  0  0  0  0
    7.6420   -6.5248    2.0618 H   0  0  0  0  0  0  0  0  0  0  0  0
    5.6576   -8.8831    1.0970 H   0  0  0  0  0  0  0  0  0  0  0  0
    6.3696   -8.3368   -0.4665 H   0  0  0  0  0  0  0  0  0  0  0  0
    6.0869  -11.2764    0.4267 H   0  0  0  0  0  0  0  0  0  0  0  0
    5.0120  -10.4104   -0.7312 H   0  0  0  0  0  0  0  0  0  0  0  0
    6.7456  -10.6908   -1.1549 H   0  0  0  0  0  0  0  0  0  0  0  0
   10.5221   -6.2812   -1.9733 H   0  0  0  0  0  0  0  0  0  0  0  0
   12.2196   -5.0568    0.3890 H   0  0  0  0  0  0  0  0  0  0  0  0
   14.4543   -3.7220    0.4180 H   0  0  0  0  0  0  0  0  0  0  0  0
  1  2  2  0
  2  3  1  0
  3  4  2  0
  4  5  1  0
  5  6  2  0
  6  7  1  0
  7  8  2  0
  8  9  1  0
  9 10  1  0
 10 11  1  0
  8 12  1  0
 12 13  1  0
 12 14  2  0
  4 15  1  0
 15 16  2  0
 16 17  1  0
 17 18  1  0
 18 19  2  0
 19 20  1  0
 20 21  2  0
 21 22  1  0
 22 23  1  0
 23 24  1  0
 21 25  1  0
 25 26  2  0
 25 27  1  0
 17 28  2  0
 28 29  1  0
 16 30  1  0
 30 31  2  0
 31 32  1  0
 31 33  1  0
 33 34  2  0
 34 35  1  0
 35 36  2  0
 36 37  1  0
 37 38  2  0
 38 39  1  0
 39 40  2  0
 40 41  1  0
 41 42  1  0
 42 43  1  0
 40 44  1  0
 44 45  1  0
 44 46  2  0
 36 47  1  0
 47 48  2  0
 48 49  1  0
 49 50  1  0
 50 51  2  0
 51 52  1  0
 52 53  2  0
 53 54  1  0
 54 55  1  0
 55 56  1  0
 53 57  1  0
 57 58  2  0
 57 59  1  0
 49 60  2  0
 60 61  1  0
 48 62  1  0
 62 63  2  0
 63 64  1  0
 63 65  1  0
 65 66  1  0
 66 67  1  0
 67 68  2  0
 68 69  1  0
 69 70  1  0
 70 71  1  0
 71 72  1  0
 72 73  1  0
 72 74  2  0
 71 75  2  0
 67 76  1  0
 76 77  1  0
 77 78  1  0
 78 79  2  0
 79 80  1  0
 80 81  1  0
 81 82  1  0
 82 83  1  0
 83 84  1  0
 83 85  2  0
 82 86  2  0
 78 87  1  0
 87 88  2  0
 88 89  1  0
 89 90  2  0
 90 91  1  0
 91 92  2  0
 92 93  1  0
 93 94  2  0
 94 95  1  0
 95 96  1  0
 96 97  1  0
 94 98  1  0
 98 99  1  0
 98100  2  0
 90101  1  0
101102  2  0
102103  1  0
103104  1  0
104105  2  0
105106  1  0
106107  2  0
107108  1  0
108109  1  0
109110  1  0
107111  1  0
111112  2  0
111113  1  0
103114  2  0
114115  1  0
102116  1  0
116117  2  0
117118  1  0
117119  1  0
119120  2  0
120121  1  0
121122  2  0
122123  1  0
123124  2  0
124125  1  0
125126  2  0
126127  1  0
127128  1  0
128129  1  0
126130  1  0
130131  1  0
130132  2  0
122133  1  0
133134  2  0
134135  1  0
135136  1  0
136137  2  0
137138  1  0
138139  2  0
139140  1  0
140141  1  0
141142  1  0
139143  1  0
143144  2  0
143145  1  0
135146  2  0
146147  1  0
134148  1  0
148149  2  0
149150  1  0
 29  1  1  0
 61 33  1  0
 69 65  2  0
 80 76  2  0
115 87  1  0
147119  1  0
 28  3  1  0
 60 35  1  0
 75 68  1  0
 86 79  1  0
114 89  1  0
146121  1  0
 14  5  1  0
 32 15  1  0
 46 37  1  0
 64 47  1  0
100 91  1  0
118101  1  0
132123  1  0
150133  1  0
 26 18  1  0
 58 50  1  0
112104  1  0
144136  1  0
  1151  1  0
  2152  1  0
  6153  1  0
  7154  1  0
 10155  1  0
 10156  1  0
 11157  1  0
 11158  1  0
 11159  1  0
 14160  1  0
 19161  1  0
 20162  1  0
 23163  1  0
 23164  1  0
 24165  1  0
 24166  1  0
 24167  1  0
 26168  1  0
 30169  1  0
 34170  1  0
 38171  1  0
 39172  1  0
 42173  1  0
 42174  1  0
 43175  1  0
 43176  1  0
 43177  1  0
 46178  1  0
 51179  1  0
 52180  1  0
 55181  1  0
 55182  1  0
 56183  1  0
 56184  1  0
 56185  1  0
 58186  1  0
 62187  1  0
 75188  1  0
 86189  1  0
 88190  1  0
 92191  1  0
 93192  1  0
 96193  1  0
 96194  1  0
 97195  1  0
 97196  1  0
 97197  1  0
100198  1  0
105199  1  0
106200  1  0
109201  1  0
109202  1  0
110203  1  0
110204  1  0
110205  1  0
112206  1  0
116207  1  0
120208  1  0
124209  1  0
125210  1  0
128211  1  0
128212  1  0
129213  1  0
129214  1  0
129215  1  0
132216  1  0
137217  1  0
138218  1  0
141219  1  0
141220  1  0
142221  1  0
142222  1  0
142223  1  0
144224  1  0
148225  1  0
149226  1  0
M  CHG  4  72   1  73  -1  83   1  84  -1
M  END

