
     RDKit          3D

246271  0  0  0  0  0  0  0  0999 V2000
    0.9750    0.7262   11.2623 C   0  0  0  0  0  0  0  0  0  0  0  0
    0.0000    1.5091   10.6584 C   0  0  0  0  0  0  0  0  0  0  0  0
   -0.6547    0.8635    9.5939 C   0  0  0  0  0  0  0  0  0  0  0  0
   -1.7003    1.3933    8.8096 C   0  0  0  0  0  0  0  0  0  0  0  0
   -2.1755    2.7869    8.9680 C   0  0  0  0  0  0  0  0  0  0  0  0
   -1.2787    3.8611    8.8356 C   0  0  0  0  0  0  0  0  0  0  0  0
   -1.7317    5.1777    8.9561 C   0  0  0  0  0  0  0  0  0  0  0  0
   -3.0890    5.4342    9.1780 C   0  0  0  0  0  0  0  0  0  0  0  0
   -3.6684    7.1336    9.2996 S   0  0  0  0  0  0  0  0  0  0  0  0
   -3.9713    7.3324    7.5063 C   0  0  0  0  0  0  0  0  0  0  0  0
   -2.7477    7.9347    6.8239 C   0  0  0  0  0  0  0  0  0  0  0  0
   -3.9898    4.3686    9.3129 C   0  0  0  0  0  0  0  0  0  0  0  0
   -5.3076    4.6042    9.5253 F   0  0  0  0  0  0  0  0  0  0  0  0
   -3.5328    3.0509    9.2083 C   0  0  0  0  0  0  0  0  0  0  0  0
   -2.2492    0.5412    7.8289 C   0  0  0  0  0  0  0  0  0  0  0  0
   -1.7805   -0.7597    7.6048 C   0  0  0  0  0  0  0  0  0  0  0  0
   -0.7241   -1.2851    8.3856 C   0  0  0  0  0  0  0  0  0  0  0  0
   -0.1962   -2.6549    8.1835 C   0  0  0  0  0  0  0  0  0  0  0  0
    1.1723   -2.8571    7.9389 C   0  0  0  0  0  0  0  0  0  0  0  0
    1.6744   -4.1499    7.7730 C   0  0  0  0  0  0  0  0  0  0  0  0
    0.8137   -5.2501    7.8283 C   0  0  0  0  0  0  0  0  0  0  0  0
    1.4734   -6.9035    7.5869 S   0  0  0  0  0  0  0  0  0  0  0  0
    1.2626   -6.8522    5.7777 C   0  0  0  0  0  0  0  0  0  0  0  0
    1.7795   -8.1401    5.1571 C   0  0  0  0  0  0  0  0  0  0  0  0
   -0.5532   -5.0570    8.0685 C   0  0  0  0  0  0  0  0  0  0  0  0
   -1.0545   -3.7650    8.2495 C   0  0  0  0  0  0  0  0  0  0  0  0
   -1.3971   -6.1172    8.1280 F   0  0  0  0  0  0  0  0  0  0  0  0
   -0.1891   -0.4364    9.3748 C   0  0  0  0  0  0  0  0  0  0  0  0
    1.0221   -0.7707   10.4957 S   0  0  0  0  0  0  0  0  0  0  0  0
   -2.4195   -1.3953    6.5226 C   0  0  0  0  0  0  0  0  0  0  0  0
   -3.3981   -0.6023    5.9173 C   0  0  0  0  0  0  0  0  0  0  0  0
   -3.4477    0.8926    6.7014 S   0  0  0  0  0  0  0  0  0  0  0  0
   -4.1585   -0.9377    4.7017 C   0  0  0  0  0  0  0  0  0  0  0  0
   -3.9564   -2.0561    3.8899 C   0  0  0  0  0  0  0  0  0  0  0  0
   -4.6602   -1.9881    2.6729 C   0  0  0  0  0  0  0  0  0  0  0  0
   -4.5574   -2.8841    1.5846 C   0  0  0  0  0  0  0  0  0  0  0  0
   -3.7803   -4.1445    1.6441 C   0  0  0  0  0  0  0  0  0  0  0  0
   -2.4137   -4.1459    1.9754 C   0  0  0  0  0  0  0  0  0  0  0  0
   -1.6973   -5.3463    2.0063 C   0  0  0  0  0  0  0  0  0  0  0  0
   -2.3276   -6.5528    1.6794 C   0  0  0  0  0  0  0  0  0  0  0  0
   -1.3879   -8.0831    1.6697 S   0  0  0  0  0  0  0  0  0  0  0  0
   -1.8414   -8.5251    3.3788 C   0  0  0  0  0  0  0  0  0  0  0  0
   -1.3094   -9.9100    3.7137 C   0  0  0  0  0  0  0  0  0  0  0  0
   -3.6844   -6.5546    1.3302 C   0  0  0  0  0  0  0  0  0  0  0  0
   -4.3023   -7.7132    0.9936 F   0  0  0  0  0  0  0  0  0  0  0  0
   -4.4054   -5.3604    1.3245 C   0  0  0  0  0  0  0  0  0  0  0  0
   -5.2267   -2.5117    0.4004 C   0  0  0  0  0  0  0  0  0  0  0  0
   -6.0271   -1.3673    0.3038 C   0  0  0  0  0  0  0  0  0  0  0  0
   -6.1986   -0.5226    1.4192 C   0  0  0  0  0  0  0  0  0  0  0  0
   -7.0956    0.6570    1.3907 C   0  0  0  0  0  0  0  0  0  0  0  0
   -8.1797    0.7252    2.2782 C   0  0  0  0  0  0  0  0  0  0  0  0
   -9.0348    1.8275    2.2644 C   0  0  0  0  0  0  0  0  0  0  0  0
   -8.8224    2.8693    1.3519 C   0  0  0  0  0  0  0  0  0  0  0  0
   -9.9228    4.2946    1.3613 S   0  0  0  0  0  0  0  0  0  0  0  0
  -11.2296    3.5217    0.3406 C   0  0  0  0  0  0  0  0  0  0  0  0
  -10.9250    3.6704   -1.1442 C   0  0  0  0  0  0  0  0  0  0  0  0
   -7.7337    2.8147    0.4706 C   0  0  0  0  0  0  0  0  0  0  0  0
   -6.8713    1.7140    0.4933 C   0  0  0  0  0  0  0  0  0  0  0  0
   -7.4974    3.8326   -0.3935 F   0  0  0  0  0  0  0  0  0  0  0  0
   -5.4667   -0.8447    2.5751 C   0  0  0  0  0  0  0  0  0  0  0  0
   -5.2613    0.0950    3.9551 S   0  0  0  0  0  0  0  0  0  0  0  0
   -6.5004   -1.1323   -0.9961 C   0  0  0  0  0  0  0  0  0  0  0  0
   -6.0057   -2.0408   -1.9345 C   0  0  0  0  0  0  0  0  0  0  0  0
   -5.0569   -3.1869   -1.1319 S   0  0  0  0  0  0  0  0  0  0  0  0
   -5.9504   -1.7784   -3.3845 C   0  0  0  0  0  0  0  0  0  0  0  0
   -5.1054   -2.4399   -4.2750 C   0  0  0  0  0  0  0  0  0  0  0  0
   -4.8834   -1.7238   -5.4615 C   0  0  0  0  0  0  0  0  0  0  0  0
   -3.9297   -2.0427   -6.4485 C   0  0  0  0  0  0  0  0  0  0  0  0
   -3.0967   -3.2578   -6.3581 C   0  0  0  0  0  0  0  0  0  0  0  0
   -3.6380   -4.5111   -6.6616 C   0  0  0  0  0  0  0  0  0  0  0  0
   -2.8298   -5.6508   -6.6441 C   0  0  0  0  0  0  0  0  0  0  0  0
   -1.4726   -5.5442   -6.3026 C   0  0  0  0  0  0  0  0  0  0  0  0
   -0.4216   -6.9982   -6.3498 S   0  0  0  0  0  0  0  0  0  0  0  0
   -0.7879   -7.4881   -4.6316 C   0  0  0  0  0  0  0  0  0  0  0  0
    0.1408   -8.6188   -4.2137 C   0  0  0  0  0  0  0  0  0  0  0  0
   -0.9346   -4.2914   -5.9726 C   0  0  0  0  0  0  0  0  0  0  0  0
    0.3760   -4.1729   -5.6418 F   0  0  0  0  0  0  0  0  0  0  0  0
   -1.7437   -3.1541   -5.9993 C   0  0  0  0  0  0  0  0  0  0  0  0
   -3.6825   -1.0696   -7.4323 C   0  0  0  0  0  0  0  0  0  0  0  0
   -4.3465    0.1594   -7.4625 C   0  0  0  0  0  0  0  0  0  0  0  0
   -5.3307    0.4639   -6.5004 C   0  0  0  0  0  0  0  0  0  0  0  0
   -5.9470    1.8033   -6.4324 C   0  0  0  0  0  0  0  0  0  0  0  0
   -6.7756    2.2549   -7.4703 C   0  0  0  0  0  0  0  0  0  0  0  0
   -7.3058    3.5480   -7.4350 C   0  0  0  0  0  0  0  0  0  0  0  0
   -6.9996    4.4036   -6.3718 C   0  0  0  0  0  0  0  0  0  0  0  0
   -7.6561    6.0769   -6.3505 S   0  0  0  0  0  0  0  0  0  0  0  0
   -6.1521    6.8553   -7.0438 C   0  0  0  0  0  0  0  0  0  0  0  0
   -6.1319    6.7520   -8.5632 C   0  0  0  0  0  0  0  0  0  0  0  0
   -6.1842    3.9510   -5.3248 C   0  0  0  0  0  0  0  0  0  0  0  0
   -5.6546    2.6585   -5.3607 C   0  0  0  0  0  0  0  0  0  0  0  0
   -5.8791    4.7668   -4.2866 F   0  0  0  0  0  0  0  0  0  0  0  0
   -5.5702   -0.5056   -5.5077 C   0  0  0  0  0  0  0  0  0  0  0  0
   -6.4507   -0.3232   -4.0885 S   0  0  0  0  0  0  0  0  0  0  0  0
   -3.7850    1.0684   -8.3795 C   0  0  0  0  0  0  0  0  0  0  0  0
   -2.6896    0.5498   -9.0730 C   0  0  0  0  0  0  0  0  0  0  0  0
   -2.4187   -1.0330   -8.5408 S   0  0  0  0  0  0  0  0  0  0  0  0
   -1.6288    1.4157   -9.6946 C   0  0  0  0  0  0  0  0  0  0  0  0
   -0.7974    0.6714  -10.7029 C   0  0  0  0  0  0  0  0  0  0  0  0
   -1.2351    0.2335  -11.8009 O   0  0  0  0  0  0  0  0  0  0  0  0
    0.5208    0.5066  -10.2955 O   0  0  0  0  0  0  0  0  0  0  0  0
    0.6290    1.1176   -9.0585 C   0  0  0  0  0  0  0  0  0  0  0  0
   -0.5694    1.7098   -8.6770 C   0  0  0  0  0  0  0  0  0  0  0  0
   -0.7218    2.2925   -7.4103 C   0  0  0  0  0  0  0  0  0  0  0  0
    0.3785    2.2231   -6.5469 C   0  0  0  0  0  0  0  0  0  0  0  0
    1.5859    1.6599   -6.9444 C   0  0  0  0  0  0  0  0  0  0  0  0
    1.7462    1.0933   -8.2170 C   0  0  0  0  0  0  0  0  0  0  0  0
    2.5289    1.6234   -5.7843 C   0  0  0  0  0  0  0  0  0  0  0  0
    1.6591    2.2585   -4.7343 C   0  0  0  0  0  0  0  0  0  0  0  0
    2.0134    2.4477   -3.5418 O   0  0  0  0  0  0  0  0  0  0  0  0
    0.4063    2.6103   -5.2214 O   0  0  0  0  0  0  0  0  0  0  0  0
    3.7904    2.4063   -6.0479 C   0  0  0  0  0  0  0  0  0  0  0  0
    3.8134    3.7515   -6.1525 C   0  0  0  0  0  0  0  0  0  0  0  0
    5.0882    4.5275   -6.3618 C   0  0  0  0  0  0  0  0  0  0  0  0
    5.7142    4.1975   -7.6861 C   0  0  0  0  0  0  0  0  0  0  0  0
    5.1901    4.4511   -8.8010 O   0  0  0  0  0  0  0  0  0  0  0  0
    6.9596    3.5913   -7.5545 O   0  0  0  0  0  0  0  0  0  0  0  0
    7.2173    3.5157   -6.2008 C   0  0  0  0  0  0  0  0  0  0  0  0
    6.1888    4.0704   -5.4494 C   0  0  0  0  0  0  0  0  0  0  0  0
    6.2480    4.1159   -4.0466 C   0  0  0  0  0  0  0  0  0  0  0  0
    7.3837    3.5573   -3.4487 C   0  0  0  0  0  0  0  0  0  0  0  0
    8.3918    2.9713   -4.2013 C   0  0  0  0  0  0  0  0  0  0  0  0
    8.3452    2.9484   -5.6016 C   0  0  0  0  0  0  0  0  0  0  0  0
    9.4723    2.4706   -3.3015 C   0  0  0  0  0  0  0  0  0  0  0  0
    8.9050    2.8736   -1.9742 C   0  0  0  0  0  0  0  0  0  0  0  0
    9.4924    2.7208   -0.8715 O   0  0  0  0  0  0  0  0  0  0  0  0
    7.6722    3.5117   -2.0957 O   0  0  0  0  0  0  0  0  0  0  0  0
    9.7312    0.9984   -3.5559 C   0  0  0  0  0  0  0  0  0  0  0  0
    9.3390   -0.1105   -2.8959 C   0  0  0  0  0  0  0  0  0  0  0  0
    8.5640   -0.2492   -1.6459 C   0  0  0  0  0  0  0  0  0  0  0  0
    8.8122   -1.2795   -0.7408 C   0  0  0  0  0  0  0  0  0  0  0  0
    7.8608   -1.3735    0.2854 C   0  0  0  0  0  0  0  0  0  0  0  0
    7.8648   -2.3079    1.3445 C   0  0  0  0  0  0  0  0  0  0  0  0
    8.9146   -3.3459    1.4738 C   0  0  0  0  0  0  0  0  0  0  0  0
    9.1163   -4.2881    0.4518 C   0  0  0  0  0  0  0  0  0  0  0  0
   10.1396   -5.2357    0.5566 C   0  0  0  0  0  0  0  0  0  0  0  0
   10.9597   -5.2619    1.6907 C   0  0  0  0  0  0  0  0  0  0  0  0
   12.3112   -6.4450    1.7973 S   0  0  0  0  0  0  0  0  0  0  0  0
   11.3236   -7.7673    2.5850 C   0  0  0  0  0  0  0  0  0  0  0  0
   10.9178   -8.8049    1.5453 C   0  0  0  0  0  0  0  0  0  0  0  0
   10.7546   -4.3336    2.7187 C   0  0  0  0  0  0  0  0  0  0  0  0
   11.5419   -4.3458    3.8232 F   0  0  0  0  0  0  0  0  0  0  0  0
    9.7460   -3.3727    2.6067 C   0  0  0  0  0  0  0  0  0  0  0  0
    6.8425   -2.1810    2.3026 C   0  0  0  0  0  0  0  0  0  0  0  0
    5.8628   -1.1871    2.2362 C   0  0  0  0  0  0  0  0  0  0  0  0
    5.8413   -0.2684    1.1601 C   0  0  0  0  0  0  0  0  0  0  0  0
    4.8763    0.8518    1.1223 C   0  0  0  0  0  0  0  0  0  0  0  0
    3.4944    0.6031    1.1282 C   0  0  0  0  0  0  0  0  0  0  0  0
    2.5884    1.6597    1.2648 C   0  0  0  0  0  0  0  0  0  0  0  0
    3.0550    2.9729    1.3714 C   0  0  0  0  0  0  0  0  0  0  0  0
    1.8909    4.3137    1.6432 S   0  0  0  0  0  0  0  0  0  0  0  0
    1.7437    4.7733   -0.1176 C   0  0  0  0  0  0  0  0  0  0  0  0
    0.6900    3.9227   -0.8150 C   0  0  0  0  0  0  0  0  0  0  0  0
    4.4324    3.2312    1.3201 C   0  0  0  0  0  0  0  0  0  0  0  0
    5.3373    2.1743    1.1928 C   0  0  0  0  0  0  0  0  0  0  0  0
    4.8971    4.5013    1.4244 F   0  0  0  0  0  0  0  0  0  0  0  0
    6.8563   -0.4044    0.1907 C   0  0  0  0  0  0  0  0  0  0  0  0
    7.1108    0.5049   -1.2091 S   0  0  0  0  0  0  0  0  0  0  0  0
    4.9934   -1.2044    3.3410 C   0  0  0  0  0  0  0  0  0  0  0  0
    5.2651   -2.2300    4.2396 C   0  0  0  0  0  0  0  0  0  0  0  0
    6.5975   -3.1013    3.6902 S   0  0  0  0  0  0  0  0  0  0  0  0
    1.5925    1.0228   12.0993 H   0  0  0  0  0  0  0  0  0  0  0  0
   -0.2327    2.5078   10.9993 H   0  0  0  0  0  0  0  0  0  0  0  0
   -0.2302    3.6812    8.6400 H   0  0  0  0  0  0  0  0  0  0  0  0
   -1.0272    5.9935    8.8702 H   0  0  0  0  0  0  0  0  0  0  0  0
   -4.8366    8.0188    7.3752 H   0  0  0  0  0  0  0  0  0  0  0  0
   -4.2335    6.3629    7.0284 H   0  0  0  0  0  0  0  0  0  0  0  0
   -2.9669    8.0990    5.7495 H   0  0  0  0  0  0  0  0  0  0  0  0
   -1.8784    7.2496    6.9120 H   0  0  0  0  0  0  0  0  0  0  0  0
   -2.4884    8.9115    7.2874 H   0  0  0  0  0  0  0  0  0  0  0  0
   -4.2360    2.2361    9.3294 H   0  0  0  0  0  0  0  0  0  0  0  0
    1.8525   -2.0173    7.8772 H   0  0  0  0  0  0  0  0  0  0  0  0
    2.7324   -4.2938    7.5909 H   0  0  0  0  0  0  0  0  0  0  0  0
    1.8259   -5.9915    5.3594 H   0  0  0  0  0  0  0  0  0  0  0  0
    0.1860   -6.7284    5.5389 H   0  0  0  0  0  0  0  0  0  0  0  0
    1.2724   -9.0159    5.6160 H   0  0  0  0  0  0  0  0  0  0  0  0
    1.5787   -8.1361    4.0644 H   0  0  0  0  0  0  0  0  0  0  0  0
    2.8758   -8.2255    5.3197 H   0  0  0  0  0  0  0  0  0  0  0  0
   -2.1091   -3.6282    8.4469 H   0  0  0  0  0  0  0  0  0  0  0  0
   -2.1493   -2.3792    6.1673 H   0  0  0  0  0  0  0  0  0  0  0  0
   -3.2776   -2.8524    4.1479 H   0  0  0  0  0  0  0  0  0  0  0  0
   -1.9021   -3.2179    2.1938 H   0  0  0  0  0  0  0  0  0  0  0  0
   -0.6451   -5.3360    2.2691 H   0  0  0  0  0  0  0  0  0  0  0  0
   -2.9466   -8.5233    3.4884 H   0  0  0  0  0  0  0  0  0  0  0  0
   -1.4097   -7.7810    4.0783 H   0  0  0  0  0  0  0  0  0  0  0  0
   -1.5482  -10.1611    4.7683 H   0  0  0  0  0  0  0  0  0  0  0  0
   -0.2094   -9.9438    3.5784 H   0  0  0  0  0  0  0  0  0  0  0  0
   -1.7790  -10.6658    3.0493 H   0  0  0  0  0  0  0  0  0  0  0  0
   -5.4556   -5.3826    1.0595 H   0  0  0  0  0  0  0  0  0  0  0  0
   -8.3578   -0.0745    2.9872 H   0  0  0  0  0  0  0  0  0  0  0  0
   -9.8598    1.8732    2.9645 H   0  0  0  0  0  0  0  0  0  0  0  0
  -12.1862    4.0411    0.5588 H   0  0  0  0  0  0  0  0  0  0  0  0
  -11.3557    2.4480    0.5970 H   0  0  0  0  0  0  0  0  0  0  0  0
  -10.7433    4.7367   -1.3953 H   0  0  0  0  0  0  0  0  0  0  0  0
  -10.0327    3.0683   -1.4136 H   0  0  0  0  0  0  0  0  0  0  0  0
  -11.7915    3.3058   -1.7341 H   0  0  0  0  0  0  0  0  0  0  0  0
   -6.0279    1.6866   -0.1857 H   0  0  0  0  0  0  0  0  0  0  0  0
   -7.0930   -0.2733   -1.2737 H   0  0  0  0  0  0  0  0  0  0  0  0
   -4.5757   -3.3514   -4.0166 H   0  0  0  0  0  0  0  0  0  0  0  0
   -4.6809   -4.6049   -6.9410 H   0  0  0  0  0  0  0  0  0  0  0  0
   -3.2483   -6.6146   -6.9090 H   0  0  0  0  0  0  0  0  0  0  0  0
   -1.8440   -7.8325   -4.5660 H   0  0  0  0  0  0  0  0  0  0  0  0
   -0.6366   -6.6268   -3.9445 H   0  0  0  0  0  0  0  0  0  0  0  0
    0.0588   -9.4685   -4.9240 H   0  0  0  0  0  0  0  0  0  0  0  0
    1.1917   -8.2569   -4.1924 H   0  0  0  0  0  0  0  0  0  0  0  0
   -0.1383   -8.9759   -3.2018 H   0  0  0  0  0  0  0  0  0  0  0  0
   -1.3165   -2.1899   -5.7620 H   0  0  0  0  0  0  0  0  0  0  0  0
   -7.0032    1.6087   -8.3103 H   0  0  0  0  0  0  0  0  0  0  0  0
   -7.9469    3.8861   -8.2403 H   0  0  0  0  0  0  0  0  0  0  0  0
   -6.1543    7.9307   -6.7591 H   0  0  0  0  0  0  0  0  0  0  0  0
   -5.2357    6.3945   -6.6206 H   0  0  0  0  0  0  0  0  0  0  0  0
   -5.2345    7.2735   -8.9566 H   0  0  0  0  0  0  0  0  0  0  0  0
   -7.0386    7.2282   -8.9919 H   0  0  0  0  0  0  0  0  0  0  0  0
   -6.0853    5.6882   -8.8782 H   0  0  0  0  0  0  0  0  0  0  0  0
   -4.9947    2.3343   -4.5671 H   0  0  0  0  0  0  0  0  0  0  0  0
   -4.0782    2.1082   -8.4497 H   0  0  0  0  0  0  0  0  0  0  0  0
   -2.0444    2.3498  -10.1285 H   0  0  0  0  0  0  0  0  0  0  0  0
   -1.6683    2.7030   -7.0840 H   0  0  0  0  0  0  0  0  0  0  0  0
    2.6664    0.6003   -8.5086 H   0  0  0  0  0  0  0  0  0  0  0  0
    2.7674    0.5718   -5.5140 H   0  0  0  0  0  0  0  0  0  0  0  0
    4.7152    1.8403   -6.1422 H   0  0  0  0  0  0  0  0  0  0  0  0
    2.8881    4.3132   -6.0703 H   0  0  0  0  0  0  0  0  0  0  0  0
    4.9183    5.6230   -6.2643 H   0  0  0  0  0  0  0  0  0  0  0  0
    5.4559    4.5620   -3.4567 H   0  0  0  0  0  0  0  0  0  0  0  0
    9.1386    2.5064   -6.1899 H   0  0  0  0  0  0  0  0  0  0  0  0
   10.4021    3.0447   -3.4923 H   0  0  0  0  0  0  0  0  0  0  0  0
   10.3305    0.8149   -4.4434 H   0  0  0  0  0  0  0  0  0  0  0  0
    9.7281   -1.0425   -3.2853 H   0  0  0  0  0  0  0  0  0  0  0  0
    9.6627   -1.9400   -0.8338 H   0  0  0  0  0  0  0  0  0  0  0  0
    8.4947   -4.2783   -0.4346 H   0  0  0  0  0  0  0  0  0  0  0  0
   10.3008   -5.9394   -0.2490 H   0  0  0  0  0  0  0  0  0  0  0  0
   11.9558   -8.2590    3.3556 H   0  0  0  0  0  0  0  0  0  0  0  0
   10.4184   -7.3635    3.0899 H   0  0  0  0  0  0  0  0  0  0  0  0
   11.8233   -9.2270    1.0564 H   0  0  0  0  0  0  0  0  0  0  0  0
   10.2729   -8.3390    0.7689 H   0  0  0  0  0  0  0  0  0  0  0  0
   10.3623   -9.6322    2.0369 H   0  0  0  0  0  0  0  0  0  0  0  0
    9.6078   -2.6517    3.4012 H   0  0  0  0  0  0  0  0  0  0  0  0
    3.1217   -0.4114    1.0750 H   0  0  0  0  0  0  0  0  0  0  0  0
    1.5273    1.4509    1.3194 H   0  0  0  0  0  0  0  0  0  0  0  0
    1.4381    5.8399   -0.1743 H   0  0  0  0  0  0  0  0  0  0  0  0
    2.7221    4.6719   -0.6348 H   0  0  0  0  0  0  0  0  0  0  0  0
   -0.2972    4.0518   -0.3186 H   0  0  0  0  0  0  0  0  0  0  0  0
    0.9744    2.8510   -0.7828 H   0  0  0  0  0  0  0  0  0  0  0  0
    0.6067    4.2372   -1.8764 H   0  0  0  0  0  0  0  0  0  0  0  0
    6.3988    2.3829    1.2071 H   0  0  0  0  0  0  0  0  0  0  0  0
    4.1929   -0.4963    3.5000 H   0  0  0  0  0  0  0  0  0  0  0  0
    4.7205   -2.4280    5.1525 H   0  0  0  0  0  0  0  0  0  0  0  0
  1  2  2  0
  2  3  1  0
  3  4  2  0
  4  5  1  0
  5  6  2  0
  6  7  1  0
  7  8  2  0
  8  9  1  0
  9 10  1  0
 10 11  1  0
  8 12  1  0
 12 13  1  0
 12 14  2  0
  4 15  1  0
 15 16  2  0
 16 17  1  0
 17 18  1  0
 18 19  2  0
 19 20  1  0
 20 21  2  0
 21 22  1  0
 22 23  1  0
 23 24  1  0
 21 25  1  0
 25 26  2  0
 25 27  1  0
 17 28  2  0
 28 29  1  0
 16 30  1  0
 30 31  2  0
 31 32  1  0
 31 33  1  0
 33 34  2  0
 34 35  1  0
 35 36  2  0
 36 37  1  0
 37 38  2  0
 38 39  1  0
 39 40  2  0
 40 41  1  0
 41 42  1  0
 42 43  1  0
 40 44  1  0
 44 45  1  0
 44 46  2  0
 36 47  1  0
 47 48  2  0
 48 49  1  0
 49 50  1  0
 50 51  2  0
 51 52  1  0
 52 53  2  0
 53 54  1  0
 54 55  1  0
 55 56  1  0
 53 57  1  0
 57 58  2  0
 57 59  1  0
 49 60  2  0
 60 61  1  0
 48 62  1  0
 62 63  2  0
 63 64  1  0
 63 65  1  0
 65 66  2  0
 66 67  1  0
 67 68  2  0
 68 69  1  0
 69 70  2  0
 70 71  1  0
 71 72  2  0
 72 73  1  0
 73 74  1  0
 74 75  1  0
 72 76  1  0
 76 77  1  0
 76 78  2  0
 68 79  1  0
 79 80  2  0
 80 81  1  0
 81 82  1  0
 82 83  2  0
 83 84  1  0
 84 85  2  0
 85 86  1  0
 86 87  1  0
 87 88  1  0
 85 89  1  0
 89 90  2  0
 89 91  1  0
 81 92  2  0
 92 93  1  0
 80 94  1  0
 94 95  2  0
 95 96  1  0
 95 97  1  0
 97 98  1  0
 98 99  2  0
 98100  1  0
100101  1  0
101102  2  0
102103  1  0
103104  2  0
104105  1  0
105106  2  0
105107  1  0
107108  1  0
108109  2  0
108110  1  0
107111  1  0
111112  2  3
112113  1  0
113114  1  0
114115  2  0
114116  1  0
116117  1  0
117118  2  0
118119  1  0
119120  2  0
120121  1  0
121122  2  0
121123  1  0
123124  1  0
124125  2  0
124126  1  0
123127  1  0
127128  2  3
128129  1  0
129130  2  0
130131  1  0
131132  2  0
132133  1  0
133134  2  0
134135  1  0
135136  2  0
136137  1  0
137138  1  0
138139  1  0
136140  1  0
140141  1  0
140142  2  0
132143  1  0
143144  2  0
144145  1  0
145146  1  0
146147  2  0
147148  1  0
148149  2  0
149150  1  0
150151  1  0
151152  1  0
149153  1  0
153154  2  0
153155  1  0
145156  2  0
156157  1  0
144158  1  0
158159  2  0
159160  1  0
 29  1  1  0
 61 33  1  0
 93 65  1  0
102 97  1  0
110104  1  0
118113  1  0
126120  1  0
157129  1  0
 28  3  1  0
 60 35  1  0
 92 67  1  0
106101  1  0
122117  1  0
156131  1  0
 14  5  1  0
 32 15  1  0
 46 37  1  0
 64 47  1  0
 78 69  1  0
 96 79  1  0
142133  1  0
160143  1  0
 26 18  1  0
 58 50  1  0
 90 82  1  0
154146  1  0
  1161  1  0
  2162  1  0
  6163  1  0
  7164  1  0
 10165  1  0
 10166  1  0
 11167  1  0
 11168  1  0
 11169  1  0
 14170  1  0
 19171  1  0
 20172  1  0
 23173  1  0
 23174  1  0
 24175  1  0
 24176  1  0
 24177  1  0
 26178  1  0
 30179  1  0
 34180  1  0
 38181  1  0
 39182  1  0
 42183  1  0
 42184  1  0
 43185  1  0
 43186  1  0
 43187  1  0
 46188  1  0
 51189  1  0
 52190  1  0
 55191  1  0
 55192  1  0
 56193  1  0
 56194  1  0
 56195  1  0
 58196  1  0
 62197  1  0
 66198  1  0
 70199  1  0
 71200  1  0
 74201  1  0
 74202  1  0
 75203  1  0
 75204  1  0
 75205  1  0
 78206  1  0
 83207  1  0
 84208  1  0
 87209  1  0
 87210  1  0
 88211  1  0
 88212  1  0
 88213  1  0
 90214  1  0
 94215  1  0
 97216  1  0
103217  1  0
106218  1  0
107219  1  0
111220  1  0
112221  1  0
113222  1  0
119223  1  0
122224  1  0
123225  1  0
127226  1  0
128227  1  0
130228  1  0
134229  1  0
135230  1  0
138231  1  0
138232  1  0
139233  1  0
139234  1  0
139235  1  0
142236  1  0
147237  1  0
148238  1  0
151239  1  0
151240  1  0
152241  1  0
152242  1  0
152243  1  0
154244  1  0
158245  1  0
159246  1  0
M  END

