
     RDKit          3D

223249  0  0  0  0  0  0  0  0999 V2000
   -1.3392  -12.0428    9.2825 C   0  0  0  0  0  0  0  0  0  0  0  0
   -0.1702  -11.6675    8.6275 C   0  0  0  0  0  0  0  0  0  0  0  0
   -0.4043  -11.0673    7.3811 C   0  0  0  0  0  0  0  0  0  0  0  0
    0.5706  -10.5662    6.4969 C   0  0  0  0  0  0  0  0  0  0  0  0
    2.0094  -10.6424    6.7928 C   0  0  0  0  0  0  0  0  0  0  0  0
    2.8069   -9.7068    7.9415 S   0  0  0  0  0  0  0  0  0  0  0  0
    4.3506  -10.2839    7.5956 C   0  0  0  0  0  0  0  0  0  0  0  0
    5.6074   -9.7912    8.2459 C   0  0  0  0  0  0  0  0  0  0  0  0
    6.3086   -8.7711    7.3558 C   0  0  0  0  0  0  0  0  0  0  0  0
    4.2602  -11.2108    6.5572 C   0  0  0  0  0  0  0  0  0  0  0  0
    5.6478  -12.0421    5.8711 Cl  0  0  0  0  0  0  0  0  0  0  0  0
    2.9457  -11.4125    6.1072 C   0  0  0  0  0  0  0  0  0  0  0  0
    2.5225  -12.5380    4.8234 Cl  0  0  0  0  0  0  0  0  0  0  0  0
    0.1108   -9.9944    5.2996 C   0  0  0  0  0  0  0  0  0  0  0  0
   -1.2462   -9.9342    4.9655 C   0  0  0  0  0  0  0  0  0  0  0  0
   -2.2223  -10.4269    5.8519 C   0  0  0  0  0  0  0  0  0  0  0  0
   -3.6612  -10.2787    5.5773 C   0  0  0  0  0  0  0  0  0  0  0  0
   -4.4700   -8.8055    5.4960 S   0  0  0  0  0  0  0  0  0  0  0  0
   -5.9893   -9.4537    5.1783 C   0  0  0  0  0  0  0  0  0  0  0  0
   -7.2188   -8.6394    4.9126 C   0  0  0  0  0  0  0  0  0  0  0  0
   -7.3519   -8.3260    3.4270 C   0  0  0  0  0  0  0  0  0  0  0  0
   -5.8765  -10.8422    5.1084 C   0  0  0  0  0  0  0  0  0  0  0  0
   -4.5709  -11.3053    5.3401 C   0  0  0  0  0  0  0  0  0  0  0  0
   -4.1184  -13.0034    5.2702 Cl  0  0  0  0  0  0  0  0  0  0  0  0
   -7.2286  -11.9093    4.7533 Cl  0  0  0  0  0  0  0  0  0  0  0  0
   -1.7636  -10.9907    7.0551 C   0  0  0  0  0  0  0  0  0  0  0  0
   -2.6643  -11.6358    8.3195 S   0  0  0  0  0  0  0  0  0  0  0  0
   -1.4788   -9.3548    3.7097 C   0  0  0  0  0  0  0  0  0  0  0  0
   -0.3066   -8.9236    3.0923 C   0  0  0  0  0  0  0  0  0  0  0  0
    1.0172   -9.2737    4.0787 S   0  0  0  0  0  0  0  0  0  0  0  0
   -0.2289   -8.2682    1.7846 C   0  0  0  0  0  0  0  0  0  0  0  0
    0.6859   -7.2814    1.4246 C   0  0  0  0  0  0  0  0  0  0  0  0
    0.4810   -6.8012    0.1206 C   0  0  0  0  0  0  0  0  0  0  0  0
    1.1989   -5.7661   -0.5132 C   0  0  0  0  0  0  0  0  0  0  0  0
    2.2317   -4.9991    0.2046 C   0  0  0  0  0  0  0  0  0  0  0  0
    1.9402   -4.0525    1.5630 S   0  0  0  0  0  0  0  0  0  0  0  0
    3.5511   -3.7044    1.8932 C   0  0  0  0  0  0  0  0  0  0  0  0
    4.0219   -2.9415    3.0943 C   0  0  0  0  0  0  0  0  0  0  0  0
    4.1018   -3.8550    4.3134 C   0  0  0  0  0  0  0  0  0  0  0  0
    4.3469   -4.3515    0.9487 C   0  0  0  0  0  0  0  0  0  0  0  0
    6.1059   -4.3044    0.9671 Cl  0  0  0  0  0  0  0  0  0  0  0  0
    3.6059   -5.0696   -0.0037 C   0  0  0  0  0  0  0  0  0  0  0  0
    4.3434   -6.0341   -1.2784 Cl  0  0  0  0  0  0  0  0  0  0  0  0
    0.8293   -5.4483   -1.8339 C   0  0  0  0  0  0  0  0  0  0  0  0
   -0.1959   -6.1228   -2.5036 C   0  0  0  0  0  0  0  0  0  0  0  0
   -0.9178   -7.1511   -1.8673 C   0  0  0  0  0  0  0  0  0  0  0  0
   -1.9897   -7.8850   -2.5578 C   0  0  0  0  0  0  0  0  0  0  0  0
   -1.7498   -8.9169   -3.8639 S   0  0  0  0  0  0  0  0  0  0  0  0
   -3.3689   -9.3218   -4.0656 C   0  0  0  0  0  0  0  0  0  0  0  0
   -3.8894  -10.2029   -5.1615 C   0  0  0  0  0  0  0  0  0  0  0  0
   -4.1393   -9.3999   -6.4310 C   0  0  0  0  0  0  0  0  0  0  0  0
   -4.1278   -8.6261   -3.1247 C   0  0  0  0  0  0  0  0  0  0  0  0
   -3.3523   -7.8246   -2.2708 C   0  0  0  0  0  0  0  0  0  0  0  0
   -4.0342   -6.7900   -1.0242 Cl  0  0  0  0  0  0  0  0  0  0  0  0
   -5.8801   -8.7169   -3.0254 Cl  0  0  0  0  0  0  0  0  0  0  0  0
   -0.5614   -7.4528   -0.5445 C   0  0  0  0  0  0  0  0  0  0  0  0
   -1.2610   -8.5818    0.4881 S   0  0  0  0  0  0  0  0  0  0  0  0
   -0.4696   -5.6007   -3.7733 C   0  0  0  0  0  0  0  0  0  0  0  0
    0.3295   -4.5072   -4.1040 C   0  0  0  0  0  0  0  0  0  0  0  0
    1.3795   -4.1919   -2.8112 S   0  0  0  0  0  0  0  0  0  0  0  0
    0.1341   -3.6289   -5.2733 C   0  0  0  0  0  0  0  0  0  0  0  0
    0.6616   -2.0284   -5.3823 S   0  0  0  0  0  0  0  0  0  0  0  0
   -0.1897   -1.6014   -6.7786 C   0  0  0  0  0  0  0  0  0  0  0  0
   -0.9069   -2.7220   -7.1729 C   0  0  0  0  0  0  0  0  0  0  0  0
   -0.7215   -3.8416   -6.3521 C   0  0  0  0  0  0  0  0  0  0  0  0
   -1.3645   -4.9709   -6.6215 O   0  0  0  0  0  0  0  0  0  0  0  0
   -2.1883   -5.0501   -7.6652 C   0  0  0  0  0  0  0  0  0  0  0  0
   -2.7915   -6.1294   -7.9056 O   0  0  0  0  0  0  0  0  0  0  0  0
   -2.3762   -3.9194   -8.4902 C   0  0  0  0  0  0  0  0  0  0  0  0
   -3.1473   -3.9693   -9.4837 O   0  0  0  0  0  0  0  0  0  0  0  0
   -1.7291   -2.7873   -8.2120 O   0  0  0  0  0  0  0  0  0  0  0  0
   -0.3994   -0.2203   -7.2343 C   0  0  0  0  0  0  0  0  0  0  0  0
    0.4619    0.8398   -6.9645 C   0  0  0  0  0  0  0  0  0  0  0  0
   -0.1358    2.0974   -7.1583 C   0  0  0  0  0  0  0  0  0  0  0  0
    0.4457    3.3419   -6.8393 C   0  0  0  0  0  0  0  0  0  0  0  0
    1.8587    3.4474   -6.4219 C   0  0  0  0  0  0  0  0  0  0  0  0
    2.3938    3.9987   -4.9267 S   0  0  0  0  0  0  0  0  0  0  0  0
    4.0360    3.7934   -5.2328 C   0  0  0  0  0  0  0  0  0  0  0  0
    5.1370    4.2070   -4.3027 C   0  0  0  0  0  0  0  0  0  0  0  0
    5.6133    5.6193   -4.6248 C   0  0  0  0  0  0  0  0  0  0  0  0
    4.1901    3.2993   -6.5281 C   0  0  0  0  0  0  0  0  0  0  0  0
    5.7519    2.9809   -7.2669 Cl  0  0  0  0  0  0  0  0  0  0  0  0
    2.9677    3.0961   -7.1910 C   0  0  0  0  0  0  0  0  0  0  0  0
    2.8575    2.5198   -8.8472 Cl  0  0  0  0  0  0  0  0  0  0  0  0
   -0.4174    4.4506   -6.8139 C   0  0  0  0  0  0  0  0  0  0  0  0
   -1.7752    4.3581   -7.1346 C   0  0  0  0  0  0  0  0  0  0  0  0
   -2.3236    3.1414   -7.5891 C   0  0  0  0  0  0  0  0  0  0  0  0
   -3.7419    3.0385   -7.9925 C   0  0  0  0  0  0  0  0  0  0  0  0
   -4.8759    1.9868   -7.3248 S   0  0  0  0  0  0  0  0  0  0  0  0
   -6.1635    2.4684   -8.2945 C   0  0  0  0  0  0  0  0  0  0  0  0
   -7.5181    1.8248   -8.2942 C   0  0  0  0  0  0  0  0  0  0  0  0
   -7.5707    0.6836   -9.3027 C   0  0  0  0  0  0  0  0  0  0  0  0
   -5.7181    3.4554   -9.1709 C   0  0  0  0  0  0  0  0  0  0  0  0
   -4.3628    3.7812   -8.9966 C   0  0  0  0  0  0  0  0  0  0  0  0
   -3.5203    4.9505  -10.0049 Cl  0  0  0  0  0  0  0  0  0  0  0  0
   -6.7374    4.1997  -10.3948 Cl  0  0  0  0  0  0  0  0  0  0  0  0
   -1.4761    2.0177   -7.5552 C   0  0  0  0  0  0  0  0  0  0  0  0
   -1.8953    0.3959   -7.7194 S   0  0  0  0  0  0  0  0  0  0  0  0
   -2.5138    5.4853   -6.7332 C   0  0  0  0  0  0  0  0  0  0  0  0
   -1.7471    6.4580   -6.0818 C   0  0  0  0  0  0  0  0  0  0  0  0
   -0.1411    5.9377   -6.0926 S   0  0  0  0  0  0  0  0  0  0  0  0
   -2.2545    7.1977   -4.9176 C   0  0  0  0  0  0  0  0  0  0  0  0
   -2.9383    6.5095   -3.9147 C   0  0  0  0  0  0  0  0  0  0  0  0
   -2.6585    6.9708   -2.6226 C   0  0  0  0  0  0  0  0  0  0  0  0
   -2.8936    6.2376   -1.4433 C   0  0  0  0  0  0  0  0  0  0  0  0
   -3.5668    4.9296   -1.4824 C   0  0  0  0  0  0  0  0  0  0  0  0
   -5.2319    4.7068   -1.5697 S   0  0  0  0  0  0  0  0  0  0  0  0
   -5.1783    3.0251   -1.6394 C   0  0  0  0  0  0  0  0  0  0  0  0
   -6.3844    2.1392   -1.6436 C   0  0  0  0  0  0  0  0  0  0  0  0
   -6.8435    1.8458   -0.2184 C   0  0  0  0  0  0  0  0  0  0  0  0
   -3.8465    2.6154   -1.5854 C   0  0  0  0  0  0  0  0  0  0  0  0
   -3.3461    0.9310   -1.5935 Cl  0  0  0  0  0  0  0  0  0  0  0  0
   -2.9406    3.6851   -1.5126 C   0  0  0  0  0  0  0  0  0  0  0  0
   -1.1926    3.4774   -1.5013 Cl  0  0  0  0  0  0  0  0  0  0  0  0
   -2.2366    6.6721   -0.2835 C   0  0  0  0  0  0  0  0  0  0  0  0
   -1.4216    7.8077   -0.2565 C   0  0  0  0  0  0  0  0  0  0  0  0
   -1.2285    8.5723   -1.4275 C   0  0  0  0  0  0  0  0  0  0  0  0
   -0.2990    9.7116   -1.4638 C   0  0  0  0  0  0  0  0  0  0  0  0
   -0.7749   11.3189   -1.5940 S   0  0  0  0  0  0  0  0  0  0  0  0
    0.7736   11.9672   -1.4848 C   0  0  0  0  0  0  0  0  0  0  0  0
    1.0737   13.4337   -1.4270 C   0  0  0  0  0  0  0  0  0  0  0  0
    1.0525   13.9308    0.0141 C   0  0  0  0  0  0  0  0  0  0  0  0
    1.6870   10.9249   -1.3281 C   0  0  0  0  0  0  0  0  0  0  0  0
    1.0866    9.6564   -1.3323 C   0  0  0  0  0  0  0  0  0  0  0  0
    1.9925    8.1548   -1.1980 Cl  0  0  0  0  0  0  0  0  0  0  0  0
    3.4129   11.1689   -1.1142 Cl  0  0  0  0  0  0  0  0  0  0  0  0
   -1.8359    8.1016   -2.6047 C   0  0  0  0  0  0  0  0  0  0  0  0
   -1.3928    8.4594   -4.1880 S   0  0  0  0  0  0  0  0  0  0  0  0
   -0.6958    7.9366    0.9407 C   0  0  0  0  0  0  0  0  0  0  0  0
   -0.8819    6.8610    1.8085 C   0  0  0  0  0  0  0  0  0  0  0  0
   -2.0061    5.8017    1.1326 S   0  0  0  0  0  0  0  0  0  0  0  0
    0.1611    6.4097    2.7309 C   0  0  0  0  0  0  0  0  0  0  0  0
    0.9126    5.2602    2.5169 C   0  0  0  0  0  0  0  0  0  0  0  0
    2.0351    5.1727    3.3498 C   0  0  0  0  0  0  0  0  0  0  0  0
    3.0402    4.1845    3.2883 C   0  0  0  0  0  0  0  0  0  0  0  0
    3.0569    3.1595    2.2255 C   0  0  0  0  0  0  0  0  0  0  0  0
    2.9576    1.4966    2.4715 S   0  0  0  0  0  0  0  0  0  0  0  0
    2.9685    1.0741    0.8398 C   0  0  0  0  0  0  0  0  0  0  0  0
    2.9157   -0.3260    0.3108 C   0  0  0  0  0  0  0  0  0  0  0  0
    4.3105   -0.8176   -0.0654 C   0  0  0  0  0  0  0  0  0  0  0  0
    3.0727    2.2363    0.0775 C   0  0  0  0  0  0  0  0  0  0  0  0
    3.1127    2.2375   -1.6804 Cl  0  0  0  0  0  0  0  0  0  0  0  0
    3.1248    3.4031    0.8521 C   0  0  0  0  0  0  0  0  0  0  0  0
    3.3153    5.0064    0.1557 Cl  0  0  0  0  0  0  0  0  0  0  0  0
    4.0745    4.2766    4.2346 C   0  0  0  0  0  0  0  0  0  0  0  0
    4.1523    5.3203    5.1660 C   0  0  0  0  0  0  0  0  0  0  0  0
    3.1800    6.3438    5.1797 C   0  0  0  0  0  0  0  0  0  0  0  0
    3.2683    7.4898    6.0995 C   0  0  0  0  0  0  0  0  0  0  0  0
    2.1532    7.8429    7.3088 S   0  0  0  0  0  0  0  0  0  0  0  0
    2.9288    9.2317    7.8629 C   0  0  0  0  0  0  0  0  0  0  0  0
    2.4021   10.1241    8.9470 C   0  0  0  0  0  0  0  0  0  0  0  0
    1.4915   11.1997    8.3656 C   0  0  0  0  0  0  0  0  0  0  0  0
    4.0580    9.4561    7.0788 C   0  0  0  0  0  0  0  0  0  0  0  0
    4.2508    8.4766    6.0925 C   0  0  0  0  0  0  0  0  0  0  0  0
    5.5589    8.5315    4.9191 Cl  0  0  0  0  0  0  0  0  0  0  0  0
    5.1210   10.8420    7.2807 Cl  0  0  0  0  0  0  0  0  0  0  0  0
    2.1253    6.2318    4.2571 C   0  0  0  0  0  0  0  0  0  0  0  0
    0.8717    7.3227    3.9594 S   0  0  0  0  0  0  0  0  0  0  0  0
    5.2722    5.2194    6.0077 C   0  0  0  0  0  0  0  0  0  0  0  0
    6.0721    4.1162    5.7259 C   0  0  0  0  0  0  0  0  0  0  0  0
    5.3998    3.2634    4.4356 S   0  0  0  0  0  0  0  0  0  0  0  0
   -1.3911  -12.5114   10.2570 H   0  0  0  0  0  0  0  0  0  0  0  0
    0.8138  -11.8215    9.0503 H   0  0  0  0  0  0  0  0  0  0  0  0
    5.3572   -9.3141    9.2166 H   0  0  0  0  0  0  0  0  0  0  0  0
    6.2873  -10.6446    8.4470 H   0  0  0  0  0  0  0  0  0  0  0  0
    5.6294   -7.9230    7.1245 H   0  0  0  0  0  0  0  0  0  0  0  0
    7.2080   -8.3772    7.8741 H   0  0  0  0  0  0  0  0  0  0  0  0
    6.6323   -9.2484    6.4059 H   0  0  0  0  0  0  0  0  0  0  0  0
   -7.1626   -7.6880    5.4847 H   0  0  0  0  0  0  0  0  0  0  0  0
   -8.1181   -9.1919    5.2619 H   0  0  0  0  0  0  0  0  0  0  0  0
   -6.4916   -7.7117    3.0894 H   0  0  0  0  0  0  0  0  0  0  0  0
   -8.2853   -7.7518    3.2486 H   0  0  0  0  0  0  0  0  0  0  0  0
   -7.3896   -9.2633    2.8352 H   0  0  0  0  0  0  0  0  0  0  0  0
   -2.4601   -9.2357    3.2669 H   0  0  0  0  0  0  0  0  0  0  0  0
    1.4507   -6.9133    2.0955 H   0  0  0  0  0  0  0  0  0  0  0  0
    5.0181   -2.4938    2.9020 H   0  0  0  0  0  0  0  0  0  0  0  0
    3.3132   -2.1130    3.3029 H   0  0  0  0  0  0  0  0  0  0  0  0
    4.8408   -4.6667    4.1362 H   0  0  0  0  0  0  0  0  0  0  0  0
    4.4269   -3.2667    5.1971 H   0  0  0  0  0  0  0  0  0  0  0  0
    3.1102   -4.3062    4.5310 H   0  0  0  0  0  0  0  0  0  0  0  0
   -3.1423  -10.9974   -5.3741 H   0  0  0  0  0  0  0  0  0  0  0  0
   -4.8302  -10.6991   -4.8384 H   0  0  0  0  0  0  0  0  0  0  0  0
   -3.1738   -9.0307   -6.8396 H   0  0  0  0  0  0  0  0  0  0  0  0
   -4.6222  -10.0511   -7.1901 H   0  0  0  0  0  0  0  0  0  0  0  0
   -4.8005   -8.5316   -6.2236 H   0  0  0  0  0  0  0  0  0  0  0  0
   -1.2817   -5.9584   -4.3891 H   0  0  0  0  0  0  0  0  0  0  0  0
    1.4549    0.7020   -6.5542 H   0  0  0  0  0  0  0  0  0  0  0  0
    5.9862    3.4973   -4.3868 H   0  0  0  0  0  0  0  0  0  0  0  0
    4.7689    4.1767   -3.2547 H   0  0  0  0  0  0  0  0  0  0  0  0
    6.4161    5.9102   -3.9142 H   0  0  0  0  0  0  0  0  0  0  0  0
    4.7770    6.3414   -4.5317 H   0  0  0  0  0  0  0  0  0  0  0  0
    6.0194    5.6640   -5.6574 H   0  0  0  0  0  0  0  0  0  0  0  0
   -8.2957    2.5773   -8.5435 H   0  0  0  0  0  0  0  0  0  0  0  0
   -7.7389    1.4282   -7.2813 H   0  0  0  0  0  0  0  0  0  0  0  0
   -6.8328   -0.1034   -9.0376 H   0  0  0  0  0  0  0  0  0  0  0  0
   -7.3486    1.0577  -10.3247 H   0  0  0  0  0  0  0  0  0  0  0  0
   -8.5867    0.2331   -9.3061 H   0  0  0  0  0  0  0  0  0  0  0  0
   -3.5965    5.5018   -6.7293 H   0  0  0  0  0  0  0  0  0  0  0  0
   -3.4326    5.5637   -4.0956 H   0  0  0  0  0  0  0  0  0  0  0  0
   -7.2098    2.6380   -2.1946 H   0  0  0  0  0  0  0  0  0  0  0  0
   -6.1580    1.1840   -2.1650 H   0  0  0  0  0  0  0  0  0  0  0  0
   -6.0320    1.3504    0.3579 H   0  0  0  0  0  0  0  0  0  0  0  0
   -7.1295    2.7901    0.2951 H   0  0  0  0  0  0  0  0  0  0  0  0
   -7.7262    1.1739   -0.2391 H   0  0  0  0  0  0  0  0  0  0  0  0
    2.0702   13.6381   -1.8777 H   0  0  0  0  0  0  0  0  0  0  0  0
    0.3134   13.9909   -2.0151 H   0  0  0  0  0  0  0  0  0  0  0  0
    1.8374   13.4156    0.6073 H   0  0  0  0  0  0  0  0  0  0  0  0
    1.2508   15.0209    0.0381 H   0  0  0  0  0  0  0  0  0  0  0  0
    0.0602   13.7389    0.4762 H   0  0  0  0  0  0  0  0  0  0  0  0
    0.0674    8.6872    1.0990 H   0  0  0  0  0  0  0  0  0  0  0  0
    0.6874    4.5481    1.7318 H   0  0  0  0  0  0  0  0  0  0  0  0
    2.2579   -0.3610   -0.5841 H   0  0  0  0  0  0  0  0  0  0  0  0
    2.4801   -0.9996    1.0797 H   0  0  0  0  0  0  0  0  0  0  0  0
    4.7864   -0.1267   -0.7924 H   0  0  0  0  0  0  0  0  0  0  0  0
    4.9494   -0.8926    0.8401 H   0  0  0  0  0  0  0  0  0  0  0  0
    4.2353   -1.8201   -0.5385 H   0  0  0  0  0  0  0  0  0  0  0  0
    1.8340    9.5175    9.6825 H   0  0  0  0  0  0  0  0  0  0  0  0
    3.2481   10.6029    9.4841 H   0  0  0  0  0  0  0  0  0  0  0  0
    1.1127   11.8495    9.1831 H   0  0  0  0  0  0  0  0  0  0  0  0
    2.0487   11.8284    7.6398 H   0  0  0  0  0  0  0  0  0  0  0  0
    0.6246   10.7306    7.8527 H   0  0  0  0  0  0  0  0  0  0  0  0
    5.5019    5.9235    6.7968 H   0  0  0  0  0  0  0  0  0  0  0  0
    6.9806    3.8526    6.2509 H   0  0  0  0  0  0  0  0  0  0  0  0
  1  2  2  0
  2  3  1  0
  3  4  2  0
  4  5  1  0
  5  6  1  0
  6  7  1  0
  7  8  1  0
  8  9  1  0
  7 10  2  0
 10 11  1  0
 10 12  1  0
 12 13  1  0
  4 14  1  0
 14 15  2  0
 15 16  1  0
 16 17  1  0
 17 18  1  0
 18 19  1  0
 19 20  1  0
 20 21  1  0
 19 22  2  0
 22 23  1  0
 23 24  1  0
 22 25  1  0
 16 26  2  0
 26 27  1  0
 15 28  1  0
 28 29  2  0
 29 30  1  0
 29 31  1  0
 31 32  2  0
 32 33  1  0
 33 34  2  0
 34 35  1  0
 35 36  1  0
 36 37  1  0
 37 38  1  0
 38 39  1  0
 37 40  2  0
 40 41  1  0
 40 42  1  0
 42 43  1  0
 34 44  1  0
 44 45  2  0
 45 46  1  0
 46 47  1  0
 47 48  1  0
 48 49  1  0
 49 50  1  0
 50 51  1  0
 49 52  2  0
 52 53  1  0
 53 54  1  0
 52 55  1  0
 46 56  2  0
 56 57  1  0
 45 58  1  0
 58 59  2  0
 59 60  1  0
 59 61  1  0
 61 62  1  0
 62 63  1  0
 63 64  2  0
 64 65  1  0
 65 66  1  0
 66 67  1  0
 67 68  2  0
 67 69  1  0
 69 70  2  0
 69 71  1  0
 63 72  1  0
 72 73  2  0
 73 74  1  0
 74 75  2  0
 75 76  1  0
 76 77  1  0
 77 78  1  0
 78 79  1  0
 79 80  1  0
 78 81  2  0
 81 82  1  0
 81 83  1  0
 83 84  1  0
 75 85  1  0
 85 86  2  0
 86 87  1  0
 87 88  1  0
 88 89  1  0
 89 90  1  0
 90 91  1  0
 91 92  1  0
 90 93  2  0
 93 94  1  0
 94 95  1  0
 93 96  1  0
 87 97  2  0
 97 98  1  0
 86 99  1  0
 99100  2  0
100101  1  0
100102  1  0
102103  2  0
103104  1  0
104105  2  0
105106  1  0
106107  1  0
107108  1  0
108109  1  0
109110  1  0
108111  2  0
111112  1  0
111113  1  0
113114  1  0
105115  1  0
115116  2  0
116117  1  0
117118  1  0
118119  1  0
119120  1  0
120121  1  0
121122  1  0
120123  2  0
123124  1  0
124125  1  0
123126  1  0
117127  2  0
127128  1  0
116129  1  0
129130  2  0
130131  1  0
130132  1  0
132133  2  0
133134  1  0
134135  2  0
135136  1  0
136137  1  0
137138  1  0
138139  1  0
139140  1  0
138141  2  0
141142  1  0
141143  1  0
143144  1  0
135145  1  0
145146  2  0
146147  1  0
147148  1  0
148149  1  0
149150  1  0
150151  1  0
151152  1  0
150153  2  0
153154  1  0
154155  1  0
153156  1  0
147157  2  0
157158  1  0
146159  1  0
159160  2  0
160161  1  0
 27  1  1  0
 57 31  1  0
 65 61  2  0
 98 72  1  0
128102  1  0
158132  1  0
 26  3  1  0
 56 33  1  0
 71 64  1  0
 97 74  1  0
127104  1  0
157134  1  0
 12  5  2  0
 30 14  1  0
 42 35  2  0
 60 44  1  0
 83 76  2  0
101 85  1  0
113106  2  0
131115  1  0
143136  2  0
161145  1  0
 23 17  2  0
 53 47  2  0
 94 88  2  0
124118  2  0
154148  2  0
  1162  1  0
  2163  1  0
  8164  1  0
  8165  1  0
  9166  1  0
  9167  1  0
  9168  1  0
 20169  1  0
 20170  1  0
 21171  1  0
 21172  1  0
 21173  1  0
 28174  1  0
 32175  1  0
 38176  1  0
 38177  1  0
 39178  1  0
 39179  1  0
 39180  1  0
 50181  1  0
 50182  1  0
 51183  1  0
 51184  1  0
 51185  1  0
 58186  1  0
 73187  1  0
 79188  1  0
 79189  1  0
 80190  1  0
 80191  1  0
 80192  1  0
 91193  1  0
 91194  1  0
 92195  1  0
 92196  1  0
 92197  1  0
 99198  1  0
103199  1  0
109200  1  0
109201  1  0
110202  1  0
110203  1  0
110204  1  0
121205  1  0
121206  1  0
122207  1  0
122208  1  0
122209  1  0
129210  1  0
133211  1  0
139212  1  0
139213  1  0
140214  1  0
140215  1  0
140216  1  0
151217  1  0
151218  1  0
152219  1  0
152220  1  0
152221  1  0
159222  1  0
160223  1  0
M  END

