
     RDKit          3D

223248  0  0  0  0  0  0  0  0999 V2000
    6.3413   -5.2824    6.9341 C   0  0  0  0  0  0  0  0  0  0  0  0
    6.5348   -5.2392    5.5544 C   0  0  0  0  0  0  0  0  0  0  0  0
    5.4565   -5.7741    4.8234 C   0  0  0  0  0  0  0  0  0  0  0  0
    5.3342   -5.8000    3.4229 C   0  0  0  0  0  0  0  0  0  0  0  0
    6.2688   -5.1231    2.5236 C   0  0  0  0  0  0  0  0  0  0  0  0
    6.9966   -5.8251    1.1718 S   0  0  0  0  0  0  0  0  0  0  0  0
    7.6078   -4.4072    0.5198 C   0  0  0  0  0  0  0  0  0  0  0  0
    8.3829   -4.3031   -0.7576 C   0  0  0  0  0  0  0  0  0  0  0  0
    7.4873   -3.8001   -1.8927 C   0  0  0  0  0  0  0  0  0  0  0  0
    7.2145   -3.3393    1.3312 C   0  0  0  0  0  0  0  0  0  0  0  0
    7.5510   -1.6521    0.9708 Cl  0  0  0  0  0  0  0  0  0  0  0  0
    6.4639   -3.7419    2.4593 C   0  0  0  0  0  0  0  0  0  0  0  0
    5.6952   -2.6162    3.5505 Cl  0  0  0  0  0  0  0  0  0  0  0  0
    4.1487   -6.3386    2.8928 C   0  0  0  0  0  0  0  0  0  0  0  0
    3.1137   -6.7835    3.6970 C   0  0  0  0  0  0  0  0  0  0  0  0
    3.2181   -6.7269    5.0968 C   0  0  0  0  0  0  0  0  0  0  0  0
    2.0376   -6.8803    5.9707 C   0  0  0  0  0  0  0  0  0  0  0  0
    1.8976   -7.9299    7.2854 S   0  0  0  0  0  0  0  0  0  0  0  0
    0.4142   -7.3521    7.8266 C   0  0  0  0  0  0  0  0  0  0  0  0
   -0.3960   -7.9108    8.9604 C   0  0  0  0  0  0  0  0  0  0  0  0
   -1.4273   -8.9304    8.4679 C   0  0  0  0  0  0  0  0  0  0  0  0
    0.0126   -6.3150    6.9886 C   0  0  0  0  0  0  0  0  0  0  0  0
    0.9091   -6.0560    5.9293 C   0  0  0  0  0  0  0  0  0  0  0  0
    0.7131   -4.7393    4.7937 Cl  0  0  0  0  0  0  0  0  0  0  0  0
   -1.4839   -5.4145    7.1809 Cl  0  0  0  0  0  0  0  0  0  0  0  0
    4.4227   -6.2361    5.6285 C   0  0  0  0  0  0  0  0  0  0  0  0
    4.8346   -5.9706    7.2383 S   0  0  0  0  0  0  0  0  0  0  0  0
    1.9700   -7.1710    2.9713 C   0  0  0  0  0  0  0  0  0  0  0  0
    2.1034   -6.9714    1.5992 C   0  0  0  0  0  0  0  0  0  0  0  0
    3.6403   -6.3673    1.2828 S   0  0  0  0  0  0  0  0  0  0  0  0
    1.0248   -7.1466    0.6160 C   0  0  0  0  0  0  0  0  0  0  0  0
   -0.2050   -7.7329    0.9008 C   0  0  0  0  0  0  0  0  0  0  0  0
   -1.0814   -7.7169   -0.2022 C   0  0  0  0  0  0  0  0  0  0  0  0
   -2.2744   -8.4275   -0.2859 C   0  0  0  0  0  0  0  0  0  0  0  0
   -2.5850   -9.4737    0.6768 C   0  0  0  0  0  0  0  0  0  0  0  0
   -3.0254   -9.2188    2.2735 S   0  0  0  0  0  0  0  0  0  0  0  0
   -3.2221  -10.8368    2.6798 C   0  0  0  0  0  0  0  0  0  0  0  0
   -3.7408  -11.3255    4.0008 C   0  0  0  0  0  0  0  0  0  0  0  0
   -5.2187  -10.9911    4.1744 C   0  0  0  0  0  0  0  0  0  0  0  0
   -2.9611  -11.6102    1.5472 C   0  0  0  0  0  0  0  0  0  0  0  0
   -3.0669  -13.3670    1.5141 Cl  0  0  0  0  0  0  0  0  0  0  0  0
   -2.6014  -10.8443    0.4173 C   0  0  0  0  0  0  0  0  0  0  0  0
   -2.1556  -11.5283   -1.1410 Cl  0  0  0  0  0  0  0  0  0  0  0  0
   -3.0172   -8.3194   -1.4770 C   0  0  0  0  0  0  0  0  0  0  0  0
   -2.5640   -7.5471   -2.5414 C   0  0  0  0  0  0  0  0  0  0  0  0
   -1.2579   -7.0466   -2.5380 C   0  0  0  0  0  0  0  0  0  0  0  0
   -0.5138   -7.1064   -3.7886 C   0  0  0  0  0  0  0  0  0  0  0  0
   -0.6395   -6.0687   -5.1030 S   0  0  0  0  0  0  0  0  0  0  0  0
    0.4030   -6.9191   -6.1123 C   0  0  0  0  0  0  0  0  0  0  0  0
    0.7455   -6.5261   -7.5183 C   0  0  0  0  0  0  0  0  0  0  0  0
   -0.4706   -6.7177   -8.4253 C   0  0  0  0  0  0  0  0  0  0  0  0
    0.8661   -8.0413   -5.4236 C   0  0  0  0  0  0  0  0  0  0  0  0
    0.3776   -8.1294   -4.1100 C   0  0  0  0  0  0  0  0  0  0  0  0
    0.6868   -9.4893   -3.0330 Cl  0  0  0  0  0  0  0  0  0  0  0  0
    2.0027   -9.2060   -6.0971 Cl  0  0  0  0  0  0  0  0  0  0  0  0
   -0.5556   -7.0839   -1.3197 C   0  0  0  0  0  0  0  0  0  0  0  0
    1.0394   -6.6379   -0.9979 S   0  0  0  0  0  0  0  0  0  0  0  0
   -3.3708   -7.6448   -3.6859 C   0  0  0  0  0  0  0  0  0  0  0  0
   -4.3528   -8.6069   -3.5688 C   0  0  0  0  0  0  0  0  0  0  0  0
   -4.3208   -9.2486   -2.0052 S   0  0  0  0  0  0  0  0  0  0  0  0
   -5.1042   -9.1200   -4.7271 C   0  0  0  0  0  0  0  0  0  0  0  0
   -5.8417   -8.2998   -5.4896 C   0  0  0  0  0  0  0  0  0  0  0  0
   -6.2496   -6.9981   -4.9642 C   0  0  0  0  0  0  0  0  0  0  0  0
   -7.0332   -6.9015   -3.8230 C   0  0  0  0  0  0  0  0  0  0  0  0
   -7.1609   -5.2856   -3.4347 S   0  0  0  0  0  0  0  0  0  0  0  0
   -6.1336   -4.7019   -4.6326 C   0  0  0  0  0  0  0  0  0  0  0  0
   -5.7700   -5.7707   -5.4666 C   0  0  0  0  0  0  0  0  0  0  0  0
   -5.7469   -3.2857   -4.7849 C   0  0  0  0  0  0  0  0  0  0  0  0
   -4.5717   -2.8146   -5.3522 C   0  0  0  0  0  0  0  0  0  0  0  0
   -4.4458   -1.4044   -5.2545 C   0  0  0  0  0  0  0  0  0  0  0  0
   -3.3396   -0.6128   -5.6253 C   0  0  0  0  0  0  0  0  0  0  0  0
   -1.9916   -1.0807   -5.2589 C   0  0  0  0  0  0  0  0  0  0  0  0
   -1.2446   -0.5924   -3.8387 S   0  0  0  0  0  0  0  0  0  0  0  0
    0.1879   -1.4238   -4.0345 C   0  0  0  0  0  0  0  0  0  0  0  0
    1.3090   -1.4366   -3.0476 C   0  0  0  0  0  0  0  0  0  0  0  0
    2.4492   -0.5414   -3.5006 C   0  0  0  0  0  0  0  0  0  0  0  0
    0.1100   -2.1293   -5.2325 C   0  0  0  0  0  0  0  0  0  0  0  0
    1.3892   -3.1747   -5.8162 Cl  0  0  0  0  0  0  0  0  0  0  0  0
   -1.1320   -1.9753   -5.9078 C   0  0  0  0  0  0  0  0  0  0  0  0
   -1.5378   -2.7795   -7.4150 Cl  0  0  0  0  0  0  0  0  0  0  0  0
   -3.5116    0.7944   -5.5253 C   0  0  0  0  0  0  0  0  0  0  0  0
   -4.6229    1.3627   -4.9015 C   0  0  0  0  0  0  0  0  0  0  0  0
   -5.7263    0.5743   -4.5404 C   0  0  0  0  0  0  0  0  0  0  0  0
   -7.1120    1.0363   -4.8304 C   0  0  0  0  0  0  0  0  0  0  0  0
   -7.9719    0.4021   -6.1303 S   0  0  0  0  0  0  0  0  0  0  0  0
   -9.2643    1.4391   -6.0965 C   0  0  0  0  0  0  0  0  0  0  0  0
  -10.3480    1.4778   -7.1283 C   0  0  0  0  0  0  0  0  0  0  0  0
   -9.9006    2.3500   -8.2920 C   0  0  0  0  0  0  0  0  0  0  0  0
   -9.0527    2.3391   -5.0519 C   0  0  0  0  0  0  0  0  0  0  0  0
   -7.8464    2.1245   -4.3388 C   0  0  0  0  0  0  0  0  0  0  0  0
   -7.4266    3.0528   -2.9175 Cl  0  0  0  0  0  0  0  0  0  0  0  0
  -10.1300    3.6815   -4.7233 Cl  0  0  0  0  0  0  0  0  0  0  0  0
   -5.5366   -0.8168   -4.6188 C   0  0  0  0  0  0  0  0  0  0  0  0
   -6.5729   -2.0170   -4.0860 S   0  0  0  0  0  0  0  0  0  0  0  0
   -4.4308    2.6916   -4.4778 C   0  0  0  0  0  0  0  0  0  0  0  0
   -3.1162    3.1366   -4.7053 C   0  0  0  0  0  0  0  0  0  0  0  0
   -2.3038    1.9823   -5.5964 S   0  0  0  0  0  0  0  0  0  0  0  0
   -2.4805    4.2888   -4.0178 C   0  0  0  0  0  0  0  0  0  0  0  0
   -3.0303    4.9694   -2.9286 C   0  0  0  0  0  0  0  0  0  0  0  0
   -2.1376    5.8850   -2.3443 C   0  0  0  0  0  0  0  0  0  0  0  0
   -2.3558    6.5932   -1.1414 C   0  0  0  0  0  0  0  0  0  0  0  0
   -3.5066    6.3279   -0.2723 C   0  0  0  0  0  0  0  0  0  0  0  0
   -4.5431    7.5033    0.3380 S   0  0  0  0  0  0  0  0  0  0  0  0
   -5.4660    6.4671    1.2862 C   0  0  0  0  0  0  0  0  0  0  0  0
   -6.5841    6.8911    2.1842 C   0  0  0  0  0  0  0  0  0  0  0  0
   -6.0807    7.0856    3.6108 C   0  0  0  0  0  0  0  0  0  0  0  0
   -4.9415    5.1812    1.1706 C   0  0  0  0  0  0  0  0  0  0  0  0
   -5.5617    3.7941    2.0499 Cl  0  0  0  0  0  0  0  0  0  0  0  0
   -3.8507    5.0986    0.2798 C   0  0  0  0  0  0  0  0  0  0  0  0
   -2.9093    3.6405    0.0578 Cl  0  0  0  0  0  0  0  0  0  0  0  0
   -1.2967    7.3942   -0.6591 C   0  0  0  0  0  0  0  0  0  0  0  0
   -0.1014    7.5087   -1.3558 C   0  0  0  0  0  0  0  0  0  0  0  0
    0.1155    6.7984   -2.5310 C   0  0  0  0  0  0  0  0  0  0  0  0
    1.4535    6.7556   -3.1223 C   0  0  0  0  0  0  0  0  0  0  0  0
    2.2782    8.0842   -3.7246 S   0  0  0  0  0  0  0  0  0  0  0  0
    3.7990    7.3653   -3.8054 C   0  0  0  0  0  0  0  0  0  0  0  0
    5.0480    7.9752   -4.3649 C   0  0  0  0  0  0  0  0  0  0  0  0
    4.7559    8.8482   -5.5956 C   0  0  0  0  0  0  0  0  0  0  0  0
    3.6663    6.0369   -3.3683 C   0  0  0  0  0  0  0  0  0  0  0  0
    2.3479    5.6914   -2.9976 C   0  0  0  0  0  0  0  0  0  0  0  0
    1.8995    4.1677   -2.2430 Cl  0  0  0  0  0  0  0  0  0  0  0  0
    4.9912    4.8876   -3.2183 Cl  0  0  0  0  0  0  0  0  0  0  0  0
   -0.9291    5.9822   -3.0175 C   0  0  0  0  0  0  0  0  0  0  0  0
   -0.9080    4.8748   -4.2821 S   0  0  0  0  0  0  0  0  0  0  0  0
    0.9070    8.1673   -0.6159 C   0  0  0  0  0  0  0  0  0  0  0  0
    0.5395    8.4689    0.6847 C   0  0  0  0  0  0  0  0  0  0  0  0
   -1.0785    8.0361    0.8842 S   0  0  0  0  0  0  0  0  0  0  0  0
    1.5423    8.5568    1.7601 C   0  0  0  0  0  0  0  0  0  0  0  0
    2.6879    7.7763    1.7572 C   0  0  0  0  0  0  0  0  0  0  0  0
    3.4373    7.8541    2.9408 C   0  0  0  0  0  0  0  0  0  0  0  0
    4.5763    7.0972    3.2368 C   0  0  0  0  0  0  0  0  0  0  0  0
    4.9255    5.8806    2.4665 C   0  0  0  0  0  0  0  0  0  0  0  0
    6.4697    5.4135    1.9556 S   0  0  0  0  0  0  0  0  0  0  0  0
    6.0415    3.8709    1.4223 C   0  0  0  0  0  0  0  0  0  0  0  0
    6.9953    2.8332    0.9083 C   0  0  0  0  0  0  0  0  0  0  0  0
    6.8096    2.5905   -0.5870 C   0  0  0  0  0  0  0  0  0  0  0  0
    4.6844    3.6870    1.6557 C   0  0  0  0  0  0  0  0  0  0  0  0
    3.8314    2.1873    1.3345 Cl  0  0  0  0  0  0  0  0  0  0  0  0
    4.0596    4.8116    2.2419 C   0  0  0  0  0  0  0  0  0  0  0  0
    2.3773    4.7792    2.7597 Cl  0  0  0  0  0  0  0  0  0  0  0  0
    5.2456    7.4088    4.4458 C   0  0  0  0  0  0  0  0  0  0  0  0
    4.7334    8.3205    5.3549 C   0  0  0  0  0  0  0  0  0  0  0  0
    3.5124    8.9763    5.1149 C   0  0  0  0  0  0  0  0  0  0  0  0
    2.8096    9.7361    6.1586 C   0  0  0  0  0  0  0  0  0  0  0  0
    2.2226   11.3132    6.0167 S   0  0  0  0  0  0  0  0  0  0  0  0
    1.5655   11.4069    7.5580 C   0  0  0  0  0  0  0  0  0  0  0  0
    0.8735   12.6069    8.1369 C   0  0  0  0  0  0  0  0  0  0  0  0
   -0.6407   12.4214    8.1307 C   0  0  0  0  0  0  0  0  0  0  0  0
    1.7663   10.1936    8.2020 C   0  0  0  0  0  0  0  0  0  0  0  0
    2.4658    9.2497    7.4208 C   0  0  0  0  0  0  0  0  0  0  0  0
    2.7822    7.6130    7.9600 Cl  0  0  0  0  0  0  0  0  0  0  0  0
    1.2042    9.8520    9.8258 Cl  0  0  0  0  0  0  0  0  0  0  0  0
    2.9037    8.7467    3.8622 C   0  0  0  0  0  0  0  0  0  0  0  0
    1.4473    9.3625    3.2347 S   0  0  0  0  0  0  0  0  0  0  0  0
    5.5541    8.4804    6.5012 C   0  0  0  0  0  0  0  0  0  0  0  0
    6.6837    7.6626    6.4880 C   0  0  0  0  0  0  0  0  0  0  0  0
    6.6651    6.7515    5.0604 S   0  0  0  0  0  0  0  0  0  0  0  0
    7.0398   -4.9010    7.6708 H   0  0  0  0  0  0  0  0  0  0  0  0
    7.4194   -4.8048    5.1025 H   0  0  0  0  0  0  0  0  0  0  0  0
    9.2453   -3.6026   -0.6261 H   0  0  0  0  0  0  0  0  0  0  0  0
    8.7859   -5.3074   -1.0171 H   0  0  0  0  0  0  0  0  0  0  0  0
    8.0137   -3.9261   -2.8634 H   0  0  0  0  0  0  0  0  0  0  0  0
    7.2347   -2.7293   -1.7553 H   0  0  0  0  0  0  0  0  0  0  0  0
    6.5392   -4.3807   -1.9187 H   0  0  0  0  0  0  0  0  0  0  0  0
   -0.9226   -7.0737    9.4600 H   0  0  0  0  0  0  0  0  0  0  0  0
    0.2639   -8.3857    9.7073 H   0  0  0  0  0  0  0  0  0  0  0  0
   -2.1911   -9.0758    9.2509 H   0  0  0  0  0  0  0  0  0  0  0  0
   -0.9299   -9.8947    8.2452 H   0  0  0  0  0  0  0  0  0  0  0  0
   -1.9395   -8.5493    7.5615 H   0  0  0  0  0  0  0  0  0  0  0  0
    1.0688   -7.5027    3.4398 H   0  0  0  0  0  0  0  0  0  0  0  0
   -0.4577   -8.1672    1.8449 H   0  0  0  0  0  0  0  0  0  0  0  0
   -3.1520  -10.8259    4.8128 H   0  0  0  0  0  0  0  0  0  0  0  0
   -3.5987  -12.4243    4.0937 H   0  0  0  0  0  0  0  0  0  0  0  0
   -5.4042   -9.9099    4.0477 H   0  0  0  0  0  0  0  0  0  0  0  0
   -5.5425  -11.2934    5.1903 H   0  0  0  0  0  0  0  0  0  0  0  0
   -5.8177  -11.5562    3.4275 H   0  0  0  0  0  0  0  0  0  0  0  0
    1.5805   -7.1276   -7.9340 H   0  0  0  0  0  0  0  0  0  0  0  0
    1.0406   -5.4523   -7.5519 H   0  0  0  0  0  0  0  0  0  0  0  0
   -1.3522   -6.1733   -8.0238 H   0  0  0  0  0  0  0  0  0  0  0  0
   -0.7348   -7.7970   -8.5007 H   0  0  0  0  0  0  0  0  0  0  0  0
   -0.2557   -6.3338   -9.4395 H   0  0  0  0  0  0  0  0  0  0  0  0
   -3.1335   -7.1249   -4.6236 H   0  0  0  0  0  0  0  0  0  0  0  0
   -4.9449  -10.1477   -5.0373 H   0  0  0  0  0  0  0  0  0  0  0  0
   -6.2666   -8.6839   -6.4013 H   0  0  0  0  0  0  0  0  0  0  0  0
   -7.4945   -7.7451   -3.3088 H   0  0  0  0  0  0  0  0  0  0  0  0
   -4.8918   -5.7282   -6.0803 H   0  0  0  0  0  0  0  0  0  0  0  0
   -3.8115   -3.4438   -5.7906 H   0  0  0  0  0  0  0  0  0  0  0  0
    0.9212   -1.0468   -2.0745 H   0  0  0  0  0  0  0  0  0  0  0  0
    1.6601   -2.4834   -2.8734 H   0  0  0  0  0  0  0  0  0  0  0  0
    2.9342   -0.9694   -4.3955 H   0  0  0  0  0  0  0  0  0  0  0  0
    3.2044   -0.4609   -2.6947 H   0  0  0  0  0  0  0  0  0  0  0  0
    2.0784    0.4845   -3.7205 H   0  0  0  0  0  0  0  0  0  0  0  0
  -10.5311    0.4485   -7.5044 H   0  0  0  0  0  0  0  0  0  0  0  0
  -11.3075    1.8572   -6.6839 H   0  0  0  0  0  0  0  0  0  0  0  0
  -10.6634    2.3218   -9.0975 H   0  0  0  0  0  0  0  0  0  0  0  0
   -9.7374    3.3870   -7.9426 H   0  0  0  0  0  0  0  0  0  0  0  0
   -8.9454    1.9589   -8.7032 H   0  0  0  0  0  0  0  0  0  0  0  0
   -4.9784    3.0573   -3.6482 H   0  0  0  0  0  0  0  0  0  0  0  0
   -4.0032    4.7715   -2.5258 H   0  0  0  0  0  0  0  0  0  0  0  0
   -7.3937    6.1200    2.1760 H   0  0  0  0  0  0  0  0  0  0  0  0
   -7.0102    7.8396    1.7994 H   0  0  0  0  0  0  0  0  0  0  0  0
   -5.7502    6.1134    4.0312 H   0  0  0  0  0  0  0  0  0  0  0  0
   -6.9177    7.4780    4.2348 H   0  0  0  0  0  0  0  0  0  0  0  0
   -5.2386    7.8213    3.6416 H   0  0  0  0  0  0  0  0  0  0  0  0
    5.5364    8.5834   -3.5752 H   0  0  0  0  0  0  0  0  0  0  0  0
    5.7555    7.1692   -4.6779 H   0  0  0  0  0  0  0  0  0  0  0  0
    4.2395    9.7866   -5.2834 H   0  0  0  0  0  0  0  0  0  0  0  0
    5.7075    9.0831   -6.1095 H   0  0  0  0  0  0  0  0  0  0  0  0
    4.1047    8.2788   -6.2983 H   0  0  0  0  0  0  0  0  0  0  0  0
    1.9256    8.2449   -0.9472 H   0  0  0  0  0  0  0  0  0  0  0  0
    2.9530    7.1156    0.9451 H   0  0  0  0  0  0  0  0  0  0  0  0
    6.8634    1.8893    1.4701 H   0  0  0  0  0  0  0  0  0  0  0  0
    8.0401    3.1732    1.0817 H   0  0  0  0  0  0  0  0  0  0  0  0
    7.5973    1.8870   -0.9399 H   0  0  0  0  0  0  0  0  0  0  0  0
    5.7958    2.1570   -0.7811 H   0  0  0  0  0  0  0  0  0  0  0  0
    6.8895    3.5387   -1.1475 H   0  0  0  0  0  0  0  0  0  0  0  0
    1.2349   12.7573    9.1778 H   0  0  0  0  0  0  0  0  0  0  0  0
    1.1350   13.5103    7.5445 H   0  0  0  0  0  0  0  0  0  0  0  0
   -0.9951   12.2246    7.0916 H   0  0  0  0  0  0  0  0  0  0  0  0
   -0.9158   11.5648    8.7849 H   0  0  0  0  0  0  0  0  0  0  0  0
   -1.1282   13.3435    8.5197 H   0  0  0  0  0  0  0  0  0  0  0  0
    5.3222    9.1568    7.3108 H   0  0  0  0  0  0  0  0  0  0  0  0
    7.4161    7.6231    7.2803 H   0  0  0  0  0  0  0  0  0  0  0  0
  1  2  2  0
  2  3  1  0
  3  4  2  0
  4  5  1  0
  5  6  1  0
  6  7  1  0
  7  8  1  0
  8  9  1  0
  7 10  2  0
 10 11  1  0
 10 12  1  0
 12 13  1  0
  4 14  1  0
 14 15  2  0
 15 16  1  0
 16 17  1  0
 17 18  1  0
 18 19  1  0
 19 20  1  0
 20 21  1  0
 19 22  2  0
 22 23  1  0
 23 24  1  0
 22 25  1  0
 16 26  2  0
 26 27  1  0
 15 28  1  0
 28 29  2  0
 29 30  1  0
 29 31  1  0
 31 32  2  0
 32 33  1  0
 33 34  2  0
 34 35  1  0
 35 36  1  0
 36 37  1  0
 37 38  1  0
 38 39  1  0
 37 40  2  0
 40 41  1  0
 40 42  1  0
 42 43  1  0
 34 44  1  0
 44 45  2  0
 45 46  1  0
 46 47  1  0
 47 48  1  0
 48 49  1  0
 49 50  1  0
 50 51  1  0
 49 52  2  0
 52 53  1  0
 53 54  1  0
 52 55  1  0
 46 56  2  0
 56 57  1  0
 45 58  1  0
 58 59  2  0
 59 60  1  0
 59 61  1  0
 61 62  2  3
 62 63  1  0
 63 64  2  0
 64 65  1  0
 65 66  1  0
 66 67  2  0
 66 68  1  0
 68 69  2  0
 69 70  1  0
 70 71  2  0
 71 72  1  0
 72 73  1  0
 73 74  1  0
 74 75  1  0
 75 76  1  0
 74 77  2  0
 77 78  1  0
 77 79  1  0
 79 80  1  0
 71 81  1  0
 81 82  2  0
 82 83  1  0
 83 84  1  0
 84 85  1  0
 85 86  1  0
 86 87  1  0
 87 88  1  0
 86 89  2  0
 89 90  1  0
 90 91  1  0
 89 92  1  0
 83 93  2  0
 93 94  1  0
 82 95  1  0
 95 96  2  0
 96 97  1  0
 96 98  1  0
 98 99  2  0
 99100  1  0
100101  2  0
101102  1  0
102103  1  0
103104  1  0
104105  1  0
105106  1  0
104107  2  0
107108  1  0
107109  1  0
109110  1  0
101111  1  0
111112  2  0
112113  1  0
113114  1  0
114115  1  0
115116  1  0
116117  1  0
117118  1  0
116119  2  0
119120  1  0
120121  1  0
119122  1  0
113123  2  0
123124  1  0
112125  1  0
125126  2  0
126127  1  0
126128  1  0
128129  2  0
129130  1  0
130131  2  0
131132  1  0
132133  1  0
133134  1  0
134135  1  0
135136  1  0
134137  2  0
137138  1  0
137139  1  0
139140  1  0
131141  1  0
141142  2  0
142143  1  0
143144  1  0
144145  1  0
145146  1  0
146147  1  0
147148  1  0
146149  2  0
149150  1  0
150151  1  0
149152  1  0
143153  2  0
153154  1  0
142155  1  0
155156  2  0
156157  1  0
 27  1  1  0
 57 31  1  0
 67 63  1  0
 94 68  1  0
124 98  1  0
154128  1  0
 26  3  1  0
 56 33  1  0
 93 70  1  0
123100  1  0
153130  1  0
 12  5  2  0
 30 14  1  0
 42 35  2  0
 60 44  1  0
 79 72  2  0
 97 81  1  0
109102  2  0
127111  1  0
139132  2  0
157141  1  0
 23 17  2  0
 53 47  2  0
 90 84  2  0
120114  2  0
150144  2  0
  1158  1  0
  2159  1  0
  8160  1  0
  8161  1  0
  9162  1  0
  9163  1  0
  9164  1  0
 20165  1  0
 20166  1  0
 21167  1  0
 21168  1  0
 21169  1  0
 28170  1  0
 32171  1  0
 38172  1  0
 38173  1  0
 39174  1  0
 39175  1  0
 39176  1  0
 50177  1  0
 50178  1  0
 51179  1  0
 51180  1  0
 51181  1  0
 58182  1  0
 61183  1  0
 62184  1  0
 64185  1  0
 67186  1  0
 69187  1  0
 75188  1  0
 75189  1  0
 76190  1  0
 76191  1  0
 76192  1  0
 87193  1  0
 87194  1  0
 88195  1  0
 88196  1  0
 88197  1  0
 95198  1  0
 99199  1  0
105200  1  0
105201  1  0
106202  1  0
106203  1  0
106204  1  0
117205  1  0
117206  1  0
118207  1  0
118208  1  0
118209  1  0
125210  1  0
129211  1  0
135212  1  0
135213  1  0
136214  1  0
136215  1  0
136216  1  0
147217  1  0
147218  1  0
148219  1  0
148220  1  0
148221  1  0
155222  1  0
156223  1  0
M  END

