
     RDKit          3D

222245  0  0  0  0  0  0  0  0999 V2000
    3.9663   -4.8138    8.4147 C   0  0  0  0  0  0  0  0  0  0  0  0
    3.3252   -3.6308    8.0546 C   0  0  0  0  0  0  0  0  0  0  0  0
    2.2372   -3.8322    7.1882 C   0  0  0  0  0  0  0  0  0  0  0  0
    1.3632   -2.8389    6.6942 C   0  0  0  0  0  0  0  0  0  0  0  0
    1.5559   -1.4023    6.9952 C   0  0  0  0  0  0  0  0  0  0  0  0
    2.7402   -0.7493    6.6180 C   0  0  0  0  0  0  0  0  0  0  0  0
    2.9197    0.6083    6.9018 C   0  0  0  0  0  0  0  0  0  0  0  0
    1.9161    1.3261    7.5658 C   0  0  0  0  0  0  0  0  0  0  0  0
    2.1672    3.0640    7.9422 S   0  0  0  0  0  0  0  0  0  0  0  0
    1.5131    3.6860    6.3498 C   0  0  0  0  0  0  0  0  0  0  0  0
   -0.0108    3.7300    6.3599 C   0  0  0  0  0  0  0  0  0  0  0  0
    0.7390    0.6733    7.9577 C   0  0  0  0  0  0  0  0  0  0  0  0
   -0.2286    1.3455    8.6345 F   0  0  0  0  0  0  0  0  0  0  0  0
    0.5569   -0.6822    7.6662 C   0  0  0  0  0  0  0  0  0  0  0  0
    0.2957   -3.2783    5.8898 C   0  0  0  0  0  0  0  0  0  0  0  0
    0.1088   -4.6219    5.5449 C   0  0  0  0  0  0  0  0  0  0  0  0
    0.9713   -5.6157    6.0520 C   0  0  0  0  0  0  0  0  0  0  0  0
    0.7312   -7.0543    5.8162 C   0  0  0  0  0  0  0  0  0  0  0  0
   -0.4856   -7.6344    6.2048 C   0  0  0  0  0  0  0  0  0  0  0  0
   -0.6937   -9.0076    6.0546 C   0  0  0  0  0  0  0  0  0  0  0  0
    0.3169   -9.8171    5.5239 C   0  0  0  0  0  0  0  0  0  0  0  0
    0.0650  -11.5897    5.4039 S   0  0  0  0  0  0  0  0  0  0  0  0
    0.9606  -11.9893    6.9498 C   0  0  0  0  0  0  0  0  0  0  0  0
    0.1188  -11.6724    8.1812 C   0  0  0  0  0  0  0  0  0  0  0  0
    1.5196   -9.2381    5.0951 C   0  0  0  0  0  0  0  0  0  0  0  0
    1.7278   -7.8627    5.2447 C   0  0  0  0  0  0  0  0  0  0  0  0
    2.5004  -10.0090    4.5592 F   0  0  0  0  0  0  0  0  0  0  0  0
    2.0302   -5.1777    6.8694 C   0  0  0  0  0  0  0  0  0  0  0  0
    3.1822   -6.1060    7.6718 S   0  0  0  0  0  0  0  0  0  0  0  0
   -0.9512   -4.8228    4.6430 C   0  0  0  0  0  0  0  0  0  0  0  0
   -1.6098   -3.6417    4.3155 C   0  0  0  0  0  0  0  0  0  0  0  0
   -0.8735   -2.3498    5.1165 S   0  0  0  0  0  0  0  0  0  0  0  0
   -2.6366   -3.4914    3.2813 C   0  0  0  0  0  0  0  0  0  0  0  0
   -3.5448   -2.4399    3.2168 C   0  0  0  0  0  0  0  0  0  0  0  0
   -4.2449   -2.3942    2.0001 C   0  0  0  0  0  0  0  0  0  0  0  0
   -5.1248   -1.3722    1.6006 C   0  0  0  0  0  0  0  0  0  0  0  0
   -5.4315   -0.2245    2.4806 C   0  0  0  0  0  0  0  0  0  0  0  0
   -6.2066   -0.4006    3.6363 C   0  0  0  0  0  0  0  0  0  0  0  0
   -6.4839    0.6871    4.4697 C   0  0  0  0  0  0  0  0  0  0  0  0
   -5.9662    1.9541    4.1709 C   0  0  0  0  0  0  0  0  0  0  0  0
   -6.3511    3.3527    5.2347 S   0  0  0  0  0  0  0  0  0  0  0  0
   -5.0516    3.0009    6.4738 C   0  0  0  0  0  0  0  0  0  0  0  0
   -3.6749    3.4310    5.9801 C   0  0  0  0  0  0  0  0  0  0  0  0
   -5.1876    2.1327    3.0165 C   0  0  0  0  0  0  0  0  0  0  0  0
   -4.6967    3.3574    2.7002 F   0  0  0  0  0  0  0  0  0  0  0  0
   -4.9219    1.0473    2.1777 C   0  0  0  0  0  0  0  0  0  0  0  0
   -5.5837   -1.4093    0.2733 C   0  0  0  0  0  0  0  0  0  0  0  0
   -5.1821   -2.3946   -0.6355 C   0  0  0  0  0  0  0  0  0  0  0  0
   -4.3060   -3.4297   -0.2330 C   0  0  0  0  0  0  0  0  0  0  0  0
   -3.7395   -4.3907   -1.2071 C   0  0  0  0  0  0  0  0  0  0  0  0
   -3.9208   -5.7721   -1.0385 C   0  0  0  0  0  0  0  0  0  0  0  0
   -3.4820   -6.6664   -2.0226 C   0  0  0  0  0  0  0  0  0  0  0  0
   -2.8707   -6.1846   -3.1888 C   0  0  0  0  0  0  0  0  0  0  0  0
   -2.4639   -7.3157   -4.5252 S   0  0  0  0  0  0  0  0  0  0  0  0
   -0.7238   -7.5488   -4.0318 C   0  0  0  0  0  0  0  0  0  0  0  0
    0.1043   -7.9272   -5.2531 C   0  0  0  0  0  0  0  0  0  0  0  0
   -2.6581   -4.8087   -3.3459 C   0  0  0  0  0  0  0  0  0  0  0  0
   -3.0665   -3.9213   -2.3494 C   0  0  0  0  0  0  0  0  0  0  0  0
   -2.0936   -4.3251   -4.4799 F   0  0  0  0  0  0  0  0  0  0  0  0
   -3.8730   -3.4080    1.1080 C   0  0  0  0  0  0  0  0  0  0  0  0
   -2.6868   -4.3642    1.8363 S   0  0  0  0  0  0  0  0  0  0  0  0
   -5.6245   -2.1432   -1.9468 C   0  0  0  0  0  0  0  0  0  0  0  0
   -6.3138   -0.9378   -2.0773 C   0  0  0  0  0  0  0  0  0  0  0  0
   -6.4450   -0.2260   -0.5507 S   0  0  0  0  0  0  0  0  0  0  0  0
   -6.3732   -0.1563   -3.3232 C   0  0  0  0  0  0  0  0  0  0  0  0
   -5.3636   -0.2017   -4.2864 C   0  0  0  0  0  0  0  0  0  0  0  0
   -5.2430    0.9869   -5.0279 C   0  0  0  0  0  0  0  0  0  0  0  0
   -4.1567    1.3198   -5.8663 C   0  0  0  0  0  0  0  0  0  0  0  0
   -3.0930    0.3295   -6.1629 C   0  0  0  0  0  0  0  0  0  0  0  0
   -3.4173   -0.8680   -6.8200 C   0  0  0  0  0  0  0  0  0  0  0  0
   -2.4473   -1.8617   -7.0013 C   0  0  0  0  0  0  0  0  0  0  0  0
   -1.1488   -1.6684   -6.5130 C   0  0  0  0  0  0  0  0  0  0  0  0
    0.0658   -2.9826   -6.6704 S   0  0  0  0  0  0  0  0  0  0  0  0
    0.8150   -2.3661   -8.2219 C   0  0  0  0  0  0  0  0  0  0  0  0
    0.5406   -3.3420   -9.3563 C   0  0  0  0  0  0  0  0  0  0  0  0
   -0.8137   -0.4717   -5.8696 C   0  0  0  0  0  0  0  0  0  0  0  0
    0.4398   -0.2799   -5.3847 F   0  0  0  0  0  0  0  0  0  0  0  0
   -1.7820    0.5210   -5.6858 C   0  0  0  0  0  0  0  0  0  0  0  0
   -4.0467    2.6721   -6.2488 C   0  0  0  0  0  0  0  0  0  0  0  0
   -4.9809    3.6402   -5.8645 C   0  0  0  0  0  0  0  0  0  0  0  0
   -6.1240    3.2811   -5.1235 C   0  0  0  0  0  0  0  0  0  0  0  0
   -7.1631    4.2748   -4.7686 C   0  0  0  0  0  0  0  0  0  0  0  0
   -7.4375    4.5890   -3.4283 C   0  0  0  0  0  0  0  0  0  0  0  0
   -8.4940    5.4511   -3.1112 C   0  0  0  0  0  0  0  0  0  0  0  0
   -9.2735    6.0094   -4.1310 C   0  0  0  0  0  0  0  0  0  0  0  0
  -10.7004    7.0164   -3.7089 S   0  0  0  0  0  0  0  0  0  0  0  0
  -11.8278    5.5932   -3.4551 C   0  0  0  0  0  0  0  0  0  0  0  0
  -12.2912    4.9912   -4.7784 C   0  0  0  0  0  0  0  0  0  0  0  0
   -8.9488    5.7646   -5.4705 C   0  0  0  0  0  0  0  0  0  0  0  0
   -7.9014    4.8988   -5.7879 C   0  0  0  0  0  0  0  0  0  0  0  0
   -9.6660    6.3413   -6.4664 F   0  0  0  0  0  0  0  0  0  0  0  0
   -6.1998    1.9478   -4.6839 C   0  0  0  0  0  0  0  0  0  0  0  0
   -7.1708    1.3271   -3.4563 S   0  0  0  0  0  0  0  0  0  0  0  0
   -4.5405    4.9556   -6.0849 C   0  0  0  0  0  0  0  0  0  0  0  0
   -3.2566    5.0253   -6.6334 C   0  0  0  0  0  0  0  0  0  0  0  0
   -2.7026    3.4524   -6.8928 S   0  0  0  0  0  0  0  0  0  0  0  0
   -2.3363    6.1429   -6.3712 C   0  0  0  0  0  0  0  0  0  0  0  0
   -1.0982    6.2172   -6.9272 N   0  0  0  0  0  0  0  0  0  0  0  0
   -0.4447    7.0652   -6.1210 C   0  0  0  0  0  0  0  0  0  0  0  0
    0.8099    6.9234   -5.6827 N   0  0  0  0  0  0  0  0  0  0  0  0
    0.7185    7.2306   -4.3609 C   0  0  0  0  0  0  0  0  0  0  0  0
   -0.5485    7.5283   -3.9641 N   0  0  0  0  0  0  0  0  0  0  0  0
   -1.2428    7.4515   -5.1162 C   0  0  0  0  0  0  0  0  0  0  0  0
   -2.4519    6.8759   -5.2293 N   0  0  0  0  0  0  0  0  0  0  0  0
    1.7982    6.9470   -3.4044 C   0  0  0  0  0  0  0  0  0  0  0  0
    1.5593    6.5008   -2.1413 N   0  0  0  0  0  0  0  0  0  0  0  0
    2.7765    6.1375   -1.7196 C   0  0  0  0  0  0  0  0  0  0  0  0
    3.0944    5.0460   -1.0092 N   0  0  0  0  0  0  0  0  0  0  0  0
    4.2761    4.6611   -1.5625 C   0  0  0  0  0  0  0  0  0  0  0  0
    4.6510    5.4213   -2.6303 N   0  0  0  0  0  0  0  0  0  0  0  0
    3.6814    6.3490   -2.6722 C   0  0  0  0  0  0  0  0  0  0  0  0
    3.1007    6.8221   -3.7892 N   0  0  0  0  0  0  0  0  0  0  0  0
    4.9798    3.4249   -1.2007 C   0  0  0  0  0  0  0  0  0  0  0  0
    6.3006    3.1342   -1.5304 C   0  0  0  0  0  0  0  0  0  0  0  0
    6.6893    1.8411   -1.1465 C   0  0  0  0  0  0  0  0  0  0  0  0
    7.9669    1.2675   -1.3157 C   0  0  0  0  0  0  0  0  0  0  0  0
    9.0846    2.0046   -1.9502 C   0  0  0  0  0  0  0  0  0  0  0  0
   10.2650    2.2494   -1.2325 C   0  0  0  0  0  0  0  0  0  0  0  0
   11.3200    2.9424   -1.8300 C   0  0  0  0  0  0  0  0  0  0  0  0
   11.2054    3.4052   -3.1468 C   0  0  0  0  0  0  0  0  0  0  0  0
   12.5866    4.2707   -3.9070 S   0  0  0  0  0  0  0  0  0  0  0  0
   12.1734    5.9074   -3.2001 C   0  0  0  0  0  0  0  0  0  0  0  0
   11.1618    6.6385   -4.0741 C   0  0  0  0  0  0  0  0  0  0  0  0
   10.0352    3.1468   -3.8748 C   0  0  0  0  0  0  0  0  0  0  0  0
    9.9305    3.5321   -5.1727 F   0  0  0  0  0  0  0  0  0  0  0  0
    8.9777    2.4505   -3.2792 C   0  0  0  0  0  0  0  0  0  0  0  0
    8.1400   -0.0457   -0.8394 C   0  0  0  0  0  0  0  0  0  0  0  0
    7.1056   -0.7750   -0.2427 C   0  0  0  0  0  0  0  0  0  0  0  0
    5.8272   -0.2021   -0.0705 C   0  0  0  0  0  0  0  0  0  0  0  0
    4.7006   -0.9631    0.5112 C   0  0  0  0  0  0  0  0  0  0  0  0
    3.5732   -1.2580   -0.2748 C   0  0  0  0  0  0  0  0  0  0  0  0
    2.5195   -2.0071    0.2557 C   0  0  0  0  0  0  0  0  0  0  0  0
    2.5764   -2.4642    1.5765 C   0  0  0  0  0  0  0  0  0  0  0  0
    1.1916   -3.3861    2.2547 S   0  0  0  0  0  0  0  0  0  0  0  0
    1.9357   -5.0389    2.0153 C   0  0  0  0  0  0  0  0  0  0  0  0
    1.7560   -5.5188    0.5808 C   0  0  0  0  0  0  0  0  0  0  0  0
    3.6897   -2.1609    2.3706 C   0  0  0  0  0  0  0  0  0  0  0  0
    4.7530   -1.4202    1.8376 C   0  0  0  0  0  0  0  0  0  0  0  0
    3.7481   -2.5901    3.6582 F   0  0  0  0  0  0  0  0  0  0  0  0
    5.6608    1.1182   -0.5287 C   0  0  0  0  0  0  0  0  0  0  0  0
    4.2857    2.0910   -0.4344 S   0  0  0  0  0  0  0  0  0  0  0  0
    7.4887   -2.0795    0.1127 C   0  0  0  0  0  0  0  0  0  0  0  0
    8.8151   -2.3660   -0.1936 C   0  0  0  0  0  0  0  0  0  0  0  0
    9.5114   -1.0161   -0.9232 S   0  0  0  0  0  0  0  0  0  0  0  0
    4.8176   -4.8885    9.0752 H   0  0  0  0  0  0  0  0  0  0  0  0
    3.6383   -2.6659    8.4307 H   0  0  0  0  0  0  0  0  0  0  0  0
    3.5262   -1.2899    6.1030 H   0  0  0  0  0  0  0  0  0  0  0  0
    3.8384    1.0992    6.6111 H   0  0  0  0  0  0  0  0  0  0  0  0
    1.8731    3.0627    5.5025 H   0  0  0  0  0  0  0  0  0  0  0  0
    1.8939    4.7165    6.2017 H   0  0  0  0  0  0  0  0  0  0  0  0
   -0.4266    2.7029    6.3530 H   0  0  0  0  0  0  0  0  0  0  0  0
   -0.3755    4.2688    7.2641 H   0  0  0  0  0  0  0  0  0  0  0  0
   -0.3734    4.2609    5.4557 H   0  0  0  0  0  0  0  0  0  0  0  0
   -0.3576   -1.1732    7.9702 H   0  0  0  0  0  0  0  0  0  0  0  0
   -1.2652   -7.0267    6.6453 H   0  0  0  0  0  0  0  0  0  0  0  0
   -1.6314   -9.4434    6.3732 H   0  0  0  0  0  0  0  0  0  0  0  0
    1.9228  -11.4376    6.9948 H   0  0  0  0  0  0  0  0  0  0  0  0
    1.1913  -13.0759    6.9427 H   0  0  0  0  0  0  0  0  0  0  0  0
   -0.0648  -10.5828    8.2642 H   0  0  0  0  0  0  0  0  0  0  0  0
    0.6642  -12.0063    9.0912 H   0  0  0  0  0  0  0  0  0  0  0  0
   -0.8527  -12.2086    8.1294 H   0  0  0  0  0  0  0  0  0  0  0  0
    2.6686   -7.4306    4.9281 H   0  0  0  0  0  0  0  0  0  0  0  0
   -1.2119   -5.7812    4.2125 H   0  0  0  0  0  0  0  0  0  0  0  0
   -3.6451   -1.7000    3.9983 H   0  0  0  0  0  0  0  0  0  0  0  0
   -6.5966   -1.3784    3.8857 H   0  0  0  0  0  0  0  0  0  0  0  0
   -7.0985    0.5450    5.3477 H   0  0  0  0  0  0  0  0  0  0  0  0
   -5.2929    3.5755    7.3945 H   0  0  0  0  0  0  0  0  0  0  0  0
   -5.0471    1.9213    6.7381 H   0  0  0  0  0  0  0  0  0  0  0  0
   -3.6865    4.5079    5.6998 H   0  0  0  0  0  0  0  0  0  0  0  0
   -2.9356    3.2792    6.7907 H   0  0  0  0  0  0  0  0  0  0  0  0
   -3.3662    2.8234    5.1059 H   0  0  0  0  0  0  0  0  0  0  0  0
   -4.3120    1.1945    1.2958 H   0  0  0  0  0  0  0  0  0  0  0  0
   -4.4370   -6.1534   -0.1624 H   0  0  0  0  0  0  0  0  0  0  0  0
   -3.6593   -7.7272   -1.8961 H   0  0  0  0  0  0  0  0  0  0  0  0
   -0.3034   -6.6192   -3.5916 H   0  0  0  0  0  0  0  0  0  0  0  0
   -0.6686   -8.3610   -3.2758 H   0  0  0  0  0  0  0  0  0  0  0  0
   -0.3279   -8.8208   -5.7572 H   0  0  0  0  0  0  0  0  0  0  0  0
    1.1443   -8.1592   -4.9428 H   0  0  0  0  0  0  0  0  0  0  0  0
    0.1191   -7.0771   -5.9719 H   0  0  0  0  0  0  0  0  0  0  0  0
   -2.9021   -2.8600   -2.4861 H   0  0  0  0  0  0  0  0  0  0  0  0
   -5.3663   -2.7506   -2.8019 H   0  0  0  0  0  0  0  0  0  0  0  0
   -4.6277   -0.9925   -4.3190 H   0  0  0  0  0  0  0  0  0  0  0  0
   -4.4266   -1.0367   -7.1739 H   0  0  0  0  0  0  0  0  0  0  0  0
   -2.7134   -2.7899   -7.4885 H   0  0  0  0  0  0  0  0  0  0  0  0
    1.9122   -2.2853   -8.0692 H   0  0  0  0  0  0  0  0  0  0  0  0
    0.4274   -1.3610   -8.5066 H   0  0  0  0  0  0  0  0  0  0  0  0
    0.9192   -4.3537   -9.0980 H   0  0  0  0  0  0  0  0  0  0  0  0
    1.0631   -2.9935  -10.2698 H   0  0  0  0  0  0  0  0  0  0  0  0
   -0.5464   -3.3928   -9.5658 H   0  0  0  0  0  0  0  0  0  0  0  0
   -1.5115    1.4243   -5.1553 H   0  0  0  0  0  0  0  0  0  0  0  0
   -6.8499    4.1521   -2.6280 H   0  0  0  0  0  0  0  0  0  0  0  0
   -8.7171    5.6605   -2.0704 H   0  0  0  0  0  0  0  0  0  0  0  0
  -12.7240    5.9525   -2.9003 H   0  0  0  0  0  0  0  0  0  0  0  0
  -11.3349    4.8129   -2.8366 H   0  0  0  0  0  0  0  0  0  0  0  0
  -13.0220    4.1809   -4.5833 H   0  0  0  0  0  0  0  0  0  0  0  0
  -11.4348    4.5496   -5.3291 H   0  0  0  0  0  0  0  0  0  0  0  0
  -12.7768    5.7680   -5.4067 H   0  0  0  0  0  0  0  0  0  0  0  0
   -7.6840    4.6855   -6.8243 H   0  0  0  0  0  0  0  0  0  0  0  0
   -5.0589    5.8290   -5.7050 H   0  0  0  0  0  0  0  0  0  0  0  0
   -0.6720    5.5565   -7.6128 H   0  0  0  0  0  0  0  0  0  0  0  0
    1.5910    6.4210   -6.1601 H   0  0  0  0  0  0  0  0  0  0  0  0
    0.6384    6.2717   -1.7025 H   0  0  0  0  0  0  0  0  0  0  0  0
    2.4950    4.5219   -0.3334 H   0  0  0  0  0  0  0  0  0  0  0  0
    6.9529    3.8469   -2.0192 H   0  0  0  0  0  0  0  0  0  0  0  0
   10.3590    1.9100   -0.2088 H   0  0  0  0  0  0  0  0  0  0  0  0
   12.2256    3.1271   -1.2646 H   0  0  0  0  0  0  0  0  0  0  0  0
   13.1057    6.5091   -3.1495 H   0  0  0  0  0  0  0  0  0  0  0  0
   11.7777    5.8025   -2.1671 H   0  0  0  0  0  0  0  0  0  0  0  0
   10.9793    7.6562   -3.6632 H   0  0  0  0  0  0  0  0  0  0  0  0
   10.2026    6.0838   -4.0979 H   0  0  0  0  0  0  0  0  0  0  0  0
   11.5616    6.7371   -5.1054 H   0  0  0  0  0  0  0  0  0  0  0  0
    8.0792    2.2554   -3.8533 H   0  0  0  0  0  0  0  0  0  0  0  0
    3.5192   -0.9174   -1.2994 H   0  0  0  0  0  0  0  0  0  0  0  0
    1.6583   -2.2245   -0.3583 H   0  0  0  0  0  0  0  0  0  0  0  0
    3.0129   -5.0268    2.2873 H   0  0  0  0  0  0  0  0  0  0  0  0
    1.4181   -5.7512    2.6979 H   0  0  0  0  0  0  0  0  0  0  0  0
    2.2597   -4.8280   -0.1279 H   0  0  0  0  0  0  0  0  0  0  0  0
    2.2091   -6.5251    0.4701 H   0  0  0  0  0  0  0  0  0  0  0  0
    0.6771   -5.5823    0.3295 H   0  0  0  0  0  0  0  0  0  0  0  0
    5.6131   -1.2033    2.4565 H   0  0  0  0  0  0  0  0  0  0  0  0
    6.8284   -2.8022    0.5689 H   0  0  0  0  0  0  0  0  0  0  0  0
    9.3159   -3.3050   -0.0007 H   0  0  0  0  0  0  0  0  0  0  0  0
  1  2  2  0
  2  3  1  0
  3  4  2  0
  4  5  1  0
  5  6  2  0
  6  7  1  0
  7  8  2  0
  8  9  1  0
  9 10  1  0
 10 11  1  0
  8 12  1  0
 12 13  1  0
 12 14  2  0
  4 15  1  0
 15 16  2  0
 16 17  1  0
 17 18  1  0
 18 19  2  0
 19 20  1  0
 20 21  2  0
 21 22  1  0
 22 23  1  0
 23 24  1  0
 21 25  1  0
 25 26  2  0
 25 27  1  0
 17 28  2  0
 28 29  1  0
 16 30  1  0
 30 31  2  0
 31 32  1  0
 31 33  1  0
 33 34  2  0
 34 35  1  0
 35 36  2  0
 36 37  1  0
 37 38  2  0
 38 39  1  0
 39 40  2  0
 40 41  1  0
 41 42  1  0
 42 43  1  0
 40 44  1  0
 44 45  1  0
 44 46  2  0
 36 47  1  0
 47 48  2  0
 48 49  1  0
 49 50  1  0
 50 51  2  0
 51 52  1  0
 52 53  2  0
 53 54  1  0
 54 55  1  0
 55 56  1  0
 53 57  1  0
 57 58  2  0
 57 59  1  0
 49 60  2  0
 60 61  1  0
 48 62  1  0
 62 63  2  0
 63 64  1  0
 63 65  1  0
 65 66  2  0
 66 67  1  0
 67 68  2  0
 68 69  1  0
 69 70  2  0
 70 71  1  0
 71 72  2  0
 72 73  1  0
 73 74  1  0
 74 75  1  0
 72 76  1  0
 76 77  1  0
 76 78  2  0
 68 79  1  0
 79 80  2  0
 80 81  1  0
 81 82  1  0
 82 83  2  0
 83 84  1  0
 84 85  2  0
 85 86  1  0
 86 87  1  0
 87 88  1  0
 85 89  1  0
 89 90  2  0
 89 91  1  0
 81 92  2  0
 92 93  1  0
 80 94  1  0
 94 95  2  0
 95 96  1  0
 95 97  1  0
 97 98  1  0
 98 99  1  0
 99100  1  0
100101  1  0
101102  2  0
102103  1  0
103104  1  0
101105  1  0
105106  1  0
106107  1  0
107108  1  0
108109  1  0
109110  2  0
110111  1  0
111112  1  0
109113  1  0
113114  2  0
114115  1  0
115116  2  0
116117  1  0
117118  2  0
118119  1  0
119120  2  0
120121  1  0
121122  1  0
122123  1  0
120124  1  0
124125  1  0
124126  2  0
116127  1  0
127128  2  0
128129  1  0
129130  1  0
130131  2  0
131132  1  0
132133  2  0
133134  1  0
134135  1  0
135136  1  0
133137  1  0
137138  2  0
137139  1  0
129140  2  0
140141  1  0
128142  1  0
142143  2  0
143144  1  0
 29  1  1  0
 61 33  1  0
 93 65  1  0
104 97  2  0
112105  2  0
141113  1  0
 28  3  1  0
 60 35  1  0
 92 67  1  0
103 99  2  0
111107  2  0
140115  1  0
 14  5  1  0
 32 15  1  0
 46 37  1  0
 64 47  1  0
 78 69  1  0
 96 79  1  0
126117  1  0
144127  1  0
 26 18  1  0
 58 50  1  0
 90 82  1  0
138130  1  0
  1145  1  0
  2146  1  0
  6147  1  0
  7148  1  0
 10149  1  0
 10150  1  0
 11151  1  0
 11152  1  0
 11153  1  0
 14154  1  0
 19155  1  0
 20156  1  0
 23157  1  0
 23158  1  0
 24159  1  0
 24160  1  0
 24161  1  0
 26162  1  0
 30163  1  0
 34164  1  0
 38165  1  0
 39166  1  0
 42167  1  0
 42168  1  0
 43169  1  0
 43170  1  0
 43171  1  0
 46172  1  0
 51173  1  0
 52174  1  0
 55175  1  0
 55176  1  0
 56177  1  0
 56178  1  0
 56179  1  0
 58180  1  0
 62181  1  0
 66182  1  0
 70183  1  0
 71184  1  0
 74185  1  0
 74186  1  0
 75187  1  0
 75188  1  0
 75189  1  0
 78190  1  0
 83191  1  0
 84192  1  0
 87193  1  0
 87194  1  0
 88195  1  0
 88196  1  0
 88197  1  0
 90198  1  0
 94199  1  0
 98200  1  0
100201  1  0
106202  1  0
108203  1  0
114204  1  0
118205  1  0
119206  1  0
122207  1  0
122208  1  0
123209  1  0
123210  1  0
123211  1  0
126212  1  0
131213  1  0
132214  1  0
135215  1  0
135216  1  0
136217  1  0
136218  1  0
136219  1  0
138220  1  0
142221  1  0
143222  1  0
M  END

