
     RDKit          3D

 89103  0  0  0  0  0  0  0  0999 V2000
   10.2064    6.2152   -9.9397 C   0  0  0  0  0  0  0  0  0  0  0  0
   10.8806    5.1658   -9.4733 C   0  0  0  0  0  0  0  0  0  0  0  0
   10.0197    4.5301   -8.4909 C   0  0  0  0  0  0  0  0  0  0  0  0
   10.2330    3.3872   -7.7092 C   0  0  0  0  0  0  0  0  0  0  0  0
    9.1855    3.0201   -6.8510 C   0  0  0  0  0  0  0  0  0  0  0  0
    9.1220    1.9856   -6.0262 C   0  0  0  0  0  0  0  0  0  0  0  0
    7.8033    2.0400   -5.3659 C   0  0  0  0  0  0  0  0  0  0  0  0
    7.1364    3.1007   -5.8266 C   0  0  0  0  0  0  0  0  0  0  0  0
    8.0099    3.7512   -6.7844 C   0  0  0  0  0  0  0  0  0  0  0  0
    7.7951    4.8945   -7.5663 C   0  0  0  0  0  0  0  0  0  0  0  0
    8.8427    5.2598   -8.4252 C   0  0  0  0  0  0  0  0  0  0  0  0
    8.8986    6.2784   -9.2698 C   0  0  0  0  0  0  0  0  0  0  0  0
    7.2587    1.0715   -4.3912 C   0  0  0  0  0  0  0  0  0  0  0  0
    5.7083    1.1458   -3.7459 S   0  0  0  0  0  0  0  0  0  0  0  0
    5.8206   -0.2090   -2.7559 C   0  0  0  0  0  0  0  0  0  0  0  0
    7.0887   -0.7648   -2.9367 C   0  0  0  0  0  0  0  0  0  0  0  0
    7.9008   -0.0323   -3.8287 C   0  0  0  0  0  0  0  0  0  0  0  0
    9.2509   -0.3249   -4.0694 O   0  0  0  0  0  0  0  0  0  0  0  0
    9.9741   -1.3846   -3.4372 C   0  0  0  0  0  0  0  0  0  0  0  0
    9.5075   -1.5319   -1.6798 S   0  0  0  0  0  0  0  0  0  0  0  0
    7.6173   -2.3288   -2.2396 S   0  0  0  0  0  0  0  0  0  0  0  0
    4.7161   -0.6994   -1.9100 C   0  0  0  0  0  0  0  0  0  0  0  0
    3.4339   -0.3956   -2.1153 C   0  0  0  0  0  0  0  0  0  0  0  0
    2.6947   -0.9877   -1.0192 C   0  0  0  0  0  0  0  0  0  0  0  0
    1.3245   -0.9410   -0.7404 C   0  0  0  0  0  0  0  0  0  0  0  0
    0.9122   -1.5853    0.4324 C   0  0  0  0  0  0  0  0  0  0  0  0
   -0.3105   -1.6821    0.9212 C   0  0  0  0  0  0  0  0  0  0  0  0
   -0.2188   -2.4462    2.1766 C   0  0  0  0  0  0  0  0  0  0  0  0
    1.0581   -2.7779    2.3859 C   0  0  0  0  0  0  0  0  0  0  0  0
    1.8103   -2.2283    1.2689 C   0  0  0  0  0  0  0  0  0  0  0  0
    3.1866   -2.2687    0.9934 C   0  0  0  0  0  0  0  0  0  0  0  0
    3.5997   -1.6264   -0.1858 C   0  0  0  0  0  0  0  0  0  0  0  0
    4.8279   -1.4910   -0.6677 C   0  0  0  0  0  0  0  0  0  0  0  0
   -1.3809   -2.7792    3.0252 C   0  0  0  0  0  0  0  0  0  0  0  0
   -2.9535   -2.3258    2.6446 S   0  0  0  0  0  0  0  0  0  0  0  0
   -3.6965   -2.9719    4.0034 C   0  0  0  0  0  0  0  0  0  0  0  0
   -2.7128   -3.5663    4.7961 C   0  0  0  0  0  0  0  0  0  0  0  0
   -1.4094   -3.4287    4.2651 C   0  0  0  0  0  0  0  0  0  0  0  0
   -0.2446   -3.8041    4.9504 O   0  0  0  0  0  0  0  0  0  0  0  0
   -0.2289   -4.3057    6.2880 C   0  0  0  0  0  0  0  0  0  0  0  0
   -1.4232   -3.3993    7.3298 S   0  0  0  0  0  0  0  0  0  0  0  0
   -3.0459   -4.3768    6.3632 S   0  0  0  0  0  0  0  0  0  0  0  0
   -5.1452   -2.9004    4.2503 C   0  0  0  0  0  0  0  0  0  0  0  0
   -6.0991   -1.5767    3.8572 S   0  0  0  0  0  0  0  0  0  0  0  0
   -7.5896   -2.2778    4.1998 C   0  0  0  0  0  0  0  0  0  0  0  0
   -7.3556   -3.5951    4.6158 C   0  0  0  0  0  0  0  0  0  0  0  0
   -5.9882   -3.9516    4.5950 C   0  0  0  0  0  0  0  0  0  0  0  0
   -5.5146   -5.2634    4.7497 O   0  0  0  0  0  0  0  0  0  0  0  0
   -6.3561   -6.4064    4.8860 C   0  0  0  0  0  0  0  0  0  0  0  0
   -7.8125   -6.2700    3.7955 S   0  0  0  0  0  0  0  0  0  0  0  0
   -8.6359   -4.7694    5.0554 S   0  0  0  0  0  0  0  0  0  0  0  0
   -8.8830   -1.5841    4.0171 C   0  0  0  0  0  0  0  0  0  0  0  0
   -9.0625   -0.5391    3.2057 C   0  0  0  0  0  0  0  0  0  0  0  0
  -10.4564   -0.1565    3.3251 C   0  0  0  0  0  0  0  0  0  0  0  0
  -11.1658    0.8718    2.6895 C   0  0  0  0  0  0  0  0  0  0  0  0
  -12.5221    0.9842    3.0248 C   0  0  0  0  0  0  0  0  0  0  0  0
  -13.4133    1.8546    2.5753 C   0  0  0  0  0  0  0  0  0  0  0  0
  -14.6875    1.5583    3.2464 C   0  0  0  0  0  0  0  0  0  0  0  0
  -14.5133    0.5223    4.0639 C   0  0  0  0  0  0  0  0  0  0  0  0
  -13.1186    0.1326    3.9412 C   0  0  0  0  0  0  0  0  0  0  0  0
  -12.4058   -0.8881    4.5858 C   0  0  0  0  0  0  0  0  0  0  0  0
  -11.0514   -1.0088    4.2406 C   0  0  0  0  0  0  0  0  0  0  0  0
  -10.1604   -1.8782    4.6943 C   0  0  0  0  0  0  0  0  0  0  0  0
   10.5669    6.8991  -10.6957 H   0  0  0  0  0  0  0  0  0  0  0  0
   11.8721    4.8596   -9.7757 H   0  0  0  0  0  0  0  0  0  0  0  0
   11.1510    2.8163   -7.7729 H   0  0  0  0  0  0  0  0  0  0  0  0
    9.8962    1.2427   -5.8958 H   0  0  0  0  0  0  0  0  0  0  0  0
    6.1365    3.4081   -5.5482 H   0  0  0  0  0  0  0  0  0  0  0  0
    6.8704    5.4562   -7.5127 H   0  0  0  0  0  0  0  0  0  0  0  0
    8.1205    7.0115   -9.4364 H   0  0  0  0  0  0  0  0  0  0  0  0
   11.0584   -1.1617   -3.4997 H   0  0  0  0  0  0  0  0  0  0  0  0
    9.7863   -2.3405   -3.9704 H   0  0  0  0  0  0  0  0  0  0  0  0
    3.0283    0.1940   -2.9300 H   0  0  0  0  0  0  0  0  0  0  0  0
    0.6288   -0.4284   -1.3946 H   0  0  0  0  0  0  0  0  0  0  0  0
   -1.2036   -1.2696    0.4671 H   0  0  0  0  0  0  0  0  0  0  0  0
    1.4620   -3.3431    3.2131 H   0  0  0  0  0  0  0  0  0  0  0  0
    3.8879   -2.7620    1.6540 H   0  0  0  0  0  0  0  0  0  0  0  0
    5.7299   -1.8564   -0.1947 H   0  0  0  0  0  0  0  0  0  0  0  0
   -0.4544   -5.3938    6.2893 H   0  0  0  0  0  0  0  0  0  0  0  0
    0.7886   -4.1707    6.7083 H   0  0  0  0  0  0  0  0  0  0  0  0
   -5.7807   -7.3110    4.6062 H   0  0  0  0  0  0  0  0  0  0  0  0
   -6.6734   -6.5149    5.9429 H   0  0  0  0  0  0  0  0  0  0  0  0
   -8.3143   -0.0774    2.5775 H   0  0  0  0  0  0  0  0  0  0  0  0
  -10.6908    1.5413    1.9838 H   0  0  0  0  0  0  0  0  0  0  0  0
  -13.2318    2.6381    1.8525 H   0  0  0  0  0  0  0  0  0  0  0  0
  -15.6192    2.0899    3.1024 H   0  0  0  0  0  0  0  0  0  0  0  0
  -15.2689    0.0756    4.6978 H   0  0  0  0  0  0  0  0  0  0  0  0
  -12.8762   -1.5457    5.3062 H   0  0  0  0  0  0  0  0  0  0  0  0
  -10.3523   -2.6271    5.4493 H   0  0  0  0  0  0  0  0  0  0  0  0
  1  2  2  0
  2  3  1  0
  3  4  2  0
  4  5  1  0
  5  6  2  0
  6  7  1  0
  7  8  2  0
  8  9  1  0
  9 10  2  0
 10 11  1  0
 11 12  2  0
  7 13  1  0
 13 14  1  0
 14 15  1  0
 15 16  2  0
 16 17  1  0
 17 18  1  0
 18 19  1  0
 19 20  1  0
 20 21  1  0
 15 22  1  0
 22 23  2  0
 23 24  1  0
 24 25  2  0
 25 26  1  0
 26 27  2  0
 27 28  1  0
 28 29  2  0
 29 30  1  0
 30 31  2  0
 31 32  1  0
 32 33  2  0
 28 34  1  0
 34 35  1  0
 35 36  1  0
 36 37  2  0
 37 38  1  0
 38 39  1  0
 39 40  1  0
 40 41  1  0
 41 42  1  0
 36 43  1  0
 43 44  1  0
 44 45  1  0
 45 46  2  0
 46 47  1  0
 47 48  1  0
 48 49  1  0
 49 50  1  0
 50 51  1  0
 45 52  1  0
 52 53  2  0
 53 54  1  0
 54 55  2  0
 55 56  1  0
 56 57  2  0
 57 58  1  0
 58 59  2  0
 59 60  1  0
 60 61  2  0
 61 62  1  0
 62 63  2  0
 12  1  1  0
 17 13  2  0
 33 22  1  0
 38 34  2  0
 47 43  2  0
 63 52  1  0
 11  3  1  0
 21 16  1  0
 32 24  1  0
 42 37  1  0
 51 46  1  0
 62 54  1  0
  9  5  1  0
 30 26  1  0
 60 56  1  0
  1 64  1  0
  2 65  1  0
  4 66  1  0
  6 67  1  0
  8 68  1  0
 10 69  1  0
 12 70  1  0
 19 71  1  0
 19 72  1  0
 23 73  1  0
 25 74  1  0
 27 75  1  0
 29 76  1  0
 31 77  1  0
 33 78  1  0
 40 79  1  0
 40 80  1  0
 49 81  1  0
 49 82  1  0
 53 83  1  0
 55 84  1  0
 57 85  1  0
 58 86  1  0
 59 87  1  0
 61 88  1  0
 63 89  1  0
M  END

