
     RDKit          3D

236263  0  0  0  0  0  0  0  0999 V2000
    4.2474   -5.9393    9.4157 C   0  0  0  0  0  0  0  0  0  0  0  0
    3.8292   -4.6207    9.5743 C   0  0  0  0  0  0  0  0  0  0  0  0
    2.5452   -4.3829    9.0571 C   0  0  0  0  0  0  0  0  0  0  0  0
    1.8574   -3.1533    9.0673 C   0  0  0  0  0  0  0  0  0  0  0  0
    2.4870   -1.9090    9.5469 C   0  0  0  0  0  0  0  0  0  0  0  0
    3.7779   -1.1490    8.7840 S   0  0  0  0  0  0  0  0  0  0  0  0
    3.7928    0.2133    9.7717 C   0  0  0  0  0  0  0  0  0  0  0  0
    4.6782    1.4049    9.5601 C   0  0  0  0  0  0  0  0  0  0  0  0
    3.9893    2.4387    8.6754 C   0  0  0  0  0  0  0  0  0  0  0  0
    2.7648    0.0976   10.7065 C   0  0  0  0  0  0  0  0  0  0  0  0
    2.3898    1.3359   11.8954 Cl  0  0  0  0  0  0  0  0  0  0  0  0
    2.0341   -1.0947   10.5814 C   0  0  0  0  0  0  0  0  0  0  0  0
    0.6864   -1.5162   11.6296 Cl  0  0  0  0  0  0  0  0  0  0  0  0
    0.5763   -3.1395    8.4912 C   0  0  0  0  0  0  0  0  0  0  0  0
   -0.0099   -4.2736    7.9215 C   0  0  0  0  0  0  0  0  0  0  0  0
    0.6764   -5.5074    7.9227 C   0  0  0  0  0  0  0  0  0  0  0  0
    0.1073   -6.7142    7.2945 C   0  0  0  0  0  0  0  0  0  0  0  0
    0.7404   -7.4716    5.9327 S   0  0  0  0  0  0  0  0  0  0  0  0
   -0.4692   -8.6331    5.7900 C   0  0  0  0  0  0  0  0  0  0  0  0
   -0.5797   -9.6112    4.6603 C   0  0  0  0  0  0  0  0  0  0  0  0
   -1.3545   -8.9999    3.4975 C   0  0  0  0  0  0  0  0  0  0  0  0
   -1.4037   -8.4262    6.8051 C   0  0  0  0  0  0  0  0  0  0  0  0
   -1.0779   -7.3560    7.6518 C   0  0  0  0  0  0  0  0  0  0  0  0
   -2.0618   -6.8838    9.0330 Cl  0  0  0  0  0  0  0  0  0  0  0  0
   -2.8604   -9.3958    6.9918 Cl  0  0  0  0  0  0  0  0  0  0  0  0
    1.9600   -5.5202    8.4958 C   0  0  0  0  0  0  0  0  0  0  0  0
    3.0297   -6.8111    8.6390 S   0  0  0  0  0  0  0  0  0  0  0  0
   -1.2406   -4.0057    7.2972 C   0  0  0  0  0  0  0  0  0  0  0  0
   -1.6160   -2.6657    7.3848 C   0  0  0  0  0  0  0  0  0  0  0  0
   -0.4212   -1.8125    8.2199 S   0  0  0  0  0  0  0  0  0  0  0  0
   -2.7518   -2.0462    6.6842 C   0  0  0  0  0  0  0  0  0  0  0  0
   -3.0239   -0.6778    6.6488 C   0  0  0  0  0  0  0  0  0  0  0  0
   -4.0084   -0.3407    5.7074 C   0  0  0  0  0  0  0  0  0  0  0  0
   -4.4004    0.9640    5.3490 C   0  0  0  0  0  0  0  0  0  0  0  0
   -3.8565    2.1481    6.0352 C   0  0  0  0  0  0  0  0  0  0  0  0
   -4.2828    2.6207    7.5906 S   0  0  0  0  0  0  0  0  0  0  0  0
   -3.3261    4.0036    7.6255 C   0  0  0  0  0  0  0  0  0  0  0  0
   -3.3064    4.9966    8.7480 C   0  0  0  0  0  0  0  0  0  0  0  0
   -4.4166    6.0268    8.5687 C   0  0  0  0  0  0  0  0  0  0  0  0
   -2.6674    4.1215    6.4015 C   0  0  0  0  0  0  0  0  0  0  0  0
   -1.6009    5.4619    5.9985 Cl  0  0  0  0  0  0  0  0  0  0  0  0
   -2.9536    3.0723    5.5146 C   0  0  0  0  0  0  0  0  0  0  0  0
   -2.2050    2.9173    3.9279 Cl  0  0  0  0  0  0  0  0  0  0  0  0
   -5.2569    1.0909    4.2414 C   0  0  0  0  0  0  0  0  0  0  0  0
   -5.7241   -0.0143    3.5260 C   0  0  0  0  0  0  0  0  0  0  0  0
   -5.3965   -1.3227    3.9313 C   0  0  0  0  0  0  0  0  0  0  0  0
   -5.8867   -2.5022    3.1950 C   0  0  0  0  0  0  0  0  0  0  0  0
   -4.9328   -3.5381    2.2730 S   0  0  0  0  0  0  0  0  0  0  0  0
   -6.1990   -4.5012    1.7231 C   0  0  0  0  0  0  0  0  0  0  0  0
   -6.0527   -5.6322    0.7491 C   0  0  0  0  0  0  0  0  0  0  0  0
   -6.3429   -5.1582   -0.6720 C   0  0  0  0  0  0  0  0  0  0  0  0
   -7.3948   -4.0069    2.2439 C   0  0  0  0  0  0  0  0  0  0  0  0
   -7.2188   -2.8873    3.0677 C   0  0  0  0  0  0  0  0  0  0  0  0
   -8.5500   -2.0474    3.8573 Cl  0  0  0  0  0  0  0  0  0  0  0  0
   -8.9677   -4.7167    1.9069 Cl  0  0  0  0  0  0  0  0  0  0  0  0
   -4.5087   -1.4477    5.0129 C   0  0  0  0  0  0  0  0  0  0  0  0
   -3.7481   -2.8386    5.5734 S   0  0  0  0  0  0  0  0  0  0  0  0
   -6.3514    0.3351    2.3183 C   0  0  0  0  0  0  0  0  0  0  0  0
   -6.3622    1.7105    2.0790 C   0  0  0  0  0  0  0  0  0  0  0  0
   -5.6477    2.4891    3.3961 S   0  0  0  0  0  0  0  0  0  0  0  0
   -6.3493    2.2977    0.7313 C   0  0  0  0  0  0  0  0  0  0  0  0
   -5.7249    1.6675   -0.3429 C   0  0  0  0  0  0  0  0  0  0  0  0
   -5.2915    2.5603   -1.3343 C   0  0  0  0  0  0  0  0  0  0  0  0
   -4.4114    2.2408   -2.3823 C   0  0  0  0  0  0  0  0  0  0  0  0
   -3.9003    0.8740   -2.5570 C   0  0  0  0  0  0  0  0  0  0  0  0
   -2.6330    0.2220   -1.6717 S   0  0  0  0  0  0  0  0  0  0  0  0
   -2.7855   -1.3463   -2.2558 C   0  0  0  0  0  0  0  0  0  0  0  0
   -1.9128   -2.4920   -1.8352 C   0  0  0  0  0  0  0  0  0  0  0  0
   -0.4788   -2.2838   -2.3041 C   0  0  0  0  0  0  0  0  0  0  0  0
   -3.8608   -1.3841   -3.1442 C   0  0  0  0  0  0  0  0  0  0  0  0
   -4.4013   -2.8405   -3.9694 Cl  0  0  0  0  0  0  0  0  0  0  0  0
   -4.4926   -0.1373   -3.3021 C   0  0  0  0  0  0  0  0  0  0  0  0
   -5.9118    0.1147   -4.3070 Cl  0  0  0  0  0  0  0  0  0  0  0  0
   -3.8915    3.3124   -3.1239 C   0  0  0  0  0  0  0  0  0  0  0  0
   -4.2426    4.6429   -2.8763 C   0  0  0  0  0  0  0  0  0  0  0  0
   -5.1645    4.9592   -1.8563 C   0  0  0  0  0  0  0  0  0  0  0  0
   -5.5297    6.3477   -1.5415 C   0  0  0  0  0  0  0  0  0  0  0  0
   -4.4816    7.5053   -0.9199 S   0  0  0  0  0  0  0  0  0  0  0  0
   -5.5985    8.7656   -0.9040 C   0  0  0  0  0  0  0  0  0  0  0  0
   -5.3180   10.1522   -0.4068 C   0  0  0  0  0  0  0  0  0  0  0  0
   -5.8647   10.3454    1.0045 C   0  0  0  0  0  0  0  0  0  0  0  0
   -6.8199    8.2843   -1.3751 C   0  0  0  0  0  0  0  0  0  0  0  0
   -6.7815    6.9274   -1.7284 C   0  0  0  0  0  0  0  0  0  0  0  0
   -8.1689    6.0513   -2.3625 Cl  0  0  0  0  0  0  0  0  0  0  0  0
   -8.2674    9.2754   -1.5176 Cl  0  0  0  0  0  0  0  0  0  0  0  0
   -5.6487    3.8877   -1.0822 C   0  0  0  0  0  0  0  0  0  0  0  0
   -6.4268    3.9580    0.4107 S   0  0  0  0  0  0  0  0  0  0  0  0
   -3.5212    5.5590   -3.6640 C   0  0  0  0  0  0  0  0  0  0  0  0
   -2.5732    4.9457   -4.4844 C   0  0  0  0  0  0  0  0  0  0  0  0
   -2.6770    3.2711   -4.2774 S   0  0  0  0  0  0  0  0  0  0  0  0
   -1.5714    5.6566   -5.3106 C   0  0  0  0  0  0  0  0  0  0  0  0
   -0.3153    5.1712   -5.7142 C   0  0  0  0  0  0  0  0  0  0  0  0
    0.4337    6.1133   -6.4549 C   0  0  0  0  0  0  0  0  0  0  0  0
   -0.2352    7.3293   -6.6064 C   0  0  0  0  0  0  0  0  0  0  0  0
   -1.7300    7.2507   -5.8458 S   0  0  0  0  0  0  0  0  0  0  0  0
    0.3349    8.4256   -7.2621 C   0  0  0  0  0  0  0  0  0  0  0  0
   -0.3566    9.6364   -7.3636 O   0  0  0  0  0  0  0  0  0  0  0  0
   -0.0475   10.7393   -6.5231 C   0  0  0  0  0  0  0  0  0  0  0  0
    1.6203    8.2581   -7.8007 C   0  0  0  0  0  0  0  0  0  0  0  0
    2.2963    7.0385   -7.6705 C   0  0  0  0  0  0  0  0  0  0  0  0
    1.7271    5.9266   -6.9982 C   0  0  0  0  0  0  0  0  0  0  0  0
    2.3514    4.6769   -6.8562 O   0  0  0  0  0  0  0  0  0  0  0  0
    3.5305    4.2302   -7.5141 C   0  0  0  0  0  0  0  0  0  0  0  0
    3.7995    7.2045   -8.4129 S   0  0  0  0  0  0  0  0  0  0  0  0
    3.5980    8.7980   -8.9144 C   0  0  0  0  0  0  0  0  0  0  0  0
    2.3427    9.2337   -8.5057 C   0  0  0  0  0  0  0  0  0  0  0  0
    0.2302    3.8873   -5.2561 C   0  0  0  0  0  0  0  0  0  0  0  0
    0.2165    2.7044   -5.9811 C   0  0  0  0  0  0  0  0  0  0  0  0
    0.8352    1.6496   -5.2936 C   0  0  0  0  0  0  0  0  0  0  0  0
    1.0059    0.3428   -5.7758 C   0  0  0  0  0  0  0  0  0  0  0  0
    0.5620   -0.0440   -7.1233 C   0  0  0  0  0  0  0  0  0  0  0  0
    1.3355    0.4149   -8.5437 S   0  0  0  0  0  0  0  0  0  0  0  0
    0.2725   -0.3757   -9.5816 C   0  0  0  0  0  0  0  0  0  0  0  0
    0.4434   -0.4648  -11.0672 C   0  0  0  0  0  0  0  0  0  0  0  0
    1.2209   -1.7209  -11.4439 C   0  0  0  0  0  0  0  0  0  0  0  0
   -0.7003   -1.0229   -8.8198 C   0  0  0  0  0  0  0  0  0  0  0  0
   -1.9834   -2.0057   -9.5151 Cl  0  0  0  0  0  0  0  0  0  0  0  0
   -0.5398   -0.8295   -7.4385 C   0  0  0  0  0  0  0  0  0  0  0  0
   -1.6243   -1.4995   -6.2281 Cl  0  0  0  0  0  0  0  0  0  0  0  0
    1.6757   -0.5615   -4.9407 C   0  0  0  0  0  0  0  0  0  0  0  0
    2.1713   -0.2030   -3.6817 C   0  0  0  0  0  0  0  0  0  0  0  0
    1.9944    1.1104   -3.1897 C   0  0  0  0  0  0  0  0  0  0  0  0
    2.5258    1.5355   -1.8761 C   0  0  0  0  0  0  0  0  0  0  0  0
    4.1531    1.5031   -1.4451 S   0  0  0  0  0  0  0  0  0  0  0  0
    3.9458    2.1183    0.1069 C   0  0  0  0  0  0  0  0  0  0  0  0
    5.0580    2.3800    1.0791 C   0  0  0  0  0  0  0  0  0  0  0  0
    5.4910    3.8413    1.0333 C   0  0  0  0  0  0  0  0  0  0  0  0
    2.5925    2.3789    0.3037 C   0  0  0  0  0  0  0  0  0  0  0  0
    1.7963    2.0535   -0.8069 C   0  0  0  0  0  0  0  0  0  0  0  0
    0.0482    2.2364   -0.8122 Cl  0  0  0  0  0  0  0  0  0  0  0  0
    1.9384    3.0495    1.7926 Cl  0  0  0  0  0  0  0  0  0  0  0  0
    1.3173    2.0140   -4.0313 C   0  0  0  0  0  0  0  0  0  0  0  0
    1.0058    3.6499   -3.7786 S   0  0  0  0  0  0  0  0  0  0  0  0
    2.8245   -1.2646   -3.0292 C   0  0  0  0  0  0  0  0  0  0  0  0
    2.8450   -2.4365   -3.7866 C   0  0  0  0  0  0  0  0  0  0  0  0
    2.0535   -2.1680   -5.2541 S   0  0  0  0  0  0  0  0  0  0  0  0
    3.4889   -3.7022   -3.4013 C   0  0  0  0  0  0  0  0  0  0  0  0
    3.3869   -4.9025   -4.1037 C   0  0  0  0  0  0  0  0  0  0  0  0
    4.1461   -5.9361   -3.5334 C   0  0  0  0  0  0  0  0  0  0  0  0
    4.2304   -7.2645   -3.9968 C   0  0  0  0  0  0  0  0  0  0  0  0
    3.4954   -7.7209   -5.1890 C   0  0  0  0  0  0  0  0  0  0  0  0
    3.7411   -7.1451   -6.7500 S   0  0  0  0  0  0  0  0  0  0  0  0
    2.5365   -8.0704   -7.4721 C   0  0  0  0  0  0  0  0  0  0  0  0
    2.1428   -7.9712   -8.9150 C   0  0  0  0  0  0  0  0  0  0  0  0
    1.1314   -6.8507   -9.1231 C   0  0  0  0  0  0  0  0  0  0  0  0
    1.9038   -8.8275   -6.4873 C   0  0  0  0  0  0  0  0  0  0  0  0
    0.5416   -9.8936   -6.8042 Cl  0  0  0  0  0  0  0  0  0  0  0  0
    2.4467   -8.6369   -5.2068 C   0  0  0  0  0  0  0  0  0  0  0  0
    1.8168   -9.4214   -3.7633 Cl  0  0  0  0  0  0  0  0  0  0  0  0
    5.0531   -8.1405   -3.2674 C   0  0  0  0  0  0  0  0  0  0  0  0
    5.7559   -7.7390   -2.1277 C   0  0  0  0  0  0  0  0  0  0  0  0
    5.6517   -6.4162   -1.6497 C   0  0  0  0  0  0  0  0  0  0  0  0
    6.3624   -5.9624   -0.4405 C   0  0  0  0  0  0  0  0  0  0  0  0
    7.5384   -4.7610   -0.4134 S   0  0  0  0  0  0  0  0  0  0  0  0
    7.7954   -4.7987    1.2479 C   0  0  0  0  0  0  0  0  0  0  0  0
    8.7190   -3.8787    1.9859 C   0  0  0  0  0  0  0  0  0  0  0  0
    8.0144   -2.5737    2.3344 C   0  0  0  0  0  0  0  0  0  0  0  0
    6.9348   -5.7417    1.8102 C   0  0  0  0  0  0  0  0  0  0  0  0
    6.1370   -6.4007    0.8614 C   0  0  0  0  0  0  0  0  0  0  0  0
    4.9244   -7.6032    1.2865 Cl  0  0  0  0  0  0  0  0  0  0  0  0
    6.8366   -6.0624    3.5385 Cl  0  0  0  0  0  0  0  0  0  0  0  0
    4.8394   -5.5371   -2.3846 C   0  0  0  0  0  0  0  0  0  0  0  0
    4.5067   -3.9171   -2.0727 S   0  0  0  0  0  0  0  0  0  0  0  0
    6.5575   -8.7595   -1.5869 C   0  0  0  0  0  0  0  0  0  0  0  0
    6.4784   -9.9526   -2.3028 C   0  0  0  0  0  0  0  0  0  0  0  0
    5.4269   -9.7455   -3.6047 S   0  0  0  0  0  0  0  0  0  0  0  0
    5.1972   -6.3361    9.7405 H   0  0  0  0  0  0  0  0  0  0  0  0
    4.4410   -3.8669   10.0528 H   0  0  0  0  0  0  0  0  0  0  0  0
    4.9378    1.8666   10.5386 H   0  0  0  0  0  0  0  0  0  0  0  0
    5.6226    1.0803    9.0745 H   0  0  0  0  0  0  0  0  0  0  0  0
    3.7225    1.9926    7.6931 H   0  0  0  0  0  0  0  0  0  0  0  0
    4.6769    3.2949    8.5028 H   0  0  0  0  0  0  0  0  0  0  0  0
    3.0702    2.8163    9.1702 H   0  0  0  0  0  0  0  0  0  0  0  0
    0.4371   -9.8924    4.3162 H   0  0  0  0  0  0  0  0  0  0  0  0
   -1.0911  -10.5338    5.0037 H   0  0  0  0  0  0  0  0  0  0  0  0
   -2.3830   -8.7268    3.8169 H   0  0  0  0  0  0  0  0  0  0  0  0
   -0.8356   -8.0927    3.1229 H   0  0  0  0  0  0  0  0  0  0  0  0
   -1.4234   -9.7384    2.6700 H   0  0  0  0  0  0  0  0  0  0  0  0
   -1.8120   -4.7457    6.7524 H   0  0  0  0  0  0  0  0  0  0  0  0
   -2.4740    0.0520    7.2273 H   0  0  0  0  0  0  0  0  0  0  0  0
   -3.4522    4.4676    9.7123 H   0  0  0  0  0  0  0  0  0  0  0  0
   -2.3215    5.5104    8.7888 H   0  0  0  0  0  0  0  0  0  0  0  0
   -5.4096    5.5273    8.5896 H   0  0  0  0  0  0  0  0  0  0  0  0
   -4.3726    6.7684    9.3927 H   0  0  0  0  0  0  0  0  0  0  0  0
   -4.2953    6.5582    7.6026 H   0  0  0  0  0  0  0  0  0  0  0  0
   -6.7505   -6.4538    1.0150 H   0  0  0  0  0  0  0  0  0  0  0  0
   -5.0213   -6.0324    0.7965 H   0  0  0  0  0  0  0  0  0  0  0  0
   -6.2324   -6.0089   -1.3769 H   0  0  0  0  0  0  0  0  0  0  0  0
   -5.6296   -4.3557   -0.9626 H   0  0  0  0  0  0  0  0  0  0  0  0
   -7.3811   -4.7681   -0.7462 H   0  0  0  0  0  0  0  0  0  0  0  0
   -6.6542   -0.3927    1.5784 H   0  0  0  0  0  0  0  0  0  0  0  0
   -5.4422    0.6232   -0.3299 H   0  0  0  0  0  0  0  0  0  0  0  0
   -1.9284   -2.5699   -0.7288 H   0  0  0  0  0  0  0  0  0  0  0  0
   -2.2937   -3.4486   -2.2483 H   0  0  0  0  0  0  0  0  0  0  0  0
    0.1457   -3.1488   -1.9947 H   0  0  0  0  0  0  0  0  0  0  0  0
   -0.0514   -1.3622   -1.8519 H   0  0  0  0  0  0  0  0  0  0  0  0
   -0.4465   -2.1969   -3.4108 H   0  0  0  0  0  0  0  0  0  0  0  0
   -5.7738   10.8955   -1.0915 H   0  0  0  0  0  0  0  0  0  0  0  0
   -4.2223   10.3224   -0.3967 H   0  0  0  0  0  0  0  0  0  0  0  0
   -5.6196   11.3706    1.3557 H   0  0  0  0  0  0  0  0  0  0  0  0
   -6.9682   10.2260    1.0118 H   0  0  0  0  0  0  0  0  0  0  0  0
   -5.4110    9.6107    1.7027 H   0  0  0  0  0  0  0  0  0  0  0  0
   -3.6352    6.6327   -3.5952 H   0  0  0  0  0  0  0  0  0  0  0  0
    1.0211   11.0211   -6.6227 H   0  0  0  0  0  0  0  0  0  0  0  0
   -0.6754   11.6069   -6.8156 H   0  0  0  0  0  0  0  0  0  0  0  0
   -0.2626   10.4759   -5.4657 H   0  0  0  0  0  0  0  0  0  0  0  0
    3.6696    3.1506   -7.2977 H   0  0  0  0  0  0  0  0  0  0  0  0
    3.4310    4.3559   -8.6117 H   0  0  0  0  0  0  0  0  0  0  0  0
    4.4154    4.7768   -7.1278 H   0  0  0  0  0  0  0  0  0  0  0  0
    4.3208    9.3834   -9.4671 H   0  0  0  0  0  0  0  0  0  0  0  0
    1.9725   10.2285   -8.7188 H   0  0  0  0  0  0  0  0  0  0  0  0
   -0.2222    2.6179   -6.9677 H   0  0  0  0  0  0  0  0  0  0  0  0
   -0.5528   -0.4795  -11.5611 H   0  0  0  0  0  0  0  0  0  0  0  0
    0.9929    0.4264  -11.4302 H   0  0  0  0  0  0  0  0  0  0  0  0
    2.2381   -1.6915  -10.9951 H   0  0  0  0  0  0  0  0  0  0  0  0
    1.3210   -1.7775  -12.5475 H   0  0  0  0  0  0  0  0  0  0  0  0
    0.6882   -2.6281  -11.0863 H   0  0  0  0  0  0  0  0  0  0  0  0
    4.7312    2.1215    2.1082 H   0  0  0  0  0  0  0  0  0  0  0  0
    5.9254    1.7374    0.8240 H   0  0  0  0  0  0  0  0  0  0  0  0
    4.6528    4.5061    1.3332 H   0  0  0  0  0  0  0  0  0  0  0  0
    5.8234    4.1130    0.0088 H   0  0  0  0  0  0  0  0  0  0  0  0
    6.3386    4.0005    1.7352 H   0  0  0  0  0  0  0  0  0  0  0  0
    3.2595   -1.1917   -2.0400 H   0  0  0  0  0  0  0  0  0  0  0  0
    2.7805   -5.0186   -4.9912 H   0  0  0  0  0  0  0  0  0  0  0  0
    3.0464   -7.7682   -9.5279 H   0  0  0  0  0  0  0  0  0  0  0  0
    1.7095   -8.9334   -9.2606 H   0  0  0  0  0  0  0  0  0  0  0  0
    0.2133   -7.0442   -8.5287 H   0  0  0  0  0  0  0  0  0  0  0  0
    0.8539   -6.7945  -10.1972 H   0  0  0  0  0  0  0  0  0  0  0  0
    1.5650   -5.8735   -8.8177 H   0  0  0  0  0  0  0  0  0  0  0  0
    9.6024   -3.6630    1.3504 H   0  0  0  0  0  0  0  0  0  0  0  0
    9.0810   -4.3661    2.9168 H   0  0  0  0  0  0  0  0  0  0  0  0
    8.7293   -1.8950    2.8445 H   0  0  0  0  0  0  0  0  0  0  0  0
    7.1579   -2.7692    3.0149 H   0  0  0  0  0  0  0  0  0  0  0  0
    7.6388   -2.0779    1.4131 H   0  0  0  0  0  0  0  0  0  0  0  0
    7.1909   -8.6384   -0.7188 H   0  0  0  0  0  0  0  0  0  0  0  0
    7.0193  -10.8606   -2.0669 H   0  0  0  0  0  0  0  0  0  0  0  0
  1  2  2  0
  2  3  1  0
  3  4  2  0
  4  5  1  0
  5  6  1  0
  6  7  1  0
  7  8  1  0
  8  9  1  0
  7 10  2  0
 10 11  1  0
 10 12  1  0
 12 13  1  0
  4 14  1  0
 14 15  2  0
 15 16  1  0
 16 17  1  0
 17 18  1  0
 18 19  1  0
 19 20  1  0
 20 21  1  0
 19 22  2  0
 22 23  1  0
 23 24  1  0
 22 25  1  0
 16 26  2  0
 26 27  1  0
 15 28  1  0
 28 29  2  0
 29 30  1  0
 29 31  1  0
 31 32  2  0
 32 33  1  0
 33 34  2  0
 34 35  1  0
 35 36  1  0
 36 37  1  0
 37 38  1  0
 38 39  1  0
 37 40  2  0
 40 41  1  0
 40 42  1  0
 42 43  1  0
 34 44  1  0
 44 45  2  0
 45 46  1  0
 46 47  1  0
 47 48  1  0
 48 49  1  0
 49 50  1  0
 50 51  1  0
 49 52  2  0
 52 53  1  0
 53 54  1  0
 52 55  1  0
 46 56  2  0
 56 57  1  0
 45 58  1  0
 58 59  2  0
 59 60  1  0
 59 61  1  0
 61 62  2  0
 62 63  1  0
 63 64  2  0
 64 65  1  0
 65 66  1  0
 66 67  1  0
 67 68  1  0
 68 69  1  0
 67 70  2  0
 70 71  1  0
 70 72  1  0
 72 73  1  0
 64 74  1  0
 74 75  2  0
 75 76  1  0
 76 77  1  0
 77 78  1  0
 78 79  1  0
 79 80  1  0
 80 81  1  0
 79 82  2  0
 82 83  1  0
 83 84  1  0
 82 85  1  0
 76 86  2  0
 86 87  1  0
 75 88  1  0
 88 89  2  0
 89 90  1  0
 89 91  1  0
 91 92  2  0
 92 93  1  0
 93 94  2  0
 94 95  1  0
 94 96  1  0
 96 97  1  0
 97 98  1  0
 96 99  2  0
 99100  1  0
100101  2  0
101102  1  0
102103  1  0
100104  1  0
104105  1  0
105106  2  0
 92107  1  0
107108  2  0
108109  1  0
109110  2  0
110111  1  0
111112  1  0
112113  1  0
113114  1  0
114115  1  0
113116  2  0
116117  1  0
116118  1  0
118119  1  0
110120  1  0
120121  2  0
121122  1  0
122123  1  0
123124  1  0
124125  1  0
125126  1  0
126127  1  0
125128  2  0
128129  1  0
129130  1  0
128131  1  0
122132  2  0
132133  1  0
121134  1  0
134135  2  0
135136  1  0
135137  1  0
137138  2  0
138139  1  0
139140  2  0
140141  1  0
141142  1  0
142143  1  0
143144  1  0
144145  1  0
143146  2  0
146147  1  0
146148  1  0
148149  1  0
140150  1  0
150151  2  0
151152  1  0
152153  1  0
153154  1  0
154155  1  0
155156  1  0
156157  1  0
155158  2  0
158159  1  0
159160  1  0
158161  1  0
152162  2  0
162163  1  0
151164  1  0
164165  2  0
165166  1  0
 27  1  1  0
 57 31  1  0
 87 61  1  0
 95 91  1  0
106 99  1  0
133107  1  0
163137  1  0
 26  3  1  0
 56 33  1  0
 86 63  1  0
101 93  1  0
132109  1  0
162139  1  0
 12  5  2  0
 30 14  1  0
 42 35  2  0
 60 44  1  0
 72 65  2  0
 90 74  1  0
118111  2  0
136120  1  0
148141  2  0
166150  1  0
 23 17  2  0
 53 47  2  0
 83 77  2  0
129123  2  0
159153  2  0
  1167  1  0
  2168  1  0
  8169  1  0
  8170  1  0
  9171  1  0
  9172  1  0
  9173  1  0
 20174  1  0
 20175  1  0
 21176  1  0
 21177  1  0
 21178  1  0
 28179  1  0
 32180  1  0
 38181  1  0
 38182  1  0
 39183  1  0
 39184  1  0
 39185  1  0
 50186  1  0
 50187  1  0
 51188  1  0
 51189  1  0
 51190  1  0
 58191  1  0
 62192  1  0
 68193  1  0
 68194  1  0
 69195  1  0
 69196  1  0
 69197  1  0
 80198  1  0
 80199  1  0
 81200  1  0
 81201  1  0
 81202  1  0
 88203  1  0
 98204  1  0
 98205  1  0
 98206  1  0
103207  1  0
103208  1  0
103209  1  0
105210  1  0
106211  1  0
108212  1  0
114213  1  0
114214  1  0
115215  1  0
115216  1  0
115217  1  0
126218  1  0
126219  1  0
127220  1  0
127221  1  0
127222  1  0
134223  1  0
138224  1  0
144225  1  0
144226  1  0
145227  1  0
145228  1  0
145229  1  0
156230  1  0
156231  1  0
157232  1  0
157233  1  0
157234  1  0
164235  1  0
165236  1  0
M  END

