
     RDKit          3D

222245  0  0  0  0  0  0  0  0999 V2000
    3.5508   -2.9924   11.8960 C   0  0  0  0  0  0  0  0  0  0  0  0
    2.1002   -3.1035   11.0372 S   0  0  0  0  0  0  0  0  0  0  0  0
    2.4053   -4.5666   10.2374 C   0  0  0  0  0  0  0  0  0  0  0  0
    3.6720   -4.9763   10.6611 C   0  0  0  0  0  0  0  0  0  0  0  0
    4.2810   -4.1156   11.5444 C   0  0  0  0  0  0  0  0  0  0  0  0
    5.5903   -4.5628   11.9760 C   0  0  0  0  0  0  0  0  0  0  0  0
    6.3297   -3.9112   12.7616 O   0  0  0  0  0  0  0  0  0  0  0  0
    6.0839   -6.1308   11.2317 S   0  0  0  0  0  0  0  0  0  0  0  0
    4.4715   -6.1751   10.4261 C   0  0  0  0  0  0  0  0  0  0  0  0
    4.0400   -7.2015    9.8425 O   0  0  0  0  0  0  0  0  0  0  0  0
    1.5121   -5.1673    9.2298 C   0  0  0  0  0  0  0  0  0  0  0  0
    0.1606   -4.8550    9.0805 C   0  0  0  0  0  0  0  0  0  0  0  0
   -0.4276   -5.4626    7.9580 C   0  0  0  0  0  0  0  0  0  0  0  0
   -1.7641   -5.3127    7.5281 C   0  0  0  0  0  0  0  0  0  0  0  0
   -2.7062   -4.3752    8.1833 C   0  0  0  0  0  0  0  0  0  0  0  0
   -2.3868   -3.0124    8.2895 C   0  0  0  0  0  0  0  0  0  0  0  0
   -3.2909   -2.1171    8.8651 C   0  0  0  0  0  0  0  0  0  0  0  0
   -4.5313   -2.5723    9.3296 C   0  0  0  0  0  0  0  0  0  0  0  0
   -5.6806   -1.4068   10.0813 S   0  0  0  0  0  0  0  0  0  0  0  0
   -6.6798   -1.1402    8.5723 C   0  0  0  0  0  0  0  0  0  0  0  0
   -5.9791   -0.1988    7.5988 C   0  0  0  0  0  0  0  0  0  0  0  0
   -4.8567   -3.9308    9.2304 C   0  0  0  0  0  0  0  0  0  0  0  0
   -6.0530   -4.3841    9.6782 F   0  0  0  0  0  0  0  0  0  0  0  0
   -3.9493   -4.8290    8.6537 C   0  0  0  0  0  0  0  0  0  0  0  0
   -2.1309   -6.0070    6.3585 C   0  0  0  0  0  0  0  0  0  0  0  0
   -1.2303   -6.7861    5.6277 C   0  0  0  0  0  0  0  0  0  0  0  0
    0.1005   -6.9327    6.0616 C   0  0  0  0  0  0  0  0  0  0  0  0
    1.0872   -7.7118    5.2897 C   0  0  0  0  0  0  0  0  0  0  0  0
    2.1167   -7.0568    4.5968 C   0  0  0  0  0  0  0  0  0  0  0  0
    3.0622   -7.7971    3.8798 C   0  0  0  0  0  0  0  0  0  0  0  0
    2.9971   -9.1965    3.8647 C   0  0  0  0  0  0  0  0  0  0  0  0
    4.2610  -10.1298    2.9908 S   0  0  0  0  0  0  0  0  0  0  0  0
    3.2515  -10.4089    1.4964 C   0  0  0  0  0  0  0  0  0  0  0  0
    4.1669  -10.6352    0.2963 C   0  0  0  0  0  0  0  0  0  0  0  0
    1.9715   -9.8517    4.5572 C   0  0  0  0  0  0  0  0  0  0  0  0
    1.0150   -9.1125    5.2630 C   0  0  0  0  0  0  0  0  0  0  0  0
    1.9033  -11.2076    4.5601 F   0  0  0  0  0  0  0  0  0  0  0  0
    0.4687   -6.2525    7.2333 C   0  0  0  0  0  0  0  0  0  0  0  0
    1.9828   -6.1812    7.9633 S   0  0  0  0  0  0  0  0  0  0  0  0
   -1.7595   -7.2544    4.4123 C   0  0  0  0  0  0  0  0  0  0  0  0
   -3.0667   -6.8248    4.1828 C   0  0  0  0  0  0  0  0  0  0  0  0
   -3.5686   -5.8867    5.4954 S   0  0  0  0  0  0  0  0  0  0  0  0
   -3.7557   -6.8448    2.8831 C   0  0  0  0  0  0  0  0  0  0  0  0
   -3.1218   -7.0674    1.6610 C   0  0  0  0  0  0  0  0  0  0  0  0
   -3.8501   -6.5873    0.5637 C   0  0  0  0  0  0  0  0  0  0  0  0
   -3.3641   -6.4767   -0.7548 C   0  0  0  0  0  0  0  0  0  0  0  0
   -2.0365   -7.0080   -1.1325 C   0  0  0  0  0  0  0  0  0  0  0  0
   -1.8005   -8.3922   -1.1019 C   0  0  0  0  0  0  0  0  0  0  0  0
   -0.5325   -8.8965   -1.4064 C   0  0  0  0  0  0  0  0  0  0  0  0
    0.5096   -8.0256   -1.7402 C   0  0  0  0  0  0  0  0  0  0  0  0
    2.1412   -8.6767   -2.1089 S   0  0  0  0  0  0  0  0  0  0  0  0
    1.8951   -8.7528   -3.9187 C   0  0  0  0  0  0  0  0  0  0  0  0
    1.1615  -10.0271   -4.3169 C   0  0  0  0  0  0  0  0  0  0  0  0
    0.2843   -6.6410   -1.7516 C   0  0  0  0  0  0  0  0  0  0  0  0
    1.2897   -5.7824   -2.0452 F   0  0  0  0  0  0  0  0  0  0  0  0
   -0.9815   -6.1357   -1.4452 C   0  0  0  0  0  0  0  0  0  0  0  0
   -4.1213   -5.6900   -1.6406 C   0  0  0  0  0  0  0  0  0  0  0  0
   -5.3210   -5.0762   -1.2697 C   0  0  0  0  0  0  0  0  0  0  0  0
   -5.8583   -5.2865    0.0163 C   0  0  0  0  0  0  0  0  0  0  0  0
   -7.1618   -4.7243    0.4125 C   0  0  0  0  0  0  0  0  0  0  0  0
   -8.3284   -5.4667    0.1842 C   0  0  0  0  0  0  0  0  0  0  0  0
   -9.5741   -4.9361    0.5213 C   0  0  0  0  0  0  0  0  0  0  0  0
   -9.6666   -3.6540    1.0731 C   0  0  0  0  0  0  0  0  0  0  0  0
  -11.2788   -2.9708    1.4766 S   0  0  0  0  0  0  0  0  0  0  0  0
  -11.5079   -2.1305   -0.1300 C   0  0  0  0  0  0  0  0  0  0  0  0
  -12.0243   -3.0968   -1.1890 C   0  0  0  0  0  0  0  0  0  0  0  0
   -8.4988   -2.9166    1.3229 C   0  0  0  0  0  0  0  0  0  0  0  0
   -7.2495   -3.4521    0.9916 C   0  0  0  0  0  0  0  0  0  0  0  0
   -8.5728   -1.6801    1.8743 F   0  0  0  0  0  0  0  0  0  0  0  0
   -5.0774   -6.0225    0.9213 C   0  0  0  0  0  0  0  0  0  0  0  0
   -5.2507   -6.1053    2.5899 S   0  0  0  0  0  0  0  0  0  0  0  0
   -5.7824   -4.1366   -2.2097 C   0  0  0  0  0  0  0  0  0  0  0  0
   -4.9403   -4.0129   -3.3211 C   0  0  0  0  0  0  0  0  0  0  0  0
   -3.6541   -5.0958   -3.1372 S   0  0  0  0  0  0  0  0  0  0  0  0
   -4.8375   -2.8129   -4.1696 C   0  0  0  0  0  0  0  0  0  0  0  0
   -3.3531   -2.1289   -4.5903 S   0  0  0  0  0  0  0  0  0  0  0  0
   -3.9063   -0.6102   -5.0829 C   0  0  0  0  0  0  0  0  0  0  0  0
   -5.2922   -0.6411   -4.9192 C   0  0  0  0  0  0  0  0  0  0  0  0
   -5.7948   -1.8308   -4.4261 C   0  0  0  0  0  0  0  0  0  0  0  0
   -7.2450   -1.8091   -4.2760 C   0  0  0  0  0  0  0  0  0  0  0  0
   -7.9422   -2.8281   -4.0409 O   0  0  0  0  0  0  0  0  0  0  0  0
   -7.9670   -0.1965   -4.6140 S   0  0  0  0  0  0  0  0  0  0  0  0
   -6.3405    0.3434   -5.1659 C   0  0  0  0  0  0  0  0  0  0  0  0
   -6.1603    1.4155   -5.7989 O   0  0  0  0  0  0  0  0  0  0  0  0
   -3.0056    0.5426   -5.2838 C   0  0  0  0  0  0  0  0  0  0  0  0
   -1.6251    0.4272   -5.4656 C   0  0  0  0  0  0  0  0  0  0  0  0
   -0.9379    1.6397   -5.3030 C   0  0  0  0  0  0  0  0  0  0  0  0
    0.4604    1.8208   -5.3439 C   0  0  0  0  0  0  0  0  0  0  0  0
    1.3995    0.6992   -5.5561 C   0  0  0  0  0  0  0  0  0  0  0  0
    1.4690   -0.3531   -4.6282 C   0  0  0  0  0  0  0  0  0  0  0  0
    2.4074   -1.3769   -4.7911 C   0  0  0  0  0  0  0  0  0  0  0  0
    3.2919   -1.3520   -5.8769 C   0  0  0  0  0  0  0  0  0  0  0  0
    4.5285   -2.6474   -6.0432 S   0  0  0  0  0  0  0  0  0  0  0  0
    5.8774   -1.6955   -5.2551 C   0  0  0  0  0  0  0  0  0  0  0  0
    5.7376   -1.6831   -3.7373 C   0  0  0  0  0  0  0  0  0  0  0  0
    3.2062   -0.3208   -6.8214 C   0  0  0  0  0  0  0  0  0  0  0  0
    4.0442   -0.2960   -7.8864 F   0  0  0  0  0  0  0  0  0  0  0  0
    2.2709    0.7054   -6.6578 C   0  0  0  0  0  0  0  0  0  0  0  0
    0.9394    3.1182   -5.0839 C   0  0  0  0  0  0  0  0  0  0  0  0
    0.0922    4.1843   -4.7680 C   0  0  0  0  0  0  0  0  0  0  0  0
   -1.3053    4.0065   -4.7534 C   0  0  0  0  0  0  0  0  0  0  0  0
   -2.2246    5.1203   -4.4680 C   0  0  0  0  0  0  0  0  0  0  0  0
   -2.3492    5.6215   -3.1641 C   0  0  0  0  0  0  0  0  0  0  0  0
   -3.2132    6.6888   -2.9063 C   0  0  0  0  0  0  0  0  0  0  0  0
   -3.9614    7.2554   -3.9448 C   0  0  0  0  0  0  0  0  0  0  0  0
   -5.0820    8.6154   -3.5941 S   0  0  0  0  0  0  0  0  0  0  0  0
   -6.5729    7.5627   -3.4804 C   0  0  0  0  0  0  0  0  0  0  0  0
   -6.6465    6.8426   -2.1390 C   0  0  0  0  0  0  0  0  0  0  0  0
   -3.8163    6.7737   -5.2532 C   0  0  0  0  0  0  0  0  0  0  0  0
   -2.9607    5.7002   -5.5115 C   0  0  0  0  0  0  0  0  0  0  0  0
   -4.5142    7.3315   -6.2718 F   0  0  0  0  0  0  0  0  0  0  0  0
   -1.7847    2.7161   -5.0222 C   0  0  0  0  0  0  0  0  0  0  0  0
   -3.3712    2.1568   -4.9363 S   0  0  0  0  0  0  0  0  0  0  0  0
    0.7826    5.3671   -4.4538 C   0  0  0  0  0  0  0  0  0  0  0  0
    2.1650    5.2228   -4.5390 C   0  0  0  0  0  0  0  0  0  0  0  0
    2.5361    3.6403   -4.9941 S   0  0  0  0  0  0  0  0  0  0  0  0
    3.1584    6.2455   -4.1982 C   0  0  0  0  0  0  0  0  0  0  0  0
    3.0013    7.2405   -3.2321 C   0  0  0  0  0  0  0  0  0  0  0  0
    4.1699    7.9996   -3.0355 C   0  0  0  0  0  0  0  0  0  0  0  0
    4.3618    9.0152   -2.0739 C   0  0  0  0  0  0  0  0  0  0  0  0
    3.3338    9.3493   -1.0625 C   0  0  0  0  0  0  0  0  0  0  0  0
    2.8600    8.3565   -0.1914 C   0  0  0  0  0  0  0  0  0  0  0  0
    1.9406    8.6766    0.8122 C   0  0  0  0  0  0  0  0  0  0  0  0
    1.4990    9.9944    0.9635 C   0  0  0  0  0  0  0  0  0  0  0  0
    0.3509   10.4027    2.2888 S   0  0  0  0  0  0  0  0  0  0  0  0
    1.6370   10.9424    3.4734 C   0  0  0  0  0  0  0  0  0  0  0  0
    2.3297    9.7515    4.1242 C   0  0  0  0  0  0  0  0  0  0  0  0
    1.9511   10.9879    0.0849 C   0  0  0  0  0  0  0  0  0  0  0  0
    1.5189   12.2668    0.2096 F   0  0  0  0  0  0  0  0  0  0  0  0
    2.8656   10.6658   -0.9231 C   0  0  0  0  0  0  0  0  0  0  0  0
    5.6250    9.6389   -2.0588 C   0  0  0  0  0  0  0  0  0  0  0  0
    6.6582    9.2779   -2.9286 C   0  0  0  0  0  0  0  0  0  0  0  0
    6.4709    8.2496   -3.8766 C   0  0  0  0  0  0  0  0  0  0  0  0
    7.5369    7.8387   -4.8122 C   0  0  0  0  0  0  0  0  0  0  0  0
    8.7327    7.2839   -4.3286 C   0  0  0  0  0  0  0  0  0  0  0  0
    9.7296    6.8799   -5.2234 C   0  0  0  0  0  0  0  0  0  0  0  0
    9.5311    7.0008   -6.6030 C   0  0  0  0  0  0  0  0  0  0  0  0
   10.8136    6.4660   -7.7416 S   0  0  0  0  0  0  0  0  0  0  0  0
   10.2852    4.7155   -7.7949 C   0  0  0  0  0  0  0  0  0  0  0  0
    9.1943    4.5029   -8.8359 C   0  0  0  0  0  0  0  0  0  0  0  0
    8.3431    7.5643   -7.0878 C   0  0  0  0  0  0  0  0  0  0  0  0
    7.3487    7.9767   -6.1969 C   0  0  0  0  0  0  0  0  0  0  0  0
    8.1528    7.7226   -8.4214 F   0  0  0  0  0  0  0  0  0  0  0  0
    5.2130    7.6259   -3.8934 C   0  0  0  0  0  0  0  0  0  0  0  0
    4.7196    6.3174   -4.8302 S   0  0  0  0  0  0  0  0  0  0  0  0
    7.8350   10.0169   -2.7246 C   0  0  0  0  0  0  0  0  0  0  0  0
    7.7317   10.9340   -1.6819 C   0  0  0  0  0  0  0  0  0  0  0  0
    6.1847   10.8399   -1.0251 S   0  0  0  0  0  0  0  0  0  0  0  0
    3.8441   -2.2096   12.5839 H   0  0  0  0  0  0  0  0  0  0  0  0
   -0.3686   -4.1990    9.7578 H   0  0  0  0  0  0  0  0  0  0  0  0
   -1.4398   -2.6395    7.9124 H   0  0  0  0  0  0  0  0  0  0  0  0
   -3.0318   -1.0695    8.9396 H   0  0  0  0  0  0  0  0  0  0  0  0
   -7.6448   -0.6808    8.8790 H   0  0  0  0  0  0  0  0  0  0  0  0
   -6.9067   -2.1063    8.0752 H   0  0  0  0  0  0  0  0  0  0  0  0
   -5.0605   -0.6746    7.1924 H   0  0  0  0  0  0  0  0  0  0  0  0
   -5.7154    0.7558    8.1019 H   0  0  0  0  0  0  0  0  0  0  0  0
   -6.6555    0.0241    6.7488 H   0  0  0  0  0  0  0  0  0  0  0  0
   -4.2141   -5.8750    8.5728 H   0  0  0  0  0  0  0  0  0  0  0  0
    2.1769   -5.9762    4.6041 H   0  0  0  0  0  0  0  0  0  0  0  0
    3.8516   -7.2780    3.3516 H   0  0  0  0  0  0  0  0  0  0  0  0
    2.6203  -11.3145    1.6478 H   0  0  0  0  0  0  0  0  0  0  0  0
    2.5974   -9.5336    1.2859 H   0  0  0  0  0  0  0  0  0  0  0  0
    4.7238   -9.6993    0.0675 H   0  0  0  0  0  0  0  0  0  0  0  0
    3.5620  -10.9078   -0.5949 H   0  0  0  0  0  0  0  0  0  0  0  0
    4.8941  -11.4532    0.4983 H   0  0  0  0  0  0  0  0  0  0  0  0
    0.2240   -9.6270    5.7933 H   0  0  0  0  0  0  0  0  0  0  0  0
   -1.1822   -7.8119    3.6862 H   0  0  0  0  0  0  0  0  0  0  0  0
   -2.1096   -7.4397    1.5800 H   0  0  0  0  0  0  0  0  0  0  0  0
   -2.6011   -9.0776   -0.8474 H   0  0  0  0  0  0  0  0  0  0  0  0
   -0.3605   -9.9625   -1.3792 H   0  0  0  0  0  0  0  0  0  0  0  0
    1.3408   -7.8616   -4.2812 H   0  0  0  0  0  0  0  0  0  0  0  0
    2.8945   -8.7523   -4.4022 H   0  0  0  0  0  0  0  0  0  0  0  0
    1.6933  -10.9181   -3.9194 H   0  0  0  0  0  0  0  0  0  0  0  0
    1.1174  -10.0999   -5.4239 H   0  0  0  0  0  0  0  0  0  0  0  0
    0.1233  -10.0131   -3.9258 H   0  0  0  0  0  0  0  0  0  0  0  0
   -1.1404   -5.0636   -1.4398 H   0  0  0  0  0  0  0  0  0  0  0  0
   -8.2728   -6.4540   -0.2587 H   0  0  0  0  0  0  0  0  0  0  0  0
  -10.4694   -5.5164    0.3430 H   0  0  0  0  0  0  0  0  0  0  0  0
  -12.2555   -1.3209    0.0064 H   0  0  0  0  0  0  0  0  0  0  0  0
  -10.5592   -1.6634   -0.4702 H   0  0  0  0  0  0  0  0  0  0  0  0
  -12.2430   -2.5402   -2.1244 H   0  0  0  0  0  0  0  0  0  0  0  0
  -12.9576   -3.5889   -0.8404 H   0  0  0  0  0  0  0  0  0  0  0  0
  -11.2639   -3.8724   -1.4151 H   0  0  0  0  0  0  0  0  0  0  0  0
   -6.3526   -2.8737    1.1753 H   0  0  0  0  0  0  0  0  0  0  0  0
   -6.5968   -3.4594   -2.0038 H   0  0  0  0  0  0  0  0  0  0  0  0
   -1.1321   -0.5171   -5.6515 H   0  0  0  0  0  0  0  0  0  0  0  0
    0.8125   -0.3687   -3.7671 H   0  0  0  0  0  0  0  0  0  0  0  0
    2.4623   -2.1752   -4.0604 H   0  0  0  0  0  0  0  0  0  0  0  0
    5.9008   -0.6554   -5.6428 H   0  0  0  0  0  0  0  0  0  0  0  0
    6.8388   -2.1811   -5.5216 H   0  0  0  0  0  0  0  0  0  0  0  0
    6.6336   -1.2038   -3.2890 H   0  0  0  0  0  0  0  0  0  0  0  0
    4.8456   -1.0997   -3.4326 H   0  0  0  0  0  0  0  0  0  0  0  0
    5.6550   -2.7202   -3.3472 H   0  0  0  0  0  0  0  0  0  0  0  0
    2.2276    1.5091   -7.3811 H   0  0  0  0  0  0  0  0  0  0  0  0
   -1.7803    5.1845   -2.3535 H   0  0  0  0  0  0  0  0  0  0  0  0
   -3.3089    7.0674   -1.8990 H   0  0  0  0  0  0  0  0  0  0  0  0
   -7.4660    8.2160   -3.5849 H   0  0  0  0  0  0  0  0  0  0  0  0
   -6.5951    6.8237   -4.3086 H   0  0  0  0  0  0  0  0  0  0  0  0
   -5.8062    6.1274   -2.0364 H   0  0  0  0  0  0  0  0  0  0  0  0
   -6.6137    7.5735   -1.3042 H   0  0  0  0  0  0  0  0  0  0  0  0
   -7.5979    6.2698   -2.0809 H   0  0  0  0  0  0  0  0  0  0  0  0
   -2.8608    5.3281   -6.5250 H   0  0  0  0  0  0  0  0  0  0  0  0
    0.2944    6.2913   -4.1683 H   0  0  0  0  0  0  0  0  0  0  0  0
    2.0871    7.3833   -2.6730 H   0  0  0  0  0  0  0  0  0  0  0  0
    3.2147    7.3370   -0.2752 H   0  0  0  0  0  0  0  0  0  0  0  0
    1.5870    7.9029    1.4804 H   0  0  0  0  0  0  0  0  0  0  0  0
    2.3863   11.5909    2.9718 H   0  0  0  0  0  0  0  0  0  0  0  0
    1.1463   11.5428    4.2681 H   0  0  0  0  0  0  0  0  0  0  0  0
    3.0338   10.1110    4.9021 H   0  0  0  0  0  0  0  0  0  0  0  0
    1.5819    9.0816    4.6004 H   0  0  0  0  0  0  0  0  0  0  0  0
    2.9081    9.1786    3.3729 H   0  0  0  0  0  0  0  0  0  0  0  0
    3.2184   11.4430   -1.5897 H   0  0  0  0  0  0  0  0  0  0  0  0
    8.8896    7.1618   -3.2644 H   0  0  0  0  0  0  0  0  0  0  0  0
   10.6501    6.4509   -4.8405 H   0  0  0  0  0  0  0  0  0  0  0  0
   11.1665    4.1035   -8.0665 H   0  0  0  0  0  0  0  0  0  0  0  0
    9.9236    4.3799   -6.7980 H   0  0  0  0  0  0  0  0  0  0  0  0
    8.2708    5.0417   -8.5471 H   0  0  0  0  0  0  0  0  0  0  0  0
    8.9603    3.4170   -8.9090 H   0  0  0  0  0  0  0  0  0  0  0  0
    9.5403    4.8595   -9.8316 H   0  0  0  0  0  0  0  0  0  0  0  0
    6.4397    8.4174   -6.5817 H   0  0  0  0  0  0  0  0  0  0  0  0
    8.7429    9.8917   -3.2998 H   0  0  0  0  0  0  0  0  0  0  0  0
    8.5214   11.5971   -1.3487 H   0  0  0  0  0  0  0  0  0  0  0  0
  1  2  1  0
  2  3  1  0
  3  4  2  0
  4  5  1  0
  5  6  1  0
  6  7  2  0
  6  8  1  0
  8  9  1  0
  9 10  2  0
  3 11  1  0
 11 12  2  0
 12 13  1  0
 13 14  2  0
 14 15  1  0
 15 16  2  0
 16 17  1  0
 17 18  2  0
 18 19  1  0
 19 20  1  0
 20 21  1  0
 18 22  1  0
 22 23  1  0
 22 24  2  0
 14 25  1  0
 25 26  2  0
 26 27  1  0
 27 28  1  0
 28 29  2  0
 29 30  1  0
 30 31  2  0
 31 32  1  0
 32 33  1  0
 33 34  1  0
 31 35  1  0
 35 36  2  0
 35 37  1  0
 27 38  2  0
 38 39  1  0
 26 40  1  0
 40 41  2  0
 41 42  1  0
 41 43  1  0
 43 44  2  0
 44 45  1  0
 45 46  2  0
 46 47  1  0
 47 48  2  0
 48 49  1  0
 49 50  2  0
 50 51  1  0
 51 52  1  0
 52 53  1  0
 50 54  1  0
 54 55  1  0
 54 56  2  0
 46 57  1  0
 57 58  2  0
 58 59  1  0
 59 60  1  0
 60 61  2  0
 61 62  1  0
 62 63  2  0
 63 64  1  0
 64 65  1  0
 65 66  1  0
 63 67  1  0
 67 68  2  0
 67 69  1  0
 59 70  2  0
 70 71  1  0
 58 72  1  0
 72 73  2  0
 73 74  1  0
 73 75  1  0
 75 76  1  0
 76 77  1  0
 77 78  2  0
 78 79  1  0
 79 80  1  0
 80 81  2  0
 80 82  1  0
 82 83  1  0
 83 84  2  0
 77 85  1  0
 85 86  2  0
 86 87  1  0
 87 88  2  0
 88 89  1  0
 89 90  2  0
 90 91  1  0
 91 92  2  0
 92 93  1  0
 93 94  1  0
 94 95  1  0
 92 96  1  0
 96 97  1  0
 96 98  2  0
 88 99  1  0
 99100  2  0
100101  1  0
101102  1  0
102103  2  0
103104  1  0
104105  2  0
105106  1  0
106107  1  0
107108  1  0
105109  1  0
109110  2  0
109111  1  0
101112  2  0
112113  1  0
100114  1  0
114115  2  0
115116  1  0
115117  1  0
117118  2  0
118119  1  0
119120  2  0
120121  1  0
121122  2  0
122123  1  0
123124  2  0
124125  1  0
125126  1  0
126127  1  0
124128  1  0
128129  1  0
128130  2  0
120131  1  0
131132  2  0
132133  1  0
133134  1  0
134135  2  0
135136  1  0
136137  2  0
137138  1  0
138139  1  0
139140  1  0
137141  1  0
141142  2  0
141143  1  0
133144  2  0
144145  1  0
132146  1  0
146147  2  0
147148  1  0
  5  1  2  0
 39 11  1  0
 71 43  1  0
 79 75  2  0
113 85  1  0
145117  1  0
  9  4  1  0
 38 13  1  0
 70 45  1  0
 83 78  1  0
112 87  1  0
144119  1  0
 24 15  1  0
 42 25  1  0
 56 47  1  0
 74 57  1  0
 98 89  1  0
116 99  1  0
130121  1  0
148131  1  0
 36 28  1  0
 68 60  1  0
110102  1  0
142134  1  0
  1149  1  0
 12150  1  0
 16151  1  0
 17152  1  0
 20153  1  0
 20154  1  0
 21155  1  0
 21156  1  0
 21157  1  0
 24158  1  0
 29159  1  0
 30160  1  0
 33161  1  0
 33162  1  0
 34163  1  0
 34164  1  0
 34165  1  0
 36166  1  0
 40167  1  0
 44168  1  0
 48169  1  0
 49170  1  0
 52171  1  0
 52172  1  0
 53173  1  0
 53174  1  0
 53175  1  0
 56176  1  0
 61177  1  0
 62178  1  0
 65179  1  0
 65180  1  0
 66181  1  0
 66182  1  0
 66183  1  0
 68184  1  0
 72185  1  0
 86186  1  0
 90187  1  0
 91188  1  0
 94189  1  0
 94190  1  0
 95191  1  0
 95192  1  0
 95193  1  0
 98194  1  0
103195  1  0
104196  1  0
107197  1  0
107198  1  0
108199  1  0
108200  1  0
108201  1  0
110202  1  0
114203  1  0
118204  1  0
122205  1  0
123206  1  0
126207  1  0
126208  1  0
127209  1  0
127210  1  0
127211  1  0
130212  1  0
135213  1  0
136214  1  0
139215  1  0
139216  1  0
140217  1  0
140218  1  0
140219  1  0
142220  1  0
146221  1  0
147222  1  0
M  END

