
     RDKit          3D

170190  0  0  0  0  0  0  0  0999 V2000
    6.4679  -12.9364    6.9084 C   0  0  0  0  0  0  0  0  0  0  0  0
    6.7301  -11.6263    6.5186 C   0  0  0  0  0  0  0  0  0  0  0  0
    5.5682  -10.8486    6.3796 C   0  0  0  0  0  0  0  0  0  0  0  0
    5.5055   -9.5044    5.9592 C   0  0  0  0  0  0  0  0  0  0  0  0
    6.7079   -8.7343    5.5899 C   0  0  0  0  0  0  0  0  0  0  0  0
    6.9715   -8.0498    4.0744 S   0  0  0  0  0  0  0  0  0  0  0  0
    8.3986   -7.2603    4.4735 C   0  0  0  0  0  0  0  0  0  0  0  0
    9.1264   -6.3181    3.5621 C   0  0  0  0  0  0  0  0  0  0  0  0
    8.5654   -4.9052    3.6911 C   0  0  0  0  0  0  0  0  0  0  0  0
    8.6783   -7.5017    5.8185 C   0  0  0  0  0  0  0  0  0  0  0  0
   10.0436   -6.7897    6.6669 Cl  0  0  0  0  0  0  0  0  0  0  0  0
    7.7330   -8.3331    6.4430 C   0  0  0  0  0  0  0  0  0  0  0  0
    7.7882   -8.7406    8.1529 Cl  0  0  0  0  0  0  0  0  0  0  0  0
    4.2256   -8.9406    5.8340 C   0  0  0  0  0  0  0  0  0  0  0  0
    3.0504   -9.6573    6.0809 C   0  0  0  0  0  0  0  0  0  0  0  0
    3.1124  -10.9985    6.5091 C   0  0  0  0  0  0  0  0  0  0  0  0
    1.8971  -11.7911    6.7590 C   0  0  0  0  0  0  0  0  0  0  0  0
    0.7776  -12.2296    5.5820 S   0  0  0  0  0  0  0  0  0  0  0  0
   -0.2555  -13.0617    6.6170 C   0  0  0  0  0  0  0  0  0  0  0  0
   -1.5517  -13.6873    6.2038 C   0  0  0  0  0  0  0  0  0  0  0  0
   -2.7020  -12.6976    6.3461 C   0  0  0  0  0  0  0  0  0  0  0  0
    0.2579  -12.9883    7.9125 C   0  0  0  0  0  0  0  0  0  0  0  0
    1.4675  -12.2814    7.9906 C   0  0  0  0  0  0  0  0  0  0  0  0
    2.3180  -11.9886    9.5015 Cl  0  0  0  0  0  0  0  0  0  0  0  0
   -0.5400  -13.6924    9.3124 Cl  0  0  0  0  0  0  0  0  0  0  0  0
    4.3941  -11.5610    6.6532 C   0  0  0  0  0  0  0  0  0  0  0  0
    4.8015  -13.1404    7.0652 S   0  0  0  0  0  0  0  0  0  0  0  0
    1.8851   -8.9026    5.8534 C   0  0  0  0  0  0  0  0  0  0  0  0
    2.1609   -7.5992    5.4459 C   0  0  0  0  0  0  0  0  0  0  0  0
    3.8298   -7.3762    5.3672 S   0  0  0  0  0  0  0  0  0  0  0  0
    1.1792   -6.6021    5.0092 C   0  0  0  0  0  0  0  0  0  0  0  0
    1.4402   -5.2429    4.8694 C   0  0  0  0  0  0  0  0  0  0  0  0
    0.3960   -4.5479    4.2449 C   0  0  0  0  0  0  0  0  0  0  0  0
    0.3830   -3.1752    3.9336 C   0  0  0  0  0  0  0  0  0  0  0  0
    1.5180   -2.2876    4.2481 C   0  0  0  0  0  0  0  0  0  0  0  0
    1.4389   -0.9681    5.2876 S   0  0  0  0  0  0  0  0  0  0  0  0
    3.0411   -0.4896    5.0934 C   0  0  0  0  0  0  0  0  0  0  0  0
    3.6462    0.7278    5.7233 C   0  0  0  0  0  0  0  0  0  0  0  0
    3.4637    1.9466    4.8258 C   0  0  0  0  0  0  0  0  0  0  0  0
    3.6544   -1.3465    4.1806 C   0  0  0  0  0  0  0  0  0  0  0  0
    5.3232   -1.1682    3.6486 Cl  0  0  0  0  0  0  0  0  0  0  0  0
    2.8026   -2.3592    3.7112 C   0  0  0  0  0  0  0  0  0  0  0  0
    3.2902   -3.5496    2.5096 Cl  0  0  0  0  0  0  0  0  0  0  0  0
   -0.7466   -2.6915    3.2556 C   0  0  0  0  0  0  0  0  0  0  0  0
   -1.8113   -3.5120    2.8739 C   0  0  0  0  0  0  0  0  0  0  0  0
   -1.8091   -4.8828    3.2112 C   0  0  0  0  0  0  0  0  0  0  0  0
   -2.8959   -5.7874    2.7965 C   0  0  0  0  0  0  0  0  0  0  0  0
   -2.7272   -7.0365    1.6817 S   0  0  0  0  0  0  0  0  0  0  0  0
   -4.3406   -7.5122    1.7050 C   0  0  0  0  0  0  0  0  0  0  0  0
   -4.9258   -8.5735    0.8223 C   0  0  0  0  0  0  0  0  0  0  0  0
   -5.5063   -7.9563   -0.4451 C   0  0  0  0  0  0  0  0  0  0  0  0
   -5.0396   -6.6824    2.5805 C   0  0  0  0  0  0  0  0  0  0  0  0
   -4.2281   -5.7160    3.1939 C   0  0  0  0  0  0  0  0  0  0  0  0
   -4.8324   -4.5423    4.3564 Cl  0  0  0  0  0  0  0  0  0  0  0  0
   -6.7678   -6.8170    2.8758 Cl  0  0  0  0  0  0  0  0  0  0  0  0
   -0.6837   -5.3674    3.9000 C   0  0  0  0  0  0  0  0  0  0  0  0
   -0.3486   -6.9491    4.3778 S   0  0  0  0  0  0  0  0  0  0  0  0
   -2.7636   -2.8509    2.0753 C   0  0  0  0  0  0  0  0  0  0  0  0
   -2.4499   -1.5066    1.8399 C   0  0  0  0  0  0  0  0  0  0  0  0
   -0.9907   -1.1609    2.6214 S   0  0  0  0  0  0  0  0  0  0  0  0
   -3.1201   -0.5454    0.9322 C   0  0  0  0  0  0  0  0  0  0  0  0
   -2.3987    0.9053    0.4855 S   0  0  0  0  0  0  0  0  0  0  0  0
   -3.5475    1.3993   -0.6302 C   0  0  0  0  0  0  0  0  0  0  0  0
   -4.5512    0.4317   -0.6645 C   0  0  0  0  0  0  0  0  0  0  0  0
   -4.3062   -0.6661    0.1856 C   0  0  0  0  0  0  0  0  0  0  0  0
   -5.4169   -2.0636    0.2391 S   0  0  0  0  0  0  0  0  0  0  0  0
   -6.7206   -1.0119    0.8480 C   0  0  0  0  0  0  0  0  0  0  0  0
   -6.8458   -0.8186    2.0466 O   0  0  0  0  0  0  0  0  0  0  0  0
   -7.6561   -0.3790   -0.1318 C   0  0  0  0  0  0  0  0  0  0  0  0
   -7.0043    0.6202   -1.0586 C   0  0  0  0  0  0  0  0  0  0  0  0
   -7.7470    1.4888   -1.5887 O   0  0  0  0  0  0  0  0  0  0  0  0
   -5.6719    0.5522   -1.4960 O   0  0  0  0  0  0  0  0  0  0  0  0
   -3.4049    2.5927   -1.4840 C   0  0  0  0  0  0  0  0  0  0  0  0
   -2.2938    3.4367   -1.4756 C   0  0  0  0  0  0  0  0  0  0  0  0
   -2.3190    4.3926   -2.5018 C   0  0  0  0  0  0  0  0  0  0  0  0
   -1.2878    5.3010   -2.8106 C   0  0  0  0  0  0  0  0  0  0  0  0
   -0.0857    5.4292   -1.9669 C   0  0  0  0  0  0  0  0  0  0  0  0
    1.4766    5.0323   -2.4493 S   0  0  0  0  0  0  0  0  0  0  0  0
    2.2187    5.4287   -0.9904 C   0  0  0  0  0  0  0  0  0  0  0  0
    3.6772    5.2397   -0.6972 C   0  0  0  0  0  0  0  0  0  0  0  0
    3.9182    3.9125    0.0141 C   0  0  0  0  0  0  0  0  0  0  0  0
    1.2423    5.8660   -0.0967 C   0  0  0  0  0  0  0  0  0  0  0  0
    1.5867    6.3561    1.5575 Cl  0  0  0  0  0  0  0  0  0  0  0  0
   -0.0498    5.8674   -0.6461 C   0  0  0  0  0  0  0  0  0  0  0  0
   -1.4751    6.4007    0.2367 Cl  0  0  0  0  0  0  0  0  0  0  0  0
   -1.4481    6.0668   -3.9751 C   0  0  0  0  0  0  0  0  0  0  0  0
   -2.5875    5.9902   -4.7795 C   0  0  0  0  0  0  0  0  0  0  0  0
   -3.6349    5.1027   -4.4515 C   0  0  0  0  0  0  0  0  0  0  0  0
   -4.8365    4.9682   -5.2923 C   0  0  0  0  0  0  0  0  0  0  0  0
   -6.3954    5.3663   -4.8023 S   0  0  0  0  0  0  0  0  0  0  0  0
   -7.1409    4.9900   -6.2631 C   0  0  0  0  0  0  0  0  0  0  0  0
   -8.6165    5.0737   -6.5110 C   0  0  0  0  0  0  0  0  0  0  0  0
   -9.3066    3.7757   -6.1111 C   0  0  0  0  0  0  0  0  0  0  0  0
   -6.1742    4.5176   -7.1504 C   0  0  0  0  0  0  0  0  0  0  0  0
   -4.8803    4.5121   -6.6081 C   0  0  0  0  0  0  0  0  0  0  0  0
   -3.4679    3.9365   -7.4854 Cl  0  0  0  0  0  0  0  0  0  0  0  0
   -6.5351    3.9719   -8.7827 Cl  0  0  0  0  0  0  0  0  0  0  0  0
   -3.4606    4.3091   -3.3052 C   0  0  0  0  0  0  0  0  0  0  0  0
   -4.4279    3.0458   -2.7521 S   0  0  0  0  0  0  0  0  0  0  0  0
   -2.5418    6.8504   -5.8900 C   0  0  0  0  0  0  0  0  0  0  0  0
   -1.3428    7.5656   -5.9866 C   0  0  0  0  0  0  0  0  0  0  0  0
   -0.3789    7.1686   -4.6541 S   0  0  0  0  0  0  0  0  0  0  0  0
   -0.9109    8.4908   -7.0599 C   0  0  0  0  0  0  0  0  0  0  0  0
    0.5329    9.3562   -6.9940 S   0  0  0  0  0  0  0  0  0  0  0  0
    0.4306   10.0842   -8.5047 C   0  0  0  0  0  0  0  0  0  0  0  0
   -0.7686    9.6804   -9.0862 C   0  0  0  0  0  0  0  0  0  0  0  0
   -1.4996    8.7592   -8.3061 C   0  0  0  0  0  0  0  0  0  0  0  0
   -2.9749    7.9751   -8.9574 S   0  0  0  0  0  0  0  0  0  0  0  0
   -3.8706    9.5196   -8.8006 C   0  0  0  0  0  0  0  0  0  0  0  0
   -4.6963    9.6434   -7.9100 O   0  0  0  0  0  0  0  0  0  0  0  0
   -3.5798   10.6837   -9.7096 C   0  0  0  0  0  0  0  0  0  0  0  0
   -2.5029   10.3885  -10.7242 C   0  0  0  0  0  0  0  0  0  0  0  0
   -2.7870   10.4374  -11.9507 O   0  0  0  0  0  0  0  0  0  0  0  0
   -1.1748   10.1304  -10.3514 O   0  0  0  0  0  0  0  0  0  0  0  0
    1.4021   11.0399   -9.0721 C   0  0  0  0  0  0  0  0  0  0  0  0
    1.0091   12.2840  -10.1374 S   0  0  0  0  0  0  0  0  0  0  0  0
    2.5639   12.8881  -10.3348 C   0  0  0  0  0  0  0  0  0  0  0  0
    3.4213   12.1251   -9.5555 C   0  0  0  0  0  0  0  0  0  0  0  0
    2.7838   11.0753   -8.8675 C   0  0  0  0  0  0  0  0  0  0  0  0
    3.7082    9.8525   -7.9382 S   0  0  0  0  0  0  0  0  0  0  0  0
    4.1044   11.0782   -6.6929 C   0  0  0  0  0  0  0  0  0  0  0  0
    3.5419   11.0312   -5.6099 O   0  0  0  0  0  0  0  0  0  0  0  0
    5.0760   12.1901   -6.9768 C   0  0  0  0  0  0  0  0  0  0  0  0
    5.6175   12.1715   -8.3849 C   0  0  0  0  0  0  0  0  0  0  0  0
    6.8573   12.0332   -8.5605 O   0  0  0  0  0  0  0  0  0  0  0  0
    4.7979   12.3860   -9.5044 O   0  0  0  0  0  0  0  0  0  0  0  0
    7.2137  -13.7036    7.0659 H   0  0  0  0  0  0  0  0  0  0  0  0
    7.7312  -11.2621    6.3283 H   0  0  0  0  0  0  0  0  0  0  0  0
   10.2097   -6.3120    3.8032 H   0  0  0  0  0  0  0  0  0  0  0  0
    9.0121   -6.6592    2.5108 H   0  0  0  0  0  0  0  0  0  0  0  0
    8.6855   -4.5360    4.7325 H   0  0  0  0  0  0  0  0  0  0  0  0
    9.1125   -4.2207    3.0081 H   0  0  0  0  0  0  0  0  0  0  0  0
    7.4876   -4.8886    3.4184 H   0  0  0  0  0  0  0  0  0  0  0  0
   -1.7552  -14.5855    6.8263 H   0  0  0  0  0  0  0  0  0  0  0  0
   -1.4772  -14.0195    5.1456 H   0  0  0  0  0  0  0  0  0  0  0  0
   -3.6499  -13.1829    6.0337 H   0  0  0  0  0  0  0  0  0  0  0  0
   -2.5281  -11.8108    5.7014 H   0  0  0  0  0  0  0  0  0  0  0  0
   -2.8042  -12.3689    7.4024 H   0  0  0  0  0  0  0  0  0  0  0  0
    0.8806   -9.2837    5.9715 H   0  0  0  0  0  0  0  0  0  0  0  0
    2.3693   -4.7831    5.1840 H   0  0  0  0  0  0  0  0  0  0  0  0
    4.7273    0.5602    5.9099 H   0  0  0  0  0  0  0  0  0  0  0  0
    3.1569    0.9167    6.7023 H   0  0  0  0  0  0  0  0  0  0  0  0
    3.9683    1.7869    3.8495 H   0  0  0  0  0  0  0  0  0  0  0  0
    2.3838    2.1397    4.6545 H   0  0  0  0  0  0  0  0  0  0  0  0
    3.9118    2.8363    5.3142 H   0  0  0  0  0  0  0  0  0  0  0  0
   -5.7215   -9.1227    1.3701 H   0  0  0  0  0  0  0  0  0  0  0  0
   -4.1350   -9.3024    0.5461 H   0  0  0  0  0  0  0  0  0  0  0  0
   -6.3172   -7.2427   -0.1896 H   0  0  0  0  0  0  0  0  0  0  0  0
   -5.9295   -8.7568   -1.0868 H   0  0  0  0  0  0  0  0  0  0  0  0
   -4.7137   -7.4229   -1.0137 H   0  0  0  0  0  0  0  0  0  0  0  0
   -3.6064   -3.3653    1.6458 H   0  0  0  0  0  0  0  0  0  0  0  0
   -8.1155   -1.1816   -0.7463 H   0  0  0  0  0  0  0  0  0  0  0  0
   -8.4814    0.1245    0.4192 H   0  0  0  0  0  0  0  0  0  0  0  0
   -1.4661    3.3215   -0.7876 H   0  0  0  0  0  0  0  0  0  0  0  0
    4.2487    5.2551   -1.6496 H   0  0  0  0  0  0  0  0  0  0  0  0
    4.0460    6.0749   -0.0646 H   0  0  0  0  0  0  0  0  0  0  0  0
    3.4017    3.9010    0.9967 H   0  0  0  0  0  0  0  0  0  0  0  0
    3.5436    3.0697   -0.6045 H   0  0  0  0  0  0  0  0  0  0  0  0
    5.0071    3.7745    0.1835 H   0  0  0  0  0  0  0  0  0  0  0  0
   -9.0400    5.9126   -5.9202 H   0  0  0  0  0  0  0  0  0  0  0  0
   -8.8123    5.2824   -7.5845 H   0  0  0  0  0  0  0  0  0  0  0  0
   -8.8994    2.9240   -6.6975 H   0  0  0  0  0  0  0  0  0  0  0  0
  -10.3953    3.8561   -6.3123 H   0  0  0  0  0  0  0  0  0  0  0  0
   -9.1586    3.5795   -5.0273 H   0  0  0  0  0  0  0  0  0  0  0  0
   -3.3626    6.9388   -6.5793 H   0  0  0  0  0  0  0  0  0  0  0  0
   -3.2508   11.5464   -9.0912 H   0  0  0  0  0  0  0  0  0  0  0  0
   -4.5177   10.9734  -10.2315 H   0  0  0  0  0  0  0  0  0  0  0  0
    2.8457   13.7316  -10.9493 H   0  0  0  0  0  0  0  0  0  0  0  0
    5.9146   12.1239   -6.2513 H   0  0  0  0  0  0  0  0  0  0  0  0
    4.5647   13.1632   -6.8144 H   0  0  0  0  0  0  0  0  0  0  0  0
  1  2  2  0
  2  3  1  0
  3  4  2  0
  4  5  1  0
  5  6  1  0
  6  7  1  0
  7  8  1  0
  8  9  1  0
  7 10  2  0
 10 11  1  0
 10 12  1  0
 12 13  1  0
  4 14  1  0
 14 15  2  0
 15 16  1  0
 16 17  1  0
 17 18  1  0
 18 19  1  0
 19 20  1  0
 20 21  1  0
 19 22  2  0
 22 23  1  0
 23 24  1  0
 22 25  1  0
 16 26  2  0
 26 27  1  0
 15 28  1  0
 28 29  2  0
 29 30  1  0
 29 31  1  0
 31 32  2  0
 32 33  1  0
 33 34  2  0
 34 35  1  0
 35 36  1  0
 36 37  1  0
 37 38  1  0
 38 39  1  0
 37 40  2  0
 40 41  1  0
 40 42  1  0
 42 43  1  0
 34 44  1  0
 44 45  2  0
 45 46  1  0
 46 47  1  0
 47 48  1  0
 48 49  1  0
 49 50  1  0
 50 51  1  0
 49 52  2  0
 52 53  1  0
 53 54  1  0
 52 55  1  0
 46 56  2  0
 56 57  1  0
 45 58  1  0
 58 59  2  0
 59 60  1  0
 59 61  1  0
 61 62  1  0
 62 63  1  0
 63 64  2  0
 64 65  1  0
 65 66  1  0
 66 67  1  0
 67 68  2  0
 67 69  1  0
 69 70  1  0
 70 71  2  0
 70 72  1  0
 63 73  1  0
 73 74  2  0
 74 75  1  0
 75 76  2  0
 76 77  1  0
 77 78  1  0
 78 79  1  0
 79 80  1  0
 80 81  1  0
 79 82  2  0
 82 83  1  0
 82 84  1  0
 84 85  1  0
 76 86  1  0
 86 87  2  0
 87 88  1  0
 88 89  1  0
 89 90  1  0
 90 91  1  0
 91 92  1  0
 92 93  1  0
 91 94  2  0
 94 95  1  0
 95 96  1  0
 94 97  1  0
 88 98  2  0
 98 99  1  0
 87100  1  0
100101  2  0
101102  1  0
101103  1  0
103104  1  0
104105  1  0
105106  2  0
106107  1  0
107108  1  0
108109  1  0
109110  2  0
109111  1  0
111112  1  0
112113  2  0
112114  1  0
105115  1  0
115116  1  0
116117  1  0
117118  2  0
118119  1  0
119120  1  0
120121  1  0
121122  2  0
121123  1  0
123124  1  0
124125  2  0
124126  1  0
 27  1  1  0
 57 31  1  0
 65 61  2  0
 99 73  1  0
107103  2  0
119115  2  0
 26  3  1  0
 56 33  1  0
 72 64  1  0
 98 75  1  0
114106  1  0
126118  1  0
 12  5  2  0
 30 14  1  0
 42 35  2  0
 60 44  1  0
 84 77  2  0
102 86  1  0
 23 17  2  0
 53 47  2  0
 95 89  2  0
  1127  1  0
  2128  1  0
  8129  1  0
  8130  1  0
  9131  1  0
  9132  1  0
  9133  1  0
 20134  1  0
 20135  1  0
 21136  1  0
 21137  1  0
 21138  1  0
 28139  1  0
 32140  1  0
 38141  1  0
 38142  1  0
 39143  1  0
 39144  1  0
 39145  1  0
 50146  1  0
 50147  1  0
 51148  1  0
 51149  1  0
 51150  1  0
 58151  1  0
 69152  1  0
 69153  1  0
 74154  1  0
 80155  1  0
 80156  1  0
 81157  1  0
 81158  1  0
 81159  1  0
 92160  1  0
 92161  1  0
 93162  1  0
 93163  1  0
 93164  1  0
100165  1  0
111166  1  0
111167  1  0
117168  1  0
123169  1  0
123170  1  0
M  END

