
     RDKit          3D

223248  0  0  0  0  0  0  0  0999 V2000
    0.1282   -7.3988    9.6141 C   0  0  0  0  0  0  0  0  0  0  0  0
    0.4868   -8.0261    8.4246 C   0  0  0  0  0  0  0  0  0  0  0  0
   -0.3627   -7.7054    7.3525 C   0  0  0  0  0  0  0  0  0  0  0  0
   -0.2423   -8.1611    6.0244 C   0  0  0  0  0  0  0  0  0  0  0  0
    0.8732   -9.0209    5.5859 C   0  0  0  0  0  0  0  0  0  0  0  0
    0.7039  -10.5674    4.9449 S   0  0  0  0  0  0  0  0  0  0  0  0
    2.3381  -10.8151    4.6351 C   0  0  0  0  0  0  0  0  0  0  0  0
    2.9013  -12.0284    3.9576 C   0  0  0  0  0  0  0  0  0  0  0  0
    2.8780  -11.8582    2.4431 C   0  0  0  0  0  0  0  0  0  0  0  0
    3.0405   -9.6687    5.0038 C   0  0  0  0  0  0  0  0  0  0  0  0
    4.7749   -9.4798    4.7831 Cl  0  0  0  0  0  0  0  0  0  0  0  0
    2.2204   -8.6648    5.5429 C   0  0  0  0  0  0  0  0  0  0  0  0
    2.8238   -7.0848    6.0277 Cl  0  0  0  0  0  0  0  0  0  0  0  0
   -1.2188   -7.7275    5.1126 C   0  0  0  0  0  0  0  0  0  0  0  0
   -2.2589   -6.8633    5.4730 C   0  0  0  0  0  0  0  0  0  0  0  0
   -2.3634   -6.3828    6.7954 C   0  0  0  0  0  0  0  0  0  0  0  0
   -3.3924   -5.4047    7.1959 C   0  0  0  0  0  0  0  0  0  0  0  0
   -4.5409   -5.6522    8.4017 S   0  0  0  0  0  0  0  0  0  0  0  0
   -5.2427   -4.1270    8.3029 C   0  0  0  0  0  0  0  0  0  0  0  0
   -6.3269   -3.6312    9.2119 C   0  0  0  0  0  0  0  0  0  0  0  0
   -5.7311   -2.9828   10.4561 C   0  0  0  0  0  0  0  0  0  0  0  0
   -4.5623   -3.3854    7.3386 C   0  0  0  0  0  0  0  0  0  0  0  0
   -3.5291   -4.1032    6.7125 C   0  0  0  0  0  0  0  0  0  0  0  0
   -2.4547   -3.3923    5.5120 Cl  0  0  0  0  0  0  0  0  0  0  0  0
   -4.9278   -1.7061    6.9668 Cl  0  0  0  0  0  0  0  0  0  0  0  0
   -1.4024   -6.8421    7.7142 C   0  0  0  0  0  0  0  0  0  0  0  0
   -1.2438   -6.4545    9.3450 S   0  0  0  0  0  0  0  0  0  0  0  0
   -3.1052   -6.5427    4.3979 C   0  0  0  0  0  0  0  0  0  0  0  0
   -2.7015   -7.1255    3.1968 C   0  0  0  0  0  0  0  0  0  0  0  0
   -1.3151   -8.0503    3.4652 S   0  0  0  0  0  0  0  0  0  0  0  0
   -3.2973   -6.8715    1.8777 C   0  0  0  0  0  0  0  0  0  0  0  0
   -2.7060   -7.1856    0.6563 C   0  0  0  0  0  0  0  0  0  0  0  0
   -3.4087   -6.6713   -0.4452 C   0  0  0  0  0  0  0  0  0  0  0  0
   -3.0264   -6.7689   -1.8000 C   0  0  0  0  0  0  0  0  0  0  0  0
   -1.7484   -7.3856   -2.2156 C   0  0  0  0  0  0  0  0  0  0  0  0
   -1.6071   -8.6169   -3.3561 S   0  0  0  0  0  0  0  0  0  0  0  0
    0.0705   -8.7301   -3.3018 C   0  0  0  0  0  0  0  0  0  0  0  0
    0.8945   -9.6233   -4.1778 C   0  0  0  0  0  0  0  0  0  0  0  0
    1.3167   -8.8927   -5.4483 C   0  0  0  0  0  0  0  0  0  0  0  0
    0.5513   -7.7801   -2.4032 C   0  0  0  0  0  0  0  0  0  0  0  0
    2.2632   -7.5219   -2.0907 Cl  0  0  0  0  0  0  0  0  0  0  0  0
   -0.4645   -7.0298   -1.7900 C   0  0  0  0  0  0  0  0  0  0  0  0
   -0.1239   -5.7132   -0.6695 Cl  0  0  0  0  0  0  0  0  0  0  0  0
   -3.8992   -6.1919   -2.7429 C   0  0  0  0  0  0  0  0  0  0  0  0
   -5.0752   -5.5253   -2.3776 C   0  0  0  0  0  0  0  0  0  0  0  0
   -5.4473   -5.4217   -1.0219 C   0  0  0  0  0  0  0  0  0  0  0  0
   -6.7162   -4.7921   -0.6115 C   0  0  0  0  0  0  0  0  0  0  0  0
   -8.2337   -5.3877   -1.0270 S   0  0  0  0  0  0  0  0  0  0  0  0
   -9.1199   -4.2449   -0.1722 C   0  0  0  0  0  0  0  0  0  0  0  0
  -10.6118   -4.2590   -0.0324 C   0  0  0  0  0  0  0  0  0  0  0  0
  -11.0265   -5.0112    1.2267 C   0  0  0  0  0  0  0  0  0  0  0  0
   -8.2326   -3.3849    0.4742 C   0  0  0  0  0  0  0  0  0  0  0  0
   -6.8842   -3.6857    0.2241 C   0  0  0  0  0  0  0  0  0  0  0  0
   -5.5565   -2.7379    0.8819 Cl  0  0  0  0  0  0  0  0  0  0  0  0
   -8.7452   -2.0637    1.5151 Cl  0  0  0  0  0  0  0  0  0  0  0  0
   -4.5814   -6.0002   -0.0797 C   0  0  0  0  0  0  0  0  0  0  0  0
   -4.7234   -6.0137    1.5983 S   0  0  0  0  0  0  0  0  0  0  0  0
   -5.7403   -4.9337   -3.4663 C   0  0  0  0  0  0  0  0  0  0  0  0
   -5.0872   -5.1391   -4.6841 C   0  0  0  0  0  0  0  0  0  0  0  0
   -3.6927   -6.0503   -4.4066 S   0  0  0  0  0  0  0  0  0  0  0  0
   -5.4630   -4.5689   -5.9918 C   0  0  0  0  0  0  0  0  0  0  0  0
   -4.7492   -4.9899   -7.4627 S   0  0  0  0  0  0  0  0  0  0  0  0
   -5.5144   -3.8142   -8.3891 C   0  0  0  0  0  0  0  0  0  0  0  0
   -6.3549   -3.0788   -7.5603 C   0  0  0  0  0  0  0  0  0  0  0  0
   -6.3236   -3.4945   -6.2237 C   0  0  0  0  0  0  0  0  0  0  0  0
   -7.0092   -2.8438   -5.2512 F   0  0  0  0  0  0  0  0  0  0  0  0
   -7.0724   -2.0100   -7.9852 F   0  0  0  0  0  0  0  0  0  0  0  0
   -5.1826   -3.5058   -9.7890 C   0  0  0  0  0  0  0  0  0  0  0  0
   -4.5978   -2.3677  -10.2025 C   0  0  0  0  0  0  0  0  0  0  0  0
   -4.0765   -1.2921   -9.3287 C   0  0  0  0  0  0  0  0  0  0  0  0
   -3.6909   -1.3979   -7.9931 C   0  0  0  0  0  0  0  0  0  0  0  0
   -3.2548   -0.1900   -7.4440 C   0  0  0  0  0  0  0  0  0  0  0  0
   -2.8656    0.0018   -6.1108 C   0  0  0  0  0  0  0  0  0  0  0  0
   -2.7582   -1.1139   -5.1539 C   0  0  0  0  0  0  0  0  0  0  0  0
   -3.5540   -1.1923   -3.6734 S   0  0  0  0  0  0  0  0  0  0  0  0
   -2.6876   -2.5040   -3.0740 C   0  0  0  0  0  0  0  0  0  0  0  0
   -2.7982   -3.0048   -1.6683 C   0  0  0  0  0  0  0  0  0  0  0  0
   -2.0299   -2.1072   -0.7081 C   0  0  0  0  0  0  0  0  0  0  0  0
   -1.7442   -2.8870   -4.0259 C   0  0  0  0  0  0  0  0  0  0  0  0
   -0.5530   -4.1529   -3.7708 Cl  0  0  0  0  0  0  0  0  0  0  0  0
   -1.7878   -2.1118   -5.1921 C   0  0  0  0  0  0  0  0  0  0  0  0
   -0.6423   -2.2983   -6.5150 Cl  0  0  0  0  0  0  0  0  0  0  0  0
   -2.4802    1.2970   -5.7468 C   0  0  0  0  0  0  0  0  0  0  0  0
   -2.3869    2.3527   -6.6594 C   0  0  0  0  0  0  0  0  0  0  0  0
   -2.7602    2.1524   -8.0083 C   0  0  0  0  0  0  0  0  0  0  0  0
   -2.5686    3.1940   -9.0296 C   0  0  0  0  0  0  0  0  0  0  0  0
   -1.0633    3.7327   -9.5483 S   0  0  0  0  0  0  0  0  0  0  0  0
   -1.6402    4.7326  -10.7725 C   0  0  0  0  0  0  0  0  0  0  0  0
   -0.7698    5.4607  -11.7504 C   0  0  0  0  0  0  0  0  0  0  0  0
   -0.4620    4.5798  -12.9556 C   0  0  0  0  0  0  0  0  0  0  0  0
   -3.0315    4.6367  -10.8053 C   0  0  0  0  0  0  0  0  0  0  0  0
   -3.5524    3.7780   -9.8235 C   0  0  0  0  0  0  0  0  0  0  0  0
   -5.2725    3.4861   -9.6087 Cl  0  0  0  0  0  0  0  0  0  0  0  0
   -4.0364    5.4718  -11.9827 Cl  0  0  0  0  0  0  0  0  0  0  0  0
   -3.2273    0.8665   -8.3569 C   0  0  0  0  0  0  0  0  0  0  0  0
   -3.7664    0.2895   -9.8476 S   0  0  0  0  0  0  0  0  0  0  0  0
   -1.8958    3.5401   -6.0749 C   0  0  0  0  0  0  0  0  0  0  0  0
   -1.6494    3.3976   -4.7056 C   0  0  0  0  0  0  0  0  0  0  0  0
   -1.9885    1.8174   -4.2382 S   0  0  0  0  0  0  0  0  0  0  0  0
   -1.0527    4.3666   -3.7801 C   0  0  0  0  0  0  0  0  0  0  0  0
   -1.1434    4.2255   -2.3989 C   0  0  0  0  0  0  0  0  0  0  0  0
   -0.1458    4.9110   -1.7009 C   0  0  0  0  0  0  0  0  0  0  0  0
    0.1343    4.7798   -0.3267 C   0  0  0  0  0  0  0  0  0  0  0  0
   -0.6923    3.9459    0.5743 C   0  0  0  0  0  0  0  0  0  0  0  0
   -0.9855    2.2970    0.3808 S   0  0  0  0  0  0  0  0  0  0  0  0
   -1.9511    2.1191    1.7459 C   0  0  0  0  0  0  0  0  0  0  0  0
   -2.5666    0.8269    2.1958 C   0  0  0  0  0  0  0  0  0  0  0  0
   -1.6327    0.0795    3.1392 C   0  0  0  0  0  0  0  0  0  0  0  0
   -2.0315    3.3480    2.3958 C   0  0  0  0  0  0  0  0  0  0  0  0
   -2.9159    3.5960    3.8944 Cl  0  0  0  0  0  0  0  0  0  0  0  0
   -1.3317    4.3723    1.7377 C   0  0  0  0  0  0  0  0  0  0  0  0
   -1.3132    6.0393    2.3020 Cl  0  0  0  0  0  0  0  0  0  0  0  0
    1.3052    5.3985    0.1364 C   0  0  0  0  0  0  0  0  0  0  0  0
    2.1357    6.1686   -0.6872 C   0  0  0  0  0  0  0  0  0  0  0  0
    1.8257    6.3389   -2.0548 C   0  0  0  0  0  0  0  0  0  0  0  0
    2.7181    7.0637   -2.9770 C   0  0  0  0  0  0  0  0  0  0  0  0
    4.3000    6.6165   -3.3367 S   0  0  0  0  0  0  0  0  0  0  0  0
    4.5838    7.8447   -4.4509 C   0  0  0  0  0  0  0  0  0  0  0  0
    5.8876    8.0712   -5.1526 C   0  0  0  0  0  0  0  0  0  0  0  0
    6.7764    9.0150   -4.3524 C   0  0  0  0  0  0  0  0  0  0  0  0
    3.4394    8.6341   -4.5462 C   0  0  0  0  0  0  0  0  0  0  0  0
    2.3885    8.1895   -3.7284 C   0  0  0  0  0  0  0  0  0  0  0  0
    0.8313    9.0011   -3.6284 Cl  0  0  0  0  0  0  0  0  0  0  0  0
    3.3212   10.0520   -5.5782 Cl  0  0  0  0  0  0  0  0  0  0  0  0
    0.6849    5.6680   -2.5355 C   0  0  0  0  0  0  0  0  0  0  0  0
    0.2218    5.4148   -4.1431 S   0  0  0  0  0  0  0  0  0  0  0  0
    3.2943    6.6214   -0.0289 C   0  0  0  0  0  0  0  0  0  0  0  0
    3.3922    6.1408    1.2751 C   0  0  0  0  0  0  0  0  0  0  0  0
    2.0424    5.2001    1.6334 S   0  0  0  0  0  0  0  0  0  0  0  0
    4.5714    6.2382    2.1372 C   0  0  0  0  0  0  0  0  0  0  0  0
    5.1127    5.1743    2.8502 C   0  0  0  0  0  0  0  0  0  0  0  0
    6.2471    5.5354    3.5893 C   0  0  0  0  0  0  0  0  0  0  0  0
    7.0353    4.6719    4.3756 C   0  0  0  0  0  0  0  0  0  0  0  0
    6.7880    3.2203    4.4160 C   0  0  0  0  0  0  0  0  0  0  0  0
    6.2040    2.3757    5.7481 S   0  0  0  0  0  0  0  0  0  0  0  0
    6.1499    0.8709    4.9933 C   0  0  0  0  0  0  0  0  0  0  0  0
    5.6047   -0.3767    5.6219 C   0  0  0  0  0  0  0  0  0  0  0  0
    4.1359   -0.5668    5.2595 C   0  0  0  0  0  0  0  0  0  0  0  0
    6.5777    1.0167    3.6743 C   0  0  0  0  0  0  0  0  0  0  0  0
    6.6456   -0.3109    2.5225 Cl  0  0  0  0  0  0  0  0  0  0  0  0
    6.9371    2.3342    3.3509 C   0  0  0  0  0  0  0  0  0  0  0  0
    7.5272    2.8148    1.7646 Cl  0  0  0  0  0  0  0  0  0  0  0  0
    8.0996    5.2516    5.0806 C   0  0  0  0  0  0  0  0  0  0  0  0
    8.4038    6.6141    5.0005 C   0  0  0  0  0  0  0  0  0  0  0  0
    7.6367    7.4723    4.1825 C   0  0  0  0  0  0  0  0  0  0  0  0
    7.9147    8.9165    4.0873 C   0  0  0  0  0  0  0  0  0  0  0  0
    6.8613   10.1284    4.5890 S   0  0  0  0  0  0  0  0  0  0  0  0
    7.8677   11.4178    4.1953 C   0  0  0  0  0  0  0  0  0  0  0  0
    7.4926   12.8615    4.3395 C   0  0  0  0  0  0  0  0  0  0  0  0
    6.8218   13.3725    3.0704 C   0  0  0  0  0  0  0  0  0  0  0  0
    9.0410   10.9126    3.6368 C   0  0  0  0  0  0  0  0  0  0  0  0
    9.0711    9.5094    3.5831 C   0  0  0  0  0  0  0  0  0  0  0  0
   10.4074    8.5981    2.8902 Cl  0  0  0  0  0  0  0  0  0  0  0  0
   10.3493   11.9284    3.0451 Cl  0  0  0  0  0  0  0  0  0  0  0  0
    6.5605    6.8944    3.4874 C   0  0  0  0  0  0  0  0  0  0  0  0
    5.4767    7.6337    2.4252 S   0  0  0  0  0  0  0  0  0  0  0  0
    9.4973    6.9788    5.8043 C   0  0  0  0  0  0  0  0  0  0  0  0
   10.0611    5.9027    6.4836 C   0  0  0  0  0  0  0  0  0  0  0  0
    9.1985    4.5017    6.1092 S   0  0  0  0  0  0  0  0  0  0  0  0
    0.6471   -7.5006   10.5573 H   0  0  0  0  0  0  0  0  0  0  0  0
    1.3396   -8.6884    8.3468 H   0  0  0  0  0  0  0  0  0  0  0  0
    2.3010  -12.9207    4.2377 H   0  0  0  0  0  0  0  0  0  0  0  0
    3.9440  -12.2044    4.2960 H   0  0  0  0  0  0  0  0  0  0  0  0
    1.8319  -11.7469    2.0849 H   0  0  0  0  0  0  0  0  0  0  0  0
    3.4637  -10.9618    2.1465 H   0  0  0  0  0  0  0  0  0  0  0  0
    3.3279  -12.7510    1.9629 H   0  0  0  0  0  0  0  0  0  0  0  0
   -6.9700   -4.4855    9.5174 H   0  0  0  0  0  0  0  0  0  0  0  0
   -6.9649   -2.8949    8.6775 H   0  0  0  0  0  0  0  0  0  0  0  0
   -5.1196   -3.7206   11.0189 H   0  0  0  0  0  0  0  0  0  0  0  0
   -6.5484   -2.6228   11.1154 H   0  0  0  0  0  0  0  0  0  0  0  0
   -5.0939   -2.1171   10.1745 H   0  0  0  0  0  0  0  0  0  0  0  0
   -3.9583   -5.8806    4.4776 H   0  0  0  0  0  0  0  0  0  0  0  0
   -1.7807   -7.7407    0.5760 H   0  0  0  0  0  0  0  0  0  0  0  0
    0.3016  -10.5209   -4.4520 H   0  0  0  0  0  0  0  0  0  0  0  0
    1.7980   -9.9653   -3.6289 H   0  0  0  0  0  0  0  0  0  0  0  0
    1.9287   -8.0010   -5.1956 H   0  0  0  0  0  0  0  0  0  0  0  0
    0.4216   -8.5713   -6.0224 H   0  0  0  0  0  0  0  0  0  0  0  0
    1.9233   -9.5710   -6.0829 H   0  0  0  0  0  0  0  0  0  0  0  0
  -11.0584   -4.7557   -0.9204 H   0  0  0  0  0  0  0  0  0  0  0  0
  -10.9982   -3.2194    0.0094 H   0  0  0  0  0  0  0  0  0  0  0  0
  -10.6400   -6.0527    1.1980 H   0  0  0  0  0  0  0  0  0  0  0  0
  -12.1336   -5.0462    1.2929 H   0  0  0  0  0  0  0  0  0  0  0  0
  -10.6321   -4.5007    2.1309 H   0  0  0  0  0  0  0  0  0  0  0  0
   -6.6482   -4.3553   -3.3647 H   0  0  0  0  0  0  0  0  0  0  0  0
   -5.4316   -4.2527  -10.5317 H   0  0  0  0  0  0  0  0  0  0  0  0
   -4.4825   -2.2231  -11.2698 H   0  0  0  0  0  0  0  0  0  0  0  0
   -3.6930   -2.3150   -7.4279 H   0  0  0  0  0  0  0  0  0  0  0  0
   -2.4047   -4.0372   -1.5933 H   0  0  0  0  0  0  0  0  0  0  0  0
   -3.8674   -3.0206   -1.3808 H   0  0  0  0  0  0  0  0  0  0  0  0
   -0.9448   -2.1221   -0.9515 H   0  0  0  0  0  0  0  0  0  0  0  0
   -2.1676   -2.4700    0.3321 H   0  0  0  0  0  0  0  0  0  0  0  0
   -2.4030   -1.0617   -0.7739 H   0  0  0  0  0  0  0  0  0  0  0  0
   -1.2705    6.3937  -12.0857 H   0  0  0  0  0  0  0  0  0  0  0  0
    0.1814    5.7458  -11.2526 H   0  0  0  0  0  0  0  0  0  0  0  0
    0.0650    3.6571  -12.6303 H   0  0  0  0  0  0  0  0  0  0  0  0
    0.1930    5.1316  -13.6618 H   0  0  0  0  0  0  0  0  0  0  0  0
   -1.3998    4.2996  -13.4824 H   0  0  0  0  0  0  0  0  0  0  0  0
   -1.7324    4.4633   -6.6171 H   0  0  0  0  0  0  0  0  0  0  0  0
   -1.8530    3.5586   -1.9290 H   0  0  0  0  0  0  0  0  0  0  0  0
   -2.7793    0.1923    1.3108 H   0  0  0  0  0  0  0  0  0  0  0  0
   -3.5323    1.0249    2.7082 H   0  0  0  0  0  0  0  0  0  0  0  0
   -0.6757   -0.1555    2.6285 H   0  0  0  0  0  0  0  0  0  0  0  0
   -2.1096   -0.8724    3.4523 H   0  0  0  0  0  0  0  0  0  0  0  0
   -1.4260    0.6885    4.0441 H   0  0  0  0  0  0  0  0  0  0  0  0
    6.4097    7.0996   -5.2805 H   0  0  0  0  0  0  0  0  0  0  0  0
    5.7071    8.4960   -6.1628 H   0  0  0  0  0  0  0  0  0  0  0  0
    6.2831   10.0022   -4.2326 H   0  0  0  0  0  0  0  0  0  0  0  0
    6.9846    8.5898   -3.3476 H   0  0  0  0  0  0  0  0  0  0  0  0
    7.7393    9.1612   -4.8844 H   0  0  0  0  0  0  0  0  0  0  0  0
    4.0715    7.2083   -0.4996 H   0  0  0  0  0  0  0  0  0  0  0  0
    4.7070    4.1703    2.8183 H   0  0  0  0  0  0  0  0  0  0  0  0
    5.7027   -0.3064    6.7259 H   0  0  0  0  0  0  0  0  0  0  0  0
    6.1899   -1.2578    5.2824 H   0  0  0  0  0  0  0  0  0  0  0  0
    4.0245   -0.7137    4.1637 H   0  0  0  0  0  0  0  0  0  0  0  0
    3.7359   -1.4609    5.7800 H   0  0  0  0  0  0  0  0  0  0  0  0
    3.5436    0.3204    5.5702 H   0  0  0  0  0  0  0  0  0  0  0  0
    8.3983   13.4688    4.5540 H   0  0  0  0  0  0  0  0  0  0  0  0
    6.7943   12.9758    5.1964 H   0  0  0  0  0  0  0  0  0  0  0  0
    7.5265   13.3127    2.2129 H   0  0  0  0  0  0  0  0  0  0  0  0
    5.9169   12.7688    2.8438 H   0  0  0  0  0  0  0  0  0  0  0  0
    6.5184   14.4295    3.2104 H   0  0  0  0  0  0  0  0  0  0  0  0
    9.8786    7.9871    5.8922 H   0  0  0  0  0  0  0  0  0  0  0  0
   10.9141    5.9581    7.1467 H   0  0  0  0  0  0  0  0  0  0  0  0
  1  2  2  0
  2  3  1  0
  3  4  2  0
  4  5  1  0
  5  6  1  0
  6  7  1  0
  7  8  1  0
  8  9  1  0
  7 10  2  0
 10 11  1  0
 10 12  1  0
 12 13  1  0
  4 14  1  0
 14 15  2  0
 15 16  1  0
 16 17  1  0
 17 18  1  0
 18 19  1  0
 19 20  1  0
 20 21  1  0
 19 22  2  0
 22 23  1  0
 23 24  1  0
 22 25  1  0
 16 26  2  0
 26 27  1  0
 15 28  1  0
 28 29  2  0
 29 30  1  0
 29 31  1  0
 31 32  2  0
 32 33  1  0
 33 34  2  0
 34 35  1  0
 35 36  1  0
 36 37  1  0
 37 38  1  0
 38 39  1  0
 37 40  2  0
 40 41  1  0
 40 42  1  0
 42 43  1  0
 34 44  1  0
 44 45  2  0
 45 46  1  0
 46 47  1  0
 47 48  1  0
 48 49  1  0
 49 50  1  0
 50 51  1  0
 49 52  2  0
 52 53  1  0
 53 54  1  0
 52 55  1  0
 46 56  2  0
 56 57  1  0
 45 58  1  0
 58 59  2  0
 59 60  1  0
 59 61  1  0
 61 62  1  0
 62 63  1  0
 63 64  2  0
 64 65  1  0
 65 66  1  0
 64 67  1  0
 63 68  1  0
 68 69  2  3
 69 70  1  0
 70 71  2  0
 71 72  1  0
 72 73  2  0
 73 74  1  0
 74 75  1  0
 75 76  1  0
 76 77  1  0
 77 78  1  0
 76 79  2  0
 79 80  1  0
 79 81  1  0
 81 82  1  0
 73 83  1  0
 83 84  2  0
 84 85  1  0
 85 86  1  0
 86 87  1  0
 87 88  1  0
 88 89  1  0
 89 90  1  0
 88 91  2  0
 91 92  1  0
 92 93  1  0
 91 94  1  0
 85 95  2  0
 95 96  1  0
 84 97  1  0
 97 98  2  0
 98 99  1  0
 98100  1  0
100101  2  0
101102  1  0
102103  2  0
103104  1  0
104105  1  0
105106  1  0
106107  1  0
107108  1  0
106109  2  0
109110  1  0
109111  1  0
111112  1  0
103113  1  0
113114  2  0
114115  1  0
115116  1  0
116117  1  0
117118  1  0
118119  1  0
119120  1  0
118121  2  0
121122  1  0
122123  1  0
121124  1  0
115125  2  0
125126  1  0
114127  1  0
127128  2  0
128129  1  0
128130  1  0
130131  2  0
131132  1  0
132133  2  0
133134  1  0
134135  1  0
135136  1  0
136137  1  0
137138  1  0
136139  2  0
139140  1  0
139141  1  0
141142  1  0
133143  1  0
143144  2  0
144145  1  0
145146  1  0
146147  1  0
147148  1  0
148149  1  0
149150  1  0
148151  2  0
151152  1  0
152153  1  0
151154  1  0
145155  2  0
155156  1  0
144157  1  0
157158  2  0
158159  1  0
 27  1  1  0
 57 31  1  0
 65 61  2  0
 96 70  1  0
126100  1  0
156130  1  0
 26  3  1  0
 56 33  1  0
 95 72  1  0
125102  1  0
155132  1  0
 12  5  2  0
 30 14  1  0
 42 35  2  0
 60 44  1  0
 81 74  2  0
 99 83  1  0
111104  2  0
129113  1  0
141134  2  0
159143  1  0
 23 17  2  0
 53 47  2  0
 92 86  2  0
122116  2  0
152146  2  0
  1160  1  0
  2161  1  0
  8162  1  0
  8163  1  0
  9164  1  0
  9165  1  0
  9166  1  0
 20167  1  0
 20168  1  0
 21169  1  0
 21170  1  0
 21171  1  0
 28172  1  0
 32173  1  0
 38174  1  0
 38175  1  0
 39176  1  0
 39177  1  0
 39178  1  0
 50179  1  0
 50180  1  0
 51181  1  0
 51182  1  0
 51183  1  0
 58184  1  0
 68185  1  0
 69186  1  0
 71187  1  0
 77188  1  0
 77189  1  0
 78190  1  0
 78191  1  0
 78192  1  0
 89193  1  0
 89194  1  0
 90195  1  0
 90196  1  0
 90197  1  0
 97198  1  0
101199  1  0
107200  1  0
107201  1  0
108202  1  0
108203  1  0
108204  1  0
119205  1  0
119206  1  0
120207  1  0
120208  1  0
120209  1  0
127210  1  0
131211  1  0
137212  1  0
137213  1  0
138214  1  0
138215  1  0
138216  1  0
149217  1  0
149218  1  0
150219  1  0
150220  1  0
150221  1  0
157222  1  0
158223  1  0
M  END

