
     RDKit          3D

226251  0  0  0  0  0  0  0  0999 V2000
    0.3231  -11.3963    9.9138 C   0  0  0  0  0  0  0  0  0  0  0  0
    1.0832  -10.4815    9.1935 C   0  0  0  0  0  0  0  0  0  0  0  0
    0.4157   -9.9764    8.0631 C   0  0  0  0  0  0  0  0  0  0  0  0
    0.9365   -9.0676    7.1214 C   0  0  0  0  0  0  0  0  0  0  0  0
    2.2883   -8.4959    7.2603 C   0  0  0  0  0  0  0  0  0  0  0  0
    2.7630   -7.4414    8.4787 S   0  0  0  0  0  0  0  0  0  0  0  0
    4.3596   -7.2931    7.9673 C   0  0  0  0  0  0  0  0  0  0  0  0
    5.3883   -6.4287    8.6389 C   0  0  0  0  0  0  0  0  0  0  0  0
    5.5621   -5.1072    7.8972 C   0  0  0  0  0  0  0  0  0  0  0  0
    4.5393   -8.0722    6.8230 C   0  0  0  0  0  0  0  0  0  0  0  0
    6.0727   -8.2139    5.9783 Cl  0  0  0  0  0  0  0  0  0  0  0  0
    3.3792   -8.7497    6.4292 C   0  0  0  0  0  0  0  0  0  0  0  0
    3.3169   -9.8554    5.0601 Cl  0  0  0  0  0  0  0  0  0  0  0  0
    0.1115   -8.7331    6.0342 C   0  0  0  0  0  0  0  0  0  0  0  0
   -1.1626   -9.2825    5.8613 C   0  0  0  0  0  0  0  0  0  0  0  0
   -1.6843  -10.1888    6.8066 C   0  0  0  0  0  0  0  0  0  0  0  0
   -3.0238  -10.7792    6.6462 C   0  0  0  0  0  0  0  0  0  0  0  0
   -3.4542  -11.8591    5.4320 S   0  0  0  0  0  0  0  0  0  0  0  0
   -5.0836  -11.9493    5.8454 C   0  0  0  0  0  0  0  0  0  0  0  0
   -6.0926  -12.7960    5.1290 C   0  0  0  0  0  0  0  0  0  0  0  0
   -6.3566  -14.0907    5.8902 C   0  0  0  0  0  0  0  0  0  0  0  0
   -5.3112  -11.1323    6.9538 C   0  0  0  0  0  0  0  0  0  0  0  0
   -4.1554  -10.4750    7.4025 C   0  0  0  0  0  0  0  0  0  0  0  0
   -4.1462   -9.3319    8.7422 Cl  0  0  0  0  0  0  0  0  0  0  0  0
   -6.8942  -10.9182    7.6908 Cl  0  0  0  0  0  0  0  0  0  0  0  0
   -0.8656  -10.5056    7.9037 C   0  0  0  0  0  0  0  0  0  0  0  0
   -1.1701  -11.5897    9.1517 S   0  0  0  0  0  0  0  0  0  0  0  0
   -1.8169   -8.8105    4.7142 C   0  0  0  0  0  0  0  0  0  0  0  0
   -1.0597   -7.8884    3.9954 C   0  0  0  0  0  0  0  0  0  0  0  0
    0.4187   -7.6548    4.7779 S   0  0  0  0  0  0  0  0  0  0  0  0
   -1.4590   -7.2599    2.7250 C   0  0  0  0  0  0  0  0  0  0  0  0
   -0.8063   -6.1928    2.1029 C   0  0  0  0  0  0  0  0  0  0  0  0
   -1.3641   -5.8616    0.8582 C   0  0  0  0  0  0  0  0  0  0  0  0
   -0.9229   -4.8393   -0.0120 C   0  0  0  0  0  0  0  0  0  0  0  0
    0.1398   -3.9025    0.3857 C   0  0  0  0  0  0  0  0  0  0  0  0
   -0.0763   -2.6454    1.4786 S   0  0  0  0  0  0  0  0  0  0  0  0
    1.5327   -2.1532    1.5025 C   0  0  0  0  0  0  0  0  0  0  0  0
    2.0729   -1.0608    2.3795 C   0  0  0  0  0  0  0  0  0  0  0  0
    2.5040   -1.6135    3.7305 C   0  0  0  0  0  0  0  0  0  0  0  0
    2.2696   -3.0005    0.6728 C   0  0  0  0  0  0  0  0  0  0  0  0
    4.0053   -2.8538    0.4413 Cl  0  0  0  0  0  0  0  0  0  0  0  0
    1.4859   -3.9801    0.0424 C   0  0  0  0  0  0  0  0  0  0  0  0
    2.1440   -5.2193   -1.0196 Cl  0  0  0  0  0  0  0  0  0  0  0  0
   -1.5812   -4.7217   -1.2504 C   0  0  0  0  0  0  0  0  0  0  0  0
   -2.6632   -5.5354   -1.6015 C   0  0  0  0  0  0  0  0  0  0  0  0
   -3.1306   -6.5337   -0.7174 C   0  0  0  0  0  0  0  0  0  0  0  0
   -4.2597   -7.4205   -1.0610 C   0  0  0  0  0  0  0  0  0  0  0  0
   -4.1300   -9.0758   -1.3313 S   0  0  0  0  0  0  0  0  0  0  0  0
   -5.7596   -9.3240   -1.6871 C   0  0  0  0  0  0  0  0  0  0  0  0
   -6.3425  -10.6393   -2.1091 C   0  0  0  0  0  0  0  0  0  0  0  0
   -6.3916  -10.7493   -3.6272 C   0  0  0  0  0  0  0  0  0  0  0  0
   -6.4246   -8.0993   -1.6196 C   0  0  0  0  0  0  0  0  0  0  0  0
   -5.5850   -7.0339   -1.2625 C   0  0  0  0  0  0  0  0  0  0  0  0
   -6.1513   -5.3823   -1.0647 Cl  0  0  0  0  0  0  0  0  0  0  0  0
   -8.1399   -7.9083   -1.9569 Cl  0  0  0  0  0  0  0  0  0  0  0  0
   -2.4443   -6.6738    0.5025 C   0  0  0  0  0  0  0  0  0  0  0  0
   -2.7293   -7.7836    1.7390 S   0  0  0  0  0  0  0  0  0  0  0  0
   -3.1642   -5.2613   -2.8813 C   0  0  0  0  0  0  0  0  0  0  0  0
   -2.4756   -4.2445   -3.5418 C   0  0  0  0  0  0  0  0  0  0  0  0
   -1.2546   -3.6612   -2.5266 S   0  0  0  0  0  0  0  0  0  0  0  0
   -2.8072   -3.7642   -4.9003 C   0  0  0  0  0  0  0  0  0  0  0  0
   -4.3508   -3.8477   -5.5719 S   0  0  0  0  0  0  0  0  0  0  0  0
   -3.9293   -3.2645   -7.0909 C   0  0  0  0  0  0  0  0  0  0  0  0
   -4.8863   -2.9653   -8.2036 C   0  0  0  0  0  0  0  0  0  0  0  0
   -4.2685   -3.1568   -9.4274 F   0  0  0  0  0  0  0  0  0  0  0  0
   -5.3054   -1.6510   -8.1089 F   0  0  0  0  0  0  0  0  0  0  0  0
   -5.9878   -3.8004   -8.1192 F   0  0  0  0  0  0  0  0  0  0  0  0
   -2.5645   -2.9875   -7.0953 C   0  0  0  0  0  0  0  0  0  0  0  0
   -1.9348   -3.2308   -5.8605 C   0  0  0  0  0  0  0  0  0  0  0  0
   -0.4750   -3.1185   -5.6736 C   0  0  0  0  0  0  0  0  0  0  0  0
    0.2936   -2.0511   -5.9575 C   0  0  0  0  0  0  0  0  0  0  0  0
   -0.1420   -0.6924   -6.3586 C   0  0  0  0  0  0  0  0  0  0  0  0
    0.7468    0.3761   -6.5048 C   0  0  0  0  0  0  0  0  0  0  0  0
    0.1131    1.6108   -6.7285 C   0  0  0  0  0  0  0  0  0  0  0  0
    0.7331    2.8787   -6.7644 C   0  0  0  0  0  0  0  0  0  0  0  0
    2.1950    3.0372   -6.6146 C   0  0  0  0  0  0  0  0  0  0  0  0
    2.9574    3.8356   -5.3433 S   0  0  0  0  0  0  0  0  0  0  0  0
    4.5251    3.6191   -5.9117 C   0  0  0  0  0  0  0  0  0  0  0  0
    5.7553    4.1108   -5.2109 C   0  0  0  0  0  0  0  0  0  0  0  0
    6.1948    3.1301   -4.1325 C   0  0  0  0  0  0  0  0  0  0  0  0
    4.4723    2.8973   -7.1031 C   0  0  0  0  0  0  0  0  0  0  0  0
    5.8958    2.4535   -8.0391 Cl  0  0  0  0  0  0  0  0  0  0  0  0
    3.1655    2.5757   -7.5001 C   0  0  0  0  0  0  0  0  0  0  0  0
    2.7925    1.7251   -8.9921 Cl  0  0  0  0  0  0  0  0  0  0  0  0
   -0.1228    3.9973   -6.7797 C   0  0  0  0  0  0  0  0  0  0  0  0
   -1.5155    3.8847   -6.8033 C   0  0  0  0  0  0  0  0  0  0  0  0
   -2.1205    2.6187   -6.8735 C   0  0  0  0  0  0  0  0  0  0  0  0
   -3.5738    2.4760   -6.9845 C   0  0  0  0  0  0  0  0  0  0  0  0
   -4.4298    2.6593   -8.4181 S   0  0  0  0  0  0  0  0  0  0  0  0
   -5.9536    2.4979   -7.7267 C   0  0  0  0  0  0  0  0  0  0  0  0
   -7.2399    2.5165   -8.4942 C   0  0  0  0  0  0  0  0  0  0  0  0
   -7.6943    1.0942   -8.8208 C   0  0  0  0  0  0  0  0  0  0  0  0
   -5.8049    2.2827   -6.3522 C   0  0  0  0  0  0  0  0  0  0  0  0
   -4.4654    2.2784   -5.9368 C   0  0  0  0  0  0  0  0  0  0  0  0
   -3.9595    2.0639   -4.2690 Cl  0  0  0  0  0  0  0  0  0  0  0  0
   -7.1540    2.0523   -5.2494 Cl  0  0  0  0  0  0  0  0  0  0  0  0
   -1.2774    1.5022   -6.7854 C   0  0  0  0  0  0  0  0  0  0  0  0
   -1.7149   -0.0948   -6.5159 S   0  0  0  0  0  0  0  0  0  0  0  0
   -2.1797    5.0947   -6.5434 C   0  0  0  0  0  0  0  0  0  0  0  0
   -1.3134    6.1520   -6.2743 C   0  0  0  0  0  0  0  0  0  0  0  0
    0.2707    5.5963   -6.4705 S   0  0  0  0  0  0  0  0  0  0  0  0
   -1.6020    7.1907   -5.2674 C   0  0  0  0  0  0  0  0  0  0  0  0
   -2.2801    6.8582   -4.0864 C   0  0  0  0  0  0  0  0  0  0  0  0
   -1.7381    7.4542   -2.9368 C   0  0  0  0  0  0  0  0  0  0  0  0
   -1.9751    7.0332   -1.6128 C   0  0  0  0  0  0  0  0  0  0  0  0
   -3.0059    6.0377   -1.2630 C   0  0  0  0  0  0  0  0  0  0  0  0
   -2.8818    4.3881   -1.5774 S   0  0  0  0  0  0  0  0  0  0  0  0
   -4.1444    3.9088   -0.5672 C   0  0  0  0  0  0  0  0  0  0  0  0
   -4.5350    2.4858   -0.2992 C   0  0  0  0  0  0  0  0  0  0  0  0
   -5.8750    2.1455   -0.9429 C   0  0  0  0  0  0  0  0  0  0  0  0
   -4.6697    5.0444    0.0499 C   0  0  0  0  0  0  0  0  0  0  0  0
   -5.9465    4.9983    1.2604 Cl  0  0  0  0  0  0  0  0  0  0  0  0
   -4.0233    6.2322   -0.3284 C   0  0  0  0  0  0  0  0  0  0  0  0
   -4.4189    7.8060    0.3581 Cl  0  0  0  0  0  0  0  0  0  0  0  0
   -1.0187    7.4077   -0.6525 C   0  0  0  0  0  0  0  0  0  0  0  0
    0.0764    8.2250   -0.9563 C   0  0  0  0  0  0  0  0  0  0  0  0
    0.2133    8.7755   -2.2454 C   0  0  0  0  0  0  0  0  0  0  0  0
    1.4051    9.5414   -2.6240 C   0  0  0  0  0  0  0  0  0  0  0  0
    1.5455   11.2124   -2.5138 S   0  0  0  0  0  0  0  0  0  0  0  0
    3.0856   11.3043   -3.2074 C   0  0  0  0  0  0  0  0  0  0  0  0
    3.8991   12.5594   -3.3497 C   0  0  0  0  0  0  0  0  0  0  0  0
    3.0580   13.7417   -3.8458 C   0  0  0  0  0  0  0  0  0  0  0  0
    3.5168   10.0067   -3.4990 C   0  0  0  0  0  0  0  0  0  0  0  0
    2.5670    9.0196   -3.1895 C   0  0  0  0  0  0  0  0  0  0  0  0
    2.8251    7.3008   -3.4641 Cl  0  0  0  0  0  0  0  0  0  0  0  0
    5.0984    9.6310   -4.1840 Cl  0  0  0  0  0  0  0  0  0  0  0  0
   -0.6959    8.3413   -3.2198 C   0  0  0  0  0  0  0  0  0  0  0  0
   -0.4476    8.3650   -4.8789 S   0  0  0  0  0  0  0  0  0  0  0  0
    1.0969    8.1642    0.0108 C   0  0  0  0  0  0  0  0  0  0  0  0
    0.8233    7.2740    1.0467 C   0  0  0  0  0  0  0  0  0  0  0  0
   -0.7059    6.6113    0.7922 S   0  0  0  0  0  0  0  0  0  0  0  0
    1.8753    6.4804    1.6784 C   0  0  0  0  0  0  0  0  0  0  0  0
    2.2651    5.2198    1.2273 C   0  0  0  0  0  0  0  0  0  0  0  0
    3.2492    4.6316    2.0234 C   0  0  0  0  0  0  0  0  0  0  0  0
    3.8187    3.3481    1.8409 C   0  0  0  0  0  0  0  0  0  0  0  0
    3.4228    2.4585    0.7259 C   0  0  0  0  0  0  0  0  0  0  0  0
    1.8675    1.8624    0.4720 S   0  0  0  0  0  0  0  0  0  0  0  0
    2.2607    0.8606   -0.8221 C   0  0  0  0  0  0  0  0  0  0  0  0
    1.3014   -0.0767   -1.4989 C   0  0  0  0  0  0  0  0  0  0  0  0
    0.9448    0.4042   -2.9023 C   0  0  0  0  0  0  0  0  0  0  0  0
    3.6233    0.9955   -1.0922 C   0  0  0  0  0  0  0  0  0  0  0  0
    4.4570    0.0981   -2.3519 Cl  0  0  0  0  0  0  0  0  0  0  0  0
    4.2696    1.8961   -0.2299 C   0  0  0  0  0  0  0  0  0  0  0  0
    5.9739    2.3078   -0.3849 Cl  0  0  0  0  0  0  0  0  0  0  0  0
    4.7677    2.9452    2.7998 C   0  0  0  0  0  0  0  0  0  0  0  0
    5.1701    3.7646    3.8613 C   0  0  0  0  0  0  0  0  0  0  0  0
    4.6169    5.0542    4.0223 C   0  0  0  0  0  0  0  0  0  0  0  0
    5.0062    5.9331    5.1420 C   0  0  0  0  0  0  0  0  0  0  0  0
    5.7286    7.4451    4.9724 S   0  0  0  0  0  0  0  0  0  0  0  0
    5.7903    7.8028    6.6198 C   0  0  0  0  0  0  0  0  0  0  0  0
    6.2969    9.0894    7.1963 C   0  0  0  0  0  0  0  0  0  0  0  0
    5.2591   10.1949    7.0477 C   0  0  0  0  0  0  0  0  0  0  0  0
    5.2071    6.7476    7.3276 C   0  0  0  0  0  0  0  0  0  0  0  0
    4.7689    5.7018    6.4972 C   0  0  0  0  0  0  0  0  0  0  0  0
    3.9362    4.2766    7.1052 Cl  0  0  0  0  0  0  0  0  0  0  0  0
    4.9966    6.7472    9.0708 Cl  0  0  0  0  0  0  0  0  0  0  0  0
    3.6529    5.4563    3.0824 C   0  0  0  0  0  0  0  0  0  0  0  0
    2.7680    6.8941    3.0438 S   0  0  0  0  0  0  0  0  0  0  0  0
    6.1179    3.1564    4.6939 C   0  0  0  0  0  0  0  0  0  0  0  0
    6.4357    1.8554    4.3116 C   0  0  0  0  0  0  0  0  0  0  0  0
    5.5462    1.4593    2.9370 S   0  0  0  0  0  0  0  0  0  0  0  0
    0.6437  -11.9221   10.8037 H   0  0  0  0  0  0  0  0  0  0  0  0
    2.0868  -10.2086    9.4775 H   0  0  0  0  0  0  0  0  0  0  0  0
    5.0621   -6.2189    9.6817 H   0  0  0  0  0  0  0  0  0  0  0  0
    6.3571   -6.9598    8.6858 H   0  0  0  0  0  0  0  0  0  0  0  0
    6.2417   -4.4476    8.4801 H   0  0  0  0  0  0  0  0  0  0  0  0
    4.5829   -4.6006    7.7651 H   0  0  0  0  0  0  0  0  0  0  0  0
    6.0090   -5.2928    6.8989 H   0  0  0  0  0  0  0  0  0  0  0  0
   -5.7092  -13.0462    4.1170 H   0  0  0  0  0  0  0  0  0  0  0  0
   -7.0357  -12.2319    5.0002 H   0  0  0  0  0  0  0  0  0  0  0  0
   -5.4070  -14.6393    6.0598 H   0  0  0  0  0  0  0  0  0  0  0  0
   -6.8372  -13.8806    6.8715 H   0  0  0  0  0  0  0  0  0  0  0  0
   -7.0350  -14.7388    5.2913 H   0  0  0  0  0  0  0  0  0  0  0  0
   -2.8115   -9.1158    4.4167 H   0  0  0  0  0  0  0  0  0  0  0  0
    0.0525   -5.6865    2.5251 H   0  0  0  0  0  0  0  0  0  0  0  0
    2.9406   -0.5721    1.8885 H   0  0  0  0  0  0  0  0  0  0  0  0
    1.2816   -0.2922    2.5319 H   0  0  0  0  0  0  0  0  0  0  0  0
    1.6564   -2.1142    4.2410 H   0  0  0  0  0  0  0  0  0  0  0  0
    2.8673   -0.7766    4.3711 H   0  0  0  0  0  0  0  0  0  0  0  0
    3.3328   -2.3399    3.5941 H   0  0  0  0  0  0  0  0  0  0  0  0
   -7.3678  -10.7494   -1.6998 H   0  0  0  0  0  0  0  0  0  0  0  0
   -5.7222  -11.4677   -1.7014 H   0  0  0  0  0  0  0  0  0  0  0  0
   -5.3764  -10.6212   -4.0565 H   0  0  0  0  0  0  0  0  0  0  0  0
   -7.0709   -9.9790   -4.0453 H   0  0  0  0  0  0  0  0  0  0  0  0
   -6.7792  -11.7531   -3.9156 H   0  0  0  0  0  0  0  0  0  0  0  0
   -3.9906   -5.7971   -3.3313 H   0  0  0  0  0  0  0  0  0  0  0  0
   -2.0447   -2.6068   -7.9669 H   0  0  0  0  0  0  0  0  0  0  0  0
    0.0228   -3.9944   -5.2793 H   0  0  0  0  0  0  0  0  0  0  0  0
    1.3650   -2.1789   -5.8008 H   0  0  0  0  0  0  0  0  0  0  0  0
    1.8183    0.2695   -6.3730 H   0  0  0  0  0  0  0  0  0  0  0  0
    6.5812    4.2484   -5.9387 H   0  0  0  0  0  0  0  0  0  0  0  0
    5.5454    5.1042   -4.7518 H   0  0  0  0  0  0  0  0  0  0  0  0
    7.1484    3.4835   -3.6832 H   0  0  0  0  0  0  0  0  0  0  0  0
    6.3513    2.1176   -4.5648 H   0  0  0  0  0  0  0  0  0  0  0  0
    5.4251    3.0735   -3.3367 H   0  0  0  0  0  0  0  0  0  0  0  0
   -7.1113    3.0972   -9.4352 H   0  0  0  0  0  0  0  0  0  0  0  0
   -8.0219    3.0180   -7.8844 H   0  0  0  0  0  0  0  0  0  0  0  0
   -8.7093    1.1249   -9.2663 H   0  0  0  0  0  0  0  0  0  0  0  0
   -7.0003    0.6328   -9.5603 H   0  0  0  0  0  0  0  0  0  0  0  0
   -7.7279    0.4695   -7.9021 H   0  0  0  0  0  0  0  0  0  0  0  0
   -3.2424    5.1489   -6.3576 H   0  0  0  0  0  0  0  0  0  0  0  0
   -2.9694    6.0276   -4.0352 H   0  0  0  0  0  0  0  0  0  0  0  0
   -3.7516    1.8010   -0.6929 H   0  0  0  0  0  0  0  0  0  0  0  0
   -4.5979    2.3254    0.7958 H   0  0  0  0  0  0  0  0  0  0  0  0
   -5.8346    2.3198   -2.0353 H   0  0  0  0  0  0  0  0  0  0  0  0
   -6.6847    2.7625   -0.4990 H   0  0  0  0  0  0  0  0  0  0  0  0
   -6.0993    1.0726   -0.7646 H   0  0  0  0  0  0  0  0  0  0  0  0
    4.7233   12.4043   -4.0769 H   0  0  0  0  0  0  0  0  0  0  0  0
    4.3406   12.8122   -2.3597 H   0  0  0  0  0  0  0  0  0  0  0  0
    3.7186   14.6082   -4.0531 H   0  0  0  0  0  0  0  0  0  0  0  0
    2.2938   14.0256   -3.0904 H   0  0  0  0  0  0  0  0  0  0  0  0
    2.5505   13.4653   -4.7964 H   0  0  0  0  0  0  0  0  0  0  0  0
    2.0761    8.5940   -0.1352 H   0  0  0  0  0  0  0  0  0  0  0  0
    1.8363    4.7554    0.3455 H   0  0  0  0  0  0  0  0  0  0  0  0
    0.3737   -0.1559   -0.8897 H   0  0  0  0  0  0  0  0  0  0  0  0
    1.7528   -1.0880   -1.5498 H   0  0  0  0  0  0  0  0  0  0  0  0
    1.8419    0.3770   -3.5588 H   0  0  0  0  0  0  0  0  0  0  0  0
    0.1749   -0.2704   -3.3368 H   0  0  0  0  0  0  0  0  0  0  0  0
    0.5371    1.4361   -2.8807 H   0  0  0  0  0  0  0  0  0  0  0  0
    7.2247    9.3899    6.6610 H   0  0  0  0  0  0  0  0  0  0  0  0
    6.5514    8.9575    8.2700 H   0  0  0  0  0  0  0  0  0  0  0  0
    4.2921    9.8826    7.4992 H   0  0  0  0  0  0  0  0  0  0  0  0
    5.1079   10.4331    5.9741 H   0  0  0  0  0  0  0  0  0  0  0  0
    5.6132   11.1143    7.5664 H   0  0  0  0  0  0  0  0  0  0  0  0
    6.5667    3.6308    5.5547 H   0  0  0  0  0  0  0  0  0  0  0  0
    7.1405    1.2079    4.8147 H   0  0  0  0  0  0  0  0  0  0  0  0
  1  2  2  0
  2  3  1  0
  3  4  2  0
  4  5  1  0
  5  6  1  0
  6  7  1  0
  7  8  1  0
  8  9  1  0
  7 10  2  0
 10 11  1  0
 10 12  1  0
 12 13  1  0
  4 14  1  0
 14 15  2  0
 15 16  1  0
 16 17  1  0
 17 18  1  0
 18 19  1  0
 19 20  1  0
 20 21  1  0
 19 22  2  0
 22 23  1  0
 23 24  1  0
 22 25  1  0
 16 26  2  0
 26 27  1  0
 15 28  1  0
 28 29  2  0
 29 30  1  0
 29 31  1  0
 31 32  2  0
 32 33  1  0
 33 34  2  0
 34 35  1  0
 35 36  1  0
 36 37  1  0
 37 38  1  0
 38 39  1  0
 37 40  2  0
 40 41  1  0
 40 42  1  0
 42 43  1  0
 34 44  1  0
 44 45  2  0
 45 46  1  0
 46 47  1  0
 47 48  1  0
 48 49  1  0
 49 50  1  0
 50 51  1  0
 49 52  2  0
 52 53  1  0
 53 54  1  0
 52 55  1  0
 46 56  2  0
 56 57  1  0
 45 58  1  0
 58 59  2  0
 59 60  1  0
 59 61  1  0
 61 62  1  0
 62 63  1  0
 63 64  1  0
 64 65  1  0
 64 66  1  0
 64 67  1  0
 63 68  2  0
 68 69  1  0
 69 70  1  0
 70 71  2  3
 71 72  1  0
 72 73  2  0
 73 74  1  0
 74 75  2  0
 75 76  1  0
 76 77  1  0
 77 78  1  0
 78 79  1  0
 79 80  1  0
 78 81  2  0
 81 82  1  0
 81 83  1  0
 83 84  1  0
 75 85  1  0
 85 86  2  0
 86 87  1  0
 87 88  1  0
 88 89  1  0
 89 90  1  0
 90 91  1  0
 91 92  1  0
 90 93  2  0
 93 94  1  0
 94 95  1  0
 93 96  1  0
 87 97  2  0
 97 98  1  0
 86 99  1  0
 99100  2  0
100101  1  0
100102  1  0
102103  2  0
103104  1  0
104105  2  0
105106  1  0
106107  1  0
107108  1  0
108109  1  0
109110  1  0
108111  2  0
111112  1  0
111113  1  0
113114  1  0
105115  1  0
115116  2  0
116117  1  0
117118  1  0
118119  1  0
119120  1  0
120121  1  0
121122  1  0
120123  2  0
123124  1  0
124125  1  0
123126  1  0
117127  2  0
127128  1  0
116129  1  0
129130  2  0
130131  1  0
130132  1  0
132133  2  0
133134  1  0
134135  2  0
135136  1  0
136137  1  0
137138  1  0
138139  1  0
139140  1  0
138141  2  0
141142  1  0
141143  1  0
143144  1  0
135145  1  0
145146  2  0
146147  1  0
147148  1  0
148149  1  0
149150  1  0
150151  1  0
151152  1  0
150153  2  0
153154  1  0
154155  1  0
153156  1  0
147157  2  0
157158  1  0
146159  1  0
159160  2  0
160161  1  0
 27  1  1  0
 57 31  1  0
 69 61  2  0
 98 72  1  0
128102  1  0
158132  1  0
 26  3  1  0
 56 33  1  0
 97 74  1  0
127104  1  0
157134  1  0
 12  5  2  0
 30 14  1  0
 42 35  2  0
 60 44  1  0
 83 76  2  0
101 85  1  0
113106  2  0
131115  1  0
143136  2  0
161145  1  0
 23 17  2  0
 53 47  2  0
 94 88  2  0
124118  2  0
154148  2  0
  1162  1  0
  2163  1  0
  8164  1  0
  8165  1  0
  9166  1  0
  9167  1  0
  9168  1  0
 20169  1  0
 20170  1  0
 21171  1  0
 21172  1  0
 21173  1  0
 28174  1  0
 32175  1  0
 38176  1  0
 38177  1  0
 39178  1  0
 39179  1  0
 39180  1  0
 50181  1  0
 50182  1  0
 51183  1  0
 51184  1  0
 51185  1  0
 58186  1  0
 68187  1  0
 70188  1  0
 71189  1  0
 73190  1  0
 79191  1  0
 79192  1  0
 80193  1  0
 80194  1  0
 80195  1  0
 91196  1  0
 91197  1  0
 92198  1  0
 92199  1  0
 92200  1  0
 99201  1  0
103202  1  0
109203  1  0
109204  1  0
110205  1  0
110206  1  0
110207  1  0
121208  1  0
121209  1  0
122210  1  0
122211  1  0
122212  1  0
129213  1  0
133214  1  0
139215  1  0
139216  1  0
140217  1  0
140218  1  0
140219  1  0
151220  1  0
151221  1  0
152222  1  0
152223  1  0
152224  1  0
159225  1  0
160226  1  0
M  END

