
     RDKit          3D

228254  0  0  0  0  0  0  0  0999 V2000
    7.1693    0.3042    6.8303 C   0  0  0  0  0  0  0  0  0  0  0  0
    7.8168    0.7358    5.6790 C   0  0  0  0  0  0  0  0  0  0  0  0
    7.1202    0.4233    4.4978 C   0  0  0  0  0  0  0  0  0  0  0  0
    7.4883    0.7991    3.1931 C   0  0  0  0  0  0  0  0  0  0  0  0
    8.7269    1.5534    2.9192 C   0  0  0  0  0  0  0  0  0  0  0  0
    8.7887    3.1424    2.3610 S   0  0  0  0  0  0  0  0  0  0  0  0
   10.4690    3.2617    2.3509 C   0  0  0  0  0  0  0  0  0  0  0  0
   11.2365    4.4757    1.9140 C   0  0  0  0  0  0  0  0  0  0  0  0
   11.5194    4.4358    0.4179 C   0  0  0  0  0  0  0  0  0  0  0  0
   11.0072    2.0436    2.7674 C   0  0  0  0  0  0  0  0  0  0  0  0
   12.7328    1.7231    2.8674 Cl  0  0  0  0  0  0  0  0  0  0  0  0
   10.0297    1.0901    3.0946 C   0  0  0  0  0  0  0  0  0  0  0  0
   10.4117   -0.5396    3.6316 Cl  0  0  0  0  0  0  0  0  0  0  0  0
    6.6010    0.4583    2.1617 C   0  0  0  0  0  0  0  0  0  0  0  0
    5.4124   -0.2498    2.3815 C   0  0  0  0  0  0  0  0  0  0  0  0
    5.0360   -0.6180    3.6927 C   0  0  0  0  0  0  0  0  0  0  0  0
    3.7391   -1.2634    4.0007 C   0  0  0  0  0  0  0  0  0  0  0  0
    3.5526   -2.6499    4.9382 S   0  0  0  0  0  0  0  0  0  0  0  0
    1.8732   -2.6158    5.0041 C   0  0  0  0  0  0  0  0  0  0  0  0
    1.0341   -3.5304    5.8467 C   0  0  0  0  0  0  0  0  0  0  0  0
    0.8732   -2.9757    7.2555 C   0  0  0  0  0  0  0  0  0  0  0  0
    1.4287   -1.4972    4.3025 C   0  0  0  0  0  0  0  0  0  0  0  0
    2.4709   -0.7390    3.7446 C   0  0  0  0  0  0  0  0  0  0  0  0
    2.1988    0.7878    2.9230 Cl  0  0  0  0  0  0  0  0  0  0  0  0
   -0.2660   -1.0423    4.1869 Cl  0  0  0  0  0  0  0  0  0  0  0  0
    5.9210   -0.2567    4.7273 C   0  0  0  0  0  0  0  0  0  0  0  0
    5.7264   -0.4475    6.3897 S   0  0  0  0  0  0  0  0  0  0  0  0
    4.6838   -0.4827    1.1985 C   0  0  0  0  0  0  0  0  0  0  0  0
    5.2765    0.1012    0.0776 C   0  0  0  0  0  0  0  0  0  0  0  0
    6.7193    0.8481    0.5326 S   0  0  0  0  0  0  0  0  0  0  0  0
    4.6620    0.2491   -1.2490 C   0  0  0  0  0  0  0  0  0  0  0  0
    4.8640    1.3478   -2.0802 C   0  0  0  0  0  0  0  0  0  0  0  0
    4.0467    1.3330   -3.2176 C   0  0  0  0  0  0  0  0  0  0  0  0
    3.9200    2.3767   -4.1543 C   0  0  0  0  0  0  0  0  0  0  0  0
    4.5534    3.6895   -3.9418 C   0  0  0  0  0  0  0  0  0  0  0  0
    5.6175    4.4338   -5.0106 S   0  0  0  0  0  0  0  0  0  0  0  0
    5.7613    5.8689   -4.1443 C   0  0  0  0  0  0  0  0  0  0  0  0
    6.5393    7.0633   -4.6026 C   0  0  0  0  0  0  0  0  0  0  0  0
    5.6487    8.0112   -5.3977 C   0  0  0  0  0  0  0  0  0  0  0  0
    4.9451    5.7947   -3.0165 C   0  0  0  0  0  0  0  0  0  0  0  0
    4.7400    7.1192   -1.8789 Cl  0  0  0  0  0  0  0  0  0  0  0  0
    4.2689    4.5726   -2.9024 C   0  0  0  0  0  0  0  0  0  0  0  0
    3.1003    4.2367   -1.6312 Cl  0  0  0  0  0  0  0  0  0  0  0  0
    2.9925    2.1901   -5.1917 C   0  0  0  0  0  0  0  0  0  0  0  0
    2.2008    1.0447   -5.2971 C   0  0  0  0  0  0  0  0  0  0  0  0
    2.3027    0.0134   -4.3373 C   0  0  0  0  0  0  0  0  0  0  0  0
    1.3793   -1.1345   -4.3267 C   0  0  0  0  0  0  0  0  0  0  0  0
    1.8271   -2.7234   -4.6399 S   0  0  0  0  0  0  0  0  0  0  0  0
    0.2900   -3.3840   -4.4496 C   0  0  0  0  0  0  0  0  0  0  0  0
   -0.0515   -4.8282   -4.6690 C   0  0  0  0  0  0  0  0  0  0  0  0
   -0.5942   -5.0503   -6.0765 C   0  0  0  0  0  0  0  0  0  0  0  0
   -0.6027   -2.3570   -4.1430 C   0  0  0  0  0  0  0  0  0  0  0  0
    0.0092   -1.0959   -4.0676 C   0  0  0  0  0  0  0  0  0  0  0  0
   -0.8635    0.3800   -3.6585 Cl  0  0  0  0  0  0  0  0  0  0  0  0
   -2.3230   -2.6085   -3.8865 Cl  0  0  0  0  0  0  0  0  0  0  0  0
    3.2421    0.1933   -3.3068 C   0  0  0  0  0  0  0  0  0  0  0  0
    3.4865   -0.7567   -1.9340 S   0  0  0  0  0  0  0  0  0  0  0  0
    1.2320    1.1395   -6.3082 C   0  0  0  0  0  0  0  0  0  0  0  0
    1.1999    2.3886   -6.9402 C   0  0  0  0  0  0  0  0  0  0  0  0
    2.4426    3.3345   -6.2938 S   0  0  0  0  0  0  0  0  0  0  0  0
   -0.0321    2.9564   -7.5224 C   0  0  0  0  0  0  0  0  0  0  0  0
   -0.4449    4.2586   -7.2243 C   0  0  0  0  0  0  0  0  0  0  0  0
   -1.8357    4.3812   -7.0757 C   0  0  0  0  0  0  0  0  0  0  0  0
   -2.4992    5.4331   -6.4122 C   0  0  0  0  0  0  0  0  0  0  0  0
   -1.8180    6.6853   -6.0336 C   0  0  0  0  0  0  0  0  0  0  0  0
   -0.5437    6.8236   -4.9423 S   0  0  0  0  0  0  0  0  0  0  0  0
   -0.3846    8.4950   -5.0654 C   0  0  0  0  0  0  0  0  0  0  0  0
    0.7069    9.2941   -4.4168 C   0  0  0  0  0  0  0  0  0  0  0  0
    1.9668    9.2670   -5.2744 C   0  0  0  0  0  0  0  0  0  0  0  0
   -1.3344    8.9664   -5.9711 C   0  0  0  0  0  0  0  0  0  0  0  0
   -1.4817   10.6584   -6.4316 Cl  0  0  0  0  0  0  0  0  0  0  0  0
   -2.1501    7.9543   -6.4972 C   0  0  0  0  0  0  0  0  0  0  0  0
   -3.4349    8.2517   -7.6583 Cl  0  0  0  0  0  0  0  0  0  0  0  0
   -3.7958    5.1649   -5.9447 C   0  0  0  0  0  0  0  0  0  0  0  0
   -4.4565    3.9616   -6.2029 C   0  0  0  0  0  0  0  0  0  0  0  0
   -3.8634    2.9960   -7.0405 C   0  0  0  0  0  0  0  0  0  0  0  0
   -4.5330    1.7360   -7.4109 C   0  0  0  0  0  0  0  0  0  0  0  0
   -4.9619    0.4943   -6.3584 S   0  0  0  0  0  0  0  0  0  0  0  0
   -5.5681   -0.5388   -7.5413 C   0  0  0  0  0  0  0  0  0  0  0  0
   -6.2690   -1.8328   -7.2574 C   0  0  0  0  0  0  0  0  0  0  0  0
   -7.7591   -1.5948   -7.0395 C   0  0  0  0  0  0  0  0  0  0  0  0
   -5.4421    0.0801   -8.7855 C   0  0  0  0  0  0  0  0  0  0  0  0
   -4.8452    1.3482   -8.7115 C   0  0  0  0  0  0  0  0  0  0  0  0
   -4.5579    2.3658  -10.1167 Cl  0  0  0  0  0  0  0  0  0  0  0  0
   -5.9959   -0.6366  -10.2913 Cl  0  0  0  0  0  0  0  0  0  0  0  0
   -2.5258    3.2111   -7.4021 C   0  0  0  0  0  0  0  0  0  0  0  0
   -1.4097    2.0185   -7.7973 S   0  0  0  0  0  0  0  0  0  0  0  0
   -5.5578    3.7432   -5.3565 C   0  0  0  0  0  0  0  0  0  0  0  0
   -5.6897    4.7122   -4.3590 C   0  0  0  0  0  0  0  0  0  0  0  0
   -4.5431    5.9206   -4.6494 S   0  0  0  0  0  0  0  0  0  0  0  0
   -6.0536    4.3373   -2.9841 C   0  0  0  0  0  0  0  0  0  0  0  0
   -6.9728    3.3439   -2.6323 C   0  0  0  0  0  0  0  0  0  0  0  0
   -6.7229    2.7751   -1.3659 C   0  0  0  0  0  0  0  0  0  0  0  0
   -7.3852    1.6636   -0.8080 C   0  0  0  0  0  0  0  0  0  0  0  0
   -8.6000    1.1005   -1.4212 C   0  0  0  0  0  0  0  0  0  0  0  0
   -8.7252   -0.4472   -2.0698 S   0  0  0  0  0  0  0  0  0  0  0  0
  -10.3332   -0.3114   -2.5465 C   0  0  0  0  0  0  0  0  0  0  0  0
  -11.0934   -1.3663   -3.2899 C   0  0  0  0  0  0  0  0  0  0  0  0
  -11.0974   -1.0710   -4.7849 C   0  0  0  0  0  0  0  0  0  0  0  0
  -10.7896    0.9643   -2.2171 C   0  0  0  0  0  0  0  0  0  0  0  0
  -12.4193    1.5298   -2.5635 Cl  0  0  0  0  0  0  0  0  0  0  0  0
   -9.8192    1.7546   -1.5851 C   0  0  0  0  0  0  0  0  0  0  0  0
  -10.1238    3.3970   -1.0312 Cl  0  0  0  0  0  0  0  0  0  0  0  0
   -6.8035    1.0828    0.3353 C   0  0  0  0  0  0  0  0  0  0  0  0
   -5.6317    1.5790    0.9213 C   0  0  0  0  0  0  0  0  0  0  0  0
   -5.0213    2.7444    0.4145 C   0  0  0  0  0  0  0  0  0  0  0  0
   -3.7843    3.3106    0.9928 C   0  0  0  0  0  0  0  0  0  0  0  0
   -2.3120    2.5045    1.1227 S   0  0  0  0  0  0  0  0  0  0  0  0
   -1.4536    3.8056    1.7621 C   0  0  0  0  0  0  0  0  0  0  0  0
   -0.0311    3.7458    2.2244 C   0  0  0  0  0  0  0  0  0  0  0  0
    0.0332    3.4127    3.7116 C   0  0  0  0  0  0  0  0  0  0  0  0
   -2.3172    4.8898    1.8928 C   0  0  0  0  0  0  0  0  0  0  0  0
   -3.6207    4.6154    1.4557 C   0  0  0  0  0  0  0  0  0  0  0  0
   -4.9301    5.7847    1.5540 Cl  0  0  0  0  0  0  0  0  0  0  0  0
   -1.8298    6.4423    2.5592 Cl  0  0  0  0  0  0  0  0  0  0  0  0
   -5.6021    3.3151   -0.7308 C   0  0  0  0  0  0  0  0  0  0  0  0
   -4.9517    4.5056   -1.7139 S   0  0  0  0  0  0  0  0  0  0  0  0
   -5.1765    0.7931    1.9939 C   0  0  0  0  0  0  0  0  0  0  0  0
   -5.9994   -0.2973    2.2524 C   0  0  0  0  0  0  0  0  0  0  0  0
   -7.2950   -0.2916    1.1711 S   0  0  0  0  0  0  0  0  0  0  0  0
   -5.7179   -1.3664    3.2152 C   0  0  0  0  0  0  0  0  0  0  0  0
   -6.8489   -2.1173    4.1084 S   0  0  0  0  0  3  0  0  0  0  0  0
   -5.8163   -3.4061    4.7698 C   0  0  0  0  0  0  0  0  0  0  0  0
   -6.3875   -4.8522    5.2771 S   0  0  0  0  0  0  0  0  0  0  0  0
   -4.5223   -3.1938    4.1114 C   0  0  0  0  0  0  0  0  0  0  0  0
   -4.4647   -2.1343    3.3152 C   0  0  0  0  0  0  0  0  0  0  0  0
   -3.3426   -2.1765    2.3726 C   0  0  0  0  0  0  0  0  0  0  0  0
   -2.6068   -3.2915    2.4824 C   0  0  0  0  0  0  0  0  0  0  0  0
   -3.2889   -4.3477    3.7160 S   0  0  0  0  0  6  0  0  0  0  0  0
   -2.3672   -4.6182    4.8723 O   0  0  0  0  0  0  0  0  0  0  0  0
   -3.9003   -5.5985    3.1495 O   0  0  0  0  0  0  0  0  0  0  0  0
   -1.4740   -3.5570    1.5569 C   0  0  0  0  0  0  0  0  0  0  0  0
   -0.5007   -4.4813    1.6363 C   0  0  0  0  0  0  0  0  0  0  0  0
   -0.3458   -5.5438    2.6389 C   0  0  0  0  0  0  0  0  0  0  0  0
    0.8298   -5.7660    3.3618 C   0  0  0  0  0  0  0  0  0  0  0  0
    0.8476   -7.0015    4.0355 C   0  0  0  0  0  0  0  0  0  0  0  0
    1.8691   -7.4945    4.8789 C   0  0  0  0  0  0  0  0  0  0  0  0
    3.1212   -6.7548    5.1408 C   0  0  0  0  0  0  0  0  0  0  0  0
    3.7028   -6.3831    6.6759 S   0  0  0  0  0  0  0  0  0  0  0  0
    5.1928   -5.7922    6.1802 C   0  0  0  0  0  0  0  0  0  0  0  0
    6.2716   -5.3217    7.1131 C   0  0  0  0  0  0  0  0  0  0  0  0
    6.3720   -3.8030    7.1126 C   0  0  0  0  0  0  0  0  0  0  0  0
    5.2604   -5.8778    4.7896 C   0  0  0  0  0  0  0  0  0  0  0  0
    6.6757   -5.4042    3.8590 Cl  0  0  0  0  0  0  0  0  0  0  0  0
    4.1032   -6.4231    4.2083 C   0  0  0  0  0  0  0  0  0  0  0  0
    3.9639   -6.7542    2.4882 Cl  0  0  0  0  0  0  0  0  0  0  0  0
    1.6432   -8.7483    5.4778 C   0  0  0  0  0  0  0  0  0  0  0  0
    0.4754   -9.4859    5.2713 C   0  0  0  0  0  0  0  0  0  0  0  0
   -0.5347   -9.0001    4.4183 C   0  0  0  0  0  0  0  0  0  0  0  0
   -1.7974   -9.7308    4.2261 C   0  0  0  0  0  0  0  0  0  0  0  0
   -2.9628   -9.9452    5.4169 S   0  0  0  0  0  0  0  0  0  0  0  0
   -4.0210  -10.8502    4.4705 C   0  0  0  0  0  0  0  0  0  0  0  0
   -5.2957  -11.4558    4.9731 C   0  0  0  0  0  0  0  0  0  0  0  0
   -5.0319  -12.8095    5.6236 C   0  0  0  0  0  0  0  0  0  0  0  0
   -3.4547  -11.0187    3.2067 C   0  0  0  0  0  0  0  0  0  0  0  0
   -2.2134  -10.3793    3.0664 C   0  0  0  0  0  0  0  0  0  0  0  0
   -1.2490  -10.4378    1.5971 Cl  0  0  0  0  0  0  0  0  0  0  0  0
   -4.2009  -11.9596    1.9249 Cl  0  0  0  0  0  0  0  0  0  0  0  0
   -0.3043   -7.7602    3.8027 C   0  0  0  0  0  0  0  0  0  0  0  0
   -1.3036   -6.9304    2.7390 S   0  0  0  0  0  0  0  0  0  0  0  0
    0.4672  -10.7142    5.9530 C   0  0  0  0  0  0  0  0  0  0  0  0
    1.6259  -10.9414    6.6877 C   0  0  0  0  0  0  0  0  0  0  0  0
    2.6611   -9.6275    6.4900 S   0  0  0  0  0  0  0  0  0  0  0  0
    7.5206    0.4477    7.8416 H   0  0  0  0  0  0  0  0  0  0  0  0
    8.7504    1.2804    5.7066 H   0  0  0  0  0  0  0  0  0  0  0  0
   12.1968    4.5385    2.4697 H   0  0  0  0  0  0  0  0  0  0  0  0
   10.6512    5.3878    2.1552 H   0  0  0  0  0  0  0  0  0  0  0  0
   12.1000    3.5226    0.1607 H   0  0  0  0  0  0  0  0  0  0  0  0
   12.1082    5.3304    0.1305 H   0  0  0  0  0  0  0  0  0  0  0  0
   10.5647    4.4357   -0.1513 H   0  0  0  0  0  0  0  0  0  0  0  0
    0.0367   -3.6658    5.3828 H   0  0  0  0  0  0  0  0  0  0  0  0
    1.5177   -4.5254    5.9071 H   0  0  0  0  0  0  0  0  0  0  0  0
    0.2563   -3.6740    7.8605 H   0  0  0  0  0  0  0  0  0  0  0  0
    0.3647   -1.9877    7.2238 H   0  0  0  0  0  0  0  0  0  0  0  0
    1.8683   -2.8630    7.7433 H   0  0  0  0  0  0  0  0  0  0  0  0
    3.7324   -0.9952    1.1640 H   0  0  0  0  0  0  0  0  0  0  0  0
    5.5337    2.1623   -1.8333 H   0  0  0  0  0  0  0  0  0  0  0  0
    7.3849    6.7296   -5.2411 H   0  0  0  0  0  0  0  0  0  0  0  0
    6.9645    7.5981   -3.7255 H   0  0  0  0  0  0  0  0  0  0  0  0
    6.2535    8.8579   -5.7844 H   0  0  0  0  0  0  0  0  0  0  0  0
    5.1857    7.4783   -6.2593 H   0  0  0  0  0  0  0  0  0  0  0  0
    4.8487    8.4180   -4.7431 H   0  0  0  0  0  0  0  0  0  0  0  0
    0.8596   -5.4496   -4.5291 H   0  0  0  0  0  0  0  0  0  0  0  0
   -0.8069   -5.1560   -3.9230 H   0  0  0  0  0  0  0  0  0  0  0  0
    0.1523   -4.7210   -6.8327 H   0  0  0  0  0  0  0  0  0  0  0  0
   -1.5367   -4.4807   -6.2216 H   0  0  0  0  0  0  0  0  0  0  0  0
   -0.8005   -6.1304   -6.2313 H   0  0  0  0  0  0  0  0  0  0  0  0
    0.4789    0.3787   -6.4699 H   0  0  0  0  0  0  0  0  0  0  0  0
    0.2495    5.0272   -6.9118 H   0  0  0  0  0  0  0  0  0  0  0  0
    0.3771   10.3446   -4.2701 H   0  0  0  0  0  0  0  0  0  0  0  0
    0.9341    8.8599   -3.4213 H   0  0  0  0  0  0  0  0  0  0  0  0
    1.7551    9.6810   -6.2832 H   0  0  0  0  0  0  0  0  0  0  0  0
    2.7543    9.8807   -4.7908 H   0  0  0  0  0  0  0  0  0  0  0  0
    2.3380    8.2229   -5.3756 H   0  0  0  0  0  0  0  0  0  0  0  0
   -5.8355   -2.2883   -6.3414 H   0  0  0  0  0  0  0  0  0  0  0  0
   -6.1217   -2.5455   -8.0974 H   0  0  0  0  0  0  0  0  0  0  0  0
   -8.2247   -1.2015   -7.9691 H   0  0  0  0  0  0  0  0  0  0  0  0
   -8.2542   -2.5488   -6.7657 H   0  0  0  0  0  0  0  0  0  0  0  0
   -7.9131   -0.8630   -6.2178 H   0  0  0  0  0  0  0  0  0  0  0  0
   -6.0896    2.8024   -5.3133 H   0  0  0  0  0  0  0  0  0  0  0  0
   -7.7101    2.9577   -3.3239 H   0  0  0  0  0  0  0  0  0  0  0  0
  -12.1391   -1.4094   -2.9143 H   0  0  0  0  0  0  0  0  0  0  0  0
  -10.6204   -2.3560   -3.1116 H   0  0  0  0  0  0  0  0  0  0  0  0
  -11.6401   -0.1237   -4.9893 H   0  0  0  0  0  0  0  0  0  0  0  0
  -10.0567   -0.9807   -5.1580 H   0  0  0  0  0  0  0  0  0  0  0  0
  -11.6024   -1.8934   -5.3304 H   0  0  0  0  0  0  0  0  0  0  0  0
    0.5176    2.9729    1.6462 H   0  0  0  0  0  0  0  0  0  0  0  0
    0.4685    4.7215    2.0413 H   0  0  0  0  0  0  0  0  0  0  0  0
   -0.4183    2.4147    3.9050 H   0  0  0  0  0  0  0  0  0  0  0  0
    1.0931    3.3961    4.0431 H   0  0  0  0  0  0  0  0  0  0  0  0
   -0.5132    4.1785    4.3037 H   0  0  0  0  0  0  0  0  0  0  0  0
   -4.2781    0.9981    2.5607 H   0  0  0  0  0  0  0  0  0  0  0  0
   -3.1582   -1.4088    1.6332 H   0  0  0  0  0  0  0  0  0  0  0  0
   -1.3718   -2.8502    0.7410 H   0  0  0  0  0  0  0  0  0  0  0  0
    0.2983   -4.4144    0.9055 H   0  0  0  0  0  0  0  0  0  0  0  0
    1.6469   -5.0566    3.3771 H   0  0  0  0  0  0  0  0  0  0  0  0
    6.0376   -5.6607    8.1454 H   0  0  0  0  0  0  0  0  0  0  0  0
    7.2449   -5.7662    6.8180 H   0  0  0  0  0  0  0  0  0  0  0  0
    6.6564   -3.4338    6.1049 H   0  0  0  0  0  0  0  0  0  0  0  0
    7.1488   -3.4804    7.8392 H   0  0  0  0  0  0  0  0  0  0  0  0
    5.3996   -3.3562    7.4098 H   0  0  0  0  0  0  0  0  0  0  0  0
   -6.0227  -11.5730    4.1424 H   0  0  0  0  0  0  0  0  0  0  0  0
   -5.7504  -10.7747    5.7232 H   0  0  0  0  0  0  0  0  0  0  0  0
   -4.6096  -13.5192    4.8814 H   0  0  0  0  0  0  0  0  0  0  0  0
   -4.3217  -12.7022    6.4715 H   0  0  0  0  0  0  0  0  0  0  0  0
   -5.9862  -13.2262    6.0113 H   0  0  0  0  0  0  0  0  0  0  0  0
   -0.3446  -11.4269    5.9095 H   0  0  0  0  0  0  0  0  0  0  0  0
    1.8343  -11.8271    7.2771 H   0  0  0  0  0  0  0  0  0  0  0  0
  1  2  2  0
  2  3  1  0
  3  4  2  0
  4  5  1  0
  5  6  1  0
  6  7  1  0
  7  8  1  0
  8  9  1  0
  7 10  2  0
 10 11  1  0
 10 12  1  0
 12 13  1  0
  4 14  1  0
 14 15  2  0
 15 16  1  0
 16 17  1  0
 17 18  1  0
 18 19  1  0
 19 20  1  0
 20 21  1  0
 19 22  2  0
 22 23  1  0
 23 24  1  0
 22 25  1  0
 16 26  2  0
 26 27  1  0
 15 28  1  0
 28 29  2  0
 29 30  1  0
 29 31  1  0
 31 32  2  0
 32 33  1  0
 33 34  2  0
 34 35  1  0
 35 36  1  0
 36 37  1  0
 37 38  1  0
 38 39  1  0
 37 40  2  0
 40 41  1  0
 40 42  1  0
 42 43  1  0
 34 44  1  0
 44 45  2  0
 45 46  1  0
 46 47  1  0
 47 48  1  0
 48 49  1  0
 49 50  1  0
 50 51  1  0
 49 52  2  0
 52 53  1  0
 53 54  1  0
 52 55  1  0
 46 56  2  0
 56 57  1  0
 45 58  1  0
 58 59  2  0
 59 60  1  0
 59 61  1  0
 61 62  2  0
 62 63  1  0
 63 64  2  0
 64 65  1  0
 65 66  1  0
 66 67  1  0
 67 68  1  0
 68 69  1  0
 67 70  2  0
 70 71  1  0
 70 72  1  0
 72 73  1  0
 64 74  1  0
 74 75  2  0
 75 76  1  0
 76 77  1  0
 77 78  1  0
 78 79  1  0
 79 80  1  0
 80 81  1  0
 79 82  2  0
 82 83  1  0
 83 84  1  0
 82 85  1  0
 76 86  2  0
 86 87  1  0
 75 88  1  0
 88 89  2  0
 89 90  1  0
 89 91  1  0
 91 92  2  0
 92 93  1  0
 93 94  2  0
 94 95  1  0
 95 96  1  0
 96 97  1  0
 97 98  1  0
 98 99  1  0
 97100  2  0
100101  1  0
100102  1  0
102103  1  0
 94104  1  0
104105  2  0
105106  1  0
106107  1  0
107108  1  0
108109  1  0
109110  1  0
110111  1  0
109112  2  0
112113  1  0
113114  1  0
112115  1  0
106116  2  0
116117  1  0
105118  1  0
118119  2  0
119120  1  0
119121  1  0
121122  2  0
122123  1  0
123124  2  0
123125  1  0
125126  2  0
126127  1  0
127128  2  0
128129  1  0
129130  2  0
129131  2  0
128132  1  0
132133  2  3
133134  1  0
134135  2  0
135136  1  0
136137  2  0
137138  1  0
138139  1  0
139140  1  0
140141  1  0
141142  1  0
140143  2  0
143144  1  0
143145  1  0
145146  1  0
137147  1  0
147148  2  0
148149  1  0
149150  1  0
150151  1  0
151152  1  0
152153  1  0
153154  1  0
152155  2  0
155156  1  0
156157  1  0
155158  1  0
149159  2  0
159160  1  0
148161  1  0
161162  2  0
162163  1  0
 27  1  1  0
 57 31  1  0
 87 61  1  0
117 91  1  0
126121  1  0
160134  1  0
 26  3  1  0
 56 33  1  0
 86 63  1  0
116 93  1  0
129125  1  0
159136  1  0
 12  5  2  0
 30 14  1  0
 42 35  2  0
 60 44  1  0
 72 65  2  0
 90 74  1  0
102 95  2  0
120104  1  0
145138  2  0
163147  1  0
 23 17  2  0
 53 47  2  0
 83 77  2  0
113107  2  0
156150  2  0
  1164  1  0
  2165  1  0
  8166  1  0
  8167  1  0
  9168  1  0
  9169  1  0
  9170  1  0
 20171  1  0
 20172  1  0
 21173  1  0
 21174  1  0
 21175  1  0
 28176  1  0
 32177  1  0
 38178  1  0
 38179  1  0
 39180  1  0
 39181  1  0
 39182  1  0
 50183  1  0
 50184  1  0
 51185  1  0
 51186  1  0
 51187  1  0
 58188  1  0
 62189  1  0
 68190  1  0
 68191  1  0
 69192  1  0
 69193  1  0
 69194  1  0
 80195  1  0
 80196  1  0
 81197  1  0
 81198  1  0
 81199  1  0
 88200  1  0
 92201  1  0
 98202  1  0
 98203  1  0
 99204  1  0
 99205  1  0
 99206  1  0
110207  1  0
110208  1  0
111209  1  0
111210  1  0
111211  1  0
118212  1  0
127213  1  0
132214  1  0
133215  1  0
135216  1  0
141217  1  0
141218  1  0
142219  1  0
142220  1  0
142221  1  0
153222  1  0
153223  1  0
154224  1  0
154225  1  0
154226  1  0
161227  1  0
162228  1  0
M  RAD  1 122   2
M  END

