
     RDKit          3D

256281  0  0  0  0  0  0  0  0999 V2000
    6.8846    2.0791    4.2144 C   0  0  0  0  0  0  0  0  0  0  0  0
    5.2255    1.7361    4.0773 S   0  0  0  0  0  0  0  0  0  0  0  0
    5.5059    0.1240    3.7381 C   0  0  0  0  0  0  0  0  0  0  0  0
    4.7570   -1.0001    3.2750 C   0  0  0  0  0  0  0  0  0  0  0  0
    5.6264   -1.9867    2.9267 C   0  0  0  0  0  0  0  0  0  0  0  0
    7.0833   -1.6052    3.1877 C   0  0  0  0  0  0  0  0  0  0  0  0
    7.8482   -1.6607    1.8335 C   0  0  0  0  0  0  0  0  0  0  0  0
    9.3516   -1.3971    1.9065 C   0  0  0  0  0  0  0  0  0  0  0  0
    7.6691   -2.5522    4.2779 C   0  0  0  0  0  0  0  0  0  0  0  0
    8.7021   -1.9127    5.2127 C   0  0  0  0  0  0  0  0  0  0  0  0
    6.8333   -0.1719    3.6777 C   0  0  0  0  0  0  0  0  0  0  0  0
    7.6442    0.9315    3.9600 C   0  0  0  0  0  0  0  0  0  0  0  0
    5.0220   -3.0423    2.2382 C   0  0  0  0  0  0  0  0  0  0  0  0
    3.6483   -2.8095    2.0578 C   0  0  0  0  0  0  0  0  0  0  0  0
    3.2110   -1.2967    2.7216 S   0  0  0  0  0  0  0  0  0  0  0  0
    2.7392   -3.6593    1.2758 C   0  0  0  0  0  0  0  0  0  0  0  0
    1.3910   -3.3901    1.0511 C   0  0  0  0  0  0  0  0  0  0  0  0
    0.7898   -4.3040    0.1734 C   0  0  0  0  0  0  0  0  0  0  0  0
   -0.5327   -4.2390   -0.2926 C   0  0  0  0  0  0  0  0  0  0  0  0
   -1.4831   -3.2532    0.2461 C   0  0  0  0  0  0  0  0  0  0  0  0
   -1.7085   -2.0345   -0.4137 C   0  0  0  0  0  0  0  0  0  0  0  0
   -2.5569   -1.0776    0.1567 C   0  0  0  0  0  0  0  0  0  0  0  0
   -3.1940   -1.3389    1.3792 C   0  0  0  0  0  0  0  0  0  0  0  0
   -4.2786   -0.1045    2.1070 S   0  0  0  0  0  0  0  0  0  0  0  0
   -5.8220   -0.8218    1.4345 C   0  0  0  0  0  0  0  0  0  0  0  0
   -6.0082   -0.4534   -0.0334 C   0  0  0  0  0  0  0  0  0  0  0  0
   -2.9503   -2.5472    2.0476 C   0  0  0  0  0  0  0  0  0  0  0  0
   -3.5370   -2.8013    3.2450 F   0  0  0  0  0  0  0  0  0  0  0  0
   -2.1014   -3.5009    1.4807 C   0  0  0  0  0  0  0  0  0  0  0  0
   -0.9100   -5.1734   -1.2680 C   0  0  0  0  0  0  0  0  0  0  0  0
   -0.0478   -6.1670   -1.7367 C   0  0  0  0  0  0  0  0  0  0  0  0
    1.2708   -6.2695   -1.2272 C   0  0  0  0  0  0  0  0  0  0  0  0
    2.2091   -7.3320   -1.6568 C   0  0  0  0  0  0  0  0  0  0  0  0
    2.5680   -7.4796   -3.0037 C   0  0  0  0  0  0  0  0  0  0  0  0
    3.4413   -8.5014   -3.3933 C   0  0  0  0  0  0  0  0  0  0  0  0
    3.9825   -9.3709   -2.4377 C   0  0  0  0  0  0  0  0  0  0  0  0
    5.1702  -10.6245   -2.9408 S   0  0  0  0  0  0  0  0  0  0  0  0
    3.9810  -12.0135   -2.9826 C   0  0  0  0  0  0  0  0  0  0  0  0
    3.0947  -11.9478   -4.2213 C   0  0  0  0  0  0  0  0  0  0  0  0
    3.6358   -9.2201   -1.0849 C   0  0  0  0  0  0  0  0  0  0  0  0
    2.7503   -8.2086   -0.6996 C   0  0  0  0  0  0  0  0  0  0  0  0
    4.1491  -10.0528   -0.1447 F   0  0  0  0  0  0  0  0  0  0  0  0
    1.6591   -5.2972   -0.2852 C   0  0  0  0  0  0  0  0  0  0  0  0
    3.1790   -5.0362    0.3945 S   0  0  0  0  0  0  0  0  0  0  0  0
   -0.6142   -6.9440   -2.7634 C   0  0  0  0  0  0  0  0  0  0  0  0
   -1.8948   -6.5206   -3.1304 C   0  0  0  0  0  0  0  0  0  0  0  0
   -2.3462   -5.2305   -2.1338 S   0  0  0  0  0  0  0  0  0  0  0  0
   -2.5511   -6.8226   -4.4166 C   0  0  0  0  0  0  0  0  0  0  0  0
   -3.9164   -5.9864   -4.9631 S   0  0  0  0  0  0  0  0  0  0  0  0
   -3.6648   -6.2888   -6.5913 C   0  0  0  0  0  0  0  0  0  0  0  0
   -3.8026   -5.3590   -7.6867 C   0  0  0  0  0  0  0  0  0  0  0  0
   -2.6823   -5.4480   -8.4804 C   0  0  0  0  0  0  0  0  0  0  0  0
   -1.7822   -6.5974   -8.0464 C   0  0  0  0  0  0  0  0  0  0  0  0
   -0.2905   -6.1698   -7.8448 C   0  0  0  0  0  0  0  0  0  0  0  0
   -0.0483   -5.0790   -6.7883 C   0  0  0  0  0  0  0  0  0  0  0  0
   -1.9049   -7.7928   -9.0256 C   0  0  0  0  0  0  0  0  0  0  0  0
   -1.4926   -7.4694  -10.4661 C   0  0  0  0  0  0  0  0  0  0  0  0
   -2.4741   -6.9647   -6.7395 C   0  0  0  0  0  0  0  0  0  0  0  0
   -1.8783   -7.3400   -5.5271 C   0  0  0  0  0  0  0  0  0  0  0  0
   -2.3064   -4.2276   -9.0695 C   0  0  0  0  0  0  0  0  0  0  0  0
   -3.1300   -3.1671   -8.6750 C   0  0  0  0  0  0  0  0  0  0  0  0
   -4.3036   -3.7660   -7.6149 S   0  0  0  0  0  0  0  0  0  0  0  0
   -2.6716   -1.7761   -8.5777 C   0  0  0  0  0  0  0  0  0  0  0  0
   -1.3965   -1.4443   -8.1199 C   0  0  0  0  0  0  0  0  0  0  0  0
   -1.3302   -0.1712   -7.5369 C   0  0  0  0  0  0  0  0  0  0  0  0
   -0.2556    0.3237   -6.7746 C   0  0  0  0  0  0  0  0  0  0  0  0
    0.9545   -0.4802   -6.5243 C   0  0  0  0  0  0  0  0  0  0  0  0
    2.1622   -0.1448   -7.1476 C   0  0  0  0  0  0  0  0  0  0  0  0
    3.3119   -0.8956   -6.8945 C   0  0  0  0  0  0  0  0  0  0  0  0
    3.2731   -1.9652   -5.9902 C   0  0  0  0  0  0  0  0  0  0  0  0
    4.7673   -2.9069   -5.6583 S   0  0  0  0  0  0  0  0  0  0  0  0
    5.2734   -1.9204   -4.1993 C   0  0  0  0  0  0  0  0  0  0  0  0
    5.9468   -0.6201   -4.6250 C   0  0  0  0  0  0  0  0  0  0  0  0
    2.0666   -2.3051   -5.3646 C   0  0  0  0  0  0  0  0  0  0  0  0
    2.0080   -3.3419   -4.4896 F   0  0  0  0  0  0  0  0  0  0  0  0
    0.9105   -1.5610   -5.6279 C   0  0  0  0  0  0  0  0  0  0  0  0
   -0.4661    1.5254   -6.0816 C   0  0  0  0  0  0  0  0  0  0  0  0
   -1.6768    2.2253   -6.1314 C   0  0  0  0  0  0  0  0  0  0  0  0
   -2.7442    1.7475   -6.9276 C   0  0  0  0  0  0  0  0  0  0  0  0
   -4.0523    2.4349   -6.9918 C   0  0  0  0  0  0  0  0  0  0  0  0
   -4.5396    2.8864   -8.2277 C   0  0  0  0  0  0  0  0  0  0  0  0
   -5.7444    3.5903   -8.2947 C   0  0  0  0  0  0  0  0  0  0  0  0
   -6.4690    3.8563   -7.1247 C   0  0  0  0  0  0  0  0  0  0  0  0
   -7.9679    4.8423   -7.2195 S   0  0  0  0  0  0  0  0  0  0  0  0
   -7.1010    6.4544   -7.2037 C   0  0  0  0  0  0  0  0  0  0  0  0
   -6.9084    6.9545   -5.7779 C   0  0  0  0  0  0  0  0  0  0  0  0
   -6.0135    3.3649   -5.8947 C   0  0  0  0  0  0  0  0  0  0  0  0
   -4.8151    2.6449   -5.8319 C   0  0  0  0  0  0  0  0  0  0  0  0
   -6.7178    3.5932   -4.7589 F   0  0  0  0  0  0  0  0  0  0  0  0
   -2.5365    0.5311   -7.6033 C   0  0  0  0  0  0  0  0  0  0  0  0
   -3.7024   -0.4624   -8.3022 S   0  0  0  0  0  0  0  0  0  0  0  0
   -1.7356    3.2815   -5.2036 C   0  0  0  0  0  0  0  0  0  0  0  0
   -0.6109    3.3564   -4.3834 C   0  0  0  0  0  0  0  0  0  0  0  0
    0.4919    2.1724   -4.8683 S   0  0  0  0  0  0  0  0  0  0  0  0
   -0.6153    3.9303   -3.0263 C   0  0  0  0  0  0  0  0  0  0  0  0
    0.4026    3.7213   -2.0951 C   0  0  0  0  0  0  0  0  0  0  0  0
   -0.0236    3.8578   -0.7674 C   0  0  0  0  0  0  0  0  0  0  0  0
    0.7223    3.5199    0.3791 C   0  0  0  0  0  0  0  0  0  0  0  0
    2.1357    3.0924    0.3180 C   0  0  0  0  0  0  0  0  0  0  0  0
    2.4962    1.8931   -0.3153 C   0  0  0  0  0  0  0  0  0  0  0  0
    3.8279    1.4692   -0.3037 C   0  0  0  0  0  0  0  0  0  0  0  0
    4.8060    2.2357    0.3447 C   0  0  0  0  0  0  0  0  0  0  0  0
    6.5092    1.6666    0.3799 S   0  0  0  0  0  0  0  0  0  0  0  0
    6.9853    2.4441   -1.2041 C   0  0  0  0  0  0  0  0  0  0  0  0
    7.2642    3.9326   -1.0253 C   0  0  0  0  0  0  0  0  0  0  0  0
    4.4449    3.4248    0.9923 C   0  0  0  0  0  0  0  0  0  0  0  0
    5.3756    4.1588    1.6580 F   0  0  0  0  0  0  0  0  0  0  0  0
    3.1157    3.8528    0.9754 C   0  0  0  0  0  0  0  0  0  0  0  0
    0.0402    3.5462    1.6041 C   0  0  0  0  0  0  0  0  0  0  0  0
   -1.3050    3.9190    1.7236 C   0  0  0  0  0  0  0  0  0  0  0  0
   -2.0396    4.2982    0.5776 C   0  0  0  0  0  0  0  0  0  0  0  0
   -3.4749    4.6317    0.6368 C   0  0  0  0  0  0  0  0  0  0  0  0
   -3.9108    5.9324    0.3433 C   0  0  0  0  0  0  0  0  0  0  0  0
   -5.2737    6.2371    0.3695 C   0  0  0  0  0  0  0  0  0  0  0  0
   -6.2135    5.2425    0.6713 C   0  0  0  0  0  0  0  0  0  0  0  0
   -7.9678    5.6398    0.6921 S   0  0  0  0  0  0  0  0  0  0  0  0
   -8.2648    5.1559   -1.0467 C   0  0  0  0  0  0  0  0  0  0  0  0
   -7.9312    6.3003   -1.9962 C   0  0  0  0  0  0  0  0  0  0  0  0
   -5.7808    3.9442    0.9765 C   0  0  0  0  0  0  0  0  0  0  0  0
   -4.4160    3.6415    0.9575 C   0  0  0  0  0  0  0  0  0  0  0  0
   -6.6773    2.9730    1.2858 F   0  0  0  0  0  0  0  0  0  0  0  0
   -1.3640    4.2464   -0.6542 C   0  0  0  0  0  0  0  0  0  0  0  0
   -2.0267    4.3567   -2.1944 S   0  0  0  0  0  0  0  0  0  0  0  0
   -1.7971    3.7931    3.0361 C   0  0  0  0  0  0  0  0  0  0  0  0
   -0.8424    3.2912    3.9207 C   0  0  0  0  0  0  0  0  0  0  0  0
    0.6044    3.0273    3.0964 S   0  0  0  0  0  0  0  0  0  0  0  0
   -1.0646    2.9225    5.3257 C   0  0  0  0  0  0  0  0  0  0  0  0
   -0.2882    2.0079    6.0317 C   0  0  0  0  0  0  0  0  0  0  0  0
   -0.7409    1.7982    7.3417 C   0  0  0  0  0  0  0  0  0  0  0  0
   -0.1803    0.9042    8.2787 C   0  0  0  0  0  0  0  0  0  0  0  0
    0.9947    0.0640    7.9536 C   0  0  0  0  0  0  0  0  0  0  0  0
    2.2221    0.6522    7.6035 C   0  0  0  0  0  0  0  0  0  0  0  0
    3.2925   -0.1440    7.1914 C   0  0  0  0  0  0  0  0  0  0  0  0
    3.1558   -1.5363    7.1458 C   0  0  0  0  0  0  0  0  0  0  0  0
    4.4957   -2.5481    6.5043 S   0  0  0  0  0  0  0  0  0  0  0  0
    5.4811   -2.5637    8.0450 C   0  0  0  0  0  0  0  0  0  0  0  0
    4.8584   -3.4775    9.0942 C   0  0  0  0  0  0  0  0  0  0  0  0
    1.9437   -2.1315    7.5191 C   0  0  0  0  0  0  0  0  0  0  0  0
    1.7890   -3.4803    7.4629 F   0  0  0  0  0  0  0  0  0  0  0  0
    0.8680   -1.3333    7.9183 C   0  0  0  0  0  0  0  0  0  0  0  0
   -0.8216    0.8186    9.5274 C   0  0  0  0  0  0  0  0  0  0  0  0
   -1.9473    1.5824    9.8522 C   0  0  0  0  0  0  0  0  0  0  0  0
   -2.5005    2.4894    8.9201 C   0  0  0  0  0  0  0  0  0  0  0  0
   -3.6426    3.3639    9.2617 C   0  0  0  0  0  0  0  0  0  0  0  0
   -3.5341    4.2675   10.3300 C   0  0  0  0  0  0  0  0  0  0  0  0
   -4.6130    5.0848   10.6734 C   0  0  0  0  0  0  0  0  0  0  0  0
   -5.8092    5.0148    9.9479 C   0  0  0  0  0  0  0  0  0  0  0  0
   -7.1887    6.0663   10.4104 S   0  0  0  0  0  0  0  0  0  0  0  0
   -6.6379    7.4596    9.3695 C   0  0  0  0  0  0  0  0  0  0  0  0
   -7.5805    8.6406    9.5407 C   0  0  0  0  0  0  0  0  0  0  0  0
   -5.9220    4.1187    8.8727 C   0  0  0  0  0  0  0  0  0  0  0  0
   -4.8420    3.2952    8.5335 C   0  0  0  0  0  0  0  0  0  0  0  0
   -7.0759    4.0386    8.1626 F   0  0  0  0  0  0  0  0  0  0  0  0
   -1.8787    2.5511    7.6571 C   0  0  0  0  0  0  0  0  0  0  0  0
   -2.3169    3.4765    6.3162 S   0  0  0  0  0  0  0  0  0  0  0  0
   -2.4310    1.3161   11.1452 C   0  0  0  0  0  0  0  0  0  0  0  0
   -1.6769    0.3743   11.8329 C   0  0  0  0  0  0  0  0  0  0  0  0
   -0.4143   -0.1464   10.8405 S   0  0  0  0  0  0  0  0  0  0  0  0
    7.2993    3.0502    4.4394 H   0  0  0  0  0  0  0  0  0  0  0  0
    7.7175   -2.6678    1.3822 H   0  0  0  0  0  0  0  0  0  0  0  0
    7.4018   -0.9363    1.1250 H   0  0  0  0  0  0  0  0  0  0  0  0
    9.5695   -0.4084    2.3499 H   0  0  0  0  0  0  0  0  0  0  0  0
    9.7655   -1.4060    0.8766 H   0  0  0  0  0  0  0  0  0  0  0  0
    9.8620   -2.2001    2.4759 H   0  0  0  0  0  0  0  0  0  0  0  0
    6.8565   -2.9410    4.9239 H   0  0  0  0  0  0  0  0  0  0  0  0
    8.1220   -3.4470    3.7943 H   0  0  0  0  0  0  0  0  0  0  0  0
    8.2256   -1.1321    5.8417 H   0  0  0  0  0  0  0  0  0  0  0  0
    9.1139   -2.6901    5.8876 H   0  0  0  0  0  0  0  0  0  0  0  0
    9.5435   -1.4649    4.6504 H   0  0  0  0  0  0  0  0  0  0  0  0
    8.7261    0.9203    3.9710 H   0  0  0  0  0  0  0  0  0  0  0  0
    5.5572   -3.8903    1.8329 H   0  0  0  0  0  0  0  0  0  0  0  0
    0.8720   -2.5407    1.4767 H   0  0  0  0  0  0  0  0  0  0  0  0
   -1.2169   -1.8264   -1.3564 H   0  0  0  0  0  0  0  0  0  0  0  0
   -2.7186   -0.1376   -0.3543 H   0  0  0  0  0  0  0  0  0  0  0  0
   -6.6767   -0.4141    2.0174 H   0  0  0  0  0  0  0  0  0  0  0  0
   -5.8222   -1.9260    1.5500 H   0  0  0  0  0  0  0  0  0  0  0  0
   -5.9612    0.6499   -0.1613 H   0  0  0  0  0  0  0  0  0  0  0  0
   -5.2234   -0.9262   -0.6601 H   0  0  0  0  0  0  0  0  0  0  0  0
   -6.9996   -0.8125   -0.3844 H   0  0  0  0  0  0  0  0  0  0  0  0
   -1.9146   -4.4296    2.0059 H   0  0  0  0  0  0  0  0  0  0  0  0
    2.1717   -6.8041   -3.7535 H   0  0  0  0  0  0  0  0  0  0  0  0
    3.7101   -8.6065   -4.4370 H   0  0  0  0  0  0  0  0  0  0  0  0
    3.3564  -12.0232   -2.0621 H   0  0  0  0  0  0  0  0  0  0  0  0
    4.5661  -12.9588   -3.0136 H   0  0  0  0  0  0  0  0  0  0  0  0
    2.3976  -11.0865   -4.1516 H   0  0  0  0  0  0  0  0  0  0  0  0
    2.4937  -12.8806   -4.2981 H   0  0  0  0  0  0  0  0  0  0  0  0
    3.7155  -11.8468   -5.1377 H   0  0  0  0  0  0  0  0  0  0  0  0
    2.4774   -8.1095    0.3426 H   0  0  0  0  0  0  0  0  0  0  0  0
   -0.0853   -7.7330   -3.2764 H   0  0  0  0  0  0  0  0  0  0  0  0
    0.3222   -7.0583   -7.5723 H   0  0  0  0  0  0  0  0  0  0  0  0
    0.1167   -5.7969   -8.8074 H   0  0  0  0  0  0  0  0  0  0  0  0
    0.9244   -4.5802   -6.9948 H   0  0  0  0  0  0  0  0  0  0  0  0
   -0.8418   -4.3074   -6.7921 H   0  0  0  0  0  0  0  0  0  0  0  0
    0.0162   -5.5083   -5.7686 H   0  0  0  0  0  0  0  0  0  0  0  0
   -2.9554   -8.1570   -9.0431 H   0  0  0  0  0  0  0  0  0  0  0  0
   -1.2777   -8.6335   -8.6558 H   0  0  0  0  0  0  0  0  0  0  0  0
   -1.6562   -8.3653  -11.1019 H   0  0  0  0  0  0  0  0  0  0  0  0
   -0.4182   -7.1962  -10.5268 H   0  0  0  0  0  0  0  0  0  0  0  0
   -2.1087   -6.6430  -10.8764 H   0  0  0  0  0  0  0  0  0  0  0  0
   -0.8755   -7.7452   -5.4774 H   0  0  0  0  0  0  0  0  0  0  0  0
   -1.3524   -4.0743   -9.5601 H   0  0  0  0  0  0  0  0  0  0  0  0
   -0.5905   -2.1623   -8.0661 H   0  0  0  0  0  0  0  0  0  0  0  0
    2.2088    0.6907   -7.8365 H   0  0  0  0  0  0  0  0  0  0  0  0
    4.2379   -0.6396   -7.3906 H   0  0  0  0  0  0  0  0  0  0  0  0
    4.3997   -1.7020   -3.5508 H   0  0  0  0  0  0  0  0  0  0  0  0
    5.9983   -2.5224   -3.6110 H   0  0  0  0  0  0  0  0  0  0  0  0
    6.3922   -0.1118   -3.7406 H   0  0  0  0  0  0  0  0  0  0  0  0
    6.7566   -0.8273   -5.3566 H   0  0  0  0  0  0  0  0  0  0  0  0
    5.2053    0.0693   -5.0805 H   0  0  0  0  0  0  0  0  0  0  0  0
   -0.0163   -1.8216   -5.1329 H   0  0  0  0  0  0  0  0  0  0  0  0
   -3.9739    2.7183   -9.1377 H   0  0  0  0  0  0  0  0  0  0  0  0
   -6.1034    3.9490   -9.2481 H   0  0  0  0  0  0  0  0  0  0  0  0
   -6.1189    6.3865   -7.7136 H   0  0  0  0  0  0  0  0  0  0  0  0
   -7.7144    7.1915   -7.7641 H   0  0  0  0  0  0  0  0  0  0  0  0
   -7.8967    7.1329   -5.3030 H   0  0  0  0  0  0  0  0  0  0  0  0
   -6.3379    6.2163   -5.1793 H   0  0  0  0  0  0  0  0  0  0  0  0
   -6.3412    7.9096   -5.7941 H   0  0  0  0  0  0  0  0  0  0  0  0
   -4.4687    2.2745   -4.8737 H   0  0  0  0  0  0  0  0  0  0  0  0
   -2.6122    3.8909   -5.0370 H   0  0  0  0  0  0  0  0  0  0  0  0
    1.3817    3.3528   -2.3679 H   0  0  0  0  0  0  0  0  0  0  0  0
    1.7462    1.2801   -0.8028 H   0  0  0  0  0  0  0  0  0  0  0  0
    4.0989    0.5391   -0.7864 H   0  0  0  0  0  0  0  0  0  0  0  0
    6.1970    2.2890   -1.9720 H   0  0  0  0  0  0  0  0  0  0  0  0
    7.9103    1.9473   -1.5658 H   0  0  0  0  0  0  0  0  0  0  0  0
    7.7201    4.3389   -1.9533 H   0  0  0  0  0  0  0  0  0  0  0  0
    7.9642    4.1030   -0.1772 H   0  0  0  0  0  0  0  0  0  0  0  0
    6.3183    4.4805   -0.8392 H   0  0  0  0  0  0  0  0  0  0  0  0
    2.8439    4.7713    1.4817 H   0  0  0  0  0  0  0  0  0  0  0  0
   -3.1956    6.7095    0.0952 H   0  0  0  0  0  0  0  0  0  0  0  0
   -5.6029    7.2451    0.1500 H   0  0  0  0  0  0  0  0  0  0  0  0
   -9.3407    4.9036   -1.1536 H   0  0  0  0  0  0  0  0  0  0  0  0
   -7.6720    4.2546   -1.3126 H   0  0  0  0  0  0  0  0  0  0  0  0
   -8.1895    6.0067   -3.0350 H   0  0  0  0  0  0  0  0  0  0  0  0
   -8.5093    7.2102   -1.7234 H   0  0  0  0  0  0  0  0  0  0  0  0
   -6.8482    6.5358   -1.9576 H   0  0  0  0  0  0  0  0  0  0  0  0
   -4.0887    2.6354    1.1772 H   0  0  0  0  0  0  0  0  0  0  0  0
   -2.8172    4.0090    3.3198 H   0  0  0  0  0  0  0  0  0  0  0  0
    0.5557    1.4906    5.5975 H   0  0  0  0  0  0  0  0  0  0  0  0
    2.3342    1.7306    7.6255 H   0  0  0  0  0  0  0  0  0  0  0  0
    4.2282    0.3214    6.9011 H   0  0  0  0  0  0  0  0  0  0  0  0
    6.4945   -2.9441    7.7941 H   0  0  0  0  0  0  0  0  0  0  0  0
    5.5979   -1.5344    8.4498 H   0  0  0  0  0  0  0  0  0  0  0  0
    5.6134   -3.7410    9.8627 H   0  0  0  0  0  0  0  0  0  0  0  0
    4.4882   -4.4157    8.6316 H   0  0  0  0  0  0  0  0  0  0  0  0
    4.0178   -2.9585    9.5970 H   0  0  0  0  0  0  0  0  0  0  0  0
   -0.0758   -1.8019    8.1687 H   0  0  0  0  0  0  0  0  0  0  0  0
   -2.6111    4.3406   10.8929 H   0  0  0  0  0  0  0  0  0  0  0  0
   -4.5142    5.7795   11.5000 H   0  0  0  0  0  0  0  0  0  0  0  0
   -6.6313    7.1483    8.3031 H   0  0  0  0  0  0  0  0  0  0  0  0
   -5.6111    7.7649    9.6646 H   0  0  0  0  0  0  0  0  0  0  0  0
   -7.5817    8.9810   10.5986 H   0  0  0  0  0  0  0  0  0  0  0  0
   -8.6116    8.3490    9.2488 H   0  0  0  0  0  0  0  0  0  0  0  0
   -7.2516    9.4811    8.8931 H   0  0  0  0  0  0  0  0  0  0  0  0
   -4.9405    2.5961    7.7124 H   0  0  0  0  0  0  0  0  0  0  0  0
   -3.3082    1.7805   11.5721 H   0  0  0  0  0  0  0  0  0  0  0  0
   -1.8777    0.0258   12.8380 H   0  0  0  0  0  0  0  0  0  0  0  0
  1  2  1  0
  2  3  1  0
  3  4  1  0
  4  5  2  0
  5  6  1  0
  6  7  1  0
  7  8  1  0
  6  9  1  0
  9 10  1  0
  6 11  1  0
 11 12  1  0
  5 13  1  0
 13 14  2  0
 14 15  1  0
 14 16  1  0
 16 17  2  0
 17 18  1  0
 18 19  2  0
 19 20  1  0
 20 21  2  0
 21 22  1  0
 22 23  2  0
 23 24  1  0
 24 25  1  0
 25 26  1  0
 23 27  1  0
 27 28  1  0
 27 29  2  0
 19 30  1  0
 30 31  2  0
 31 32  1  0
 32 33  1  0
 33 34  2  0
 34 35  1  0
 35 36  2  0
 36 37  1  0
 37 38  1  0
 38 39  1  0
 36 40  1  0
 40 41  2  0
 40 42  1  0
 32 43  2  0
 43 44  1  0
 31 45  1  0
 45 46  2  0
 46 47  1  0
 46 48  1  0
 48 49  1  0
 49 50  1  0
 50 51  1  0
 51 52  2  0
 52 53  1  0
 53 54  1  0
 54 55  1  0
 53 56  1  0
 56 57  1  0
 53 58  1  0
 58 59  1  0
 52 60  1  0
 60 61  2  0
 61 62  1  0
 61 63  1  0
 63 64  2  0
 64 65  1  0
 65 66  2  0
 66 67  1  0
 67 68  2  0
 68 69  1  0
 69 70  2  0
 70 71  1  0
 71 72  1  0
 72 73  1  0
 70 74  1  0
 74 75  1  0
 74 76  2  0
 66 77  1  0
 77 78  2  0
 78 79  1  0
 79 80  1  0
 80 81  2  0
 81 82  1  0
 82 83  2  0
 83 84  1  0
 84 85  1  0
 85 86  1  0
 83 87  1  0
 87 88  2  0
 87 89  1  0
 79 90  2  0
 90 91  1  0
 78 92  1  0
 92 93  2  0
 93 94  1  0
 93 95  1  0
 95 96  2  0
 96 97  1  0
 97 98  2  0
 98 99  1  0
 99100  2  0
100101  1  0
101102  2  0
102103  1  0
103104  1  0
104105  1  0
102106  1  0
106107  1  0
106108  2  0
 98109  1  0
109110  2  0
110111  1  0
111112  1  0
112113  2  0
113114  1  0
114115  2  0
115116  1  0
116117  1  0
117118  1  0
115119  1  0
119120  2  0
119121  1  0
111122  2  0
122123  1  0
110124  1  0
124125  2  0
125126  1  0
125127  1  0
127128  2  0
128129  1  0
129130  2  0
130131  1  0
131132  2  0
132133  1  0
133134  2  0
134135  1  0
135136  1  0
136137  1  0
134138  1  0
138139  1  0
138140  2  0
130141  1  0
141142  2  0
142143  1  0
143144  1  0
144145  2  0
145146  1  0
146147  2  0
147148  1  0
148149  1  0
149150  1  0
147151  1  0
151152  2  0
151153  1  0
143154  2  0
154155  1  0
142156  1  0
156157  2  0
157158  1  0
 12  1  2  0
 44 16  1  0
 59 48  2  0
 91 63  1  0
123 95  1  0
155127  1  0
 11  3  2  0
 43 18  1  0
 58 50  2  0
 90 65  1  0
122 97  1  0
154129  1  0
 15  4  1  0
 29 20  1  0
 47 30  1  0
 62 51  1  0
 76 67  1  0
 94 77  1  0
108 99  1  0
126109  1  0
140131  1  0
158141  1  0
 41 33  1  0
 88 80  1  0
120112  1  0
152144  1  0
  1159  1  0
  7160  1  0
  7161  1  0
  8162  1  0
  8163  1  0
  8164  1  0
  9165  1  0
  9166  1  0
 10167  1  0
 10168  1  0
 10169  1  0
 12170  1  0
 13171  1  0
 17172  1  0
 21173  1  0
 22174  1  0
 25175  1  0
 25176  1  0
 26177  1  0
 26178  1  0
 26179  1  0
 29180  1  0
 34181  1  0
 35182  1  0
 38183  1  0
 38184  1  0
 39185  1  0
 39186  1  0
 39187  1  0
 41188  1  0
 45189  1  0
 54190  1  0
 54191  1  0
 55192  1  0
 55193  1  0
 55194  1  0
 56195  1  0
 56196  1  0
 57197  1  0
 57198  1  0
 57199  1  0
 59200  1  0
 60201  1  0
 64202  1  0
 68203  1  0
 69204  1  0
 72205  1  0
 72206  1  0
 73207  1  0
 73208  1  0
 73209  1  0
 76210  1  0
 81211  1  0
 82212  1  0
 85213  1  0
 85214  1  0
 86215  1  0
 86216  1  0
 86217  1  0
 88218  1  0
 92219  1  0
 96220  1  0
100221  1  0
101222  1  0
104223  1  0
104224  1  0
105225  1  0
105226  1  0
105227  1  0
108228  1  0
113229  1  0
114230  1  0
117231  1  0
117232  1  0
118233  1  0
118234  1  0
118235  1  0
120236  1  0
124237  1  0
128238  1  0
132239  1  0
133240  1  0
136241  1  0
136242  1  0
137243  1  0
137244  1  0
137245  1  0
140246  1  0
145247  1  0
146248  1  0
149249  1  0
149250  1  0
150251  1  0
150252  1  0
150253  1  0
152254  1  0
156255  1  0
157256  1  0
M  END

