
     RDKit          3D

128141  0  0  0  0  0  0  0  0999 V2000
   10.4117  -10.2745    1.7241 C   0  0  0  0  0  0  0  0  0  0  0  0
    9.3100   -9.2269    2.4425 S   0  0  0  0  0  0  0  0  0  0  0  0
    9.4503   -7.9753    1.3240 C   0  0  0  0  0  0  0  0  0  0  0  0
   10.3693   -8.3755    0.3484 C   0  0  0  0  0  0  0  0  0  0  0  0
   10.8961   -9.6521    0.5810 C   0  0  0  0  0  0  0  0  0  0  0  0
   11.7780  -10.3060   -0.4332 C   0  0  0  0  0  0  0  0  0  0  0  0
   12.7556   -9.2742   -1.0175 C   0  0  0  0  0  0  0  0  0  0  0  0
   12.1125   -7.9144   -1.4154 C   0  0  0  0  0  0  0  0  0  0  0  0
   10.6430   -7.6980   -0.9743 C   0  0  1  0  0  0  0  0  0  0  0  0
    9.7791   -8.2286   -1.9465 O   0  0  0  0  0  0  0  0  0  0  0  0
    8.6437   -6.7461    1.3634 C   0  0  0  0  0  0  0  0  0  0  0  0
    6.9835   -6.7118    1.7646 S   0  0  0  0  0  0  0  0  0  0  0  0
    6.8911   -5.0548    1.5742 C   0  0  0  0  0  0  0  0  0  0  0  0
    5.8824   -4.0456    1.4781 C   0  0  0  0  0  0  0  0  0  0  0  0
    6.4589   -2.8880    1.0571 C   0  0  0  0  0  0  0  0  0  0  0  0
    7.9591   -3.0363    0.8358 C   0  0  0  0  0  0  0  0  0  0  0  0
    8.3362   -2.8337   -0.6576 C   0  0  0  0  0  0  0  0  0  0  0  0
    8.3532   -1.3771   -1.1284 C   0  0  0  0  0  0  0  0  0  0  0  0
    8.7270   -2.1393    1.8441 C   0  0  0  0  0  0  0  0  0  0  0  0
   10.2477   -2.2999    1.8079 C   0  0  0  0  0  0  0  0  0  0  0  0
    8.0808   -4.5125    1.2003 C   0  0  0  0  0  0  0  0  0  0  0  0
    9.1035   -5.4527    1.0759 C   0  0  0  0  0  0  0  0  0  0  0  0
    5.5650   -1.8204    0.9848 C   0  0  0  0  0  0  0  0  0  0  0  0
    4.2663   -2.2152    1.3448 C   0  0  0  0  0  0  0  0  0  0  0  0
    4.2457   -3.8675    1.7777 S   0  0  0  0  0  0  0  0  0  0  0  0
    3.0909   -1.3302    1.3659 C   0  0  0  0  0  0  0  0  0  0  0  0
    1.6066   -1.7131    2.1246 S   0  0  0  0  0  0  0  0  0  0  0  0
    0.9132   -0.2588    1.6745 C   0  0  0  0  0  0  0  0  0  0  0  0
   -0.3646    0.3860    1.7219 C   0  0  0  0  0  0  0  0  0  0  0  0
   -0.3089    1.5270    0.9819 C   0  0  0  0  0  0  0  0  0  0  0  0
    1.0778    1.7523    0.3886 C   0  0  0  0  0  0  0  0  0  0  0  0
    1.0519    1.7803   -1.1655 C   0  0  0  0  0  0  0  0  0  0  0  0
    0.5529    0.4802   -1.8112 C   0  0  0  0  0  0  0  0  0  0  0  0
    1.7870    2.9918    0.9949 C   0  0  0  0  0  0  0  0  0  0  0  0
    1.0772    4.3228    0.7330 C   0  0  0  0  0  0  0  0  0  0  0  0
    1.7547    0.4967    0.9211 C   0  0  0  0  0  0  0  0  0  0  0  0
    3.0108   -0.0761    0.7362 C   0  0  0  0  0  0  0  0  0  0  0  0
   -1.5542    2.1270    0.7912 C   0  0  0  0  0  0  0  0  0  0  0  0
   -2.5658    1.4214    1.4595 C   0  0  0  0  0  0  0  0  0  0  0  0
   -1.9266    0.0218    2.1955 S   0  0  0  0  0  0  0  0  0  0  0  0
   -3.9979    1.7665    1.4193 C   0  0  0  0  0  0  0  0  0  0  0  0
   -4.7965    2.3262    0.0492 S   0  0  0  0  0  0  0  0  0  0  0  0
   -6.3106    2.5096    0.7562 C   0  0  0  0  0  0  0  0  0  0  0  0
   -6.2022    2.1982    2.1198 C   0  0  0  0  0  0  0  0  0  0  0  0
   -4.9119    1.7420    2.4819 C   0  0  0  0  0  0  0  0  0  0  0  0
   -4.5237    1.4888    3.9184 C   0  0  0  0  0  0  0  0  0  0  0  0
   -5.7502    1.2882    4.8150 C   0  0  0  0  0  0  0  0  0  0  0  0
   -6.7818    2.3912    4.5688 C   0  0  0  0  0  0  0  0  0  0  0  0
   -7.3258    2.3152    3.1308 C   0  0  1  0  0  0  0  0  0  0  0  0
   -8.1002    3.4585    2.8616 O   0  0  0  0  0  0  0  0  0  0  0  0
   -7.4881    3.0132    0.0273 C   0  0  0  0  0  0  0  0  0  0  0  0
   -7.4543    4.3565   -0.9890 S   0  0  0  0  0  0  0  0  0  0  0  0
   -9.0501    4.2533   -1.4995 C   0  0  0  0  0  0  0  0  0  0  0  0
   -9.6432    3.1468   -0.8931 C   0  0  0  0  0  0  0  0  0  0  0  0
   -8.7630    2.4409   -0.0523 C   0  0  0  0  0  0  0  0  0  0  0  0
   -9.1692    1.1311    0.5488 C   0  0  0  0  0  0  0  0  0  0  0  0
  -10.1165    0.4114   -0.4175 C   0  0  0  0  0  0  0  0  0  0  0  0
  -11.3740    1.2562   -0.6973 C   0  0  0  0  0  0  0  0  0  0  0  0
  -11.0947    2.7498   -1.0600 C   0  0  1  0  0  0  0  0  0  0  0  0
  -11.8732    3.5914   -0.2412 O   0  0  0  0  0  0  0  0  0  0  0  0
   -9.6271    5.0785   -2.5646 C   0  0  0  0  0  0  0  0  0  0  0  0
   -9.9547    6.7222   -2.4347 S   0  0  0  0  0  0  0  0  0  0  0  0
  -10.3723    6.9568   -4.0516 C   0  0  0  0  0  0  0  0  0  0  0  0
  -10.2094    5.7492   -4.7230 C   0  0  0  0  0  0  0  0  0  0  0  0
   -9.8108    4.6884   -3.8915 C   0  0  0  0  0  0  0  0  0  0  0  0
   -9.4142    3.3391   -4.4347 C   0  0  0  0  0  0  0  0  0  0  0  0
   -9.9429    3.1146   -5.8619 C   0  0  0  0  0  0  0  0  0  0  0  0
   -9.7220    4.3516   -6.7406 C   0  0  0  0  0  0  0  0  0  0  0  0
  -10.4931    5.5693   -6.1880 C   0  0  1  0  0  0  0  0  0  0  0  0
  -11.8785    5.3954   -6.3572 O   0  0  0  0  0  0  0  0  0  0  0  0
   10.6588  -11.2715    2.0688 H   0  0  0  0  0  0  0  0  0  0  0  0
   12.3482  -11.1418    0.0255 H   0  0  0  0  0  0  0  0  0  0  0  0
   11.1419  -10.7205   -1.2489 H   0  0  0  0  0  0  0  0  0  0  0  0
   13.5454   -9.0792   -0.2549 H   0  0  0  0  0  0  0  0  0  0  0  0
   13.2593   -9.7176   -1.8984 H   0  0  0  0  0  0  0  0  0  0  0  0
   12.7288   -7.0963   -0.9814 H   0  0  0  0  0  0  0  0  0  0  0  0
   12.1749   -7.7894   -2.5210 H   0  0  0  0  0  0  0  0  0  0  0  0
   10.4807   -6.6036   -0.9051 H   0  0  0  0  0  0  0  0  0  0  0  0
    8.8843   -7.8307   -1.7835 H   0  0  0  0  0  0  0  0  0  0  0  0
    7.6219   -3.4027   -1.2949 H   0  0  0  0  0  0  0  0  0  0  0  0
    9.3401   -3.2697   -0.8497 H   0  0  0  0  0  0  0  0  0  0  0  0
    7.3814   -0.8834   -0.9529 H   0  0  0  0  0  0  0  0  0  0  0  0
    9.1587   -0.8078   -0.6233 H   0  0  0  0  0  0  0  0  0  0  0  0
    8.5533   -1.3537   -2.2187 H   0  0  0  0  0  0  0  0  0  0  0  0
    8.3811   -2.3658    2.8820 H   0  0  0  0  0  0  0  0  0  0  0  0
    8.4738   -1.0697    1.6603 H   0  0  0  0  0  0  0  0  0  0  0  0
   10.5412   -3.3069    2.1636 H   0  0  0  0  0  0  0  0  0  0  0  0
   10.6446   -2.1350    0.7866 H   0  0  0  0  0  0  0  0  0  0  0  0
   10.7106   -1.5562    2.4866 H   0  0  0  0  0  0  0  0  0  0  0  0
   10.1164   -5.2078    0.7928 H   0  0  0  0  0  0  0  0  0  0  0  0
    5.8460   -0.8089    0.7220 H   0  0  0  0  0  0  0  0  0  0  0  0
    0.3919    2.6024   -1.5123 H   0  0  0  0  0  0  0  0  0  0  0  0
    2.0756    1.9894   -1.5480 H   0  0  0  0  0  0  0  0  0  0  0  0
    0.4664    0.6302   -2.9061 H   0  0  0  0  0  0  0  0  0  0  0  0
   -0.4418    0.1946   -1.4165 H   0  0  0  0  0  0  0  0  0  0  0  0
    1.2709   -0.3377   -1.6324 H   0  0  0  0  0  0  0  0  0  0  0  0
    1.8773    2.8671    2.0987 H   0  0  0  0  0  0  0  0  0  0  0  0
    2.8180    3.0566    0.5877 H   0  0  0  0  0  0  0  0  0  0  0  0
    1.7038    5.1477    1.1323 H   0  0  0  0  0  0  0  0  0  0  0  0
    0.1054    4.3515    1.2585 H   0  0  0  0  0  0  0  0  0  0  0  0
    0.9305    4.5002   -0.3489 H   0  0  0  0  0  0  0  0  0  0  0  0
    3.7984    0.3778    0.1487 H   0  0  0  0  0  0  0  0  0  0  0  0
   -1.7254    3.0044    0.1829 H   0  0  0  0  0  0  0  0  0  0  0  0
   -3.8969    0.5779    3.9959 H   0  0  0  0  0  0  0  0  0  0  0  0
   -3.9320    2.3516    4.2898 H   0  0  0  0  0  0  0  0  0  0  0  0
   -5.4393    1.2896    5.8801 H   0  0  0  0  0  0  0  0  0  0  0  0
   -6.2052    0.3008    4.5872 H   0  0  0  0  0  0  0  0  0  0  0  0
   -7.6216    2.2700    5.2836 H   0  0  0  0  0  0  0  0  0  0  0  0
   -6.3184    3.3873    4.7494 H   0  0  0  0  0  0  0  0  0  0  0  0
   -7.9506    1.3983    3.0483 H   0  0  0  0  0  0  0  0  0  0  0  0
   -8.9622    3.3393    3.3406 H   0  0  0  0  0  0  0  0  0  0  0  0
   -8.2820    0.4881    0.7330 H   0  0  0  0  0  0  0  0  0  0  0  0
   -9.7001    1.3177    1.5081 H   0  0  0  0  0  0  0  0  0  0  0  0
  -10.4190   -0.5662    0.0184 H   0  0  0  0  0  0  0  0  0  0  0  0
   -9.5895    0.2146   -1.3766 H   0  0  0  0  0  0  0  0  0  0  0  0
  -12.0332    1.1966    0.1994 H   0  0  0  0  0  0  0  0  0  0  0  0
  -11.9331    0.7805   -1.5364 H   0  0  0  0  0  0  0  0  0  0  0  0
  -11.3907    2.9133   -2.1224 H   0  0  0  0  0  0  0  0  0  0  0  0
  -12.8191    3.4436   -0.5001 H   0  0  0  0  0  0  0  0  0  0  0  0
  -10.6781    7.8922   -4.4961 H   0  0  0  0  0  0  0  0  0  0  0  0
   -8.3031    3.2593   -4.4313 H   0  0  0  0  0  0  0  0  0  0  0  0
   -9.8128    2.5315   -3.7835 H   0  0  0  0  0  0  0  0  0  0  0  0
   -9.4254    2.2399   -6.3095 H   0  0  0  0  0  0  0  0  0  0  0  0
  -11.0302    2.8793   -5.8184 H   0  0  0  0  0  0  0  0  0  0  0  0
   -8.6357    4.5889   -6.7790 H   0  0  0  0  0  0  0  0  0  0  0  0
  -10.0541    4.1328   -7.7774 H   0  0  0  0  0  0  0  0  0  0  0  0
  -10.1658    6.4868   -6.7378 H   0  0  0  0  0  0  0  0  0  0  0  0
  -12.0590    5.4393   -7.3335 H   0  0  0  0  0  0  0  0  0  0  0  0
  1  2  1  0
  2  3  1  0
  3  4  2  0
  4  5  1  0
  5  6  1  0
  6  7  1  0
  7  8  1  0
  8  9  1  0
  9 10  1  0
  3 11  1  0
 11 12  1  0
 12 13  1  0
 13 14  1  0
 14 15  2  0
 15 16  1  0
 16 17  1  0
 17 18  1  0
 16 19  1  0
 19 20  1  0
 16 21  1  0
 21 22  1  0
 15 23  1  0
 23 24  2  0
 24 25  1  0
 24 26  1  0
 26 27  1  0
 27 28  1  0
 28 29  1  0
 29 30  2  0
 30 31  1  0
 31 32  1  0
 32 33  1  0
 31 34  1  0
 34 35  1  0
 31 36  1  0
 36 37  1  0
 30 38  1  0
 38 39  2  0
 39 40  1  0
 39 41  1  0
 41 42  1  0
 42 43  1  0
 43 44  2  0
 44 45  1  0
 45 46  1  0
 46 47  1  0
 47 48  1  0
 48 49  1  0
 49 50  1  0
 43 51  1  0
 51 52  1  0
 52 53  1  0
 53 54  2  0
 54 55  1  0
 55 56  1  0
 56 57  1  0
 57 58  1  0
 58 59  1  0
 59 60  1  0
 53 61  1  0
 61 62  1  0
 62 63  1  0
 63 64  2  0
 64 65  1  0
 65 66  1  0
 66 67  1  0
 67 68  1  0
 68 69  1  0
 69 70  1  0
  5  1  2  0
 22 11  2  0
 37 26  2  0
 45 41  2  0
 55 51  2  0
 65 61  2  0
  9  4  1  0
 21 13  2  0
 36 28  2  0
 49 44  1  0
 59 54  1  0
 69 64  1  0
 25 14  1  0
 40 29  1  0
  1 71  1  0
  6 72  1  0
  6 73  1  0
  7 74  1  0
  7 75  1  0
  8 76  1  0
  8 77  1  0
  9 78  1  1
 10 79  1  0
 17 80  1  0
 17 81  1  0
 18 82  1  0
 18 83  1  0
 18 84  1  0
 19 85  1  0
 19 86  1  0
 20 87  1  0
 20 88  1  0
 20 89  1  0
 22 90  1  0
 23 91  1  0
 32 92  1  0
 32 93  1  0
 33 94  1  0
 33 95  1  0
 33 96  1  0
 34 97  1  0
 34 98  1  0
 35 99  1  0
 35100  1  0
 35101  1  0
 37102  1  0
 38103  1  0
 46104  1  0
 46105  1  0
 47106  1  0
 47107  1  0
 48108  1  0
 48109  1  0
 49110  1  1
 50111  1  0
 56112  1  0
 56113  1  0
 57114  1  0
 57115  1  0
 58116  1  0
 58117  1  0
 59118  1  6
 60119  1  0
 63120  1  0
 66121  1  0
 66122  1  0
 67123  1  0
 67124  1  0
 68125  1  0
 68126  1  0
 69127  1  6
 70128  1  0
M  END

