
     RDKit          3D

124137  0  0  0  0  0  0  0  0999 V2000
   10.7978    2.3348    7.1423 C   0  0  0  0  0  0  0  0  0  0  0  0
   11.3952    1.2650    5.9845 S   0  0  0  0  0  0  0  0  0  0  0  0
   11.3871    2.3369    4.6858 C   0  0  0  0  0  0  0  0  0  0  0  0
   10.9531    3.5762    5.1557 C   0  0  0  0  0  0  0  0  0  0  0  0
   10.6124    3.5634    6.5197 C   0  0  0  0  0  0  0  0  0  0  0  0
   10.1490    4.7213    7.1501 C   0  0  0  0  0  0  0  0  0  0  0  0
   10.0293    5.8997    6.4007 C   0  0  0  0  0  0  0  0  0  0  0  0
   10.3789    5.9181    5.0389 C   0  0  0  0  0  0  0  0  0  0  0  0
   10.2630    7.0675    4.3293 F   0  0  0  0  0  0  0  0  0  0  0  0
   10.8456    4.7551    4.4087 C   0  0  0  0  0  0  0  0  0  0  0  0
   11.8873    2.0149    3.3426 C   0  0  0  0  0  0  0  0  0  0  0  0
   11.1497    1.9969    2.2220 C   0  0  0  0  0  0  0  0  0  0  0  0
    9.6829    2.1840    2.1189 C   0  0  0  0  0  0  0  0  0  0  0  0
    8.5570    2.3156    3.3980 S   0  0  0  0  0  0  0  0  0  0  0  0
    7.2506    2.4106    2.3652 C   0  0  0  0  0  0  0  0  0  0  0  0
    5.8260    2.3920    2.4614 C   0  0  0  0  0  0  0  0  0  0  0  0
    5.3207    2.1676    1.2143 C   0  0  0  0  0  0  0  0  0  0  0  0
    6.4099    2.1148    0.1443 C   0  0  0  0  0  0  0  0  0  0  0  0
    6.3614    0.7378   -0.5810 C   0  0  0  0  0  0  0  0  0  0  0  0
    7.3940    0.5397   -1.6913 C   0  0  0  0  0  0  0  0  0  0  0  0
    6.3277    3.3525   -0.7873 C   0  0  0  0  0  0  0  0  0  0  0  0
    5.0964    3.3746   -1.6956 C   0  0  0  0  0  0  0  0  0  0  0  0
    7.6171    2.2485    1.0674 C   0  0  0  0  0  0  0  0  0  0  0  0
    8.9984    2.1560    0.8929 C   0  0  0  0  0  0  0  0  0  0  0  0
    4.0035    1.7052    1.2335 C   0  0  0  0  0  0  0  0  0  0  0  0
    3.5086    1.6197    2.5404 C   0  0  0  0  0  0  0  0  0  0  0  0
    4.7214    2.0224    3.6636 S   0  0  0  0  0  0  0  0  0  0  0  0
    2.2168    1.0419    2.9079 C   0  0  0  0  0  0  0  0  0  0  0  0
    1.5659   -0.3648    2.2033 S   0  0  0  0  0  0  0  0  0  0  0  0
    0.1948   -0.2918    3.1593 C   0  0  0  0  0  0  0  0  0  0  0  0
   -1.0825   -0.9280    3.1938 C   0  0  0  0  0  0  0  0  0  0  0  0
   -1.9247   -0.1551    3.9414 C   0  0  0  0  0  0  0  0  0  0  0  0
   -1.2116    1.0551    4.5485 C   0  0  0  0  0  0  0  0  0  0  0  0
   -1.1148    0.9268    6.0918 C   0  0  0  0  0  0  0  0  0  0  0  0
   -2.4644    0.9950    6.8095 C   0  0  0  0  0  0  0  0  0  0  0  0
   -1.8826    2.3640    4.0318 C   0  0  0  0  0  0  0  0  0  0  0  0
   -1.2653    3.6713    4.5312 C   0  0  0  0  0  0  0  0  0  0  0  0
    0.1613    0.8305    3.9264 C   0  0  0  0  0  0  0  0  0  0  0  0
    1.3323    1.5855    3.8472 C   0  0  0  0  0  0  0  0  0  0  0  0
   -3.2762   -0.3759    3.6486 C   0  0  0  0  0  0  0  0  0  0  0  0
   -3.4468   -1.3614    2.6635 C   0  0  0  0  0  0  0  0  0  0  0  0
   -1.9246   -1.8667    2.1006 S   0  0  0  0  0  0  0  0  0  0  0  0
   -4.7052   -1.6974    1.9730 C   0  0  0  0  0  0  0  0  0  0  0  0
   -4.7592   -2.2001    0.3675 S   0  0  0  0  0  0  0  0  0  0  0  0
   -6.4266   -2.2976    0.2198 C   0  0  0  0  0  0  0  0  0  0  0  0
   -6.9882   -1.9596    1.4534 C   0  0  0  0  0  0  0  0  0  0  0  0
   -6.0263   -1.6331    2.4389 C   0  0  0  0  0  0  0  0  0  0  0  0
   -6.4343   -1.3599    3.7529 C   0  0  0  0  0  0  0  0  0  0  0  0
   -7.8010   -1.3757    4.0635 C   0  0  0  0  0  0  0  0  0  0  0  0
   -8.7536   -1.6860    3.0805 C   0  0  0  0  0  0  0  0  0  0  0  0
  -10.0709   -1.7116    3.4048 F   0  0  0  0  0  0  0  0  0  0  0  0
   -8.3521   -1.9956    1.7754 C   0  0  0  0  0  0  0  0  0  0  0  0
   -7.0813   -2.7124   -1.0268 C   0  0  0  0  0  0  0  0  0  0  0  0
   -8.1269   -2.0682   -1.5474 C   0  0  0  0  0  0  0  0  0  0  0  0
   -8.5303   -2.3727   -2.9228 C   0  0  0  0  0  0  0  0  0  0  0  0
   -7.7218   -1.7601   -4.2611 S   0  0  0  0  0  0  0  0  0  0  0  0
   -8.2973   -2.8655   -5.3926 C   0  0  0  0  0  0  0  0  0  0  0  0
   -9.1576   -3.7487   -4.7224 C   0  0  0  0  0  0  0  0  0  0  0  0
   -9.2597   -3.4849   -3.3405 C   0  0  0  0  0  0  0  0  0  0  0  0
   -9.9993   -4.3293   -2.5075 C   0  0  0  0  0  0  0  0  0  0  0  0
  -10.6715   -5.4217   -3.0694 C   0  0  0  0  0  0  0  0  0  0  0  0
  -10.6159   -5.6586   -4.4518 C   0  0  0  0  0  0  0  0  0  0  0  0
  -11.2860   -6.7118   -4.9811 F   0  0  0  0  0  0  0  0  0  0  0  0
   -9.8653   -4.8212   -5.2872 C   0  0  0  0  0  0  0  0  0  0  0  0
   -7.7014   -2.9805   -6.7370 C   0  0  0  0  0  0  0  0  0  0  0  0
   -7.3484   -4.1611   -7.2619 C   0  0  0  0  0  0  0  0  0  0  0  0
   -6.4863   -4.2697   -8.4563 C   0  0  0  0  0  0  0  0  0  0  0  0
   -5.5117   -3.0427   -9.0808 S   0  0  0  0  0  0  0  0  0  0  0  0
   -4.6946   -3.9696  -10.2303 C   0  0  0  0  0  0  0  0  0  0  0  0
   -5.1791   -5.2777  -10.1345 C   0  0  0  0  0  0  0  0  0  0  0  0
   -6.1762   -5.4425   -9.1486 C   0  0  0  0  0  0  0  0  0  0  0  0
   -6.7592   -6.7007   -8.9363 C   0  0  0  0  0  0  0  0  0  0  0  0
   -6.3339   -7.7920   -9.7047 C   0  0  0  0  0  0  0  0  0  0  0  0
   -5.3328   -7.6319  -10.6739 C   0  0  0  0  0  0  0  0  0  0  0  0
   -4.9309   -8.6988  -11.4056 F   0  0  0  0  0  0  0  0  0  0  0  0
   -4.7497   -6.3759  -10.8927 C   0  0  0  0  0  0  0  0  0  0  0  0
   -3.6254   -3.4833  -11.1293 C   0  0  0  0  0  0  0  0  0  0  0  0
   -3.1998   -2.2213  -11.1221 C   0  0  0  0  0  0  0  0  0  0  0  0
   10.6116    2.1081    8.1839 H   0  0  0  0  0  0  0  0  0  0  0  0
    9.8805    4.7129    8.1985 H   0  0  0  0  0  0  0  0  0  0  0  0
    9.6677    6.8017    6.8778 H   0  0  0  0  0  0  0  0  0  0  0  0
   11.1065    4.7764    3.3581 H   0  0  0  0  0  0  0  0  0  0  0  0
   12.9376    1.7561    3.2635 H   0  0  0  0  0  0  0  0  0  0  0  0
   11.6729    1.7719    1.2991 H   0  0  0  0  0  0  0  0  0  0  0  0
    6.4905   -0.0762    0.1672 H   0  0  0  0  0  0  0  0  0  0  0  0
    5.3550    0.5959   -1.0290 H   0  0  0  0  0  0  0  0  0  0  0  0
    7.3307    1.3424   -2.4526 H   0  0  0  0  0  0  0  0  0  0  0  0
    7.1941   -0.4267   -2.2006 H   0  0  0  0  0  0  0  0  0  0  0  0
    8.4176    0.4897   -1.2778 H   0  0  0  0  0  0  0  0  0  0  0  0
    7.2391    3.4116   -1.4195 H   0  0  0  0  0  0  0  0  0  0  0  0
    6.3142    4.2785   -0.1707 H   0  0  0  0  0  0  0  0  0  0  0  0
    4.1640    3.3376   -1.0962 H   0  0  0  0  0  0  0  0  0  0  0  0
    5.0909    4.3164   -2.2838 H   0  0  0  0  0  0  0  0  0  0  0  0
    5.1123    2.5248   -2.4075 H   0  0  0  0  0  0  0  0  0  0  0  0
    9.4882    2.0490   -0.0650 H   0  0  0  0  0  0  0  0  0  0  0  0
    3.4627    1.3773    0.3559 H   0  0  0  0  0  0  0  0  0  0  0  0
   -0.4524    1.7195    6.4952 H   0  0  0  0  0  0  0  0  0  0  0  0
   -0.6380   -0.0429    6.3508 H   0  0  0  0  0  0  0  0  0  0  0  0
   -2.9648    1.9662    6.6285 H   0  0  0  0  0  0  0  0  0  0  0  0
   -2.3016    0.8925    7.9028 H   0  0  0  0  0  0  0  0  0  0  0  0
   -3.1286    0.1689    6.4821 H   0  0  0  0  0  0  0  0  0  0  0  0
   -2.9538    2.3698    4.3214 H   0  0  0  0  0  0  0  0  0  0  0  0
   -1.8585    2.3759    2.9191 H   0  0  0  0  0  0  0  0  0  0  0  0
   -1.9042    4.5211    4.2106 H   0  0  0  0  0  0  0  0  0  0  0  0
   -0.2623    3.8344    4.0909 H   0  0  0  0  0  0  0  0  0  0  0  0
   -1.2015    3.6951    5.6367 H   0  0  0  0  0  0  0  0  0  0  0  0
    1.5152    2.4995    4.3915 H   0  0  0  0  0  0  0  0  0  0  0  0
   -4.0698    0.2593    4.0122 H   0  0  0  0  0  0  0  0  0  0  0  0
   -5.7226   -1.1790    4.5428 H   0  0  0  0  0  0  0  0  0  0  0  0
   -8.1237   -1.1633    5.0752 H   0  0  0  0  0  0  0  0  0  0  0  0
   -9.0966   -2.2742    1.0442 H   0  0  0  0  0  0  0  0  0  0  0  0
   -6.5757   -3.4645   -1.6225 H   0  0  0  0  0  0  0  0  0  0  0  0
   -8.5661   -1.2144   -1.0462 H   0  0  0  0  0  0  0  0  0  0  0  0
  -10.0610   -4.1462   -1.4423 H   0  0  0  0  0  0  0  0  0  0  0  0
  -11.2416   -6.0839   -2.4339 H   0  0  0  0  0  0  0  0  0  0  0  0
   -9.8488   -5.0103   -6.3532 H   0  0  0  0  0  0  0  0  0  0  0  0
   -7.3726   -2.0637   -7.2099 H   0  0  0  0  0  0  0  0  0  0  0  0
   -7.5820   -5.0708   -6.7310 H   0  0  0  0  0  0  0  0  0  0  0  0
   -7.5389   -6.8435   -8.1983 H   0  0  0  0  0  0  0  0  0  0  0  0
   -6.7820   -8.7647   -9.5468 H   0  0  0  0  0  0  0  0  0  0  0  0
   -3.9799   -6.2778  -11.6460 H   0  0  0  0  0  0  0  0  0  0  0  0
   -3.1497   -4.1734  -11.8131 H   0  0  0  0  0  0  0  0  0  0  0  0
   -2.4023   -1.9146  -11.7869 H   0  0  0  0  0  0  0  0  0  0  0  0
   -3.6265   -1.4813  -10.4582 H   0  0  0  0  0  0  0  0  0  0  0  0
  1  2  1  0
  2  3  1  0
  3  4  2  0
  4  5  1  0
  5  6  1  0
  6  7  2  0
  7  8  1  0
  8  9  1  0
  8 10  2  0
  3 11  1  0
 11 12  2  3
 12 13  1  0
 13 14  1  0
 14 15  1  0
 15 16  1  0
 16 17  2  0
 17 18  1  0
 18 19  1  0
 19 20  1  0
 18 21  1  0
 21 22  1  0
 18 23  1  0
 23 24  1  0
 17 25  1  0
 25 26  2  0
 26 27  1  0
 26 28  1  0
 28 29  1  0
 29 30  1  0
 30 31  1  0
 31 32  2  0
 32 33  1  0
 33 34  1  0
 34 35  1  0
 33 36  1  0
 36 37  1  0
 33 38  1  0
 38 39  1  0
 32 40  1  0
 40 41  2  0
 41 42  1  0
 41 43  1  0
 43 44  1  0
 44 45  1  0
 45 46  2  0
 46 47  1  0
 47 48  1  0
 48 49  2  0
 49 50  1  0
 50 51  1  0
 50 52  2  0
 45 53  1  0
 53 54  2  3
 54 55  1  0
 55 56  1  0
 56 57  1  0
 57 58  2  0
 58 59  1  0
 59 60  1  0
 60 61  2  0
 61 62  1  0
 62 63  1  0
 62 64  2  0
 57 65  1  0
 65 66  2  3
 66 67  1  0
 67 68  1  0
 68 69  1  0
 69 70  2  0
 70 71  1  0
 71 72  1  0
 72 73  2  0
 73 74  1  0
 74 75  1  0
 74 76  2  0
 69 77  1  0
 77 78  2  3
  5  1  2  0
 24 13  2  0
 39 28  2  0
 47 43  2  0
 59 55  2  0
 71 67  2  0
 10  4  1  0
 23 15  2  0
 38 30  2  0
 52 46  1  0
 64 58  1  0
 76 70  1  0
 27 16  1  0
 42 31  1  0
  1 79  1  0
  6 80  1  0
  7 81  1  0
 10 82  1  0
 11 83  1  0
 12 84  1  0
 19 85  1  0
 19 86  1  0
 20 87  1  0
 20 88  1  0
 20 89  1  0
 21 90  1  0
 21 91  1  0
 22 92  1  0
 22 93  1  0
 22 94  1  0
 24 95  1  0
 25 96  1  0
 34 97  1  0
 34 98  1  0
 35 99  1  0
 35100  1  0
 35101  1  0
 36102  1  0
 36103  1  0
 37104  1  0
 37105  1  0
 37106  1  0
 39107  1  0
 40108  1  0
 48109  1  0
 49110  1  0
 52111  1  0
 53112  1  0
 54113  1  0
 60114  1  0
 61115  1  0
 64116  1  0
 65117  1  0
 66118  1  0
 72119  1  0
 73120  1  0
 76121  1  0
 77122  1  0
 78123  1  0
 78124  1  0
M  END

