
     RDKit          3D

161181  0  0  0  0  0  0  0  0999 V2000
    9.1124   -1.7944    7.3240 C   0  0  0  0  0  0  0  0  0  0  0  0
    8.5668   -2.9949    7.0363 C   0  0  0  0  0  0  0  0  0  0  0  0
    9.1729   -4.1917    7.4590 O   0  0  0  0  0  0  0  0  0  0  0  0
   10.1192   -4.2266    8.4828 C   0  0  0  0  0  0  0  0  0  0  0  0
   10.3820   -5.3524    9.2471 C   0  0  0  0  0  0  0  0  0  0  0  0
   11.4820   -4.8960   10.4385 S   0  0  0  0  0  0  0  0  0  0  0  0
   11.6403   -3.2833    9.9797 C   0  0  0  0  0  0  0  0  0  0  0  0
   10.8253   -3.0901    8.8748 C   0  0  0  0  0  0  0  0  0  0  0  0
   10.8195   -1.6119    7.8730 S   0  0  0  0  0  0  0  0  0  0  0  0
    7.2709   -3.1054    6.3333 C   0  0  0  0  0  0  0  0  0  0  0  0
    6.5422   -2.0857    5.7061 C   0  0  0  0  0  0  0  0  0  0  0  0
    5.3526   -2.5464    5.1149 C   0  0  0  0  0  0  0  0  0  0  0  0
    4.4232   -1.7739    4.3899 C   0  0  0  0  0  0  0  0  0  0  0  0
    4.6273   -0.3396    4.1219 C   0  0  0  0  0  0  0  0  0  0  0  0
    4.4681    0.8842    5.2638 S   0  0  0  0  0  0  0  0  0  0  0  0
    4.6991    2.1605    4.1884 C   0  0  0  0  0  0  0  0  0  0  0  0
    4.5677    3.6089    4.5478 C   0  0  0  0  0  0  0  0  0  0  0  0
    3.1574    4.1082    4.2537 C   0  0  0  0  0  0  0  0  0  0  0  0
    4.8783    1.6397    2.9069 C   0  0  0  0  0  0  0  0  0  0  0  0
    5.0888    2.6376    1.4739 Cl  0  0  0  0  0  0  0  0  0  0  0  0
    4.8415    0.2390    2.8697 C   0  0  0  0  0  0  0  0  0  0  0  0
    5.0389   -0.6922    1.3902 Cl  0  0  0  0  0  0  0  0  0  0  0  0
    3.3103   -2.4493    3.8642 C   0  0  0  0  0  0  0  0  0  0  0  0
    3.1413   -3.8331    3.9770 C   0  0  0  0  0  0  0  0  0  0  0  0
    4.0688   -4.6053    4.7014 C   0  0  0  0  0  0  0  0  0  0  0  0
    3.9138   -6.0601    4.8678 C   0  0  0  0  0  0  0  0  0  0  0  0
    4.0267   -7.1886    3.6264 S   0  0  0  0  0  0  0  0  0  0  0  0
    3.7660   -8.5431    4.5931 C   0  0  0  0  0  0  0  0  0  0  0  0
    3.6606   -9.9455    4.0763 C   0  0  0  0  0  0  0  0  0  0  0  0
    2.2286  -10.2595    3.6560 C   0  0  0  0  0  0  0  0  0  0  0  0
    3.5651   -8.1216    5.9079 C   0  0  0  0  0  0  0  0  0  0  0  0
    3.6576   -6.7296    6.0628 C   0  0  0  0  0  0  0  0  0  0  0  0
    3.4036   -5.9079    7.5975 Cl  0  0  0  0  0  0  0  0  0  0  0  0
    3.2027   -9.2157    7.2360 Cl  0  0  0  0  0  0  0  0  0  0  0  0
    5.1600   -3.9237    5.2653 C   0  0  0  0  0  0  0  0  0  0  0  0
    6.4497   -4.5679    6.1272 S   0  0  0  0  0  0  0  0  0  0  0  0
    2.0029   -4.3064    3.3026 C   0  0  0  0  0  0  0  0  0  0  0  0
    1.2725   -3.2825    2.7010 C   0  0  0  0  0  0  0  0  0  0  0  0
    2.0357   -1.8065    2.9808 S   0  0  0  0  0  0  0  0  0  0  0  0
    0.1971   -3.4551    1.7266 C   0  0  0  0  0  0  0  0  0  0  0  0
   -0.8985   -2.6071    1.5886 C   0  0  0  0  0  0  0  0  0  0  0  0
   -1.5738   -2.7798    0.3674 C   0  0  0  0  0  0  0  0  0  0  0  0
   -2.7027   -2.0601   -0.0839 C   0  0  0  0  0  0  0  0  0  0  0  0
   -3.3935   -1.0715    0.7681 C   0  0  0  0  0  0  0  0  0  0  0  0
   -2.6804    0.2904    1.4520 S   0  0  0  0  0  0  0  0  0  0  0  0
   -4.0397    0.8167    2.2888 C   0  0  0  0  0  0  0  0  0  0  0  0
   -4.0499    1.9743    3.2407 C   0  0  0  0  0  0  0  0  0  0  0  0
   -3.4855    1.5593    4.5942 C   0  0  0  0  0  0  0  0  0  0  0  0
   -5.0782   -0.0858    2.0572 C   0  0  0  0  0  0  0  0  0  0  0  0
   -6.6691    0.0520    2.7949 Cl  0  0  0  0  0  0  0  0  0  0  0  0
   -4.7196   -1.1384    1.2002 C   0  0  0  0  0  0  0  0  0  0  0  0
   -5.8040   -2.4636    0.7979 Cl  0  0  0  0  0  0  0  0  0  0  0  0
   -3.1347   -2.3202   -1.3976 C   0  0  0  0  0  0  0  0  0  0  0  0
   -2.5009   -3.2575   -2.2235 C   0  0  0  0  0  0  0  0  0  0  0  0
   -1.4254   -4.0298   -1.7447 C   0  0  0  0  0  0  0  0  0  0  0  0
   -0.7490   -5.0352   -2.5879 C   0  0  0  0  0  0  0  0  0  0  0  0
    0.8614   -4.9613   -3.0664 S   0  0  0  0  0  0  0  0  0  0  0  0
    0.8426   -6.3716   -3.9823 C   0  0  0  0  0  0  0  0  0  0  0  0
    2.0344   -6.9472   -4.6836 C   0  0  0  0  0  0  0  0  0  0  0  0
    2.7259   -7.9868   -3.8086 C   0  0  0  0  0  0  0  0  0  0  0  0
   -0.4309   -6.9359   -3.9058 C   0  0  0  0  0  0  0  0  0  0  0  0
   -1.3259   -6.1836   -3.1294 C   0  0  0  0  0  0  0  0  0  0  0  0
   -2.9896   -6.6705   -2.8300 Cl  0  0  0  0  0  0  0  0  0  0  0  0
   -0.8729   -8.4437   -4.6956 Cl  0  0  0  0  0  0  0  0  0  0  0  0
   -0.9823   -3.7552   -0.4434 C   0  0  0  0  0  0  0  0  0  0  0  0
    0.3406   -4.4191    0.3546 S   0  0  0  0  0  0  0  0  0  0  0  0
   -2.9981   -3.2674   -3.5349 C   0  0  0  0  0  0  0  0  0  0  0  0
   -4.0059   -2.3333   -3.7398 C   0  0  0  0  0  0  0  0  0  0  0  0
   -4.3339   -1.5317   -2.2839 S   0  0  0  0  0  0  0  0  0  0  0  0
   -4.7129   -2.1613   -5.0185 C   0  0  0  0  0  0  0  0  0  0  0  0
   -4.7150   -1.0020   -5.7395 C   0  0  0  0  0  0  0  0  0  0  0  0
   -5.2403   -0.9683   -7.0433 O   0  0  0  0  0  0  0  0  0  0  0  0
   -5.3422   -2.1129   -7.8328 C   0  0  0  0  0  0  0  0  0  0  0  0
   -5.3142   -2.0996   -9.2181 C   0  0  0  0  0  0  0  0  0  0  0  0
   -5.3282   -3.7071   -9.7279 S   0  0  0  0  0  0  0  0  0  0  0  0
   -5.3840   -4.4150   -8.2002 C   0  0  0  0  0  0  0  0  0  0  0  0
   -5.3958   -3.3831   -7.2734 C   0  0  0  0  0  0  0  0  0  0  0  0
   -5.7018   -3.5868   -5.5328 S   0  0  0  0  0  0  0  0  0  0  0  0
   -4.1305    0.2738   -5.2646 C   0  0  0  0  0  0  0  0  0  0  0  0
   -4.6367    1.5266   -5.6078 C   0  0  0  0  0  0  0  0  0  0  0  0
   -3.9129    2.5906   -5.0487 C   0  0  0  0  0  0  0  0  0  0  0  0
   -4.2202    3.9591   -5.1715 C   0  0  0  0  0  0  0  0  0  0  0  0
   -5.3269    4.4378   -6.0207 C   0  0  0  0  0  0  0  0  0  0  0  0
   -6.6887    5.2527   -5.4616 S   0  0  0  0  0  0  0  0  0  0  0  0
   -7.4222    5.4334   -6.9658 C   0  0  0  0  0  0  0  0  0  0  0  0
   -8.7695    6.0510   -7.1831 C   0  0  0  0  0  0  0  0  0  0  0  0
   -9.8637    4.9909   -7.1230 C   0  0  0  0  0  0  0  0  0  0  0  0
   -6.6122    4.8376   -7.9316 C   0  0  0  0  0  0  0  0  0  0  0  0
   -7.0227    4.7745   -9.6392 Cl  0  0  0  0  0  0  0  0  0  0  0  0
   -5.4330    4.2875   -7.4035 C   0  0  0  0  0  0  0  0  0  0  0  0
   -4.2030    3.5095   -8.3931 Cl  0  0  0  0  0  0  0  0  0  0  0  0
   -3.4541    4.8491   -4.4023 C   0  0  0  0  0  0  0  0  0  0  0  0
   -2.4032    4.4299   -3.5793 C   0  0  0  0  0  0  0  0  0  0  0  0
   -2.0383    3.0667   -3.5272 C   0  0  0  0  0  0  0  0  0  0  0  0
   -0.9299    2.5826   -2.6800 C   0  0  0  0  0  0  0  0  0  0  0  0
   -1.0952    1.4797   -1.4206 S   0  0  0  0  0  0  0  0  0  0  0  0
    0.5228    1.4708   -0.9619 C   0  0  0  0  0  0  0  0  0  0  0  0
    1.0723    0.7150    0.2115 C   0  0  0  0  0  0  0  0  0  0  0  0
    1.1418    1.6113    1.4434 C   0  0  0  0  0  0  0  0  0  0  0  0
    1.2209    2.3470   -1.7913 C   0  0  0  0  0  0  0  0  0  0  0  0
    0.4099    2.9634   -2.7592 C   0  0  0  0  0  0  0  0  0  0  0  0
    1.0346    4.0764   -3.9702 Cl  0  0  0  0  0  0  0  0  0  0  0  0
    2.9449    2.6530   -1.6424 Cl  0  0  0  0  0  0  0  0  0  0  0  0
   -2.8319    2.1710   -4.2676 C   0  0  0  0  0  0  0  0  0  0  0  0
   -2.7359    0.4924   -4.3268 S   0  0  0  0  0  0  0  0  0  0  0  0
   -1.8506    5.4723   -2.8116 C   0  0  0  0  0  0  0  0  0  0  0  0
   -2.4516    6.7153   -3.0519 C   0  0  0  0  0  0  0  0  0  0  0  0
   -3.6618    6.5058   -4.2157 S   0  0  0  0  0  0  0  0  0  0  0  0
   -2.1885    7.9954   -2.3474 C   0  0  0  0  0  0  0  0  0  0  0  0
   -1.3802    8.0542   -1.2671 C   0  0  0  0  0  0  0  0  0  0  0  0
   -1.3382    9.1670   -0.4119 O   0  0  0  0  0  0  0  0  0  0  0  0
   -2.3587   10.1185   -0.3877 C   0  0  0  0  0  0  0  0  0  0  0  0
   -2.6260   10.9314    0.7043 C   0  0  0  0  0  0  0  0  0  0  0  0
   -4.0065   11.8239    0.3271 S   0  0  0  0  0  0  0  0  0  0  0  0
   -4.2581   11.1920   -1.2133 C   0  0  0  0  0  0  0  0  0  0  0  0
   -3.2489   10.2679   -1.4461 C   0  0  0  0  0  0  0  0  0  0  0  0
   -2.9262    9.5056   -3.0272 S   0  0  0  0  0  0  0  0  0  0  0  0
    8.5639   -0.8820    7.1481 H   0  0  0  0  0  0  0  0  0  0  0  0
    9.9343   -6.3297    9.1240 H   0  0  0  0  0  0  0  0  0  0  0  0
   12.2995   -2.5496   10.4246 H   0  0  0  0  0  0  0  0  0  0  0  0
    6.8648   -1.0540    5.6601 H   0  0  0  0  0  0  0  0  0  0  0  0
    5.3055    4.2088    3.9734 H   0  0  0  0  0  0  0  0  0  0  0  0
    4.7873    3.7438    5.6290 H   0  0  0  0  0  0  0  0  0  0  0  0
    3.0778    5.1809    4.5244 H   0  0  0  0  0  0  0  0  0  0  0  0
    2.9257    4.0001    3.1728 H   0  0  0  0  0  0  0  0  0  0  0  0
    2.4119    3.5353    4.8444 H   0  0  0  0  0  0  0  0  0  0  0  0
    4.3339  -10.0640    3.2018 H   0  0  0  0  0  0  0  0  0  0  0  0
    3.9880  -10.6659    4.8544 H   0  0  0  0  0  0  0  0  0  0  0  0
    2.1770  -11.2931    3.2543 H   0  0  0  0  0  0  0  0  0  0  0  0
    1.5452  -10.1810    4.5281 H   0  0  0  0  0  0  0  0  0  0  0  0
    1.8942   -9.5497    2.8678 H   0  0  0  0  0  0  0  0  0  0  0  0
    1.7252   -5.3501    3.2311 H   0  0  0  0  0  0  0  0  0  0  0  0
   -1.1535   -1.8649    2.3324 H   0  0  0  0  0  0  0  0  0  0  0  0
   -5.0831    2.3602    3.3697 H   0  0  0  0  0  0  0  0  0  0  0  0
   -3.4302    2.7950    2.8202 H   0  0  0  0  0  0  0  0  0  0  0  0
   -3.4754    2.4337    5.2803 H   0  0  0  0  0  0  0  0  0  0  0  0
   -2.4431    1.1857    4.4816 H   0  0  0  0  0  0  0  0  0  0  0  0
   -4.1137    0.7603    5.0446 H   0  0  0  0  0  0  0  0  0  0  0  0
    2.7542   -6.1347   -4.9247 H   0  0  0  0  0  0  0  0  0  0  0  0
    1.7191   -7.4155   -5.6395 H   0  0  0  0  0  0  0  0  0  0  0  0
    3.0796   -7.5205   -2.8651 H   0  0  0  0  0  0  0  0  0  0  0  0
    2.0246   -8.8162   -3.5684 H   0  0  0  0  0  0  0  0  0  0  0  0
    3.5986   -8.4083   -4.3502 H   0  0  0  0  0  0  0  0  0  0  0  0
   -2.6157   -3.9018   -4.3241 H   0  0  0  0  0  0  0  0  0  0  0  0
   -5.2552   -1.2239   -9.8512 H   0  0  0  0  0  0  0  0  0  0  0  0
   -5.4557   -5.4722   -7.9836 H   0  0  0  0  0  0  0  0  0  0  0  0
   -5.5206    1.6546   -6.2170 H   0  0  0  0  0  0  0  0  0  0  0  0
   -8.9567    6.8124   -6.3955 H   0  0  0  0  0  0  0  0  0  0  0  0
   -8.7984    6.5655   -8.1676 H   0  0  0  0  0  0  0  0  0  0  0  0
   -9.8493    4.4752   -6.1383 H   0  0  0  0  0  0  0  0  0  0  0  0
  -10.8553    5.4675   -7.2586 H   0  0  0  0  0  0  0  0  0  0  0  0
   -9.7171    4.2394   -7.9301 H   0  0  0  0  0  0  0  0  0  0  0  0
    2.0876    0.3291   -0.0279 H   0  0  0  0  0  0  0  0  0  0  0  0
    0.4193   -0.1580    0.4278 H   0  0  0  0  0  0  0  0  0  0  0  0
    1.8082    2.4805    1.2555 H   0  0  0  0  0  0  0  0  0  0  0  0
    1.5492    1.0409    2.3028 H   0  0  0  0  0  0  0  0  0  0  0  0
    0.1285    1.9812    1.7121 H   0  0  0  0  0  0  0  0  0  0  0  0
   -1.0624    5.3125   -2.0932 H   0  0  0  0  0  0  0  0  0  0  0  0
   -0.7801    7.2040   -0.9821 H   0  0  0  0  0  0  0  0  0  0  0  0
   -2.0750   10.9612    1.6340 H   0  0  0  0  0  0  0  0  0  0  0  0
   -5.0259   11.4923   -1.9148 H   0  0  0  0  0  0  0  0  0  0  0  0
  1  2  2  0
  2  3  1  0
  3  4  1  0
  4  5  2  0
  5  6  1  0
  6  7  1  0
  7  8  2  0
  8  9  1  0
  2 10  1  0
 10 11  2  0
 11 12  1  0
 12 13  2  0
 13 14  1  0
 14 15  1  0
 15 16  1  0
 16 17  1  0
 17 18  1  0
 16 19  2  0
 19 20  1  0
 19 21  1  0
 21 22  1  0
 13 23  1  0
 23 24  2  0
 24 25  1  0
 25 26  1  0
 26 27  1  0
 27 28  1  0
 28 29  1  0
 29 30  1  0
 28 31  2  0
 31 32  1  0
 32 33  1  0
 31 34  1  0
 25 35  2  0
 35 36  1  0
 24 37  1  0
 37 38  2  0
 38 39  1  0
 38 40  1  0
 40 41  2  0
 41 42  1  0
 42 43  2  0
 43 44  1  0
 44 45  1  0
 45 46  1  0
 46 47  1  0
 47 48  1  0
 46 49  2  0
 49 50  1  0
 49 51  1  0
 51 52  1  0
 43 53  1  0
 53 54  2  0
 54 55  1  0
 55 56  1  0
 56 57  1  0
 57 58  1  0
 58 59  1  0
 59 60  1  0
 58 61  2  0
 61 62  1  0
 62 63  1  0
 61 64  1  0
 55 65  2  0
 65 66  1  0
 54 67  1  0
 67 68  2  0
 68 69  1  0
 68 70  1  0
 70 71  2  0
 71 72  1  0
 72 73  1  0
 73 74  2  0
 74 75  1  0
 75 76  1  0
 76 77  2  0
 77 78  1  0
 71 79  1  0
 79 80  2  0
 80 81  1  0
 81 82  2  0
 82 83  1  0
 83 84  1  0
 84 85  1  0
 85 86  1  0
 86 87  1  0
 85 88  2  0
 88 89  1  0
 88 90  1  0
 90 91  1  0
 82 92  1  0
 92 93  2  0
 93 94  1  0
 94 95  1  0
 95 96  1  0
 96 97  1  0
 97 98  1  0
 98 99  1  0
 97100  2  0
100101  1  0
101102  1  0
100103  1  0
 94104  2  0
104105  1  0
 93106  1  0
106107  2  0
107108  1  0
107109  1  0
109110  2  0
110111  1  0
111112  1  0
112113  2  0
113114  1  0
114115  1  0
115116  2  0
116117  1  0
  9  1  1  0
 36 10  1  0
 66 40  1  0
 78 70  1  0
105 79  1  0
117109  1  0
  8  4  1  0
 35 12  1  0
 65 42  1  0
 77 73  1  0
104 81  1  0
116112  1  0
 21 14  2  0
 39 23  1  0
 51 44  2  0
 69 53  1  0
 90 83  2  0
108 92  1  0
 32 26  2  0
 62 56  2  0
101 95  2  0
  1118  1  0
  5119  1  0
  7120  1  0
 11121  1  0
 17122  1  0
 17123  1  0
 18124  1  0
 18125  1  0
 18126  1  0
 29127  1  0
 29128  1  0
 30129  1  0
 30130  1  0
 30131  1  0
 37132  1  0
 41133  1  0
 47134  1  0
 47135  1  0
 48136  1  0
 48137  1  0
 48138  1  0
 59139  1  0
 59140  1  0
 60141  1  0
 60142  1  0
 60143  1  0
 67144  1  0
 74145  1  0
 76146  1  0
 80147  1  0
 86148  1  0
 86149  1  0
 87150  1  0
 87151  1  0
 87152  1  0
 98153  1  0
 98154  1  0
 99155  1  0
 99156  1  0
 99157  1  0
106158  1  0
110159  1  0
113160  1  0
115161  1  0
M  END

