
     RDKit          3D

223249  0  0  0  0  0  0  0  0999 V2000
    1.0316  -10.4085    6.9502 C   0  0  0  0  0  0  0  0  0  0  0  0
    1.3546  -10.8204    5.6614 C   0  0  0  0  0  0  0  0  0  0  0  0
    0.4517  -10.3585    4.6878 C   0  0  0  0  0  0  0  0  0  0  0  0
    0.5365  -10.5724    3.2971 C   0  0  0  0  0  0  0  0  0  0  0  0
    1.6585  -11.3122    2.6861 C   0  0  0  0  0  0  0  0  0  0  0  0
    1.5085  -12.7543    1.8280 S   0  0  0  0  0  0  0  0  0  0  0  0
    3.1524  -12.9442    1.5110 C   0  0  0  0  0  0  0  0  0  0  0  0
    3.7451  -14.0605    0.7047 C   0  0  0  0  0  0  0  0  0  0  0  0
    3.8535  -13.6642   -0.7619 C   0  0  0  0  0  0  0  0  0  0  0  0
    3.8392  -11.8564    2.0471 C   0  0  0  0  0  0  0  0  0  0  0  0
    5.5769  -11.6342    1.8940 Cl  0  0  0  0  0  0  0  0  0  0  0  0
    3.0024  -10.9446    2.7126 C   0  0  0  0  0  0  0  0  0  0  0  0
    3.5896   -9.4584    3.4473 Cl  0  0  0  0  0  0  0  0  0  0  0  0
   -0.4855  -10.0242    2.5053 C   0  0  0  0  0  0  0  0  0  0  0  0
   -1.5467   -9.2920    3.0502 C   0  0  0  0  0  0  0  0  0  0  0  0
   -1.6092   -9.0409    4.4369 C   0  0  0  0  0  0  0  0  0  0  0  0
   -2.6384   -8.1617    5.0210 C   0  0  0  0  0  0  0  0  0  0  0  0
   -3.7962   -8.6456    6.1407 S   0  0  0  0  0  0  0  0  0  0  0  0
   -4.5552   -7.1478    6.2689 C   0  0  0  0  0  0  0  0  0  0  0  0
   -5.7033   -6.8493    7.1821 C   0  0  0  0  0  0  0  0  0  0  0  0
   -5.2067   -6.2959    8.5128 C   0  0  0  0  0  0  0  0  0  0  0  0
   -3.8881   -6.2365    5.4508 C   0  0  0  0  0  0  0  0  0  0  0  0
   -2.8179   -6.8069    4.7459 C   0  0  0  0  0  0  0  0  0  0  0  0
   -1.7745   -5.8849    3.6689 Cl  0  0  0  0  0  0  0  0  0  0  0  0
   -4.3305   -4.5402    5.3246 Cl  0  0  0  0  0  0  0  0  0  0  0  0
   -0.5961   -9.6057    5.2282 C   0  0  0  0  0  0  0  0  0  0  0  0
   -0.3802   -9.4857    6.8931 S   0  0  0  0  0  0  0  0  0  0  0  0
   -2.4503   -8.8236    2.0820 C   0  0  0  0  0  0  0  0  0  0  0  0
   -2.0581   -9.1334    0.7835 C   0  0  0  0  0  0  0  0  0  0  0  0
   -0.6174  -10.0164    0.8253 S   0  0  0  0  0  0  0  0  0  0  0  0
   -2.6820   -8.5862   -0.4245 C   0  0  0  0  0  0  0  0  0  0  0  0
   -1.9789   -8.0757   -1.5111 C   0  0  0  0  0  0  0  0  0  0  0  0
   -2.7959   -7.3416   -2.3870 C   0  0  0  0  0  0  0  0  0  0  0  0
   -2.3549   -6.5619   -3.4755 C   0  0  0  0  0  0  0  0  0  0  0  0
   -0.9226   -6.3528   -3.7543 C   0  0  0  0  0  0  0  0  0  0  0  0
   -0.1490   -6.7785   -5.1852 S   0  0  0  0  0  0  0  0  0  0  0  0
    1.3369   -6.0907   -4.7893 C   0  0  0  0  0  0  0  0  0  0  0  0
    2.5632   -6.1507   -5.6488 C   0  0  0  0  0  0  0  0  0  0  0  0
    3.4678   -7.2966   -5.2141 C   0  0  0  0  0  0  0  0  0  0  0  0
    1.2429   -5.5162   -3.5232 C   0  0  0  0  0  0  0  0  0  0  0  0
    2.5726   -4.6803   -2.7332 Cl  0  0  0  0  0  0  0  0  0  0  0  0
   -0.0284   -5.6566   -2.9464 C   0  0  0  0  0  0  0  0  0  0  0  0
   -0.4645   -4.9587   -1.3905 Cl  0  0  0  0  0  0  0  0  0  0  0  0
   -3.3227   -5.7854   -4.1322 C   0  0  0  0  0  0  0  0  0  0  0  0
   -4.6645   -5.7544   -3.7363 C   0  0  0  0  0  0  0  0  0  0  0  0
   -5.1080   -6.5639   -2.6755 C   0  0  0  0  0  0  0  0  0  0  0  0
   -6.5099   -6.5697   -2.2386 C   0  0  0  0  0  0  0  0  0  0  0  0
   -7.7143   -7.4896   -2.9586 S   0  0  0  0  0  0  0  0  0  0  0  0
   -8.9274   -7.0679   -1.8727 C   0  0  0  0  0  0  0  0  0  0  0  0
  -10.3541   -7.5161   -1.9822 C   0  0  0  0  0  0  0  0  0  0  0  0
  -11.1313   -6.6008   -2.9198 C   0  0  0  0  0  0  0  0  0  0  0  0
   -8.4022   -6.1796   -0.9372 C   0  0  0  0  0  0  0  0  0  0  0  0
   -7.0399   -5.9025   -1.1402 C   0  0  0  0  0  0  0  0  0  0  0  0
   -6.1023   -4.8144   -0.1277 Cl  0  0  0  0  0  0  0  0  0  0  0  0
   -9.3371   -5.5198    0.3963 Cl  0  0  0  0  0  0  0  0  0  0  0  0
   -4.1399   -7.3297   -2.0062 C   0  0  0  0  0  0  0  0  0  0  0  0
   -4.3141   -8.1735   -0.5612 S   0  0  0  0  0  0  0  0  0  0  0  0
   -5.3987   -4.7196   -4.3416 C   0  0  0  0  0  0  0  0  0  0  0  0
   -4.6290   -3.9239   -5.1942 C   0  0  0  0  0  0  0  0  0  0  0  0
   -3.0576   -4.5417   -5.2261 S   0  0  0  0  0  0  0  0  0  0  0  0
   -4.9059   -2.5097   -5.4992 C   0  0  0  0  0  0  0  0  0  0  0  0
   -5.5867   -1.6718   -4.6131 C   0  0  0  0  0  0  0  0  0  0  0  0
   -5.1681   -0.3303   -4.6765 C   0  0  0  0  0  0  0  0  0  0  0  0
   -5.4507    0.6755   -3.7237 C   0  0  0  0  0  0  0  0  0  0  0  0
   -6.4111    0.4783   -2.6232 C   0  0  0  0  0  0  0  0  0  0  0  0
   -6.2963   -0.6910   -1.4156 S   0  0  0  0  0  0  0  0  0  0  0  0
   -7.6997   -0.2428   -0.5989 C   0  0  0  0  0  0  0  0  0  0  0  0
   -8.2760   -0.9796    0.5703 C   0  0  0  0  0  0  0  0  0  0  0  0
   -9.2653   -2.0354    0.0955 C   0  0  0  0  0  0  0  0  0  0  0  0
   -8.2854    0.8273   -1.2736 C   0  0  0  0  0  0  0  0  0  0  0  0
   -9.8032    1.5686   -0.7806 Cl  0  0  0  0  0  0  0  0  0  0  0  0
   -7.5554    1.2402   -2.3979 C   0  0  0  0  0  0  0  0  0  0  0  0
   -8.0613    2.5603   -3.4465 Cl  0  0  0  0  0  0  0  0  0  0  0  0
   -4.6815    1.8506   -3.7958 C   0  0  0  0  0  0  0  0  0  0  0  0
   -3.7359    2.0690   -4.8007 C   0  0  0  0  0  0  0  0  0  0  0  0
   -3.5070    1.0958   -5.7930 C   0  0  0  0  0  0  0  0  0  0  0  0
   -2.4085    1.2180   -6.7679 C   0  0  0  0  0  0  0  0  0  0  0  0
   -2.6133    1.4198   -8.4241 S   0  0  0  0  0  0  0  0  0  0  0  0
   -0.9736    1.3806   -8.8069 C   0  0  0  0  0  0  0  0  0  0  0  0
   -0.4166    1.5767  -10.1843 C   0  0  0  0  0  0  0  0  0  0  0  0
    0.0072    3.0255  -10.3966 C   0  0  0  0  0  0  0  0  0  0  0  0
   -0.2413    1.2126   -7.6318 C   0  0  0  0  0  0  0  0  0  0  0  0
   -1.0479    1.1124   -6.4887 C   0  0  0  0  0  0  0  0  0  0  0  0
   -0.4079    0.8390   -4.8706 Cl  0  0  0  0  0  0  0  0  0  0  0  0
    1.5147    1.1172   -7.5824 Cl  0  0  0  0  0  0  0  0  0  0  0  0
   -4.2249   -0.1046   -5.6837 C   0  0  0  0  0  0  0  0  0  0  0  0
   -3.8712   -1.5637   -6.4383 S   0  0  0  0  0  0  0  0  0  0  0  0
   -2.9439    3.2060   -4.5771 C   0  0  0  0  0  0  0  0  0  0  0  0
   -3.2043    3.8287   -3.3568 C   0  0  0  0  0  0  0  0  0  0  0  0
   -4.4708    3.0115   -2.5947 S   0  0  0  0  0  0  0  0  0  0  0  0
   -2.1977    4.6307   -2.6517 C   0  0  0  0  0  0  0  0  0  0  0  0
   -1.2506    5.4326   -3.2903 C   0  0  0  0  0  0  0  0  0  0  0  0
   -0.1056    5.6606   -2.5112 C   0  0  0  0  0  0  0  0  0  0  0  0
    1.0615    6.3269   -2.9344 C   0  0  0  0  0  0  0  0  0  0  0  0
    1.1274    7.0220   -4.2318 C   0  0  0  0  0  0  0  0  0  0  0  0
    2.1403    6.6016   -5.5102 S   0  0  0  0  0  0  0  0  0  0  0  0
    1.5695    7.7743   -6.5767 C   0  0  0  0  0  0  0  0  0  0  0  0
    2.1086    8.0055   -7.9546 C   0  0  0  0  0  0  0  0  0  0  0  0
    3.2873    8.9724   -7.9191 C   0  0  0  0  0  0  0  0  0  0  0  0
    0.5883    8.5270   -5.9322 C   0  0  0  0  0  0  0  0  0  0  0  0
   -0.2418    9.8880   -6.6792 Cl  0  0  0  0  0  0  0  0  0  0  0  0
    0.3328    8.0992   -4.6212 C   0  0  0  0  0  0  0  0  0  0  0  0
   -0.8407    8.8712   -3.5609 Cl  0  0  0  0  0  0  0  0  0  0  0  0
    2.1788    6.2508   -2.0858 C   0  0  0  0  0  0  0  0  0  0  0  0
    2.1509    5.5767   -0.8633 C   0  0  0  0  0  0  0  0  0  0  0  0
    0.9624    4.9721   -0.4084 C   0  0  0  0  0  0  0  0  0  0  0  0
    0.8913    4.2959    0.8944 C   0  0  0  0  0  0  0  0  0  0  0  0
    0.9303    5.0890    2.3755 S   0  0  0  0  0  0  0  0  0  0  0  0
    0.7893    3.7052    3.3185 C   0  0  0  0  0  0  0  0  0  0  0  0
    0.8244    3.6951    4.8163 C   0  0  0  0  0  0  0  0  0  0  0  0
    2.2448    3.4778    5.3151 C   0  0  0  0  0  0  0  0  0  0  0  0
    0.7468    2.5919    2.4799 C   0  0  0  0  0  0  0  0  0  0  0  0
    0.7935    2.9254    1.1162 C   0  0  0  0  0  0  0  0  0  0  0  0
    0.7859    1.7308   -0.1748 Cl  0  0  0  0  0  0  0  0  0  0  0  0
    0.6746    0.9372    3.0654 Cl  0  0  0  0  0  0  0  0  0  0  0  0
   -0.1510    5.0272   -1.2659 C   0  0  0  0  0  0  0  0  0  0  0  0
   -1.6178    4.2240   -1.1198 S   0  0  0  0  0  0  0  0  0  0  0  0
    3.4062    5.5030   -0.2392 C   0  0  0  0  0  0  0  0  0  0  0  0
    4.4146    6.1652   -0.9487 C   0  0  0  0  0  0  0  0  0  0  0  0
    3.7421    6.7989   -2.3653 S   0  0  0  0  0  0  0  0  0  0  0  0
    5.8699    6.1113   -0.6672 C   0  0  0  0  0  0  0  0  0  0  0  0
    6.3913    5.9500    0.5786 C   0  0  0  0  0  0  0  0  0  0  0  0
    7.6701    5.3890    0.7543 O   0  0  0  0  0  0  0  0  0  0  0  0
    8.2989    4.6513   -0.2474 C   0  0  0  0  0  0  0  0  0  0  0  0
    9.2144    3.6395   -0.0059 C   0  0  0  0  0  0  0  0  0  0  0  0
    9.5607    2.9292   -1.4935 S   0  0  0  0  0  0  0  0  0  0  0  0
    8.5816    3.9158   -2.4444 C   0  0  0  0  0  0  0  0  0  0  0  0
    7.9712    4.8179   -1.5870 C   0  0  0  0  0  0  0  0  0  0  0  0
    6.9871    6.2147   -2.0875 S   0  0  0  0  0  0  0  0  0  0  0  0
    5.6524    6.2807    1.8126 C   0  0  0  0  0  0  0  0  0  0  0  0
    5.8717    5.6705    3.0468 C   0  0  0  0  0  0  0  0  0  0  0  0
    5.1036    6.2248    4.0824 C   0  0  0  0  0  0  0  0  0  0  0  0
    5.1153    5.8283    5.4354 C   0  0  0  0  0  0  0  0  0  0  0  0
    6.0107    4.7677    5.9308 C   0  0  0  0  0  0  0  0  0  0  0  0
    5.4952    3.3054    6.5815 S   0  0  0  0  0  0  0  0  0  0  0  0
    7.0309    2.6670    6.8344 C   0  0  0  0  0  0  0  0  0  0  0  0
    7.3045    1.2855    7.3451 C   0  0  0  0  0  0  0  0  0  0  0  0
    7.5537    0.3223    6.1907 C   0  0  0  0  0  0  0  0  0  0  0  0
    7.9758    3.5944    6.3978 C   0  0  0  0  0  0  0  0  0  0  0  0
    9.7096    3.3109    6.4487 Cl  0  0  0  0  0  0  0  0  0  0  0  0
    7.4060    4.7740    5.8931 C   0  0  0  0  0  0  0  0  0  0  0  0
    8.3606    6.1331    5.3088 Cl  0  0  0  0  0  0  0  0  0  0  0  0
    4.2088    6.4786    6.2937 C   0  0  0  0  0  0  0  0  0  0  0  0
    3.3572    7.4963    5.8554 C   0  0  0  0  0  0  0  0  0  0  0  0
    3.3801    7.9237    4.5111 C   0  0  0  0  0  0  0  0  0  0  0  0
    2.5358    9.0273    4.0203 C   0  0  0  0  0  0  0  0  0  0  0  0
    1.4312    8.9006    2.7550 S   0  0  0  0  0  0  0  0  0  0  0  0
    1.0304   10.5332    2.7009 C   0  0  0  0  0  0  0  0  0  0  0  0
    0.1444   11.1530    1.6627 C   0  0  0  0  0  0  0  0  0  0  0  0
    0.9544   11.5393    0.4312 C   0  0  0  0  0  0  0  0  0  0  0  0
    1.7858   11.2089    3.6566 C   0  0  0  0  0  0  0  0  0  0  0  0
    2.6238   10.3636    4.4042 C   0  0  0  0  0  0  0  0  0  0  0  0
    3.7587   10.9536    5.6103 Cl  0  0  0  0  0  0  0  0  0  0  0  0
    1.7379   12.9514    3.8791 Cl  0  0  0  0  0  0  0  0  0  0  0  0
    4.2641    7.2564    3.6501 C   0  0  0  0  0  0  0  0  0  0  0  0
    4.5237    7.5249    2.0075 S   0  0  0  0  0  0  0  0  0  0  0  0
    2.5202    7.9862    6.8723 C   0  0  0  0  0  0  0  0  0  0  0  0
    2.7292    7.3670    8.1009 C   0  0  0  0  0  0  0  0  0  0  0  0
    3.9413    6.2069    7.9298 S   0  0  0  0  0  0  0  0  0  0  0  0
    1.5982  -10.6408    7.8408 H   0  0  0  0  0  0  0  0  0  0  0  0
    2.2228  -11.4286    5.4462 H   0  0  0  0  0  0  0  0  0  0  0  0
    3.1054  -14.9650    0.7966 H   0  0  0  0  0  0  0  0  0  0  0  0
    4.7524  -14.3186    1.0987 H   0  0  0  0  0  0  0  0  0  0  0  0
    4.3578  -14.4753   -1.3288 H   0  0  0  0  0  0  0  0  0  0  0  0
    4.4463  -12.7309   -0.8763 H   0  0  0  0  0  0  0  0  0  0  0  0
    2.8409  -13.5093   -1.1904 H   0  0  0  0  0  0  0  0  0  0  0  0
   -6.3852   -6.1123    6.7037 H   0  0  0  0  0  0  0  0  0  0  0  0
   -6.2815   -7.7804    7.3628 H   0  0  0  0  0  0  0  0  0  0  0  0
   -4.6436   -5.3515    8.3581 H   0  0  0  0  0  0  0  0  0  0  0  0
   -4.5458   -7.0359    9.0130 H   0  0  0  0  0  0  0  0  0  0  0  0
   -6.0733   -6.0871    9.1736 H   0  0  0  0  0  0  0  0  0  0  0  0
   -3.3200   -8.2209    2.3098 H   0  0  0  0  0  0  0  0  0  0  0  0
   -0.9025   -8.1501   -1.6095 H   0  0  0  0  0  0  0  0  0  0  0  0
    3.1174   -5.1917   -5.5746 H   0  0  0  0  0  0  0  0  0  0  0  0
    2.2692   -6.2979   -6.7085 H   0  0  0  0  0  0  0  0  0  0  0  0
    3.7855   -7.1619   -4.1583 H   0  0  0  0  0  0  0  0  0  0  0  0
    4.3707   -7.3161   -5.8588 H   0  0  0  0  0  0  0  0  0  0  0  0
    2.9373   -8.2670   -5.3142 H   0  0  0  0  0  0  0  0  0  0  0  0
  -10.8346   -7.5281   -0.9815 H   0  0  0  0  0  0  0  0  0  0  0  0
  -10.3842   -8.5552   -2.3738 H   0  0  0  0  0  0  0  0  0  0  0  0
  -12.1791   -6.9546   -3.0019 H   0  0  0  0  0  0  0  0  0  0  0  0
  -11.1317   -5.5610   -2.5288 H   0  0  0  0  0  0  0  0  0  0  0  0
  -10.6746   -6.6128   -3.9319 H   0  0  0  0  0  0  0  0  0  0  0  0
   -6.4150   -4.4717   -4.0602 H   0  0  0  0  0  0  0  0  0  0  0  0
   -6.2337   -2.0534   -3.8369 H   0  0  0  0  0  0  0  0  0  0  0  0
   -7.4593   -1.4726    1.1384 H   0  0  0  0  0  0  0  0  0  0  0  0
   -8.7866   -0.2672    1.2510 H   0  0  0  0  0  0  0  0  0  0  0  0
   -8.7560   -2.7659   -0.5679 H   0  0  0  0  0  0  0  0  0  0  0  0
   -9.6830   -2.5734    0.9719 H   0  0  0  0  0  0  0  0  0  0  0  0
  -10.1028   -1.5633   -0.4582 H   0  0  0  0  0  0  0  0  0  0  0  0
    0.4563    0.9078  -10.3354 H   0  0  0  0  0  0  0  0  0  0  0  0
   -1.1876    1.3076  -10.9363 H   0  0  0  0  0  0  0  0  0  0  0  0
    0.8129    3.2997   -9.6837 H   0  0  0  0  0  0  0  0  0  0  0  0
    0.3877    3.1535  -11.4314 H   0  0  0  0  0  0  0  0  0  0  0  0
   -0.8569    3.7067  -10.2493 H   0  0  0  0  0  0  0  0  0  0  0  0
   -2.0984    3.4699   -5.2016 H   0  0  0  0  0  0  0  0  0  0  0  0
   -1.3453    5.7429   -4.3231 H   0  0  0  0  0  0  0  0  0  0  0  0
    1.3089    8.4144   -8.6086 H   0  0  0  0  0  0  0  0  0  0  0  0
    2.4424    7.0374   -8.3898 H   0  0  0  0  0  0  0  0  0  0  0  0
    4.1338    8.5250   -7.3564 H   0  0  0  0  0  0  0  0  0  0  0  0
    2.9955    9.9268   -7.4339 H   0  0  0  0  0  0  0  0  0  0  0  0
    3.6234    9.1848   -8.9558 H   0  0  0  0  0  0  0  0  0  0  0  0
    0.4519    4.6697    5.1998 H   0  0  0  0  0  0  0  0  0  0  0  0
    0.1609    2.8950    5.2098 H   0  0  0  0  0  0  0  0  0  0  0  0
    2.2728    3.5601    6.4230 H   0  0  0  0  0  0  0  0  0  0  0  0
    2.6104    2.4714    5.0227 H   0  0  0  0  0  0  0  0  0  0  0  0
    2.9131    4.2495    4.8792 H   0  0  0  0  0  0  0  0  0  0  0  0
    3.5849    4.9325    0.6619 H   0  0  0  0  0  0  0  0  0  0  0  0
    9.5879    3.3352    0.9619 H   0  0  0  0  0  0  0  0  0  0  0  0
    8.4825    3.8848   -3.5209 H   0  0  0  0  0  0  0  0  0  0  0  0
    6.5661    4.8521    3.1826 H   0  0  0  0  0  0  0  0  0  0  0  0
    6.4328    0.9327    7.9365 H   0  0  0  0  0  0  0  0  0  0  0  0
    8.1901    1.2990    8.0155 H   0  0  0  0  0  0  0  0  0  0  0  0
    7.7009   -0.7047    6.5867 H   0  0  0  0  0  0  0  0  0  0  0  0
    8.4692    0.6170    5.6346 H   0  0  0  0  0  0  0  0  0  0  0  0
    6.6873    0.3164    5.4950 H   0  0  0  0  0  0  0  0  0  0  0  0
   -0.6457   10.4273    1.3721 H   0  0  0  0  0  0  0  0  0  0  0  0
   -0.3552   12.0542    2.0776 H   0  0  0  0  0  0  0  0  0  0  0  0
    1.7376   12.2809    0.6948 H   0  0  0  0  0  0  0  0  0  0  0  0
    0.2807   11.9916   -0.3290 H   0  0  0  0  0  0  0  0  0  0  0  0
    1.4350   10.6407   -0.0098 H   0  0  0  0  0  0  0  0  0  0  0  0
    1.7820    8.7628    6.7291 H   0  0  0  0  0  0  0  0  0  0  0  0
    2.1918    7.5901    9.0132 H   0  0  0  0  0  0  0  0  0  0  0  0
  1  2  2  0
  2  3  1  0
  3  4  2  0
  4  5  1  0
  5  6  1  0
  6  7  1  0
  7  8  1  0
  8  9  1  0
  7 10  2  0
 10 11  1  0
 10 12  1  0
 12 13  1  0
  4 14  1  0
 14 15  2  0
 15 16  1  0
 16 17  1  0
 17 18  1  0
 18 19  1  0
 19 20  1  0
 20 21  1  0
 19 22  2  0
 22 23  1  0
 23 24  1  0
 22 25  1  0
 16 26  2  0
 26 27  1  0
 15 28  1  0
 28 29  2  0
 29 30  1  0
 29 31  1  0
 31 32  2  0
 32 33  1  0
 33 34  2  0
 34 35  1  0
 35 36  1  0
 36 37  1  0
 37 38  1  0
 38 39  1  0
 37 40  2  0
 40 41  1  0
 40 42  1  0
 42 43  1  0
 34 44  1  0
 44 45  2  0
 45 46  1  0
 46 47  1  0
 47 48  1  0
 48 49  1  0
 49 50  1  0
 50 51  1  0
 49 52  2  0
 52 53  1  0
 53 54  1  0
 52 55  1  0
 46 56  2  0
 56 57  1  0
 45 58  1  0
 58 59  2  0
 59 60  1  0
 59 61  1  0
 61 62  2  0
 62 63  1  0
 63 64  2  0
 64 65  1  0
 65 66  1  0
 66 67  1  0
 67 68  1  0
 68 69  1  0
 67 70  2  0
 70 71  1  0
 70 72  1  0
 72 73  1  0
 64 74  1  0
 74 75  2  0
 75 76  1  0
 76 77  1  0
 77 78  1  0
 78 79  1  0
 79 80  1  0
 80 81  1  0
 79 82  2  0
 82 83  1  0
 83 84  1  0
 82 85  1  0
 76 86  2  0
 86 87  1  0
 75 88  1  0
 88 89  2  0
 89 90  1  0
 89 91  1  0
 91 92  2  0
 92 93  1  0
 93 94  2  0
 94 95  1  0
 95 96  1  0
 96 97  1  0
 97 98  1  0
 98 99  1  0
 97100  2  0
100101  1  0
100102  1  0
102103  1  0
 94104  1  0
104105  2  0
105106  1  0
106107  1  0
107108  1  0
108109  1  0
109110  1  0
110111  1  0
109112  2  0
112113  1  0
113114  1  0
112115  1  0
106116  2  0
116117  1  0
105118  1  0
118119  2  0
119120  1  0
119121  1  0
121122  2  0
122123  1  0
123124  1  0
124125  2  0
125126  1  0
126127  1  0
127128  2  0
128129  1  0
122130  1  0
130131  2  0
131132  1  0
132133  2  0
133134  1  0
134135  1  0
135136  1  0
136137  1  0
137138  1  0
136139  2  0
139140  1  0
139141  1  0
141142  1  0
133143  1  0
143144  2  0
144145  1  0
145146  1  0
146147  1  0
147148  1  0
148149  1  0
149150  1  0
148151  2  0
151152  1  0
152153  1  0
151154  1  0
145155  2  0
155156  1  0
144157  1  0
157158  2  0
158159  1  0
 27  1  1  0
 57 31  1  0
 87 61  1  0
117 91  1  0
129121  1  0
156130  1  0
 26  3  1  0
 56 33  1  0
 86 63  1  0
116 93  1  0
128124  1  0
155132  1  0
 12  5  2  0
 30 14  1  0
 42 35  2  0
 60 44  1  0
 72 65  2  0
 90 74  1  0
102 95  2  0
120104  1  0
141134  2  0
159143  1  0
 23 17  2  0
 53 47  2  0
 83 77  2  0
113107  2  0
152146  2  0
  1160  1  0
  2161  1  0
  8162  1  0
  8163  1  0
  9164  1  0
  9165  1  0
  9166  1  0
 20167  1  0
 20168  1  0
 21169  1  0
 21170  1  0
 21171  1  0
 28172  1  0
 32173  1  0
 38174  1  0
 38175  1  0
 39176  1  0
 39177  1  0
 39178  1  0
 50179  1  0
 50180  1  0
 51181  1  0
 51182  1  0
 51183  1  0
 58184  1  0
 62185  1  0
 68186  1  0
 68187  1  0
 69188  1  0
 69189  1  0
 69190  1  0
 80191  1  0
 80192  1  0
 81193  1  0
 81194  1  0
 81195  1  0
 88196  1  0
 92197  1  0
 98198  1  0
 98199  1  0
 99200  1  0
 99201  1  0
 99202  1  0
110203  1  0
110204  1  0
111205  1  0
111206  1  0
111207  1  0
118208  1  0
125209  1  0
127210  1  0
131211  1  0
137212  1  0
137213  1  0
138214  1  0
138215  1  0
138216  1  0
149217  1  0
149218  1  0
150219  1  0
150220  1  0
150221  1  0
157222  1  0
158223  1  0
M  END

