
     RDKit          3D

153169  0  0  0  0  0  0  0  0999 V2000
    4.7008    3.8389    8.0320 C   0  0  0  0  0  0  0  0  0  0  0  0
    5.2343    2.5865    8.3205 C   0  0  0  0  0  0  0  0  0  0  0  0
    5.0525    1.6506    7.2860 C   0  0  0  0  0  0  0  0  0  0  0  0
    5.4882    0.3072    7.2806 C   0  0  0  0  0  0  0  0  0  0  0  0
    6.2332   -0.3069    8.4437 C   0  0  0  0  0  0  0  0  0  0  0  0
    5.2606   -0.8721    9.4736 C   0  0  0  0  0  0  0  0  0  0  0  0
    5.1559   -0.4572    6.1464 C   0  0  0  0  0  0  0  0  0  0  0  0
    4.4658    0.0716    5.0485 C   0  0  0  0  0  0  0  0  0  0  0  0
    4.0388    1.4185    5.0492 C   0  0  0  0  0  0  0  0  0  0  0  0
    3.3105    2.0349    3.8761 C   0  0  0  0  0  0  0  0  0  0  0  0
    4.2980    2.5190    2.8195 C   0  0  0  0  0  0  0  0  0  0  0  0
    4.3608    2.1786    6.1894 C   0  0  0  0  0  0  0  0  0  0  0  0
    3.9983    3.7923    6.5019 S   0  0  0  0  0  0  0  0  0  0  0  0
    4.2549   -0.8713    4.0263 C   0  0  0  0  0  0  0  0  0  0  0  0
    4.7595   -2.1346    4.3359 C   0  0  0  0  0  0  0  0  0  0  0  0
    5.4740   -2.0855    5.8626 S   0  0  0  0  0  0  0  0  0  0  0  0
    4.6454   -3.3407    3.5008 C   0  0  0  0  0  0  0  0  0  0  0  0
    4.1966   -3.3843    2.1811 C   0  0  0  0  0  0  0  0  0  0  0  0
    4.1340   -4.6902    1.6636 C   0  0  0  0  0  0  0  0  0  0  0  0
    3.6909   -5.0594    0.3745 C   0  0  0  0  0  0  0  0  0  0  0  0
    3.1934   -4.0437   -0.6298 C   0  0  0  0  0  0  0  0  0  0  0  0
    1.7198   -3.7250   -0.3905 C   0  0  0  0  0  0  0  0  0  0  0  0
    3.6112   -6.4385    0.1103 C   0  0  0  0  0  0  0  0  0  0  0  0
    3.9526   -7.4169    1.0531 C   0  0  0  0  0  0  0  0  0  0  0  0
    4.4659   -7.0469    2.3154 C   0  0  0  0  0  0  0  0  0  0  0  0
    4.8466   -8.0693    3.3611 C   0  0  0  0  0  0  0  0  0  0  0  0
    3.6336   -8.4789    4.1905 C   0  0  0  0  0  0  0  0  0  0  0  0
    4.5262   -5.6667    2.5886 C   0  0  0  0  0  0  0  0  0  0  0  0
    4.9642   -4.9120    4.0274 S   0  0  0  0  0  0  0  0  0  0  0  0
    3.6721   -8.7249    0.6154 C   0  0  0  0  0  0  0  0  0  0  0  0
    3.0987   -8.7659   -0.6552 C   0  0  0  0  0  0  0  0  0  0  0  0
    3.0038   -7.1905   -1.2634 S   0  0  0  0  0  0  0  0  0  0  0  0
    2.6009   -9.9858   -1.3325 C   0  0  0  0  0  0  0  0  0  0  0  0
    1.4483  -10.0024   -2.0567 C   0  0  0  0  0  0  0  0  0  0  0  0
    1.2065  -11.0030   -3.0156 O   0  0  0  0  0  0  0  0  0  0  0  0
    2.2299  -11.8069   -3.5199 C   0  0  0  0  0  0  0  0  0  0  0  0
    2.1885  -12.4166   -4.7647 C   0  0  0  0  0  0  0  0  0  0  0  0
    3.6856  -13.1503   -5.0044 S   0  0  0  0  0  0  0  0  0  0  0  0
    4.3773  -12.7164   -3.5298 C   0  0  0  0  0  0  0  0  0  0  0  0
    3.4231  -11.9958   -2.8307 C   0  0  0  0  0  0  0  0  0  0  0  0
    3.5711  -11.4977   -1.1253 S   0  0  0  0  0  0  0  0  0  0  0  0
    0.4441   -8.9262   -1.9534 C   0  0  0  0  0  0  0  0  0  0  0  0
   -0.0347   -8.2001   -3.0387 C   0  0  0  0  0  0  0  0  0  0  0  0
   -0.7820   -7.0717   -2.6575 C   0  0  0  0  0  0  0  0  0  0  0  0
   -1.3008   -6.0861   -3.5245 C   0  0  0  0  0  0  0  0  0  0  0  0
   -1.1574   -6.1805   -5.0260 C   0  0  0  0  0  0  0  0  0  0  0  0
    0.1862   -5.6163   -5.4794 C   0  0  0  0  0  0  0  0  0  0  0  0
   -1.8729   -4.9534   -2.9173 C   0  0  0  0  0  0  0  0  0  0  0  0
   -1.9655   -4.7991   -1.5283 C   0  0  0  0  0  0  0  0  0  0  0  0
   -1.4915   -5.8088   -0.6608 C   0  0  0  0  0  0  0  0  0  0  0  0
   -1.5787   -5.6796    0.8434 C   0  0  0  0  0  0  0  0  0  0  0  0
   -2.9662   -6.0751    1.3377 C   0  0  0  0  0  0  0  0  0  0  0  0
   -0.9081   -6.9385   -1.2681 C   0  0  0  0  0  0  0  0  0  0  0  0
   -0.1119   -8.2210   -0.5206 S   0  0  0  0  0  0  0  0  0  0  0  0
   -2.4912   -3.5500   -1.1484 C   0  0  0  0  0  0  0  0  0  0  0  0
   -2.7963   -2.7322   -2.2360 C   0  0  0  0  0  0  0  0  0  0  0  0
   -2.4348   -3.5546   -3.6641 S   0  0  0  0  0  0  0  0  0  0  0  0
   -3.2040   -1.3198   -2.1616 C   0  0  0  0  0  0  0  0  0  0  0  0
   -3.5457   -0.5188   -3.2504 C   0  0  0  0  0  0  0  0  0  0  0  0
   -3.7410    0.8299   -2.9042 C   0  0  0  0  0  0  0  0  0  0  0  0
   -4.0625    1.8834   -3.7881 C   0  0  0  0  0  0  0  0  0  0  0  0
   -4.3032    1.6525   -5.2631 C   0  0  0  0  0  0  0  0  0  0  0  0
   -5.7353    1.1895   -5.5108 C   0  0  0  0  0  0  0  0  0  0  0  0
   -4.1896    3.1650   -3.2188 C   0  0  0  0  0  0  0  0  0  0  0  0
   -3.9827    3.4181   -1.8570 C   0  0  0  0  0  0  0  0  0  0  0  0
   -3.6463    2.3665   -0.9756 C   0  0  0  0  0  0  0  0  0  0  0  0
   -3.4350    2.5918    0.5046 C   0  0  0  0  0  0  0  0  0  0  0  0
   -4.7650    2.5751    1.2510 C   0  0  0  0  0  0  0  0  0  0  0  0
   -3.5535    1.0783   -1.5383 C   0  0  0  0  0  0  0  0  0  0  0  0
   -3.1548   -0.3667   -0.7698 S   0  0  0  0  0  0  0  0  0  0  0  0
   -4.1283    4.7777   -1.5209 C   0  0  0  0  0  0  0  0  0  0  0  0
   -4.4424    5.5817   -2.6171 C   0  0  0  0  0  0  0  0  0  0  0  0
   -4.5529    4.6133   -3.9937 S   0  0  0  0  0  0  0  0  0  0  0  0
   -4.5847    7.0474   -2.6117 C   0  0  0  0  0  0  0  0  0  0  0  0
   -4.3219    7.8979   -1.5372 C   0  0  0  0  0  0  0  0  0  0  0  0
   -4.4758    9.2593   -1.8609 C   0  0  0  0  0  0  0  0  0  0  0  0
   -4.2469   10.3585   -1.0030 C   0  0  0  0  0  0  0  0  0  0  0  0
   -3.8280   10.1807    0.4386 C   0  0  0  0  0  0  0  0  0  0  0  0
   -5.0404    9.9295    1.3293 C   0  0  0  0  0  0  0  0  0  0  0  0
   -4.4620   11.6387   -1.5495 C   0  0  0  0  0  0  0  0  0  0  0  0
   -4.8621   11.8424   -2.8752 C   0  0  0  0  0  0  0  0  0  0  0  0
   -5.0995   10.7436   -3.7305 C   0  0  0  0  0  0  0  0  0  0  0  0
   -5.5122   10.9181   -5.1748 C   0  0  0  0  0  0  0  0  0  0  0  0
   -4.2892   11.0857   -6.0703 C   0  0  0  0  0  0  0  0  0  0  0  0
   -4.8789    9.4642   -3.1861 C   0  0  0  0  0  0  0  0  0  0  0  0
   -5.0179    7.9735   -3.9534 S   0  0  0  0  0  0  0  0  0  0  0  0
   -4.9804   13.2039   -3.2097 C   0  0  0  0  0  0  0  0  0  0  0  0
   -4.6880   14.0581   -2.1518 C   0  0  0  0  0  0  0  0  0  0  0  0
   -4.2765   13.1360   -0.8033 S   0  0  0  0  0  0  0  0  0  0  0  0
    4.7292    4.6997    8.6873 H   0  0  0  0  0  0  0  0  0  0  0  0
    5.7285    2.3749    9.2582 H   0  0  0  0  0  0  0  0  0  0  0  0
    6.8969    0.4415    8.9250 H   0  0  0  0  0  0  0  0  0  0  0  0
    6.9004   -1.1218    8.0888 H   0  0  0  0  0  0  0  0  0  0  0  0
    4.6162   -0.0646    9.8805 H   0  0  0  0  0  0  0  0  0  0  0  0
    5.8305   -1.3304   10.3088 H   0  0  0  0  0  0  0  0  0  0  0  0
    4.6213   -1.6528    9.0091 H   0  0  0  0  0  0  0  0  0  0  0  0
    2.6068    1.3049    3.4246 H   0  0  0  0  0  0  0  0  0  0  0  0
    2.6879    2.8922    4.2085 H   0  0  0  0  0  0  0  0  0  0  0  0
    4.8845    1.6661    2.4173 H   0  0  0  0  0  0  0  0  0  0  0  0
    4.9938    3.2665    3.2573 H   0  0  0  0  0  0  0  0  0  0  0  0
    3.7440    2.9953    1.9837 H   0  0  0  0  0  0  0  0  0  0  0  0
    3.7384   -0.6548    3.1023 H   0  0  0  0  0  0  0  0  0  0  0  0
    3.9093   -2.5008    1.6287 H   0  0  0  0  0  0  0  0  0  0  0  0
    3.7930   -3.1116   -0.5752 H   0  0  0  0  0  0  0  0  0  0  0  0
    3.3170   -4.4286   -1.6643 H   0  0  0  0  0  0  0  0  0  0  0  0
    1.1132   -4.6507   -0.4690 H   0  0  0  0  0  0  0  0  0  0  0  0
    1.3635   -3.0011   -1.1536 H   0  0  0  0  0  0  0  0  0  0  0  0
    1.5783   -3.2797    0.6170 H   0  0  0  0  0  0  0  0  0  0  0  0
    5.2918   -8.9670    2.8830 H   0  0  0  0  0  0  0  0  0  0  0  0
    5.6279   -7.6603    4.0359 H   0  0  0  0  0  0  0  0  0  0  0  0
    3.2083   -7.5962    4.7154 H   0  0  0  0  0  0  0  0  0  0  0  0
    2.8522   -8.9290    3.5413 H   0  0  0  0  0  0  0  0  0  0  0  0
    3.9408   -9.2299    4.9489 H   0  0  0  0  0  0  0  0  0  0  0  0
    3.8222   -9.6113    1.2174 H   0  0  0  0  0  0  0  0  0  0  0  0
    1.3674  -12.3837   -5.4681 H   0  0  0  0  0  0  0  0  0  0  0  0
    5.3576  -13.0018   -3.1717 H   0  0  0  0  0  0  0  0  0  0  0  0
    0.2312   -8.4395   -4.0600 H   0  0  0  0  0  0  0  0  0  0  0  0
   -1.2524   -7.2354   -5.3591 H   0  0  0  0  0  0  0  0  0  0  0  0
   -1.9756   -5.6232   -5.5298 H   0  0  0  0  0  0  0  0  0  0  0  0
    1.0228   -6.1850   -5.0201 H   0  0  0  0  0  0  0  0  0  0  0  0
    0.2720   -4.5468   -5.1917 H   0  0  0  0  0  0  0  0  0  0  0  0
    0.2672   -5.6968   -6.5841 H   0  0  0  0  0  0  0  0  0  0  0  0
   -1.3500   -4.6394    1.1580 H   0  0  0  0  0  0  0  0  0  0  0  0
   -0.8213   -6.3200    1.3431 H   0  0  0  0  0  0  0  0  0  0  0  0
   -3.7361   -5.3985    0.9106 H   0  0  0  0  0  0  0  0  0  0  0  0
   -3.1946   -7.1217    1.0422 H   0  0  0  0  0  0  0  0  0  0  0  0
   -3.0028   -5.9995    2.4444 H   0  0  0  0  0  0  0  0  0  0  0  0
   -2.6130   -3.2283   -0.1233 H   0  0  0  0  0  0  0  0  0  0  0  0
   -3.6260   -0.9047   -4.2579 H   0  0  0  0  0  0  0  0  0  0  0  0
   -3.5920    0.8989   -5.6605 H   0  0  0  0  0  0  0  0  0  0  0  0
   -4.1197    2.5809   -5.8434 H   0  0  0  0  0  0  0  0  0  0  0  0
   -5.9351    0.2372   -4.9737 H   0  0  0  0  0  0  0  0  0  0  0  0
   -6.4539    1.9628   -5.1643 H   0  0  0  0  0  0  0  0  0  0  0  0
   -5.8889    1.0216   -6.5977 H   0  0  0  0  0  0  0  0  0  0  0  0
   -2.7702    1.8105    0.9297 H   0  0  0  0  0  0  0  0  0  0  0  0
   -2.9187    3.5583    0.6819 H   0  0  0  0  0  0  0  0  0  0  0  0
   -5.4262    3.3869    0.8807 H   0  0  0  0  0  0  0  0  0  0  0  0
   -5.2722    1.5964    1.1090 H   0  0  0  0  0  0  0  0  0  0  0  0
   -4.5844    2.7292    2.3357 H   0  0  0  0  0  0  0  0  0  0  0  0
   -4.0028    5.1698   -0.5216 H   0  0  0  0  0  0  0  0  0  0  0  0
   -4.0139    7.5398   -0.5652 H   0  0  0  0  0  0  0  0  0  0  0  0
   -3.1110    9.3386    0.5347 H   0  0  0  0  0  0  0  0  0  0  0  0
   -3.2909   11.0811    0.8067 H   0  0  0  0  0  0  0  0  0  0  0  0
   -4.7079    9.7888    2.3789 H   0  0  0  0  0  0  0  0  0  0  0  0
   -5.7330   10.7975    1.2871 H   0  0  0  0  0  0  0  0  0  0  0  0
   -5.5794    9.0148    1.0021 H   0  0  0  0  0  0  0  0  0  0  0  0
   -6.1827   11.7957   -5.2870 H   0  0  0  0  0  0  0  0  0  0  0  0
   -6.0990   10.0406   -5.5192 H   0  0  0  0  0  0  0  0  0  0  0  0
   -3.7249   11.9998   -5.7851 H   0  0  0  0  0  0  0  0  0  0  0  0
   -4.6148   11.1829   -7.1274 H   0  0  0  0  0  0  0  0  0  0  0  0
   -3.6242   10.2009   -5.9830 H   0  0  0  0  0  0  0  0  0  0  0  0
   -5.2609   13.5726   -4.1859 H   0  0  0  0  0  0  0  0  0  0  0  0
   -4.7149   15.1385   -2.1933 H   0  0  0  0  0  0  0  0  0  0  0  0
  1  2  2  0
  2  3  1  0
  3  4  2  0
  4  5  1  0
  5  6  1  0
  4  7  1  0
  7  8  2  0
  8  9  1  0
  9 10  1  0
 10 11  1  0
  9 12  2  0
 12 13  1  0
  8 14  1  0
 14 15  2  0
 15 16  1  0
 15 17  1  0
 17 18  2  0
 18 19  1  0
 19 20  2  0
 20 21  1  0
 21 22  1  0
 20 23  1  0
 23 24  2  0
 24 25  1  0
 25 26  1  0
 26 27  1  0
 25 28  2  0
 28 29  1  0
 24 30  1  0
 30 31  2  0
 31 32  1  0
 31 33  1  0
 33 34  2  0
 34 35  1  0
 35 36  1  0
 36 37  2  0
 37 38  1  0
 38 39  1  0
 39 40  2  0
 40 41  1  0
 34 42  1  0
 42 43  2  0
 43 44  1  0
 44 45  2  0
 45 46  1  0
 46 47  1  0
 45 48  1  0
 48 49  2  0
 49 50  1  0
 50 51  1  0
 51 52  1  0
 50 53  2  0
 53 54  1  0
 49 55  1  0
 55 56  2  0
 56 57  1  0
 56 58  1  0
 58 59  2  0
 59 60  1  0
 60 61  2  0
 61 62  1  0
 62 63  1  0
 61 64  1  0
 64 65  2  0
 65 66  1  0
 66 67  1  0
 67 68  1  0
 66 69  2  0
 69 70  1  0
 65 71  1  0
 71 72  2  0
 72 73  1  0
 72 74  1  0
 74 75  2  0
 75 76  1  0
 76 77  2  0
 77 78  1  0
 78 79  1  0
 77 80  1  0
 80 81  2  0
 81 82  1  0
 82 83  1  0
 83 84  1  0
 82 85  2  0
 85 86  1  0
 81 87  1  0
 87 88  2  0
 88 89  1  0
 13  1  1  0
 29 17  1  0
 41 33  1  0
 54 42  1  0
 70 58  1  0
 86 74  1  0
 12  3  1  0
 28 19  1  0
 40 36  1  0
 53 44  1  0
 69 60  1  0
 85 76  1  0
 16  7  1  0
 32 23  1  0
 57 48  1  0
 73 64  1  0
 89 80  1  0
  1 90  1  0
  2 91  1  0
  5 92  1  0
  5 93  1  0
  6 94  1  0
  6 95  1  0
  6 96  1  0
 10 97  1  0
 10 98  1  0
 11 99  1  0
 11100  1  0
 11101  1  0
 14102  1  0
 18103  1  0
 21104  1  0
 21105  1  0
 22106  1  0
 22107  1  0
 22108  1  0
 26109  1  0
 26110  1  0
 27111  1  0
 27112  1  0
 27113  1  0
 30114  1  0
 37115  1  0
 39116  1  0
 43117  1  0
 46118  1  0
 46119  1  0
 47120  1  0
 47121  1  0
 47122  1  0
 51123  1  0
 51124  1  0
 52125  1  0
 52126  1  0
 52127  1  0
 55128  1  0
 59129  1  0
 62130  1  0
 62131  1  0
 63132  1  0
 63133  1  0
 63134  1  0
 67135  1  0
 67136  1  0
 68137  1  0
 68138  1  0
 68139  1  0
 71140  1  0
 75141  1  0
 78142  1  0
 78143  1  0
 79144  1  0
 79145  1  0
 79146  1  0
 83147  1  0
 83148  1  0
 84149  1  0
 84150  1  0
 84151  1  0
 87152  1  0
 88153  1  0
M  END

