
     RDKit          3D

265291  0  0  0  0  0  0  0  0999 V2000
    0.6541   -6.0171    7.8190 C   0  0  0  0  0  0  0  0  0  0  0  0
    1.0384   -4.7562    7.3704 C   0  0  0  0  0  0  0  0  0  0  0  0
   -0.0473   -3.8934    7.1279 C   0  0  0  0  0  0  0  0  0  0  0  0
    0.0193   -2.5692    6.6285 C   0  0  0  0  0  0  0  0  0  0  0  0
    1.3171   -1.9116    6.3647 C   0  0  0  0  0  0  0  0  0  0  0  0
    1.6392   -1.4417    5.0814 C   0  0  0  0  0  0  0  0  0  0  0  0
    2.9138   -0.9225    4.8211 C   0  0  0  0  0  0  0  0  0  0  0  0
    3.8783   -0.8878    5.8346 C   0  0  0  0  0  0  0  0  0  0  0  0
    5.5295   -0.2814    5.4902 S   0  0  0  0  0  0  0  0  0  0  0  0
    6.1560   -1.8877    4.9076 C   0  0  0  0  0  0  0  0  0  0  0  0
    7.6602   -1.8030    4.6911 C   0  0  0  0  0  0  0  0  0  0  0  0
    3.5458   -1.3138    7.1276 C   0  0  0  0  0  0  0  0  0  0  0  0
    4.4657   -1.2695    8.1242 F   0  0  0  0  0  0  0  0  0  0  0  0
    2.2684   -1.8117    7.3911 C   0  0  0  0  0  0  0  0  0  0  0  0
   -1.2090   -1.9147    6.4039 C   0  0  0  0  0  0  0  0  0  0  0  0
   -2.4404   -2.5303    6.6602 C   0  0  0  0  0  0  0  0  0  0  0  0
   -2.5053   -3.8626    7.1126 C   0  0  0  0  0  0  0  0  0  0  0  0
   -3.7907   -4.5915    7.1919 C   0  0  0  0  0  0  0  0  0  0  0  0
   -4.6117   -4.6832    6.0556 C   0  0  0  0  0  0  0  0  0  0  0  0
   -5.8221   -5.3750    6.1127 C   0  0  0  0  0  0  0  0  0  0  0  0
   -6.2134   -6.0089    7.2960 C   0  0  0  0  0  0  0  0  0  0  0  0
   -7.7565   -6.9250    7.3456 S   0  0  0  0  0  0  0  0  0  0  0  0
   -7.0877   -8.4306    6.5510 C   0  0  0  0  0  0  0  0  0  0  0  0
   -6.2269   -9.2398    7.5133 C   0  0  0  0  0  0  0  0  0  0  0  0
   -5.4047   -5.9155    8.4380 C   0  0  0  0  0  0  0  0  0  0  0  0
   -4.1951   -5.2133    8.3836 C   0  0  0  0  0  0  0  0  0  0  0  0
   -5.7871   -6.4985    9.6017 F   0  0  0  0  0  0  0  0  0  0  0  0
   -1.2830   -4.5028    7.3691 C   0  0  0  0  0  0  0  0  0  0  0  0
   -1.0253   -6.0826    7.8945 S   0  0  0  0  0  0  0  0  0  0  0  0
   -3.5374   -1.6885    6.4439 C   0  0  0  0  0  0  0  0  0  0  0  0
   -3.1780   -0.4292    5.9798 C   0  0  0  0  0  0  0  0  0  0  0  0
   -1.4928   -0.3420    5.8553 S   0  0  0  0  0  0  0  0  0  0  0  0
   -4.1410    0.6439    5.6955 C   0  0  0  0  0  0  0  0  0  0  0  0
   -4.0988    1.6775    4.3296 S   0  0  0  0  0  0  0  0  0  0  0  0
   -5.5931    2.3595    4.6915 C   0  0  0  0  0  0  0  0  0  0  0  0
   -6.3519    3.2695    4.0347 N   0  0  0  0  0  0  0  0  0  0  0  0
   -7.5121    3.4501    4.7303 C   0  0  0  0  0  0  0  0  0  0  0  0
   -7.5954    2.4923    6.1421 S   0  0  0  0  0  0  0  0  0  0  0  0
   -6.0976    1.8268    5.8254 C   0  0  0  0  0  0  0  0  0  0  0  0
   -5.3241    0.8452    6.4230 C   0  0  0  0  0  0  0  0  0  0  0  0
   -8.5756    4.3929    4.3440 C   0  0  0  0  0  0  0  0  0  0  0  0
   -8.8610    4.7497    3.0876 C   0  0  0  0  0  0  0  0  0  0  0  0
   -8.2280    4.1474    1.9154 C   0  0  0  0  0  0  0  0  0  0  0  0
   -8.6626    2.9886    1.2763 C   0  0  0  0  0  0  0  0  0  0  0  0
   -7.8935    2.6727    0.1458 C   0  0  0  0  0  0  0  0  0  0  0  0
   -8.0822    1.5750   -0.7213 C   0  0  0  0  0  0  0  0  0  0  0  0
   -9.2172    0.6471   -0.5696 C   0  0  0  0  0  0  0  0  0  0  0  0
   -9.2720   -0.2565    0.5003 C   0  0  0  0  0  0  0  0  0  0  0  0
  -10.3756   -1.1036    0.6495 C   0  0  0  0  0  0  0  0  0  0  0  0
  -11.4335   -1.0455   -0.2650 C   0  0  0  0  0  0  0  0  0  0  0  0
  -12.8743   -2.0951   -0.0376 S   0  0  0  0  0  0  0  0  0  0  0  0
  -12.1922   -3.5291   -0.9439 C   0  0  0  0  0  0  0  0  0  0  0  0
  -12.3344   -3.3569   -2.4524 C   0  0  0  0  0  0  0  0  0  0  0  0
  -11.3827   -0.1373   -1.3302 C   0  0  0  0  0  0  0  0  0  0  0  0
  -12.4165   -0.0432   -2.2042 F   0  0  0  0  0  0  0  0  0  0  0  0
  -10.2756    0.6990   -1.4871 C   0  0  0  0  0  0  0  0  0  0  0  0
   -7.1753    1.4439   -1.7868 C   0  0  0  0  0  0  0  0  0  0  0  0
   -6.1508    2.3663   -2.0207 C   0  0  0  0  0  0  0  0  0  0  0  0
   -5.9943    3.4910   -1.1836 C   0  0  0  0  0  0  0  0  0  0  0  0
   -4.9791    4.5300   -1.4456 C   0  0  0  0  0  0  0  0  0  0  0  0
   -3.6144    4.2615   -1.2630 C   0  0  0  0  0  0  0  0  0  0  0  0
   -2.6656    5.2608   -1.5010 C   0  0  0  0  0  0  0  0  0  0  0  0
   -3.0721    6.5287   -1.9289 C   0  0  0  0  0  0  0  0  0  0  0  0
   -1.8532    7.8115   -2.2106 S   0  0  0  0  0  0  0  0  0  0  0  0
   -2.1036    8.5700   -0.5714 C   0  0  0  0  0  0  0  0  0  0  0  0
   -1.2098    9.7894   -0.4208 C   0  0  0  0  0  0  0  0  0  0  0  0
   -4.4352    6.7908   -2.1370 C   0  0  0  0  0  0  0  0  0  0  0  0
   -5.3832    5.7989   -1.8820 C   0  0  0  0  0  0  0  0  0  0  0  0
   -4.8450    8.0135   -2.5573 F   0  0  0  0  0  0  0  0  0  0  0  0
   -6.8771    3.6039   -0.0992 C   0  0  0  0  0  0  0  0  0  0  0  0
   -6.9241    4.8055    1.0775 S   0  0  0  0  0  0  0  0  0  0  0  0
   -5.3312    2.0211   -3.1039 C   0  0  0  0  0  0  0  0  0  0  0  0
   -5.6838    0.8031   -3.6871 C   0  0  0  0  0  0  0  0  0  0  0  0
   -7.0375    0.1804   -2.8892 S   0  0  0  0  0  0  0  0  0  0  0  0
   -4.8050    0.0503   -4.5938 C   0  0  0  0  0  0  0  0  0  0  0  0
   -4.8129   -1.3372   -4.7356 C   0  0  0  0  0  0  0  0  0  0  0  0
   -3.6095   -1.8476   -5.2595 C   0  0  0  0  0  0  0  0  0  0  0  0
   -3.2126   -3.2065   -5.2874 C   0  0  0  0  0  0  0  0  0  0  0  0
   -4.1139   -4.3183   -4.8961 C   0  0  0  0  0  0  0  0  0  0  0  0
   -4.3298   -5.3785   -5.7925 C   0  0  0  0  0  0  0  0  0  0  0  0
   -5.1690   -6.4379   -5.4439 C   0  0  0  0  0  0  0  0  0  0  0  0
   -5.8362   -6.4328   -4.2130 C   0  0  0  0  0  0  0  0  0  0  0  0
   -6.9183   -7.7983   -3.7819 S   0  0  0  0  0  0  0  0  0  0  0  0
   -8.3380   -7.2241   -4.7846 C   0  0  0  0  0  0  0  0  0  0  0  0
   -9.1445   -6.1646   -4.0468 C   0  0  0  0  0  0  0  0  0  0  0  0
   -5.6236   -5.3787   -3.3088 C   0  0  0  0  0  0  0  0  0  0  0  0
   -6.2476   -5.3699   -2.1038 F   0  0  0  0  0  0  0  0  0  0  0  0
   -4.7463   -4.3405   -3.6418 C   0  0  0  0  0  0  0  0  0  0  0  0
   -1.8748   -3.4630   -5.6431 C   0  0  0  0  0  0  0  0  0  0  0  0
   -0.9835   -2.4547   -6.0185 C   0  0  0  0  0  0  0  0  0  0  0  0
   -1.3879   -1.1024   -6.0225 C   0  0  0  0  0  0  0  0  0  0  0  0
   -0.4267    0.0060   -6.2229 C   0  0  0  0  0  0  0  0  0  0  0  0
    0.6767    0.1527   -5.3644 C   0  0  0  0  0  0  0  0  0  0  0  0
    1.5774    1.2017   -5.5451 C   0  0  0  0  0  0  0  0  0  0  0  0
    1.3606    2.1503   -6.5526 C   0  0  0  0  0  0  0  0  0  0  0  0
    2.5128    3.5086   -6.7692 S   0  0  0  0  0  0  0  0  0  0  0  0
    1.7402    4.5354   -5.4735 C   0  0  0  0  0  0  0  0  0  0  0  0
    2.4430    5.8833   -5.3926 C   0  0  0  0  0  0  0  0  0  0  0  0
    0.2432    2.0317   -7.3919 C   0  0  0  0  0  0  0  0  0  0  0  0
   -0.6412    0.9569   -7.2330 C   0  0  0  0  0  0  0  0  0  0  0  0
    0.0251    2.9393   -8.3761 F   0  0  0  0  0  0  0  0  0  0  0  0
   -2.7060   -0.8377   -5.6196 C   0  0  0  0  0  0  0  0  0  0  0  0
   -3.3591    0.6560   -5.2153 S   0  0  0  0  0  0  0  0  0  0  0  0
    0.3349   -2.9095   -6.1724 C   0  0  0  0  0  0  0  0  0  0  0  0
    0.5169   -4.2339   -5.7796 C   0  0  0  0  0  0  0  0  0  0  0  0
   -0.9935   -4.8713   -5.3610 S   0  0  0  0  0  0  0  0  0  0  0  0
    1.7624   -4.6178   -5.1066 C   0  0  0  0  0  0  0  0  0  0  0  0
    1.8255   -4.5776   -3.7121 C   0  0  0  0  0  0  0  0  0  0  0  0
    3.0588   -4.1288   -3.2060 C   0  0  0  0  0  0  0  0  0  0  0  0
    3.2886   -3.6954   -1.8774 C   0  0  0  0  0  0  0  0  0  0  0  0
    2.2546   -3.8786   -0.8242 C   0  0  0  0  0  0  0  0  0  0  0  0
    1.7081   -2.7680   -0.1565 C   0  0  0  0  0  0  0  0  0  0  0  0
    0.6417   -2.9324    0.7371 C   0  0  0  0  0  0  0  0  0  0  0  0
    0.0907   -4.1963    0.9459 C   0  0  0  0  0  0  0  0  0  0  0  0
   -1.3264   -4.3884    2.0334 S   0  0  0  0  0  0  0  0  0  0  0  0
   -0.3352   -4.8092    3.5086 C   0  0  0  0  0  0  0  0  0  0  0  0
   -0.9588   -6.0035    4.2145 C   0  0  0  0  0  0  0  0  0  0  0  0
    0.6216   -5.3080    0.2817 C   0  0  0  0  0  0  0  0  0  0  0  0
    0.0781   -6.5377    0.4557 F   0  0  0  0  0  0  0  0  0  0  0  0
    1.7131   -5.1517   -0.5841 C   0  0  0  0  0  0  0  0  0  0  0  0
    4.4635   -2.9451   -1.6577 C   0  0  0  0  0  0  0  0  0  0  0  0
    5.3875   -2.6755   -2.6757 C   0  0  0  0  0  0  0  0  0  0  0  0
    5.1871   -3.1795   -3.9795 C   0  0  0  0  0  0  0  0  0  0  0  0
    6.0602   -2.8153   -5.1124 C   0  0  0  0  0  0  0  0  0  0  0  0
    6.0442   -1.5077   -5.6235 C   0  0  0  0  0  0  0  0  0  0  0  0
    6.7646   -1.1974   -6.7796 C   0  0  0  0  0  0  0  0  0  0  0  0
    7.5098   -2.1881   -7.4328 C   0  0  0  0  0  0  0  0  0  0  0  0
    8.3571   -1.8055   -8.9685 S   0  0  0  0  0  0  0  0  0  0  0  0
    9.8993   -1.2898   -8.1390 C   0  0  0  0  0  0  0  0  0  0  0  0
   10.8789   -0.7378   -9.1651 C   0  0  0  0  0  0  0  0  0  0  0  0
    7.5414   -3.4885   -6.9139 C   0  0  0  0  0  0  0  0  0  0  0  0
    6.8169   -3.8039   -5.7608 C   0  0  0  0  0  0  0  0  0  0  0  0
    8.2550   -4.4574   -7.5425 F   0  0  0  0  0  0  0  0  0  0  0  0
    3.9993   -3.8867   -4.2119 C   0  0  0  0  0  0  0  0  0  0  0  0
    3.2808   -4.1796   -5.7050 S   0  0  0  0  0  0  0  0  0  0  0  0
    6.3895   -1.7712   -2.2873 C   0  0  0  0  0  0  0  0  0  0  0  0
    6.2317   -1.3019   -0.9827 C   0  0  0  0  0  0  0  0  0  0  0  0
    4.8947   -2.0608   -0.2886 S   0  0  0  0  0  0  0  0  0  0  0  0
    6.9070   -0.1128   -0.4369 C   0  0  0  0  0  0  0  0  0  0  0  0
    6.4928    0.6183    0.6798 C   0  0  0  0  0  0  0  0  0  0  0  0
    7.1574    1.8532    0.8062 C   0  0  0  0  0  0  0  0  0  0  0  0
    6.9187    2.8557    1.7789 C   0  0  0  0  0  0  0  0  0  0  0  0
    5.8471    2.7493    2.7964 C   0  0  0  0  0  0  0  0  0  0  0  0
    4.5141    2.5473    2.4075 C   0  0  0  0  0  0  0  0  0  0  0  0
    3.4925    2.5418    3.3603 C   0  0  0  0  0  0  0  0  0  0  0  0
    3.7870    2.7635    4.7096 C   0  0  0  0  0  0  0  0  0  0  0  0
    2.4672    2.7702    5.9275 S   0  0  0  0  0  0  0  0  0  0  0  0
    2.0072    4.5219    5.6639 C   0  0  0  0  0  0  0  0  0  0  0  0
    3.0275    5.4731    6.2811 C   0  0  0  0  0  0  0  0  0  0  0  0
    5.1181    2.9556    5.1077 C   0  0  0  0  0  0  0  0  0  0  0  0
    5.4257    3.1452    6.4153 F   0  0  0  0  0  0  0  0  0  0  0  0
    6.1410    2.9396    4.1547 C   0  0  0  0  0  0  0  0  0  0  0  0
    7.6944    4.0295    1.6802 C   0  0  0  0  0  0  0  0  0  0  0  0
    8.6403    4.2322    0.6708 C   0  0  0  0  0  0  0  0  0  0  0  0
    8.8606    3.2422   -0.3042 C   0  0  0  0  0  0  0  0  0  0  0  0
    9.7630    3.4614   -1.4477 C   0  0  0  0  0  0  0  0  0  0  0  0
   11.0509    2.9147   -1.4500 C   0  0  0  0  0  0  0  0  0  0  0  0
   11.8952    3.1060   -2.5476 C   0  0  0  0  0  0  0  0  0  0  0  0
   11.4471    3.8284   -3.6614 C   0  0  0  0  0  0  0  0  0  0  0  0
   12.5430    4.0853   -5.0581 S   0  0  0  0  0  0  0  0  0  0  0  0
   12.1577    2.4967   -5.8817 C   0  0  0  0  0  0  0  0  0  0  0  0
   10.7847    2.5191   -6.5449 C   0  0  0  0  0  0  0  0  0  0  0  0
   10.1607    4.3836   -3.6564 C   0  0  0  0  0  0  0  0  0  0  0  0
    9.3172    4.1938   -2.5587 C   0  0  0  0  0  0  0  0  0  0  0  0
    9.7218    5.1074   -4.7162 F   0  0  0  0  0  0  0  0  0  0  0  0
    8.1118    2.0616   -0.1969 C   0  0  0  0  0  0  0  0  0  0  0  0
    8.1035    0.7572   -1.2494 S   0  0  0  0  0  0  0  0  0  0  0  0
    9.2726    5.4843    0.7408 C   0  0  0  0  0  0  0  0  0  0  0  0
    8.8206    6.2680    1.7986 C   0  0  0  0  0  0  0  0  0  0  0  0
    7.6323    5.4128    2.6391 S   0  0  0  0  0  0  0  0  0  0  0  0
    1.3308   -6.8322    8.0507 H   0  0  0  0  0  0  0  0  0  0  0  0
    2.0751   -4.4966    7.2074 H   0  0  0  0  0  0  0  0  0  0  0  0
    0.9183   -1.5019    4.2790 H   0  0  0  0  0  0  0  0  0  0  0  0
    3.1609   -0.5773    3.8235 H   0  0  0  0  0  0  0  0  0  0  0  0
    5.6574   -2.1467    3.9482 H   0  0  0  0  0  0  0  0  0  0  0  0
    5.9416   -2.6737    5.6629 H   0  0  0  0  0  0  0  0  0  0  0  0
    8.0428   -2.7777    4.3242 H   0  0  0  0  0  0  0  0  0  0  0  0
    8.1647   -1.5586    5.6493 H   0  0  0  0  0  0  0  0  0  0  0  0
    7.8991   -1.0130    3.9479 H   0  0  0  0  0  0  0  0  0  0  0  0
    2.0301   -2.1502    8.3927 H   0  0  0  0  0  0  0  0  0  0  0  0
   -4.3089   -4.2183    5.1245 H   0  0  0  0  0  0  0  0  0  0  0  0
   -6.4461   -5.4336    5.2289 H   0  0  0  0  0  0  0  0  0  0  0  0
   -7.9386   -9.0633    6.2221 H   0  0  0  0  0  0  0  0  0  0  0  0
   -6.4926   -8.1690    5.6500 H   0  0  0  0  0  0  0  0  0  0  0  0
   -5.9218  -10.1897    7.0179 H   0  0  0  0  0  0  0  0  0  0  0  0
   -6.7994   -9.4915    8.4333 H   0  0  0  0  0  0  0  0  0  0  0  0
   -5.3074   -8.6752    7.7857 H   0  0  0  0  0  0  0  0  0  0  0  0
   -3.5815   -5.1443    9.2721 H   0  0  0  0  0  0  0  0  0  0  0  0
   -4.5654   -1.9819    6.6156 H   0  0  0  0  0  0  0  0  0  0  0  0
   -5.6092    0.2988    7.3120 H   0  0  0  0  0  0  0  0  0  0  0  0
   -9.1961    4.7968    5.1349 H   0  0  0  0  0  0  0  0  0  0  0  0
   -9.6713    5.4483    2.9161 H   0  0  0  0  0  0  0  0  0  0  0  0
   -9.5105    2.4052    1.6145 H   0  0  0  0  0  0  0  0  0  0  0  0
   -8.4608   -0.3016    1.2170 H   0  0  0  0  0  0  0  0  0  0  0  0
  -10.4108   -1.7947    1.4797 H   0  0  0  0  0  0  0  0  0  0  0  0
  -12.7604   -4.4314   -0.6328 H   0  0  0  0  0  0  0  0  0  0  0  0
  -11.1253   -3.6906   -0.6770 H   0  0  0  0  0  0  0  0  0  0  0  0
  -12.0439   -4.3033   -2.9610 H   0  0  0  0  0  0  0  0  0  0  0  0
  -11.6684   -2.5468   -2.8138 H   0  0  0  0  0  0  0  0  0  0  0  0
  -13.3886   -3.1205   -2.7151 H   0  0  0  0  0  0  0  0  0  0  0  0
  -10.2502    1.4047   -2.3100 H   0  0  0  0  0  0  0  0  0  0  0  0
   -3.2884    3.2850   -0.9290 H   0  0  0  0  0  0  0  0  0  0  0  0
   -1.6168    5.0489   -1.3480 H   0  0  0  0  0  0  0  0  0  0  0  0
   -1.8599    7.8308    0.2248 H   0  0  0  0  0  0  0  0  0  0  0  0
   -3.1645    8.8852   -0.4664 H   0  0  0  0  0  0  0  0  0  0  0  0
   -1.3836   10.2498    0.5743 H   0  0  0  0  0  0  0  0  0  0  0  0
   -1.4450   10.5344   -1.2129 H   0  0  0  0  0  0  0  0  0  0  0  0
   -0.1416    9.4924   -0.4981 H   0  0  0  0  0  0  0  0  0  0  0  0
   -6.4342    6.0142   -2.0327 H   0  0  0  0  0  0  0  0  0  0  0  0
   -4.4639    2.5942   -3.3997 H   0  0  0  0  0  0  0  0  0  0  0  0
   -5.6167   -1.9529   -4.3583 H   0  0  0  0  0  0  0  0  0  0  0  0
   -3.8492   -5.3810   -6.7625 H   0  0  0  0  0  0  0  0  0  0  0  0
   -5.3213   -7.2487   -6.1465 H   0  0  0  0  0  0  0  0  0  0  0  0
   -9.0002   -8.0899   -4.9903 H   0  0  0  0  0  0  0  0  0  0  0  0
   -7.9972   -6.8259   -5.7620 H   0  0  0  0  0  0  0  0  0  0  0  0
   -9.5135   -6.5686   -3.0765 H   0  0  0  0  0  0  0  0  0  0  0  0
   -8.5209   -5.2616   -3.8592 H   0  0  0  0  0  0  0  0  0  0  0  0
  -10.0203   -5.8685   -4.6701 H   0  0  0  0  0  0  0  0  0  0  0  0
   -4.5586   -3.5564   -2.9172 H   0  0  0  0  0  0  0  0  0  0  0  0
    0.8383   -0.5533   -4.5585 H   0  0  0  0  0  0  0  0  0  0  0  0
    2.4328    1.2865   -4.8891 H   0  0  0  0  0  0  0  0  0  0  0  0
    1.8289    4.0153   -4.4943 H   0  0  0  0  0  0  0  0  0  0  0  0
    0.6629    4.6922   -5.7004 H   0  0  0  0  0  0  0  0  0  0  0  0
    2.3458    6.4191   -6.3625 H   0  0  0  0  0  0  0  0  0  0  0  0
    3.5201    5.7351   -5.1609 H   0  0  0  0  0  0  0  0  0  0  0  0
    1.9808    6.4994   -4.5908 H   0  0  0  0  0  0  0  0  0  0  0  0
   -1.4952    0.8695   -7.8965 H   0  0  0  0  0  0  0  0  0  0  0  0
    1.1665   -2.2536   -6.3752 H   0  0  0  0  0  0  0  0  0  0  0  0
    0.9339   -4.6488   -3.1005 H   0  0  0  0  0  0  0  0  0  0  0  0
    2.0723   -1.7707   -0.3569 H   0  0  0  0  0  0  0  0  0  0  0  0
    0.2234   -2.0671    1.2365 H   0  0  0  0  0  0  0  0  0  0  0  0
    0.7168   -5.0610    3.2486 H   0  0  0  0  0  0  0  0  0  0  0  0
   -0.3245   -3.9348    4.1918 H   0  0  0  0  0  0  0  0  0  0  0  0
   -1.0503   -6.8584    3.5115 H   0  0  0  0  0  0  0  0  0  0  0  0
   -1.9646   -5.7371    4.6046 H   0  0  0  0  0  0  0  0  0  0  0  0
   -0.3066   -6.3145    5.0541 H   0  0  0  0  0  0  0  0  0  0  0  0
    2.1078   -6.0214   -1.0971 H   0  0  0  0  0  0  0  0  0  0  0  0
    5.4538   -0.7400   -5.1379 H   0  0  0  0  0  0  0  0  0  0  0  0
    6.7249   -0.1934   -7.1765 H   0  0  0  0  0  0  0  0  0  0  0  0
   10.3573   -2.1612   -7.6217 H   0  0  0  0  0  0  0  0  0  0  0  0
    9.6711   -0.5050   -7.3873 H   0  0  0  0  0  0  0  0  0  0  0  0
   10.4412    0.1472   -9.6715 H   0  0  0  0  0  0  0  0  0  0  0  0
   11.8192   -0.4304   -8.6545 H   0  0  0  0  0  0  0  0  0  0  0  0
   11.1195   -1.5169   -9.9205 H   0  0  0  0  0  0  0  0  0  0  0  0
    6.8283   -4.8209   -5.3872 H   0  0  0  0  0  0  0  0  0  0  0  0
    7.1423   -1.3930   -2.9658 H   0  0  0  0  0  0  0  0  0  0  0  0
    5.7043    0.2900    1.3452 H   0  0  0  0  0  0  0  0  0  0  0  0
    4.2632    2.4215    1.3633 H   0  0  0  0  0  0  0  0  0  0  0  0
    2.4671    2.3906    3.0471 H   0  0  0  0  0  0  0  0  0  0  0  0
    1.8986    4.7355    4.5790 H   0  0  0  0  0  0  0  0  0  0  0  0
    1.0222    4.6937    6.1482 H   0  0  0  0  0  0  0  0  0  0  0  0
    3.9750    5.4447    5.7066 H   0  0  0  0  0  0  0  0  0  0  0  0
    2.6358    6.5127    6.2501 H   0  0  0  0  0  0  0  0  0  0  0  0
    3.2272    5.1967    7.3382 H   0  0  0  0  0  0  0  0  0  0  0  0
    7.1659    3.0891    4.4764 H   0  0  0  0  0  0  0  0  0  0  0  0
   11.4010    2.3428   -0.5980 H   0  0  0  0  0  0  0  0  0  0  0  0
   12.8934    2.6902   -2.5341 H   0  0  0  0  0  0  0  0  0  0  0  0
   12.9273    2.3235   -6.6624 H   0  0  0  0  0  0  0  0  0  0  0  0
   12.2161    1.6592   -5.1560 H   0  0  0  0  0  0  0  0  0  0  0  0
   10.6962    1.6572   -7.2371 H   0  0  0  0  0  0  0  0  0  0  0  0
   10.6514    3.4536   -7.1282 H   0  0  0  0  0  0  0  0  0  0  0  0
    9.9844    2.4432   -5.7788 H   0  0  0  0  0  0  0  0  0  0  0  0
    8.3195    4.6140   -2.5705 H   0  0  0  0  0  0  0  0  0  0  0  0
   10.0281    5.8189    0.0419 H   0  0  0  0  0  0  0  0  0  0  0  0
    9.1709    7.2626    2.0347 H   0  0  0  0  0  0  0  0  0  0  0  0
  1  2  2  0
  2  3  1  0
  3  4  2  0
  4  5  1  0
  5  6  2  0
  6  7  1  0
  7  8  2  0
  8  9  1  0
  9 10  1  0
 10 11  1  0
  8 12  1  0
 12 13  1  0
 12 14  2  0
  4 15  1  0
 15 16  2  0
 16 17  1  0
 17 18  1  0
 18 19  2  0
 19 20  1  0
 20 21  2  0
 21 22  1  0
 22 23  1  0
 23 24  1  0
 21 25  1  0
 25 26  2  0
 25 27  1  0
 17 28  2  0
 28 29  1  0
 16 30  1  0
 30 31  2  0
 31 32  1  0
 31 33  1  0
 33 34  1  0
 34 35  1  0
 35 36  1  0
 36 37  2  0
 37 38  1  0
 38 39  1  0
 39 40  1  0
 37 41  1  0
 41 42  2  3
 42 43  1  0
 43 44  2  0
 44 45  1  0
 45 46  2  0
 46 47  1  0
 47 48  2  0
 48 49  1  0
 49 50  2  0
 50 51  1  0
 51 52  1  0
 52 53  1  0
 50 54  1  0
 54 55  1  0
 54 56  2  0
 46 57  1  0
 57 58  2  0
 58 59  1  0
 59 60  1  0
 60 61  2  0
 61 62  1  0
 62 63  2  0
 63 64  1  0
 64 65  1  0
 65 66  1  0
 63 67  1  0
 67 68  2  0
 67 69  1  0
 59 70  2  0
 70 71  1  0
 58 72  1  0
 72 73  2  0
 73 74  1  0
 73 75  1  0
 75 76  2  0
 76 77  1  0
 77 78  2  0
 78 79  1  0
 79 80  2  0
 80 81  1  0
 81 82  2  0
 82 83  1  0
 83 84  1  0
 84 85  1  0
 82 86  1  0
 86 87  1  0
 86 88  2  0
 78 89  1  0
 89 90  2  0
 90 91  1  0
 91 92  1  0
 92 93  2  0
 93 94  1  0
 94 95  2  0
 95 96  1  0
 96 97  1  0
 97 98  1  0
 95 99  1  0
 99100  2  0
 99101  1  0
 91102  2  0
102103  1  0
 90104  1  0
104105  2  0
105106  1  0
105107  1  0
107108  2  0
108109  1  0
109110  2  0
110111  1  0
111112  2  0
112113  1  0
113114  2  0
114115  1  0
115116  1  0
116117  1  0
114118  1  0
118119  1  0
118120  2  0
110121  1  0
121122  2  0
122123  1  0
123124  1  0
124125  2  0
125126  1  0
126127  2  0
127128  1  0
128129  1  0
129130  1  0
127131  1  0
131132  2  0
131133  1  0
123134  2  0
134135  1  0
122136  1  0
136137  2  0
137138  1  0
137139  1  0
139140  2  0
140141  1  0
141142  2  0
142143  1  0
143144  2  0
144145  1  0
145146  2  0
146147  1  0
147148  1  0
148149  1  0
146150  1  0
150151  1  0
150152  2  0
142153  1  0
153154  2  0
154155  1  0
155156  1  0
156157  2  0
157158  1  0
158159  2  0
159160  1  0
160161  1  0
161162  1  0
159163  1  0
163164  2  0
163165  1  0
155166  2  0
166167  1  0
154168  1  0
168169  2  0
169170  1  0
 29  1  1  0
 40 33  2  0
 71 43  1  0
103 75  1  0
135107  1  0
167139  1  0
 28  3  1  0
 39 35  2  0
 70 45  1  0
102 77  1  0
134109  1  0
166141  1  0
 14  5  1  0
 32 15  1  0
 56 47  1  0
 74 57  1  0
 88 79  1  0
106 89  1  0
120111  1  0
138121  1  0
152143  1  0
170153  1  0
 26 18  1  0
 68 60  1  0
100 92  1  0
132124  1  0
164156  1  0
  1171  1  0
  2172  1  0
  6173  1  0
  7174  1  0
 10175  1  0
 10176  1  0
 11177  1  0
 11178  1  0
 11179  1  0
 14180  1  0
 19181  1  0
 20182  1  0
 23183  1  0
 23184  1  0
 24185  1  0
 24186  1  0
 24187  1  0
 26188  1  0
 30189  1  0
 40190  1  0
 41191  1  0
 42192  1  0
 44193  1  0
 48194  1  0
 49195  1  0
 52196  1  0
 52197  1  0
 53198  1  0
 53199  1  0
 53200  1  0
 56201  1  0
 61202  1  0
 62203  1  0
 65204  1  0
 65205  1  0
 66206  1  0
 66207  1  0
 66208  1  0
 68209  1  0
 72210  1  0
 76211  1  0
 80212  1  0
 81213  1  0
 84214  1  0
 84215  1  0
 85216  1  0
 85217  1  0
 85218  1  0
 88219  1  0
 93220  1  0
 94221  1  0
 97222  1  0
 97223  1  0
 98224  1  0
 98225  1  0
 98226  1  0
100227  1  0
104228  1  0
108229  1  0
112230  1  0
113231  1  0
116232  1  0
116233  1  0
117234  1  0
117235  1  0
117236  1  0
120237  1  0
125238  1  0
126239  1  0
129240  1  0
129241  1  0
130242  1  0
130243  1  0
130244  1  0
132245  1  0
136246  1  0
140247  1  0
144248  1  0
145249  1  0
148250  1  0
148251  1  0
149252  1  0
149253  1  0
149254  1  0
152255  1  0
157256  1  0
158257  1  0
161258  1  0
161259  1  0
162260  1  0
162261  1  0
162262  1  0
164263  1  0
168264  1  0
169265  1  0
M  END

