
     RDKit          3D

242263  0  0  0  0  0  0  0  0999 V2000
    4.4297   -2.5122    6.0815 C   0  0  0  0  0  0  0  0  0  0  0  0
    3.3616   -2.6061    5.1694 C   0  0  0  0  0  0  0  0  0  0  0  0
    2.0172   -2.5883    5.6206 C   0  0  0  0  0  0  0  0  0  0  0  0
    1.7471   -2.4912    6.9990 C   0  0  0  0  0  0  0  0  0  0  0  0
    2.8251   -2.4259    7.8785 C   0  0  0  0  0  0  0  0  0  0  0  0
    4.1353   -2.4218    7.4499 C   0  0  0  0  0  0  0  0  0  0  0  0
    5.0022   -2.2661    8.4917 N   0  0  0  0  0  0  0  0  0  0  0  0
    4.1921   -2.1538    9.5910 C   0  0  0  0  0  0  0  0  0  0  0  0
    2.8594   -2.2673    9.2372 C   0  0  0  0  0  0  0  0  0  0  0  0
    1.8205   -2.1619   10.1617 C   0  0  0  0  0  0  0  0  0  0  0  0
    2.1576   -1.9309   11.5029 C   0  0  0  0  0  0  0  0  0  0  0  0
    3.5065   -1.7925   11.8822 C   0  0  0  0  0  0  0  0  0  0  0  0
    4.5356   -1.8935   10.9292 C   0  0  0  0  0  0  0  0  0  0  0  0
    6.4678   -2.0822    8.3538 C   0  0  0  0  0  0  0  0  0  0  0  0
    7.2895   -2.6745    9.5277 C   0  0  0  0  0  0  0  0  0  0  0  0
    8.6648   -3.1821    9.0822 C   0  0  0  0  0  0  0  0  0  0  0  0
    6.8202   -0.6048    8.0461 C   0  0  0  0  0  0  0  0  0  0  0  0
    6.2286    0.4051    9.0306 C   0  0  0  0  0  0  0  0  0  0  0  0
    0.8829   -2.5641    4.6767 C   0  0  0  0  0  0  0  0  0  0  0  0
    0.8767   -3.2320    3.5171 C   0  0  0  0  0  0  0  0  0  0  0  0
   -0.2711   -3.1642    2.5940 C   0  0  0  0  0  0  0  0  0  0  0  0
   -1.5603   -3.4029    3.1307 C   0  0  0  0  0  0  0  0  0  0  0  0
   -2.7055   -3.4708    2.3146 C   0  0  0  0  0  0  0  0  0  0  0  0
   -2.5676   -3.3358    0.9240 C   0  0  0  0  0  0  0  0  0  0  0  0
   -1.3027   -3.0819    0.4032 C   0  0  0  0  0  0  0  0  0  0  0  0
   -0.1645   -2.9585    1.1887 C   0  0  0  0  0  0  0  0  0  0  0  0
    0.9054   -2.5596    0.4156 N   0  0  0  0  0  0  0  0  0  0  0  0
    0.3982   -2.4726   -0.8540 C   0  0  0  0  0  0  0  0  0  0  0  0
   -0.9443   -2.7874   -0.8827 C   0  0  0  0  0  0  0  0  0  0  0  0
   -1.7143   -2.7093   -2.0433 C   0  0  0  0  0  0  0  0  0  0  0  0
   -1.0805   -2.3043   -3.2247 C   0  0  0  0  0  0  0  0  0  0  0  0
    0.2896   -1.9837   -3.2238 C   0  0  0  0  0  0  0  0  0  0  0  0
    1.0397   -2.0615   -2.0376 C   0  0  0  0  0  0  0  0  0  0  0  0
    2.2538   -2.1121    0.8555 C   0  0  0  0  0  0  0  0  0  0  0  0
    3.3933   -2.9563    0.2415 C   0  0  0  0  0  0  0  0  0  0  0  0
    3.1974   -4.4540    0.4657 C   0  0  0  0  0  0  0  0  0  0  0  0
    2.4681   -0.5997    0.6293 C   0  0  0  0  0  0  0  0  0  0  0  0
    1.3923    0.2349    1.3264 C   0  0  0  0  0  0  0  0  0  0  0  0
   -4.0392   -3.5087    2.9524 C   0  0  0  0  0  0  0  0  0  0  0  0
   -5.1306   -4.0123    2.3597 C   0  0  0  0  0  0  0  0  0  0  0  0
   -6.4826   -3.6702    2.8365 C   0  0  0  0  0  0  0  0  0  0  0  0
   -6.7813   -2.2941    2.9440 C   0  0  0  0  0  0  0  0  0  0  0  0
   -8.1098   -1.8170    3.0458 C   0  0  0  0  0  0  0  0  0  0  0  0
   -9.1690   -2.7340    3.0688 C   0  0  0  0  0  0  0  0  0  0  0  0
   -8.8633   -4.0942    3.0134 C   0  0  0  0  0  0  0  0  0  0  0  0
   -7.5652   -4.5819    2.9103 C   0  0  0  0  0  0  0  0  0  0  0  0
   -7.5695   -5.9552    2.8928 N   0  0  0  0  0  0  0  0  0  0  0  0
   -8.8922   -6.2942    2.9666 C   0  0  0  0  0  0  0  0  0  0  0  0
   -9.6986   -5.1780    3.0305 C   0  0  0  0  0  0  0  0  0  0  0  0
  -11.0883   -5.2596    3.1149 C   0  0  0  0  0  0  0  0  0  0  0  0
  -11.6700   -6.5368    3.1387 C   0  0  0  0  0  0  0  0  0  0  0  0
  -10.8597   -7.6881    3.0823 C   0  0  0  0  0  0  0  0  0  0  0  0
   -9.4624   -7.5768    2.9959 C   0  0  0  0  0  0  0  0  0  0  0  0
   -6.4218   -6.8845    3.0088 C   0  0  0  0  0  0  0  0  0  0  0  0
   -6.4448   -7.9459    1.8723 C   0  0  0  0  0  0  0  0  0  0  0  0
   -5.1335   -7.9967    1.0868 C   0  0  0  0  0  0  0  0  0  0  0  0
   -6.3855   -7.5061    4.4245 C   0  0  0  0  0  0  0  0  0  0  0  0
   -5.0771   -8.2454    4.7117 C   0  0  0  0  0  0  0  0  0  0  0  0
   -8.3782   -0.3808    2.8288 C   0  0  0  0  0  0  0  0  0  0  0  0
   -7.5114    0.5482    3.2455 C   0  0  0  0  0  0  0  0  0  0  0  0
   -7.1185    1.6807    2.3908 C   0  0  0  0  0  0  0  0  0  0  0  0
   -7.3305    1.7346    1.0076 C   0  0  0  0  0  0  0  0  0  0  0  0
   -6.3714    2.4997    0.3288 C   0  0  0  0  0  0  0  0  0  0  0  0
   -6.1959    2.5502   -1.0685 C   0  0  0  0  0  0  0  0  0  0  0  0
   -7.1515    1.9328   -2.0008 C   0  0  0  0  0  0  0  0  0  0  0  0
   -7.9600    2.6299   -2.8891 C   0  0  0  0  0  0  0  0  0  0  0  0
   -8.7127    1.7941   -3.7189 C   0  0  0  0  0  0  0  0  0  0  0  0
   -8.4908    0.4408   -3.4787 C   0  0  0  0  0  0  0  0  0  0  0  0
   -9.0812   -0.6880   -4.2632 C   0  0  0  0  0  0  0  0  0  0  0  0
   -8.2886   -0.9237   -5.5461 C   0  0  0  0  0  0  0  0  0  0  0  0
   -7.3496    0.2793   -2.2542 S   0  0  0  0  0  0  0  0  0  0  0  0
   -5.0192    3.1479   -1.5386 C   0  0  0  0  0  0  0  0  0  0  0  0
   -4.0684    3.7202   -0.6874 C   0  0  0  0  0  0  0  0  0  0  0  0
   -4.2881    3.7491    0.7037 C   0  0  0  0  0  0  0  0  0  0  0  0
   -3.3262    4.3540    1.6347 C   0  0  0  0  0  0  0  0  0  0  0  0
   -2.0321    3.9093    1.8802 C   0  0  0  0  0  0  0  0  0  0  0  0
   -1.3669    4.6707    2.8493 C   0  0  0  0  0  0  0  0  0  0  0  0
   -2.1375    5.7133    3.3518 C   0  0  0  0  0  0  0  0  0  0  0  0
   -1.7273    6.6773    4.4217 C   0  0  0  0  0  0  0  0  0  0  0  0
   -2.3478    6.2949    5.7617 C   0  0  0  0  0  0  0  0  0  0  0  0
   -3.6511    5.6788    2.6171 S   0  0  0  0  0  0  0  0  0  0  0  0
   -5.4430    3.1051    1.1793 C   0  0  0  0  0  0  0  0  0  0  0  0
   -5.7844    2.6491    2.7617 S   0  0  0  0  0  0  0  0  0  0  0  0
   -2.8993    4.1164   -1.3572 C   0  0  0  0  0  0  0  0  0  0  0  0
   -2.9216    3.8043   -2.7178 C   0  0  0  0  0  0  0  0  0  0  0  0
   -4.4041    3.0926   -3.0995 S   0  0  0  0  0  0  0  0  0  0  0  0
   -1.7607    3.8235   -3.6215 C   0  0  0  0  0  0  0  0  0  0  0  0
   -0.4930    4.3296   -3.3239 C   0  0  0  0  0  0  0  0  0  0  0  0
    0.4672    4.0101   -4.2989 C   0  0  0  0  0  0  0  0  0  0  0  0
    1.8446    4.3106   -4.2505 C   0  0  0  0  0  0  0  0  0  0  0  0
    2.4477    5.0156   -3.1108 C   0  0  0  0  0  0  0  0  0  0  0  0
    2.2143    6.3350   -2.7503 C   0  0  0  0  0  0  0  0  0  0  0  0
    2.9803    6.7449   -1.6529 C   0  0  0  0  0  0  0  0  0  0  0  0
    3.7943    5.7408   -1.1446 C   0  0  0  0  0  0  0  0  0  0  0  0
    4.7863    5.8903   -0.0338 C   0  0  0  0  0  0  0  0  0  0  0  0
    6.1809    6.1500   -0.5955 C   0  0  0  0  0  0  0  0  0  0  0  0
    3.6006    4.3547   -2.0774 S   0  0  0  0  0  0  0  0  0  0  0  0
    2.6440    3.8131   -5.2927 C   0  0  0  0  0  0  0  0  0  0  0  0
    2.1332    2.9967   -6.3059 C   0  0  0  0  0  0  0  0  0  0  0  0
    0.7572    2.7041   -6.3667 C   0  0  0  0  0  0  0  0  0  0  0  0
    0.1827    1.8562   -7.4241 C   0  0  0  0  0  0  0  0  0  0  0  0
    0.5295    0.5367   -7.6879 C   0  0  0  0  0  0  0  0  0  0  0  0
   -0.2173   -0.0304   -8.7279 C   0  0  0  0  0  0  0  0  0  0  0  0
   -1.1363    0.8516   -9.2864 C   0  0  0  0  0  0  0  0  0  0  0  0
   -2.1218    0.5259  -10.3639 C   0  0  0  0  0  0  0  0  0  0  0  0
   -3.4305    0.0200   -9.7642 C   0  0  0  0  0  0  0  0  0  0  0  0
   -1.0513    2.3194   -8.4694 S   0  0  0  0  0  0  0  0  0  0  0  0
   -0.0515    3.2470   -5.3504 C   0  0  0  0  0  0  0  0  0  0  0  0
   -1.6866    2.9790   -5.0808 S   0  0  0  0  0  0  0  0  0  0  0  0
    3.1170    2.5671   -7.2083 C   0  0  0  0  0  0  0  0  0  0  0  0
    4.3841    3.0526   -6.9001 C   0  0  0  0  0  0  0  0  0  0  0  0
    4.2912    4.0614   -5.5489 S   0  0  0  0  0  0  0  0  0  0  0  0
    5.5772    2.8102   -7.7184 C   0  0  0  0  0  0  0  0  0  0  0  0
    5.7759    3.6490   -8.8336 C   0  0  0  0  0  0  0  0  0  0  0  0
    6.6587    3.2961   -9.8788 C   0  0  0  0  0  0  0  0  0  0  0  0
    7.3496    2.0654   -9.8142 C   0  0  0  0  0  0  0  0  0  0  0  0
    7.1533    1.2567   -8.6983 C   0  0  0  0  0  0  0  0  0  0  0  0
    6.3384    1.6201   -7.6389 C   0  0  0  0  0  0  0  0  0  0  0  0
    6.3675    0.6603   -6.6601 N   0  0  0  0  0  0  0  0  0  0  0  0
    7.1341   -0.3393   -7.1806 C   0  0  0  0  0  0  0  0  0  0  0  0
    7.6445    0.0088   -8.4121 C   0  0  0  0  0  0  0  0  0  0  0  0
    8.4735   -0.8383   -9.1459 C   0  0  0  0  0  0  0  0  0  0  0  0
    8.7816   -2.0917   -8.5962 C   0  0  0  0  0  0  0  0  0  0  0  0
    8.2625   -2.4661   -7.3396 C   0  0  0  0  0  0  0  0  0  0  0  0
    7.4254   -1.5922   -6.6217 C   0  0  0  0  0  0  0  0  0  0  0  0
    5.8574    0.7641   -5.2754 C   0  0  0  0  0  0  0  0  0  0  0  0
    6.9590    0.4250   -4.2246 C   0  0  0  0  0  0  0  0  0  0  0  0
    7.0483    1.4648   -3.1051 C   0  0  0  0  0  0  0  0  0  0  0  0
    4.5781   -0.0846   -5.1180 C   0  0  0  0  0  0  0  0  0  0  0  0
    3.7996    0.2666   -3.8480 C   0  0  0  0  0  0  0  0  0  0  0  0
    6.7998    4.2251  -11.0293 C   0  0  0  0  0  0  0  0  0  0  0  0
    7.2467    3.8648  -12.2339 C   0  0  0  0  0  0  0  0  0  0  0  0
    5.4438   -2.4914    5.7095 H   0  0  0  0  0  0  0  0  0  0  0  0
    3.5861   -2.6514    4.1117 H   0  0  0  0  0  0  0  0  0  0  0  0
    0.7313   -2.4534    7.3704 H   0  0  0  0  0  0  0  0  0  0  0  0
    0.7863   -2.2476    9.8585 H   0  0  0  0  0  0  0  0  0  0  0  0
    1.3764   -1.8462   12.2468 H   0  0  0  0  0  0  0  0  0  0  0  0
    3.7532   -1.5996   12.9184 H   0  0  0  0  0  0  0  0  0  0  0  0
    5.5473   -1.7534   11.2591 H   0  0  0  0  0  0  0  0  0  0  0  0
    6.7828   -2.6637    7.4612 H   0  0  0  0  0  0  0  0  0  0  0  0
    6.7412   -3.5315    9.9779 H   0  0  0  0  0  0  0  0  0  0  0  0
    7.4712   -1.9099   10.3097 H   0  0  0  0  0  0  0  0  0  0  0  0
    9.2434   -2.3738    8.5907 H   0  0  0  0  0  0  0  0  0  0  0  0
    9.2355   -3.5306    9.9690 H   0  0  0  0  0  0  0  0  0  0  0  0
    8.5545   -4.0332    8.3781 H   0  0  0  0  0  0  0  0  0  0  0  0
    6.4460   -0.3571    7.0304 H   0  0  0  0  0  0  0  0  0  0  0  0
    7.9218   -0.4809    8.0251 H   0  0  0  0  0  0  0  0  0  0  0  0
    5.1209    0.4111    8.9681 H   0  0  0  0  0  0  0  0  0  0  0  0
    6.5867    1.4224    8.7668 H   0  0  0  0  0  0  0  0  0  0  0  0
    6.5472    0.1909   10.0710 H   0  0  0  0  0  0  0  0  0  0  0  0
    0.0104   -1.9845    4.9605 H   0  0  0  0  0  0  0  0  0  0  0  0
    1.7160   -3.8603    3.2524 H   0  0  0  0  0  0  0  0  0  0  0  0
   -1.6775   -3.5467    4.1983 H   0  0  0  0  0  0  0  0  0  0  0  0
   -3.4302   -3.3403    0.2690 H   0  0  0  0  0  0  0  0  0  0  0  0
   -2.7704   -2.9431   -2.0372 H   0  0  0  0  0  0  0  0  0  0  0  0
   -1.6512   -2.2240   -4.1431 H   0  0  0  0  0  0  0  0  0  0  0  0
    0.7659   -1.6662   -4.1442 H   0  0  0  0  0  0  0  0  0  0  0  0
    2.0773   -1.7882   -2.0773 H   0  0  0  0  0  0  0  0  0  0  0  0
    2.3726   -2.2298    1.9362 H   0  0  0  0  0  0  0  0  0  0  0  0
    3.5097   -2.7715   -0.8421 H   0  0  0  0  0  0  0  0  0  0  0  0
    4.3545   -2.6596    0.7156 H   0  0  0  0  0  0  0  0  0  0  0  0
    4.0444   -5.0110    0.0116 H   0  0  0  0  0  0  0  0  0  0  0  0
    2.2564   -4.8018   -0.0104 H   0  0  0  0  0  0  0  0  0  0  0  0
    3.1739   -4.6798    1.5506 H   0  0  0  0  0  0  0  0  0  0  0  0
    3.4551   -0.3105    1.0497 H   0  0  0  0  0  0  0  0  0  0  0  0
    2.4863   -0.3383   -0.4466 H   0  0  0  0  0  0  0  0  0  0  0  0
    1.3157   -0.0451    2.3975 H   0  0  0  0  0  0  0  0  0  0  0  0
    0.4080    0.0827    0.8374 H   0  0  0  0  0  0  0  0  0  0  0  0
    1.6566    1.3127    1.2585 H   0  0  0  0  0  0  0  0  0  0  0  0
   -4.1463   -3.0379    3.9252 H   0  0  0  0  0  0  0  0  0  0  0  0
   -5.0446   -4.5699    1.4368 H   0  0  0  0  0  0  0  0  0  0  0  0
   -5.9769   -1.5794    2.8145 H   0  0  0  0  0  0  0  0  0  0  0  0
  -10.1957   -2.3949    3.1038 H   0  0  0  0  0  0  0  0  0  0  0  0
  -11.7030   -4.3702    3.1659 H   0  0  0  0  0  0  0  0  0  0  0  0
  -12.7456   -6.6361    3.2003 H   0  0  0  0  0  0  0  0  0  0  0  0
  -11.3191   -8.6677    3.1042 H   0  0  0  0  0  0  0  0  0  0  0  0
   -8.8641   -8.4741    2.9459 H   0  0  0  0  0  0  0  0  0  0  0  0
   -5.4806   -6.3223    2.9315 H   0  0  0  0  0  0  0  0  0  0  0  0
   -7.2583   -7.7256    1.1498 H   0  0  0  0  0  0  0  0  0  0  0  0
   -6.6446   -8.9583    2.2821 H   0  0  0  0  0  0  0  0  0  0  0  0
   -4.9795   -7.0378    0.5491 H   0  0  0  0  0  0  0  0  0  0  0  0
   -5.1805   -8.8185    0.3423 H   0  0  0  0  0  0  0  0  0  0  0  0
   -4.2752   -8.1805    1.7661 H   0  0  0  0  0  0  0  0  0  0  0  0
   -6.4909   -6.6915    5.1727 H   0  0  0  0  0  0  0  0  0  0  0  0
   -7.2327   -8.2032    4.5762 H   0  0  0  0  0  0  0  0  0  0  0  0
   -4.9739   -9.1304    4.0500 H   0  0  0  0  0  0  0  0  0  0  0  0
   -4.2084   -7.5694    4.5634 H   0  0  0  0  0  0  0  0  0  0  0  0
   -5.0763   -8.5961    5.7657 H   0  0  0  0  0  0  0  0  0  0  0  0
   -9.1282   -0.1341    2.0873 H   0  0  0  0  0  0  0  0  0  0  0  0
   -6.8400    0.3033    4.0609 H   0  0  0  0  0  0  0  0  0  0  0  0
   -8.0448    1.1102    0.4929 H   0  0  0  0  0  0  0  0  0  0  0  0
   -7.9974    3.7107   -2.9421 H   0  0  0  0  0  0  0  0  0  0  0  0
   -9.3903    2.1637   -4.4742 H   0  0  0  0  0  0  0  0  0  0  0  0
   -9.0748   -1.6153   -3.6492 H   0  0  0  0  0  0  0  0  0  0  0  0
  -10.1353   -0.4497   -4.5216 H   0  0  0  0  0  0  0  0  0  0  0  0
   -8.7331   -1.7724   -6.1086 H   0  0  0  0  0  0  0  0  0  0  0  0
   -8.3168   -0.0197   -6.1890 H   0  0  0  0  0  0  0  0  0  0  0  0
   -7.2332   -1.1712   -5.3057 H   0  0  0  0  0  0  0  0  0  0  0  0
   -1.5893    3.0539    1.3899 H   0  0  0  0  0  0  0  0  0  0  0  0
   -0.3602    4.4576    3.1823 H   0  0  0  0  0  0  0  0  0  0  0  0
   -0.6216    6.6923    4.5150 H   0  0  0  0  0  0  0  0  0  0  0  0
   -2.0684    7.6940    4.1373 H   0  0  0  0  0  0  0  0  0  0  0  0
   -2.0284    7.0203    6.5400 H   0  0  0  0  0  0  0  0  0  0  0  0
   -3.4579    6.3211    5.6957 H   0  0  0  0  0  0  0  0  0  0  0  0
   -2.0227    5.2757    6.0626 H   0  0  0  0  0  0  0  0  0  0  0  0
   -2.0321    4.5234   -0.8572 H   0  0  0  0  0  0  0  0  0  0  0  0
   -0.2648    4.8643   -2.4116 H   0  0  0  0  0  0  0  0  0  0  0  0
    1.5303    6.9894   -3.2752 H   0  0  0  0  0  0  0  0  0  0  0  0
    2.9505    7.7506   -1.2515 H   0  0  0  0  0  0  0  0  0  0  0  0
    4.7979    4.9593    0.5697 H   0  0  0  0  0  0  0  0  0  0  0  0
    4.4873    6.7305    0.6282 H   0  0  0  0  0  0  0  0  0  0  0  0
    6.5105    5.2974   -1.2300 H   0  0  0  0  0  0  0  0  0  0  0  0
    6.9005    6.2670    0.2410 H   0  0  0  0  0  0  0  0  0  0  0  0
    6.1853    7.0809   -1.2010 H   0  0  0  0  0  0  0  0  0  0  0  0
    1.2823   -0.0065   -7.1306 H   0  0  0  0  0  0  0  0  0  0  0  0
   -0.0944   -1.0528   -9.0558 H   0  0  0  0  0  0  0  0  0  0  0  0
   -1.7013   -0.2515  -11.0383 H   0  0  0  0  0  0  0  0  0  0  0  0
   -2.3181    1.4373  -10.9686 H   0  0  0  0  0  0  0  0  0  0  0  0
   -3.8861    0.8042   -9.1214 H   0  0  0  0  0  0  0  0  0  0  0  0
   -4.1398   -0.2271  -10.5805 H   0  0  0  0  0  0  0  0  0  0  0  0
   -3.2531   -0.8918   -9.1566 H   0  0  0  0  0  0  0  0  0  0  0  0
    2.9240    1.9367   -8.0659 H   0  0  0  0  0  0  0  0  0  0  0  0
    5.1863    4.5561   -8.9237 H   0  0  0  0  0  0  0  0  0  0  0  0
    8.0307    1.7488  -10.5901 H   0  0  0  0  0  0  0  0  0  0  0  0
    8.8614   -0.5446  -10.1103 H   0  0  0  0  0  0  0  0  0  0  0  0
    9.4199   -2.7749   -9.1407 H   0  0  0  0  0  0  0  0  0  0  0  0
    8.5025   -3.4374   -6.9275 H   0  0  0  0  0  0  0  0  0  0  0  0
    7.0191   -1.9053   -5.6711 H   0  0  0  0  0  0  0  0  0  0  0  0
    5.5876    1.8103   -5.0928 H   0  0  0  0  0  0  0  0  0  0  0  0
    6.7776   -0.5694   -3.7645 H   0  0  0  0  0  0  0  0  0  0  0  0
    7.9580    0.3906   -4.7067 H   0  0  0  0  0  0  0  0  0  0  0  0
    7.8257    1.1583   -2.3728 H   0  0  0  0  0  0  0  0  0  0  0  0
    6.0800    1.5635   -2.5746 H   0  0  0  0  0  0  0  0  0  0  0  0
    7.3354    2.4533   -3.5252 H   0  0  0  0  0  0  0  0  0  0  0  0
    3.9136    0.0990   -5.9902 H   0  0  0  0  0  0  0  0  0  0  0  0
    4.8241   -1.1669   -5.1121 H   0  0  0  0  0  0  0  0  0  0  0  0
    3.6089    1.3585   -3.7918 H   0  0  0  0  0  0  0  0  0  0  0  0
    4.3576   -0.0608   -2.9463 H   0  0  0  0  0  0  0  0  0  0  0  0
    2.8226   -0.2516   -3.8648 H   0  0  0  0  0  0  0  0  0  0  0  0
    6.4745    5.2505  -10.9021 H   0  0  0  0  0  0  0  0  0  0  0  0
    7.2991    4.6027  -13.0254 H   0  0  0  0  0  0  0  0  0  0  0  0
    7.5368    2.8506  -12.4655 H   0  0  0  0  0  0  0  0  0  0  0  0
  1  2  2  0
  2  3  1  0
  3  4  2  0
  4  5  1  0
  5  6  2  0
  6  7  1  0
  7  8  1  0
  8  9  2  0
  9 10  1  0
 10 11  2  0
 11 12  1  0
 12 13  2  0
  7 14  1  0
 14 15  1  0
 15 16  1  0
 14 17  1  0
 17 18  1  0
  3 19  1  0
 19 20  2  3
 20 21  1  0
 21 22  2  0
 22 23  1  0
 23 24  2  0
 24 25  1  0
 25 26  2  0
 26 27  1  0
 27 28  1  0
 28 29  2  0
 29 30  1  0
 30 31  2  0
 31 32  1  0
 32 33  2  0
 27 34  1  0
 34 35  1  0
 35 36  1  0
 34 37  1  0
 37 38  1  0
 23 39  1  0
 39 40  2  3
 40 41  1  0
 41 42  2  0
 42 43  1  0
 43 44  2  0
 44 45  1  0
 45 46  2  0
 46 47  1  0
 47 48  1  0
 48 49  2  0
 49 50  1  0
 50 51  2  0
 51 52  1  0
 52 53  2  0
 47 54  1  0
 54 55  1  0
 55 56  1  0
 54 57  1  0
 57 58  1  0
 43 59  1  0
 59 60  2  3
 60 61  1  0
 61 62  2  0
 62 63  1  0
 63 64  2  0
 64 65  1  0
 65 66  2  0
 66 67  1  0
 67 68  2  0
 68 69  1  0
 69 70  1  0
 68 71  1  0
 64 72  1  0
 72 73  2  0
 73 74  1  0
 74 75  1  0
 75 76  2  0
 76 77  1  0
 77 78  2  0
 78 79  1  0
 79 80  1  0
 78 81  1  0
 74 82  2  0
 82 83  1  0
 73 84  1  0
 84 85  2  0
 85 86  1  0
 85 87  1  0
 87 88  2  0
 88 89  1  0
 89 90  2  0
 90 91  1  0
 91 92  2  0
 92 93  1  0
 93 94  2  0
 94 95  1  0
 95 96  1  0
 94 97  1  0
 90 98  1  0
 98 99  2  0
 99100  1  0
100101  1  0
101102  2  0
102103  1  0
103104  2  0
104105  1  0
105106  1  0
104107  1  0
100108  2  0
108109  1  0
 99110  1  0
110111  2  0
111112  1  0
111113  1  0
113114  2  0
114115  1  0
115116  2  0
116117  1  0
117118  2  0
118119  1  0
119120  1  0
120121  2  0
121122  1  0
122123  2  0
123124  1  0
124125  2  0
119126  1  0
126127  1  0
127128  1  0
126129  1  0
129130  1  0
115131  1  0
131132  2  3
  6  1  1  0
 13  8  1  0
 26 21  1  0
 33 28  1  0
 46 41  1  0
 53 48  1  0
 83 61  1  0
109 87  1  0
118113  1  0
125120  1  0
  9  5  1  0
 29 25  1  0
 49 45  1  0
 82 63  1  0
108 89  1  0
121117  1  0
 71 65  1  0
 86 72  1  0
 97 91  1  0
112 98  1  0
 81 75  1  0
107101  1  0
  1133  1  0
  2134  1  0
  4135  1  0
 10136  1  0
 11137  1  0
 12138  1  0
 13139  1  0
 14140  1  0
 15141  1  0
 15142  1  0
 16143  1  0
 16144  1  0
 16145  1  0
 17146  1  0
 17147  1  0
 18148  1  0
 18149  1  0
 18150  1  0
 19151  1  0
 20152  1  0
 22153  1  0
 24154  1  0
 30155  1  0
 31156  1  0
 32157  1  0
 33158  1  0
 34159  1  0
 35160  1  0
 35161  1  0
 36162  1  0
 36163  1  0
 36164  1  0
 37165  1  0
 37166  1  0
 38167  1  0
 38168  1  0
 38169  1  0
 39170  1  0
 40171  1  0
 42172  1  0
 44173  1  0
 50174  1  0
 51175  1  0
 52176  1  0
 53177  1  0
 54178  1  0
 55179  1  0
 55180  1  0
 56181  1  0
 56182  1  0
 56183  1  0
 57184  1  0
 57185  1  0
 58186  1  0
 58187  1  0
 58188  1  0
 59189  1  0
 60190  1  0
 62191  1  0
 66192  1  0
 67193  1  0
 69194  1  0
 69195  1  0
 70196  1  0
 70197  1  0
 70198  1  0
 76199  1  0
 77200  1  0
 79201  1  0
 79202  1  0
 80203  1  0
 80204  1  0
 80205  1  0
 84206  1  0
 88207  1  0
 92208  1  0
 93209  1  0
 95210  1  0
 95211  1  0
 96212  1  0
 96213  1  0
 96214  1  0
102215  1  0
103216  1  0
105217  1  0
105218  1  0
106219  1  0
106220  1  0
106221  1  0
110222  1  0
114223  1  0
116224  1  0
122225  1  0
123226  1  0
124227  1  0
125228  1  0
126229  1  0
127230  1  0
127231  1  0
128232  1  0
128233  1  0
128234  1  0
129235  1  0
129236  1  0
130237  1  0
130238  1  0
130239  1  0
131240  1  0
132241  1  0
132242  1  0
M  END

