
     RDKit          3D

242267  0  0  0  0  0  0  0  0999 V2000
    4.3590   -1.8631    6.7904 C   0  0  0  0  0  0  0  0  0  0  0  0
    3.9385   -0.5947    7.0669 C   0  0  0  0  0  0  0  0  0  0  0  0
    2.5099   -0.3814    7.0118 C   0  0  0  0  0  0  0  0  0  0  0  0
    1.8436    0.7903    7.2130 C   0  0  0  0  0  0  0  0  0  0  0  0
    2.6121    2.0594    7.3682 C   0  0  0  0  0  0  0  0  0  0  0  0
    4.1151    2.4265    6.7410 S   0  0  0  0  0  0  0  0  0  0  0  0
    4.3520    3.9154    7.4068 C   0  0  0  0  0  0  0  0  0  0  0  0
    5.5667    4.7949    7.2341 C   0  0  0  0  0  0  0  0  0  0  0  0
    5.2174    5.9581    6.3129 C   0  0  0  0  0  0  0  0  0  0  0  0
    3.2219    4.2096    8.1290 C   0  0  0  0  0  0  0  0  0  0  0  0
    3.0125    5.6909    8.9886 Cl  0  0  0  0  0  0  0  0  0  0  0  0
    2.2162    3.1718    8.1278 C   0  0  0  0  0  0  0  0  0  0  0  0
    0.8008    3.3710    9.0791 Cl  0  0  0  0  0  0  0  0  0  0  0  0
    0.4181    0.7985    7.0940 C   0  0  0  0  0  0  0  0  0  0  0  0
   -0.2701   -0.3408    6.7819 C   0  0  0  0  0  0  0  0  0  0  0  0
    0.4026   -1.5442    6.5847 C   0  0  0  0  0  0  0  0  0  0  0  0
   -0.1704   -2.8614    6.3390 C   0  0  0  0  0  0  0  0  0  0  0  0
    0.4615   -4.0414    5.3021 S   0  0  0  0  0  0  0  0  0  0  0  0
   -0.4957   -5.3299    5.7086 C   0  0  0  0  0  0  0  0  0  0  0  0
   -0.4649   -6.7203    5.1457 C   0  0  0  0  0  0  0  0  0  0  0  0
   -1.6639   -6.9641    4.2367 C   0  0  0  0  0  0  0  0  0  0  0  0
   -1.3693   -4.8752    6.6793 C   0  0  0  0  0  0  0  0  0  0  0  0
   -1.1795   -3.4929    7.0419 C   0  0  0  0  0  0  0  0  0  0  0  0
   -2.1305   -2.7772    8.2951 Cl  0  0  0  0  0  0  0  0  0  0  0  0
   -2.5633   -5.8660    7.4265 Cl  0  0  0  0  0  0  0  0  0  0  0  0
    1.8109   -1.5390    6.6843 C   0  0  0  0  0  0  0  0  0  0  0  0
    2.9596   -2.7483    6.4899 S   0  0  0  0  0  0  0  0  0  0  0  0
   -1.6851   -0.1587    6.5588 C   0  0  0  0  0  0  0  0  0  0  0  0
   -2.0693    1.2064    6.6985 C   0  0  0  0  0  0  0  0  0  0  0  0
   -0.7189    2.0291    7.0450 S   0  0  0  0  0  0  0  0  0  0  0  0
   -3.3958    1.7152    6.2220 C   0  0  0  0  0  0  0  0  0  0  0  0
   -3.7165    3.1067    6.2323 C   0  0  0  0  0  0  0  0  0  0  0  0
   -4.8602    3.3964    5.4059 C   0  0  0  0  0  0  0  0  0  0  0  0
   -5.2613    4.6962    5.0760 C   0  0  0  0  0  0  0  0  0  0  0  0
   -4.6182    5.9023    5.6152 C   0  0  0  0  0  0  0  0  0  0  0  0
   -3.0001    6.2148    5.9877 S   0  0  0  0  0  0  0  0  0  0  0  0
   -3.1647    7.7700    6.5640 C   0  0  0  0  0  0  0  0  0  0  0  0
   -2.1237    8.7129    7.0842 C   0  0  0  0  0  0  0  0  0  0  0  0
   -2.0492    8.6810    8.6264 C   0  0  0  0  0  0  0  0  0  0  0  0
   -4.4958    8.1050    6.4735 C   0  0  0  0  0  0  0  0  0  0  0  0
   -5.1386    9.6468    6.9311 Cl  0  0  0  0  0  0  0  0  0  0  0  0
   -5.3313    7.0594    5.9382 C   0  0  0  0  0  0  0  0  0  0  0  0
   -7.0335    7.2367    5.8198 Cl  0  0  0  0  0  0  0  0  0  0  0  0
   -6.2586    4.8662    4.0755 C   0  0  0  0  0  0  0  0  0  0  0  0
   -6.8478    3.7442    3.4552 C   0  0  0  0  0  0  0  0  0  0  0  0
   -6.4795    2.4796    3.8386 C   0  0  0  0  0  0  0  0  0  0  0  0
   -7.2114    1.3201    3.2367 C   0  0  0  0  0  0  0  0  0  0  0  0
   -8.8128    1.3189    2.7379 S   0  0  0  0  0  0  0  0  0  0  0  0
   -8.9099   -0.2101    2.0950 C   0  0  0  0  0  0  0  0  0  0  0  0
  -10.0775   -0.8990    1.4337 C   0  0  0  0  0  0  0  0  0  0  0  0
  -10.7529   -1.8853    2.3860 C   0  0  0  0  0  0  0  0  0  0  0  0
   -7.6736   -0.7872    2.2795 C   0  0  0  0  0  0  0  0  0  0  0  0
   -6.6854    0.0514    2.9135 C   0  0  0  0  0  0  0  0  0  0  0  0
   -5.0773   -0.5072    3.0136 Cl  0  0  0  0  0  0  0  0  0  0  0  0
   -7.3330   -2.4241    1.7976 Cl  0  0  0  0  0  0  0  0  0  0  0  0
   -5.4433    2.3137    4.8207 C   0  0  0  0  0  0  0  0  0  0  0  0
   -4.5433    0.9978    5.3504 S   0  0  0  0  0  0  0  0  0  0  0  0
   -7.5545    4.0918    2.2764 C   0  0  0  0  0  0  0  0  0  0  0  0
   -7.4782    5.4019    1.8507 C   0  0  0  0  0  0  0  0  0  0  0  0
   -6.5894    6.1746    3.0677 S   0  0  0  0  0  0  0  0  0  0  0  0
   -7.4834    5.7753    0.4078 C   0  0  0  0  0  0  0  0  0  0  0  0
   -6.7056    6.8437   -0.1291 C   0  0  0  0  0  0  0  0  0  0  0  0
   -6.1897    6.6279   -1.4311 C   0  0  0  0  0  0  0  0  0  0  0  0
   -5.1270    7.3146   -2.0067 C   0  0  0  0  0  0  0  0  0  0  0  0
   -4.4866    8.5282   -1.4735 C   0  0  0  0  0  0  0  0  0  0  0  0
   -4.0516    9.8753   -2.3841 S   0  0  0  0  0  0  0  0  0  0  0  0
   -3.2663   10.7607   -1.2019 C   0  0  0  0  0  0  0  0  0  0  0  0
   -2.6353   12.1105   -1.3213 C   0  0  0  0  0  0  0  0  0  0  0  0
   -1.1129   11.9850   -1.2938 C   0  0  0  0  0  0  0  0  0  0  0  0
   -3.3115   10.0113   -0.0483 C   0  0  0  0  0  0  0  0  0  0  0  0
   -2.6035   10.5068    1.4451 Cl  0  0  0  0  0  0  0  0  0  0  0  0
   -3.9823    8.7330   -0.1879 C   0  0  0  0  0  0  0  0  0  0  0  0
   -3.9853    7.5961    1.1102 Cl  0  0  0  0  0  0  0  0  0  0  0  0
   -4.5078    6.7813   -3.1877 C   0  0  0  0  0  0  0  0  0  0  0  0
   -4.9628    5.5895   -3.7621 C   0  0  0  0  0  0  0  0  0  0  0  0
   -6.0365    4.9256   -3.2026 C   0  0  0  0  0  0  0  0  0  0  0  0
   -6.5991    3.6181   -3.5951 C   0  0  0  0  0  0  0  0  0  0  0  0
   -8.2451    3.2340   -3.6068 S   0  0  0  0  0  0  0  0  0  0  0  0
   -8.1437    1.5936   -3.9324 C   0  0  0  0  0  0  0  0  0  0  0  0
   -9.2278    0.5730   -4.0912 C   0  0  0  0  0  0  0  0  0  0  0  0
   -9.4462    0.2953   -5.5965 C   0  0  0  0  0  0  0  0  0  0  0  0
   -6.8052    1.3075   -4.0419 C   0  0  0  0  0  0  0  0  0  0  0  0
   -5.9176    2.4311   -3.8353 C   0  0  0  0  0  0  0  0  0  0  0  0
   -4.2126    2.1789   -3.7672 Cl  0  0  0  0  0  0  0  0  0  0  0  0
   -6.1987   -0.2840   -4.3724 Cl  0  0  0  0  0  0  0  0  0  0  0  0
   -6.6391    5.4469   -2.0246 C   0  0  0  0  0  0  0  0  0  0  0  0
   -7.5909    4.6824   -0.8711 S   0  0  0  0  0  0  0  0  0  0  0  0
   -4.0977    5.0822   -4.7652 C   0  0  0  0  0  0  0  0  0  0  0  0
   -2.9215    5.7591   -4.9274 C   0  0  0  0  0  0  0  0  0  0  0  0
   -3.0253    7.0801   -3.9028 S   0  0  0  0  0  0  0  0  0  0  0  0
   -1.7031    5.0689   -5.5159 C   0  0  0  0  0  0  0  0  0  0  0  0
   -1.4705    3.4560   -5.9893 S   0  0  0  0  0  0  0  0  0  0  0  0
    0.2152    3.2327   -5.8192 C   0  0  0  0  0  0  0  0  0  0  0  0
    0.6289    4.4966   -5.4158 C   0  0  0  0  0  0  0  0  0  0  0  0
   -0.3590    5.4424   -5.2004 C   0  0  0  0  0  0  0  0  0  0  0  0
   -0.0383    6.7996   -4.6717 C   0  0  0  0  0  0  0  0  0  0  0  0
    0.0041    6.7709   -3.1379 C   0  0  0  0  0  0  0  0  0  0  0  0
    1.7425    4.9003   -4.7844 O   0  0  0  0  0  0  0  0  0  0  0  0
    3.2227    4.9514   -5.1116 C   0  0  0  0  0  0  0  0  0  0  0  0
    3.5606    4.2759   -6.4560 C   0  0  0  0  0  0  0  0  0  0  0  0
    5.6659    5.3098   -6.0439 S   0  0  0  0  0  4  0  0  0  0  0  0
    6.7688    5.0839   -7.4150 O   0  0  0  0  0  0  0  0  0  0  0  0
    5.5094    7.0994   -5.6940 O   0  0  0  0  0  0  0  0  0  0  0  0
    6.4260    4.6006   -4.6028 O   0  0  0  0  0  0  0  0  0  0  0  0
    0.7397    1.8803   -5.6986 C   0  0  0  0  0  0  0  0  0  0  0  0
    2.0157    1.5586   -5.3974 C   0  0  0  0  0  0  0  0  0  0  0  0
    2.4037    0.1480   -5.3396 C   0  0  0  0  0  0  0  0  0  0  0  0
    1.6316   -0.9808   -5.4797 C   0  0  0  0  0  0  0  0  0  0  0  0
    2.2801   -2.2013   -5.0842 C   0  0  0  0  0  0  0  0  0  0  0  0
    1.6996   -3.4325   -5.0053 C   0  0  0  0  0  0  0  0  0  0  0  0
    0.3518   -3.6699   -5.5771 C   0  0  0  0  0  0  0  0  0  0  0  0
   -0.3367   -2.9226   -6.9134 S   0  0  0  0  0  0  0  0  0  0  0  0
   -1.8399   -3.6281   -6.8678 C   0  0  0  0  0  0  0  0  0  0  0  0
   -3.0130   -3.4481   -7.7940 C   0  0  0  0  0  0  0  0  0  0  0  0
   -2.9758   -4.6284   -8.7973 C   0  0  0  0  0  0  0  0  0  0  0  0
   -1.8506   -4.5064   -5.8127 C   0  0  0  0  0  0  0  0  0  0  0  0
   -3.2099   -5.5014   -5.4002 Cl  0  0  0  0  0  0  0  0  0  0  0  0
   -0.6179   -4.5472   -5.0585 C   0  0  0  0  0  0  0  0  0  0  0  0
   -0.5474   -5.4917   -3.6181 Cl  0  0  0  0  0  0  0  0  0  0  0  0
    2.4741   -4.5064   -4.4642 C   0  0  0  0  0  0  0  0  0  0  0  0
    3.7440   -4.3288   -4.0551 C   0  0  0  0  0  0  0  0  0  0  0  0
    4.3641   -3.0673   -4.1325 C   0  0  0  0  0  0  0  0  0  0  0  0
    5.6507   -2.7049   -3.5813 C   0  0  0  0  0  0  0  0  0  0  0  0
    6.8084   -1.6747   -4.2696 S   0  0  0  0  0  0  0  0  0  0  0  0
    7.8557   -1.5273   -2.9784 C   0  0  0  0  0  0  0  0  0  0  0  0
    9.1354   -0.7375   -2.8854 C   0  0  0  0  0  0  0  0  0  0  0  0
   10.2925   -1.7324   -2.8409 C   0  0  0  0  0  0  0  0  0  0  0  0
    7.3407   -2.2891   -1.9562 C   0  0  0  0  0  0  0  0  0  0  0  0
    6.0852   -2.9456   -2.2804 C   0  0  0  0  0  0  0  0  0  0  0  0
    5.2280   -3.8479   -1.0929 Cl  0  0  0  0  0  0  0  0  0  0  0  0
    8.0842   -2.4685   -0.4100 Cl  0  0  0  0  0  0  0  0  0  0  0  0
    3.6040   -2.0010   -4.6786 C   0  0  0  0  0  0  0  0  0  0  0  0
    3.9152   -0.3658   -4.7735 S   0  0  0  0  0  0  0  0  0  0  0  0
    4.3952   -5.5121   -3.5249 C   0  0  0  0  0  0  0  0  0  0  0  0
    3.5454   -6.6224   -3.5227 C   0  0  0  0  0  0  0  0  0  0  0  0
    2.1587   -6.1319   -4.1993 S   0  0  0  0  0  0  0  0  0  0  0  0
    3.8286   -8.0045   -2.9924 C   0  0  0  0  0  0  0  0  0  0  0  0
    5.0492   -8.5181   -2.5429 C   0  0  0  0  0  0  0  0  0  0  0  0
    4.9461   -9.8920   -2.1005 C   0  0  0  0  0  0  0  0  0  0  0  0
    5.9953  -10.6371   -1.5620 C   0  0  0  0  0  0  0  0  0  0  0  0
    7.4104  -10.2684   -1.4773 C   0  0  0  0  0  0  0  0  0  0  0  0
    8.4552  -10.6368   -0.2056 S   0  0  0  0  0  0  0  0  0  0  0  0
    9.8838  -10.1072   -0.8629 C   0  0  0  0  0  0  0  0  0  0  0  0
   11.2446  -10.1228   -0.2263 C   0  0  0  0  0  0  0  0  0  0  0  0
   11.5774   -8.7366    0.2716 C   0  0  0  0  0  0  0  0  0  0  0  0
    9.5862   -9.6051   -2.1149 C   0  0  0  0  0  0  0  0  0  0  0  0
   10.7680   -8.9330   -3.1827 Cl  0  0  0  0  0  0  0  0  0  0  0  0
    8.1916   -9.7079   -2.4756 C   0  0  0  0  0  0  0  0  0  0  0  0
    7.6602   -9.2726   -4.0499 Cl  0  0  0  0  0  0  0  0  0  0  0  0
    5.6971  -11.9482   -1.0899 C   0  0  0  0  0  0  0  0  0  0  0  0
    4.4241  -12.4735   -1.1919 C   0  0  0  0  0  0  0  0  0  0  0  0
    3.3879  -11.7397   -1.7303 C   0  0  0  0  0  0  0  0  0  0  0  0
    2.0040  -12.2313   -1.6549 C   0  0  0  0  0  0  0  0  0  0  0  0
    1.3459  -13.1811   -0.4496 S   0  0  0  0  0  0  0  0  0  0  0  0
   -0.1838  -13.3739   -1.0502 C   0  0  0  0  0  0  0  0  0  0  0  0
   -1.3219  -14.1592   -0.4532 C   0  0  0  0  0  0  0  0  0  0  0  0
   -1.4662  -15.4749   -1.2089 C   0  0  0  0  0  0  0  0  0  0  0  0
   -0.2417  -12.6765   -2.2301 C   0  0  0  0  0  0  0  0  0  0  0  0
    0.9817  -12.0184   -2.6014 C   0  0  0  0  0  0  0  0  0  0  0  0
    1.0847  -11.1975   -4.1124 Cl  0  0  0  0  0  0  0  0  0  0  0  0
   -1.6806  -12.5897   -3.1926 Cl  0  0  0  0  0  0  0  0  0  0  0  0
    3.6891  -10.4192   -2.1921 C   0  0  0  0  0  0  0  0  0  0  0  0
    2.7096   -9.2058   -2.8023 S   0  0  0  0  0  0  0  0  0  0  0  0
    4.3396  -13.8213   -0.6877 C   0  0  0  0  0  0  0  0  0  0  0  0
    5.5019  -14.3441   -0.2155 C   0  0  0  0  0  0  0  0  0  0  0  0
    6.6638  -13.1413   -0.4153 S   0  0  0  0  0  0  0  0  0  0  0  0
    5.4157   -2.1841    6.7771 H   0  0  0  0  0  0  0  0  0  0  0  0
    4.6376    0.1500    7.3276 H   0  0  0  0  0  0  0  0  0  0  0  0
    5.9061    5.1963    8.2398 H   0  0  0  0  0  0  0  0  0  0  0  0
    6.3643    4.2082    6.7664 H   0  0  0  0  0  0  0  0  0  0  0  0
    4.3890    6.5303    6.7368 H   0  0  0  0  0  0  0  0  0  0  0  0
    6.1124    6.5906    6.1082 H   0  0  0  0  0  0  0  0  0  0  0  0
    4.8555    5.5279    5.3444 H   0  0  0  0  0  0  0  0  0  0  0  0
    0.4411   -6.8176    4.5188 H   0  0  0  0  0  0  0  0  0  0  0  0
   -0.5047   -7.5159    5.9438 H   0  0  0  0  0  0  0  0  0  0  0  0
   -2.0565   -7.9870    4.3883 H   0  0  0  0  0  0  0  0  0  0  0  0
   -1.3673   -6.8836    3.1528 H   0  0  0  0  0  0  0  0  0  0  0  0
   -2.4951   -6.2556    4.4307 H   0  0  0  0  0  0  0  0  0  0  0  0
   -2.3542   -0.8861    6.2652 H   0  0  0  0  0  0  0  0  0  0  0  0
   -3.1531    3.7809    6.7416 H   0  0  0  0  0  0  0  0  0  0  0  0
   -1.1118    8.5141    6.6620 H   0  0  0  0  0  0  0  0  0  0  0  0
   -2.4562    9.7352    6.8242 H   0  0  0  0  0  0  0  0  0  0  0  0
   -0.9987    8.6229    8.9561 H   0  0  0  0  0  0  0  0  0  0  0  0
   -2.6294    7.8299    9.0428 H   0  0  0  0  0  0  0  0  0  0  0  0
   -2.4689    9.6191    9.0535 H   0  0  0  0  0  0  0  0  0  0  0  0
   -9.6632   -1.4905    0.5847 H   0  0  0  0  0  0  0  0  0  0  0  0
  -10.8081   -0.1473    1.0935 H   0  0  0  0  0  0  0  0  0  0  0  0
  -11.8254   -1.6087    2.5201 H   0  0  0  0  0  0  0  0  0  0  0  0
  -10.2715   -1.8399    3.3813 H   0  0  0  0  0  0  0  0  0  0  0  0
  -10.6632   -2.9318    2.0077 H   0  0  0  0  0  0  0  0  0  0  0  0
   -8.0454    3.3871    1.6560 H   0  0  0  0  0  0  0  0  0  0  0  0
   -6.5183    7.6982    0.4370 H   0  0  0  0  0  0  0  0  0  0  0  0
   -2.9384   12.5667   -2.2851 H   0  0  0  0  0  0  0  0  0  0  0  0
   -2.9350   12.7417   -0.4387 H   0  0  0  0  0  0  0  0  0  0  0  0
   -0.8268   11.3767   -0.4226 H   0  0  0  0  0  0  0  0  0  0  0  0
   -0.6201   12.9801   -1.2346 H   0  0  0  0  0  0  0  0  0  0  0  0
   -0.7902   11.4765   -2.2375 H   0  0  0  0  0  0  0  0  0  0  0  0
  -10.1810    0.9308   -3.6547 H   0  0  0  0  0  0  0  0  0  0  0  0
   -8.9509   -0.3857   -3.6046 H   0  0  0  0  0  0  0  0  0  0  0  0
  -10.5253    0.3440   -5.8522 H   0  0  0  0  0  0  0  0  0  0  0  0
   -9.0184   -0.6893   -5.8908 H   0  0  0  0  0  0  0  0  0  0  0  0
   -8.9437    1.0642   -6.2191 H   0  0  0  0  0  0  0  0  0  0  0  0
   -4.3019    4.2373   -5.3659 H   0  0  0  0  0  0  0  0  0  0  0  0
   -0.6894    7.5922   -5.0871 H   0  0  0  0  0  0  0  0  0  0  0  0
    0.9808    7.0682   -5.0511 H   0  0  0  0  0  0  0  0  0  0  0  0
   -0.3879    7.7261   -2.8054 H   0  0  0  0  0  0  0  0  0  0  0  0
   -0.5924    5.9122   -2.7492 H   0  0  0  0  0  0  0  0  0  0  0  0
    1.0257    6.6812   -2.7657 H   0  0  0  0  0  0  0  0  0  0  0  0
    3.6655    5.9470   -5.1035 H   0  0  0  0  0  0  0  0  0  0  0  0
    3.6662    4.3920   -4.2612 H   0  0  0  0  0  0  0  0  0  0  0  0
    3.5258    5.0672   -7.2581 H   0  0  0  0  0  0  0  0  0  0  0  0
    4.6486    3.9289   -6.4412 H   0  0  0  0  0  0  0  0  0  0  0  0
    7.5660    4.6670   -7.0168 H   0  0  0  0  0  0  0  0  0  0  0  0
    5.7357    7.0150   -4.7382 H   0  0  0  0  0  0  0  0  0  0  0  0
    5.6857    4.2727   -4.0409 H   0  0  0  0  0  0  0  0  0  0  0  0
    0.0491    1.0489   -5.8440 H   0  0  0  0  0  0  0  0  0  0  0  0
    2.6835    2.3538   -5.2450 H   0  0  0  0  0  0  0  0  0  0  0  0
    0.6370   -0.9231   -5.7965 H   0  0  0  0  0  0  0  0  0  0  0  0
   -2.9510   -2.4739   -8.3428 H   0  0  0  0  0  0  0  0  0  0  0  0
   -3.9455   -3.5203   -7.1963 H   0  0  0  0  0  0  0  0  0  0  0  0
   -3.8795   -5.2787   -8.7034 H   0  0  0  0  0  0  0  0  0  0  0  0
   -2.1023   -5.2935   -8.6027 H   0  0  0  0  0  0  0  0  0  0  0  0
   -2.8707   -4.2363   -9.8320 H   0  0  0  0  0  0  0  0  0  0  0  0
    9.2417   -0.0656   -3.7660 H   0  0  0  0  0  0  0  0  0  0  0  0
    9.1720   -0.1481   -1.9235 H   0  0  0  0  0  0  0  0  0  0  0  0
   10.3974   -2.1514   -1.8139 H   0  0  0  0  0  0  0  0  0  0  0  0
   11.2494   -1.2617   -3.1562 H   0  0  0  0  0  0  0  0  0  0  0  0
   10.1164   -2.5947   -3.5293 H   0  0  0  0  0  0  0  0  0  0  0  0
    5.3833   -5.5499   -3.2088 H   0  0  0  0  0  0  0  0  0  0  0  0
    5.9381   -7.9575   -2.4780 H   0  0  0  0  0  0  0  0  0  0  0  0
   11.9849  -10.4837   -0.9821 H   0  0  0  0  0  0  0  0  0  0  0  0
   11.2275  -10.8232    0.6354 H   0  0  0  0  0  0  0  0  0  0  0  0
   10.9282   -8.5416    1.1640 H   0  0  0  0  0  0  0  0  0  0  0  0
   12.6581   -8.6520    0.5513 H   0  0  0  0  0  0  0  0  0  0  0  0
   11.2861   -8.0184   -0.5090 H   0  0  0  0  0  0  0  0  0  0  0  0
   -1.0889  -14.3582    0.6093 H   0  0  0  0  0  0  0  0  0  0  0  0
   -2.2731  -13.5771   -0.4874 H   0  0  0  0  0  0  0  0  0  0  0  0
   -1.6617  -16.2946   -0.4876 H   0  0  0  0  0  0  0  0  0  0  0  0
   -2.2950  -15.4066   -1.9291 H   0  0  0  0  0  0  0  0  0  0  0  0
   -0.4925  -15.7115   -1.6926 H   0  0  0  0  0  0  0  0  0  0  0  0
    3.4496  -14.3966   -0.7021 H   0  0  0  0  0  0  0  0  0  0  0  0
    5.6040  -15.3723    0.2052 H   0  0  0  0  0  0  0  0  0  0  0  0
  1  2  2  0
  2  3  1  0
  3  4  2  0
  4  5  1  0
  5  6  1  0
  6  7  1  0
  7  8  1  0
  8  9  1  0
  7 10  2  0
 10 11  1  0
 10 12  1  0
 12 13  1  0
  4 14  1  0
 14 15  2  0
 15 16  1  0
 16 17  1  0
 17 18  1  0
 18 19  1  0
 19 20  1  0
 20 21  1  0
 19 22  2  0
 22 23  1  0
 23 24  1  0
 22 25  1  0
 16 26  2  0
 26 27  1  0
 15 28  1  0
 28 29  2  0
 29 30  1  0
 29 31  1  0
 31 32  2  0
 32 33  1  0
 33 34  2  0
 34 35  1  0
 35 36  1  0
 36 37  1  0
 37 38  1  0
 38 39  1  0
 37 40  2  0
 40 41  1  0
 40 42  1  0
 42 43  1  0
 34 44  1  0
 44 45  2  0
 45 46  1  0
 46 47  1  0
 47 48  1  0
 48 49  1  0
 49 50  1  0
 50 51  1  0
 49 52  2  0
 52 53  1  0
 53 54  1  0
 52 55  1  0
 46 56  2  0
 56 57  1  0
 45 58  1  0
 58 59  2  0
 59 60  1  0
 59 61  1  0
 61 62  2  0
 62 63  1  0
 63 64  2  0
 64 65  1  0
 65 66  1  0
 66 67  1  0
 67 68  1  0
 68 69  1  0
 67 70  2  0
 70 71  1  0
 70 72  1  0
 72 73  1  0
 64 74  1  0
 74 75  2  0
 75 76  1  0
 76 77  1  0
 77 78  1  0
 78 79  1  0
 79 80  1  0
 80 81  1  0
 79 82  2  0
 82 83  1  0
 83 84  1  0
 82 85  1  0
 76 86  2  0
 86 87  1  0
 75 88  1  0
 88 89  2  0
 89 90  1  0
 89 91  1  0
 91 92  1  0
 92 93  1  0
 93 94  2  0
 94 95  1  0
 95 96  1  0
 96 97  1  0
 94 98  1  0
 98 99  1  0
 99100  1  0
100101  1  0
101102  1  0
101103  1  0
101104  1  0
 93105  1  0
105106  2  3
106107  1  0
107108  2  0
108109  1  0
109110  2  0
110111  1  0
111112  1  0
112113  1  0
113114  1  0
114115  1  0
113116  2  0
116117  1  0
116118  1  0
118119  1  0
110120  1  0
120121  2  0
121122  1  0
122123  1  0
123124  1  0
124125  1  0
125126  1  0
126127  1  0
125128  2  0
128129  1  0
129130  1  0
128131  1  0
122132  2  0
132133  1  0
121134  1  0
134135  2  0
135136  1  0
135137  1  0
137138  2  0
138139  1  0
139140  2  0
140141  1  0
141142  1  0
142143  1  0
143144  1  0
144145  1  0
143146  2  0
146147  1  0
146148  1  0
148149  1  0
140150  1  0
150151  2  0
151152  1  0
152153  1  0
153154  1  0
154155  1  0
155156  1  0
156157  1  0
155158  2  0
158159  1  0
159160  1  0
158161  1  0
152162  2  0
162163  1  0
151164  1  0
164165  2  0
165166  1  0
 27  1  1  0
 57 31  1  0
 87 61  1  0
 95 91  2  0
133107  1  0
163137  1  0
 26  3  1  0
 56 33  1  0
 86 63  1  0
132109  1  0
162139  1  0
 12  5  2  0
 30 14  1  0
 42 35  2  0
 60 44  1  0
 72 65  2  0
 90 74  1  0
118111  2  0
136120  1  0
148141  2  0
166150  1  0
 23 17  2  0
 53 47  2  0
 83 77  2  0
129123  2  0
159153  2  0
  1167  1  0
  2168  1  0
  8169  1  0
  8170  1  0
  9171  1  0
  9172  1  0
  9173  1  0
 20174  1  0
 20175  1  0
 21176  1  0
 21177  1  0
 21178  1  0
 28179  1  0
 32180  1  0
 38181  1  0
 38182  1  0
 39183  1  0
 39184  1  0
 39185  1  0
 50186  1  0
 50187  1  0
 51188  1  0
 51189  1  0
 51190  1  0
 58191  1  0
 62192  1  0
 68193  1  0
 68194  1  0
 69195  1  0
 69196  1  0
 69197  1  0
 80198  1  0
 80199  1  0
 81200  1  0
 81201  1  0
 81202  1  0
 88203  1  0
 96204  1  0
 96205  1  0
 97206  1  0
 97207  1  0
 97208  1  0
 99209  1  0
 99210  1  0
100211  1  0
100212  1  0
102213  1  0
103214  1  0
104215  1  0
105216  1  0
106217  1  0
108218  1  0
114219  1  0
114220  1  0
115221  1  0
115222  1  0
115223  1  0
126224  1  0
126225  1  0
127226  1  0
127227  1  0
127228  1  0
134229  1  0
138230  1  0
144231  1  0
144232  1  0
145233  1  0
145234  1  0
145235  1  0
156236  1  0
156237  1  0
157238  1  0
157239  1  0
157240  1  0
164241  1  0
165242  1  0
M  END

