
     RDKit          3D

228254  0  0  0  0  0  0  0  0999 V2000
   -1.5072   -9.0605   10.3787 C   0  0  0  0  0  0  0  0  0  0  0  0
   -1.1958   -8.1788    9.3474 C   0  0  0  0  0  0  0  0  0  0  0  0
   -2.3147   -7.8023    8.5857 C   0  0  0  0  0  0  0  0  0  0  0  0
   -2.3192   -6.9279    7.4814 C   0  0  0  0  0  0  0  0  0  0  0  0
   -1.0954   -6.2621    6.9968 C   0  0  0  0  0  0  0  0  0  0  0  0
   -0.4476   -6.4574    5.4570 S   0  0  0  0  0  0  0  0  0  0  0  0
    0.8029   -5.3486    5.6445 C   0  0  0  0  0  0  0  0  0  0  0  0
    1.7515   -4.9455    4.5552 C   0  0  0  0  0  0  0  0  0  0  0  0
    1.1700   -3.8000    3.7323 C   0  0  0  0  0  0  0  0  0  0  0  0
    0.7098   -4.7841    6.9162 C   0  0  0  0  0  0  0  0  0  0  0  0
    1.7807   -3.5123    7.4926 Cl  0  0  0  0  0  0  0  0  0  0  0  0
   -0.3514   -5.3003    7.6778 C   0  0  0  0  0  0  0  0  0  0  0  0
   -0.7548   -4.7218    9.2893 Cl  0  0  0  0  0  0  0  0  0  0  0  0
   -3.5543   -6.7148    6.8454 C   0  0  0  0  0  0  0  0  0  0  0  0
   -4.7382   -7.3364    7.2586 C   0  0  0  0  0  0  0  0  0  0  0  0
   -4.7353   -8.1947    8.3750 C   0  0  0  0  0  0  0  0  0  0  0  0
   -5.9706   -8.8092    8.8841 C   0  0  0  0  0  0  0  0  0  0  0  0
   -6.7832  -10.0842    8.1527 S   0  0  0  0  0  0  0  0  0  0  0  0
   -8.0025  -10.1987    9.3090 C   0  0  0  0  0  0  0  0  0  0  0  0
   -9.0769  -11.2428    9.3108 C   0  0  0  0  0  0  0  0  0  0  0  0
   -8.7053  -12.3993   10.2331 C   0  0  0  0  0  0  0  0  0  0  0  0
   -7.7791   -9.2387   10.2955 C   0  0  0  0  0  0  0  0  0  0  0  0
   -6.6388   -8.4576   10.0542 C   0  0  0  0  0  0  0  0  0  0  0  0
   -6.1137   -7.1520   11.1119 Cl  0  0  0  0  0  0  0  0  0  0  0  0
   -8.8071   -9.0328   11.7041 Cl  0  0  0  0  0  0  0  0  0  0  0  0
   -3.5015   -8.4042    9.0164 C   0  0  0  0  0  0  0  0  0  0  0  0
   -3.1632   -9.3877   10.3408 S   0  0  0  0  0  0  0  0  0  0  0  0
   -5.8566   -6.9645    6.4904 C   0  0  0  0  0  0  0  0  0  0  0  0
   -5.5351   -6.0332    5.5072 C   0  0  0  0  0  0  0  0  0  0  0  0
   -3.8901   -5.6778    5.5683 S   0  0  0  0  0  0  0  0  0  0  0  0
   -6.4539   -5.4277    4.5471 C   0  0  0  0  0  0  0  0  0  0  0  0
   -6.5772   -4.0562    4.3528 C   0  0  0  0  0  0  0  0  0  0  0  0
   -7.2248   -3.7277    3.1553 C   0  0  0  0  0  0  0  0  0  0  0  0
   -7.4422   -2.4276    2.6608 C   0  0  0  0  0  0  0  0  0  0  0  0
   -6.9625   -1.2318    3.3774 C   0  0  0  0  0  0  0  0  0  0  0  0
   -5.3433   -0.8756    3.6624 S   0  0  0  0  0  0  0  0  0  0  0  0
   -5.6109    0.6156    4.3914 C   0  0  0  0  0  0  0  0  0  0  0  0
   -4.5257    1.5491    4.8380 C   0  0  0  0  0  0  0  0  0  0  0  0
   -4.1354    2.5021    3.7131 C   0  0  0  0  0  0  0  0  0  0  0  0
   -6.9819    0.8677    4.3971 C   0  0  0  0  0  0  0  0  0  0  0  0
   -7.6909    2.3438    5.0380 Cl  0  0  0  0  0  0  0  0  0  0  0  0
   -7.7395   -0.1667    3.8265 C   0  0  0  0  0  0  0  0  0  0  0  0
   -9.4939   -0.1289    3.7134 Cl  0  0  0  0  0  0  0  0  0  0  0  0
   -7.9837   -2.3232    1.3695 C   0  0  0  0  0  0  0  0  0  0  0  0
   -8.2716   -3.4396    0.5777 C   0  0  0  0  0  0  0  0  0  0  0  0
   -8.1113   -4.7415    1.0980 C   0  0  0  0  0  0  0  0  0  0  0  0
   -8.4110   -5.9370    0.2922 C   0  0  0  0  0  0  0  0  0  0  0  0
   -9.9539   -6.3983   -0.1894 S   0  0  0  0  0  0  0  0  0  0  0  0
   -9.4772   -7.7812   -1.0188 C   0  0  0  0  0  0  0  0  0  0  0  0
  -10.4180   -8.7373   -1.6871 C   0  0  0  0  0  0  0  0  0  0  0  0
  -10.8099   -9.8664   -0.7394 C   0  0  0  0  0  0  0  0  0  0  0  0
   -8.0919   -7.9070   -0.9191 C   0  0  0  0  0  0  0  0  0  0  0  0
   -7.4918   -6.8665   -0.1906 C   0  0  0  0  0  0  0  0  0  0  0  0
   -5.7532   -6.7220    0.0299 Cl  0  0  0  0  0  0  0  0  0  0  0  0
   -7.1843   -9.2318   -1.6347 Cl  0  0  0  0  0  0  0  0  0  0  0  0
   -7.5872   -4.8487    2.3998 C   0  0  0  0  0  0  0  0  0  0  0  0
   -7.1338   -6.2432    3.2363 S   0  0  0  0  0  0  0  0  0  0  0  0
   -8.5409   -3.1099   -0.7641 C   0  0  0  0  0  0  0  0  0  0  0  0
   -8.4870   -1.7356   -1.0094 C   0  0  0  0  0  0  0  0  0  0  0  0
   -8.0922   -0.9422    0.4258 S   0  0  0  0  0  0  0  0  0  0  0  0
   -8.2108   -1.1223   -2.3122 C   0  0  0  0  0  0  0  0  0  0  0  0
   -7.1101   -1.5074   -3.0775 C   0  0  0  0  0  0  0  0  0  0  0  0
   -6.5774   -0.4619   -3.8482 C   0  0  0  0  0  0  0  0  0  0  0  0
   -5.3236   -0.4763   -4.4915 C   0  0  0  0  0  0  0  0  0  0  0  0
   -4.4642   -1.6707   -4.4890 C   0  0  0  0  0  0  0  0  0  0  0  0
   -3.7140   -2.3127   -3.1261 S   0  0  0  0  0  0  0  0  0  0  0  0
   -2.9592   -3.5880   -3.9231 C   0  0  0  0  0  0  0  0  0  0  0  0
   -2.0466   -4.5780   -3.2658 C   0  0  0  0  0  0  0  0  0  0  0  0
   -0.5868   -4.1805   -3.4544 C   0  0  0  0  0  0  0  0  0  0  0  0
   -3.2703   -3.5114   -5.2812 C   0  0  0  0  0  0  0  0  0  0  0  0
   -2.6803   -4.6559   -6.4768 Cl  0  0  0  0  0  0  0  0  0  0  0  0
   -4.1121   -2.4332   -5.5975 C   0  0  0  0  0  0  0  0  0  0  0  0
   -4.6867   -2.0962   -7.2229 Cl  0  0  0  0  0  0  0  0  0  0  0  0
   -4.8339    0.7547   -4.9544 C   0  0  0  0  0  0  0  0  0  0  0  0
   -5.5572    1.9455   -4.8405 C   0  0  0  0  0  0  0  0  0  0  0  0
   -6.8512    1.9437   -4.2753 C   0  0  0  0  0  0  0  0  0  0  0  0
   -7.6343    3.1804   -4.0980 C   0  0  0  0  0  0  0  0  0  0  0  0
   -7.1741    4.5041   -3.1619 S   0  0  0  0  0  0  0  0  0  0  0  0
   -8.5418    5.4324   -3.4784 C   0  0  0  0  0  0  0  0  0  0  0  0
   -8.7468    6.8371   -2.9996 C   0  0  0  0  0  0  0  0  0  0  0  0
   -8.0905    7.8295   -3.9526 C   0  0  0  0  0  0  0  0  0  0  0  0
   -9.3763    4.7166   -4.3376 C   0  0  0  0  0  0  0  0  0  0  0  0
   -8.8750    3.4492   -4.6709 C   0  0  0  0  0  0  0  0  0  0  0  0
   -9.7041    2.3352   -5.7480 Cl  0  0  0  0  0  0  0  0  0  0  0  0
  -10.8886    5.3489   -4.9727 Cl  0  0  0  0  0  0  0  0  0  0  0  0
   -7.3130    0.7229   -3.7564 C   0  0  0  0  0  0  0  0  0  0  0  0
   -8.5624    0.4945   -2.6546 S   0  0  0  0  0  0  0  0  0  0  0  0
   -4.8024    3.0831   -5.1713 C   0  0  0  0  0  0  0  0  0  0  0  0
   -3.4662    2.7920   -5.4550 C   0  0  0  0  0  0  0  0  0  0  0  0
   -3.2562    1.1172   -5.4028 S   0  0  0  0  0  0  0  0  0  0  0  0
   -2.3436    3.7448   -5.3599 C   0  0  0  0  0  0  0  0  0  0  0  0
   -0.7688    3.3696   -5.8157 S   0  0  0  0  0  0  0  0  0  0  0  0
   -0.0180    4.6296   -5.0035 C   0  0  0  0  0  0  0  0  0  0  0  0
   -0.9872    5.3620   -4.3242 C   0  0  0  0  0  0  0  0  0  0  0  0
   -2.2975    4.8549   -4.5081 C   0  0  0  0  0  0  0  0  0  0  0  0
   -3.4442    5.2952   -3.8245 O   0  0  0  0  0  0  0  0  0  0  0  0
   -3.5405    6.4545   -3.0002 C   0  0  0  0  0  0  0  0  0  0  0  0
   -2.8330    6.2695   -1.6456 C   0  0  0  0  0  0  0  0  0  0  0  0
   -1.3628    5.8356   -1.7482 C   0  0  0  0  0  0  0  0  0  0  0  0
   -0.5364    6.6572   -3.1530 S   0  0  0  0  0  0  0  0  0  0  0  0
    1.4041    4.6159   -4.6667 C   0  0  0  0  0  0  0  0  0  0  0  0
    1.9156    4.0907   -3.4875 C   0  0  0  0  0  0  0  0  0  0  0  0
    3.3157    4.1283   -3.4399 C   0  0  0  0  0  0  0  0  0  0  0  0
    4.1233    3.6475   -2.3901 C   0  0  0  0  0  0  0  0  0  0  0  0
    3.5447    3.1050   -1.1446 C   0  0  0  0  0  0  0  0  0  0  0  0
    3.7657    1.5348   -0.5787 S   0  0  0  0  0  0  0  0  0  0  0  0
    2.8307    1.7069    0.8102 C   0  0  0  0  0  0  0  0  0  0  0  0
    2.5499    0.6097    1.7933 C   0  0  0  0  0  0  0  0  0  0  0  0
    1.2542   -0.1131    1.4446 C   0  0  0  0  0  0  0  0  0  0  0  0
    2.3121    3.0011    0.8408 C   0  0  0  0  0  0  0  0  0  0  0  0
    1.2528    3.5915    2.1113 Cl  0  0  0  0  0  0  0  0  0  0  0  0
    2.7218    3.7879   -0.2476 C   0  0  0  0  0  0  0  0  0  0  0  0
    2.2810    5.4822   -0.4266 Cl  0  0  0  0  0  0  0  0  0  0  0  0
    5.5133    3.7075   -2.5852 C   0  0  0  0  0  0  0  0  0  0  0  0
    6.0922    4.2638   -3.7321 C   0  0  0  0  0  0  0  0  0  0  0  0
    5.2820    4.7885   -4.7609 C   0  0  0  0  0  0  0  0  0  0  0  0
    5.8586    5.4603   -5.9394 C   0  0  0  0  0  0  0  0  0  0  0  0
    5.6458    4.9732   -7.5362 S   0  0  0  0  0  0  0  0  0  0  0  0
    6.5154    6.2372   -8.2272 C   0  0  0  0  0  0  0  0  0  0  0  0
    6.6436    6.4722   -9.7026 C   0  0  0  0  0  0  0  0  0  0  0  0
    5.4546    7.2726  -10.2237 C   0  0  0  0  0  0  0  0  0  0  0  0
    6.9630    7.0791   -7.2095 C   0  0  0  0  0  0  0  0  0  0  0  0
    6.6024    6.6388   -5.9273 C   0  0  0  0  0  0  0  0  0  0  0  0
    6.9773    7.5351   -4.4590 Cl  0  0  0  0  0  0  0  0  0  0  0  0
    7.8477    8.5694   -7.5008 Cl  0  0  0  0  0  0  0  0  0  0  0  0
    3.8898    4.6739   -4.5947 C   0  0  0  0  0  0  0  0  0  0  0  0
    2.6643    5.1206   -5.6669 S   0  0  0  0  0  0  0  0  0  0  0  0
    7.4958    4.1902   -3.7332 C   0  0  0  0  0  0  0  0  0  0  0  0
    8.0059    3.5818   -2.5866 C   0  0  0  0  0  0  0  0  0  0  0  0
    6.7289    3.1458   -1.5709 S   0  0  0  0  0  0  0  0  0  0  0  0
    9.4209    3.2736   -2.3327 C   0  0  0  0  0  0  0  0  0  0  0  0
    9.8918    2.4765   -1.2913 C   0  0  0  0  0  0  0  0  0  0  0  0
   11.2800    2.2765   -1.3409 C   0  0  0  0  0  0  0  0  0  0  0  0
   12.0363    1.4757   -0.4614 C   0  0  0  0  0  0  0  0  0  0  0  0
   11.3987    0.6957    0.6130 C   0  0  0  0  0  0  0  0  0  0  0  0
   10.3185   -0.5688    0.3625 S   0  0  0  0  0  0  0  0  0  0  0  0
   10.0138   -0.8708    1.9889 C   0  0  0  0  0  0  0  0  0  0  0  0
    9.0271   -1.8823    2.4910 C   0  0  0  0  0  0  0  0  0  0  0  0
    7.6065   -1.3327    2.4219 C   0  0  0  0  0  0  0  0  0  0  0  0
   10.7436    0.0392    2.7553 C   0  0  0  0  0  0  0  0  0  0  0  0
   10.6630    0.1181    4.5090 Cl  0  0  0  0  0  0  0  0  0  0  0  0
   11.5275    0.9114    1.9817 C   0  0  0  0  0  0  0  0  0  0  0  0
   12.5209    2.1879    2.6709 Cl  0  0  0  0  0  0  0  0  0  0  0  0
   13.4182    1.3979   -0.7025 C   0  0  0  0  0  0  0  0  0  0  0  0
   14.0374    2.0647   -1.7647 C   0  0  0  0  0  0  0  0  0  0  0  0
   13.2792    2.8651   -2.6461 C   0  0  0  0  0  0  0  0  0  0  0  0
   13.8892    3.5507   -3.7988 C   0  0  0  0  0  0  0  0  0  0  0  0
   14.5612    2.7727   -5.1307 S   0  0  0  0  0  0  0  0  0  0  0  0
   14.9594    4.1738   -5.9733 C   0  0  0  0  0  0  0  0  0  0  0  0
   15.5753    4.1978   -7.3410 C   0  0  0  0  0  0  0  0  0  0  0  0
   14.5141    4.4162   -8.4143 C   0  0  0  0  0  0  0  0  0  0  0  0
   14.5574    5.2775   -5.2224 C   0  0  0  0  0  0  0  0  0  0  0  0
   13.9543    4.9277   -4.0028 C   0  0  0  0  0  0  0  0  0  0  0  0
   13.3765    6.1105   -2.8373 Cl  0  0  0  0  0  0  0  0  0  0  0  0
   14.7820    6.9390   -5.7447 Cl  0  0  0  0  0  0  0  0  0  0  0  0
   11.8973    2.9458   -2.4027 C   0  0  0  0  0  0  0  0  0  0  0  0
   10.7206    3.7443   -3.3043 S   0  0  0  0  0  0  0  0  0  0  0  0
   15.4197    1.8306   -1.8316 C   0  0  0  0  0  0  0  0  0  0  0  0
   15.8769    0.9731   -0.8352 C   0  0  0  0  0  0  0  0  0  0  0  0
   14.5749    0.5060    0.1315 S   0  0  0  0  0  0  0  0  0  0  0  0
   -0.7995   -9.4730   11.0844 H   0  0  0  0  0  0  0  0  0  0  0  0
   -0.1881   -7.8299    9.1596 H   0  0  0  0  0  0  0  0  0  0  0  0
    1.9410   -5.8154    3.8915 H   0  0  0  0  0  0  0  0  0  0  0  0
    2.7228   -4.6331    4.9934 H   0  0  0  0  0  0  0  0  0  0  0  0
    1.8898   -3.5091    2.9384 H   0  0  0  0  0  0  0  0  0  0  0  0
    0.2190   -4.1169    3.2526 H   0  0  0  0  0  0  0  0  0  0  0  0
    0.9782   -2.9179    4.3794 H   0  0  0  0  0  0  0  0  0  0  0  0
  -10.0357  -10.7936    9.6454 H   0  0  0  0  0  0  0  0  0  0  0  0
   -9.2180  -11.6292    8.2800 H   0  0  0  0  0  0  0  0  0  0  0  0
   -7.7369  -12.8458    9.9226 H   0  0  0  0  0  0  0  0  0  0  0  0
   -8.6227  -12.0467   11.2828 H   0  0  0  0  0  0  0  0  0  0  0  0
   -9.4909  -13.1813   10.1841 H   0  0  0  0  0  0  0  0  0  0  0  0
   -6.8598   -7.3337    6.6557 H   0  0  0  0  0  0  0  0  0  0  0  0
   -6.1594   -3.3299    5.0358 H   0  0  0  0  0  0  0  0  0  0  0  0
   -3.6343    0.9586    5.1414 H   0  0  0  0  0  0  0  0  0  0  0  0
   -4.8646    2.1319    5.7203 H   0  0  0  0  0  0  0  0  0  0  0  0
   -3.8013    1.9293    2.8220 H   0  0  0  0  0  0  0  0  0  0  0  0
   -3.3015    3.1533    4.0490 H   0  0  0  0  0  0  0  0  0  0  0  0
   -4.9983    3.1424    3.4331 H   0  0  0  0  0  0  0  0  0  0  0  0
   -9.9445   -9.1626   -2.5980 H   0  0  0  0  0  0  0  0  0  0  0  0
  -11.3348   -8.1930   -2.0029 H   0  0  0  0  0  0  0  0  0  0  0  0
   -9.9132  -10.4522   -0.4416 H   0  0  0  0  0  0  0  0  0  0  0  0
  -11.2985   -9.4559    0.1695 H   0  0  0  0  0  0  0  0  0  0  0  0
  -11.5247  -10.5451   -1.2498 H   0  0  0  0  0  0  0  0  0  0  0  0
   -8.6501   -3.8440   -1.5525 H   0  0  0  0  0  0  0  0  0  0  0  0
   -6.6121   -2.4569   -2.9383 H   0  0  0  0  0  0  0  0  0  0  0  0
   -2.2187   -5.5886   -3.6913 H   0  0  0  0  0  0  0  0  0  0  0  0
   -2.2718   -4.6226   -2.1797 H   0  0  0  0  0  0  0  0  0  0  0  0
    0.0664   -4.9048   -2.9270 H   0  0  0  0  0  0  0  0  0  0  0  0
   -0.4050   -3.1682   -3.0363 H   0  0  0  0  0  0  0  0  0  0  0  0
   -0.3202   -4.1850   -4.5325 H   0  0  0  0  0  0  0  0  0  0  0  0
   -8.3028    6.9493   -1.9882 H   0  0  0  0  0  0  0  0  0  0  0  0
   -9.8319    7.0605   -2.9219 H   0  0  0  0  0  0  0  0  0  0  0  0
   -8.2565    8.8633   -3.5845 H   0  0  0  0  0  0  0  0  0  0  0  0
   -6.9958    7.6429   -4.0124 H   0  0  0  0  0  0  0  0  0  0  0  0
   -8.5335    7.7376   -4.9669 H   0  0  0  0  0  0  0  0  0  0  0  0
   -5.1838    4.0911   -5.1109 H   0  0  0  0  0  0  0  0  0  0  0  0
   -4.6155    6.6466   -2.8017 H   0  0  0  0  0  0  0  0  0  0  0  0
   -3.1594    7.3443   -3.5442 H   0  0  0  0  0  0  0  0  0  0  0  0
   -2.8807    7.2383   -1.1011 H   0  0  0  0  0  0  0  0  0  0  0  0
   -3.3892    5.5241   -1.0404 H   0  0  0  0  0  0  0  0  0  0  0  0
   -0.8373    6.1170   -0.8109 H   0  0  0  0  0  0  0  0  0  0  0  0
   -1.2950    4.7298   -1.8341 H   0  0  0  0  0  0  0  0  0  0  0  0
    1.2893    3.6716   -2.7105 H   0  0  0  0  0  0  0  0  0  0  0  0
    2.4737    1.0322    2.8175 H   0  0  0  0  0  0  0  0  0  0  0  0
    3.3890   -0.1174    1.7883 H   0  0  0  0  0  0  0  0  0  0  0  0
    0.3968    0.5920    1.4681 H   0  0  0  0  0  0  0  0  0  0  0  0
    1.3270   -0.5668    0.4331 H   0  0  0  0  0  0  0  0  0  0  0  0
    1.0687   -0.9222    2.1831 H   0  0  0  0  0  0  0  0  0  0  0  0
    6.6878    5.4947  -10.2252 H   0  0  0  0  0  0  0  0  0  0  0  0
    7.5844    7.0174   -9.9236 H   0  0  0  0  0  0  0  0  0  0  0  0
    5.4231    8.2737   -9.7430 H   0  0  0  0  0  0  0  0  0  0  0  0
    4.5063    6.7334  -10.0120 H   0  0  0  0  0  0  0  0  0  0  0  0
    5.5489    7.4058  -11.3215 H   0  0  0  0  0  0  0  0  0  0  0  0
    8.1155    4.5341   -4.5507 H   0  0  0  0  0  0  0  0  0  0  0  0
    9.2470    2.0404   -0.5394 H   0  0  0  0  0  0  0  0  0  0  0  0
    9.0965   -2.7999    1.8705 H   0  0  0  0  0  0  0  0  0  0  0  0
    9.2622   -2.1665    3.5381 H   0  0  0  0  0  0  0  0  0  0  0  0
    7.3373   -1.0876    1.3717 H   0  0  0  0  0  0  0  0  0  0  0  0
    6.8936   -2.0937    2.8038 H   0  0  0  0  0  0  0  0  0  0  0  0
    7.5192   -0.4176    3.0448 H   0  0  0  0  0  0  0  0  0  0  0  0
   16.3358    5.0041   -7.3961 H   0  0  0  0  0  0  0  0  0  0  0  0
   16.0873    3.2301   -7.5317 H   0  0  0  0  0  0  0  0  0  0  0  0
   14.0139    5.3966   -8.2726 H   0  0  0  0  0  0  0  0  0  0  0  0
   13.7533    3.6076   -8.3761 H   0  0  0  0  0  0  0  0  0  0  0  0
   14.9923    4.4048   -9.4162 H   0  0  0  0  0  0  0  0  0  0  0  0
   16.0739    2.2619   -2.5779 H   0  0  0  0  0  0  0  0  0  0  0  0
   16.9027    0.6529   -0.7082 H   0  0  0  0  0  0  0  0  0  0  0  0
  1  2  2  0
  2  3  1  0
  3  4  2  0
  4  5  1  0
  5  6  1  0
  6  7  1  0
  7  8  1  0
  8  9  1  0
  7 10  2  0
 10 11  1  0
 10 12  1  0
 12 13  1  0
  4 14  1  0
 14 15  2  0
 15 16  1  0
 16 17  1  0
 17 18  1  0
 18 19  1  0
 19 20  1  0
 20 21  1  0
 19 22  2  0
 22 23  1  0
 23 24  1  0
 22 25  1  0
 16 26  2  0
 26 27  1  0
 15 28  1  0
 28 29  2  0
 29 30  1  0
 29 31  1  0
 31 32  2  0
 32 33  1  0
 33 34  2  0
 34 35  1  0
 35 36  1  0
 36 37  1  0
 37 38  1  0
 38 39  1  0
 37 40  2  0
 40 41  1  0
 40 42  1  0
 42 43  1  0
 34 44  1  0
 44 45  2  0
 45 46  1  0
 46 47  1  0
 47 48  1  0
 48 49  1  0
 49 50  1  0
 50 51  1  0
 49 52  2  0
 52 53  1  0
 53 54  1  0
 52 55  1  0
 46 56  2  0
 56 57  1  0
 45 58  1  0
 58 59  2  0
 59 60  1  0
 59 61  1  0
 61 62  2  0
 62 63  1  0
 63 64  2  0
 64 65  1  0
 65 66  1  0
 66 67  1  0
 67 68  1  0
 68 69  1  0
 67 70  2  0
 70 71  1  0
 70 72  1  0
 72 73  1  0
 64 74  1  0
 74 75  2  0
 75 76  1  0
 76 77  1  0
 77 78  1  0
 78 79  1  0
 79 80  1  0
 80 81  1  0
 79 82  2  0
 82 83  1  0
 83 84  1  0
 82 85  1  0
 76 86  2  0
 86 87  1  0
 75 88  1  0
 88 89  2  0
 89 90  1  0
 89 91  1  0
 91 92  1  0
 92 93  1  0
 93 94  2  0
 94 95  1  0
 95 96  1  0
 96 97  1  0
 97 98  1  0
 98 99  1  0
 99100  1  0
 93101  1  0
101102  2  0
102103  1  0
103104  2  0
104105  1  0
105106  1  0
106107  1  0
107108  1  0
108109  1  0
107110  2  0
110111  1  0
110112  1  0
112113  1  0
104114  1  0
114115  2  0
115116  1  0
116117  1  0
117118  1  0
118119  1  0
119120  1  0
120121  1  0
119122  2  0
122123  1  0
123124  1  0
122125  1  0
116126  2  0
126127  1  0
115128  1  0
128129  2  0
129130  1  0
129131  1  0
131132  2  0
132133  1  0
133134  2  0
134135  1  0
135136  1  0
136137  1  0
137138  1  0
138139  1  0
137140  2  0
140141  1  0
140142  1  0
142143  1  0
134144  1  0
144145  2  0
145146  1  0
146147  1  0
147148  1  0
148149  1  0
149150  1  0
150151  1  0
149152  2  0
152153  1  0
153154  1  0
152155  1  0
146156  2  0
156157  1  0
145158  1  0
158159  2  0
159160  1  0
 27  1  1  0
 57 31  1  0
 87 61  1  0
 95 91  2  0
127101  1  0
157131  1  0
 26  3  1  0
 56 33  1  0
 86 63  1  0
100 94  1  0
126103  1  0
156133  1  0
 12  5  2  0
 30 14  1  0
 42 35  2  0
 60 44  1  0
 72 65  2  0
 90 74  1  0
112105  2  0
130114  1  0
142135  2  0
160144  1  0
 23 17  2  0
 53 47  2  0
 83 77  2  0
123117  2  0
153147  2  0
  1161  1  0
  2162  1  0
  8163  1  0
  8164  1  0
  9165  1  0
  9166  1  0
  9167  1  0
 20168  1  0
 20169  1  0
 21170  1  0
 21171  1  0
 21172  1  0
 28173  1  0
 32174  1  0
 38175  1  0
 38176  1  0
 39177  1  0
 39178  1  0
 39179  1  0
 50180  1  0
 50181  1  0
 51182  1  0
 51183  1  0
 51184  1  0
 58185  1  0
 62186  1  0
 68187  1  0
 68188  1  0
 69189  1  0
 69190  1  0
 69191  1  0
 80192  1  0
 80193  1  0
 81194  1  0
 81195  1  0
 81196  1  0
 88197  1  0
 97198  1  0
 97199  1  0
 98200  1  0
 98201  1  0
 99202  1  0
 99203  1  0
102204  1  0
108205  1  0
108206  1  0
109207  1  0
109208  1  0
109209  1  0
120210  1  0
120211  1  0
121212  1  0
121213  1  0
121214  1  0
128215  1  0
132216  1  0
138217  1  0
138218  1  0
139219  1  0
139220  1  0
139221  1  0
150222  1  0
150223  1  0
151224  1  0
151225  1  0
151226  1  0
158227  1  0
159228  1  0
M  END

