
     RDKit          3D

234257  0  0  0  0  0  0  0  0999 V2000
    2.6391   -7.5638    8.7351 C   0  0  0  0  0  0  0  0  0  0  0  0
    1.7485   -6.4974    8.7826 C   0  0  0  0  0  0  0  0  0  0  0  0
    0.6580   -6.6466    7.9088 C   0  0  0  0  0  0  0  0  0  0  0  0
   -0.3745   -5.7119    7.6873 C   0  0  0  0  0  0  0  0  0  0  0  0
   -0.4223   -4.4051    8.3826 C   0  0  0  0  0  0  0  0  0  0  0  0
   -0.3743   -3.2134    7.6425 C   0  0  0  0  0  0  0  0  0  0  0  0
   -0.4627   -1.9774    8.2856 C   0  0  0  0  0  0  0  0  0  0  0  0
   -0.5883   -1.9170    9.6774 C   0  0  0  0  0  0  0  0  0  0  0  0
   -0.7210   -0.3162   10.4819 S   0  0  0  0  0  0  0  0  0  0  0  0
    1.0840   -0.0862   10.6118 C   0  0  0  0  0  0  0  0  0  0  0  0
    1.3915    1.3414   11.0319 C   0  0  0  0  0  0  0  0  0  0  0  0
   -0.6332   -3.1028   10.4246 C   0  0  0  0  0  0  0  0  0  0  0  0
   -0.7718   -3.0571   11.7742 F   0  0  0  0  0  0  0  0  0  0  0  0
   -0.5549   -4.3423    9.7797 C   0  0  0  0  0  0  0  0  0  0  0  0
   -1.3182   -6.0407    6.6964 C   0  0  0  0  0  0  0  0  0  0  0  0
   -1.2470   -7.2084    5.9264 C   0  0  0  0  0  0  0  0  0  0  0  0
   -0.2238   -8.1507    6.1607 C   0  0  0  0  0  0  0  0  0  0  0  0
   -0.1061   -9.4010    5.3804 C   0  0  0  0  0  0  0  0  0  0  0  0
    0.1013   -9.3577    3.9934 C   0  0  0  0  0  0  0  0  0  0  0  0
    0.2552  -10.5427    3.2648 C   0  0  0  0  0  0  0  0  0  0  0  0
    0.2103  -11.7790    3.9177 C   0  0  0  0  0  0  0  0  0  0  0  0
    0.4645  -13.2917    2.9816 S   0  0  0  0  0  0  0  0  0  0  0  0
   -1.3111  -13.5382    2.6459 C   0  0  0  0  0  0  0  0  0  0  0  0
   -1.5101  -14.7956    1.8117 C   0  0  0  0  0  0  0  0  0  0  0  0
    0.0033  -11.8282    5.3026 C   0  0  0  0  0  0  0  0  0  0  0  0
   -0.1582  -10.6451    6.0290 C   0  0  0  0  0  0  0  0  0  0  0  0
   -0.0281  -13.0214    5.9509 F   0  0  0  0  0  0  0  0  0  0  0  0
    0.7077   -7.8351    7.1695 C   0  0  0  0  0  0  0  0  0  0  0  0
    2.0893   -8.6888    7.6048 S   0  0  0  0  0  0  0  0  0  0  0  0
   -2.2523   -7.2827    4.9424 C   0  0  0  0  0  0  0  0  0  0  0  0
   -3.1065   -6.1787    4.9536 C   0  0  0  0  0  0  0  0  0  0  0  0
   -2.6292   -5.1251    6.1811 S   0  0  0  0  0  0  0  0  0  0  0  0
   -4.0925   -5.8341    3.9221 C   0  0  0  0  0  0  0  0  0  0  0  0
   -4.9870   -4.7736    4.0272 C   0  0  0  0  0  0  0  0  0  0  0  0
   -5.5518   -4.3994    2.7966 C   0  0  0  0  0  0  0  0  0  0  0  0
   -6.3222   -3.2398    2.5681 C   0  0  0  0  0  0  0  0  0  0  0  0
   -6.6656   -2.3241    3.6758 C   0  0  0  0  0  0  0  0  0  0  0  0
   -7.5371   -2.7471    4.6901 C   0  0  0  0  0  0  0  0  0  0  0  0
   -7.7487   -1.9471    5.8155 C   0  0  0  0  0  0  0  0  0  0  0  0
   -7.0760   -0.7260    5.9443 C   0  0  0  0  0  0  0  0  0  0  0  0
   -7.2626    0.2350    7.4488 S   0  0  0  0  0  0  0  0  0  0  0  0
   -6.0025   -0.6967    8.3917 C   0  0  0  0  0  0  0  0  0  0  0  0
   -4.5941   -0.2086    8.0770 C   0  0  0  0  0  0  0  0  0  0  0  0
   -6.2451   -0.2757    4.9107 C   0  0  0  0  0  0  0  0  0  0  0  0
   -5.6112    0.9208    5.0066 F   0  0  0  0  0  0  0  0  0  0  0  0
   -6.0396   -1.0722    3.7812 C   0  0  0  0  0  0  0  0  0  0  0  0
   -6.5818   -2.9053    1.2284 C   0  0  0  0  0  0  0  0  0  0  0  0
   -6.1177   -3.6754    0.1583 C   0  0  0  0  0  0  0  0  0  0  0  0
   -5.3732   -4.8545    0.3877 C   0  0  0  0  0  0  0  0  0  0  0  0
   -4.7384   -5.5970   -0.7206 C   0  0  0  0  0  0  0  0  0  0  0  0
   -3.7132   -5.0031   -1.4726 C   0  0  0  0  0  0  0  0  0  0  0  0
   -3.1507   -5.6841   -2.5548 C   0  0  0  0  0  0  0  0  0  0  0  0
   -3.5950   -6.9673   -2.8883 C   0  0  0  0  0  0  0  0  0  0  0  0
   -2.8845   -7.8122   -4.3071 S   0  0  0  0  0  0  0  0  0  0  0  0
   -1.4357   -8.4740   -3.4064 C   0  0  0  0  0  0  0  0  0  0  0  0
   -1.8152   -9.7045   -2.5931 C   0  0  0  0  0  0  0  0  0  0  0  0
   -4.6121   -7.5677   -2.1330 C   0  0  0  0  0  0  0  0  0  0  0  0
   -5.1734   -6.8906   -1.0455 C   0  0  0  0  0  0  0  0  0  0  0  0
   -5.0700   -8.8062   -2.4546 F   0  0  0  0  0  0  0  0  0  0  0  0
   -5.1100   -5.1878    1.7275 C   0  0  0  0  0  0  0  0  0  0  0  0
   -4.0176   -6.3341    2.3104 S   0  0  0  0  0  0  0  0  0  0  0  0
   -6.3380   -3.0716   -1.0897 C   0  0  0  0  0  0  0  0  0  0  0  0
   -6.9128   -1.8001   -0.9972 C   0  0  0  0  0  0  0  0  0  0  0  0
   -7.2215   -1.4679    0.6320 S   0  0  0  0  0  0  0  0  0  0  0  0
   -6.7663   -0.7529   -2.0237 C   0  0  0  0  0  0  0  0  0  0  0  0
   -5.8015   -0.8025   -3.0300 C   0  0  0  0  0  0  0  0  0  0  0  0
   -5.4506    0.4607   -3.5249 C   0  0  0  0  0  0  0  0  0  0  0  0
   -4.3385    0.7374   -4.3431 C   0  0  0  0  0  0  0  0  0  0  0  0
   -3.4050   -0.3240   -4.7801 C   0  0  0  0  0  0  0  0  0  0  0  0
   -2.6289   -1.0124   -3.8353 C   0  0  0  0  0  0  0  0  0  0  0  0
   -1.7084   -1.9783   -4.2483 C   0  0  0  0  0  0  0  0  0  0  0  0
   -1.5403   -2.2532   -5.6096 C   0  0  0  0  0  0  0  0  0  0  0  0
   -0.3528   -3.5004   -6.1220 S   0  0  0  0  0  0  0  0  0  0  0  0
    1.0007   -2.3223   -6.4721 C   0  0  0  0  0  0  0  0  0  0  0  0
    1.6203   -1.7752   -5.1909 C   0  0  0  0  0  0  0  0  0  0  0  0
   -2.3195   -1.5738   -6.5579 C   0  0  0  0  0  0  0  0  0  0  0  0
   -2.1791   -1.8412   -7.8799 F   0  0  0  0  0  0  0  0  0  0  0  0
   -3.2428   -0.6095   -6.1438 C   0  0  0  0  0  0  0  0  0  0  0  0
   -4.0118    2.0893   -4.5251 C   0  0  0  0  0  0  0  0  0  0  0  0
   -4.7319    3.1370   -3.9358 C   0  0  0  0  0  0  0  0  0  0  0  0
   -5.8892    2.8610   -3.1764 C   0  0  0  0  0  0  0  0  0  0  0  0
   -6.6723    3.9224   -2.5079 C   0  0  0  0  0  0  0  0  0  0  0  0
   -8.0100    4.1418   -2.8717 C   0  0  0  0  0  0  0  0  0  0  0  0
   -8.7728    5.1077   -2.2064 C   0  0  0  0  0  0  0  0  0  0  0  0
   -8.2084    5.8604   -1.1715 C   0  0  0  0  0  0  0  0  0  0  0  0
   -9.2144    7.0426   -0.2650 S   0  0  0  0  0  0  0  0  0  0  0  0
   -8.7681    8.4871   -1.2991 C   0  0  0  0  0  0  0  0  0  0  0  0
   -9.8582    8.7718   -2.3239 C   0  0  0  0  0  0  0  0  0  0  0  0
   -6.8701    5.6499   -0.8092 C   0  0  0  0  0  0  0  0  0  0  0  0
   -6.1075    4.6825   -1.4718 C   0  0  0  0  0  0  0  0  0  0  0  0
   -6.3051    6.3730    0.1870 F   0  0  0  0  0  0  0  0  0  0  0  0
   -6.2066    1.5019   -2.9739 C   0  0  0  0  0  0  0  0  0  0  0  0
   -7.2474    0.8540   -1.8160 S   0  0  0  0  0  0  0  0  0  0  0  0
   -4.0855    4.3821   -4.0529 C   0  0  0  0  0  0  0  0  0  0  0  0
   -2.8420    4.2947   -4.6913 C   0  0  0  0  0  0  0  0  0  0  0  0
   -2.5869    2.6918   -5.1571 S   0  0  0  0  0  0  0  0  0  0  0  0
   -1.7414    5.2787   -4.6434 C   0  0  0  0  0  0  0  0  0  0  0  0
   -0.1408    4.8344   -4.8794 S   0  0  0  0  0  0  0  0  0  0  0  0
    0.5536    6.2756   -4.4216 C   0  0  0  0  0  0  0  0  0  0  0  0
   -0.4580    7.1712   -4.0830 C   0  0  0  0  0  0  0  0  0  0  0  0
   -1.7622    6.5993   -4.1830 C   0  0  0  0  0  0  0  0  0  0  0  0
   -2.9601    7.2216   -3.7958 O   0  0  0  0  0  0  0  0  0  0  0  0
   -3.1183    8.6062   -3.4935 C   0  0  0  0  0  0  0  0  0  0  0  0
   -2.5349    8.9842   -2.1208 C   0  0  0  0  0  0  0  0  0  0  0  0
   -1.0727    8.5646   -1.9133 C   0  0  0  0  0  0  0  0  0  0  0  0
   -0.0943    8.8113   -3.4353 S   0  0  0  0  0  0  0  0  0  0  0  0
    1.9903    6.4123   -4.1846 C   0  0  0  0  0  0  0  0  0  0  0  0
    2.8657    5.3114   -3.2704 S   0  0  0  0  0  0  0  0  0  0  0  0
    4.3892    5.8188   -3.7454 C   0  0  0  0  0  0  0  0  0  0  0  0
    4.2379    6.8855   -4.6406 C   0  0  0  0  0  0  0  0  0  0  0  0
    2.8776    7.1916   -4.9152 C   0  0  0  0  0  0  0  0  0  0  0  0
    2.4087    8.0855   -5.8889 O   0  0  0  0  0  0  0  0  0  0  0  0
    3.2093    8.9971   -6.6438 C   0  0  0  0  0  0  0  0  0  0  0  0
    4.1060    8.2886   -7.6778 C   0  0  0  0  0  0  0  0  0  0  0  0
    5.0699    7.2444   -7.1006 C   0  0  0  0  0  0  0  0  0  0  0  0
    5.6351    7.6985   -5.4268 S   0  0  0  0  0  0  0  0  0  0  0  0
    5.6134    5.0889   -3.3766 C   0  0  0  0  0  0  0  0  0  0  0  0
    6.6902    4.8054   -4.2165 C   0  0  0  0  0  0  0  0  0  0  0  0
    7.6035    3.8962   -3.6529 C   0  0  0  0  0  0  0  0  0  0  0  0
    8.7625    3.3749   -4.2694 C   0  0  0  0  0  0  0  0  0  0  0  0
    9.1220    3.7029   -5.6689 C   0  0  0  0  0  0  0  0  0  0  0  0
   10.3805    4.2456   -5.9731 C   0  0  0  0  0  0  0  0  0  0  0  0
   10.7139    4.5450   -7.2958 C   0  0  0  0  0  0  0  0  0  0  0  0
    9.7946    4.3143   -8.3263 C   0  0  0  0  0  0  0  0  0  0  0  0
   10.2330    4.7139  -10.0203 S   0  0  0  0  0  0  0  0  0  0  0  0
   10.7046    3.0077  -10.4746 C   0  0  0  0  0  0  0  0  0  0  0  0
   12.0930    2.6584   -9.9535 C   0  0  0  0  0  0  0  0  0  0  0  0
    8.5306    3.7898   -8.0251 C   0  0  0  0  0  0  0  0  0  0  0  0
    7.6192    3.5760   -9.0088 F   0  0  0  0  0  0  0  0  0  0  0  0
    8.2067    3.4672   -6.7059 C   0  0  0  0  0  0  0  0  0  0  0  0
    9.5341    2.4779   -3.5026 C   0  0  0  0  0  0  0  0  0  0  0  0
    9.1719    2.0747   -2.2131 C   0  0  0  0  0  0  0  0  0  0  0  0
    7.9975    2.5719   -1.6210 C   0  0  0  0  0  0  0  0  0  0  0  0
    7.5338    2.1114   -0.3027 C   0  0  0  0  0  0  0  0  0  0  0  0
    7.9589    2.7605    0.8621 C   0  0  0  0  0  0  0  0  0  0  0  0
    7.5037    2.3262    2.1102 C   0  0  0  0  0  0  0  0  0  0  0  0
    6.6221    1.2428    2.1977 C   0  0  0  0  0  0  0  0  0  0  0  0
    6.0847    0.6577    3.8052 S   0  0  0  0  0  0  0  0  0  0  0  0
    7.4544   -0.5369    3.9420 C   0  0  0  0  0  0  0  0  0  0  0  0
    7.3425   -1.3149    5.2418 C   0  0  0  0  0  0  0  0  0  0  0  0
    6.1802    0.6038    1.0311 C   0  0  0  0  0  0  0  0  0  0  0  0
    6.6376    1.0387   -0.2158 C   0  0  0  0  0  0  0  0  0  0  0  0
    5.3156   -0.4388    1.1019 F   0  0  0  0  0  0  0  0  0  0  0  0
    7.2425    3.4903   -2.3667 C   0  0  0  0  0  0  0  0  0  0  0  0
    5.7878    4.2118   -1.9404 S   0  0  0  0  0  0  0  0  0  0  0  0
   10.0591    1.1439   -1.6479 C   0  0  0  0  0  0  0  0  0  0  0  0
   11.1174    0.8158   -2.4905 C   0  0  0  0  0  0  0  0  0  0  0  0
   10.9452    1.6691   -3.9370 S   0  0  0  0  0  0  0  0  0  0  0  0
    3.5527   -7.6419    9.3118 H   0  0  0  0  0  0  0  0  0  0  0  0
    1.9058   -5.6341    9.4132 H   0  0  0  0  0  0  0  0  0  0  0  0
   -0.2700   -3.2387    6.5659 H   0  0  0  0  0  0  0  0  0  0  0  0
   -0.4311   -1.0677    7.7000 H   0  0  0  0  0  0  0  0  0  0  0  0
    1.4926   -0.7902   11.3644 H   0  0  0  0  0  0  0  0  0  0  0  0
    1.5711   -0.2834    9.6340 H   0  0  0  0  0  0  0  0  0  0  0  0
    0.9667    1.5447   12.0372 H   0  0  0  0  0  0  0  0  0  0  0  0
    0.9595    2.0548   10.2992 H   0  0  0  0  0  0  0  0  0  0  0  0
    2.4930    1.4916   11.0699 H   0  0  0  0  0  0  0  0  0  0  0  0
   -0.6095   -5.2514   10.3632 H   0  0  0  0  0  0  0  0  0  0  0  0
    0.1621   -8.4059    3.4798 H   0  0  0  0  0  0  0  0  0  0  0  0
    0.4209  -10.4963    2.1958 H   0  0  0  0  0  0  0  0  0  0  0  0
   -1.8664  -13.6437    3.6023 H   0  0  0  0  0  0  0  0  0  0  0  0
   -1.7104  -12.6656    2.0885 H   0  0  0  0  0  0  0  0  0  0  0  0
   -2.5898  -14.9267    1.5814 H   0  0  0  0  0  0  0  0  0  0  0  0
   -1.1550  -15.6858    2.3731 H   0  0  0  0  0  0  0  0  0  0  0  0
   -0.9492  -14.7130    0.8559 H   0  0  0  0  0  0  0  0  0  0  0  0
   -0.3114  -10.6969    7.0996 H   0  0  0  0  0  0  0  0  0  0  0  0
   -2.3433   -8.0819    4.2255 H   0  0  0  0  0  0  0  0  0  0  0  0
   -5.1407   -4.2249    4.9466 H   0  0  0  0  0  0  0  0  0  0  0  0
   -8.0246   -3.7132    4.6238 H   0  0  0  0  0  0  0  0  0  0  0  0
   -8.4093   -2.2925    6.6010 H   0  0  0  0  0  0  0  0  0  0  0  0
   -6.1973   -0.5446    9.4724 H   0  0  0  0  0  0  0  0  0  0  0  0
   -6.0786   -1.7852    8.1870 H   0  0  0  0  0  0  0  0  0  0  0  0
   -3.8577   -0.7625    8.6970 H   0  0  0  0  0  0  0  0  0  0  0  0
   -4.3507   -0.3833    7.0103 H   0  0  0  0  0  0  0  0  0  0  0  0
   -4.5059    0.8738    8.3009 H   0  0  0  0  0  0  0  0  0  0  0  0
   -5.3587   -0.7377    3.0089 H   0  0  0  0  0  0  0  0  0  0  0  0
   -3.3566   -4.0090   -1.2270 H   0  0  0  0  0  0  0  0  0  0  0  0
   -2.3695   -5.2103   -3.1359 H   0  0  0  0  0  0  0  0  0  0  0  0
   -0.9939   -7.7002   -2.7446 H   0  0  0  0  0  0  0  0  0  0  0  0
   -0.6737   -8.7645   -4.1604 H   0  0  0  0  0  0  0  0  0  0  0  0
   -0.9066  -10.1441   -2.1348 H   0  0  0  0  0  0  0  0  0  0  0  0
   -2.5190   -9.4307   -1.7802 H   0  0  0  0  0  0  0  0  0  0  0  0
   -2.2885  -10.4646   -3.2520 H   0  0  0  0  0  0  0  0  0  0  0  0
   -5.9563   -7.3610   -0.4662 H   0  0  0  0  0  0  0  0  0  0  0  0
   -5.9840   -3.4953   -2.0207 H   0  0  0  0  0  0  0  0  0  0  0  0
   -5.2603   -1.7023   -3.2900 H   0  0  0  0  0  0  0  0  0  0  0  0
   -2.7336   -0.7936   -2.7785 H   0  0  0  0  0  0  0  0  0  0  0  0
   -1.1203   -2.5057   -3.5064 H   0  0  0  0  0  0  0  0  0  0  0  0
    1.7838   -2.8696   -7.0392 H   0  0  0  0  0  0  0  0  0  0  0  0
    0.6349   -1.4863   -7.1059 H   0  0  0  0  0  0  0  0  0  0  0  0
    0.9142   -1.0836   -4.6854 H   0  0  0  0  0  0  0  0  0  0  0  0
    2.5408   -1.2063   -5.4408 H   0  0  0  0  0  0  0  0  0  0  0  0
    1.8853   -2.6034   -4.5012 H   0  0  0  0  0  0  0  0  0  0  0  0
   -3.8376   -0.0841   -6.8812 H   0  0  0  0  0  0  0  0  0  0  0  0
   -8.4601    3.5643   -3.6697 H   0  0  0  0  0  0  0  0  0  0  0  0
   -9.8054    5.2655   -2.4941 H   0  0  0  0  0  0  0  0  0  0  0  0
   -8.6624    9.3661   -0.6324 H   0  0  0  0  0  0  0  0  0  0  0  0
   -7.7954    8.3433   -1.8153 H   0  0  0  0  0  0  0  0  0  0  0  0
   -9.6286    9.7181   -2.8550 H   0  0  0  0  0  0  0  0  0  0  0  0
  -10.8420    8.8761   -1.8220 H   0  0  0  0  0  0  0  0  0  0  0  0
   -9.9116    7.9501   -3.0688 H   0  0  0  0  0  0  0  0  0  0  0  0
   -5.0805    4.5156   -1.1686 H   0  0  0  0  0  0  0  0  0  0  0  0
   -4.4606    5.2850   -3.5993 H   0  0  0  0  0  0  0  0  0  0  0  0
   -4.2057    8.8324   -3.4788 H   0  0  0  0  0  0  0  0  0  0  0  0
   -2.6780    9.2235   -4.3048 H   0  0  0  0  0  0  0  0  0  0  0  0
   -3.1574    8.5386   -1.3197 H   0  0  0  0  0  0  0  0  0  0  0  0
   -2.6042   10.0875   -2.0172 H   0  0  0  0  0  0  0  0  0  0  0  0
   -0.6342    9.1966   -1.1133 H   0  0  0  0  0  0  0  0  0  0  0  0
   -1.0188    7.5097   -1.5683 H   0  0  0  0  0  0  0  0  0  0  0  0
    3.8059    9.6414   -5.9635 H   0  0  0  0  0  0  0  0  0  0  0  0
    2.5238    9.6744   -7.1946 H   0  0  0  0  0  0  0  0  0  0  0  0
    4.7022    9.0694   -8.1954 H   0  0  0  0  0  0  0  0  0  0  0  0
    3.4689    7.8082   -8.4495 H   0  0  0  0  0  0  0  0  0  0  0  0
    5.9644    7.1671   -7.7609 H   0  0  0  0  0  0  0  0  0  0  0  0
    4.5970    6.2358   -7.1010 H   0  0  0  0  0  0  0  0  0  0  0  0
    6.7764    5.1908   -5.2213 H   0  0  0  0  0  0  0  0  0  0  0  0
   11.0943    4.4444   -5.1856 H   0  0  0  0  0  0  0  0  0  0  0  0
   11.6916    4.9561   -7.5199 H   0  0  0  0  0  0  0  0  0  0  0  0
    9.9595    2.2775  -10.0891 H   0  0  0  0  0  0  0  0  0  0  0  0
   10.7109    2.9358  -11.5814 H   0  0  0  0  0  0  0  0  0  0  0  0
   12.8318    3.4062  -10.3073 H   0  0  0  0  0  0  0  0  0  0  0  0
   12.3894    1.6574  -10.3316 H   0  0  0  0  0  0  0  0  0  0  0  0
   12.1011    2.6252   -8.8444 H   0  0  0  0  0  0  0  0  0  0  0  0
    7.2337    3.0379   -6.4925 H   0  0  0  0  0  0  0  0  0  0  0  0
    8.6465    3.5962    0.8015 H   0  0  0  0  0  0  0  0  0  0  0  0
    7.8442    2.8286    3.0072 H   0  0  0  0  0  0  0  0  0  0  0  0
    8.4238    0.0038    3.9216 H   0  0  0  0  0  0  0  0  0  0  0  0
    7.4193   -1.2467    3.0882 H   0  0  0  0  0  0  0  0  0  0  0  0
    7.4285   -0.6260    6.1082 H   0  0  0  0  0  0  0  0  0  0  0  0
    6.3692   -1.8477    5.2876 H   0  0  0  0  0  0  0  0  0  0  0  0
    8.1609   -2.0629    5.2963 H   0  0  0  0  0  0  0  0  0  0  0  0
    6.2988    0.5368   -1.1129 H   0  0  0  0  0  0  0  0  0  0  0  0
    9.9430    0.7177   -0.6597 H   0  0  0  0  0  0  0  0  0  0  0  0
   11.9150    0.1230   -2.2589 H   0  0  0  0  0  0  0  0  0  0  0  0
  1  2  2  0
  2  3  1  0
  3  4  2  0
  4  5  1  0
  5  6  2  0
  6  7  1  0
  7  8  2  0
  8  9  1  0
  9 10  1  0
 10 11  1  0
  8 12  1  0
 12 13  1  0
 12 14  2  0
  4 15  1  0
 15 16  2  0
 16 17  1  0
 17 18  1  0
 18 19  2  0
 19 20  1  0
 20 21  2  0
 21 22  1  0
 22 23  1  0
 23 24  1  0
 21 25  1  0
 25 26  2  0
 25 27  1  0
 17 28  2  0
 28 29  1  0
 16 30  1  0
 30 31  2  0
 31 32  1  0
 31 33  1  0
 33 34  2  0
 34 35  1  0
 35 36  2  0
 36 37  1  0
 37 38  2  0
 38 39  1  0
 39 40  2  0
 40 41  1  0
 41 42  1  0
 42 43  1  0
 40 44  1  0
 44 45  1  0
 44 46  2  0
 36 47  1  0
 47 48  2  0
 48 49  1  0
 49 50  1  0
 50 51  2  0
 51 52  1  0
 52 53  2  0
 53 54  1  0
 54 55  1  0
 55 56  1  0
 53 57  1  0
 57 58  2  0
 57 59  1  0
 49 60  2  0
 60 61  1  0
 48 62  1  0
 62 63  2  0
 63 64  1  0
 63 65  1  0
 65 66  2  0
 66 67  1  0
 67 68  2  0
 68 69  1  0
 69 70  2  0
 70 71  1  0
 71 72  2  0
 72 73  1  0
 73 74  1  0
 74 75  1  0
 72 76  1  0
 76 77  1  0
 76 78  2  0
 68 79  1  0
 79 80  2  0
 80 81  1  0
 81 82  1  0
 82 83  2  0
 83 84  1  0
 84 85  2  0
 85 86  1  0
 86 87  1  0
 87 88  1  0
 85 89  1  0
 89 90  2  0
 89 91  1  0
 81 92  2  0
 92 93  1  0
 80 94  1  0
 94 95  2  0
 95 96  1  0
 95 97  1  0
 97 98  1  0
 98 99  1  0
 99100  2  0
100101  1  0
101102  1  0
102103  1  0
103104  1  0
104105  1  0
105106  1  0
 99107  1  0
107108  1  0
108109  1  0
109110  2  0
110111  1  0
111112  1  0
112113  1  0
113114  1  0
114115  1  0
115116  1  0
109117  1  0
117118  2  0
118119  1  0
119120  2  0
120121  1  0
121122  2  0
122123  1  0
123124  2  0
124125  1  0
125126  1  0
126127  1  0
124128  1  0
128129  1  0
128130  2  0
120131  1  0
131132  2  0
132133  1  0
133134  1  0
134135  2  0
135136  1  0
136137  2  0
137138  1  0
138139  1  0
139140  1  0
137141  1  0
141142  2  0
141143  1  0
133144  2  0
144145  1  0
132146  1  0
146147  2  0
147148  1  0
 29  1  1  0
 61 33  1  0
 93 65  1  0
101 97  2  0
111107  2  0
145117  1  0
 28  3  1  0
 60 35  1  0
 92 67  1  0
106100  1  0
116110  1  0
144119  1  0
 14  5  1  0
 32 15  1  0
 46 37  1  0
 64 47  1  0
 78 69  1  0
 96 79  1  0
130121  1  0
148131  1  0
 26 18  1  0
 58 50  1  0
 90 82  1  0
142134  1  0
  1149  1  0
  2150  1  0
  6151  1  0
  7152  1  0
 10153  1  0
 10154  1  0
 11155  1  0
 11156  1  0
 11157  1  0
 14158  1  0
 19159  1  0
 20160  1  0
 23161  1  0
 23162  1  0
 24163  1  0
 24164  1  0
 24165  1  0
 26166  1  0
 30167  1  0
 34168  1  0
 38169  1  0
 39170  1  0
 42171  1  0
 42172  1  0
 43173  1  0
 43174  1  0
 43175  1  0
 46176  1  0
 51177  1  0
 52178  1  0
 55179  1  0
 55180  1  0
 56181  1  0
 56182  1  0
 56183  1  0
 58184  1  0
 62185  1  0
 66186  1  0
 70187  1  0
 71188  1  0
 74189  1  0
 74190  1  0
 75191  1  0
 75192  1  0
 75193  1  0
 78194  1  0
 83195  1  0
 84196  1  0
 87197  1  0
 87198  1  0
 88199  1  0
 88200  1  0
 88201  1  0
 90202  1  0
 94203  1  0
103204  1  0
103205  1  0
104206  1  0
104207  1  0
105208  1  0
105209  1  0
113210  1  0
113211  1  0
114212  1  0
114213  1  0
115214  1  0
115215  1  0
118216  1  0
122217  1  0
123218  1  0
126219  1  0
126220  1  0
127221  1  0
127222  1  0
127223  1  0
130224  1  0
135225  1  0
136226  1  0
139227  1  0
139228  1  0
140229  1  0
140230  1  0
140231  1  0
142232  1  0
146233  1  0
147234  1  0
M  END

