
     RDKit          3D

164181  0  0  0  0  0  0  0  0999 V2000
   -2.2892   10.0714   11.6096 C   0  0  0  0  0  0  0  0  0  0  0  0
   -2.8207    8.4424   11.6952 S   0  0  0  0  0  0  0  0  0  0  0  0
   -1.9144    8.0012   10.3614 C   0  0  0  0  0  0  0  0  0  0  0  0
   -1.6565    6.9427    9.5376 C   0  0  0  0  0  0  0  0  0  0  0  0
   -0.8326    7.4095    8.5686 C   0  0  0  0  0  0  0  0  0  0  0  0
   -0.5302    8.7232    8.7370 N   0  0  0  0  0  0  0  0  0  0  0  0
    0.2404    9.5987    7.8573 C   0  0  0  0  0  0  0  0  0  0  0  0
   -0.6761   10.2625    6.8368 C   0  0  0  0  0  0  0  0  0  0  0  0
   -1.2310    9.0547    9.8520 C   0  0  0  0  0  0  0  0  0  0  0  0
   -1.4148   10.2551   10.5253 C   0  0  0  0  0  0  0  0  0  0  0  0
   -0.4929    6.4832    7.5905 C   0  0  0  0  0  0  0  0  0  0  0  0
   -1.1015    5.2419    7.8674 C   0  0  0  0  0  0  0  0  0  0  0  0
   -2.0547    5.3363    9.2953 S   0  0  0  0  0  0  0  0  0  0  0  0
   -0.9347    4.0184    7.0658 C   0  0  0  0  0  0  0  0  0  0  0  0
   -1.5134    2.4704    7.5414 S   0  0  0  0  0  0  0  0  0  0  0  0
   -0.8814    1.7357    6.1813 C   0  0  0  0  0  0  0  0  0  0  0  0
   -0.7395    0.5162    5.5856 C   0  0  0  0  0  0  0  0  0  0  0  0
   -0.0332    0.7270    4.4491 C   0  0  0  0  0  0  0  0  0  0  0  0
    0.3072    2.0340    4.2883 N   0  0  0  0  0  0  0  0  0  0  0  0
    1.0169    2.6599    3.1750 C   0  0  0  0  0  0  0  0  0  0  0  0
    0.0380    3.0307    2.0677 C   0  0  0  0  0  0  0  0  0  0  0  0
   -0.2447    2.6247    5.3795 C   0  0  0  0  0  0  0  0  0  0  0  0
   -0.2464    3.9365    5.8370 C   0  0  0  0  0  0  0  0  0  0  0  0
    0.2445   -0.4157    3.7099 C   0  0  0  0  0  0  0  0  0  0  0  0
   -0.2831   -1.5517    4.3575 C   0  0  0  0  0  0  0  0  0  0  0  0
   -1.0837   -1.1034    5.8116 S   0  0  0  0  0  0  0  0  0  0  0  0
   -0.1347   -2.9384    3.8741 C   0  0  0  0  0  0  0  0  0  0  0  0
    0.4772   -3.3768    2.3592 S   0  0  0  0  0  0  0  0  0  0  0  0
    0.3595   -5.0385    2.5939 C   0  0  0  0  0  0  0  0  0  0  0  0
   -0.1763   -5.2778    3.8644 C   0  0  0  0  0  0  0  0  0  0  0  0
   -0.4482   -4.1028    4.5820 C   0  0  0  0  0  0  0  0  0  0  0  0
   -0.9570   -4.1020    5.8411 F   0  0  0  0  0  0  0  0  0  0  0  0
   -0.3962   -6.5921    4.3100 C   0  0  0  0  0  0  0  0  0  0  0  0
   -0.9068   -6.8420    5.5867 O   0  0  0  0  0  0  0  0  0  0  0  0
   -0.1359   -7.4952    6.5931 C   0  0  0  0  0  0  0  0  0  0  0  0
   -0.9882   -7.7003    7.8330 C   0  0  0  0  0  0  0  0  0  0  0  0
   -0.1064   -7.6306    3.4097 C   0  0  0  0  0  0  0  0  0  0  0  0
    0.4140   -7.3916    2.1348 C   0  0  0  0  0  0  0  0  0  0  0  0
    0.6760   -6.0808    1.7024 C   0  0  0  0  0  0  0  0  0  0  0  0
    1.1919   -5.8484    0.4220 O   0  0  0  0  0  0  0  0  0  0  0  0
    2.4570   -5.2285    0.1883 C   0  0  0  0  0  0  0  0  0  0  0  0
    3.5895   -6.1030    0.7139 C   0  0  0  0  0  0  0  0  0  0  0  0
    0.6043   -8.5630    1.3897 C   0  0  0  0  0  0  0  0  0  0  0  0
    1.1654   -8.5777    0.1551 F   0  0  0  0  0  0  0  0  0  0  0  0
    0.1679   -9.7133    2.0545 C   0  0  0  0  0  0  0  0  0  0  0  0
   -0.3754   -9.2817    3.5943 S   0  0  0  0  0  0  0  0  0  0  0  0
    0.1182  -11.0900    1.5229 C   0  0  0  0  0  0  0  0  0  0  0  0
   -0.2909  -11.4190    0.2866 C   0  0  0  0  0  0  0  0  0  0  0  0
   -0.8490  -10.4617   -0.6833 C   0  0  0  0  0  0  0  0  0  0  0  0
   -0.2978  -10.3056   -2.2704 S   0  0  0  0  0  0  0  0  0  0  0  0
   -1.1717   -8.9077   -2.6041 C   0  0  0  0  0  0  0  0  0  0  0  0
   -1.9243   -8.5537   -1.4822 C   0  0  0  0  0  0  0  0  0  0  0  0
   -1.7684   -9.4456   -0.4151 C   0  0  0  0  0  0  0  0  0  0  0  0
   -2.4058   -9.3089    0.7754 F   0  0  0  0  0  0  0  0  0  0  0  0
   -2.6687   -7.3636   -1.4640 C   0  0  0  0  0  0  0  0  0  0  0  0
   -3.3824   -6.9913   -0.3181 O   0  0  0  0  0  0  0  0  0  0  0  0
   -4.7942   -6.7942   -0.3041 C   0  0  0  0  0  0  0  0  0  0  0  0
   -5.5177   -8.1242   -0.4745 C   0  0  0  0  0  0  0  0  0  0  0  0
   -2.6061   -6.5552   -2.6119 C   0  0  0  0  0  0  0  0  0  0  0  0
   -1.8458   -6.9039   -3.7366 C   0  0  0  0  0  0  0  0  0  0  0  0
   -1.0917   -8.0953   -3.7430 C   0  0  0  0  0  0  0  0  0  0  0  0
   -0.2456   -8.4385   -4.8019 O   0  0  0  0  0  0  0  0  0  0  0  0
    1.0032   -7.7819   -5.0157 C   0  0  0  0  0  0  0  0  0  0  0  0
    2.0578   -8.2908   -4.0399 C   0  0  0  0  0  0  0  0  0  0  0  0
   -1.8673   -5.9223   -4.7392 C   0  0  0  0  0  0  0  0  0  0  0  0
   -1.2843   -6.0837   -5.9515 F   0  0  0  0  0  0  0  0  0  0  0  0
   -2.5733   -4.7722   -4.3669 C   0  0  0  0  0  0  0  0  0  0  0  0
   -3.2262   -5.0110   -2.8297 S   0  0  0  0  0  0  0  0  0  0  0  0
   -2.6100   -3.4628   -5.0430 C   0  0  0  0  0  0  0  0  0  0  0  0
   -1.6941   -3.0814   -5.9417 C   0  0  0  0  0  0  0  0  0  0  0  0
   -1.5522   -1.6794   -6.3709 C   0  0  0  0  0  0  0  0  0  0  0  0
   -2.4059   -0.3550   -5.7531 S   0  0  0  0  0  0  0  0  0  0  0  0
   -1.4935    0.8194   -6.5355 C   0  0  0  0  0  0  0  0  0  0  0  0
   -0.4905    0.1917   -7.2807 C   0  0  0  0  0  0  0  0  0  0  0  0
   -0.5325   -1.2079   -7.1964 C   0  0  0  0  0  0  0  0  0  0  0  0
    0.3846   -2.0235   -7.7772 F   0  0  0  0  0  0  0  0  0  0  0  0
    0.4935    0.9492   -7.9382 C   0  0  0  0  0  0  0  0  0  0  0  0
    1.4838    0.3186   -8.6971 O   0  0  0  0  0  0  0  0  0  0  0  0
    2.8658    0.3783   -8.3572 C   0  0  0  0  0  0  0  0  0  0  0  0
    3.6499   -0.5553   -9.2680 C   0  0  0  0  0  0  0  0  0  0  0  0
    0.4258    2.3465   -7.7962 C   0  0  0  0  0  0  0  0  0  0  0  0
   -0.5675    2.9721   -7.0337 C   0  0  0  0  0  0  0  0  0  0  0  0
   -1.5669    2.2167   -6.3986 C   0  0  0  0  0  0  0  0  0  0  0  0
   -2.5579    2.8444   -5.6377 O   0  0  0  0  0  0  0  0  0  0  0  0
   -3.9459    2.7149   -5.9268 C   0  0  0  0  0  0  0  0  0  0  0  0
   -4.7482    3.5664   -4.9560 C   0  0  0  0  0  0  0  0  0  0  0  0
   -0.4472    4.3669   -7.0039 C   0  0  0  0  0  0  0  0  0  0  0  0
   -1.3151    5.1842   -6.3541 F   0  0  0  0  0  0  0  0  0  0  0  0
    0.6459    4.8341   -7.7342 C   0  0  0  0  0  0  0  0  0  0  0  0
    1.4302    3.5257   -8.4566 S   0  0  0  0  0  0  0  0  0  0  0  0
    1.0594    6.2377   -7.8876 C   0  0  0  0  0  0  0  0  0  0  0  0
    1.1605    7.1123   -6.8756 C   0  0  0  0  0  0  0  0  0  0  0  0
    1.0868    6.7629   -5.4421 C   0  0  0  0  0  0  0  0  0  0  0  0
    0.6349    7.8826   -4.2275 S   0  0  0  0  0  0  0  0  0  0  0  0
    0.9156    6.7867   -2.9971 C   0  0  0  0  0  0  0  0  0  0  0  0
    1.1624    6.7892   -1.6540 C   0  0  0  0  0  0  0  0  0  0  0  0
    1.8056    5.6241   -1.3832 C   0  0  0  0  0  0  0  0  0  0  0  0
    1.9739    4.8595   -2.4944 N   0  0  0  0  0  0  0  0  0  0  0  0
    2.8472    3.6980   -2.6521 C   0  0  0  0  0  0  0  0  0  0  0  0
    4.2793    4.1398   -2.9380 C   0  0  0  0  0  0  0  0  0  0  0  0
    1.4200    5.6193   -3.4752 C   0  0  0  0  0  0  0  0  0  0  0  0
    1.5500    5.5670   -4.8575 C   0  0  0  0  0  0  0  0  0  0  0  0
    2.4091    5.5715   -0.1306 C   0  0  0  0  0  0  0  0  0  0  0  0
    2.1922    6.7689    0.5700 C   0  0  0  0  0  0  0  0  0  0  0  0
    1.3223    7.8828   -0.3989 S   0  0  0  0  0  0  0  0  0  0  0  0
   -2.5960   10.8535   12.2902 H   0  0  0  0  0  0  0  0  0  0  0  0
    0.7543   10.3786    8.4605 H   0  0  0  0  0  0  0  0  0  0  0  0
    1.0197    9.0089    7.3293 H   0  0  0  0  0  0  0  0  0  0  0  0
   -0.0759   10.9123    6.1650 H   0  0  0  0  0  0  0  0  0  0  0  0
   -1.1906    9.4898    6.2274 H   0  0  0  0  0  0  0  0  0  0  0  0
   -1.4334   10.8859    7.3571 H   0  0  0  0  0  0  0  0  0  0  0  0
   -0.9611   11.1975   10.2509 H   0  0  0  0  0  0  0  0  0  0  0  0
    0.1514    6.6935    6.7474 H   0  0  0  0  0  0  0  0  0  0  0  0
    1.5416    3.5735    3.5273 H   0  0  0  0  0  0  0  0  0  0  0  0
    1.7834    1.9617    2.7761 H   0  0  0  0  0  0  0  0  0  0  0  0
    0.5812    3.5346    1.2412 H   0  0  0  0  0  0  0  0  0  0  0  0
   -0.4517    2.1168    1.6707 H   0  0  0  0  0  0  0  0  0  0  0  0
   -0.7400    3.7190    2.4615 H   0  0  0  0  0  0  0  0  0  0  0  0
    0.2279    4.7653    5.3286 H   0  0  0  0  0  0  0  0  0  0  0  0
    0.8129   -0.4299    2.7880 H   0  0  0  0  0  0  0  0  0  0  0  0
    0.7449   -6.8695    6.8498 H   0  0  0  0  0  0  0  0  0  0  0  0
    0.2220   -8.4815    6.2318 H   0  0  0  0  0  0  0  0  0  0  0  0
   -1.8696   -8.3302    7.5856 H   0  0  0  0  0  0  0  0  0  0  0  0
   -1.3379   -6.7194    8.2203 H   0  0  0  0  0  0  0  0  0  0  0  0
   -0.3906   -8.2067    8.6202 H   0  0  0  0  0  0  0  0  0  0  0  0
    2.5866   -5.0974   -0.9068 H   0  0  0  0  0  0  0  0  0  0  0  0
    2.5011   -4.2275    0.6627 H   0  0  0  0  0  0  0  0  0  0  0  0
    3.5034   -6.2238    1.8150 H   0  0  0  0  0  0  0  0  0  0  0  0
    4.5676   -5.6293    0.4825 H   0  0  0  0  0  0  0  0  0  0  0  0
    3.5516   -7.1047    0.2337 H   0  0  0  0  0  0  0  0  0  0  0  0
    0.4151  -11.8895    2.1898 H   0  0  0  0  0  0  0  0  0  0  0  0
   -0.1886  -12.4502   -0.0314 H   0  0  0  0  0  0  0  0  0  0  0  0
   -5.1074   -6.0938   -1.1058 H   0  0  0  0  0  0  0  0  0  0  0  0
   -5.0792   -6.3557    0.6730 H   0  0  0  0  0  0  0  0  0  0  0  0
   -5.2169   -8.8232    0.3351 H   0  0  0  0  0  0  0  0  0  0  0  0
   -6.6152   -7.9622   -0.4243 H   0  0  0  0  0  0  0  0  0  0  0  0
   -5.2672   -8.5781   -1.4572 H   0  0  0  0  0  0  0  0  0  0  0  0
    0.8986   -6.6831   -4.9025 H   0  0  0  0  0  0  0  0  0  0  0  0
    1.3425   -7.9930   -6.0526 H   0  0  0  0  0  0  0  0  0  0  0  0
    3.0314   -7.8017   -4.2484 H   0  0  0  0  0  0  0  0  0  0  0  0
    2.1760   -9.3894   -4.1441 H   0  0  0  0  0  0  0  0  0  0  0  0
    1.7625   -8.0536   -2.9937 H   0  0  0  0  0  0  0  0  0  0  0  0
   -3.3207   -2.7402   -4.6628 H   0  0  0  0  0  0  0  0  0  0  0  0
   -0.9466   -3.7781   -6.2888 H   0  0  0  0  0  0  0  0  0  0  0  0
    3.0048    0.0568   -7.2995 H   0  0  0  0  0  0  0  0  0  0  0  0
    3.2526    1.4123   -8.4721 H   0  0  0  0  0  0  0  0  0  0  0  0
    3.4951   -0.2692  -10.3285 H   0  0  0  0  0  0  0  0  0  0  0  0
    3.3064   -1.5996   -9.1164 H   0  0  0  0  0  0  0  0  0  0  0  0
    4.7314   -0.4939   -9.0273 H   0  0  0  0  0  0  0  0  0  0  0  0
   -4.2736    1.6591   -5.8309 H   0  0  0  0  0  0  0  0  0  0  0  0
   -4.1425    3.0580   -6.9661 H   0  0  0  0  0  0  0  0  0  0  0  0
   -4.5730    3.2219   -3.9160 H   0  0  0  0  0  0  0  0  0  0  0  0
   -4.4414    4.6314   -5.0457 H   0  0  0  0  0  0  0  0  0  0  0  0
   -5.8306    3.4822   -5.1900 H   0  0  0  0  0  0  0  0  0  0  0  0
    1.2725    6.5857   -8.8908 H   0  0  0  0  0  0  0  0  0  0  0  0
    1.3518    8.1504   -7.1196 H   0  0  0  0  0  0  0  0  0  0  0  0
    2.4800    3.0639   -3.4864 H   0  0  0  0  0  0  0  0  0  0  0  0
    2.8268    3.0841   -1.7249 H   0  0  0  0  0  0  0  0  0  0  0  0
    4.9321    3.2493   -3.0405 H   0  0  0  0  0  0  0  0  0  0  0  0
    4.3173    4.7235   -3.8818 H   0  0  0  0  0  0  0  0  0  0  0  0
    4.6576    4.7687   -2.1061 H   0  0  0  0  0  0  0  0  0  0  0  0
    2.0320    4.7584   -5.3891 H   0  0  0  0  0  0  0  0  0  0  0  0
    3.0230    4.7554    0.2286 H   0  0  0  0  0  0  0  0  0  0  0  0
    2.5869    6.9854    1.5531 H   0  0  0  0  0  0  0  0  0  0  0  0
  1  2  1  0
  2  3  1  0
  3  4  1  0
  4  5  2  0
  5  6  1  0
  6  7  1  0
  7  8  1  0
  6  9  1  0
  9 10  1  0
  5 11  1  0
 11 12  2  0
 12 13  1  0
 12 14  1  0
 14 15  1  0
 15 16  1  0
 16 17  1  0
 17 18  2  0
 18 19  1  0
 19 20  1  0
 20 21  1  0
 19 22  1  0
 22 23  1  0
 18 24  1  0
 24 25  2  0
 25 26  1  0
 25 27  1  0
 27 28  1  0
 28 29  1  0
 29 30  2  0
 30 31  1  0
 31 32  1  0
 30 33  1  0
 33 34  1  0
 34 35  1  0
 35 36  1  0
 33 37  2  0
 37 38  1  0
 38 39  2  0
 39 40  1  0
 40 41  1  0
 41 42  1  0
 38 43  1  0
 43 44  1  0
 43 45  2  0
 45 46  1  0
 45 47  1  0
 47 48  2  3
 48 49  1  0
 49 50  1  0
 50 51  1  0
 51 52  2  0
 52 53  1  0
 53 54  1  0
 52 55  1  0
 55 56  1  0
 56 57  1  0
 57 58  1  0
 55 59  2  0
 59 60  1  0
 60 61  2  0
 61 62  1  0
 62 63  1  0
 63 64  1  0
 60 65  1  0
 65 66  1  0
 65 67  2  0
 67 68  1  0
 67 69  1  0
 69 70  2  3
 70 71  1  0
 71 72  1  0
 72 73  1  0
 73 74  2  0
 74 75  1  0
 75 76  1  0
 74 77  1  0
 77 78  1  0
 78 79  1  0
 79 80  1  0
 77 81  2  0
 81 82  1  0
 82 83  2  0
 83 84  1  0
 84 85  1  0
 85 86  1  0
 82 87  1  0
 87 88  1  0
 87 89  2  0
 89 90  1  0
 89 91  1  0
 91 92  2  3
 92 93  1  0
 93 94  1  0
 94 95  1  0
 95 96  1  0
 96 97  2  0
 97 98  1  0
 98 99  1  0
 99100  1  0
 98101  1  0
101102  1  0
 97103  1  0
103104  2  0
104105  1  0
 10  1  2  0
 23 14  2  0
 31 27  2  0
 46 37  1  0
 53 49  2  0
 68 59  1  0
 75 71  2  0
 90 81  1  0
102 93  2  0
  9  3  2  0
 22 16  2  0
 39 29  1  0
 61 51  1  0
 83 73  1  0
101 95  2  0
 13  4  1  0
 26 17  1  0
105 96  1  0
  1106  1  0
  7107  1  0
  7108  1  0
  8109  1  0
  8110  1  0
  8111  1  0
 10112  1  0
 11113  1  0
 20114  1  0
 20115  1  0
 21116  1  0
 21117  1  0
 21118  1  0
 23119  1  0
 24120  1  0
 35121  1  0
 35122  1  0
 36123  1  0
 36124  1  0
 36125  1  0
 41126  1  0
 41127  1  0
 42128  1  0
 42129  1  0
 42130  1  0
 47131  1  0
 48132  1  0
 57133  1  0
 57134  1  0
 58135  1  0
 58136  1  0
 58137  1  0
 63138  1  0
 63139  1  0
 64140  1  0
 64141  1  0
 64142  1  0
 69143  1  0
 70144  1  0
 79145  1  0
 79146  1  0
 80147  1  0
 80148  1  0
 80149  1  0
 85150  1  0
 85151  1  0
 86152  1  0
 86153  1  0
 86154  1  0
 91155  1  0
 92156  1  0
 99157  1  0
 99158  1  0
100159  1  0
100160  1  0
100161  1  0
102162  1  0
103163  1  0
104164  1  0
M  END

