
     RDKit          3D

234260  0  0  0  0  0  0  0  0999 V2000
    3.9049  -12.5850    2.1235 C   0  0  0  0  0  0  0  0  0  0  0  0
    3.8813  -11.8877    0.9194 C   0  0  0  0  0  0  0  0  0  0  0  0
    2.6993  -11.1572    0.7321 C   0  0  0  0  0  0  0  0  0  0  0  0
    2.3732  -10.3557   -0.3840 C   0  0  0  0  0  0  0  0  0  0  0  0
    3.3117  -10.1479   -1.4990 C   0  0  0  0  0  0  0  0  0  0  0  0
    4.0896   -8.6941   -1.8277 S   0  0  0  0  0  0  0  0  0  0  0  0
    4.9633   -9.2537   -3.1496 C   0  0  0  0  0  0  0  0  0  0  0  0
    5.8683   -8.4014   -3.9876 C   0  0  0  0  0  0  0  0  0  0  0  0
    5.1010   -7.7548   -5.1341 C   0  0  0  0  0  0  0  0  0  0  0  0
    4.6284  -10.5901   -3.3756 C   0  0  0  0  0  0  0  0  0  0  0  0
    5.2916  -11.5485   -4.6929 Cl  0  0  0  0  0  0  0  0  0  0  0  0
    3.7134  -11.0950   -2.4376 C   0  0  0  0  0  0  0  0  0  0  0  0
    3.0954  -12.7438   -2.4759 Cl  0  0  0  0  0  0  0  0  0  0  0  0
    1.1354   -9.6941   -0.3504 C   0  0  0  0  0  0  0  0  0  0  0  0
    0.2520   -9.7951    0.7304 C   0  0  0  0  0  0  0  0  0  0  0  0
    0.5738  -10.5964    1.8438 C   0  0  0  0  0  0  0  0  0  0  0  0
   -0.3474  -10.7411    2.9830 C   0  0  0  0  0  0  0  0  0  0  0  0
   -1.8679  -11.4561    2.8952 S   0  0  0  0  0  0  0  0  0  0  0  0
   -2.3004  -11.1487    4.4912 C   0  0  0  0  0  0  0  0  0  0  0  0
   -3.6506  -11.4533    5.0724 C   0  0  0  0  0  0  0  0  0  0  0  0
   -4.6260  -10.3197    4.7866 C   0  0  0  0  0  0  0  0  0  0  0  0
   -1.2602  -10.4559    5.1135 C   0  0  0  0  0  0  0  0  0  0  0  0
   -0.1620  -10.2339    4.2690 C   0  0  0  0  0  0  0  0  0  0  0  0
    1.2618   -9.3216    4.7496 Cl  0  0  0  0  0  0  0  0  0  0  0  0
   -1.3389   -9.8684    6.7681 Cl  0  0  0  0  0  0  0  0  0  0  0  0
    1.8084  -11.2677    1.8085 C   0  0  0  0  0  0  0  0  0  0  0  0
    2.4733  -12.2912    2.9689 S   0  0  0  0  0  0  0  0  0  0  0  0
   -0.8993   -9.0043    0.5814 C   0  0  0  0  0  0  0  0  0  0  0  0
   -0.9254   -8.3096   -0.6264 C   0  0  0  0  0  0  0  0  0  0  0  0
    0.4775   -8.6603   -1.5014 S   0  0  0  0  0  0  0  0  0  0  0  0
   -1.9188   -7.3058   -1.0214 C   0  0  0  0  0  0  0  0  0  0  0  0
   -2.7706   -6.6249   -0.1544 C   0  0  0  0  0  0  0  0  0  0  0  0
   -3.4480   -5.5615   -0.7754 C   0  0  0  0  0  0  0  0  0  0  0  0
   -4.3051   -4.6274   -0.1491 C   0  0  0  0  0  0  0  0  0  0  0  0
   -4.6012   -4.6849    1.2980 C   0  0  0  0  0  0  0  0  0  0  0  0
   -3.4479   -4.6463    2.5274 S   0  0  0  0  0  0  0  0  0  0  0  0
   -4.5327   -4.8394    3.7999 C   0  0  0  0  0  0  0  0  0  0  0  0
   -4.1453   -4.9193    5.2463 C   0  0  0  0  0  0  0  0  0  0  0  0
   -4.3949   -3.5935    5.9532 C   0  0  0  0  0  0  0  0  0  0  0  0
   -5.8226   -4.9104    3.2771 C   0  0  0  0  0  0  0  0  0  0  0  0
   -7.2597   -5.1379    4.2649 Cl  0  0  0  0  0  0  0  0  0  0  0  0
   -5.8635   -4.8255    1.8755 C   0  0  0  0  0  0  0  0  0  0  0  0
   -7.3508   -4.9719    0.9503 Cl  0  0  0  0  0  0  0  0  0  0  0  0
   -4.8046   -3.5907   -0.9560 C   0  0  0  0  0  0  0  0  0  0  0  0
   -4.5118   -3.4892   -2.3205 C   0  0  0  0  0  0  0  0  0  0  0  0
   -3.7070   -4.4558   -2.9581 C   0  0  0  0  0  0  0  0  0  0  0  0
   -3.4303   -4.4058   -4.4100 C   0  0  0  0  0  0  0  0  0  0  0  0
   -1.9000   -4.2877   -5.1055 S   0  0  0  0  0  0  0  0  0  0  0  0
   -2.4292   -4.3480   -6.7029 C   0  0  0  0  0  0  0  0  0  0  0  0
   -1.5278   -4.2898   -7.9011 C   0  0  0  0  0  0  0  0  0  0  0  0
   -1.5119   -2.8908   -8.5065 C   0  0  0  0  0  0  0  0  0  0  0  0
   -3.8170   -4.4551   -6.7127 C   0  0  0  0  0  0  0  0  0  0  0  0
   -4.3819   -4.4859   -5.4310 C   0  0  0  0  0  0  0  0  0  0  0  0
   -6.1100   -4.6635   -5.1392 Cl  0  0  0  0  0  0  0  0  0  0  0  0
   -4.7714   -4.5671   -8.1873 Cl  0  0  0  0  0  0  0  0  0  0  0  0
   -3.1598   -5.4578   -2.1414 C   0  0  0  0  0  0  0  0  0  0  0  0
   -2.0474   -6.6427   -2.5674 S   0  0  0  0  0  0  0  0  0  0  0  0
   -4.9763   -2.3042   -2.9031 C   0  0  0  0  0  0  0  0  0  0  0  0
   -5.6359   -1.4733   -1.9995 C   0  0  0  0  0  0  0  0  0  0  0  0
   -5.6404   -2.2059   -0.4763 S   0  0  0  0  0  0  0  0  0  0  0  0
   -6.0223   -0.0817   -2.2768 C   0  0  0  0  0  0  0  0  0  0  0  0
   -6.6379    0.7935   -1.3781 C   0  0  0  0  0  0  0  0  0  0  0  0
   -6.6720    2.1218   -1.8409 C   0  0  0  0  0  0  0  0  0  0  0  0
   -7.1254    3.2511   -1.1224 C   0  0  0  0  0  0  0  0  0  0  0  0
   -7.7198    3.1334    0.2243 C   0  0  0  0  0  0  0  0  0  0  0  0
   -7.0690    3.8203    1.6171 S   0  0  0  0  0  0  0  0  0  0  0  0
   -8.2838    3.2985    2.6571 C   0  0  0  0  0  0  0  0  0  0  0  0
   -8.3055    3.5638    4.1326 C   0  0  0  0  0  0  0  0  0  0  0  0
   -7.6711    2.4113    4.9021 C   0  0  0  0  0  0  0  0  0  0  0  0
   -9.2094    2.5553    1.9263 C   0  0  0  0  0  0  0  0  0  0  0  0
  -10.6336    1.8086    2.6375 Cl  0  0  0  0  0  0  0  0  0  0  0  0
   -8.8963    2.4657    0.5599 C   0  0  0  0  0  0  0  0  0  0  0  0
   -9.9188    1.6421   -0.6138 Cl  0  0  0  0  0  0  0  0  0  0  0  0
   -6.8702    4.5096   -1.6978 C   0  0  0  0  0  0  0  0  0  0  0  0
   -6.1969    4.6614   -2.9137 C   0  0  0  0  0  0  0  0  0  0  0  0
   -5.8124    3.5344   -3.6635 C   0  0  0  0  0  0  0  0  0  0  0  0
   -5.1142    3.6598   -4.9595 C   0  0  0  0  0  0  0  0  0  0  0  0
   -3.5736    4.3046   -5.1713 S   0  0  0  0  0  0  0  0  0  0  0  0
   -3.5598    4.1796   -6.8496 C   0  0  0  0  0  0  0  0  0  0  0  0
   -2.4189    4.6008   -7.7262 C   0  0  0  0  0  0  0  0  0  0  0  0
   -1.5714    3.4017   -8.1331 C   0  0  0  0  0  0  0  0  0  0  0  0
   -4.7653    3.6067   -7.2665 C   0  0  0  0  0  0  0  0  0  0  0  0
   -5.6320    3.3151   -6.2050 C   0  0  0  0  0  0  0  0  0  0  0  0
   -7.2461    2.6532   -6.4315 Cl  0  0  0  0  0  0  0  0  0  0  0  0
   -5.1741    3.3281   -8.9529 Cl  0  0  0  0  0  0  0  0  0  0  0  0
   -6.0658    2.2790   -3.0942 C   0  0  0  0  0  0  0  0  0  0  0  0
   -5.5168    0.7853   -3.6357 S   0  0  0  0  0  0  0  0  0  0  0  0
   -5.8854    5.9971   -3.2105 C   0  0  0  0  0  0  0  0  0  0  0  0
   -6.3233    6.9030   -2.2395 C   0  0  0  0  0  0  0  0  0  0  0  0
   -7.1107    6.0284   -1.0221 S   0  0  0  0  0  0  0  0  0  0  0  0
   -5.7900    8.2343   -2.0366 N   0  0  0  0  0  0  0  0  0  0  0  0
   -5.2402    9.0723   -3.1155 C   0  0  2  0  0  0  0  0  0  0  0  0
   -5.8635    9.0454   -4.5125 C   0  0  0  0  0  0  0  0  0  0  0  0
   -4.5599    9.6548   -5.6662 S   0  0  0  0  0  0  0  0  0  0  0  0
   -3.3184    9.6477   -4.3593 C   0  0  0  0  0  0  0  0  0  0  0  0
   -2.5599   10.8464   -4.1061 S   0  0  0  0  0  0  0  0  0  0  0  0
   -3.7634    8.7534   -3.2514 C   0  0  1  0  0  0  0  0  0  0  0  0
   -3.0893    8.8978   -1.9404 N   0  0  0  0  0  0  0  0  0  0  0  0
   -3.8855    9.3253   -0.7733 C   0  0  0  0  0  0  0  0  0  0  0  0
   -5.2184    8.5275   -0.6973 C   0  0  0  0  0  0  0  0  0  0  0  0
   -1.8315    8.2554   -1.6806 C   0  0  0  0  0  0  0  0  0  0  0  0
   -1.6636    6.9426   -1.9010 C   0  0  0  0  0  0  0  0  0  0  0  0
   -0.4929    6.1804   -1.4362 C   0  0  0  0  0  0  0  0  0  0  0  0
    0.5595    6.6420   -0.6367 C   0  0  0  0  0  0  0  0  0  0  0  0
    1.4512    5.6201   -0.2661 C   0  0  0  0  0  0  0  0  0  0  0  0
    2.5554    5.7578    0.5955 C   0  0  0  0  0  0  0  0  0  0  0  0
    2.9041    7.0480    1.2189 C   0  0  0  0  0  0  0  0  0  0  0  0
    1.9485    7.8606    2.3385 S   0  0  0  0  0  0  0  0  0  0  0  0
    3.0040    9.1465    2.5729 C   0  0  0  0  0  0  0  0  0  0  0  0
    2.7164   10.3326    3.4443 C   0  0  0  0  0  0  0  0  0  0  0  0
    1.9202   11.3804    2.6814 C   0  0  0  0  0  0  0  0  0  0  0  0
    4.1228    8.9677    1.7552 C   0  0  0  0  0  0  0  0  0  0  0  0
    5.4502   10.1155    1.6491 Cl  0  0  0  0  0  0  0  0  0  0  0  0
    4.0677    7.7854    1.0002 C   0  0  0  0  0  0  0  0  0  0  0  0
    5.3162    7.3107   -0.1434 Cl  0  0  0  0  0  0  0  0  0  0  0  0
    3.2897    4.5963    0.8819 C   0  0  0  0  0  0  0  0  0  0  0  0
    2.9786    3.3501    0.3258 C   0  0  0  0  0  0  0  0  0  0  0  0
    1.8603    3.2047   -0.5263 C   0  0  0  0  0  0  0  0  0  0  0  0
    1.4148    1.8773   -1.0000 C   0  0  0  0  0  0  0  0  0  0  0  0
    0.9155    0.6253    0.0106 S   0  0  0  0  0  0  0  0  0  0  0  0
    0.5441   -0.4645   -1.2124 C   0  0  0  0  0  0  0  0  0  0  0  0
   -0.0197   -1.8390   -0.9858 C   0  0  0  0  0  0  0  0  0  0  0  0
   -1.5342   -1.8437   -1.1539 C   0  0  0  0  0  0  0  0  0  0  0  0
    0.7856    0.1443   -2.4439 C   0  0  0  0  0  0  0  0  0  0  0  0
    1.2777    1.4591   -2.3248 C   0  0  0  0  0  0  0  0  0  0  0  0
    1.7483    2.4345   -3.7075 Cl  0  0  0  0  0  0  0  0  0  0  0  0
    0.5172   -0.6503   -3.9875 Cl  0  0  0  0  0  0  0  0  0  0  0  0
    1.1192    4.3698   -0.7983 C   0  0  0  0  0  0  0  0  0  0  0  0
   -0.3050    4.5196   -1.6866 S   0  0  0  0  0  0  0  0  0  0  0  0
    3.8610    2.3334    0.7267 C   0  0  0  0  0  0  0  0  0  0  0  0
    4.8239    2.7830    1.6309 C   0  0  0  0  0  0  0  0  0  0  0  0
    4.6033    4.4308    1.9209 S   0  0  0  0  0  0  0  0  0  0  0  0
    5.9078    1.9788    2.2074 C   0  0  0  0  0  0  0  0  0  0  0  0
    6.5281    0.8990    1.5851 C   0  0  0  0  0  0  0  0  0  0  0  0
    7.6245    0.4071    2.3122 C   0  0  0  0  0  0  0  0  0  0  0  0
    8.4903   -0.6349    1.9185 C   0  0  0  0  0  0  0  0  0  0  0  0
    8.3562   -1.2994    0.6078 C   0  0  0  0  0  0  0  0  0  0  0  0
    8.4549   -0.5127   -0.8783 S   0  0  0  0  0  0  0  0  0  0  0  0
    8.2238   -1.8835   -1.8234 C   0  0  0  0  0  0  0  0  0  0  0  0
    8.1195   -1.8718   -3.3190 C   0  0  0  0  0  0  0  0  0  0  0  0
    6.6633   -1.7784   -3.7592 C   0  0  0  0  0  0  0  0  0  0  0  0
    8.0545   -2.9842   -0.9830 C   0  0  0  0  0  0  0  0  0  0  0  0
    7.7432   -4.6120   -1.5711 Cl  0  0  0  0  0  0  0  0  0  0  0  0
    8.1312   -2.6573    0.3793 C   0  0  0  0  0  0  0  0  0  0  0  0
    7.8915   -3.8307    1.6665 Cl  0  0  0  0  0  0  0  0  0  0  0  0
    9.5413   -0.9524    2.7967 C   0  0  0  0  0  0  0  0  0  0  0  0
    9.7316   -0.2942    4.0149 C   0  0  0  0  0  0  0  0  0  0  0  0
    8.8513    0.7318    4.4240 C   0  0  0  0  0  0  0  0  0  0  0  0
    8.9995    1.4173    5.7286 C   0  0  0  0  0  0  0  0  0  0  0  0
    9.1816    3.0800    5.9343 S   0  0  0  0  0  0  0  0  0  0  0  0
    9.2699    3.0453    7.6156 C   0  0  0  0  0  0  0  0  0  0  0  0
    9.3362    4.2619    8.4885 C   0  0  0  0  0  0  0  0  0  0  0  0
    7.9428    4.6741    8.9510 C   0  0  0  0  0  0  0  0  0  0  0  0
    9.1322    1.7257    8.0437 C   0  0  0  0  0  0  0  0  0  0  0  0
    8.9842    0.8138    6.9893 C   0  0  0  0  0  0  0  0  0  0  0  0
    8.7160   -0.9092    7.2437 Cl  0  0  0  0  0  0  0  0  0  0  0  0
    9.1289    1.2493    9.7362 Cl  0  0  0  0  0  0  0  0  0  0  0  0
    7.8262    1.0789    3.5249 C   0  0  0  0  0  0  0  0  0  0  0  0
    6.6806    2.3058    3.6688 S   0  0  0  0  0  0  0  0  0  0  0  0
   10.8913   -0.7161    4.6917 C   0  0  0  0  0  0  0  0  0  0  0  0
   11.5938   -1.7033    4.0084 C   0  0  0  0  0  0  0  0  0  0  0  0
   10.8010   -2.0453    2.5609 S   0  0  0  0  0  0  0  0  0  0  0  0
    4.7133  -13.2132    2.4650 H   0  0  0  0  0  0  0  0  0  0  0  0
    4.6962  -11.9166    0.2062 H   0  0  0  0  0  0  0  0  0  0  0  0
    6.7020   -9.0144   -4.3922 H   0  0  0  0  0  0  0  0  0  0  0  0
    6.3098   -7.6065   -3.3508 H   0  0  0  0  0  0  0  0  0  0  0  0
    4.2449   -7.1634   -4.7437 H   0  0  0  0  0  0  0  0  0  0  0  0
    5.7778   -7.0774   -5.6943 H   0  0  0  0  0  0  0  0  0  0  0  0
    4.7218   -8.5332   -5.8292 H   0  0  0  0  0  0  0  0  0  0  0  0
   -4.0358  -12.3938    4.6254 H   0  0  0  0  0  0  0  0  0  0  0  0
   -3.5701  -11.6105    6.1695 H   0  0  0  0  0  0  0  0  0  0  0  0
   -5.6406  -10.6093    5.1357 H   0  0  0  0  0  0  0  0  0  0  0  0
   -4.3129   -9.3992    5.3204 H   0  0  0  0  0  0  0  0  0  0  0  0
   -4.6738  -10.1066    3.6955 H   0  0  0  0  0  0  0  0  0  0  0  0
   -1.6671   -8.9129    1.3343 H   0  0  0  0  0  0  0  0  0  0  0  0
   -2.8482   -6.8559    0.8981 H   0  0  0  0  0  0  0  0  0  0  0  0
   -3.0678   -5.1739    5.3285 H   0  0  0  0  0  0  0  0  0  0  0  0
   -4.7270   -5.7258    5.7427 H   0  0  0  0  0  0  0  0  0  0  0  0
   -5.4680   -3.3132    5.8909 H   0  0  0  0  0  0  0  0  0  0  0  0
   -4.1142   -3.6899    7.0231 H   0  0  0  0  0  0  0  0  0  0  0  0
   -3.7740   -2.7947    5.4937 H   0  0  0  0  0  0  0  0  0  0  0  0
   -0.4963   -4.5746   -7.6053 H   0  0  0  0  0  0  0  0  0  0  0  0
   -1.8747   -5.0209   -8.6627 H   0  0  0  0  0  0  0  0  0  0  0  0
   -2.5267   -2.6041   -8.8525 H   0  0  0  0  0  0  0  0  0  0  0  0
   -1.1561   -2.1490   -7.7595 H   0  0  0  0  0  0  0  0  0  0  0  0
   -0.8260   -2.8720   -9.3793 H   0  0  0  0  0  0  0  0  0  0  0  0
   -4.7786   -2.0240   -3.9297 H   0  0  0  0  0  0  0  0  0  0  0  0
   -6.9900    0.4870   -0.4012 H   0  0  0  0  0  0  0  0  0  0  0  0
   -9.3495    3.7142    4.4788 H   0  0  0  0  0  0  0  0  0  0  0  0
   -7.7415    4.4945    4.3476 H   0  0  0  0  0  0  0  0  0  0  0  0
   -6.6198    2.2626    4.5723 H   0  0  0  0  0  0  0  0  0  0  0  0
   -8.2436    1.4718    4.7406 H   0  0  0  0  0  0  0  0  0  0  0  0
   -7.6713    2.6379    5.9874 H   0  0  0  0  0  0  0  0  0  0  0  0
   -1.7807    5.3275   -7.1807 H   0  0  0  0  0  0  0  0  0  0  0  0
   -2.8086    5.1065   -8.6346 H   0  0  0  0  0  0  0  0  0  0  0  0
   -2.1760    2.6818   -8.7250 H   0  0  0  0  0  0  0  0  0  0  0  0
   -0.7220    3.7462   -8.7582 H   0  0  0  0  0  0  0  0  0  0  0  0
   -1.1661    2.8892   -7.2323 H   0  0  0  0  0  0  0  0  0  0  0  0
   -5.2633    6.2660   -4.0454 H   0  0  0  0  0  0  0  0  0  0  0  0
   -5.3456   10.1369   -2.7967 H   0  0  0  0  0  0  0  0  0  0  0  0
   -6.1905    8.0423   -4.8441 H   0  0  0  0  0  0  0  0  0  0  0  0
   -6.7524    9.7162   -4.5539 H   0  0  0  0  0  0  0  0  0  0  0  0
   -3.6551    7.7159   -3.6183 H   0  0  0  0  0  0  0  0  0  0  0  0
   -3.3191    9.1903    0.1760 H   0  0  0  0  0  0  0  0  0  0  0  0
   -4.1056   10.4148   -0.8632 H   0  0  0  0  0  0  0  0  0  0  0  0
   -5.9602    9.0901   -0.0931 H   0  0  0  0  0  0  0  0  0  0  0  0
   -4.9853    7.5823   -0.1605 H   0  0  0  0  0  0  0  0  0  0  0  0
   -1.0899    8.8063   -1.1185 H   0  0  0  0  0  0  0  0  0  0  0  0
   -2.4498    6.3703   -2.3741 H   0  0  0  0  0  0  0  0  0  0  0  0
    0.6621    7.6642   -0.3070 H   0  0  0  0  0  0  0  0  0  0  0  0
    2.1384   10.0003    4.3340 H   0  0  0  0  0  0  0  0  0  0  0  0
    3.6643   10.7808    3.8032 H   0  0  0  0  0  0  0  0  0  0  0  0
    1.6914   12.2356    3.3496 H   0  0  0  0  0  0  0  0  0  0  0  0
    0.9633   10.9482    2.3167 H   0  0  0  0  0  0  0  0  0  0  0  0
    2.5041   11.7553    1.8121 H   0  0  0  0  0  0  0  0  0  0  0  0
    0.4364   -2.5584   -1.6961 H   0  0  0  0  0  0  0  0  0  0  0  0
    0.2309   -2.1739    0.0442 H   0  0  0  0  0  0  0  0  0  0  0  0
   -1.8141   -1.5671   -2.1921 H   0  0  0  0  0  0  0  0  0  0  0  0
   -2.0066   -1.1303   -0.4431 H   0  0  0  0  0  0  0  0  0  0  0  0
   -1.9228   -2.8602   -0.9415 H   0  0  0  0  0  0  0  0  0  0  0  0
    3.8016    1.3083    0.3846 H   0  0  0  0  0  0  0  0  0  0  0  0
    6.2195    0.5147    0.6236 H   0  0  0  0  0  0  0  0  0  0  0  0
    8.5740   -2.7935   -3.7372 H   0  0  0  0  0  0  0  0  0  0  0  0
    8.6795   -0.9993   -3.7204 H   0  0  0  0  0  0  0  0  0  0  0  0
    6.1005   -2.6737   -3.4213 H   0  0  0  0  0  0  0  0  0  0  0  0
    6.1850   -0.8681   -3.3369 H   0  0  0  0  0  0  0  0  0  0  0  0
    6.6123   -1.7256   -4.8663 H   0  0  0  0  0  0  0  0  0  0  0  0
    9.8037    5.0998    7.9306 H   0  0  0  0  0  0  0  0  0  0  0  0
    9.9684    4.0513    9.3784 H   0  0  0  0  0  0  0  0  0  0  0  0
    8.0106    5.5974    9.5632 H   0  0  0  0  0  0  0  0  0  0  0  0
    7.4865    3.8732    9.5734 H   0  0  0  0  0  0  0  0  0  0  0  0
    7.2873    4.8718    8.0753 H   0  0  0  0  0  0  0  0  0  0  0  0
   11.2265   -0.3044    5.6321 H   0  0  0  0  0  0  0  0  0  0  0  0
   12.5160   -2.1599    4.3430 H   0  0  0  0  0  0  0  0  0  0  0  0
  1  2  2  0
  2  3  1  0
  3  4  2  0
  4  5  1  0
  5  6  1  0
  6  7  1  0
  7  8  1  0
  8  9  1  0
  7 10  2  0
 10 11  1  0
 10 12  1  0
 12 13  1  0
  4 14  1  0
 14 15  2  0
 15 16  1  0
 16 17  1  0
 17 18  1  0
 18 19  1  0
 19 20  1  0
 20 21  1  0
 19 22  2  0
 22 23  1  0
 23 24  1  0
 22 25  1  0
 16 26  2  0
 26 27  1  0
 15 28  1  0
 28 29  2  0
 29 30  1  0
 29 31  1  0
 31 32  2  0
 32 33  1  0
 33 34  2  0
 34 35  1  0
 35 36  1  0
 36 37  1  0
 37 38  1  0
 38 39  1  0
 37 40  2  0
 40 41  1  0
 40 42  1  0
 42 43  1  0
 34 44  1  0
 44 45  2  0
 45 46  1  0
 46 47  1  0
 47 48  1  0
 48 49  1  0
 49 50  1  0
 50 51  1  0
 49 52  2  0
 52 53  1  0
 53 54  1  0
 52 55  1  0
 46 56  2  0
 56 57  1  0
 45 58  1  0
 58 59  2  0
 59 60  1  0
 59 61  1  0
 61 62  2  0
 62 63  1  0
 63 64  2  0
 64 65  1  0
 65 66  1  0
 66 67  1  0
 67 68  1  0
 68 69  1  0
 67 70  2  0
 70 71  1  0
 70 72  1  0
 72 73  1  0
 64 74  1  0
 74 75  2  0
 75 76  1  0
 76 77  1  0
 77 78  1  0
 78 79  1  0
 79 80  1  0
 80 81  1  0
 79 82  2  0
 82 83  1  0
 83 84  1  0
 82 85  1  0
 76 86  2  0
 86 87  1  0
 75 88  1  0
 88 89  2  0
 89 90  1  0
 89 91  1  0
 91 92  1  0
 92 93  1  0
 93 94  1  0
 94 95  1  0
 95 96  2  0
 95 97  1  0
 97 98  1  0
 98 99  1  0
 99100  1  0
 98101  1  0
101102  2  3
102103  1  0
103104  2  0
104105  1  0
105106  2  0
106107  1  0
107108  1  0
108109  1  0
109110  1  0
110111  1  0
109112  2  0
112113  1  0
112114  1  0
114115  1  0
106116  1  0
116117  2  0
117118  1  0
118119  1  0
119120  1  0
120121  1  0
121122  1  0
122123  1  0
121124  2  0
124125  1  0
125126  1  0
124127  1  0
118128  2  0
128129  1  0
117130  1  0
130131  2  0
131132  1  0
131133  1  0
133134  2  0
134135  1  0
135136  2  0
136137  1  0
137138  1  0
138139  1  0
139140  1  0
140141  1  0
139142  2  0
142143  1  0
142144  1  0
144145  1  0
136146  1  0
146147  2  0
147148  1  0
148149  1  0
149150  1  0
150151  1  0
151152  1  0
152153  1  0
151154  2  0
154155  1  0
155156  1  0
154157  1  0
148158  2  0
158159  1  0
147160  1  0
160161  2  0
161162  1  0
 27  1  1  0
 57 31  1  0
 87 61  1  0
100 91  1  0
129103  1  0
159133  1  0
 26  3  1  0
 56 33  1  0
 86 63  1  0
 97 92  1  0
128105  1  0
158135  1  0
 12  5  2  0
 30 14  1  0
 42 35  2  0
 60 44  1  0
 72 65  2  0
 90 74  1  0
114107  2  0
132116  1  0
144137  2  0
162146  1  0
 23 17  2  0
 53 47  2  0
 83 77  2  0
125119  2  0
155149  2  0
  1163  1  0
  2164  1  0
  8165  1  0
  8166  1  0
  9167  1  0
  9168  1  0
  9169  1  0
 20170  1  0
 20171  1  0
 21172  1  0
 21173  1  0
 21174  1  0
 28175  1  0
 32176  1  0
 38177  1  0
 38178  1  0
 39179  1  0
 39180  1  0
 39181  1  0
 50182  1  0
 50183  1  0
 51184  1  0
 51185  1  0
 51186  1  0
 58187  1  0
 62188  1  0
 68189  1  0
 68190  1  0
 69191  1  0
 69192  1  0
 69193  1  0
 80194  1  0
 80195  1  0
 81196  1  0
 81197  1  0
 81198  1  0
 88199  1  0
 92200  1  1
 93201  1  0
 93202  1  0
 97203  1  6
 99204  1  0
 99205  1  0
100206  1  0
100207  1  0
101208  1  0
102209  1  0
104210  1  0
110211  1  0
110212  1  0
111213  1  0
111214  1  0
111215  1  0
122216  1  0
122217  1  0
123218  1  0
123219  1  0
123220  1  0
130221  1  0
134222  1  0
140223  1  0
140224  1  0
141225  1  0
141226  1  0
141227  1  0
152228  1  0
152229  1  0
153230  1  0
153231  1  0
153232  1  0
160233  1  0
161234  1  0
M  END

