
     RDKit          3D

212235  0  0  0  0  0  0  0  0999 V2000
   -0.3152   -6.6697   11.6436 C   0  0  0  0  0  0  0  0  0  0  0  0
    0.5757   -5.6710   11.2602 C   0  0  0  0  0  0  0  0  0  0  0  0
   -0.0563   -4.5623   10.6734 C   0  0  0  0  0  0  0  0  0  0  0  0
    0.5797   -3.4174   10.1521 C   0  0  0  0  0  0  0  0  0  0  0  0
    2.0441   -3.2503   10.1855 C   0  0  0  0  0  0  0  0  0  0  0  0
    3.0273   -3.1603    8.8221 S   0  0  0  0  0  0  0  0  0  0  0  0
    4.4757   -2.9704    9.6561 C   0  0  0  0  0  0  0  0  0  0  0  0
    5.8062   -2.7530    9.0026 C   0  0  0  0  0  0  0  0  0  0  0  0
    6.0369   -1.2710    8.7306 C   0  0  0  0  0  0  0  0  0  0  0  0
    4.2033   -2.9452   11.0236 C   0  0  0  0  0  0  0  0  0  0  0  0
    5.4345   -2.7024   12.2541 Cl  0  0  0  0  0  0  0  0  0  0  0  0
    2.8396   -3.1123   11.3210 C   0  0  0  0  0  0  0  0  0  0  0  0
    2.1966   -3.0805   12.9584 Cl  0  0  0  0  0  0  0  0  0  0  0  0
   -0.2443   -2.4575    9.5415 C   0  0  0  0  0  0  0  0  0  0  0  0
   -1.6328   -2.6056    9.4395 C   0  0  0  0  0  0  0  0  0  0  0  0
   -2.2710   -3.7404    9.9805 C   0  0  0  0  0  0  0  0  0  0  0  0
   -3.7326   -3.9199    9.9175 C   0  0  0  0  0  0  0  0  0  0  0  0
   -4.6263   -4.0719    8.4993 S   0  0  0  0  0  0  0  0  0  0  0  0
   -6.1276   -4.2080    9.2483 C   0  0  0  0  0  0  0  0  0  0  0  0
   -7.4353   -4.2972    8.5202 C   0  0  0  0  0  0  0  0  0  0  0  0
   -8.0411   -2.9120    8.3257 C   0  0  0  0  0  0  0  0  0  0  0  0
   -5.9487   -4.1099   10.6279 C   0  0  0  0  0  0  0  0  0  0  0  0
   -4.6051   -3.9551   11.0030 C   0  0  0  0  0  0  0  0  0  0  0  0
   -4.0881   -3.7455   12.6711 Cl  0  0  0  0  0  0  0  0  0  0  0  0
   -7.2721   -4.1418   11.7842 Cl  0  0  0  0  0  0  0  0  0  0  0  0
   -1.4455   -4.7020   10.5903 C   0  0  0  0  0  0  0  0  0  0  0  0
   -1.8832   -6.1897   11.2441 S   0  0  0  0  0  0  0  0  0  0  0  0
   -2.2530   -1.5355    8.7728 C   0  0  0  0  0  0  0  0  0  0  0  0
   -1.3503   -0.5549    8.3657 C   0  0  0  0  0  0  0  0  0  0  0  0
    0.2100   -1.0028    8.8280 S   0  0  0  0  0  0  0  0  0  0  0  0
   -1.6674    0.6133    7.5344 C   0  0  0  0  0  0  0  0  0  0  0  0
   -0.8261    1.7048    7.3226 C   0  0  0  0  0  0  0  0  0  0  0  0
   -1.3049    2.5807    6.3364 C   0  0  0  0  0  0  0  0  0  0  0  0
   -0.6550    3.7381    5.8690 C   0  0  0  0  0  0  0  0  0  0  0  0
    0.6118    4.2032    6.4582 C   0  0  0  0  0  0  0  0  0  0  0  0
    0.7671    4.8237    8.0141 S   0  0  0  0  0  0  0  0  0  0  0  0
    2.4335    5.0500    7.9490 C   0  0  0  0  0  0  0  0  0  0  0  0
    3.2643    5.5557    9.0871 C   0  0  0  0  0  0  0  0  0  0  0  0
    3.6486    4.4180   10.0255 C   0  0  0  0  0  0  0  0  0  0  0  0
    2.8962    4.6103    6.7084 C   0  0  0  0  0  0  0  0  0  0  0  0
    4.5921    4.6141    6.2429 Cl  0  0  0  0  0  0  0  0  0  0  0  0
    1.8724    4.1403    5.8703 C   0  0  0  0  0  0  0  0  0  0  0  0
    2.1609    3.4721    4.2694 Cl  0  0  0  0  0  0  0  0  0  0  0  0
   -1.2454    4.4040    4.7811 C   0  0  0  0  0  0  0  0  0  0  0  0
   -2.4284    3.9616    4.1797 C   0  0  0  0  0  0  0  0  0  0  0  0
   -3.1057    2.8295    4.6792 C   0  0  0  0  0  0  0  0  0  0  0  0
   -4.3405    2.3191    4.0521 C   0  0  0  0  0  0  0  0  0  0  0  0
   -4.5075    0.7928    3.3613 S   0  0  0  0  0  0  0  0  0  0  0  0
   -6.1186    0.9711    2.9136 C   0  0  0  0  0  0  0  0  0  0  0  0
   -6.9500   -0.1096    2.2939 C   0  0  0  0  0  0  0  0  0  0  0  0
   -7.6435   -0.9357    3.3713 C   0  0  0  0  0  0  0  0  0  0  0  0
   -6.5590    2.2280    3.3266 C   0  0  0  0  0  0  0  0  0  0  0  0
   -5.5597    2.9881    3.9558 C   0  0  0  0  0  0  0  0  0  0  0  0
   -5.8415    4.5952    4.6154 Cl  0  0  0  0  0  0  0  0  0  0  0  0
   -8.2079    2.7983    3.1053 Cl  0  0  0  0  0  0  0  0  0  0  0  0
   -2.5075    2.1591    5.7603 C   0  0  0  0  0  0  0  0  0  0  0  0
   -2.9989    0.7295    6.5023 S   0  0  0  0  0  0  0  0  0  0  0  0
   -2.7688    4.6966    3.0308 C   0  0  0  0  0  0  0  0  0  0  0  0
   -1.8638    5.7212    2.7470 C   0  0  0  0  0  0  0  0  0  0  0  0
   -0.6469    5.7208    3.9186 S   0  0  0  0  0  0  0  0  0  0  0  0
   -1.8210    6.4910    1.4948 C   0  0  0  0  0  0  0  0  0  0  0  0
   -2.6602    6.0658    0.0953 S   0  0  0  0  0  0  0  0  0  0  0  0
   -1.8592    7.1538   -0.8990 C   0  0  0  0  0  0  0  0  0  0  0  0
   -1.8415    7.1744   -2.3469 C   0  0  0  0  0  0  0  0  0  0  0  0
   -0.8157    7.8197   -2.9978 C   0  0  0  0  0  0  0  0  0  0  0  0
    0.0963    8.6256   -2.2972 O   0  0  0  0  0  0  0  0  0  0  0  0
    0.0480    8.8402   -0.8635 C   0  0  0  0  0  0  0  0  0  0  0  0
    1.4947    8.7020   -0.3174 C   0  0  0  0  0  0  0  0  0  0  0  0
    2.0780    7.2981   -0.5094 C   0  0  0  0  0  0  0  0  0  0  0  0
   -0.5118   10.2607   -0.5923 C   0  0  0  0  0  0  0  0  0  0  0  0
    0.2645   11.3871   -1.2804 C   0  0  0  0  0  0  0  0  0  0  0  0
   -0.8987    7.8418   -0.1761 C   0  0  0  0  0  0  0  0  0  0  0  0
   -0.9003    7.4934    1.1871 C   0  0  0  0  0  0  0  0  0  0  0  0
   -0.7012    7.4789   -4.3506 C   0  0  0  0  0  0  0  0  0  0  0  0
   -1.6388    6.5158   -4.7407 C   0  0  0  0  0  0  0  0  0  0  0  0
   -2.6004    6.1204   -3.4046 S   0  0  0  0  0  0  0  0  0  0  0  0
   -1.5565    5.6800   -5.9511 C   0  0  0  0  0  0  0  0  0  0  0  0
   -2.4367    4.6372   -6.2429 C   0  0  0  0  0  0  0  0  0  0  0  0
   -1.9198    3.7183   -7.1685 C   0  0  0  0  0  0  0  0  0  0  0  0
   -2.4943    2.4787   -7.5173 C   0  0  0  0  0  0  0  0  0  0  0  0
   -3.8090    2.0442   -7.0065 C   0  0  0  0  0  0  0  0  0  0  0  0
   -4.1747    1.7619   -5.3875 S   0  0  0  0  0  0  0  0  0  0  0  0
   -5.7567    1.2514   -5.6473 C   0  0  0  0  0  0  0  0  0  0  0  0
   -6.6880    0.7781   -4.5712 C   0  0  0  0  0  0  0  0  0  0  0  0
   -6.6653   -0.7424   -4.4638 C   0  0  0  0  0  0  0  0  0  0  0  0
   -6.0145    1.2747   -7.0170 C   0  0  0  0  0  0  0  0  0  0  0  0
   -7.5502    0.7943   -7.7250 Cl  0  0  0  0  0  0  0  0  0  0  0  0
   -4.9211    1.7163   -7.7788 C   0  0  0  0  0  0  0  0  0  0  0  0
   -4.9618    1.8679   -9.5300 Cl  0  0  0  0  0  0  0  0  0  0  0  0
   -1.6989    1.6049   -8.2779 C   0  0  0  0  0  0  0  0  0  0  0  0
   -0.4139    1.9369   -8.7156 C   0  0  0  0  0  0  0  0  0  0  0  0
    0.1232    3.2134   -8.4434 C   0  0  0  0  0  0  0  0  0  0  0  0
    1.4702    3.6131   -8.8879 C   0  0  0  0  0  0  0  0  0  0  0  0
    2.9120    2.9051   -8.3826 S   0  0  0  0  0  0  0  0  0  0  0  0
    3.9231    3.8827   -9.3061 C   0  0  0  0  0  0  0  0  0  0  0  0
    5.4090    3.7189   -9.3980 C   0  0  0  0  0  0  0  0  0  0  0  0
    5.7752    2.7715  -10.5347 C   0  0  0  0  0  0  0  0  0  0  0  0
    3.1382    4.7701  -10.0400 C   0  0  0  0  0  0  0  0  0  0  0  0
    1.7632    4.6286   -9.7938 C   0  0  0  0  0  0  0  0  0  0  0  0
    0.5321    5.5969  -10.5943 Cl  0  0  0  0  0  0  0  0  0  0  0  0
    3.7960    5.9401  -11.1772 Cl  0  0  0  0  0  0  0  0  0  0  0  0
   -0.6528    4.0721   -7.6453 C   0  0  0  0  0  0  0  0  0  0  0  0
   -0.1641    5.4963   -6.8908 S   0  0  0  0  0  0  0  0  0  0  0  0
    0.2744    0.8452   -9.2750 C   0  0  0  0  0  0  0  0  0  0  0  0
   -0.4581   -0.3406   -9.2490 C   0  0  0  0  0  0  0  0  0  0  0  0
   -1.9589   -0.0326   -8.5455 S   0  0  0  0  0  0  0  0  0  0  0  0
    0.1695   -1.6574   -9.1623 C   0  0  0  0  0  0  0  0  0  0  0  0
    0.7399   -2.2927   -7.7103 S   0  0  0  0  0  0  0  0  0  0  0  0
    1.0892   -3.7944   -8.3528 C   0  0  0  0  0  0  0  0  0  0  0  0
    1.5644   -4.9654   -7.6603 C   0  0  0  0  0  0  0  0  0  0  0  0
    1.7456   -6.1406   -8.3449 C   0  0  0  0  0  0  0  0  0  0  0  0
    1.5051   -6.2183   -9.7259 O   0  0  0  0  0  0  0  0  0  0  0  0
    0.9176   -5.1433  -10.5118 C   0  0  0  0  0  0  0  0  0  0  0  0
    1.8261   -4.8872  -11.7397 C   0  0  0  0  0  0  0  0  0  0  0  0
    3.2244   -4.3935  -11.3564 C   0  0  0  0  0  0  0  0  0  0  0  0
   -0.5015   -5.5886  -10.9552 C   0  0  0  0  0  0  0  0  0  0  0  0
   -0.5449   -6.9561  -11.6431 C   0  0  0  0  0  0  0  0  0  0  0  0
    0.7660   -3.8450   -9.6971 C   0  0  0  0  0  0  0  0  0  0  0  0
    0.2304   -2.6274  -10.1607 C   0  0  0  0  0  0  0  0  0  0  0  0
    2.1665   -7.1987   -7.5317 C   0  0  0  0  0  0  0  0  0  0  0  0
    2.2819   -6.8205   -6.1884 C   0  0  0  0  0  0  0  0  0  0  0  0
    1.8825   -5.1832   -6.0322 S   0  0  0  0  0  0  0  0  0  0  0  0
    2.6461   -7.6909   -5.0595 C   0  0  0  0  0  0  0  0  0  0  0  0
    3.0674   -9.3240   -5.1623 S   0  0  0  0  0  0  0  0  0  0  0  0
    3.2728   -9.5168   -3.5048 C   0  0  0  0  0  0  0  0  0  0  0  0
    3.6513  -10.7001   -2.7607 C   0  0  0  0  0  0  0  0  0  0  0  0
    3.8358  -10.6162   -1.4024 C   0  0  0  0  0  0  0  0  0  0  0  0
    3.6501   -9.4072   -0.7164 O   0  0  0  0  0  0  0  0  0  0  0  0
    3.0410   -8.2313   -1.3097 C   0  0  0  0  0  0  0  0  0  0  0  0
    1.5567   -8.1647   -0.8552 C   0  0  0  0  0  0  0  0  0  0  0  0
    1.3565   -8.1349    0.6617 C   0  0  0  0  0  0  0  0  0  0  0  0
    3.8389   -6.9566   -0.8906 C   0  0  0  0  0  0  0  0  0  0  0  0
    4.6068   -7.0926    0.4301 C   0  0  0  0  0  0  0  0  0  0  0  0
    3.0277   -8.3258   -2.8438 C   0  0  0  0  0  0  0  0  0  0  0  0
    2.6612   -7.2954   -3.7210 C   0  0  0  0  0  0  0  0  0  0  0  0
    4.2400  -11.8165   -0.8170 C   0  0  0  0  0  0  0  0  0  0  0  0
    4.3681  -12.8485   -1.7463 C   0  0  0  0  0  0  0  0  0  0  0  0
    3.9865  -12.2590   -3.2860 S   0  0  0  0  0  0  0  0  0  0  0  0
   -0.0423   -7.6086   12.1063 H   0  0  0  0  0  0  0  0  0  0  0  0
    1.6456   -5.7603   11.3923 H   0  0  0  0  0  0  0  0  0  0  0  0
    5.8414   -3.3096    8.0422 H   0  0  0  0  0  0  0  0  0  0  0  0
    6.6197   -3.1433    9.6512 H   0  0  0  0  0  0  0  0  0  0  0  0
    6.0298   -0.6992    9.6840 H   0  0  0  0  0  0  0  0  0  0  0  0
    7.0230   -1.1323    8.2389 H   0  0  0  0  0  0  0  0  0  0  0  0
    5.2450   -0.8726    8.0578 H   0  0  0  0  0  0  0  0  0  0  0  0
   -8.1418   -4.9367    9.0916 H   0  0  0  0  0  0  0  0  0  0  0  0
   -7.2720   -4.7693    7.5276 H   0  0  0  0  0  0  0  0  0  0  0  0
   -8.9912   -3.0012    7.7593 H   0  0  0  0  0  0  0  0  0  0  0  0
   -8.2568   -2.4426    9.3086 H   0  0  0  0  0  0  0  0  0  0  0  0
   -7.3444   -2.2608    7.7558 H   0  0  0  0  0  0  0  0  0  0  0  0
   -3.3162   -1.4715    8.5849 H   0  0  0  0  0  0  0  0  0  0  0  0
    0.1181    1.8338    7.8362 H   0  0  0  0  0  0  0  0  0  0  0  0
    4.1838    6.0479    8.7043 H   0  0  0  0  0  0  0  0  0  0  0  0
    2.6840    6.3160    9.6532 H   0  0  0  0  0  0  0  0  0  0  0  0
    4.2463    4.8188   10.8703 H   0  0  0  0  0  0  0  0  0  0  0  0
    2.7380    3.9286   10.4339 H   0  0  0  0  0  0  0  0  0  0  0  0
    4.2579    3.6614    9.4860 H   0  0  0  0  0  0  0  0  0  0  0  0
   -7.7094    0.3359    1.6159 H   0  0  0  0  0  0  0  0  0  0  0  0
   -6.2982   -0.7756    1.6865 H   0  0  0  0  0  0  0  0  0  0  0  0
   -6.8930   -1.4004    4.0458 H   0  0  0  0  0  0  0  0  0  0  0  0
   -8.2411   -1.7414    2.8954 H   0  0  0  0  0  0  0  0  0  0  0  0
   -8.3255   -0.2944    3.9703 H   0  0  0  0  0  0  0  0  0  0  0  0
   -3.6078    4.4552    2.3924 H   0  0  0  0  0  0  0  0  0  0  0  0
    2.1654    9.4061   -0.8563 H   0  0  0  0  0  0  0  0  0  0  0  0
    1.5353    8.9713    0.7606 H   0  0  0  0  0  0  0  0  0  0  0  0
    3.1311    7.2866   -0.1559 H   0  0  0  0  0  0  0  0  0  0  0  0
    2.0653    7.0136   -1.5817 H   0  0  0  0  0  0  0  0  0  0  0  0
    1.5112    6.5440    0.0740 H   0  0  0  0  0  0  0  0  0  0  0  0
   -0.5285   10.4595    0.5030 H   0  0  0  0  0  0  0  0  0  0  0  0
   -1.5642   10.3055   -0.9525 H   0  0  0  0  0  0  0  0  0  0  0  0
    1.2638   11.5153   -0.8175 H   0  0  0  0  0  0  0  0  0  0  0  0
    0.3777   11.1861   -2.3661 H   0  0  0  0  0  0  0  0  0  0  0  0
   -0.2890   12.3411   -1.1581 H   0  0  0  0  0  0  0  0  0  0  0  0
   -0.2076    7.9026    1.9108 H   0  0  0  0  0  0  0  0  0  0  0  0
    0.1027    7.8320   -4.9839 H   0  0  0  0  0  0  0  0  0  0  0  0
   -3.3748    4.4998   -5.7219 H   0  0  0  0  0  0  0  0  0  0  0  0
   -7.7211    1.1212   -4.7898 H   0  0  0  0  0  0  0  0  0  0  0  0
   -6.3839    1.2163   -3.5970 H   0  0  0  0  0  0  0  0  0  0  0  0
   -5.6392   -1.0963   -4.2284 H   0  0  0  0  0  0  0  0  0  0  0  0
   -7.3498   -1.0672   -3.6514 H   0  0  0  0  0  0  0  0  0  0  0  0
   -7.0038   -1.2021   -5.4165 H   0  0  0  0  0  0  0  0  0  0  0  0
    5.8900    4.7059   -9.5665 H   0  0  0  0  0  0  0  0  0  0  0  0
    5.7952    3.3086   -8.4398 H   0  0  0  0  0  0  0  0  0  0  0  0
    6.8774    2.6440  -10.5736 H   0  0  0  0  0  0  0  0  0  0  0  0
    5.3086    1.7756  -10.3739 H   0  0  0  0  0  0  0  0  0  0  0  0
    5.4307    3.1819  -11.5086 H   0  0  0  0  0  0  0  0  0  0  0  0
    1.3150    0.8748   -9.5699 H   0  0  0  0  0  0  0  0  0  0  0  0
    1.9576   -5.8291  -12.3127 H   0  0  0  0  0  0  0  0  0  0  0  0
    1.3568   -4.1425  -12.4199 H   0  0  0  0  0  0  0  0  0  0  0  0
    3.8493   -4.3061  -12.2688 H   0  0  0  0  0  0  0  0  0  0  0  0
    3.1718   -3.3932  -10.8753 H   0  0  0  0  0  0  0  0  0  0  0  0
    3.7146   -5.1083  -10.6627 H   0  0  0  0  0  0  0  0  0  0  0  0
   -1.1569   -5.6424  -10.0579 H   0  0  0  0  0  0  0  0  0  0  0  0
   -0.9432   -4.8335  -11.6432 H   0  0  0  0  0  0  0  0  0  0  0  0
   -1.6025   -7.2333  -11.8365 H   0  0  0  0  0  0  0  0  0  0  0  0
   -0.0190   -6.9292  -12.6190 H   0  0  0  0  0  0  0  0  0  0  0  0
   -0.0948   -7.7396  -10.9979 H   0  0  0  0  0  0  0  0  0  0  0  0
   -0.1253   -2.4680  -11.1705 H   0  0  0  0  0  0  0  0  0  0  0  0
    2.3542   -8.1991   -7.8997 H   0  0  0  0  0  0  0  0  0  0  0  0
    1.0229   -9.0615   -1.2465 H   0  0  0  0  0  0  0  0  0  0  0  0
    1.0588   -7.2708   -1.2915 H   0  0  0  0  0  0  0  0  0  0  0  0
    0.2776   -8.2622    0.8900 H   0  0  0  0  0  0  0  0  0  0  0  0
    1.6748   -7.1557    1.0761 H   0  0  0  0  0  0  0  0  0  0  0  0
    1.9134   -8.9597    1.1530 H   0  0  0  0  0  0  0  0  0  0  0  0
    4.5998   -6.7129   -1.6670 H   0  0  0  0  0  0  0  0  0  0  0  0
    3.1600   -6.0764   -0.8286 H   0  0  0  0  0  0  0  0  0  0  0  0
    5.4517   -7.8011    0.3044 H   0  0  0  0  0  0  0  0  0  0  0  0
    3.9585   -7.4499    1.2518 H   0  0  0  0  0  0  0  0  0  0  0  0
    5.0243   -6.1042    0.7166 H   0  0  0  0  0  0  0  0  0  0  0  0
    2.3998   -6.3005   -3.3851 H   0  0  0  0  0  0  0  0  0  0  0  0
    4.4363  -11.9323    0.2396 H   0  0  0  0  0  0  0  0  0  0  0  0
    4.6711  -13.8629   -1.5169 H   0  0  0  0  0  0  0  0  0  0  0  0
  1  2  2  0
  2  3  1  0
  3  4  2  0
  4  5  1  0
  5  6  1  0
  6  7  1  0
  7  8  1  0
  8  9  1  0
  7 10  2  0
 10 11  1  0
 10 12  1  0
 12 13  1  0
  4 14  1  0
 14 15  2  0
 15 16  1  0
 16 17  1  0
 17 18  1  0
 18 19  1  0
 19 20  1  0
 20 21  1  0
 19 22  2  0
 22 23  1  0
 23 24  1  0
 22 25  1  0
 16 26  2  0
 26 27  1  0
 15 28  1  0
 28 29  2  0
 29 30  1  0
 29 31  1  0
 31 32  2  0
 32 33  1  0
 33 34  2  0
 34 35  1  0
 35 36  1  0
 36 37  1  0
 37 38  1  0
 38 39  1  0
 37 40  2  0
 40 41  1  0
 40 42  1  0
 42 43  1  0
 34 44  1  0
 44 45  2  0
 45 46  1  0
 46 47  1  0
 47 48  1  0
 48 49  1  0
 49 50  1  0
 50 51  1  0
 49 52  2  0
 52 53  1  0
 53 54  1  0
 52 55  1  0
 46 56  2  0
 56 57  1  0
 45 58  1  0
 58 59  2  0
 59 60  1  0
 59 61  1  0
 61 62  1  0
 62 63  1  0
 63 64  1  0
 64 65  2  0
 65 66  1  0
 66 67  1  0
 67 68  1  0
 68 69  1  0
 67 70  1  0
 70 71  1  0
 67 72  1  0
 72 73  1  0
 65 74  1  0
 74 75  2  0
 75 76  1  0
 75 77  1  0
 77 78  2  0
 78 79  1  0
 79 80  2  0
 80 81  1  0
 81 82  1  0
 82 83  1  0
 83 84  1  0
 84 85  1  0
 83 86  2  0
 86 87  1  0
 86 88  1  0
 88 89  1  0
 80 90  1  0
 90 91  2  0
 91 92  1  0
 92 93  1  0
 93 94  1  0
 94 95  1  0
 95 96  1  0
 96 97  1  0
 95 98  2  0
 98 99  1  0
 99100  1  0
 98101  1  0
 92102  2  0
102103  1  0
 91104  1  0
104105  2  0
105106  1  0
105107  1  0
107108  1  0
108109  1  0
109110  1  0
110111  2  0
111112  1  0
112113  1  0
113114  1  0
114115  1  0
113116  1  0
116117  1  0
113118  1  0
118119  1  0
111120  1  0
120121  2  0
121122  1  0
121123  1  0
123124  1  0
124125  1  0
125126  1  0
126127  2  0
127128  1  0
128129  1  0
129130  1  0
130131  1  0
129132  1  0
132133  1  0
129134  1  0
134135  1  0
127136  1  0
136137  2  0
137138  1  0
 27  1  1  0
 57 31  1  0
 73 61  2  0
103 77  1  0
119107  2  0
135123  2  0
 26  3  1  0
 56 33  1  0
 72 63  2  0
102 79  1  0
118109  2  0
134125  2  0
 12  5  2  0
 30 14  1  0
 42 35  2  0
 60 44  1  0
 76 64  1  0
 88 81  2  0
106 90  1  0
122110  1  0
138126  1  0
 23 17  2  0
 53 47  2  0
 99 93  2  0
  1139  1  0
  2140  1  0
  8141  1  0
  8142  1  0
  9143  1  0
  9144  1  0
  9145  1  0
 20146  1  0
 20147  1  0
 21148  1  0
 21149  1  0
 21150  1  0
 28151  1  0
 32152  1  0
 38153  1  0
 38154  1  0
 39155  1  0
 39156  1  0
 39157  1  0
 50158  1  0
 50159  1  0
 51160  1  0
 51161  1  0
 51162  1  0
 58163  1  0
 68164  1  0
 68165  1  0
 69166  1  0
 69167  1  0
 69168  1  0
 70169  1  0
 70170  1  0
 71171  1  0
 71172  1  0
 71173  1  0
 73174  1  0
 74175  1  0
 78176  1  0
 84177  1  0
 84178  1  0
 85179  1  0
 85180  1  0
 85181  1  0
 96182  1  0
 96183  1  0
 97184  1  0
 97185  1  0
 97186  1  0
104187  1  0
114188  1  0
114189  1  0
115190  1  0
115191  1  0
115192  1  0
116193  1  0
116194  1  0
117195  1  0
117196  1  0
117197  1  0
119198  1  0
120199  1  0
130200  1  0
130201  1  0
131202  1  0
131203  1  0
131204  1  0
132205  1  0
132206  1  0
133207  1  0
133208  1  0
133209  1  0
135210  1  0
136211  1  0
137212  1  0
M  END

