
     RDKit          3D

106123  0  0  0  0  0  0  0  0999 V2000
    4.7556    7.0324   12.3040 C   0  0  0  0  0  0  0  0  0  0  0  0
    3.6161    6.2662   12.0547 C   0  0  0  0  0  0  0  0  0  0  0  0
    3.2745    5.8591   10.7423 C   0  0  0  0  0  0  0  0  0  0  0  0
    2.0545    5.1153   10.6522 N   0  0  0  0  0  0  0  0  0  0  0  0
    1.6225    5.0783   12.1883 S   0  0  0  0  0  4  0  0  0  0  0  0
    2.6986    5.8576   13.0728 N   0  0  0  0  0  0  0  0  0  0  0  0
    4.0659    6.2227    9.6379 C   0  0  0  0  0  0  0  0  0  0  0  0
    5.2180    6.9964    9.8872 C   0  0  0  0  0  0  0  0  0  0  0  0
    6.0768    7.3837    8.9086 N   0  0  0  0  0  0  0  0  0  0  0  0
    7.1955    8.2162    9.7968 S   0  0  0  0  0  0  0  0  0  0  0  0
    6.6915    8.1273   11.3688 N   0  0  0  0  0  0  0  0  0  0  0  0
    5.5585    7.3953   11.2200 C   0  0  0  0  0  0  0  0  0  0  0  0
    3.6840    5.8288    8.2665 C   0  0  0  0  0  0  0  0  0  0  0  0
    3.1898    4.2813    7.7910 S   0  0  0  0  0  0  0  0  0  0  0  0
    2.9826    4.6923    6.1751 C   0  0  0  0  0  0  0  0  0  0  0  0
    2.5542    3.8612    5.0680 C   0  0  0  0  0  0  0  0  0  0  0  0
    2.3667    4.4296    3.8358 C   0  0  0  0  0  0  0  0  0  0  0  0
    2.6088    5.7917    3.6120 O   0  0  0  0  0  0  0  0  0  0  0  0
    3.1906    6.6907    4.5899 C   0  0  0  0  0  0  0  0  0  0  0  0
    2.2624    7.9311    4.6968 C   0  0  0  0  0  0  0  0  0  0  0  0
    1.9983    8.6323    3.3600 C   0  0  0  0  0  0  0  0  0  0  0  0
    4.6375    7.0856    4.1536 C   0  0  0  0  0  0  0  0  0  0  0  0
    4.9223    6.8939    2.6588 C   0  0  0  0  0  0  0  0  0  0  0  0
    3.2678    6.0350    5.9777 C   0  0  0  0  0  0  0  0  0  0  0  0
    3.6842    6.6731    7.1563 C   0  0  0  0  0  0  0  0  0  0  0  0
    1.9077    3.5420    2.8674 C   0  0  0  0  0  0  0  0  0  0  0  0
    1.7617    2.2362    3.3533 C   0  0  0  0  0  0  0  0  0  0  0  0
    2.1768    2.2252    5.0024 S   0  0  0  0  0  0  0  0  0  0  0  0
    1.2933    1.0701    2.5568 C   0  0  0  0  0  0  0  0  0  0  0  0
    0.5096    0.0491    3.1326 C   0  0  0  0  0  0  0  0  0  0  0  0
   -0.0166   -1.0124    2.3509 C   0  0  0  0  0  0  0  0  0  0  0  0
   -0.8011   -1.9632    3.0819 N   0  0  0  0  0  0  0  0  0  0  0  0
   -0.7400   -1.3307    4.5443 S   0  0  0  0  0  4  0  0  0  0  0  0
    0.1351    0.0023    4.5150 N   0  0  0  0  0  0  0  0  0  0  0  0
    0.2108   -1.0859    0.9673 C   0  0  0  0  0  0  0  0  0  0  0  0
    1.0201   -0.0925    0.3865 C   0  0  0  0  0  0  0  0  0  0  0  0
    1.3119   -0.0695   -0.9409 N   0  0  0  0  0  0  0  0  0  0  0  0
    2.2857    1.2598   -1.0244 S   0  0  0  0  0  0  0  0  0  0  0  0
    2.3680    1.8491    0.5137 N   0  0  0  0  0  0  0  0  0  0  0  0
    1.5732    0.9669    1.1757 C   0  0  0  0  0  0  0  0  0  0  0  0
   -0.4286   -2.1305    0.1263 C   0  0  0  0  0  0  0  0  0  0  0  0
   -1.8247   -2.2405    0.0537 C   0  0  0  0  0  0  0  0  0  0  0  0
   -2.4527   -3.1103   -0.8733 C   0  0  0  0  0  0  0  0  0  0  0  0
   -3.8838   -3.1166   -0.7940 N   0  0  0  0  0  0  0  0  0  0  0  0
   -4.1293   -2.0357    0.3502 S   0  0  0  0  0  4  0  0  0  0  0  0
   -2.7278   -1.4801    0.8659 N   0  0  0  0  0  0  0  0  0  0  0  0
   -1.7042   -3.8704   -1.7979 C   0  0  0  0  0  0  0  0  0  0  0  0
   -0.2959   -3.8145   -1.6806 C   0  0  0  0  0  0  0  0  0  0  0  0
    0.5445   -4.5233   -2.4798 N   0  0  0  0  0  0  0  0  0  0  0  0
    2.0138   -4.0460   -1.9011 S   0  0  0  0  0  0  0  0  0  0  0  0
    1.6935   -2.9704   -0.6924 N   0  0  0  0  0  0  0  0  0  0  0  0
    0.3343   -2.9592   -0.7164 C   0  0  0  0  0  0  0  0  0  0  0  0
   -2.3712   -4.6120   -2.9082 C   0  0  0  0  0  0  0  0  0  0  0  0
   -1.7257   -5.9289   -3.7574 S   0  0  0  0  0  0  0  0  0  0  0  0
   -2.9520   -6.0055   -4.8948 C   0  0  0  0  0  0  0  0  0  0  0  0
   -3.0943   -6.8950   -6.0293 C   0  0  0  0  0  0  0  0  0  0  0  0
   -4.2526   -6.8724   -6.7588 C   0  0  0  0  0  0  0  0  0  0  0  0
   -5.2912   -5.9924   -6.4243 O   0  0  0  0  0  0  0  0  0  0  0  0
   -5.0884   -4.8138   -5.6054 C   0  0  0  0  0  0  0  0  0  0  0  0
   -4.7675   -3.6447   -6.5810 C   0  0  0  0  0  0  0  0  0  0  0  0
   -4.5641   -2.2721   -5.9343 C   0  0  0  0  0  0  0  0  0  0  0  0
   -6.3885   -4.5897   -4.7868 C   0  0  0  0  0  0  0  0  0  0  0  0
   -7.6293   -4.3447   -5.6506 C   0  0  0  0  0  0  0  0  0  0  0  0
   -3.9034   -5.0324   -4.6444 C   0  0  0  0  0  0  0  0  0  0  0  0
   -3.5670   -4.2355   -3.5363 C   0  0  0  0  0  0  0  0  0  0  0  0
   -4.2732   -7.7847   -7.8138 C   0  0  0  0  0  0  0  0  0  0  0  0
   -3.0781   -8.5045   -7.9215 C   0  0  0  0  0  0  0  0  0  0  0  0
   -2.0334   -8.0179   -6.6761 S   0  0  0  0  0  0  0  0  0  0  0  0
   -2.7406   -9.4871   -8.9819 C   0  0  0  0  0  0  0  0  0  0  0  0
   -1.9375  -10.6116   -8.7033 C   0  0  0  0  0  0  0  0  0  0  0  0
   -1.5859  -11.5371   -9.7172 C   0  0  0  0  0  0  0  0  0  0  0  0
   -0.7694  -12.6307   -9.2850 N   0  0  0  0  0  0  0  0  0  0  0  0
   -0.6272  -12.2842   -7.7337 S   0  0  0  0  0  4  0  0  0  0  0  0
   -1.4247  -10.9398   -7.4064 N   0  0  0  0  0  0  0  0  0  0  0  0
   -2.0218  -11.3749  -11.0313 C   0  0  0  0  0  0  0  0  0  0  0  0
   -2.8143  -10.2656  -11.3326 C   0  0  0  0  0  0  0  0  0  0  0  0
   -3.2663  -10.0213  -12.5886 N   0  0  0  0  0  0  0  0  0  0  0  0
   -4.0886   -8.6099  -12.3390 S   0  0  0  0  0  0  0  0  0  0  0  0
   -3.9218   -8.2613  -10.7313 N   0  0  0  0  0  0  0  0  0  0  0  0
   -3.1751   -9.3194  -10.3175 C   0  0  0  0  0  0  0  0  0  0  0  0
    5.0078    7.3396   13.3107 H   0  0  0  0  0  0  0  0  0  0  0  0
    1.2810    7.6055    5.1075 H   0  0  0  0  0  0  0  0  0  0  0  0
    2.6878    8.6775    5.4029 H   0  0  0  0  0  0  0  0  0  0  0  0
    1.6060    7.9191    2.6060 H   0  0  0  0  0  0  0  0  0  0  0  0
    2.9237    9.1101    2.9815 H   0  0  0  0  0  0  0  0  0  0  0  0
    1.2394    9.4287    3.5083 H   0  0  0  0  0  0  0  0  0  0  0  0
    4.8469    8.1410    4.4331 H   0  0  0  0  0  0  0  0  0  0  0  0
    5.3865    6.4695    4.6990 H   0  0  0  0  0  0  0  0  0  0  0  0
    5.9039    7.3461    2.4090 H   0  0  0  0  0  0  0  0  0  0  0  0
    4.1448    7.3666    2.0302 H   0  0  0  0  0  0  0  0  0  0  0  0
    4.9686    5.8118    2.4206 H   0  0  0  0  0  0  0  0  0  0  0  0
    3.9694    7.7164    7.2028 H   0  0  0  0  0  0  0  0  0  0  0  0
    1.6670    3.8551    1.8610 H   0  0  0  0  0  0  0  0  0  0  0  0
   -3.8429   -3.8947   -7.1474 H   0  0  0  0  0  0  0  0  0  0  0  0
   -5.5788   -3.5617   -7.3359 H   0  0  0  0  0  0  0  0  0  0  0  0
   -3.6105   -2.2433   -5.3673 H   0  0  0  0  0  0  0  0  0  0  0  0
   -4.5036   -1.4984   -6.7328 H   0  0  0  0  0  0  0  0  0  0  0  0
   -5.4094   -2.0045   -5.2704 H   0  0  0  0  0  0  0  0  0  0  0  0
   -6.5760   -5.4998   -4.1725 H   0  0  0  0  0  0  0  0  0  0  0  0
   -6.2855   -3.7427   -4.0780 H   0  0  0  0  0  0  0  0  0  0  0  0
   -7.5895   -3.3344   -6.1113 H   0  0  0  0  0  0  0  0  0  0  0  0
   -7.7176   -5.1113   -6.4504 H   0  0  0  0  0  0  0  0  0  0  0  0
   -8.5393   -4.3941   -5.0159 H   0  0  0  0  0  0  0  0  0  0  0  0
   -4.1433   -3.3679   -3.2513 H   0  0  0  0  0  0  0  0  0  0  0  0
   -5.1222   -7.9029   -8.4709 H   0  0  0  0  0  0  0  0  0  0  0  0
   -1.7448  -12.0862  -11.7980 H   0  0  0  0  0  0  0  0  0  0  0  0
  1  2  2  0
  2  3  1  0
  3  4  1  0
  4  5  2  0
  5  6  2  0
  3  7  2  0
  7  8  1  0
  8  9  2  0
  9 10  1  0
 10 11  1  0
 11 12  2  0
  7 13  1  0
 13 14  1  0
 14 15  1  0
 15 16  1  0
 16 17  2  0
 17 18  1  0
 18 19  1  0
 19 20  1  0
 20 21  1  0
 19 22  1  0
 22 23  1  0
 19 24  1  0
 24 25  1  0
 17 26  1  0
 26 27  2  0
 27 28  1  0
 27 29  1  0
 29 30  2  0
 30 31  1  0
 31 32  1  0
 32 33  2  0
 33 34  2  0
 31 35  2  0
 35 36  1  0
 36 37  2  0
 37 38  1  0
 38 39  1  0
 39 40  2  0
 35 41  1  0
 41 42  2  0
 42 43  1  0
 43 44  1  0
 44 45  2  0
 45 46  2  0
 43 47  2  0
 47 48  1  0
 48 49  2  0
 49 50  1  0
 50 51  1  0
 51 52  2  0
 47 53  1  0
 53 54  1  0
 54 55  1  0
 55 56  1  0
 56 57  2  0
 57 58  1  0
 58 59  1  0
 59 60  1  0
 60 61  1  0
 59 62  1  0
 62 63  1  0
 59 64  1  0
 64 65  1  0
 57 66  1  0
 66 67  2  0
 67 68  1  0
 67 69  1  0
 69 70  2  0
 70 71  1  0
 71 72  1  0
 72 73  2  0
 73 74  2  0
 71 75  2  0
 75 76  1  0
 76 77  2  0
 77 78  1  0
 78 79  1  0
 79 80  2  0
 12  1  1  0
 25 13  2  0
 40 29  1  0
 52 41  1  0
 65 53  2  0
 80 69  1  0
  6  2  1  0
 12  8  1  0
 24 15  2  0
 34 30  1  0
 40 36  1  0
 46 42  1  0
 52 48  1  0
 64 55  2  0
 74 70  1  0
 80 76  1  0
 28 16  1  0
 68 56  1  0
  1 81  1  0
 20 82  1  0
 20 83  1  0
 21 84  1  0
 21 85  1  0
 21 86  1  0
 22 87  1  0
 22 88  1  0
 23 89  1  0
 23 90  1  0
 23 91  1  0
 25 92  1  0
 26 93  1  0
 60 94  1  0
 60 95  1  0
 61 96  1  0
 61 97  1  0
 61 98  1  0
 62 99  1  0
 62100  1  0
 63101  1  0
 63102  1  0
 63103  1  0
 65104  1  0
 66105  1  0
 75106  1  0
M  END

