
     RDKit          3D

105112  0  0  0  0  0  0  0  0999 V2000
   -2.5305    0.9269  -10.3804 C   0  0  0  0  0  0  0  0  0  0  0  0
   -2.3037    0.3112   -9.3695 C   0  0  0  0  0  0  0  0  0  0  0  0
   -2.0258   -0.4279   -8.1697 C   0  0  0  0  0  0  0  0  0  0  0  0
   -0.4895   -0.8717   -7.6552 S   0  0  0  0  0  0  0  0  0  0  0  0
   -1.0191   -1.6466   -6.2590 C   0  0  0  0  0  0  0  0  0  0  0  0
   -2.4014   -1.5524   -6.1699 C   0  0  0  0  0  0  0  0  0  0  0  0
   -2.9687   -0.8688   -7.2514 C   0  0  0  0  0  0  0  0  0  0  0  0
   -0.1577   -2.2236   -5.2688 C   0  0  0  0  0  0  0  0  0  0  0  0
    0.5827   -2.6729   -4.4297 C   0  0  0  0  0  0  0  0  0  0  0  0
    1.4831   -3.1794   -3.4307 C   0  0  0  0  0  0  0  0  0  0  0  0
    1.4506   -2.8093   -2.1442 C   0  0  0  0  0  0  0  0  0  0  0  0
    0.4355   -1.9391   -1.5147 C   0  0  0  0  0  0  0  0  0  0  0  0
    0.6950   -1.1226   -0.0588 S   0  0  0  0  0  0  0  0  0  0  0  0
   -0.8697   -0.5312    0.0665 C   0  0  0  0  0  0  0  0  0  0  0  0
   -1.4732    0.2226    1.1464 C   0  0  0  0  0  0  0  0  0  0  0  0
   -2.8041    0.5634    1.0763 C   0  0  0  0  0  0  0  0  0  0  0  0
   -3.5806    0.2363   -0.0453 O   0  0  0  0  0  0  0  0  0  0  0  0
   -3.1309   -0.6406   -1.1101 C   0  0  0  0  0  0  0  0  0  0  0  0
   -3.9568   -1.9521   -1.0361 C   0  0  0  0  0  0  0  0  0  0  0  0
   -3.8519   -2.6583    0.3219 C   0  0  0  0  0  0  0  0  0  0  0  0
   -3.4196    0.0563   -2.4612 C   0  0  0  0  0  0  0  0  0  0  0  0
   -2.7067    1.3983   -2.6082 C   0  0  0  0  0  0  0  0  0  0  0  0
   -1.6300   -0.9642   -1.0029 C   0  0  0  0  0  0  0  0  0  0  0  0
   -0.9023   -1.7748   -1.8893 C   0  0  0  0  0  0  0  0  0  0  0  0
   -3.2848    1.1957    2.2242 C   0  0  0  0  0  0  0  0  0  0  0  0
   -2.2982    1.3170    3.2009 C   0  0  0  0  0  0  0  0  0  0  0  0
   -0.8451    0.6497    2.6462 S   0  0  0  0  0  0  0  0  0  0  0  0
   -2.5294    1.7447    4.5504 C   0  0  0  0  0  0  0  0  0  0  0  0
   -2.7120    2.0563    5.7008 C   0  0  0  0  0  0  0  0  0  0  0  0
   -2.9137    2.3666    7.0876 C   0  0  0  0  0  0  0  0  0  0  0  0
   -3.2438    1.2247    8.2713 S   0  0  0  0  0  0  0  0  0  0  0  0
   -3.1791    2.3039    9.5553 C   0  0  0  0  0  0  0  0  0  0  0  0
   -2.8653    3.5699    9.0787 C   0  0  0  0  0  0  0  0  0  0  0  0
   -2.7252    3.6091    7.6840 C   0  0  0  0  0  0  0  0  0  0  0  0
   -3.1984    1.9080   10.9346 C   0  0  0  0  0  0  0  0  0  0  0  0
   -3.1479    1.5177   12.0741 C   0  0  0  0  0  0  0  0  0  0  0  0
   -3.0006    0.9737   13.4049 C   0  0  0  0  0  0  0  0  0  0  0  0
   -2.0984    0.0219   13.6664 C   0  0  0  0  0  0  0  0  0  0  0  0
   -1.2387   -0.4955   12.6262 C   0  0  0  0  0  0  0  0  0  0  0  0
   -0.5667   -0.8640   11.6949 C   0  0  0  0  0  0  0  0  0  0  0  0
    0.1871   -1.2378   10.5339 C   0  0  0  0  0  0  0  0  0  0  0  0
    1.1584   -0.1841    9.6558 S   0  0  0  0  0  0  0  0  0  0  0  0
    1.4545   -1.2624    8.3967 C   0  0  0  0  0  0  0  0  0  0  0  0
    0.7789   -2.4516    8.6393 C   0  0  0  0  0  0  0  0  0  0  0  0
    0.0624   -2.4367    9.8424 C   0  0  0  0  0  0  0  0  0  0  0  0
    2.2104   -0.9596    7.2144 C   0  0  0  0  0  0  0  0  0  0  0  0
    2.8368   -0.6926    6.2201 C   0  0  0  0  0  0  0  0  0  0  0  0
    3.5830   -0.3726    5.0341 C   0  0  0  0  0  0  0  0  0  0  0  0
    3.0388    0.3743    4.0755 C   0  0  0  0  0  0  0  0  0  0  0  0
    3.7854    0.7099    2.8940 C   0  0  0  0  0  0  0  0  0  0  0  0
    4.4122    0.9929    1.9055 C   0  0  0  0  0  0  0  0  0  0  0  0
    5.1674    1.3337    0.7343 C   0  0  0  0  0  0  0  0  0  0  0  0
    5.5611    0.2576   -0.4997 S   0  0  0  0  0  0  0  0  0  0  0  0
    6.3874    1.3908   -1.4269 C   0  0  0  0  0  0  0  0  0  0  0  0
    6.3613    2.6244   -0.7842 C   0  0  0  0  0  0  0  0  0  0  0  0
    5.6810    2.5899    0.4382 C   0  0  0  0  0  0  0  0  0  0  0  0
    6.9350    1.1424   -2.7282 C   0  0  0  0  0  0  0  0  0  0  0  0
    7.3582    0.9390   -3.8385 C   0  0  0  0  0  0  0  0  0  0  0  0
    7.8009    0.7075   -5.1909 C   0  0  0  0  0  0  0  0  0  0  0  0
    6.9532    0.7516   -6.2256 C   0  0  0  0  0  0  0  0  0  0  0  0
    5.5463    1.0269   -6.0418 C   0  0  0  0  0  0  0  0  0  0  0  0
    4.3815    1.2580   -5.8330 C   0  0  0  0  0  0  0  0  0  0  0  0
    3.0055    1.5261   -5.5342 C   0  0  0  0  0  0  0  0  0  0  0  0
    2.3185    3.0600   -5.4456 S   0  0  0  0  0  0  0  0  0  0  0  0
    0.8231    2.5199   -4.8998 C   0  0  0  0  0  0  0  0  0  0  0  0
    0.8484    1.1382   -4.7628 C   0  0  0  0  0  0  0  0  0  0  0  0
    2.0803    0.5785   -5.1173 C   0  0  0  0  0  0  0  0  0  0  0  0
   -0.2767    3.3672   -4.5488 C   0  0  0  0  0  0  0  0  0  0  0  0
   -1.2065    4.0680   -4.2366 C   0  0  0  0  0  0  0  0  0  0  0  0
   -2.3172    4.8913   -3.8468 C   0  0  0  0  0  0  0  0  0  0  0  0
   -2.3749    5.4263   -2.6307 C   0  0  0  0  0  0  0  0  0  0  0  0
   -2.7196    1.4687  -11.2675 H   0  0  0  0  0  0  0  0  0  0  0  0
   -2.9838   -1.9655   -5.3562 H   0  0  0  0  0  0  0  0  0  0  0  0
   -4.0344   -0.6978   -7.3539 H   0  0  0  0  0  0  0  0  0  0  0  0
    2.2868   -3.8239   -3.7642 H   0  0  0  0  0  0  0  0  0  0  0  0
    2.2524   -3.1544   -1.5067 H   0  0  0  0  0  0  0  0  0  0  0  0
   -5.0331   -1.7216   -1.2151 H   0  0  0  0  0  0  0  0  0  0  0  0
   -3.6356   -2.6577   -1.8305 H   0  0  0  0  0  0  0  0  0  0  0  0
   -2.7929   -2.8988    0.5616 H   0  0  0  0  0  0  0  0  0  0  0  0
   -4.2756   -2.0213    1.1217 H   0  0  0  0  0  0  0  0  0  0  0  0
   -4.4335   -3.6056    0.2916 H   0  0  0  0  0  0  0  0  0  0  0  0
   -4.5128    0.2390   -2.5598 H   0  0  0  0  0  0  0  0  0  0  0  0
   -3.1192   -0.6030   -3.3046 H   0  0  0  0  0  0  0  0  0  0  0  0
   -2.9405    1.8285   -3.6064 H   0  0  0  0  0  0  0  0  0  0  0  0
   -3.0485    2.1129   -1.8313 H   0  0  0  0  0  0  0  0  0  0  0  0
   -1.6065    1.2732   -2.5306 H   0  0  0  0  0  0  0  0  0  0  0  0
   -1.3584   -2.2657   -2.7349 H   0  0  0  0  0  0  0  0  0  0  0  0
   -4.3166    1.4988    2.3588 H   0  0  0  0  0  0  0  0  0  0  0  0
   -2.7054    4.4319    9.7168 H   0  0  0  0  0  0  0  0  0  0  0  0
   -2.4496    4.5001    7.1340 H   0  0  0  0  0  0  0  0  0  0  0  0
   -3.6330    1.3434   14.2002 H   0  0  0  0  0  0  0  0  0  0  0  0
   -2.0022   -0.3725   14.6724 H   0  0  0  0  0  0  0  0  0  0  0  0
    0.7821   -3.2932    7.9581 H   0  0  0  0  0  0  0  0  0  0  0  0
   -0.5518   -3.2609   10.1801 H   0  0  0  0  0  0  0  0  0  0  0  0
    4.5957   -0.7431    4.9375 H   0  0  0  0  0  0  0  0  0  0  0  0
    2.0258    0.7475    4.1722 H   0  0  0  0  0  0  0  0  0  0  0  0
    6.8046    3.5235   -1.1895 H   0  0  0  0  0  0  0  0  0  0  0  0
    5.5518    3.4535    1.0749 H   0  0  0  0  0  0  0  0  0  0  0  0
    8.8495    0.5030   -5.3686 H   0  0  0  0  0  0  0  0  0  0  0  0
    7.3284    0.5696   -7.2253 H   0  0  0  0  0  0  0  0  0  0  0  0
    0.0123    0.5520   -4.4008 H   0  0  0  0  0  0  0  0  0  0  0  0
    2.2977   -0.4805   -5.0584 H   0  0  0  0  0  0  0  0  0  0  0  0
   -3.1193    5.0571   -4.5508 H   0  0  0  0  0  0  0  0  0  0  0  0
   -3.2266    6.0329   -2.3518 H   0  0  0  0  0  0  0  0  0  0  0  0
   -1.5790    5.2703   -1.9089 H   0  0  0  0  0  0  0  0  0  0  0  0
  1  2  3  0
  2  3  1  0
  3  4  1  0
  4  5  1  0
  5  6  2  0
  6  7  1  0
  5  8  1  0
  8  9  3  0
  9 10  1  0
 10 11  2  3
 11 12  1  0
 12 13  1  0
 13 14  1  0
 14 15  1  0
 15 16  2  0
 16 17  1  0
 17 18  1  0
 18 19  1  0
 19 20  1  0
 18 21  1  0
 21 22  1  0
 18 23  1  0
 23 24  1  0
 16 25  1  0
 25 26  2  0
 26 27  1  0
 26 28  1  0
 28 29  3  0
 29 30  1  0
 30 31  1  0
 31 32  1  0
 32 33  2  0
 33 34  1  0
 32 35  1  0
 35 36  3  0
 36 37  1  0
 37 38  2  3
 38 39  1  0
 39 40  3  0
 40 41  1  0
 41 42  1  0
 42 43  1  0
 43 44  2  0
 44 45  1  0
 43 46  1  0
 46 47  3  0
 47 48  1  0
 48 49  2  3
 49 50  1  0
 50 51  3  0
 51 52  1  0
 52 53  1  0
 53 54  1  0
 54 55  2  0
 55 56  1  0
 54 57  1  0
 57 58  3  0
 58 59  1  0
 59 60  2  3
 60 61  1  0
 61 62  3  0
 62 63  1  0
 63 64  1  0
 64 65  1  0
 65 66  2  0
 66 67  1  0
 65 68  1  0
 68 69  3  0
 69 70  1  0
 70 71  2  3
  7  3  2  0
 24 12  2  0
 34 30  2  0
 45 41  2  0
 56 52  2  0
 67 63  2  0
 23 14  2  0
 27 15  1  0
  1 72  1  0
  6 73  1  0
  7 74  1  0
 10 75  1  0
 11 76  1  0
 19 77  1  0
 19 78  1  0
 20 79  1  0
 20 80  1  0
 20 81  1  0
 21 82  1  0
 21 83  1  0
 22 84  1  0
 22 85  1  0
 22 86  1  0
 24 87  1  0
 25 88  1  0
 33 89  1  0
 34 90  1  0
 37 91  1  0
 38 92  1  0
 44 93  1  0
 45 94  1  0
 48 95  1  0
 49 96  1  0
 55 97  1  0
 56 98  1  0
 59 99  1  0
 60100  1  0
 66101  1  0
 67102  1  0
 70103  1  0
 71104  1  0
 71105  1  0
M  END

