
     RDKit          3D

212235  0  0  0  0  0  0  0  0999 V2000
    2.7492   -7.9218    7.4299 C   0  0  0  0  0  0  0  0  0  0  0  0
    2.9006   -6.5752    7.7515 C   0  0  0  0  0  0  0  0  0  0  0  0
    1.7332   -5.8211    7.5344 C   0  0  0  0  0  0  0  0  0  0  0  0
    1.5786   -4.4412    7.7590 C   0  0  0  0  0  0  0  0  0  0  0  0
    2.7044   -3.5875    8.1754 C   0  0  0  0  0  0  0  0  0  0  0  0
    4.0436   -3.2439    7.2166 S   0  0  0  0  0  0  0  0  0  0  0  0
    4.7427   -2.1276    8.2642 C   0  0  0  0  0  0  0  0  0  0  0  0
    5.9517   -1.3011    7.9416 C   0  0  0  0  0  0  0  0  0  0  0  0
    5.5589   -0.0750    7.1220 C   0  0  0  0  0  0  0  0  0  0  0  0
    3.9123   -1.9904    9.3764 C   0  0  0  0  0  0  0  0  0  0  0  0
    4.2252   -0.8567   10.6882 Cl  0  0  0  0  0  0  0  0  0  0  0  0
    2.7732   -2.8117    9.3282 C   0  0  0  0  0  0  0  0  0  0  0  0
    1.5579   -2.8498   10.5997 Cl  0  0  0  0  0  0  0  0  0  0  0  0
    0.3212   -3.8849    7.4637 C   0  0  0  0  0  0  0  0  0  0  0  0
   -0.7411   -4.6411    6.9588 C   0  0  0  0  0  0  0  0  0  0  0  0
   -0.5916   -6.0289    6.7561 C   0  0  0  0  0  0  0  0  0  0  0  0
   -1.6930   -6.8700    6.2485 C   0  0  0  0  0  0  0  0  0  0  0  0
   -1.6629   -7.7360    4.8034 S   0  0  0  0  0  0  0  0  0  0  0  0
   -3.2124   -8.3782    4.9501 C   0  0  0  0  0  0  0  0  0  0  0  0
   -3.8867   -9.2183    3.9090 C   0  0  0  0  0  0  0  0  0  0  0  0
   -4.5858   -8.3351    2.8800 C   0  0  0  0  0  0  0  0  0  0  0  0
   -3.7796   -7.9070    6.1352 C   0  0  0  0  0  0  0  0  0  0  0  0
   -2.9258   -7.0694    6.8652 C   0  0  0  0  0  0  0  0  0  0  0  0
   -3.3511   -6.3846    8.4296 Cl  0  0  0  0  0  0  0  0  0  0  0  0
   -5.4020   -8.3308    6.6687 Cl  0  0  0  0  0  0  0  0  0  0  0  0
    0.6690   -6.5835    7.0453 C   0  0  0  0  0  0  0  0  0  0  0  0
    1.1742   -8.1816    6.8848 S   0  0  0  0  0  0  0  0  0  0  0  0
   -1.8650   -3.8624    6.6173 C   0  0  0  0  0  0  0  0  0  0  0  0
   -1.6794   -2.5020    6.8640 C   0  0  0  0  0  0  0  0  0  0  0  0
   -0.1279   -2.2673    7.4942 S   0  0  0  0  0  0  0  0  0  0  0  0
   -2.5785   -1.4130    6.4492 C   0  0  0  0  0  0  0  0  0  0  0  0
   -2.3020   -0.0582    6.6196 C   0  0  0  0  0  0  0  0  0  0  0  0
   -3.1809    0.7774    5.9134 C   0  0  0  0  0  0  0  0  0  0  0  0
   -3.0610    2.1729    5.7850 C   0  0  0  0  0  0  0  0  0  0  0  0
   -1.9175    2.9004    6.3681 C   0  0  0  0  0  0  0  0  0  0  0  0
   -1.7036    3.2106    8.0078 S   0  0  0  0  0  0  0  0  0  0  0  0
   -0.2140    3.9831    7.8435 C   0  0  0  0  0  0  0  0  0  0  0  0
    0.6308    4.4617    8.9833 C   0  0  0  0  0  0  0  0  0  0  0  0
    1.5646    3.3513    9.4560 C   0  0  0  0  0  0  0  0  0  0  0  0
    0.1501    3.9719    6.4999 C   0  0  0  0  0  0  0  0  0  0  0  0
    1.6553    4.6496    5.8871 Cl  0  0  0  0  0  0  0  0  0  0  0  0
   -0.8046    3.3682    5.6694 C   0  0  0  0  0  0  0  0  0  0  0  0
   -0.5790    3.1437    3.9380 Cl  0  0  0  0  0  0  0  0  0  0  0  0
   -3.9405    2.8072    4.8968 C   0  0  0  0  0  0  0  0  0  0  0  0
   -4.8918    2.1153    4.1410 C   0  0  0  0  0  0  0  0  0  0  0  0
   -5.0300    0.7150    4.2867 C   0  0  0  0  0  0  0  0  0  0  0  0
   -5.9512   -0.0678    3.4404 C   0  0  0  0  0  0  0  0  0  0  0  0
   -5.4719   -1.2157    2.3078 S   0  0  0  0  0  0  0  0  0  0  0  0
   -7.0219   -1.6143    1.7900 C   0  0  0  0  0  0  0  0  0  0  0  0
   -7.3318   -2.6756    0.7753 C   0  0  0  0  0  0  0  0  0  0  0  0
   -7.1503   -4.0671    1.3747 C   0  0  0  0  0  0  0  0  0  0  0  0
   -7.9425   -0.8528    2.5087 C   0  0  0  0  0  0  0  0  0  0  0  0
   -7.3396    0.0226    3.4229 C   0  0  0  0  0  0  0  0  0  0  0  0
   -8.2519    1.0926    4.4774 Cl  0  0  0  0  0  0  0  0  0  0  0  0
   -9.6867   -0.9924    2.3208 Cl  0  0  0  0  0  0  0  0  0  0  0  0
   -4.1510    0.0787    5.1848 C   0  0  0  0  0  0  0  0  0  0  0  0
   -3.9252   -1.5736    5.4357 S   0  0  0  0  0  0  0  0  0  0  0  0
   -5.4841    2.9164    3.1419 C   0  0  0  0  0  0  0  0  0  0  0  0
   -4.9910    4.2239    3.1255 C   0  0  0  0  0  0  0  0  0  0  0  0
   -3.8431    4.3898    4.3440 S   0  0  0  0  0  0  0  0  0  0  0  0
   -4.9755    5.0745    1.9315 C   0  0  0  0  0  0  0  0  0  0  0  0
   -3.5420    5.5539    1.1922 S   0  0  0  0  0  0  0  0  0  0  0  0
   -4.2859    6.1772   -0.1659 C   0  0  0  0  0  0  0  0  0  0  0  0
   -3.6558    6.6648   -1.3686 C   0  0  0  0  0  0  0  0  0  0  0  0
   -4.4260    7.0968   -2.4133 C   0  0  0  0  0  0  0  0  0  0  0  0
   -5.8219    7.1754   -2.2761 O   0  0  0  0  0  0  0  0  0  0  0  0
   -6.5692    6.4278   -1.2766 C   0  0  0  0  0  0  0  0  0  0  0  0
   -7.0955    5.1528   -2.0003 C   0  0  0  0  0  0  0  0  0  0  0  0
   -8.0164    4.2345   -1.1935 C   0  0  0  0  0  0  0  0  0  0  0  0
   -7.7001    7.3509   -0.7490 C   0  0  0  0  0  0  0  0  0  0  0  0
   -8.6575    7.8538   -1.8317 C   0  0  0  0  0  0  0  0  0  0  0  0
   -5.6611    6.0304   -0.0899 C   0  0  0  0  0  0  0  0  0  0  0  0
   -6.0564    5.4027    1.1099 C   0  0  0  0  0  0  0  0  0  0  0  0
   -3.6948    7.3642   -3.5806 C   0  0  0  0  0  0  0  0  0  0  0  0
   -2.3345    7.0715   -3.4283 C   0  0  0  0  0  0  0  0  0  0  0  0
   -2.0587    6.5319   -1.8459 S   0  0  0  0  0  0  0  0  0  0  0  0
   -1.3293    6.9523   -4.4971 C   0  0  0  0  0  0  0  0  0  0  0  0
    0.1491    6.1714   -4.2769 S   0  0  0  0  0  0  0  0  0  0  0  0
    0.5798    6.1902   -5.8881 C   0  0  0  0  0  0  0  0  0  0  0  0
    1.6402    5.4340   -6.5150 C   0  0  0  0  0  0  0  0  0  0  0  0
    1.6122    5.2438   -7.8723 C   0  0  0  0  0  0  0  0  0  0  0  0
    0.6960    5.9386   -8.6838 O   0  0  0  0  0  0  0  0  0  0  0  0
   -0.2809    6.8913   -8.1791 C   0  0  0  0  0  0  0  0  0  0  0  0
    0.1650    8.3524   -8.5176 C   0  0  0  0  0  0  0  0  0  0  0  0
    1.2161    8.4476   -9.6271 C   0  0  0  0  0  0  0  0  0  0  0  0
   -1.6423    6.5460   -8.8382 C   0  0  0  0  0  0  0  0  0  0  0  0
   -1.5978    6.4927  -10.3681 C   0  0  0  0  0  0  0  0  0  0  0  0
   -0.4207    6.7784   -6.6467 C   0  0  0  0  0  0  0  0  0  0  0  0
   -1.4973    7.2357   -5.8548 C   0  0  0  0  0  0  0  0  0  0  0  0
    2.4741    4.2361   -8.3203 C   0  0  0  0  0  0  0  0  0  0  0  0
    3.1450    3.6020   -7.2684 C   0  0  0  0  0  0  0  0  0  0  0  0
    2.6789    4.3229   -5.8110 S   0  0  0  0  0  0  0  0  0  0  0  0
    3.8428    2.3075   -7.3353 C   0  0  0  0  0  0  0  0  0  0  0  0
    4.4622    1.5010   -5.9875 S   0  0  0  0  0  0  0  0  0  0  0  0
    4.6467    0.0221   -6.7553 C   0  0  0  0  0  0  0  0  0  0  0  0
    4.8142   -1.2723   -6.1242 C   0  0  0  0  0  0  0  0  0  0  0  0
    4.3893   -2.4015   -6.7868 C   0  0  0  0  0  0  0  0  0  0  0  0
    3.9758   -2.3430   -8.1261 O   0  0  0  0  0  0  0  0  0  0  0  0
    4.0689   -1.1486   -8.9450 C   0  0  0  0  0  0  0  0  0  0  0  0
    2.7916   -1.1153   -9.8284 C   0  0  0  0  0  0  0  0  0  0  0  0
    1.5013   -1.0808   -9.0037 C   0  0  0  0  0  0  0  0  0  0  0  0
    5.3407   -1.3047   -9.8183 C   0  0  0  0  0  0  0  0  0  0  0  0
    5.6200   -0.1442  -10.7816 C   0  0  0  0  0  0  0  0  0  0  0  0
    4.1906    0.1119   -8.0643 C   0  0  0  0  0  0  0  0  0  0  0  0
    3.7782    1.4138   -8.4041 C   0  0  0  0  0  0  0  0  0  0  0  0
    4.3070   -3.5359   -5.9767 C   0  0  0  0  0  0  0  0  0  0  0  0
    4.6848   -3.2724   -4.6611 C   0  0  0  0  0  0  0  0  0  0  0  0
    5.0853   -1.6364   -4.5077 S   0  0  0  0  0  0  0  0  0  0  0  0
    4.5074   -4.1747   -3.5208 C   0  0  0  0  0  0  0  0  0  0  0  0
    3.2992   -4.7563   -3.1461 C   0  0  0  0  0  0  0  0  0  0  0  0
    3.3771   -5.4131   -1.9050 C   0  0  0  0  0  0  0  0  0  0  0  0
    2.3155   -6.0514   -1.2315 C   0  0  0  0  0  0  0  0  0  0  0  0
    0.9316   -5.9834   -1.7300 C   0  0  0  0  0  0  0  0  0  0  0  0
    0.0115   -4.5762   -1.7833 S   0  0  0  0  0  0  0  0  0  0  0  0
   -1.3897   -5.2955   -2.3768 C   0  0  0  0  0  0  0  0  0  0  0  0
   -2.6881   -4.5738   -2.5825 C   0  0  0  0  0  0  0  0  0  0  0  0
   -3.5649   -4.6788   -1.3401 C   0  0  0  0  0  0  0  0  0  0  0  0
   -1.1582   -6.6631   -2.5204 C   0  0  0  0  0  0  0  0  0  0  0  0
   -2.3864   -7.8009   -3.0730 Cl  0  0  0  0  0  0  0  0  0  0  0  0
    0.1414   -7.0503   -2.1542 C   0  0  0  0  0  0  0  0  0  0  0  0
    0.7169   -8.7087   -2.2397 Cl  0  0  0  0  0  0  0  0  0  0  0  0
    2.6128   -6.6394    0.0103 C   0  0  0  0  0  0  0  0  0  0  0  0
    3.8933   -6.6070    0.5714 C   0  0  0  0  0  0  0  0  0  0  0  0
    4.9551   -5.9670   -0.1003 C   0  0  0  0  0  0  0  0  0  0  0  0
    6.3166   -5.9032    0.4632 C   0  0  0  0  0  0  0  0  0  0  0  0
    7.1399   -4.4832    0.8301 S   0  0  0  0  0  0  0  0  0  0  0  0
    8.5610   -5.2230    1.3399 C   0  0  0  0  0  0  0  0  0  0  0  0
    9.8041   -4.4925    1.7523 C   0  0  0  0  0  0  0  0  0  0  0  0
   10.7547   -4.3186    0.5712 C   0  0  0  0  0  0  0  0  0  0  0  0
    8.4170   -6.6033    1.2038 C   0  0  0  0  0  0  0  0  0  0  0  0
    7.1604   -6.9830    0.7128 C   0  0  0  0  0  0  0  0  0  0  0  0
    6.7244   -8.6513    0.3756 Cl  0  0  0  0  0  0  0  0  0  0  0  0
    9.6964   -7.7531    1.5741 Cl  0  0  0  0  0  0  0  0  0  0  0  0
    4.6545   -5.3667   -1.3368 C   0  0  0  0  0  0  0  0  0  0  0  0
    5.6706   -4.4720   -2.3394 S   0  0  0  0  0  0  0  0  0  0  0  0
    3.9493   -7.1972    1.8452 C   0  0  0  0  0  0  0  0  0  0  0  0
    2.7231   -7.6975    2.2755 C   0  0  0  0  0  0  0  0  0  0  0  0
    1.5627   -7.4013    1.0871 S   0  0  0  0  0  0  0  0  0  0  0  0
    3.5233   -8.6761    7.5089 H   0  0  0  0  0  0  0  0  0  0  0  0
    3.8289   -6.1638    8.1245 H   0  0  0  0  0  0  0  0  0  0  0  0
    6.6737   -1.9197    7.3656 H   0  0  0  0  0  0  0  0  0  0  0  0
    6.4509   -0.9797    8.8820 H   0  0  0  0  0  0  0  0  0  0  0  0
    4.7060    0.4480    7.6006 H   0  0  0  0  0  0  0  0  0  0  0  0
    6.4152    0.6240    7.0577 H   0  0  0  0  0  0  0  0  0  0  0  0
    5.2636   -0.3811    6.0971 H   0  0  0  0  0  0  0  0  0  0  0  0
   -4.6258   -9.8936    4.3896 H   0  0  0  0  0  0  0  0  0  0  0  0
   -3.1266   -9.8534    3.3990 H   0  0  0  0  0  0  0  0  0  0  0  0
   -3.8371   -7.7206    2.3359 H   0  0  0  0  0  0  0  0  0  0  0  0
   -5.3129   -7.6624    3.3819 H   0  0  0  0  0  0  0  0  0  0  0  0
   -5.1342   -8.9628    2.1510 H   0  0  0  0  0  0  0  0  0  0  0  0
   -2.7573   -4.2648    6.1543 H   0  0  0  0  0  0  0  0  0  0  0  0
   -1.4470    0.3079    7.1794 H   0  0  0  0  0  0  0  0  0  0  0  0
    1.2231    5.3456    8.6651 H   0  0  0  0  0  0  0  0  0  0  0  0
   -0.0255    4.7744    9.8249 H   0  0  0  0  0  0  0  0  0  0  0  0
    2.2110    3.0095    8.6211 H   0  0  0  0  0  0  0  0  0  0  0  0
    0.9712    2.4941    9.8380 H   0  0  0  0  0  0  0  0  0  0  0  0
    2.2125    3.7318   10.2742 H   0  0  0  0  0  0  0  0  0  0  0  0
   -8.3729   -2.5654    0.3997 H   0  0  0  0  0  0  0  0  0  0  0  0
   -6.6430   -2.5654   -0.0899 H   0  0  0  0  0  0  0  0  0  0  0  0
   -7.4762   -4.8339    0.6390 H   0  0  0  0  0  0  0  0  0  0  0  0
   -6.0772   -4.2427    1.6103 H   0  0  0  0  0  0  0  0  0  0  0  0
   -7.7552   -4.1796    2.3041 H   0  0  0  0  0  0  0  0  0  0  0  0
   -6.1356    2.5278    2.3706 H   0  0  0  0  0  0  0  0  0  0  0  0
   -7.6351    5.4594   -2.9206 H   0  0  0  0  0  0  0  0  0  0  0  0
   -6.2221    4.5527   -2.3395 H   0  0  0  0  0  0  0  0  0  0  0  0
   -8.4513    3.4740   -1.8783 H   0  0  0  0  0  0  0  0  0  0  0  0
   -7.4537    3.6876   -0.4110 H   0  0  0  0  0  0  0  0  0  0  0  0
   -8.8612    4.7912   -0.7461 H   0  0  0  0  0  0  0  0  0  0  0  0
   -8.2910    6.8487    0.0438 H   0  0  0  0  0  0  0  0  0  0  0  0
   -7.2324    8.2410   -0.2744 H   0  0  0  0  0  0  0  0  0  0  0  0
   -9.3536    8.5994   -1.3909 H   0  0  0  0  0  0  0  0  0  0  0  0
   -9.2652    7.0206   -2.2421 H   0  0  0  0  0  0  0  0  0  0  0  0
   -8.0976    8.3498   -2.6534 H   0  0  0  0  0  0  0  0  0  0  0  0
   -7.0802    5.1652    1.3656 H   0  0  0  0  0  0  0  0  0  0  0  0
   -4.1536    7.6696   -4.5133 H   0  0  0  0  0  0  0  0  0  0  0  0
    0.6005    8.8465   -7.6222 H   0  0  0  0  0  0  0  0  0  0  0  0
   -0.7152    8.9682   -8.8095 H   0  0  0  0  0  0  0  0  0  0  0  0
    2.1880    8.0607   -9.2527 H   0  0  0  0  0  0  0  0  0  0  0  0
    0.9180    7.8765  -10.5262 H   0  0  0  0  0  0  0  0  0  0  0  0
    1.3678    9.5139   -9.9044 H   0  0  0  0  0  0  0  0  0  0  0  0
   -1.9763    5.5532   -8.4709 H   0  0  0  0  0  0  0  0  0  0  0  0
   -2.4171    7.2845   -8.5457 H   0  0  0  0  0  0  0  0  0  0  0  0
   -1.4197    7.5016  -10.7904 H   0  0  0  0  0  0  0  0  0  0  0  0
   -0.8076    5.7962  -10.7200 H   0  0  0  0  0  0  0  0  0  0  0  0
   -2.5725    6.1296  -10.7510 H   0  0  0  0  0  0  0  0  0  0  0  0
   -2.3869    7.7012   -6.2583 H   0  0  0  0  0  0  0  0  0  0  0  0
    2.5221    3.9187   -9.3546 H   0  0  0  0  0  0  0  0  0  0  0  0
    2.7880   -0.2428  -10.5127 H   0  0  0  0  0  0  0  0  0  0  0  0
    2.7667   -2.0259  -10.4659 H   0  0  0  0  0  0  0  0  0  0  0  0
    0.6274   -1.0966   -9.6849 H   0  0  0  0  0  0  0  0  0  0  0  0
    1.4483   -0.1566   -8.3917 H   0  0  0  0  0  0  0  0  0  0  0  0
    1.4401   -1.9657   -8.3366 H   0  0  0  0  0  0  0  0  0  0  0  0
    6.2218   -1.4203   -9.1496 H   0  0  0  0  0  0  0  0  0  0  0  0
    5.2642   -2.2412  -10.4135 H   0  0  0  0  0  0  0  0  0  0  0  0
    6.5592   -0.3516  -11.3383 H   0  0  0  0  0  0  0  0  0  0  0  0
    5.7549    0.8083  -10.2307 H   0  0  0  0  0  0  0  0  0  0  0  0
    4.8090   -0.0366  -11.5280 H   0  0  0  0  0  0  0  0  0  0  0  0
    3.3452    1.6705   -9.3597 H   0  0  0  0  0  0  0  0  0  0  0  0
    3.9358   -4.4953   -6.3178 H   0  0  0  0  0  0  0  0  0  0  0  0
    2.3926   -4.6638   -3.7302 H   0  0  0  0  0  0  0  0  0  0  0  0
   -3.2201   -5.0014   -3.4590 H   0  0  0  0  0  0  0  0  0  0  0  0
   -2.4811   -3.5020   -2.7968 H   0  0  0  0  0  0  0  0  0  0  0  0
   -4.5000   -4.1010   -1.4973 H   0  0  0  0  0  0  0  0  0  0  0  0
   -3.8307   -5.7381   -1.1440 H   0  0  0  0  0  0  0  0  0  0  0  0
   -3.0385   -4.2629   -0.4553 H   0  0  0  0  0  0  0  0  0  0  0  0
    9.5261   -3.4890    2.1436 H   0  0  0  0  0  0  0  0  0  0  0  0
   10.3155   -5.0502    2.5686 H   0  0  0  0  0  0  0  0  0  0  0  0
   10.2535   -3.7535   -0.2437 H   0  0  0  0  0  0  0  0  0  0  0  0
   11.6471   -3.7501    0.8992 H   0  0  0  0  0  0  0  0  0  0  0  0
   11.0774   -5.3049    0.1811 H   0  0  0  0  0  0  0  0  0  0  0  0
    4.8418   -7.2451    2.4534 H   0  0  0  0  0  0  0  0  0  0  0  0
    2.5430   -8.1776    3.2272 H   0  0  0  0  0  0  0  0  0  0  0  0
  1  2  2  0
  2  3  1  0
  3  4  2  0
  4  5  1  0
  5  6  1  0
  6  7  1  0
  7  8  1  0
  8  9  1  0
  7 10  2  0
 10 11  1  0
 10 12  1  0
 12 13  1  0
  4 14  1  0
 14 15  2  0
 15 16  1  0
 16 17  1  0
 17 18  1  0
 18 19  1  0
 19 20  1  0
 20 21  1  0
 19 22  2  0
 22 23  1  0
 23 24  1  0
 22 25  1  0
 16 26  2  0
 26 27  1  0
 15 28  1  0
 28 29  2  0
 29 30  1  0
 29 31  1  0
 31 32  2  0
 32 33  1  0
 33 34  2  0
 34 35  1  0
 35 36  1  0
 36 37  1  0
 37 38  1  0
 38 39  1  0
 37 40  2  0
 40 41  1  0
 40 42  1  0
 42 43  1  0
 34 44  1  0
 44 45  2  0
 45 46  1  0
 46 47  1  0
 47 48  1  0
 48 49  1  0
 49 50  1  0
 50 51  1  0
 49 52  2  0
 52 53  1  0
 53 54  1  0
 52 55  1  0
 46 56  2  0
 56 57  1  0
 45 58  1  0
 58 59  2  0
 59 60  1  0
 59 61  1  0
 61 62  1  0
 62 63  1  0
 63 64  1  0
 64 65  2  0
 65 66  1  0
 66 67  1  0
 67 68  1  0
 68 69  1  0
 67 70  1  0
 70 71  1  0
 67 72  1  0
 72 73  1  0
 65 74  1  0
 74 75  2  0
 75 76  1  0
 75 77  1  0
 77 78  1  0
 78 79  1  0
 79 80  1  0
 80 81  2  0
 81 82  1  0
 82 83  1  0
 83 84  1  0
 84 85  1  0
 83 86  1  0
 86 87  1  0
 83 88  1  0
 88 89  1  0
 81 90  1  0
 90 91  2  0
 91 92  1  0
 91 93  1  0
 93 94  1  0
 94 95  1  0
 95 96  1  0
 96 97  2  0
 97 98  1  0
 98 99  1  0
 99100  1  0
100101  1  0
 99102  1  0
102103  1  0
 99104  1  0
104105  1  0
 97106  1  0
106107  2  0
107108  1  0
107109  1  0
109110  2  0
110111  1  0
111112  2  0
112113  1  0
113114  1  0
114115  1  0
115116  1  0
116117  1  0
115118  2  0
118119  1  0
118120  1  0
120121  1  0
112122  1  0
122123  2  0
123124  1  0
124125  1  0
125126  1  0
126127  1  0
127128  1  0
128129  1  0
127130  2  0
130131  1  0
131132  1  0
130133  1  0
124134  2  0
134135  1  0
123136  1  0
136137  2  0
137138  1  0
 27  1  1  0
 57 31  1  0
 73 61  2  0
 89 77  2  0
105 93  2  0
135109  1  0
 26  3  1  0
 56 33  1  0
 72 63  2  0
 88 79  2  0
104 95  2  0
134111  1  0
 12  5  2  0
 30 14  1  0
 42 35  2  0
 60 44  1  0
 76 64  1  0
 92 80  1  0
108 96  1  0
120113  2  0
138122  1  0
 23 17  2  0
 53 47  2  0
131125  2  0
  1139  1  0
  2140  1  0
  8141  1  0
  8142  1  0
  9143  1  0
  9144  1  0
  9145  1  0
 20146  1  0
 20147  1  0
 21148  1  0
 21149  1  0
 21150  1  0
 28151  1  0
 32152  1  0
 38153  1  0
 38154  1  0
 39155  1  0
 39156  1  0
 39157  1  0
 50158  1  0
 50159  1  0
 51160  1  0
 51161  1  0
 51162  1  0
 58163  1  0
 68164  1  0
 68165  1  0
 69166  1  0
 69167  1  0
 69168  1  0
 70169  1  0
 70170  1  0
 71171  1  0
 71172  1  0
 71173  1  0
 73174  1  0
 74175  1  0
 84176  1  0
 84177  1  0
 85178  1  0
 85179  1  0
 85180  1  0
 86181  1  0
 86182  1  0
 87183  1  0
 87184  1  0
 87185  1  0
 89186  1  0
 90187  1  0
100188  1  0
100189  1  0
101190  1  0
101191  1  0
101192  1  0
102193  1  0
102194  1  0
103195  1  0
103196  1  0
103197  1  0
105198  1  0
106199  1  0
110200  1  0
116201  1  0
116202  1  0
117203  1  0
117204  1  0
117205  1  0
128206  1  0
128207  1  0
129208  1  0
129209  1  0
129210  1  0
136211  1  0
137212  1  0
M  END

