
     RDKit          3D

 85 97  0  0  0  0  0  0  0  0999 V2000
    2.6069   11.2679    2.1602 C   0  0  0  0  0  0  0  0  0  0  0  0
    1.2812   10.2308    1.9100 S   0  0  0  0  0  0  0  0  0  0  0  0
    2.1106    8.7439    1.8365 C   0  0  0  0  0  0  0  0  0  0  0  0
    3.4400    9.0928    2.0141 C   0  0  0  0  0  0  0  0  0  0  0  0
    3.6910   10.4128    2.1830 C   0  0  0  0  0  0  0  0  0  0  0  0
    5.0010   10.6213    2.3698 N   0  0  0  0  0  0  0  0  0  0  0  0
    5.5143    9.3632    2.2983 C   0  0  0  0  0  0  0  0  0  0  0  0
    6.7424    9.1165    2.4261 O   0  0  0  0  0  0  0  0  0  0  0  0
    4.5841    8.3935    2.0812 N   0  0  0  0  0  0  0  0  0  0  0  0
    1.5129    7.4132    1.6414 C   0  0  0  0  0  0  0  0  0  0  0  0
    2.3593    5.9592    1.4768 S   0  0  0  0  0  0  0  0  0  0  0  0
    0.9856    5.0120    1.3001 C   0  0  0  0  0  0  0  0  0  0  0  0
    0.8826    3.5811    1.1011 C   0  0  0  0  0  0  0  0  0  0  0  0
   -0.3553    2.9925    1.0287 C   0  0  0  0  0  0  0  0  0  0  0  0
   -1.5318    3.7481    1.1392 O   0  0  0  0  0  0  0  0  0  0  0  0
   -1.5564    5.1964    1.1979 C   0  0  0  0  0  0  0  0  0  0  0  0
   -2.1888    5.7191   -0.1155 C   0  0  0  0  0  0  0  0  0  0  0  0
   -1.4035    5.3196   -1.3673 C   0  0  0  0  0  0  0  0  0  0  0  0
   -2.4603    5.6044    2.3857 C   0  0  0  0  0  0  0  0  0  0  0  0
   -1.9350    5.1103    3.7364 C   0  0  0  0  0  0  0  0  0  0  0  0
   -0.1524    5.7967    1.3704 C   0  0  0  0  0  0  0  0  0  0  0  0
    0.1440    7.1572    1.5512 C   0  0  0  0  0  0  0  0  0  0  0  0
   -0.3099    1.6115    0.8400 C   0  0  0  0  0  0  0  0  0  0  0  0
    0.9963    1.1288    0.7456 C   0  0  0  0  0  0  0  0  0  0  0  0
    2.0798    2.4194    0.9199 S   0  0  0  0  0  0  0  0  0  0  0  0
    1.3600   -0.2802    0.5273 C   0  0  0  0  0  0  0  0  0  0  0  0
    0.2889   -1.6031    0.4983 S   0  0  0  0  0  0  0  0  0  0  0  0
    1.4013   -2.8244    0.0967 C   0  0  0  0  0  0  0  0  0  0  0  0
    2.6122   -2.1659   -0.0288 C   0  0  0  0  0  0  0  0  0  0  0  0
    2.5935   -0.8281    0.2040 C   0  0  0  0  0  0  0  0  0  0  0  0
    3.7750   -0.2857   -0.1310 N   0  0  0  0  0  0  0  0  0  0  0  0
    4.4819   -1.3560   -0.5829 C   0  0  0  0  0  0  0  0  0  0  0  0
    5.6543   -1.2602   -1.0343 O   0  0  0  0  0  0  0  0  0  0  0  0
    3.7970   -2.5300   -0.5446 N   0  0  0  0  0  0  0  0  0  0  0  0
    1.0827   -4.2325   -0.1678 C   0  0  0  0  0  0  0  0  0  0  0  0
   -0.3901   -4.8317   -0.7769 S   0  0  0  0  0  0  0  0  0  0  0  0
   -0.0053   -6.4889   -0.7753 C   0  0  0  0  0  0  0  0  0  0  0  0
    1.2909   -6.5461   -0.2892 C   0  0  0  0  0  0  0  0  0  0  0  0
    1.8606   -5.3615    0.0389 C   0  0  0  0  0  0  0  0  0  0  0  0
    3.0916   -5.5605    0.5360 N   0  0  0  0  0  0  0  0  0  0  0  0
    3.2362   -6.9105    0.4411 C   0  0  0  0  0  0  0  0  0  0  0  0
    4.2823   -7.5144    0.7964 O   0  0  0  0  0  0  0  0  0  0  0  0
    2.1507   -7.5515   -0.0699 N   0  0  0  0  0  0  0  0  0  0  0  0
   -0.8928   -7.5834   -1.1834 C   0  0  0  0  0  0  0  0  0  0  0  0
   -2.1361   -7.4864   -2.3391 S   0  0  0  0  0  0  0  0  0  0  0  0
   -2.7904   -9.0462   -2.1402 C   0  0  0  0  0  0  0  0  0  0  0  0
   -2.0140   -9.6225   -1.1449 C   0  0  0  0  0  0  0  0  0  0  0  0
   -1.0198   -8.8507   -0.6383 C   0  0  0  0  0  0  0  0  0  0  0  0
   -0.4998   -9.4283    0.4562 N   0  0  0  0  0  0  0  0  0  0  0  0
   -1.2113  -10.5825    0.5571 C   0  0  0  0  0  0  0  0  0  0  0  0
   -1.0403  -11.4148    1.4865 O   0  0  0  0  0  0  0  0  0  0  0  0
   -2.1545  -10.7372   -0.4098 N   0  0  0  0  0  0  0  0  0  0  0  0
   -3.9697   -9.6078   -2.8211 C   0  0  0  0  0  0  0  0  0  0  0  0
   -4.5112  -11.2230   -2.7904 S   0  0  0  0  0  0  0  0  0  0  0  0
   -5.8860  -11.0678   -3.7856 C   0  0  0  0  0  0  0  0  0  0  0  0
   -5.8896   -9.7294   -4.1302 C   0  0  0  0  0  0  0  0  0  0  0  0
   -4.8912   -8.9624   -3.6312 C   0  0  0  0  0  0  0  0  0  0  0  0
   -5.0549   -7.6856   -4.0143 N   0  0  0  0  0  0  0  0  0  0  0  0
   -6.1904   -7.7404   -4.7638 C   0  0  0  0  0  0  0  0  0  0  0  0
   -6.6990   -6.7268   -5.3124 O   0  0  0  0  0  0  0  0  0  0  0  0
   -6.7335   -8.9847   -4.8584 N   0  0  0  0  0  0  0  0  0  0  0  0
    2.6029   12.3404    2.2887 H   0  0  0  0  0  0  0  0  0  0  0  0
    5.5003   11.5252    2.5297 H   0  0  0  0  0  0  0  0  0  0  0  0
    4.7376    7.3641    2.0029 H   0  0  0  0  0  0  0  0  0  0  0  0
   -2.2694    6.8276   -0.0883 H   0  0  0  0  0  0  0  0  0  0  0  0
   -3.2204    5.3154   -0.2127 H   0  0  0  0  0  0  0  0  0  0  0  0
   -1.9283    5.7018   -2.2668 H   0  0  0  0  0  0  0  0  0  0  0  0
   -1.3274    4.2145   -1.4520 H   0  0  0  0  0  0  0  0  0  0  0  0
   -0.3839    5.7603   -1.3465 H   0  0  0  0  0  0  0  0  0  0  0  0
   -3.4760    5.1769    2.2340 H   0  0  0  0  0  0  0  0  0  0  0  0
   -2.5743    6.7089    2.4300 H   0  0  0  0  0  0  0  0  0  0  0  0
   -1.8224    4.0060    3.7319 H   0  0  0  0  0  0  0  0  0  0  0  0
   -2.6578    5.3830    4.5336 H   0  0  0  0  0  0  0  0  0  0  0  0
   -0.9569    5.5808    3.9760 H   0  0  0  0  0  0  0  0  0  0  0  0
   -0.6127    7.9282    1.6154 H   0  0  0  0  0  0  0  0  0  0  0  0
   -1.1922    0.9940    0.7560 H   0  0  0  0  0  0  0  0  0  0  0  0
    4.0643    0.7166   -0.1266 H   0  0  0  0  0  0  0  0  0  0  0  0
    4.0905   -3.4571   -0.9240 H   0  0  0  0  0  0  0  0  0  0  0  0
    3.7656   -4.8630    0.9233 H   0  0  0  0  0  0  0  0  0  0  0  0
    2.0327   -8.5701   -0.2611 H   0  0  0  0  0  0  0  0  0  0  0  0
    0.2040   -9.0492    1.1246 H   0  0  0  0  0  0  0  0  0  0  0  0
   -2.8619  -11.4988   -0.4984 H   0  0  0  0  0  0  0  0  0  0  0  0
   -6.5984  -11.8292   -4.0700 H   0  0  0  0  0  0  0  0  0  0  0  0
   -4.4757   -6.8479   -3.7851 H   0  0  0  0  0  0  0  0  0  0  0  0
   -7.6011   -9.2830   -5.3576 H   0  0  0  0  0  0  0  0  0  0  0  0
  1  2  1  0
  2  3  1  0
  3  4  2  0
  4  5  1  0
  5  6  1  0
  6  7  1  0
  7  8  2  0
  7  9  1  0
  3 10  1  0
 10 11  1  0
 11 12  1  0
 12 13  1  0
 13 14  2  0
 14 15  1  0
 15 16  1  0
 16 17  1  0
 17 18  1  0
 16 19  1  0
 19 20  1  0
 16 21  1  0
 21 22  1  0
 14 23  1  0
 23 24  2  0
 24 25  1  0
 24 26  1  0
 26 27  1  0
 27 28  1  0
 28 29  2  0
 29 30  1  0
 30 31  1  0
 31 32  1  0
 32 33  2  0
 32 34  1  0
 28 35  1  0
 35 36  1  0
 36 37  1  0
 37 38  2  0
 38 39  1  0
 39 40  1  0
 40 41  1  0
 41 42  2  0
 41 43  1  0
 37 44  1  0
 44 45  1  0
 45 46  1  0
 46 47  2  0
 47 48  1  0
 48 49  1  0
 49 50  1  0
 50 51  2  0
 50 52  1  0
 46 53  1  0
 53 54  1  0
 54 55  1  0
 55 56  2  0
 56 57  1  0
 57 58  1  0
 58 59  1  0
 59 60  2  0
 59 61  1  0
  5  1  2  0
 22 10  2  0
 30 26  2  0
 39 35  2  0
 48 44  2  0
 57 53  2  0
  9  4  1  0
 21 12  2  0
 34 29  1  0
 43 38  1  0
 52 47  1  0
 61 56  1  0
 25 13  1  0
  1 62  1  0
  6 63  1  0
  9 64  1  0
 17 65  1  0
 17 66  1  0
 18 67  1  0
 18 68  1  0
 18 69  1  0
 19 70  1  0
 19 71  1  0
 20 72  1  0
 20 73  1  0
 20 74  1  0
 22 75  1  0
 23 76  1  0
 31 77  1  0
 34 78  1  0
 40 79  1  0
 43 80  1  0
 49 81  1  0
 52 82  1  0
 55 83  1  0
 58 84  1  0
 61 85  1  0
M  END

