
     RDKit          3D

 90 92  0  0  0  0  0  0  0  0999 V2000
   -2.4612   -5.1932    2.8409 C   0  0  0  0  0  0  0  0  0  0  0  0
   -2.8659   -4.1799    3.6050 C   0  0  0  0  0  0  0  0  0  0  0  0
   -2.2404   -3.8994    4.8911 C   0  0  0  0  0  0  0  0  0  0  0  0
   -2.5159   -2.7554    5.5146 C   0  0  0  0  0  0  0  0  0  0  0  0
   -1.6937   -2.3082    6.6416 C   0  0  0  0  0  0  0  0  0  0  0  0
   -1.1635   -1.0858    6.6871 C   0  0  0  0  0  0  0  0  0  0  0  0
   -1.1321   -0.2097    5.5009 C   0  0  0  0  0  0  0  0  0  0  0  0
   -0.6747   -0.7404    3.9398 S   0  0  0  0  0  0  0  0  0  0  0  0
   -0.9960    0.7247    3.2268 C   0  0  0  0  0  0  0  0  0  0  0  0
   -0.9525    1.0309    1.8123 C   0  0  0  0  0  0  0  0  0  0  0  0
   -1.1226    2.3534    1.4586 C   0  0  0  0  0  0  0  0  0  0  0  0
   -1.5476    3.3350    2.3494 O   0  0  0  0  0  0  0  0  0  0  0  0
   -1.9449    3.0411    3.7246 C   0  0  0  0  0  0  0  0  0  0  0  0
   -1.4115    4.2217    4.5883 C   0  0  0  0  0  0  0  0  0  0  0  0
   -1.8562    4.2266    6.0571 C   0  0  0  0  0  0  0  0  0  0  0  0
   -3.4760    2.9266    3.6818 C   0  0  0  0  0  0  0  0  0  0  0  0
   -4.1703    4.2301    3.3395 C   0  0  0  0  0  0  0  0  0  0  0  0
   -1.3809    1.6751    4.1607 C   0  0  0  0  0  0  0  0  0  0  0  0
   -1.4527    1.1293    5.4722 C   0  0  0  0  0  0  0  0  0  0  0  0
   -0.7867    2.5836    0.1129 C   0  0  0  0  0  0  0  0  0  0  0  0
   -0.3513    1.4204   -0.5216 C   0  0  0  0  0  0  0  0  0  0  0  0
   -0.3583    0.1149    0.5558 S   0  0  0  0  0  0  0  0  0  0  0  0
    0.5783    1.4568   -1.6687 C   0  0  0  0  0  0  0  0  0  0  0  0
    0.4062    0.9290   -2.8780 C   0  0  0  0  0  0  0  0  0  0  0  0
   -0.8353    0.3422   -3.4493 C   0  0  0  0  0  0  0  0  0  0  0  0
   -0.8754    0.2700   -4.7908 C   0  0  0  0  0  0  0  0  0  0  0  0
   -2.0168   -0.1978   -5.6154 C   0  0  0  0  0  0  0  0  0  0  0  0
   -2.0483   -0.2371   -6.9732 C   0  0  0  0  0  0  0  0  0  0  0  0
   -0.9420    0.0227   -7.9530 C   0  0  0  0  0  0  0  0  0  0  0  0
    0.2910   -0.5049   -7.8021 C   0  0  0  0  0  0  0  0  0  0  0  0
    0.4082   -1.6869   -6.9093 C   0  0  0  0  0  0  0  0  0  0  0  0
    1.5385   -2.0328   -6.2429 C   0  0  0  0  0  0  0  0  0  0  0  0
    1.7509   -1.6965   -4.7523 C   0  0  0  0  0  0  0  0  0  0  0  0
    2.9397   -1.2079   -4.3033 C   0  0  0  0  0  0  0  0  0  0  0  0
    4.0822   -0.8190   -5.1935 C   0  0  0  0  0  0  0  0  0  0  0  0
    5.3692   -0.6698   -4.7718 C   0  0  0  0  0  0  0  0  0  0  0  0
    6.1899   -1.2286   -3.6275 C   0  0  0  0  0  0  0  0  0  0  0  0
    5.9031   -2.0235   -2.5303 C   0  0  0  0  0  0  0  0  0  0  0  0
    4.6075   -2.6434   -2.2843 C   0  0  0  0  0  0  0  0  0  0  0  0
    3.9443   -2.3523   -1.1550 C   0  0  0  0  0  0  0  0  0  0  0  0
    2.4879   -2.5702   -1.1722 C   0  0  0  0  0  0  0  0  0  0  0  0
    1.7641   -2.6669   -0.0630 C   0  0  0  0  0  0  0  0  0  0  0  0
    0.3482   -3.0638   -0.2130 C   0  0  0  0  0  0  0  0  0  0  0  0
    0.0448   -4.3517   -0.0918 C   0  0  0  0  0  0  0  0  0  0  0  0
   -1.2410   -4.8509   -0.5635 C   0  0  0  0  0  0  0  0  0  0  0  0
   -1.3583   -6.1077   -0.9313 C   0  0  0  0  0  0  0  0  0  0  0  0
   -1.6239   -5.8098    3.1645 H   0  0  0  0  0  0  0  0  0  0  0  0
   -2.9534   -5.3775    1.8775 H   0  0  0  0  0  0  0  0  0  0  0  0
   -3.6625   -3.5208    3.2453 H   0  0  0  0  0  0  0  0  0  0  0  0
   -1.4679   -4.5524    5.2878 H   0  0  0  0  0  0  0  0  0  0  0  0
   -3.1725   -2.0329    5.0456 H   0  0  0  0  0  0  0  0  0  0  0  0
   -1.5792   -2.9902    7.4897 H   0  0  0  0  0  0  0  0  0  0  0  0
   -0.6140   -0.7600    7.5905 H   0  0  0  0  0  0  0  0  0  0  0  0
   -0.2842    4.2518    4.5164 H   0  0  0  0  0  0  0  0  0  0  0  0
   -1.7641    5.1822    4.1434 H   0  0  0  0  0  0  0  0  0  0  0  0
   -2.0043    5.2629    6.3818 H   0  0  0  0  0  0  0  0  0  0  0  0
   -1.0650    3.7784    6.6868 H   0  0  0  0  0  0  0  0  0  0  0  0
   -2.8126    3.6909    6.2364 H   0  0  0  0  0  0  0  0  0  0  0  0
   -3.8419    2.5597    4.6506 H   0  0  0  0  0  0  0  0  0  0  0  0
   -3.7847    2.1620    2.9205 H   0  0  0  0  0  0  0  0  0  0  0  0
   -5.2465    4.0088    3.1673 H   0  0  0  0  0  0  0  0  0  0  0  0
   -3.7295    4.7060    2.4314 H   0  0  0  0  0  0  0  0  0  0  0  0
   -4.0985    4.9265    4.1963 H   0  0  0  0  0  0  0  0  0  0  0  0
   -1.8309    1.6336    6.3614 H   0  0  0  0  0  0  0  0  0  0  0  0
   -0.7738    3.5738   -0.3674 H   0  0  0  0  0  0  0  0  0  0  0  0
    1.5120    1.9891   -1.4334 H   0  0  0  0  0  0  0  0  0  0  0  0
    1.2487    1.0068   -3.5869 H   0  0  0  0  0  0  0  0  0  0  0  0
   -1.6884    0.0195   -2.8419 H   0  0  0  0  0  0  0  0  0  0  0  0
    0.0042    0.5987   -5.3455 H   0  0  0  0  0  0  0  0  0  0  0  0
   -2.9339   -0.4906   -5.0790 H   0  0  0  0  0  0  0  0  0  0  0  0
   -2.9916   -0.6429   -7.4120 H   0  0  0  0  0  0  0  0  0  0  0  0
   -1.2052    0.4784   -8.8889 H   0  0  0  0  0  0  0  0  0  0  0  0
    1.0502   -0.2615   -8.5290 H   0  0  0  0  0  0  0  0  0  0  0  0
   -0.4361   -2.4105   -7.1080 H   0  0  0  0  0  0  0  0  0  0  0  0
    1.5811   -3.0989   -6.0303 H   0  0  0  0  0  0  0  0  0  0  0  0
    0.9251   -1.9590   -4.0677 H   0  0  0  0  0  0  0  0  0  0  0  0
    3.0771   -0.9882   -3.2728 H   0  0  0  0  0  0  0  0  0  0  0  0
    3.8334   -0.4038   -6.1586 H   0  0  0  0  0  0  0  0  0  0  0  0
    6.0398   -0.0469   -5.3723 H   0  0  0  0  0  0  0  0  0  0  0  0
    7.2456   -0.8486   -3.7148 H   0  0  0  0  0  0  0  0  0  0  0  0
    6.7421   -2.4602   -2.0214 H   0  0  0  0  0  0  0  0  0  0  0  0
    4.1491   -3.2454   -3.0561 H   0  0  0  0  0  0  0  0  0  0  0  0
    4.4343   -1.8352   -0.3475 H   0  0  0  0  0  0  0  0  0  0  0  0
    2.0027   -2.7115   -2.1388 H   0  0  0  0  0  0  0  0  0  0  0  0
    2.2638   -2.5593    0.9099 H   0  0  0  0  0  0  0  0  0  0  0  0
   -0.3731   -2.3642   -0.6902 H   0  0  0  0  0  0  0  0  0  0  0  0
    0.8094   -5.0712    0.1935 H   0  0  0  0  0  0  0  0  0  0  0  0
   -2.1105   -4.2093   -0.6170 H   0  0  0  0  0  0  0  0  0  0  0  0
   -2.3266   -6.4777   -1.3084 H   0  0  0  0  0  0  0  0  0  0  0  0
   -0.5193   -6.8456   -0.8629 H   0  0  0  0  0  0  0  0  0  0  0  0
  1  2  2  3
  2  3  1  0
  3  4  2  3
  4  5  1  0
  5  6  2  3
  6  7  1  0
  7  8  1  0
  8  9  1  0
  9 10  1  0
 10 11  2  0
 11 12  1  0
 12 13  1  0
 13 14  1  0
 14 15  1  0
 13 16  1  0
 16 17  1  0
 13 18  1  0
 18 19  1  0
 11 20  1  0
 20 21  2  0
 21 22  1  0
 21 23  1  0
 23 24  2  3
 24 25  1  0
 25 26  2  3
 26 27  1  0
 27 28  2  3
 28 29  1  0
 29 30  2  3
 30 31  1  0
 31 32  2  3
 32 33  1  0
 33 34  2  3
 34 35  1  0
 35 36  2  3
 36 37  1  0
 37 38  2  3
 38 39  1  0
 39 40  2  3
 40 41  1  0
 41 42  2  3
 42 43  1  0
 43 44  2  3
 44 45  1  0
 45 46  2  3
 19  7  2  0
 18  9  2  0
 22 10  1  0
  1 47  1  0
  1 48  1  0
  2 49  1  0
  3 50  1  0
  4 51  1  0
  5 52  1  0
  6 53  1  0
 14 54  1  0
 14 55  1  0
 15 56  1  0
 15 57  1  0
 15 58  1  0
 16 59  1  0
 16 60  1  0
 17 61  1  0
 17 62  1  0
 17 63  1  0
 19 64  1  0
 20 65  1  0
 23 66  1  0
 24 67  1  0
 25 68  1  0
 26 69  1  0
 27 70  1  0
 28 71  1  0
 29 72  1  0
 30 73  1  0
 31 74  1  0
 32 75  1  0
 33 76  1  0
 34 77  1  0
 35 78  1  0
 36 79  1  0
 37 80  1  0
 38 81  1  0
 39 82  1  0
 40 83  1  0
 41 84  1  0
 42 85  1  0
 43 86  1  0
 44 87  1  0
 45 88  1  0
 46 89  1  0
 46 90  1  0
M  END

