
     RDKit          3D

114127  0  0  0  0  0  0  0  0999 V2000
   12.3604    6.6155   -1.4593 C   0  0  0  0  0  0  0  0  0  0  0  0
   10.8438    7.1231   -2.0351 S   0  0  0  0  0  0  0  0  0  0  0  0
    9.8579    5.9883   -1.2363 C   0  0  0  0  0  0  0  0  0  0  0  0
   10.7513    5.1983   -0.5233 C   0  0  0  0  0  0  0  0  0  0  0  0
   12.0588    5.5408   -0.6457 C   0  0  0  0  0  0  0  0  0  0  0  0
   12.8340    4.6906    0.0373 N   0  0  0  0  0  0  0  0  0  0  0  0
   12.0357    3.7851    0.5988 N   0  0  0  0  0  0  0  0  0  0  0  0
   10.7469    4.0678    0.2693 C   0  0  0  0  0  0  0  0  0  0  0  0
    8.3937    5.9032   -1.3625 C   0  0  0  0  0  0  0  0  0  0  0  0
    7.6228    5.2586   -0.4835 C   0  0  0  0  0  0  0  0  0  0  0  0
    6.1618    5.1669   -0.6265 C   0  0  0  0  0  0  0  0  0  0  0  0
    5.1924    3.9170   -0.0068 S   0  0  0  0  0  0  0  0  0  0  0  0
    3.6732    4.5090   -0.4860 C   0  0  0  0  0  0  0  0  0  0  0  0
    3.9458    5.7188   -1.1123 C   0  0  0  0  0  0  0  0  0  0  0  0
    5.2590    6.0599   -1.1878 C   0  0  0  0  0  0  0  0  0  0  0  0
    5.3867    7.2997   -1.6849 N   0  0  0  0  0  0  0  0  0  0  0  0
    4.1637    7.7571   -1.9451 N   0  0  0  0  0  0  0  0  0  0  0  0
    3.2529    6.8069   -1.6021 C   0  0  0  0  0  0  0  0  0  0  0  0
    2.3871    3.8593   -0.1866 C   0  0  0  0  0  0  0  0  0  0  0  0
    1.2578    4.1425   -0.8431 C   0  0  0  0  0  0  0  0  0  0  0  0
   -0.0106    3.4429   -0.5685 C   0  0  0  0  0  0  0  0  0  0  0  0
   -0.2609    2.2340    0.5873 S   0  0  0  0  0  0  0  0  0  0  0  0
   -1.8575    1.9549    0.1599 C   0  0  0  0  0  0  0  0  0  0  0  0
   -2.7699    0.9541    0.6659 C   0  0  0  0  0  0  0  0  0  0  0  0
   -4.0247    0.8523    0.1252 C   0  0  0  0  0  0  0  0  0  0  0  0
   -4.4606    1.7243   -0.8825 O   0  0  0  0  0  0  0  0  0  0  0  0
   -3.6695    2.8094   -1.4296 C   0  0  0  0  0  0  0  0  0  0  0  0
   -4.3119    4.1516   -0.9888 C   0  0  0  0  0  0  0  0  0  0  0  0
   -5.7841    4.3259   -1.3691 C   0  0  0  0  0  0  0  0  0  0  0  0
   -3.5890    2.6549   -2.9789 C   0  0  0  0  0  0  0  0  0  0  0  0
   -4.8414    2.0687   -3.6465 C   0  0  0  0  0  0  0  0  0  0  0  0
   -2.2366    2.8004   -0.8690 C   0  0  0  0  0  0  0  0  0  0  0  0
   -1.1925    3.6451   -1.2787 C   0  0  0  0  0  0  0  0  0  0  0  0
   -4.7738   -0.2025    0.6444 C   0  0  0  0  0  0  0  0  0  0  0  0
   -4.0668   -0.9422    1.5945 C   0  0  0  0  0  0  0  0  0  0  0  0
   -2.5216   -0.2760    1.7811 S   0  0  0  0  0  0  0  0  0  0  0  0
   -4.5790   -2.1472    2.2620 C   0  0  0  0  0  0  0  0  0  0  0  0
   -6.1227   -2.8386    2.0410 S   0  0  0  0  0  0  0  0  0  0  0  0
   -5.9385   -4.1740    3.0777 C   0  0  0  0  0  0  0  0  0  0  0  0
   -4.6767   -4.0376    3.6193 C   0  0  0  0  0  0  0  0  0  0  0  0
   -3.9542   -2.9782    3.1836 C   0  0  0  0  0  0  0  0  0  0  0  0
   -2.7573   -2.9629    3.7854 N   0  0  0  0  0  0  0  0  0  0  0  0
   -2.7125   -4.0025    4.6178 N   0  0  0  0  0  0  0  0  0  0  0  0
   -3.8835   -4.6888    4.5323 C   0  0  0  0  0  0  0  0  0  0  0  0
   -6.9445   -5.1892    3.4021 C   0  0  0  0  0  0  0  0  0  0  0  0
   -7.2547   -6.2363    2.6241 C   0  0  0  0  0  0  0  0  0  0  0  0
   -6.6337   -6.5764    1.3234 C   0  0  0  0  0  0  0  0  0  0  0  0
   -5.5443   -5.6829    0.3603 S   0  0  0  0  0  0  0  0  0  0  0  0
   -5.3086   -6.8185   -0.8899 C   0  0  0  0  0  0  0  0  0  0  0  0
   -6.1411   -7.8713   -0.5572 C   0  0  0  0  0  0  0  0  0  0  0  0
   -6.8188   -7.7491    0.6088 C   0  0  0  0  0  0  0  0  0  0  0  0
   -7.5483   -8.8484    0.8353 N   0  0  0  0  0  0  0  0  0  0  0  0
   -7.3466   -9.6815   -0.1853 N   0  0  0  0  0  0  0  0  0  0  0  0
   -6.4848   -9.1025   -1.0636 C   0  0  0  0  0  0  0  0  0  0  0  0
   -4.5687   -6.6506   -2.1507 C   0  0  0  0  0  0  0  0  0  0  0  0
   -3.4032   -6.0078   -2.2969 C   0  0  0  0  0  0  0  0  0  0  0  0
   -2.5168   -5.5423   -1.2115 C   0  0  0  0  0  0  0  0  0  0  0  0
   -2.3265   -6.2476    0.3165 S   0  0  0  0  0  0  0  0  0  0  0  0
   -1.0513   -5.2611    0.7740 C   0  0  0  0  0  0  0  0  0  0  0  0
   -0.3316   -5.2223    2.0298 C   0  0  0  0  0  0  0  0  0  0  0  0
    0.6174   -4.2506    2.2315 C   0  0  0  0  0  0  0  0  0  0  0  0
    0.9443   -3.3363    1.2175 O   0  0  0  0  0  0  0  0  0  0  0  0
    0.5355   -3.5091   -0.1652 C   0  0  0  0  0  0  0  0  0  0  0  0
    0.2341   -2.1168   -0.8026 C   0  0  0  0  0  0  0  0  0  0  0  0
    0.9953   -0.9505   -0.1698 C   0  0  0  0  0  0  0  0  0  0  0  0
    1.6622   -4.2655   -0.9236 C   0  0  0  0  0  0  0  0  0  0  0  0
    3.0265   -3.5799   -0.8920 C   0  0  0  0  0  0  0  0  0  0  0  0
   -0.7199   -4.3925   -0.2510 C   0  0  0  0  0  0  0  0  0  0  0  0
   -1.5303   -4.5712   -1.3834 C   0  0  0  0  0  0  0  0  0  0  0  0
    1.1647   -4.2624    3.5147 C   0  0  0  0  0  0  0  0  0  0  0  0
    0.6345   -5.2763    4.3121 C   0  0  0  0  0  0  0  0  0  0  0  0
   -0.5174   -6.1401    3.4222 S   0  0  0  0  0  0  0  0  0  0  0  0
   13.3372    7.0213   -1.6901 H   0  0  0  0  0  0  0  0  0  0  0  0
   13.8764    4.7033    0.1127 H   0  0  0  0  0  0  0  0  0  0  0  0
    9.8995    3.4690    0.5670 H   0  0  0  0  0  0  0  0  0  0  0  0
    7.9453    6.4032   -2.2095 H   0  0  0  0  0  0  0  0  0  0  0  0
    8.0630    4.7411    0.3529 H   0  0  0  0  0  0  0  0  0  0  0  0
    6.2603    7.8575   -1.8031 H   0  0  0  0  0  0  0  0  0  0  0  0
    2.1814    6.9426   -1.6608 H   0  0  0  0  0  0  0  0  0  0  0  0
    2.3955    3.0787    0.5639 H   0  0  0  0  0  0  0  0  0  0  0  0
    1.2627    4.8645   -1.6450 H   0  0  0  0  0  0  0  0  0  0  0  0
   -4.2458    4.2199    0.1219 H   0  0  0  0  0  0  0  0  0  0  0  0
   -3.7385    5.0108   -1.4010 H   0  0  0  0  0  0  0  0  0  0  0  0
   -6.2390    5.1097   -0.7258 H   0  0  0  0  0  0  0  0  0  0  0  0
   -6.3578    3.3860   -1.2214 H   0  0  0  0  0  0  0  0  0  0  0  0
   -5.8711    4.6680   -2.4217 H   0  0  0  0  0  0  0  0  0  0  0  0
   -3.3541    3.6343   -3.4524 H   0  0  0  0  0  0  0  0  0  0  0  0
   -2.7510    1.9641   -3.2321 H   0  0  0  0  0  0  0  0  0  0  0  0
   -5.6930    2.7790   -3.6169 H   0  0  0  0  0  0  0  0  0  0  0  0
   -5.1420    1.1066   -3.1725 H   0  0  0  0  0  0  0  0  0  0  0  0
   -4.6182    1.8609   -4.7170 H   0  0  0  0  0  0  0  0  0  0  0  0
   -1.2892    4.3731   -2.0745 H   0  0  0  0  0  0  0  0  0  0  0  0
   -5.7794   -0.4320    0.3193 H   0  0  0  0  0  0  0  0  0  0  0  0
   -1.9853   -2.2723    3.6615 H   0  0  0  0  0  0  0  0  0  0  0  0
   -4.1255   -5.5807    5.0953 H   0  0  0  0  0  0  0  0  0  0  0  0
   -7.4282   -5.1074    4.3666 H   0  0  0  0  0  0  0  0  0  0  0  0
   -7.9972   -6.9288    3.0037 H   0  0  0  0  0  0  0  0  0  0  0  0
   -8.1695   -9.0438    1.6526 H   0  0  0  0  0  0  0  0  0  0  0  0
   -6.1277   -9.5567   -1.9770 H   0  0  0  0  0  0  0  0  0  0  0  0
   -5.0333   -7.0563   -3.0423 H   0  0  0  0  0  0  0  0  0  0  0  0
   -3.0490   -5.8538   -3.3086 H   0  0  0  0  0  0  0  0  0  0  0  0
    0.4497   -2.1385   -1.8922 H   0  0  0  0  0  0  0  0  0  0  0  0
   -0.8489   -1.8798   -0.7012 H   0  0  0  0  0  0  0  0  0  0  0  0
    2.0844   -1.1332   -0.1353 H   0  0  0  0  0  0  0  0  0  0  0  0
    0.6307   -0.7726    0.8632 H   0  0  0  0  0  0  0  0  0  0  0  0
    0.8181   -0.0383   -0.7721 H   0  0  0  0  0  0  0  0  0  0  0  0
    1.3714   -4.4198   -1.9865 H   0  0  0  0  0  0  0  0  0  0  0  0
    1.7830   -5.2750   -0.4694 H   0  0  0  0  0  0  0  0  0  0  0  0
    3.3105   -3.3045    0.1459 H   0  0  0  0  0  0  0  0  0  0  0  0
    3.7954   -4.2752   -1.2895 H   0  0  0  0  0  0  0  0  0  0  0  0
    3.0239   -2.6785   -1.5406 H   0  0  0  0  0  0  0  0  0  0  0  0
   -1.3842   -4.0317   -2.3107 H   0  0  0  0  0  0  0  0  0  0  0  0
    1.9174   -3.5624    3.8539 H   0  0  0  0  0  0  0  0  0  0  0  0
    0.9108   -5.4732    5.3397 H   0  0  0  0  0  0  0  0  0  0  0  0
  1  2  1  0
  2  3  1  0
  3  4  2  0
  4  5  1  0
  5  6  1  0
  6  7  1  0
  7  8  2  0
  3  9  1  0
  9 10  2  3
 10 11  1  0
 11 12  1  0
 12 13  1  0
 13 14  2  0
 14 15  1  0
 15 16  1  0
 16 17  1  0
 17 18  2  0
 13 19  1  0
 19 20  2  3
 20 21  1  0
 21 22  1  0
 22 23  1  0
 23 24  1  0
 24 25  2  0
 25 26  1  0
 26 27  1  0
 27 28  1  0
 28 29  1  0
 27 30  1  0
 30 31  1  0
 27 32  1  0
 32 33  1  0
 25 34  1  0
 34 35  2  0
 35 36  1  0
 35 37  1  0
 37 38  1  0
 38 39  1  0
 39 40  2  0
 40 41  1  0
 41 42  1  0
 42 43  1  0
 43 44  2  0
 39 45  1  0
 45 46  2  3
 46 47  1  0
 47 48  1  0
 48 49  1  0
 49 50  2  0
 50 51  1  0
 51 52  1  0
 52 53  1  0
 53 54  2  0
 49 55  1  0
 55 56  2  3
 56 57  1  0
 57 58  1  0
 58 59  1  0
 59 60  1  0
 60 61  2  0
 61 62  1  0
 62 63  1  0
 63 64  1  0
 64 65  1  0
 63 66  1  0
 66 67  1  0
 63 68  1  0
 68 69  1  0
 61 70  1  0
 70 71  2  0
 71 72  1  0
  5  1  2  0
 15 11  2  0
 33 21  2  0
 41 37  2  0
 51 47  2  0
 69 57  2  0
  8  4  1  0
 18 14  1  0
 32 23  2  0
 44 40  1  0
 54 50  1  0
 68 59  2  0
 36 24  1  0
 72 60  1  0
  1 73  1  0
  6 74  1  0
  8 75  1  0
  9 76  1  0
 10 77  1  0
 16 78  1  0
 18 79  1  0
 19 80  1  0
 20 81  1  0
 28 82  1  0
 28 83  1  0
 29 84  1  0
 29 85  1  0
 29 86  1  0
 30 87  1  0
 30 88  1  0
 31 89  1  0
 31 90  1  0
 31 91  1  0
 33 92  1  0
 34 93  1  0
 42 94  1  0
 44 95  1  0
 45 96  1  0
 46 97  1  0
 52 98  1  0
 54 99  1  0
 55100  1  0
 56101  1  0
 64102  1  0
 64103  1  0
 65104  1  0
 65105  1  0
 65106  1  0
 66107  1  0
 66108  1  0
 67109  1  0
 67110  1  0
 67111  1  0
 69112  1  0
 70113  1  0
 71114  1  0
M  END

