
     RDKit          3D

185199  0  0  0  0  0  0  0  0999 V2000
    5.3194   -2.1448    8.7192 C   0  0  0  0  0  0  0  0  0  0  0  0
    5.2233   -0.8818    8.1385 C   0  0  0  0  0  0  0  0  0  0  0  0
    4.0452   -0.4907    7.4686 C   0  0  0  0  0  0  0  0  0  0  0  0
    3.9993    0.6647    6.6717 O   0  0  0  0  0  0  0  0  0  0  0  0
    5.1040    1.3637    6.1712 C   0  0  0  0  0  0  0  0  0  0  0  0
    4.9900    1.9739    4.9998 C   0  0  0  0  0  0  0  0  0  0  0  0
    3.7822    1.8824    4.3140 O   0  0  0  0  0  0  0  0  0  0  0  0
    3.5976    2.2769    2.9915 C   0  0  0  0  0  0  0  0  0  0  0  0
    2.4541    1.9542    2.4041 C   0  0  0  0  0  0  0  0  0  0  0  0
    1.5029    1.2556    3.1524 O   0  0  0  0  0  0  0  0  0  0  0  0
    0.3160    0.7348    2.6419 C   0  0  0  0  0  0  0  0  0  0  0  0
   -0.3885   -0.1242    3.3862 C   0  0  0  0  0  0  0  0  0  0  0  0
    0.0121   -0.4719    4.6832 O   0  0  0  0  0  0  0  0  0  0  0  0
    0.3891    0.4880    5.6277 C   0  0  0  0  0  0  0  0  0  0  0  0
    1.2163    0.1941    6.6310 C   0  0  0  0  0  0  0  0  0  0  0  0
    1.7632   -1.0819    6.7554 O   0  0  0  0  0  0  0  0  0  0  0  0
    2.9247   -1.3566    7.4927 C   0  0  0  0  0  0  0  0  0  0  0  0
    3.0065   -2.5875    8.1502 C   0  0  0  0  0  0  0  0  0  0  0  0
    4.2175   -3.0171    8.7036 C   0  0  0  0  0  0  0  0  0  0  0  0
    4.3824   -4.4312    9.0988 C   0  0  0  0  0  0  0  0  0  0  0  0
    5.2618   -5.2611    8.5147 C   0  0  0  0  0  0  0  0  0  0  0  0
    6.1083   -4.9016    7.3473 C   0  0  0  0  0  0  0  0  0  0  0  0
    7.4860   -5.1809    7.3993 C   0  0  0  0  0  0  0  0  0  0  0  0
    8.3259   -4.8578    6.3139 C   0  0  0  0  0  0  0  0  0  0  0  0
    9.6768   -5.2155    6.2593 O   0  0  0  0  0  0  0  0  0  0  0  0
   10.3301   -6.1094    7.1155 C   0  0  0  0  0  0  0  0  0  0  0  0
   11.0921   -7.0606    6.5677 C   0  0  0  0  0  0  0  0  0  0  0  0
   11.0232   -7.2290    5.1894 O   0  0  0  0  0  0  0  0  0  0  0  0
   11.9059   -7.9991    4.4311 C   0  0  0  0  0  0  0  0  0  0  0  0
   11.5749   -8.2581    3.1726 C   0  0  0  0  0  0  0  0  0  0  0  0
   10.3009   -7.8638    2.7399 O   0  0  0  0  0  0  0  0  0  0  0  0
    9.9719   -7.7197    1.3959 C   0  0  0  0  0  0  0  0  0  0  0  0
    9.2924   -6.6309    1.0364 C   0  0  0  0  0  0  0  0  0  0  0  0
    8.9929   -5.6972    2.0229 O   0  0  0  0  0  0  0  0  0  0  0  0
    8.3610   -4.4783    1.7871 C   0  0  0  0  0  0  0  0  0  0  0  0
    8.1564   -3.6534    2.8022 C   0  0  0  0  0  0  0  0  0  0  0  0
    8.6294   -3.9871    4.0769 O   0  0  0  0  0  0  0  0  0  0  0  0
    7.7932   -4.2187    5.1846 C   0  0  0  0  0  0  0  0  0  0  0  0
    6.4219   -3.9397    5.1313 C   0  0  0  0  0  0  0  0  0  0  0  0
    5.5702   -4.3299    6.1708 C   0  0  0  0  0  0  0  0  0  0  0  0
    4.1379   -4.3002    5.8460 C   0  0  0  0  0  0  0  0  0  0  0  0
    3.4526   -5.4300    5.6634 C   0  0  0  0  0  0  0  0  0  0  0  0
    2.3615   -5.5004    4.6790 C   0  0  0  0  0  0  0  0  0  0  0  0
    2.1608   -4.4030    3.4051 S   0  0  0  0  0  0  0  0  0  0  0  0
    1.0430   -5.3381    2.5867 C   0  0  0  0  0  0  0  0  0  0  0  0
    0.4865   -5.1165    1.2709 C   0  0  0  0  0  0  0  0  0  0  0  0
   -0.3788   -6.0390    0.7379 C   0  0  0  0  0  0  0  0  0  0  0  0
   -0.7353   -7.1986    1.4426 O   0  0  0  0  0  0  0  0  0  0  0  0
   -0.1372   -7.5942    2.7011 C   0  0  0  0  0  0  0  0  0  0  0  0
   -1.2850   -7.8652    3.7105 C   0  0  0  0  0  0  0  0  0  0  0  0
   -2.1263   -6.6189    4.0109 C   0  0  0  0  0  0  0  0  0  0  0  0
    0.6501   -8.9116    2.4794 C   0  0  0  0  0  0  0  0  0  0  0  0
    1.8224   -8.7565    1.5026 C   0  0  0  0  0  0  0  0  0  0  0  0
    0.7982   -6.5161    3.2732 C   0  0  0  0  0  0  0  0  0  0  0  0
    1.5586   -6.6158    4.4542 C   0  0  0  0  0  0  0  0  0  0  0  0
   -0.8083   -5.7129   -0.5564 C   0  0  0  0  0  0  0  0  0  0  0  0
   -0.2017   -4.5509   -1.0281 C   0  0  0  0  0  0  0  0  0  0  0  0
    0.8283   -3.9173    0.1526 S   0  0  0  0  0  0  0  0  0  0  0  0
   -0.3752   -3.9792   -2.3633 C   0  0  0  0  0  0  0  0  0  0  0  0
   -1.8459   -3.4877   -3.0208 S   0  0  0  0  0  0  0  0  0  0  0  0
   -1.1454   -2.7397   -4.3530 C   0  0  0  0  0  0  0  0  0  0  0  0
   -1.7884   -1.9193   -5.3624 C   0  0  0  0  0  0  0  0  0  0  0  0
   -1.0257   -1.3728   -6.3685 C   0  0  0  0  0  0  0  0  0  0  0  0
    0.3352   -1.7016   -6.4808 O   0  0  0  0  0  0  0  0  0  0  0  0
    1.1289   -2.1264   -5.3441 C   0  0  0  0  0  0  0  0  0  0  0  0
    2.2021   -3.1148   -5.8600 C   0  0  0  0  0  0  0  0  0  0  0  0
    3.1077   -2.5405   -6.9528 C   0  0  0  0  0  0  0  0  0  0  0  0
    1.7219   -0.8278   -4.7180 C   0  0  0  0  0  0  0  0  0  0  0  0
    2.7616   -1.0188   -3.6093 C   0  0  0  0  0  0  0  0  0  0  0  0
    0.2366   -2.8484   -4.3138 C   0  0  0  0  0  0  0  0  0  0  0  0
    0.6698   -3.5503   -3.1769 C   0  0  0  0  0  0  0  0  0  0  0  0
   -1.6960   -0.4201   -7.1473 C   0  0  0  0  0  0  0  0  0  0  0  0
   -2.9846   -0.1654   -6.6607 C   0  0  0  0  0  0  0  0  0  0  0  0
   -3.2900   -1.1746   -5.3284 S   0  0  0  0  0  0  0  0  0  0  0  0
   -3.8315    0.9950   -7.0069 C   0  0  0  0  0  0  0  0  0  0  0  0
   -5.0570    1.5784   -6.0045 S   0  0  0  0  0  0  0  0  0  0  0  0
   -5.3172    2.9653   -6.9050 C   0  0  0  0  0  0  0  0  0  0  0  0
   -6.1545    4.0896   -6.5847 C   0  0  0  0  0  0  0  0  0  0  0  0
   -6.2399    5.1441   -7.4466 C   0  0  0  0  0  0  0  0  0  0  0  0
   -5.5365    5.1288   -8.6549 O   0  0  0  0  0  0  0  0  0  0  0  0
   -4.3906    4.2662   -8.8824 C   0  0  0  0  0  0  0  0  0  0  0  0
   -3.0772    5.0293   -8.5161 C   0  0  0  0  0  0  0  0  0  0  0  0
   -3.2011    6.5557   -8.5589 C   0  0  0  0  0  0  0  0  0  0  0  0
   -4.4023    3.8233  -10.3684 C   0  0  0  0  0  0  0  0  0  0  0  0
   -4.5258    4.9727  -11.3704 C   0  0  0  0  0  0  0  0  0  0  0  0
   -4.4706    3.0110   -8.0016 C   0  0  0  0  0  0  0  0  0  0  0  0
   -3.6083    1.9020   -8.0459 C   0  0  0  0  0  0  0  0  0  0  0  0
   -7.0250    6.2049   -6.9782 C   0  0  0  0  0  0  0  0  0  0  0  0
   -7.4917    5.9770   -5.6734 C   0  0  0  0  0  0  0  0  0  0  0  0
   -6.9919    4.4363   -5.1730 S   0  0  0  0  0  0  0  0  0  0  0  0
   -8.2382    6.9226   -4.7943 C   0  0  0  0  0  0  0  0  0  0  0  0
   -9.1544    6.3804   -3.8803 C   0  0  0  0  0  0  0  0  0  0  0  0
   -9.7579    7.1758   -2.8983 C   0  0  0  0  0  0  0  0  0  0  0  0
  -10.5298    6.5971   -1.8806 O   0  0  0  0  0  0  0  0  0  0  0  0
  -10.4436    5.2611   -1.4688 C   0  0  0  0  0  0  0  0  0  0  0  0
   -9.2924    4.6249   -1.1811 C   0  0  0  0  0  0  0  0  0  0  0  0
   -8.0278    5.2233   -1.1693 O   0  0  0  0  0  0  0  0  0  0  0  0
   -7.7133    6.4883   -0.6372 C   0  0  0  0  0  0  0  0  0  0  0  0
   -8.2523    6.9561    0.4886 C   0  0  0  0  0  0  0  0  0  0  0  0
   -9.0646    6.1509    1.2979 O   0  0  0  0  0  0  0  0  0  0  0  0
  -10.1121    6.6460    2.0820 C   0  0  0  0  0  0  0  0  0  0  0  0
  -10.9185    7.6378    1.6769 C   0  0  0  0  0  0  0  0  0  0  0  0
  -10.6813    8.2723    0.4628 O   0  0  0  0  0  0  0  0  0  0  0  0
  -11.6970    8.8520   -0.2894 C   0  0  0  0  0  0  0  0  0  0  0  0
  -11.4180    9.3361   -1.4942 C   0  0  0  0  0  0  0  0  0  0  0  0
  -10.0947    9.4084   -1.9410 O   0  0  0  0  0  0  0  0  0  0  0  0
   -9.5365    8.5619   -2.9045 C   0  0  0  0  0  0  0  0  0  0  0  0
   -8.6516    9.1209   -3.8324 C   0  0  0  0  0  0  0  0  0  0  0  0
   -7.9674    8.3193   -4.7628 C   0  0  0  0  0  0  0  0  0  0  0  0
   -6.8922    8.9222   -5.5879 C   0  0  0  0  0  0  0  0  0  0  0  0
   -6.9934   10.1408   -6.1279 C   0  0  0  0  0  0  0  0  0  0  0  0
    6.2616   -2.4657    9.1478 H   0  0  0  0  0  0  0  0  0  0  0  0
    6.1029   -0.2537    8.1445 H   0  0  0  0  0  0  0  0  0  0  0  0
    6.0615    1.3774    6.6764 H   0  0  0  0  0  0  0  0  0  0  0  0
    5.8252    2.5051    4.5654 H   0  0  0  0  0  0  0  0  0  0  0  0
    4.3600    2.8166    2.4476 H   0  0  0  0  0  0  0  0  0  0  0  0
    2.2655    2.2192    1.3697 H   0  0  0  0  0  0  0  0  0  0  0  0
   -0.0090    0.9811    1.6408 H   0  0  0  0  0  0  0  0  0  0  0  0
   -1.2676   -0.6007    2.9639 H   0  0  0  0  0  0  0  0  0  0  0  0
    0.0299    1.5061    5.5230 H   0  0  0  0  0  0  0  0  0  0  0  0
    1.4960    0.9801    7.3255 H   0  0  0  0  0  0  0  0  0  0  0  0
    2.1537   -3.2563    8.1223 H   0  0  0  0  0  0  0  0  0  0  0  0
    3.7493   -4.8200    9.8820 H   0  0  0  0  0  0  0  0  0  0  0  0
    5.3760   -6.2511    8.9279 H   0  0  0  0  0  0  0  0  0  0  0  0
    7.8869   -5.6980    8.2505 H   0  0  0  0  0  0  0  0  0  0  0  0
   10.2703   -6.0107    8.1969 H   0  0  0  0  0  0  0  0  0  0  0  0
   11.7123   -7.7078    7.1751 H   0  0  0  0  0  0  0  0  0  0  0  0
   12.8454   -8.3528    4.8448 H   0  0  0  0  0  0  0  0  0  0  0  0
   12.2652   -8.7559    2.5000 H   0  0  0  0  0  0  0  0  0  0  0  0
   10.3012   -8.4388    0.6506 H   0  0  0  0  0  0  0  0  0  0  0  0
    9.0265   -6.4603    0.0039 H   0  0  0  0  0  0  0  0  0  0  0  0
    8.0118   -4.2255    0.7907 H   0  0  0  0  0  0  0  0  0  0  0  0
    7.5867   -2.7485    2.6460 H   0  0  0  0  0  0  0  0  0  0  0  0
    5.9984   -3.5178    4.2266 H   0  0  0  0  0  0  0  0  0  0  0  0
    3.7637   -3.3786    5.4006 H   0  0  0  0  0  0  0  0  0  0  0  0
    3.8458   -6.3628    6.0480 H   0  0  0  0  0  0  0  0  0  0  0  0
   -0.8757   -8.2494    4.6668 H   0  0  0  0  0  0  0  0  0  0  0  0
   -1.9506   -8.6566    3.3019 H   0  0  0  0  0  0  0  0  0  0  0  0
   -1.5137   -5.8467    4.5257 H   0  0  0  0  0  0  0  0  0  0  0  0
   -2.9711   -6.8894    4.6764 H   0  0  0  0  0  0  0  0  0  0  0  0
   -2.5392   -6.1953    3.0759 H   0  0  0  0  0  0  0  0  0  0  0  0
    1.0477   -9.2983    3.4435 H   0  0  0  0  0  0  0  0  0  0  0  0
   -0.0359   -9.6831    2.0741 H   0  0  0  0  0  0  0  0  0  0  0  0
    2.5959   -8.0808    1.9213 H   0  0  0  0  0  0  0  0  0  0  0  0
    2.2878   -9.7479    1.3175 H   0  0  0  0  0  0  0  0  0  0  0  0
    1.4731   -8.3570    0.5256 H   0  0  0  0  0  0  0  0  0  0  0  0
    1.5563   -7.4906    5.0896 H   0  0  0  0  0  0  0  0  0  0  0  0
   -1.4879   -6.3163   -1.1333 H   0  0  0  0  0  0  0  0  0  0  0  0
    2.8472   -3.4796   -5.0328 H   0  0  0  0  0  0  0  0  0  0  0  0
    1.6869   -4.0099   -6.2712 H   0  0  0  0  0  0  0  0  0  0  0  0
    3.7230   -1.7093   -6.5573 H   0  0  0  0  0  0  0  0  0  0  0  0
    2.5041   -2.1722   -7.8077 H   0  0  0  0  0  0  0  0  0  0  0  0
    3.7924   -3.3359   -7.3255 H   0  0  0  0  0  0  0  0  0  0  0  0
    0.8920   -0.2193   -4.3008 H   0  0  0  0  0  0  0  0  0  0  0  0
    2.1895   -0.2112   -5.5186 H   0  0  0  0  0  0  0  0  0  0  0  0
    2.3174   -1.4989   -2.7130 H   0  0  0  0  0  0  0  0  0  0  0  0
    3.6321   -1.6086   -3.9643 H   0  0  0  0  0  0  0  0  0  0  0  0
    3.1419   -0.0238   -3.2936 H   0  0  0  0  0  0  0  0  0  0  0  0
    1.7090   -3.7093   -2.9136 H   0  0  0  0  0  0  0  0  0  0  0  0
   -1.2239    0.1431   -7.9421 H   0  0  0  0  0  0  0  0  0  0  0  0
   -2.2466    4.7159   -9.1838 H   0  0  0  0  0  0  0  0  0  0  0  0
   -2.7542    4.7645   -7.4775 H   0  0  0  0  0  0  0  0  0  0  0  0
   -2.1971    7.0118   -8.4704 H   0  0  0  0  0  0  0  0  0  0  0  0
   -3.8173    6.9156   -7.7066 H   0  0  0  0  0  0  0  0  0  0  0  0
   -3.6653    6.9029   -9.5051 H   0  0  0  0  0  0  0  0  0  0  0  0
   -5.2696    3.1438  -10.5314 H   0  0  0  0  0  0  0  0  0  0  0  0
   -3.4835    3.2506  -10.6122 H   0  0  0  0  0  0  0  0  0  0  0  0
   -5.4008    5.6124  -11.1369 H   0  0  0  0  0  0  0  0  0  0  0  0
   -3.5986    5.5806  -11.3896 H   0  0  0  0  0  0  0  0  0  0  0  0
   -4.6727    4.5479  -12.3850 H   0  0  0  0  0  0  0  0  0  0  0  0
   -2.8313    1.7926   -8.7791 H   0  0  0  0  0  0  0  0  0  0  0  0
   -7.2109    7.1034   -7.5516 H   0  0  0  0  0  0  0  0  0  0  0  0
   -9.3599    5.3186   -3.9019 H   0  0  0  0  0  0  0  0  0  0  0  0
  -11.3665    4.7039   -1.3662 H   0  0  0  0  0  0  0  0  0  0  0  0
   -9.3425    3.5651   -0.9733 H   0  0  0  0  0  0  0  0  0  0  0  0
   -6.9857    7.0976   -1.1548 H   0  0  0  0  0  0  0  0  0  0  0  0
   -8.0299    7.9748    0.8005 H   0  0  0  0  0  0  0  0  0  0  0  0
  -10.3179    6.1529    3.0255 H   0  0  0  0  0  0  0  0  0  0  0  0
  -11.7687    7.9151    2.2896 H   0  0  0  0  0  0  0  0  0  0  0  0
  -12.7186    8.8584    0.0787 H   0  0  0  0  0  0  0  0  0  0  0  0
  -12.2182    9.6908   -2.1348 H   0  0  0  0  0  0  0  0  0  0  0  0
   -8.4384   10.1859   -3.7723 H   0  0  0  0  0  0  0  0  0  0  0  0
   -5.9948    8.3559   -5.7798 H   0  0  0  0  0  0  0  0  0  0  0  0
   -7.8671   10.7548   -5.9847 H   0  0  0  0  0  0  0  0  0  0  0  0
   -6.1739   10.5185   -6.7325 H   0  0  0  0  0  0  0  0  0  0  0  0
  1  2  2  0
  2  3  1  0
  3  4  1  0
  4  5  1  0
  5  6  2  0
  6  7  1  0
  7  8  1  0
  8  9  2  0
  9 10  1  0
 10 11  1  0
 11 12  2  0
 12 13  1  0
 13 14  1  0
 14 15  2  0
 15 16  1  0
 16 17  1  0
 17 18  1  0
 18 19  2  0
 19 20  1  0
 20 21  2  3
 21 22  1  0
 22 23  2  0
 23 24  1  0
 24 25  1  0
 25 26  1  0
 26 27  2  0
 27 28  1  0
 28 29  1  0
 29 30  2  0
 30 31  1  0
 31 32  1  0
 32 33  2  0
 33 34  1  0
 34 35  1  0
 35 36  2  0
 36 37  1  0
 37 38  1  0
 38 39  1  0
 39 40  2  0
 40 41  1  0
 41 42  2  3
 42 43  1  0
 43 44  1  0
 44 45  1  0
 45 46  1  0
 46 47  2  0
 47 48  1  0
 48 49  1  0
 49 50  1  0
 50 51  1  0
 49 52  1  0
 52 53  1  0
 49 54  1  0
 54 55  1  0
 47 56  1  0
 56 57  2  0
 57 58  1  0
 57 59  1  0
 59 60  1  0
 60 61  1  0
 61 62  1  0
 62 63  2  0
 63 64  1  0
 64 65  1  0
 65 66  1  0
 66 67  1  0
 65 68  1  0
 68 69  1  0
 65 70  1  0
 70 71  1  0
 63 72  1  0
 72 73  2  0
 73 74  1  0
 73 75  1  0
 75 76  1  0
 76 77  1  0
 77 78  1  0
 78 79  2  0
 79 80  1  0
 80 81  1  0
 81 82  1  0
 82 83  1  0
 81 84  1  0
 84 85  1  0
 81 86  1  0
 86 87  1  0
 79 88  1  0
 88 89  2  0
 89 90  1  0
 89 91  1  0
 91 92  2  0
 92 93  1  0
 93 94  1  0
 94 95  1  0
 95 96  2  0
 96 97  1  0
 97 98  1  0
 98 99  2  0
 99100  1  0
100101  1  0
101102  2  0
102103  1  0
103104  1  0
104105  2  0
105106  1  0
106107  1  0
107108  1  0
108109  2  0
109110  1  0
110111  2  3
 19  1  1  0
 40 22  1  0
 55 43  2  0
 71 59  2  0
 87 75  2  0
109 91  1  0
 17  3  2  0
 38 24  2  0
 54 45  2  0
 70 61  2  0
 86 77  2  0
107 93  2  0
 58 46  1  0
 74 62  1  0
 90 78  1  0
  1112  1  0
  2113  1  0
  5114  1  0
  6115  1  0
  8116  1  0
  9117  1  0
 11118  1  0
 12119  1  0
 14120  1  0
 15121  1  0
 18122  1  0
 20123  1  0
 21124  1  0
 23125  1  0
 26126  1  0
 27127  1  0
 29128  1  0
 30129  1  0
 32130  1  0
 33131  1  0
 35132  1  0
 36133  1  0
 39134  1  0
 41135  1  0
 42136  1  0
 50137  1  0
 50138  1  0
 51139  1  0
 51140  1  0
 51141  1  0
 52142  1  0
 52143  1  0
 53144  1  0
 53145  1  0
 53146  1  0
 55147  1  0
 56148  1  0
 66149  1  0
 66150  1  0
 67151  1  0
 67152  1  0
 67153  1  0
 68154  1  0
 68155  1  0
 69156  1  0
 69157  1  0
 69158  1  0
 71159  1  0
 72160  1  0
 82161  1  0
 82162  1  0
 83163  1  0
 83164  1  0
 83165  1  0
 84166  1  0
 84167  1  0
 85168  1  0
 85169  1  0
 85170  1  0
 87171  1  0
 88172  1  0
 92173  1  0
 95174  1  0
 96175  1  0
 98176  1  0
 99177  1  0
101178  1  0
102179  1  0
104180  1  0
105181  1  0
108182  1  0
110183  1  0
111184  1  0
111185  1  0
M  END

