
     RDKit          3D

226251  0  0  0  0  0  0  0  0999 V2000
    8.2711   -8.5938   -5.7730 C   0  0  0  0  0  0  0  0  0  0  0  0
    9.1527   -7.9195   -4.9307 C   0  0  0  0  0  0  0  0  0  0  0  0
    8.5038   -7.0702   -4.0186 C   0  0  0  0  0  0  0  0  0  0  0  0
    9.1212   -6.2563   -3.0495 C   0  0  0  0  0  0  0  0  0  0  0  0
   10.5867   -6.1958   -2.8899 C   0  0  0  0  0  0  0  0  0  0  0  0
   11.5195   -4.8191   -3.1523 S   0  0  0  0  0  0  0  0  0  0  0  0
   12.9952   -5.5298   -2.7709 C   0  0  0  0  0  0  0  0  0  0  0  0
   14.3046   -4.8003   -2.7359 C   0  0  0  0  0  0  0  0  0  0  0  0
   14.5802   -4.2549   -1.3404 C   0  0  0  0  0  0  0  0  0  0  0  0
   12.7748   -6.8563   -2.4042 C   0  0  0  0  0  0  0  0  0  0  0  0
   14.0513   -7.9412   -1.8761 Cl  0  0  0  0  0  0  0  0  0  0  0  0
   11.4216   -7.2316   -2.4784 C   0  0  0  0  0  0  0  0  0  0  0  0
   10.8407   -8.8260   -2.0208 Cl  0  0  0  0  0  0  0  0  0  0  0  0
    8.2747   -5.4580   -2.2620 C   0  0  0  0  0  0  0  0  0  0  0  0
    6.8816   -5.4497   -2.4039 C   0  0  0  0  0  0  0  0  0  0  0  0
    6.2658   -6.2544   -3.3850 C   0  0  0  0  0  0  0  0  0  0  0  0
    4.8112   -6.2340   -3.6142 C   0  0  0  0  0  0  0  0  0  0  0  0
    3.6573   -6.8248   -2.5421 S   0  0  0  0  0  0  0  0  0  0  0  0
    2.3246   -6.5073   -3.5226 C   0  0  0  0  0  0  0  0  0  0  0  0
    0.8973   -6.7510   -3.1309 C   0  0  0  0  0  0  0  0  0  0  0  0
    0.3094   -5.5168   -2.4595 C   0  0  0  0  0  0  0  0  0  0  0  0
    2.7692   -5.9093   -4.7001 C   0  0  0  0  0  0  0  0  0  0  0  0
    4.1659   -5.7650   -4.7565 C   0  0  0  0  0  0  0  0  0  0  0  0
    5.0070   -5.0187   -6.1087 Cl  0  0  0  0  0  0  0  0  0  0  0  0
    1.6949   -5.3896   -5.9938 Cl  0  0  0  0  0  0  0  0  0  0  0  0
    7.1113   -7.0616   -4.1688 C   0  0  0  0  0  0  0  0  0  0  0  0
    6.6932   -8.1291   -5.4000 S   0  0  0  0  0  0  0  0  0  0  0  0
    6.2384   -4.5644   -1.5183 C   0  0  0  0  0  0  0  0  0  0  0  0
    7.1335   -3.8936   -0.6832 C   0  0  0  0  0  0  0  0  0  0  0  0
    8.7080   -4.3897   -1.0408 S   0  0  0  0  0  0  0  0  0  0  0  0
    6.7974   -2.8647    0.3156 C   0  0  0  0  0  0  0  0  0  0  0  0
    5.2420   -2.3593    0.7409 S   0  0  0  0  0  0  0  0  0  0  0  0
    5.7712   -1.1648    1.8002 C   0  0  0  0  0  0  0  0  0  0  0  0
    4.9919   -0.2553    2.6198 C   0  0  0  0  0  0  0  0  0  0  0  0
    5.6410    0.5828    3.4942 C   0  0  0  0  0  0  0  0  0  0  0  0
    7.0377    0.5636    3.6113 O   0  0  0  0  0  0  0  0  0  0  0  0
    7.9056   -0.0342    2.6202 C   0  0  0  0  0  0  0  0  0  0  0  0
    8.3149    1.1106    1.6482 C   0  0  0  0  0  0  0  0  0  0  0  0
    9.3642    0.7567    0.5876 C   0  0  0  0  0  0  0  0  0  0  0  0
    9.1099   -0.6563    3.3745 C   0  0  0  0  0  0  0  0  0  0  0  0
    9.8677    0.3384    4.2599 C   0  0  0  0  0  0  0  0  0  0  0  0
    7.1565   -1.1318    1.8423 C   0  0  0  0  0  0  0  0  0  0  0  0
    7.7346   -2.1005    1.0078 C   0  0  0  0  0  0  0  0  0  0  0  0
    4.7891    1.4056    4.2314 C   0  0  0  0  0  0  0  0  0  0  0  0
    3.4489    1.1888    3.9172 C   0  0  0  0  0  0  0  0  0  0  0  0
    3.3339   -0.0176    2.7299 S   0  0  0  0  0  0  0  0  0  0  0  0
    2.3178    1.9705    4.4357 C   0  0  0  0  0  0  0  0  0  0  0  0
    2.3704    3.3169    4.7948 C   0  0  0  0  0  0  0  0  0  0  0  0
    1.1001    3.8689    5.0344 C   0  0  0  0  0  0  0  0  0  0  0  0
    0.8139    5.2357    5.2343 C   0  0  0  0  0  0  0  0  0  0  0  0
    1.8760    6.2533    5.2175 C   0  0  0  0  0  0  0  0  0  0  0  0
    3.0238    6.4547    6.4265 S   0  0  0  0  0  0  0  0  0  0  0  0
    3.8816    7.6797    5.6532 C   0  0  0  0  0  0  0  0  0  0  0  0
    5.1552    8.2792    6.1700 C   0  0  0  0  0  0  0  0  0  0  0  0
    6.3199    7.3214    5.9442 C   0  0  0  0  0  0  0  0  0  0  0  0
    3.2899    7.9259    4.4137 C   0  0  0  0  0  0  0  0  0  0  0  0
    3.9073    9.0885    3.2489 Cl  0  0  0  0  0  0  0  0  0  0  0  0
    2.1635    7.1243    4.1706 C   0  0  0  0  0  0  0  0  0  0  0  0
    1.2573    7.1622    2.6650 Cl  0  0  0  0  0  0  0  0  0  0  0  0
   -0.5411    5.6041    5.2701 C   0  0  0  0  0  0  0  0  0  0  0  0
   -1.5759    4.6730    5.1336 C   0  0  0  0  0  0  0  0  0  0  0  0
   -1.2916    3.3050    4.9480 C   0  0  0  0  0  0  0  0  0  0  0  0
   -2.3585    2.3260    4.6696 C   0  0  0  0  0  0  0  0  0  0  0  0
   -3.4733    1.7799    5.8045 S   0  0  0  0  0  0  0  0  0  0  0  0
   -4.2990    0.7530    4.7578 C   0  0  0  0  0  0  0  0  0  0  0  0
   -5.4893   -0.0759    5.1308 C   0  0  0  0  0  0  0  0  0  0  0  0
   -6.7801    0.7043    4.9147 C   0  0  0  0  0  0  0  0  0  0  0  0
   -3.7230    0.8439    3.4936 C   0  0  0  0  0  0  0  0  0  0  0  0
   -2.6284    1.7203    3.4447 C   0  0  0  0  0  0  0  0  0  0  0  0
   -1.7306    2.0497    1.9700 Cl  0  0  0  0  0  0  0  0  0  0  0  0
   -4.2997   -0.0509    2.0968 Cl  0  0  0  0  0  0  0  0  0  0  0  0
    0.0629    2.9413    4.8895 C   0  0  0  0  0  0  0  0  0  0  0  0
    0.7140    1.4524    4.4462 S   0  0  0  0  0  0  0  0  0  0  0  0
   -2.8339    5.2694    4.9631 C   0  0  0  0  0  0  0  0  0  0  0  0
   -2.7887    6.6651    4.8834 C   0  0  0  0  0  0  0  0  0  0  0  0
   -1.1889    7.1512    5.1350 S   0  0  0  0  0  0  0  0  0  0  0  0
   -3.6947    7.3754    3.9680 C   0  0  0  0  0  0  0  0  0  0  0  0
   -3.2301    7.7086    2.6936 C   0  0  0  0  0  0  0  0  0  0  0  0
   -4.1537    7.4451    1.6702 C   0  0  0  0  0  0  0  0  0  0  0  0
   -3.8120    7.2702    0.3146 C   0  0  0  0  0  0  0  0  0  0  0  0
   -2.4682    7.6098   -0.1812 C   0  0  0  0  0  0  0  0  0  0  0  0
   -1.9601    9.1624   -0.5674 S   0  0  0  0  0  0  0  0  0  0  0  0
   -0.3687    8.7461   -0.9255 C   0  0  0  0  0  0  0  0  0  0  0  0
    0.7102    9.7278   -1.2700 C   0  0  0  0  0  0  0  0  0  0  0  0
    1.2973   10.3466   -0.0074 C   0  0  0  0  0  0  0  0  0  0  0  0
   -0.2098    7.3760   -0.7182 C   0  0  0  0  0  0  0  0  0  0  0  0
    1.3171    6.5303   -0.9356 Cl  0  0  0  0  0  0  0  0  0  0  0  0
   -1.3859    6.7404   -0.3017 C   0  0  0  0  0  0  0  0  0  0  0  0
   -1.4697    5.0319    0.1010 Cl  0  0  0  0  0  0  0  0  0  0  0  0
   -4.7126    6.5376   -0.4774 C   0  0  0  0  0  0  0  0  0  0  0  0
   -5.9400    6.0798    0.0143 C   0  0  0  0  0  0  0  0  0  0  0  0
   -6.3428    6.3853    1.3322 C   0  0  0  0  0  0  0  0  0  0  0  0
   -7.6201    5.9206    1.9019 C   0  0  0  0  0  0  0  0  0  0  0  0
   -8.0674    4.3108    2.1293 S   0  0  0  0  0  0  0  0  0  0  0  0
   -9.5831    4.6456    2.7810 C   0  0  0  0  0  0  0  0  0  0  0  0
  -10.6146    3.6111    3.1134 C   0  0  0  0  0  0  0  0  0  0  0  0
  -11.5098    3.3409    1.9089 C   0  0  0  0  0  0  0  0  0  0  0  0
   -9.7595    6.0277    2.8225 C   0  0  0  0  0  0  0  0  0  0  0  0
   -8.6541    6.7410    2.3405 C   0  0  0  0  0  0  0  0  0  0  0  0
   -8.6038    8.4963    2.2418 Cl  0  0  0  0  0  0  0  0  0  0  0  0
  -11.2377    6.7997    3.3753 Cl  0  0  0  0  0  0  0  0  0  0  0  0
   -5.3994    7.0288    2.1475 C   0  0  0  0  0  0  0  0  0  0  0  0
   -5.3199    6.9280    3.8213 S   0  0  0  0  0  0  0  0  0  0  0  0
   -6.5479    5.1382   -0.8295 C   0  0  0  0  0  0  0  0  0  0  0  0
   -5.7769    4.8044   -1.9417 C   0  0  0  0  0  0  0  0  0  0  0  0
   -4.3800    5.7498   -1.9278 S   0  0  0  0  0  0  0  0  0  0  0  0
   -5.7579    3.4418   -2.4757 C   0  0  0  0  0  0  0  0  0  0  0  0
   -5.5851    2.0936   -1.4843 S   0  0  0  0  0  0  0  0  0  0  0  0
   -5.3560    1.0236   -2.7472 C   0  0  0  0  0  0  0  0  0  0  0  0
   -5.0060   -0.3705   -2.6499 C   0  0  0  0  0  0  0  0  0  0  0  0
   -4.7957   -1.0961   -3.7882 C   0  0  0  0  0  0  0  0  0  0  0  0
   -4.9467   -0.5150   -5.0536 O   0  0  0  0  0  0  0  0  0  0  0  0
   -5.2074    0.8958   -5.3046 C   0  0  0  0  0  0  0  0  0  0  0  0
   -3.9299    1.3943   -6.0501 C   0  0  0  0  0  0  0  0  0  0  0  0
   -4.0377    2.6735   -6.8853 C   0  0  0  0  0  0  0  0  0  0  0  0
   -6.4872    0.9058   -6.1976 C   0  0  0  0  0  0  0  0  0  0  0  0
   -7.3146    2.1948   -6.2544 C   0  0  0  0  0  0  0  0  0  0  0  0
   -5.4118    1.6718   -3.9741 C   0  0  0  0  0  0  0  0  0  0  0  0
   -5.6059    3.0648   -3.8083 C   0  0  0  0  0  0  0  0  0  0  0  0
   -4.4019   -2.4160   -3.5486 C   0  0  0  0  0  0  0  0  0  0  0  0
   -4.2500   -2.6796   -2.1855 C   0  0  0  0  0  0  0  0  0  0  0  0
   -4.6413   -1.2942   -1.2992 S   0  0  0  0  0  0  0  0  0  0  0  0
   -3.7944   -3.9465   -1.5974 C   0  0  0  0  0  0  0  0  0  0  0  0
   -3.2014   -4.0922   -0.3433 C   0  0  0  0  0  0  0  0  0  0  0  0
   -2.8893   -5.4275   -0.0383 C   0  0  0  0  0  0  0  0  0  0  0  0
   -2.2687   -5.9013    1.1399 C   0  0  0  0  0  0  0  0  0  0  0  0
   -1.8512   -5.0015    2.2372 C   0  0  0  0  0  0  0  0  0  0  0  0
   -0.2805   -4.9010    2.8401 S   0  0  0  0  0  0  0  0  0  0  0  0
   -0.6177   -3.8091    4.0707 C   0  0  0  0  0  0  0  0  0  0  0  0
    0.3943   -3.3042    5.0600 C   0  0  0  0  0  0  0  0  0  0  0  0
    1.4075   -2.3928    4.3824 C   0  0  0  0  0  0  0  0  0  0  0  0
   -1.9770   -3.4996    4.0274 C   0  0  0  0  0  0  0  0  0  0  0  0
   -2.7612   -2.4184    5.1706 Cl  0  0  0  0  0  0  0  0  0  0  0  0
   -2.6700   -4.1728    3.0050 C   0  0  0  0  0  0  0  0  0  0  0  0
   -4.4128   -4.0495    2.7933 Cl  0  0  0  0  0  0  0  0  0  0  0  0
   -2.0177   -7.2852    1.2076 C   0  0  0  0  0  0  0  0  0  0  0  0
   -2.3628   -8.1693    0.1822 C   0  0  0  0  0  0  0  0  0  0  0  0
   -2.9892   -7.6967   -0.9874 C   0  0  0  0  0  0  0  0  0  0  0  0
   -3.3732   -8.6001   -2.0856 C   0  0  0  0  0  0  0  0  0  0  0  0
   -2.7761   -8.5115   -3.6561 S   0  0  0  0  0  0  0  0  0  0  0  0
   -3.6961   -9.7794   -4.2682 C   0  0  0  0  0  0  0  0  0  0  0  0
   -3.7384  -10.1759   -5.7131 C   0  0  0  0  0  0  0  0  0  0  0  0
   -4.8044   -9.3768   -6.4539 C   0  0  0  0  0  0  0  0  0  0  0  0
   -4.5110  -10.2727   -3.2504 C   0  0  0  0  0  0  0  0  0  0  0  0
   -4.3241   -9.6162   -2.0249 C   0  0  0  0  0  0  0  0  0  0  0  0
   -5.2581   -9.9907   -0.5800 Cl  0  0  0  0  0  0  0  0  0  0  0  0
   -5.6848  -11.5599   -3.4821 Cl  0  0  0  0  0  0  0  0  0  0  0  0
   -3.2298   -6.3149   -1.0672 C   0  0  0  0  0  0  0  0  0  0  0  0
   -3.9213   -5.4561   -2.3386 S   0  0  0  0  0  0  0  0  0  0  0  0
   -2.0005   -9.4996    0.4522 C   0  0  0  0  0  0  0  0  0  0  0  0
   -1.4018   -9.6633    1.6975 C   0  0  0  0  0  0  0  0  0  0  0  0
   -1.3026   -8.1615    2.4557 S   0  0  0  0  0  0  0  0  0  0  0  0
    8.5556   -9.2933   -6.5444 H   0  0  0  0  0  0  0  0  0  0  0  0
   10.2245   -8.0429   -4.9872 H   0  0  0  0  0  0  0  0  0  0  0  0
   14.2735   -3.9548   -3.4567 H   0  0  0  0  0  0  0  0  0  0  0  0
   15.1282   -5.4811   -3.0428 H   0  0  0  0  0  0  0  0  0  0  0  0
   15.5271   -3.6779   -1.3440 H   0  0  0  0  0  0  0  0  0  0  0  0
   13.7570   -3.5805   -1.0203 H   0  0  0  0  0  0  0  0  0  0  0  0
   14.6760   -5.0886   -0.6129 H   0  0  0  0  0  0  0  0  0  0  0  0
    0.2976   -7.0073   -4.0305 H   0  0  0  0  0  0  0  0  0  0  0  0
    0.8444   -7.6112   -2.4323 H   0  0  0  0  0  0  0  0  0  0  0  0
    0.3648   -4.6429   -3.1437 H   0  0  0  0  0  0  0  0  0  0  0  0
    0.8616   -5.2879   -1.5214 H   0  0  0  0  0  0  0  0  0  0  0  0
   -0.7537   -5.7017   -2.2118 H   0  0  0  0  0  0  0  0  0  0  0  0
    5.1700   -4.4026   -1.4996 H   0  0  0  0  0  0  0  0  0  0  0  0
    8.6941    1.9742    2.2359 H   0  0  0  0  0  0  0  0  0  0  0  0
    7.4047    1.4734    1.1209 H   0  0  0  0  0  0  0  0  0  0  0  0
    8.9867   -0.0193   -0.1058 H   0  0  0  0  0  0  0  0  0  0  0  0
   10.3130    0.4278    1.0561 H   0  0  0  0  0  0  0  0  0  0  0  0
    9.5861    1.6605   -0.0169 H   0  0  0  0  0  0  0  0  0  0  0  0
    9.8306   -1.1201    2.6712 H   0  0  0  0  0  0  0  0  0  0  0  0
    8.7339   -1.4732    4.0296 H   0  0  0  0  0  0  0  0  0  0  0  0
   10.3606    1.1198    3.6458 H   0  0  0  0  0  0  0  0  0  0  0  0
    9.1839    0.8181    4.9906 H   0  0  0  0  0  0  0  0  0  0  0  0
   10.6569   -0.2017    4.8251 H   0  0  0  0  0  0  0  0  0  0  0  0
    8.8024   -2.2192    0.8843 H   0  0  0  0  0  0  0  0  0  0  0  0
    5.1337    2.1354    4.9520 H   0  0  0  0  0  0  0  0  0  0  0  0
    3.2860    3.8931    4.7853 H   0  0  0  0  0  0  0  0  0  0  0  0
    5.0493    8.4859    7.2558 H   0  0  0  0  0  0  0  0  0  0  0  0
    5.3662    9.2411    5.6581 H   0  0  0  0  0  0  0  0  0  0  0  0
    7.2652    7.7934    6.2853 H   0  0  0  0  0  0  0  0  0  0  0  0
    6.4136    7.0767    4.8644 H   0  0  0  0  0  0  0  0  0  0  0  0
    6.1648    6.3849    6.5209 H   0  0  0  0  0  0  0  0  0  0  0  0
   -5.4076   -0.3800    6.1970 H   0  0  0  0  0  0  0  0  0  0  0  0
   -5.5115   -1.0044    4.5203 H   0  0  0  0  0  0  0  0  0  0  0  0
   -6.8442    1.0749    3.8697 H   0  0  0  0  0  0  0  0  0  0  0  0
   -6.8244    1.5639    5.6150 H   0  0  0  0  0  0  0  0  0  0  0  0
   -7.6456    0.0383    5.1096 H   0  0  0  0  0  0  0  0  0  0  0  0
   -3.7155    4.6979    4.6924 H   0  0  0  0  0  0  0  0  0  0  0  0
   -2.1776    7.8750    2.4916 H   0  0  0  0  0  0  0  0  0  0  0  0
    1.5140    9.2261   -1.8445 H   0  0  0  0  0  0  0  0  0  0  0  0
    0.2882   10.5284   -1.9131 H   0  0  0  0  0  0  0  0  0  0  0  0
    0.5159   10.9130    0.5417 H   0  0  0  0  0  0  0  0  0  0  0  0
    1.7073    9.5543    0.6558 H   0  0  0  0  0  0  0  0  0  0  0  0
    2.1176   11.0439   -0.2806 H   0  0  0  0  0  0  0  0  0  0  0  0
  -10.1113    2.6719    3.4221 H   0  0  0  0  0  0  0  0  0  0  0  0
  -11.2363    3.9630    3.9631 H   0  0  0  0  0  0  0  0  0  0  0  0
  -10.9114    2.9467    1.0604 H   0  0  0  0  0  0  0  0  0  0  0  0
  -12.2789    2.5885    2.1777 H   0  0  0  0  0  0  0  0  0  0  0  0
  -12.0203    4.2764    1.5912 H   0  0  0  0  0  0  0  0  0  0  0  0
   -7.4329    4.5791   -0.5644 H   0  0  0  0  0  0  0  0  0  0  0  0
   -3.6039    0.5926   -6.7514 H   0  0  0  0  0  0  0  0  0  0  0  0
   -3.1052    1.5209   -5.3150 H   0  0  0  0  0  0  0  0  0  0  0  0
   -4.7854    2.5578   -7.6949 H   0  0  0  0  0  0  0  0  0  0  0  0
   -4.2649    3.5552   -6.2615 H   0  0  0  0  0  0  0  0  0  0  0  0
   -3.0584    2.8649   -7.3687 H   0  0  0  0  0  0  0  0  0  0  0  0
   -7.1756    0.1161   -5.8218 H   0  0  0  0  0  0  0  0  0  0  0  0
   -6.2157    0.6031   -7.2331 H   0  0  0  0  0  0  0  0  0  0  0  0
   -6.7097    3.0642   -6.5732 H   0  0  0  0  0  0  0  0  0  0  0  0
   -7.7798    2.4026   -5.2688 H   0  0  0  0  0  0  0  0  0  0  0  0
   -8.1341    2.0664   -6.9916 H   0  0  0  0  0  0  0  0  0  0  0  0
   -5.6486    3.7840   -4.6096 H   0  0  0  0  0  0  0  0  0  0  0  0
   -4.1930   -3.1302   -4.3361 H   0  0  0  0  0  0  0  0  0  0  0  0
   -2.9857   -3.2565    0.3078 H   0  0  0  0  0  0  0  0  0  0  0  0
   -0.1016   -2.7482    5.8833 H   0  0  0  0  0  0  0  0  0  0  0  0
    0.9271   -4.1716    5.5057 H   0  0  0  0  0  0  0  0  0  0  0  0
    2.0997   -1.9734    5.1443 H   0  0  0  0  0  0  0  0  0  0  0  0
    2.0032   -2.9638    3.6374 H   0  0  0  0  0  0  0  0  0  0  0  0
    0.8885   -1.5513    3.8770 H   0  0  0  0  0  0  0  0  0  0  0  0
   -2.7465   -9.9820   -6.1752 H   0  0  0  0  0  0  0  0  0  0  0  0
   -3.9496  -11.2634   -5.8056 H   0  0  0  0  0  0  0  0  0  0  0  0
   -5.8082   -9.5781   -6.0213 H   0  0  0  0  0  0  0  0  0  0  0  0
   -4.8083   -9.6702   -7.5249 H   0  0  0  0  0  0  0  0  0  0  0  0
   -4.5881   -8.2894   -6.3873 H   0  0  0  0  0  0  0  0  0  0  0  0
   -2.1619  -10.3225   -0.2307 H   0  0  0  0  0  0  0  0  0  0  0  0
   -1.0506  -10.6009    2.1011 H   0  0  0  0  0  0  0  0  0  0  0  0
  1  2  2  0
  2  3  1  0
  3  4  2  0
  4  5  1  0
  5  6  1  0
  6  7  1  0
  7  8  1  0
  8  9  1  0
  7 10  2  0
 10 11  1  0
 10 12  1  0
 12 13  1  0
  4 14  1  0
 14 15  2  0
 15 16  1  0
 16 17  1  0
 17 18  1  0
 18 19  1  0
 19 20  1  0
 20 21  1  0
 19 22  2  0
 22 23  1  0
 23 24  1  0
 22 25  1  0
 16 26  2  0
 26 27  1  0
 15 28  1  0
 28 29  2  0
 29 30  1  0
 29 31  1  0
 31 32  1  0
 32 33  1  0
 33 34  1  0
 34 35  2  0
 35 36  1  0
 36 37  1  0
 37 38  1  0
 38 39  1  0
 37 40  1  0
 40 41  1  0
 37 42  1  0
 42 43  1  0
 35 44  1  0
 44 45  2  0
 45 46  1  0
 45 47  1  0
 47 48  2  0
 48 49  1  0
 49 50  2  0
 50 51  1  0
 51 52  1  0
 52 53  1  0
 53 54  1  0
 54 55  1  0
 53 56  2  0
 56 57  1  0
 56 58  1  0
 58 59  1  0
 50 60  1  0
 60 61  2  0
 61 62  1  0
 62 63  1  0
 63 64  1  0
 64 65  1  0
 65 66  1  0
 66 67  1  0
 65 68  2  0
 68 69  1  0
 69 70  1  0
 68 71  1  0
 62 72  2  0
 72 73  1  0
 61 74  1  0
 74 75  2  0
 75 76  1  0
 75 77  1  0
 77 78  2  0
 78 79  1  0
 79 80  2  0
 80 81  1  0
 81 82  1  0
 82 83  1  0
 83 84  1  0
 84 85  1  0
 83 86  2  0
 86 87  1  0
 86 88  1  0
 88 89  1  0
 80 90  1  0
 90 91  2  0
 91 92  1  0
 92 93  1  0
 93 94  1  0
 94 95  1  0
 95 96  1  0
 96 97  1  0
 95 98  2  0
 98 99  1  0
 99100  1  0
 98101  1  0
 92102  2  0
102103  1  0
 91104  1  0
104105  2  0
105106  1  0
105107  1  0
107108  1  0
108109  1  0
109110  1  0
110111  2  0
111112  1  0
112113  1  0
113114  1  0
114115  1  0
113116  1  0
116117  1  0
113118  1  0
118119  1  0
111120  1  0
120121  2  0
121122  1  0
121123  1  0
123124  2  0
124125  1  0
125126  2  0
126127  1  0
127128  1  0
128129  1  0
129130  1  0
130131  1  0
129132  2  0
132133  1  0
132134  1  0
134135  1  0
126136  1  0
136137  2  0
137138  1  0
138139  1  0
139140  1  0
140141  1  0
141142  1  0
142143  1  0
141144  2  0
144145  1  0
145146  1  0
144147  1  0
138148  2  0
148149  1  0
137150  1  0
150151  2  0
151152  1  0
 27  1  1  0
 43 31  2  0
 73 47  1  0
103 77  1  0
119107  2  0
149123  1  0
 26  3  1  0
 42 33  2  0
 72 49  1  0
102 79  1  0
118109  2  0
148125  1  0
 12  5  2  0
 30 14  1  0
 46 34  1  0
 58 51  2  0
 76 60  1  0
 88 81  2  0
106 90  1  0
122110  1  0
134127  2  0
152136  1  0
 23 17  2  0
 69 63  2  0
 99 93  2  0
145139  2  0
  1153  1  0
  2154  1  0
  8155  1  0
  8156  1  0
  9157  1  0
  9158  1  0
  9159  1  0
 20160  1  0
 20161  1  0
 21162  1  0
 21163  1  0
 21164  1  0
 28165  1  0
 38166  1  0
 38167  1  0
 39168  1  0
 39169  1  0
 39170  1  0
 40171  1  0
 40172  1  0
 41173  1  0
 41174  1  0
 41175  1  0
 43176  1  0
 44177  1  0
 48178  1  0
 54179  1  0
 54180  1  0
 55181  1  0
 55182  1  0
 55183  1  0
 66184  1  0
 66185  1  0
 67186  1  0
 67187  1  0
 67188  1  0
 74189  1  0
 78190  1  0
 84191  1  0
 84192  1  0
 85193  1  0
 85194  1  0
 85195  1  0
 96196  1  0
 96197  1  0
 97198  1  0
 97199  1  0
 97200  1  0
104201  1  0
114202  1  0
114203  1  0
115204  1  0
115205  1  0
115206  1  0
116207  1  0
116208  1  0
117209  1  0
117210  1  0
117211  1  0
119212  1  0
120213  1  0
124214  1  0
130215  1  0
130216  1  0
131217  1  0
131218  1  0
131219  1  0
142220  1  0
142221  1  0
143222  1  0
143223  1  0
143224  1  0
150225  1  0
151226  1  0
M  END

