
     RDKit          3D

212235  0  0  0  0  0  0  0  0999 V2000
    6.2521   -8.6145    9.8751 C   0  0  0  0  0  0  0  0  0  0  0  0
    6.0746   -7.2661    9.5775 C   0  0  0  0  0  0  0  0  0  0  0  0
    4.8899   -7.0084    8.8710 C   0  0  0  0  0  0  0  0  0  0  0  0
    4.4370   -5.7520    8.4256 C   0  0  0  0  0  0  0  0  0  0  0  0
    5.1582   -4.5053    8.7320 C   0  0  0  0  0  0  0  0  0  0  0  0
    5.8483   -3.4889    7.5818 S   0  0  0  0  0  0  0  0  0  0  0  0
    6.3519   -2.3077    8.6712 C   0  0  0  0  0  0  0  0  0  0  0  0
    6.9945   -1.0110    8.2820 C   0  0  0  0  0  0  0  0  0  0  0  0
    5.9430    0.0109    7.8653 C   0  0  0  0  0  0  0  0  0  0  0  0
    5.9545   -2.6843    9.9547 C   0  0  0  0  0  0  0  0  0  0  0  0
    6.2176   -1.6953   11.3844 Cl  0  0  0  0  0  0  0  0  0  0  0  0
    5.2951   -3.9232    9.9890 C   0  0  0  0  0  0  0  0  0  0  0  0
    4.6217   -4.6186   11.4559 Cl  0  0  0  0  0  0  0  0  0  0  0  0
    3.2381   -5.7331    7.6948 C   0  0  0  0  0  0  0  0  0  0  0  0
    2.5029   -6.8901    7.4135 C   0  0  0  0  0  0  0  0  0  0  0  0
    2.9371   -8.1395    7.8948 C   0  0  0  0  0  0  0  0  0  0  0  0
    2.1365   -9.3610    7.7150 C   0  0  0  0  0  0  0  0  0  0  0  0
    1.9590  -10.1969    6.2681 S   0  0  0  0  0  0  0  0  0  0  0  0
    0.9903  -11.4231    6.8953 C   0  0  0  0  0  0  0  0  0  0  0  0
    0.4043  -12.5425    6.0897 C   0  0  0  0  0  0  0  0  0  0  0  0
   -0.9846  -12.1764    5.5838 C   0  0  0  0  0  0  0  0  0  0  0  0
    0.7785  -11.1806    8.2514 C   0  0  0  0  0  0  0  0  0  0  0  0
    1.4312  -10.0290    8.7132 C   0  0  0  0  0  0  0  0  0  0  0  0
    1.3252   -9.4533   10.3708 Cl  0  0  0  0  0  0  0  0  0  0  0  0
   -0.2065  -12.2082    9.2829 Cl  0  0  0  0  0  0  0  0  0  0  0  0
    4.1449   -8.1617    8.6121 C   0  0  0  0  0  0  0  0  0  0  0  0
    4.9466   -9.4897    9.2639 S   0  0  0  0  0  0  0  0  0  0  0  0
    1.3219   -6.6356    6.6947 C   0  0  0  0  0  0  0  0  0  0  0  0
    1.1264   -5.2774    6.4486 C   0  0  0  0  0  0  0  0  0  0  0  0
    2.4070   -4.3943    7.1065 S   0  0  0  0  0  0  0  0  0  0  0  0
   -0.0448   -4.6795    5.8033 C   0  0  0  0  0  0  0  0  0  0  0  0
   -0.8804   -5.3171    4.4787 S   0  0  0  0  0  0  0  0  0  0  0  0
   -1.9762   -4.0459    4.3907 C   0  0  0  0  0  0  0  0  0  0  0  0
   -3.0966   -3.8524    3.4843 C   0  0  0  0  0  0  0  0  0  0  0  0
   -3.9915   -2.8436    3.7467 C   0  0  0  0  0  0  0  0  0  0  0  0
   -3.8445   -2.0259    4.8734 O   0  0  0  0  0  0  0  0  0  0  0  0
   -2.5719   -1.8409    5.5323 C   0  0  0  0  0  0  0  0  0  0  0  0
   -2.8668   -1.5390    7.0256 C   0  0  0  0  0  0  0  0  0  0  0  0
   -3.7546   -0.3105    7.2466 C   0  0  0  0  0  0  0  0  0  0  0  0
   -1.8563   -0.6711    4.8004 C   0  0  0  0  0  0  0  0  0  0  0  0
   -0.5354   -0.2075    5.4194 C   0  0  0  0  0  0  0  0  0  0  0  0
   -1.7321   -3.1245    5.4045 C   0  0  0  0  0  0  0  0  0  0  0  0
   -0.6205   -3.4737    6.1852 C   0  0  0  0  0  0  0  0  0  0  0  0
   -4.9712   -2.6829    2.7747 C   0  0  0  0  0  0  0  0  0  0  0  0
   -4.7867   -3.5382    1.6840 C   0  0  0  0  0  0  0  0  0  0  0  0
   -3.4332   -4.5256    1.9767 S   0  0  0  0  0  0  0  0  0  0  0  0
   -5.4704   -3.3589    0.3900 C   0  0  0  0  0  0  0  0  0  0  0  0
   -5.1149   -3.9491   -0.8251 C   0  0  0  0  0  0  0  0  0  0  0  0
   -5.7317   -3.3352   -1.9350 C   0  0  0  0  0  0  0  0  0  0  0  0
   -5.4485   -3.5872   -3.2978 C   0  0  0  0  0  0  0  0  0  0  0  0
   -4.5917   -4.7171   -3.7194 C   0  0  0  0  0  0  0  0  0  0  0  0
   -3.1974   -4.5851   -4.6583 S   0  0  0  0  0  0  0  0  0  0  0  0
   -2.8551   -6.2328   -4.7135 C   0  0  0  0  0  0  0  0  0  0  0  0
   -1.7262   -6.8439   -5.4868 C   0  0  0  0  0  0  0  0  0  0  0  0
   -2.1867   -7.2802   -6.8739 C   0  0  0  0  0  0  0  0  0  0  0  0
   -3.8439   -6.9140   -4.0047 C   0  0  0  0  0  0  0  0  0  0  0  0
   -3.8865   -8.6656   -3.8472 Cl  0  0  0  0  0  0  0  0  0  0  0  0
   -4.8122   -6.0668   -3.4423 C   0  0  0  0  0  0  0  0  0  0  0  0
   -6.2102   -6.6655   -2.5566 Cl  0  0  0  0  0  0  0  0  0  0  0  0
   -5.9682   -2.6660   -4.2307 C   0  0  0  0  0  0  0  0  0  0  0  0
   -6.7647   -1.5796   -3.8529 C   0  0  0  0  0  0  0  0  0  0  0  0
   -7.1020   -1.3747   -2.5043 C   0  0  0  0  0  0  0  0  0  0  0  0
   -7.8316   -0.1748   -2.0541 C   0  0  0  0  0  0  0  0  0  0  0  0
   -7.2376    1.3985   -2.1368 S   0  0  0  0  0  0  0  0  0  0  0  0
   -8.5519    2.1284   -1.3803 C   0  0  0  0  0  0  0  0  0  0  0  0
   -8.6589    3.5963   -1.0889 C   0  0  0  0  0  0  0  0  0  0  0  0
   -8.2478    3.9010    0.3471 C   0  0  0  0  0  0  0  0  0  0  0  0
   -9.4668    1.1378   -1.0249 C   0  0  0  0  0  0  0  0  0  0  0  0
   -9.0614   -0.1533   -1.4000 C   0  0  0  0  0  0  0  0  0  0  0  0
  -10.0115   -1.5994   -1.0878 Cl  0  0  0  0  0  0  0  0  0  0  0  0
  -10.9707    1.4620   -0.1757 Cl  0  0  0  0  0  0  0  0  0  0  0  0
   -6.5653   -2.2715   -1.5737 C   0  0  0  0  0  0  0  0  0  0  0  0
   -6.5563   -2.1027    0.0903 S   0  0  0  0  0  0  0  0  0  0  0  0
   -7.0471   -0.6976   -4.9053 C   0  0  0  0  0  0  0  0  0  0  0  0
   -6.4385   -1.0581   -6.1028 C   0  0  0  0  0  0  0  0  0  0  0  0
   -5.6076   -2.5129   -5.8694 S   0  0  0  0  0  0  0  0  0  0  0  0
   -6.1081   -0.0850   -7.1558 C   0  0  0  0  0  0  0  0  0  0  0  0
   -5.9825    1.5642   -6.8342 S   0  0  0  0  0  0  0  0  0  0  0  0
   -5.0386    1.9302   -8.1630 C   0  0  0  0  0  0  0  0  0  0  0  0
   -4.1594    3.0764   -8.2803 C   0  0  0  0  0  0  0  0  0  0  0  0
   -3.0536    2.9821   -9.0962 C   0  0  0  0  0  0  0  0  0  0  0  0
   -2.9106    1.9233  -10.0048 O   0  0  0  0  0  0  0  0  0  0  0  0
   -3.8325    0.8078  -10.0950 C   0  0  0  0  0  0  0  0  0  0  0  0
   -2.9885   -0.4915  -10.1985 C   0  0  0  0  0  0  0  0  0  0  0  0
   -2.0861   -0.7241   -8.9817 C   0  0  0  0  0  0  0  0  0  0  0  0
   -4.7180    0.9914  -11.3545 C   0  0  0  0  0  0  0  0  0  0  0  0
   -3.9365    1.2633  -12.6436 C   0  0  0  0  0  0  0  0  0  0  0  0
   -4.7780    0.7732   -8.8806 C   0  0  0  0  0  0  0  0  0  0  0  0
   -5.4059   -0.3635   -8.3288 C   0  0  0  0  0  0  0  0  0  0  0  0
   -2.0350    3.8913   -8.7871 C   0  0  0  0  0  0  0  0  0  0  0  0
   -2.3140    4.6404   -7.6401 C   0  0  0  0  0  0  0  0  0  0  0  0
   -3.8523    4.2097   -7.0865 S   0  0  0  0  0  0  0  0  0  0  0  0
   -1.2908    5.2543   -6.7764 C   0  0  0  0  0  0  0  0  0  0  0  0
   -1.4061    5.3480   -5.3867 C   0  0  0  0  0  0  0  0  0  0  0  0
   -0.1767    5.5414   -4.7407 C   0  0  0  0  0  0  0  0  0  0  0  0
    0.0408    5.4905   -3.3509 C   0  0  0  0  0  0  0  0  0  0  0  0
   -1.0743    5.3317   -2.4047 C   0  0  0  0  0  0  0  0  0  0  0  0
   -2.1414    6.5552   -1.9689 S   0  0  0  0  0  0  0  0  0  0  0  0
   -3.1106    5.5997   -0.9788 C   0  0  0  0  0  0  0  0  0  0  0  0
   -4.3557    6.0766   -0.2923 C   0  0  0  0  0  0  0  0  0  0  0  0
   -5.5635    5.9245   -1.2068 C   0  0  0  0  0  0  0  0  0  0  0  0
   -2.6231    4.2930   -0.9995 C   0  0  0  0  0  0  0  0  0  0  0  0
   -3.3865    2.9564   -0.1486 Cl  0  0  0  0  0  0  0  0  0  0  0  0
   -1.4740    4.1446   -1.7939 C   0  0  0  0  0  0  0  0  0  0  0  0
   -0.6589    2.6070   -2.0488 Cl  0  0  0  0  0  0  0  0  0  0  0  0
    1.3745    5.4990   -2.9158 C   0  0  0  0  0  0  0  0  0  0  0  0
    2.4534    5.6034   -3.7984 C   0  0  0  0  0  0  0  0  0  0  0  0
    2.2355    5.7016   -5.1884 C   0  0  0  0  0  0  0  0  0  0  0  0
    3.3535    5.7607   -6.1456 C   0  0  0  0  0  0  0  0  0  0  0  0
    3.7339    4.5521   -7.2508 S   0  0  0  0  0  0  0  0  0  0  0  0
    5.0890    5.3193   -7.8884 C   0  0  0  0  0  0  0  0  0  0  0  0
    5.9921    4.7188   -8.9201 C   0  0  0  0  0  0  0  0  0  0  0  0
    7.2117    4.0792   -8.2618 C   0  0  0  0  0  0  0  0  0  0  0  0
    5.2713    6.5339   -7.2262 C   0  0  0  0  0  0  0  0  0  0  0  0
    4.2955    6.7824   -6.2495 C   0  0  0  0  0  0  0  0  0  0  0  0
    4.2562    8.2451   -5.2703 Cl  0  0  0  0  0  0  0  0  0  0  0  0
    6.5969    7.6375   -7.5698 Cl  0  0  0  0  0  0  0  0  0  0  0  0
    0.9012    5.6374   -5.6269 C   0  0  0  0  0  0  0  0  0  0  0  0
    0.3339    5.4617   -7.1997 S   0  0  0  0  0  0  0  0  0  0  0  0
    3.6995    5.4804   -3.1635 C   0  0  0  0  0  0  0  0  0  0  0  0
    3.5922    5.2640   -1.7904 C   0  0  0  0  0  0  0  0  0  0  0  0
    1.9600    5.2514   -1.3579 S   0  0  0  0  0  0  0  0  0  0  0  0
    4.7121    4.9356   -0.8956 C   0  0  0  0  0  0  0  0  0  0  0  0
    6.3430    5.0037   -1.3254 S   0  0  0  0  0  0  0  0  0  0  0  0
    6.8968    4.3602    0.1194 C   0  0  0  0  0  0  0  0  0  0  0  0
    8.2549    4.0564    0.5123 C   0  0  0  0  0  0  0  0  0  0  0  0
    8.5013    3.5226    1.7515 C   0  0  0  0  0  0  0  0  0  0  0  0
    7.4577    3.2591    2.6522 O   0  0  0  0  0  0  0  0  0  0  0  0
    6.0518    3.3643    2.3126 C   0  0  0  0  0  0  0  0  0  0  0  0
    5.4738    1.9319    2.1820 C   0  0  0  0  0  0  0  0  0  0  0  0
    5.7457    1.0305    3.3911 C   0  0  0  0  0  0  0  0  0  0  0  0
    5.3386    4.1454    3.4452 C   0  0  0  0  0  0  0  0  0  0  0  0
    5.8429    5.5845    3.5778 C   0  0  0  0  0  0  0  0  0  0  0  0
    5.8393    4.0738    0.9626 C   0  0  0  0  0  0  0  0  0  0  0  0
    4.5983    4.3979    0.3877 C   0  0  0  0  0  0  0  0  0  0  0  0
    9.8567    3.3029    2.0068 C   0  0  0  0  0  0  0  0  0  0  0  0
   10.6698    3.6704    0.9367 C   0  0  0  0  0  0  0  0  0  0  0  0
    9.7000    4.2736   -0.3126 S   0  0  0  0  0  0  0  0  0  0  0  0
    7.0961   -9.0325   10.4076 H   0  0  0  0  0  0  0  0  0  0  0  0
    6.7891   -6.5029    9.8592 H   0  0  0  0  0  0  0  0  0  0  0  0
    7.5884   -0.6089    9.1299 H   0  0  0  0  0  0  0  0  0  0  0  0
    7.6893   -1.1875    7.4343 H   0  0  0  0  0  0  0  0  0  0  0  0
    5.4108   -0.3347    6.9543 H   0  0  0  0  0  0  0  0  0  0  0  0
    6.4400    0.9811    7.6424 H   0  0  0  0  0  0  0  0  0  0  0  0
    5.2080    0.1674    8.6823 H   0  0  0  0  0  0  0  0  0  0  0  0
    0.3451  -13.4634    6.7079 H   0  0  0  0  0  0  0  0  0  0  0  0
    1.0671  -12.7585    5.2237 H   0  0  0  0  0  0  0  0  0  0  0  0
   -0.9379  -11.2527    4.9671 H   0  0  0  0  0  0  0  0  0  0  0  0
   -1.3804  -13.0006    4.9578 H   0  0  0  0  0  0  0  0  0  0  0  0
   -1.6758  -12.0113    6.4366 H   0  0  0  0  0  0  0  0  0  0  0  0
    0.6128   -7.4008    6.4077 H   0  0  0  0  0  0  0  0  0  0  0  0
   -1.9309   -1.4015    7.6041 H   0  0  0  0  0  0  0  0  0  0  0  0
   -3.3885   -2.4172    7.4636 H   0  0  0  0  0  0  0  0  0  0  0  0
   -4.0328   -0.2471    8.3203 H   0  0  0  0  0  0  0  0  0  0  0  0
   -4.6886   -0.3813    6.6500 H   0  0  0  0  0  0  0  0  0  0  0  0
   -3.2141    0.6213    6.9772 H   0  0  0  0  0  0  0  0  0  0  0  0
   -1.6545   -0.9744    3.7493 H   0  0  0  0  0  0  0  0  0  0  0  0
   -2.5416    0.2017    4.7384 H   0  0  0  0  0  0  0  0  0  0  0  0
   -0.1365    0.6410    4.8236 H   0  0  0  0  0  0  0  0  0  0  0  0
    0.2200   -1.0175    5.3957 H   0  0  0  0  0  0  0  0  0  0  0  0
   -0.6771    0.1507    6.4570 H   0  0  0  0  0  0  0  0  0  0  0  0
   -0.2485   -2.8789    7.0054 H   0  0  0  0  0  0  0  0  0  0  0  0
   -5.7183   -1.9026    2.8204 H   0  0  0  0  0  0  0  0  0  0  0  0
   -4.3582   -4.7174   -0.9069 H   0  0  0  0  0  0  0  0  0  0  0  0
   -0.9081   -6.1019   -5.5905 H   0  0  0  0  0  0  0  0  0  0  0  0
   -1.3234   -7.7177   -4.9357 H   0  0  0  0  0  0  0  0  0  0  0  0
   -1.3265   -7.7071   -7.4329 H   0  0  0  0  0  0  0  0  0  0  0  0
   -2.5814   -6.4095   -7.4400 H   0  0  0  0  0  0  0  0  0  0  0  0
   -2.9773   -8.0559   -6.7935 H   0  0  0  0  0  0  0  0  0  0  0  0
   -7.9992    4.1513   -1.7862 H   0  0  0  0  0  0  0  0  0  0  0  0
   -9.6980    3.9415   -1.2644 H   0  0  0  0  0  0  0  0  0  0  0  0
   -7.2249    3.5212    0.5494 H   0  0  0  0  0  0  0  0  0  0  0  0
   -8.2608    4.9986    0.5119 H   0  0  0  0  0  0  0  0  0  0  0  0
   -8.9589    3.4327    1.0582 H   0  0  0  0  0  0  0  0  0  0  0  0
   -7.5753    0.2343   -4.7764 H   0  0  0  0  0  0  0  0  0  0  0  0
   -3.6440   -1.3747  -10.3444 H   0  0  0  0  0  0  0  0  0  0  0  0
   -2.3198   -0.4330  -11.0848 H   0  0  0  0  0  0  0  0  0  0  0  0
   -1.3651    0.1124   -8.8631 H   0  0  0  0  0  0  0  0  0  0  0  0
   -2.6840   -0.8247   -8.0517 H   0  0  0  0  0  0  0  0  0  0  0  0
   -1.5114   -1.6644   -9.1274 H   0  0  0  0  0  0  0  0  0  0  0  0
   -5.3989    1.8581  -11.1943 H   0  0  0  0  0  0  0  0  0  0  0  0
   -5.3570    0.0949  -11.5027 H   0  0  0  0  0  0  0  0  0  0  0  0
   -3.3305    0.3855  -12.9373 H   0  0  0  0  0  0  0  0  0  0  0  0
   -4.6503    1.4729  -13.4689 H   0  0  0  0  0  0  0  0  0  0  0  0
   -3.2789    2.1485  -12.5261 H   0  0  0  0  0  0  0  0  0  0  0  0
   -5.2632   -1.3697   -8.6979 H   0  0  0  0  0  0  0  0  0  0  0  0
   -1.0672    3.8645   -9.2666 H   0  0  0  0  0  0  0  0  0  0  0  0
   -2.3279    5.1607   -4.8533 H   0  0  0  0  0  0  0  0  0  0  0  0
   -4.5208    5.5083    0.6492 H   0  0  0  0  0  0  0  0  0  0  0  0
   -4.2367    7.1486   -0.0212 H   0  0  0  0  0  0  0  0  0  0  0  0
   -5.6925    4.8620   -1.4986 H   0  0  0  0  0  0  0  0  0  0  0  0
   -5.4335    6.5408   -2.1210 H   0  0  0  0  0  0  0  0  0  0  0  0
   -6.4742    6.2665   -0.6755 H   0  0  0  0  0  0  0  0  0  0  0  0
    5.4342    3.9438   -9.4906 H   0  0  0  0  0  0  0  0  0  0  0  0
    6.3191    5.5030   -9.6369 H   0  0  0  0  0  0  0  0  0  0  0  0
    7.8581    4.8630   -7.8154 H   0  0  0  0  0  0  0  0  0  0  0  0
    6.8949    3.3724   -7.4650 H   0  0  0  0  0  0  0  0  0  0  0  0
    7.7976    3.5225   -9.0179 H   0  0  0  0  0  0  0  0  0  0  0  0
    4.6458    5.4830   -3.6896 H   0  0  0  0  0  0  0  0  0  0  0  0
    5.9302    1.4430    1.2902 H   0  0  0  0  0  0  0  0  0  0  0  0
    4.3756    1.9741    2.0095 H   0  0  0  0  0  0  0  0  0  0  0  0
    5.1920    1.3812    4.2829 H   0  0  0  0  0  0  0  0  0  0  0  0
    5.3997   -0.0018    3.1617 H   0  0  0  0  0  0  0  0  0  0  0  0
    6.8313    0.9853    3.6163 H   0  0  0  0  0  0  0  0  0  0  0  0
    4.2404    4.1617    3.2766 H   0  0  0  0  0  0  0  0  0  0  0  0
    5.5196    3.6438    4.4184 H   0  0  0  0  0  0  0  0  0  0  0  0
    5.6061    6.1706    2.6662 H   0  0  0  0  0  0  0  0  0  0  0  0
    6.9399    5.5957    3.7514 H   0  0  0  0  0  0  0  0  0  0  0  0
    5.3454    6.0709    4.4450 H   0  0  0  0  0  0  0  0  0  0  0  0
    3.6481    4.2070    0.8720 H   0  0  0  0  0  0  0  0  0  0  0  0
   10.2340    2.8924    2.9334 H   0  0  0  0  0  0  0  0  0  0  0  0
   11.7480    3.5902    0.9124 H   0  0  0  0  0  0  0  0  0  0  0  0
  1  2  2  0
  2  3  1  0
  3  4  2  0
  4  5  1  0
  5  6  1  0
  6  7  1  0
  7  8  1  0
  8  9  1  0
  7 10  2  0
 10 11  1  0
 10 12  1  0
 12 13  1  0
  4 14  1  0
 14 15  2  0
 15 16  1  0
 16 17  1  0
 17 18  1  0
 18 19  1  0
 19 20  1  0
 20 21  1  0
 19 22  2  0
 22 23  1  0
 23 24  1  0
 22 25  1  0
 16 26  2  0
 26 27  1  0
 15 28  1  0
 28 29  2  0
 29 30  1  0
 29 31  1  0
 31 32  1  0
 32 33  1  0
 33 34  1  0
 34 35  2  0
 35 36  1  0
 36 37  1  0
 37 38  1  0
 38 39  1  0
 37 40  1  0
 40 41  1  0
 37 42  1  0
 42 43  1  0
 35 44  1  0
 44 45  2  0
 45 46  1  0
 45 47  1  0
 47 48  2  0
 48 49  1  0
 49 50  2  0
 50 51  1  0
 51 52  1  0
 52 53  1  0
 53 54  1  0
 54 55  1  0
 53 56  2  0
 56 57  1  0
 56 58  1  0
 58 59  1  0
 50 60  1  0
 60 61  2  0
 61 62  1  0
 62 63  1  0
 63 64  1  0
 64 65  1  0
 65 66  1  0
 66 67  1  0
 65 68  2  0
 68 69  1  0
 69 70  1  0
 68 71  1  0
 62 72  2  0
 72 73  1  0
 61 74  1  0
 74 75  2  0
 75 76  1  0
 75 77  1  0
 77 78  1  0
 78 79  1  0
 79 80  1  0
 80 81  2  0
 81 82  1  0
 82 83  1  0
 83 84  1  0
 84 85  1  0
 83 86  1  0
 86 87  1  0
 83 88  1  0
 88 89  1  0
 81 90  1  0
 90 91  2  0
 91 92  1  0
 91 93  1  0
 93 94  2  0
 94 95  1  0
 95 96  2  0
 96 97  1  0
 97 98  1  0
 98 99  1  0
 99100  1  0
100101  1  0
 99102  2  0
102103  1  0
102104  1  0
104105  1  0
 96106  1  0
106107  2  0
107108  1  0
108109  1  0
109110  1  0
110111  1  0
111112  1  0
112113  1  0
111114  2  0
114115  1  0
115116  1  0
114117  1  0
108118  2  0
118119  1  0
107120  1  0
120121  2  0
121122  1  0
121123  1  0
123124  1  0
124125  1  0
125126  1  0
126127  2  0
127128  1  0
128129  1  0
129130  1  0
130131  1  0
129132  1  0
132133  1  0
129134  1  0
134135  1  0
127136  1  0
136137  2  0
137138  1  0
 27  1  1  0
 43 31  2  0
 73 47  1  0
 89 77  2  0
119 93  1  0
135123  2  0
 26  3  1  0
 42 33  2  0
 72 49  1  0
 88 79  2  0
118 95  1  0
134125  2  0
 12  5  2  0
 30 14  1  0
 46 34  1  0
 58 51  2  0
 76 60  1  0
 92 80  1  0
104 97  2  0
122106  1  0
138126  1  0
 23 17  2  0
 69 63  2  0
115109  2  0
  1139  1  0
  2140  1  0
  8141  1  0
  8142  1  0
  9143  1  0
  9144  1  0
  9145  1  0
 20146  1  0
 20147  1  0
 21148  1  0
 21149  1  0
 21150  1  0
 28151  1  0
 38152  1  0
 38153  1  0
 39154  1  0
 39155  1  0
 39156  1  0
 40157  1  0
 40158  1  0
 41159  1  0
 41160  1  0
 41161  1  0
 43162  1  0
 44163  1  0
 48164  1  0
 54165  1  0
 54166  1  0
 55167  1  0
 55168  1  0
 55169  1  0
 66170  1  0
 66171  1  0
 67172  1  0
 67173  1  0
 67174  1  0
 74175  1  0
 84176  1  0
 84177  1  0
 85178  1  0
 85179  1  0
 85180  1  0
 86181  1  0
 86182  1  0
 87183  1  0
 87184  1  0
 87185  1  0
 89186  1  0
 90187  1  0
 94188  1  0
100189  1  0
100190  1  0
101191  1  0
101192  1  0
101193  1  0
112194  1  0
112195  1  0
113196  1  0
113197  1  0
113198  1  0
120199  1  0
130200  1  0
130201  1  0
131202  1  0
131203  1  0
131204  1  0
132205  1  0
132206  1  0
133207  1  0
133208  1  0
133209  1  0
135210  1  0
136211  1  0
137212  1  0
M  END

