
     RDKit          3D

 75 82  0  0  0  0  0  0  0  0999 V2000
    0.5124   -2.4700    9.5990 C   0  0  0  0  0  0  0  0  0  0  0  0
   -0.4522   -1.6589    9.2233 O   0  0  0  0  0  0  0  0  0  0  0  0
   -0.1132   -1.0793    8.0930 C   0  0  0  0  0  0  0  0  0  0  0  0
    1.1474   -1.5297    7.7193 C   0  0  0  0  0  0  0  0  0  0  0  0
    1.5434   -2.4324    8.6827 C   0  0  0  0  0  0  0  0  0  0  0  0
    1.9488   -1.1151    6.6050 N   0  0  0  0  0  4  0  0  0  0  0  0
    3.0478   -1.8594    6.2447 O   0  0  0  0  0  1  0  0  0  0  0  0
    1.7698   -0.0048    6.0659 O   0  0  0  0  0  0  0  0  0  0  0  0
   -0.9991   -0.1440    7.3811 C   0  0  0  0  0  0  0  0  0  0  0  0
   -0.8551    0.2170    6.1256 O   0  0  0  0  0  0  0  0  0  0  0  0
   -1.8268    1.0396    5.8024 C   0  0  0  0  0  0  0  0  0  0  0  0
   -2.6604    1.2079    6.8996 C   0  0  0  0  0  0  0  0  0  0  0  0
   -2.1247    0.4497    7.9210 C   0  0  0  0  0  0  0  0  0  0  0  0
   -3.9170    1.8967    6.9514 N   0  0  0  0  0  4  0  0  0  0  0  0
   -4.6682    2.0616    5.8119 O   0  0  0  0  0  1  0  0  0  0  0  0
   -4.4323    2.1617    8.0558 O   0  0  0  0  0  0  0  0  0  0  0  0
   -1.9211    1.6634    4.4759 C   0  0  0  0  0  0  0  0  0  0  0  0
   -1.4642    1.0944    3.3824 O   0  0  0  0  0  0  0  0  0  0  0  0
   -1.6482    1.9084    2.3672 C   0  0  0  0  0  0  0  0  0  0  0  0
   -2.2327    3.0807    2.8311 C   0  0  0  0  0  0  0  0  0  0  0  0
   -2.4189    2.9216    4.1883 C   0  0  0  0  0  0  0  0  0  0  0  0
   -2.4415    4.3027    2.1144 N   0  0  0  0  0  4  0  0  0  0  0  0
   -3.3018    5.2478    2.6227 O   0  0  0  0  0  1  0  0  0  0  0  0
   -1.6822    4.6185    1.1764 O   0  0  0  0  0  0  0  0  0  0  0  0
   -1.2963    1.5423    0.9857 C   0  0  0  0  0  0  0  0  0  0  0  0
   -0.1770    0.3443    0.5872 S   0  0  0  0  0  0  0  0  0  0  0  0
   -0.4484    0.4392   -1.0651 C   0  0  0  0  0  0  0  0  0  0  0  0
    0.0916   -0.3978   -2.1165 C   0  0  0  0  0  0  0  0  0  0  0  0
   -0.4397   -0.3181   -3.3793 C   0  0  0  0  0  0  0  0  0  0  0  0
   -1.4673    0.5886   -3.6759 O   0  0  0  0  0  0  0  0  0  0  0  0
   -1.8674    1.6680   -2.7936 C   0  0  0  0  0  0  0  0  0  0  0  0
   -1.1452    2.9458   -3.3061 C   0  0  0  0  0  0  0  0  0  0  0  0
   -1.5374    4.2579   -2.6200 C   0  0  0  0  0  0  0  0  0  0  0  0
   -3.4149    1.7708   -2.8668 C   0  0  0  0  0  0  0  0  0  0  0  0
   -3.9541    1.9819   -4.2841 C   0  0  0  0  0  0  0  0  0  0  0  0
   -1.4340    1.3741   -1.3443 C   0  0  0  0  0  0  0  0  0  0  0  0
   -1.9195    1.9951   -0.1788 C   0  0  0  0  0  0  0  0  0  0  0  0
    0.0945   -1.2447   -4.2759 C   0  0  0  0  0  0  0  0  0  0  0  0
    1.0503   -2.0675   -3.6750 C   0  0  0  0  0  0  0  0  0  0  0  0
    1.2163   -1.6422   -2.0443 S   0  0  0  0  0  0  0  0  0  0  0  0
    1.7697   -3.1727   -4.3218 C   0  0  0  0  0  0  0  0  0  0  0  0
    2.5528   -4.0079   -3.6746 O   0  0  0  0  0  0  0  0  0  0  0  0
    3.0355   -4.8881   -4.5232 C   0  0  0  0  0  0  0  0  0  0  0  0
    2.5322   -4.6124   -5.7911 C   0  0  0  0  0  0  0  0  0  0  0  0
    1.7250   -3.5010   -5.6644 C   0  0  0  0  0  0  0  0  0  0  0  0
    2.7313   -5.3440   -7.0085 N   0  0  0  0  0  4  0  0  0  0  0  0
    2.3924   -4.7660   -8.2099 O   0  0  0  0  0  1  0  0  0  0  0  0
    3.0323   -6.5533   -6.9856 O   0  0  0  0  0  0  0  0  0  0  0  0
    3.9764   -5.9456   -4.1179 C   0  0  0  0  0  0  0  0  0  0  0  0
    4.6858   -6.6830   -4.9455 O   0  0  0  0  0  0  0  0  0  0  0  0
    5.4290   -7.5134   -4.2490 C   0  0  0  0  0  0  0  0  0  0  0  0
    5.1941   -7.3008   -2.9074 C   0  0  0  0  0  0  0  0  0  0  0  0
    4.2625   -6.2896   -2.8092 C   0  0  0  0  0  0  0  0  0  0  0  0
    5.8081   -7.9993   -1.8203 N   0  0  0  0  0  4  0  0  0  0  0  0
    6.7437   -8.9769   -2.0673 O   0  0  0  0  0  1  0  0  0  0  0  0
    5.4936   -7.7333   -0.6419 O   0  0  0  0  0  0  0  0  0  0  0  0
    0.4887   -3.0710   10.4977 H   0  0  0  0  0  0  0  0  0  0  0  0
    2.4771   -2.9763    8.7311 H   0  0  0  0  0  0  0  0  0  0  0  0
   -2.5259    0.3114    8.9166 H   0  0  0  0  0  0  0  0  0  0  0  0
   -2.7880    3.6604    4.8881 H   0  0  0  0  0  0  0  0  0  0  0  0
   -1.3221    3.0570   -4.3970 H   0  0  0  0  0  0  0  0  0  0  0  0
   -0.0487    2.8078   -3.1846 H   0  0  0  0  0  0  0  0  0  0  0  0
   -2.6167    4.4741   -2.7497 H   0  0  0  0  0  0  0  0  0  0  0  0
   -0.9678    5.0918   -3.0811 H   0  0  0  0  0  0  0  0  0  0  0  0
   -1.2824    4.2339   -1.5433 H   0  0  0  0  0  0  0  0  0  0  0  0
   -3.8475    0.8236   -2.4756 H   0  0  0  0  0  0  0  0  0  0  0  0
   -3.7980    2.5882   -2.2220 H   0  0  0  0  0  0  0  0  0  0  0  0
   -3.6544    2.9746   -4.6773 H   0  0  0  0  0  0  0  0  0  0  0  0
   -3.5918    1.1867   -4.9698 H   0  0  0  0  0  0  0  0  0  0  0  0
   -5.0633    1.9428   -4.2637 H   0  0  0  0  0  0  0  0  0  0  0  0
   -2.7210    2.7196   -0.1792 H   0  0  0  0  0  0  0  0  0  0  0  0
   -0.2229   -1.3267   -5.3070 H   0  0  0  0  0  0  0  0  0  0  0  0
    1.1588   -3.0110   -6.4462 H   0  0  0  0  0  0  0  0  0  0  0  0
    6.1084   -8.2374   -4.6788 H   0  0  0  0  0  0  0  0  0  0  0  0
    3.8476   -5.8591   -1.9073 H   0  0  0  0  0  0  0  0  0  0  0  0
  1  2  1  0
  2  3  1  0
  3  4  2  0
  4  5  1  0
  4  6  1  0
  6  7  1  0
  6  8  2  0
  3  9  1  0
  9 10  1  0
 10 11  1  0
 11 12  2  0
 12 13  1  0
 12 14  1  0
 14 15  1  0
 14 16  2  0
 11 17  1  0
 17 18  1  0
 18 19  1  0
 19 20  2  0
 20 21  1  0
 20 22  1  0
 22 23  1  0
 22 24  2  0
 19 25  1  0
 25 26  1  0
 26 27  1  0
 27 28  1  0
 28 29  2  0
 29 30  1  0
 30 31  1  0
 31 32  1  0
 32 33  1  0
 31 34  1  0
 34 35  1  0
 31 36  1  0
 36 37  1  0
 29 38  1  0
 38 39  2  0
 39 40  1  0
 39 41  1  0
 41 42  1  0
 42 43  1  0
 43 44  2  0
 44 45  1  0
 44 46  1  0
 46 47  1  0
 46 48  2  0
 43 49  1  0
 49 50  1  0
 50 51  1  0
 51 52  2  0
 52 53  1  0
 52 54  1  0
 54 55  1  0
 54 56  2  0
  5  1  2  0
 13  9  2  0
 21 17  2  0
 37 25  2  0
 45 41  2  0
 53 49  2  0
 36 27  2  0
 40 28  1  0
  1 57  1  0
  5 58  1  0
 13 59  1  0
 21 60  1  0
 32 61  1  0
 32 62  1  0
 33 63  1  0
 33 64  1  0
 33 65  1  0
 34 66  1  0
 34 67  1  0
 35 68  1  0
 35 69  1  0
 35 70  1  0
 37 71  1  0
 38 72  1  0
 45 73  1  0
 51 74  1  0
 53 75  1  0
M  CHG  8   6   1   7  -1  14   1  15  -1  22   1  23  -1  46   1  47  -1
M  CHG  2  54   1  55  -1
M  END

