
     RDKit          3D

170190  0  0  0  0  0  0  0  0999 V2000
    6.4388   -0.0717   -7.0136 C   0  0  0  0  0  0  0  0  0  0  0  0
    6.3120    0.7684   -8.0435 C   0  0  0  0  0  0  0  0  0  0  0  0
    7.5683    0.7777   -8.7769 C   0  0  0  0  0  0  0  0  0  0  0  0
    8.4281   -0.0221   -8.1910 C   0  0  0  0  0  0  0  0  0  0  0  0
    9.6729   -0.2806   -8.7806 O   0  0  0  0  0  0  0  0  0  0  0  0
    9.9942    0.3220  -10.0100 C   0  0  0  0  0  0  0  0  0  0  0  0
    9.1167    1.1613  -10.6006 C   0  0  0  0  0  0  0  0  0  0  0  0
    7.8809    1.4322   -9.9743 O   0  0  0  0  0  0  0  0  0  0  0  0
    7.8123   -0.6105   -6.9913 C   0  0  0  0  0  0  0  0  0  0  0  0
    8.3809   -1.4439   -6.0959 C   0  0  0  0  0  0  0  0  0  0  0  0
    9.7329   -2.0253   -6.1831 C   0  0  0  0  0  0  0  0  0  0  0  0
    9.8443   -3.0030   -5.3201 C   0  0  0  0  0  0  0  0  0  0  0  0
   11.0223   -3.7465   -5.2004 O   0  0  0  0  0  0  0  0  0  0  0  0
   12.1150   -3.4304   -6.0222 C   0  0  0  0  0  0  0  0  0  0  0  0
   12.0191   -2.4084   -6.8996 C   0  0  0  0  0  0  0  0  0  0  0  0
   10.8204   -1.6666   -6.9880 O   0  0  0  0  0  0  0  0  0  0  0  0
    8.6246   -3.1343   -4.5584 C   0  0  0  0  0  0  0  0  0  0  0  0
    7.7697   -2.1885   -4.9544 C   0  0  0  0  0  0  0  0  0  0  0  0
    6.4000   -2.1673   -4.3995 C   0  0  0  0  0  0  0  0  0  0  0  0
    5.7845   -1.1355   -3.8121 C   0  0  0  0  0  0  0  0  0  0  0  0
    6.1635    0.2860   -3.8255 C   0  0  0  0  0  0  0  0  0  0  0  0
    5.2375    1.2256   -4.0560 C   0  0  0  0  0  0  0  0  0  0  0  0
    5.9153    2.4794   -4.3336 C   0  0  0  0  0  0  0  0  0  0  0  0
    7.2094    2.3152   -4.2654 C   0  0  0  0  0  0  0  0  0  0  0  0
    8.0798    3.3941   -4.4683 O   0  0  0  0  0  0  0  0  0  0  0  0
    7.5483    4.6574   -4.7872 C   0  0  0  0  0  0  0  0  0  0  0  0
    6.2128    4.8205   -4.8775 C   0  0  0  0  0  0  0  0  0  0  0  0
    5.3615    3.7223   -4.6496 O   0  0  0  0  0  0  0  0  0  0  0  0
    7.4993    0.9257   -3.8841 C   0  0  0  0  0  0  0  0  0  0  0  0
    8.6966    0.5278   -3.4307 C   0  0  0  0  0  0  0  0  0  0  0  0
    9.9577    0.9173   -4.0645 C   0  0  0  0  0  0  0  0  0  0  0  0
   10.9418    0.1882   -3.5931 C   0  0  0  0  0  0  0  0  0  0  0  0
   12.2322    0.2757   -4.1269 O   0  0  0  0  0  0  0  0  0  0  0  0
   12.4654    1.1349   -5.2217 C   0  0  0  0  0  0  0  0  0  0  0  0
   11.4491    1.8739   -5.7262 C   0  0  0  0  0  0  0  0  0  0  0  0
   10.1692    1.7871   -5.1421 O   0  0  0  0  0  0  0  0  0  0  0  0
   10.4371   -0.7375   -2.5973 C   0  0  0  0  0  0  0  0  0  0  0  0
    9.1074   -0.5580   -2.4866 C   0  0  0  0  0  0  0  0  0  0  0  0
    8.3168   -1.4146   -1.5790 C   0  0  0  0  0  0  0  0  0  0  0  0
    7.2198   -1.1176   -0.8754 C   0  0  0  0  0  0  0  0  0  0  0  0
    6.4952    0.1556   -0.7971 C   0  0  0  0  0  0  0  0  0  0  0  0
    4.8193    0.2002   -0.7488 S   0  0  0  0  0  0  0  0  0  0  0  0
    4.7205    1.8385   -0.4662 C   0  0  0  0  0  0  0  0  0  0  0  0
    3.5335    2.6081   -0.2165 C   0  0  0  0  0  0  0  0  0  0  0  0
    3.6234    3.8687    0.3128 C   0  0  0  0  0  0  0  0  0  0  0  0
    4.8817    4.4559    0.5471 O   0  0  0  0  0  0  0  0  0  0  0  0
    6.1470    3.8500    0.1652 C   0  0  0  0  0  0  0  0  0  0  0  0
    6.7235    4.6524   -1.0284 C   0  0  0  0  0  0  0  0  0  0  0  0
    6.9150    6.1550   -0.7428 C   0  0  0  0  0  0  0  0  0  0  0  0
    7.0966    3.9022    1.3867 C   0  0  0  0  0  0  0  0  0  0  0  0
    6.5371    3.1570    2.6059 C   0  0  0  0  0  0  0  0  0  0  0  0
    5.9715    2.3865   -0.2997 C   0  0  0  0  0  0  0  0  0  0  0  0
    6.9928    1.4354   -0.5210 C   0  0  0  0  0  0  0  0  0  0  0  0
    2.3710    4.4341    0.6210 C   0  0  0  0  0  0  0  0  0  0  0  0
    1.3152    3.5692    0.3047 C   0  0  0  0  0  0  0  0  0  0  0  0
    1.9432    2.1376   -0.3307 S   0  0  0  0  0  0  0  0  0  0  0  0
   -0.1267    3.7363    0.5657 C   0  0  0  0  0  0  0  0  0  0  0  0
   -1.2400    2.5542    0.1334 S   0  0  0  0  0  0  0  0  0  0  0  0
   -2.5320    3.2843    0.8810 C   0  0  0  0  0  0  0  0  0  0  0  0
   -3.8635    2.7685    0.9915 C   0  0  0  0  0  0  0  0  0  0  0  0
   -4.8123    3.4799    1.6707 C   0  0  0  0  0  0  0  0  0  0  0  0
   -4.5147    4.7502    2.1836 O   0  0  0  0  0  0  0  0  0  0  0  0
   -3.1649    5.2623    2.3563 C   0  0  0  0  0  0  0  0  0  0  0  0
   -2.8420    5.1054    3.8807 C   0  0  0  0  0  0  0  0  0  0  0  0
   -1.6035    5.8412    4.3970 C   0  0  0  0  0  0  0  0  0  0  0  0
   -3.1709    6.7332    1.8703 C   0  0  0  0  0  0  0  0  0  0  0  0
   -4.2321    7.6053    2.5462 C   0  0  0  0  0  0  0  0  0  0  0  0
   -2.1509    4.4616    1.4984 C   0  0  0  0  0  0  0  0  0  0  0  0
   -0.7723    4.7331    1.3025 C   0  0  0  0  0  0  0  0  0  0  0  0
   -6.0321    2.8001    1.7928 C   0  0  0  0  0  0  0  0  0  0  0  0
   -5.9796    1.5298    1.1997 C   0  0  0  0  0  0  0  0  0  0  0  0
   -4.4455    1.2769    0.5368 S   0  0  0  0  0  0  0  0  0  0  0  0
   -6.9781    0.4593    1.3086 C   0  0  0  0  0  0  0  0  0  0  0  0
   -8.2917    0.4401    2.3679 S   0  0  0  0  0  0  0  0  0  0  0  0
   -8.6423   -1.1899    2.1355 C   0  0  0  0  0  0  0  0  0  0  0  0
   -9.4808   -2.0413    2.9476 C   0  0  0  0  0  0  0  0  0  0  0  0
   -9.2658   -3.3991    2.9454 C   0  0  0  0  0  0  0  0  0  0  0  0
   -8.3569   -3.9913    2.0564 O   0  0  0  0  0  0  0  0  0  0  0  0
   -7.7081   -3.2751    0.9814 C   0  0  0  0  0  0  0  0  0  0  0  0
   -8.5202   -3.5503   -0.3090 C   0  0  0  0  0  0  0  0  0  0  0  0
   -7.8384   -3.1342   -1.6171 C   0  0  0  0  0  0  0  0  0  0  0  0
   -6.2430   -3.7979    0.9089 C   0  0  0  0  0  0  0  0  0  0  0  0
   -6.1404   -5.3252    0.8473 C   0  0  0  0  0  0  0  0  0  0  0  0
   -7.7189   -1.7612    1.2705 C   0  0  0  0  0  0  0  0  0  0  0  0
   -6.8009   -0.8240    0.7792 C   0  0  0  0  0  0  0  0  0  0  0  0
   -9.9352   -4.0834    3.9582 C   0  0  0  0  0  0  0  0  0  0  0  0
  -10.6948   -3.2362    4.7622 C   0  0  0  0  0  0  0  0  0  0  0  0
  -10.4887   -1.6359    4.2291 S   0  0  0  0  0  0  0  0  0  0  0  0
  -11.3732   -3.6289    6.0170 C   0  0  0  0  0  0  0  0  0  0  0  0
  -11.4274   -2.8039    7.0701 C   0  0  0  0  0  0  0  0  0  0  0  0
  -11.6738   -3.6018    8.2537 C   0  0  0  0  0  0  0  0  0  0  0  0
  -11.7799   -4.8687    7.9343 C   0  0  0  0  0  0  0  0  0  0  0  0
  -11.9920   -5.8366    8.9189 O   0  0  0  0  0  0  0  0  0  0  0  0
  -12.0622   -5.4441   10.2667 C   0  0  0  0  0  0  0  0  0  0  0  0
  -11.9415   -4.1431   10.5963 C   0  0  0  0  0  0  0  0  0  0  0  0
  -11.7417   -3.1802    9.5860 O   0  0  0  0  0  0  0  0  0  0  0  0
  -11.6586   -5.0091    6.4783 C   0  0  0  0  0  0  0  0  0  0  0  0
  -11.9019   -6.1252    5.7678 C   0  0  0  0  0  0  0  0  0  0  0  0
  -11.6935   -7.4955    6.2284 C   0  0  0  0  0  0  0  0  0  0  0  0
  -11.8135   -8.3146    5.2112 C   0  0  0  0  0  0  0  0  0  0  0  0
  -11.6051   -9.6922    5.3672 O   0  0  0  0  0  0  0  0  0  0  0  0
  -11.2405  -10.1925    6.6342 C   0  0  0  0  0  0  0  0  0  0  0  0
  -11.1090   -9.3500    7.6727 C   0  0  0  0  0  0  0  0  0  0  0  0
  -11.3284   -7.9714    7.4872 O   0  0  0  0  0  0  0  0  0  0  0  0
  -12.1469   -7.5763    4.0037 C   0  0  0  0  0  0  0  0  0  0  0  0
  -12.2301   -6.2847    4.3252 C   0  0  0  0  0  0  0  0  0  0  0  0
  -12.8219   -5.2911    3.4058 C   0  0  0  0  0  0  0  0  0  0  0  0
  -13.6359   -4.3250    3.8241 C   0  0  0  0  0  0  0  0  0  0  0  0
    5.6347   -0.3150   -6.3406 H   0  0  0  0  0  0  0  0  0  0  0  0
    5.4055    1.2924   -8.3174 H   0  0  0  0  0  0  0  0  0  0  0  0
   10.9418    0.1023  -10.4809 H   0  0  0  0  0  0  0  0  0  0  0  0
    9.3669    1.6375  -11.5410 H   0  0  0  0  0  0  0  0  0  0  0  0
   13.0272   -4.0069   -5.9570 H   0  0  0  0  0  0  0  0  0  0  0  0
   12.8561   -2.1513   -7.5443 H   0  0  0  0  0  0  0  0  0  0  0  0
    8.4379   -3.8805   -3.7921 H   0  0  0  0  0  0  0  0  0  0  0  0
    5.9232   -3.1355   -4.2525 H   0  0  0  0  0  0  0  0  0  0  0  0
    4.8149   -1.3454   -3.3629 H   0  0  0  0  0  0  0  0  0  0  0  0
    4.1738    1.0555   -4.1452 H   0  0  0  0  0  0  0  0  0  0  0  0
    8.2112    5.4948   -4.9543 H   0  0  0  0  0  0  0  0  0  0  0  0
    5.7933    5.7886   -5.1218 H   0  0  0  0  0  0  0  0  0  0  0  0
   13.4506    1.1936   -5.6518 H   0  0  0  0  0  0  0  0  0  0  0  0
   11.6210    2.5260   -6.5748 H   0  0  0  0  0  0  0  0  0  0  0  0
   11.0240   -1.4612   -2.0437 H   0  0  0  0  0  0  0  0  0  0  0  0
    8.7132   -2.4201   -1.4382 H   0  0  0  0  0  0  0  0  0  0  0  0
    6.7833   -1.9296   -0.2956 H   0  0  0  0  0  0  0  0  0  0  0  0
    7.6867    4.2184   -1.3603 H   0  0  0  0  0  0  0  0  0  0  0  0
    6.0073    4.5634   -1.8789 H   0  0  0  0  0  0  0  0  0  0  0  0
    7.8280    6.3223   -0.1387 H   0  0  0  0  0  0  0  0  0  0  0  0
    7.0516    6.6881   -1.7110 H   0  0  0  0  0  0  0  0  0  0  0  0
    6.0364    6.5860   -0.2259 H   0  0  0  0  0  0  0  0  0  0  0  0
    8.0957    3.4878    1.1295 H   0  0  0  0  0  0  0  0  0  0  0  0
    7.2501    4.9564    1.7019 H   0  0  0  0  0  0  0  0  0  0  0  0
    7.2640    3.2191    3.4508 H   0  0  0  0  0  0  0  0  0  0  0  0
    6.3719    2.0885    2.3749 H   0  0  0  0  0  0  0  0  0  0  0  0
    5.5777    3.6100    2.9323 H   0  0  0  0  0  0  0  0  0  0  0  0
    8.0567    1.6590   -0.4404 H   0  0  0  0  0  0  0  0  0  0  0  0
    2.2490    5.4048    1.0791 H   0  0  0  0  0  0  0  0  0  0  0  0
   -2.7262    4.0148    4.1067 H   0  0  0  0  0  0  0  0  0  0  0  0
   -3.7103    5.4418    4.4738 H   0  0  0  0  0  0  0  0  0  0  0  0
   -1.5045    5.6626    5.4880 H   0  0  0  0  0  0  0  0  0  0  0  0
   -1.6941    6.9330    4.2460 H   0  0  0  0  0  0  0  0  0  0  0  0
   -0.6839    5.4623    3.9167 H   0  0  0  0  0  0  0  0  0  0  0  0
   -3.3792    6.7407    0.7753 H   0  0  0  0  0  0  0  0  0  0  0  0
   -2.1793    7.2032    2.0187 H   0  0  0  0  0  0  0  0  0  0  0  0
   -4.1859    8.6311    2.1192 H   0  0  0  0  0  0  0  0  0  0  0  0
   -5.2549    7.2149    2.3520 H   0  0  0  0  0  0  0  0  0  0  0  0
   -4.0653    7.6724    3.6402 H   0  0  0  0  0  0  0  0  0  0  0  0
   -0.2647    5.6106    1.6875 H   0  0  0  0  0  0  0  0  0  0  0  0
   -6.8878    3.1953    2.3271 H   0  0  0  0  0  0  0  0  0  0  0  0
   -8.7603   -4.6318   -0.3741 H   0  0  0  0  0  0  0  0  0  0  0  0
   -9.4999   -3.0310   -0.2383 H   0  0  0  0  0  0  0  0  0  0  0  0
   -8.5664   -3.2236   -2.4510 H   0  0  0  0  0  0  0  0  0  0  0  0
   -7.4778   -2.0885   -1.5732 H   0  0  0  0  0  0  0  0  0  0  0  0
   -6.9835   -3.8098   -1.8388 H   0  0  0  0  0  0  0  0  0  0  0  0
   -5.6975   -3.4600    1.8169 H   0  0  0  0  0  0  0  0  0  0  0  0
   -5.7057   -3.3772    0.0399 H   0  0  0  0  0  0  0  0  0  0  0  0
   -6.5308   -5.7795    1.7879 H   0  0  0  0  0  0  0  0  0  0  0  0
   -5.0748   -5.6225    0.7356 H   0  0  0  0  0  0  0  0  0  0  0  0
   -6.7048   -5.7333   -0.0158 H   0  0  0  0  0  0  0  0  0  0  0  0
   -5.9871   -1.0809    0.1118 H   0  0  0  0  0  0  0  0  0  0  0  0
   -9.8004   -5.1423    4.1473 H   0  0  0  0  0  0  0  0  0  0  0  0
  -11.1815   -1.7517    7.0702 H   0  0  0  0  0  0  0  0  0  0  0  0
  -12.2105   -6.1923   11.0404 H   0  0  0  0  0  0  0  0  0  0  0  0
  -12.0145   -3.8284   11.6331 H   0  0  0  0  0  0  0  0  0  0  0  0
  -11.0691  -11.2569    6.7688 H   0  0  0  0  0  0  0  0  0  0  0  0
  -10.8185   -9.7205    8.6469 H   0  0  0  0  0  0  0  0  0  0  0  0
  -12.4005   -8.0040    3.0436 H   0  0  0  0  0  0  0  0  0  0  0  0
  -12.7056   -5.4475    2.3382 H   0  0  0  0  0  0  0  0  0  0  0  0
  -14.1027   -3.6665    3.0905 H   0  0  0  0  0  0  0  0  0  0  0  0
  -13.8770   -4.2037    4.8737 H   0  0  0  0  0  0  0  0  0  0  0  0
  1  2  2  0
  2  3  1  0
  3  4  2  0
  4  5  1  0
  5  6  1  0
  6  7  2  0
  7  8  1  0
  4  9  1  0
  9 10  2  0
 10 11  1  0
 11 12  2  0
 12 13  1  0
 13 14  1  0
 14 15  2  0
 15 16  1  0
 12 17  1  0
 17 18  2  0
 18 19  1  0
 19 20  2  3
 20 21  1  0
 21 22  2  0
 22 23  1  0
 23 24  2  0
 24 25  1  0
 25 26  1  0
 26 27  2  0
 27 28  1  0
 24 29  1  0
 29 30  2  0
 30 31  1  0
 31 32  2  0
 32 33  1  0
 33 34  1  0
 34 35  2  0
 35 36  1  0
 32 37  1  0
 37 38  2  0
 38 39  1  0
 39 40  2  3
 40 41  1  0
 41 42  1  0
 42 43  1  0
 43 44  1  0
 44 45  2  0
 45 46  1  0
 46 47  1  0
 47 48  1  0
 48 49  1  0
 47 50  1  0
 50 51  1  0
 47 52  1  0
 52 53  1  0
 45 54  1  0
 54 55  2  0
 55 56  1  0
 55 57  1  0
 57 58  1  0
 58 59  1  0
 59 60  1  0
 60 61  2  0
 61 62  1  0
 62 63  1  0
 63 64  1  0
 64 65  1  0
 63 66  1  0
 66 67  1  0
 63 68  1  0
 68 69  1  0
 61 70  1  0
 70 71  2  0
 71 72  1  0
 71 73  1  0
 73 74  1  0
 74 75  1  0
 75 76  1  0
 76 77  2  0
 77 78  1  0
 78 79  1  0
 79 80  1  0
 80 81  1  0
 79 82  1  0
 82 83  1  0
 79 84  1  0
 84 85  1  0
 77 86  1  0
 86 87  2  0
 87 88  1  0
 87 89  1  0
 89 90  2  0
 90 91  1  0
 91 92  2  0
 92 93  1  0
 93 94  1  0
 94 95  2  0
 95 96  1  0
 92 97  1  0
 97 98  2  0
 98 99  1  0
 99100  2  0
100101  1  0
101102  1  0
102103  2  0
103104  1  0
100105  1  0
105106  2  0
106107  1  0
107108  2  3
  9  1  1  0
 18 10  1  0
 29 21  1  0
 38 30  1  0
 53 41  2  0
 69 57  2  0
 85 73  2  0
 97 89  1  0
106 98  1  0
  8  3  1  0
 16 11  1  0
 28 23  1  0
 36 31  1  0
 52 43  2  0
 68 59  2  0
 84 75  2  0
 96 91  1  0
104 99  1  0
 56 44  1  0
 72 60  1  0
 88 76  1  0
  1109  1  0
  2110  1  0
  6111  1  0
  7112  1  0
 14113  1  0
 15114  1  0
 17115  1  0
 19116  1  0
 20117  1  0
 22118  1  0
 26119  1  0
 27120  1  0
 34121  1  0
 35122  1  0
 37123  1  0
 39124  1  0
 40125  1  0
 48126  1  0
 48127  1  0
 49128  1  0
 49129  1  0
 49130  1  0
 50131  1  0
 50132  1  0
 51133  1  0
 51134  1  0
 51135  1  0
 53136  1  0
 54137  1  0
 64138  1  0
 64139  1  0
 65140  1  0
 65141  1  0
 65142  1  0
 66143  1  0
 66144  1  0
 67145  1  0
 67146  1  0
 67147  1  0
 69148  1  0
 70149  1  0
 80150  1  0
 80151  1  0
 81152  1  0
 81153  1  0
 81154  1  0
 82155  1  0
 82156  1  0
 83157  1  0
 83158  1  0
 83159  1  0
 85160  1  0
 86161  1  0
 90162  1  0
 94163  1  0
 95164  1  0
102165  1  0
103166  1  0
105167  1  0
107168  1  0
108169  1  0
108170  1  0
M  END

