
     RDKit          3D

198219  0  0  0  0  0  0  0  0999 V2000
   11.5083  -14.2819   10.1570 C   0  0  0  0  0  0  0  0  0  0  0  0
   10.0274  -13.5236    9.8875 S   0  0  0  0  0  0  0  0  0  0  0  0
   10.6918  -12.0440    9.4635 C   0  0  0  0  0  0  0  0  0  0  0  0
   10.0224  -10.8567    8.9714 C   0  0  0  0  0  0  0  0  0  0  0  0
   10.7681   -9.8164    8.4784 C   0  0  0  0  0  0  0  0  0  0  0  0
   12.1700   -9.8696    8.4720 O   0  0  0  0  0  0  0  0  0  0  0  0
   12.9442  -10.8836    9.1631 C   0  0  0  0  0  0  0  0  0  0  0  0
   14.1207  -11.2752    8.2280 C   0  0  0  0  0  0  0  0  0  0  0  0
   13.6449  -11.8580    6.8932 C   0  0  0  0  0  0  0  0  0  0  0  0
   13.4689  -10.2080   10.4616 C   0  0  0  0  0  0  0  0  0  0  0  0
   14.3037  -11.0897   11.3952 C   0  0  0  0  0  0  0  0  0  0  0  0
   12.0747  -12.1072    9.5089 C   0  0  0  0  0  0  0  0  0  0  0  0
   12.5339  -13.3768    9.9011 C   0  0  0  0  0  0  0  0  0  0  0  0
   10.0009   -8.7729    7.9496 C   0  0  0  0  0  0  0  0  0  0  0  0
    8.6305   -9.0347    8.0189 C   0  0  0  0  0  0  0  0  0  0  0  0
    8.3893  -10.5547    8.7299 S   0  0  0  0  0  0  0  0  0  0  0  0
    7.5629   -8.1757    7.4796 C   0  0  0  0  0  0  0  0  0  0  0  0
    7.7573   -6.5798    6.9620 S   0  0  0  0  0  0  0  0  0  0  0  0
    6.1677   -6.4004    6.4479 C   0  0  0  0  0  0  0  0  0  0  0  0
    5.5821   -5.3142    5.6769 C   0  0  0  0  0  0  0  0  0  0  0  0
    4.4131   -5.5431    4.9906 C   0  0  0  0  0  0  0  0  0  0  0  0
    3.7268   -6.7581    5.1326 O   0  0  0  0  0  0  0  0  0  0  0  0
    3.9784   -7.6697    6.2314 C   0  0  0  0  0  0  0  0  0  0  0  0
    3.1255   -7.1931    7.4406 C   0  0  0  0  0  0  0  0  0  0  0  0
    1.6575   -6.9400    7.0876 C   0  0  0  0  0  0  0  0  0  0  0  0
    3.5993   -9.1009    5.7323 C   0  0  0  0  0  0  0  0  0  0  0  0
    3.1616  -10.1133    6.8042 C   0  0  0  0  0  0  0  0  0  0  0  0
    5.4639   -7.5830    6.6335 C   0  0  0  0  0  0  0  0  0  0  0  0
    6.2497   -8.5792    7.2371 C   0  0  0  0  0  0  0  0  0  0  0  0
    4.0320   -4.4951    4.1517 C   0  0  0  0  0  0  0  0  0  0  0  0
    4.9143   -3.4168    4.2245 C   0  0  0  0  0  0  0  0  0  0  0  0
    6.1812   -3.7916    5.2903 S   0  0  0  0  0  0  0  0  0  0  0  0
    4.7933   -2.1776    3.4480 C   0  0  0  0  0  0  0  0  0  0  0  0
    4.2374   -2.0924    1.8555 S   0  0  0  0  0  0  0  0  0  0  0  0
    4.3516   -0.4226    1.7616 C   0  0  0  0  0  0  0  0  0  0  0  0
    4.0204    0.4513    0.6553 C   0  0  0  0  0  0  0  0  0  0  0  0
    4.1882    1.8096    0.7891 C   0  0  0  0  0  0  0  0  0  0  0  0
    4.6617    2.3689    1.9842 O   0  0  0  0  0  0  0  0  0  0  0  0
    4.7675    1.6224    3.2217 C   0  0  0  0  0  0  0  0  0  0  0  0
    6.0452    2.0889    3.9608 C   0  0  0  0  0  0  0  0  0  0  0  0
    7.3292    1.7962    3.1790 C   0  0  0  0  0  0  0  0  0  0  0  0
    3.4995    1.9080    4.0737 C   0  0  0  0  0  0  0  0  0  0  0  0
    3.1770    3.3961    4.2449 C   0  0  0  0  0  0  0  0  0  0  0  0
    4.8031    0.1037    2.9616 C   0  0  0  0  0  0  0  0  0  0  0  0
    5.0590   -0.8923    3.9208 C   0  0  0  0  0  0  0  0  0  0  0  0
    3.8529    2.5356   -0.3523 C   0  0  0  0  0  0  0  0  0  0  0  0
    3.3948    1.7151   -1.3881 C   0  0  0  0  0  0  0  0  0  0  0  0
    3.4295    0.0962   -0.8736 S   0  0  0  0  0  0  0  0  0  0  0  0
    2.8083    2.1917   -2.6514 C   0  0  0  0  0  0  0  0  0  0  0  0
    2.1084    1.4027   -3.5630 C   0  0  0  0  0  0  0  0  0  0  0  0
    1.4117    2.1591   -4.5188 C   0  0  0  0  0  0  0  0  0  0  0  0
    0.5098    1.6556   -5.4751 C   0  0  0  0  0  0  0  0  0  0  0  0
    0.2072    0.2199   -5.5813 C   0  0  0  0  0  0  0  0  0  0  0  0
    0.5804   -0.7425   -6.9059 S   0  0  0  0  0  0  0  0  0  0  0  0
   -0.1644   -2.1365   -6.3286 C   0  0  0  0  0  0  0  0  0  0  0  0
   -0.1290   -3.4660   -7.0172 C   0  0  0  0  0  0  0  0  0  0  0  0
    1.0786   -4.2760   -6.5573 C   0  0  0  0  0  0  0  0  0  0  0  0
   -0.7157   -1.8633   -5.0750 C   0  0  0  0  0  0  0  0  0  0  0  0
   -1.5716   -3.0546   -4.1063 Cl  0  0  0  0  0  0  0  0  0  0  0  0
   -0.5183   -0.5363   -4.6631 C   0  0  0  0  0  0  0  0  0  0  0  0
   -1.1617    0.1192   -3.1609 Cl  0  0  0  0  0  0  0  0  0  0  0  0
   -0.2309    2.5926   -6.2060 C   0  0  0  0  0  0  0  0  0  0  0  0
   -0.0926    3.9709   -6.0216 C   0  0  0  0  0  0  0  0  0  0  0  0
    0.8799    4.4835   -5.1352 C   0  0  0  0  0  0  0  0  0  0  0  0
    1.0707    5.9376   -4.9550 C   0  0  0  0  0  0  0  0  0  0  0  0
    0.9162    6.7698   -3.4999 S   0  0  0  0  0  0  0  0  0  0  0  0
    1.2726    8.2935   -4.1180 C   0  0  0  0  0  0  0  0  0  0  0  0
    1.2791    9.5579   -3.3148 C   0  0  0  0  0  0  0  0  0  0  0  0
   -0.0281   10.3223   -3.4956 C   0  0  0  0  0  0  0  0  0  0  0  0
    1.5027    8.1737   -5.4887 C   0  0  0  0  0  0  0  0  0  0  0  0
    1.3913    6.8547   -5.9580 C   0  0  0  0  0  0  0  0  0  0  0  0
    1.6837    6.4047   -7.6323 Cl  0  0  0  0  0  0  0  0  0  0  0  0
    1.9021    9.5356   -6.5293 Cl  0  0  0  0  0  0  0  0  0  0  0  0
    1.5928    3.5410   -4.3709 C   0  0  0  0  0  0  0  0  0  0  0  0
    2.6083    3.8197   -3.0604 S   0  0  0  0  0  0  0  0  0  0  0  0
   -1.1286    4.7111   -6.6176 C   0  0  0  0  0  0  0  0  0  0  0  0
   -2.0846    3.9111   -7.2463 C   0  0  0  0  0  0  0  0  0  0  0  0
   -1.6170    2.2951   -7.1064 S   0  0  0  0  0  0  0  0  0  0  0  0
   -3.4818    4.3141   -7.4683 C   0  0  0  0  0  0  0  0  0  0  0  0
   -4.4906    3.4513   -7.8969 C   0  0  0  0  0  0  0  0  0  0  0  0
   -5.7774    3.8877   -7.5426 C   0  0  0  0  0  0  0  0  0  0  0  0
   -6.9633    3.1346   -7.6625 C   0  0  0  0  0  0  0  0  0  0  0  0
   -6.9903    1.8470   -8.3826 C   0  0  0  0  0  0  0  0  0  0  0  0
   -7.2493    0.3439   -7.6696 S   0  0  0  0  0  0  0  0  0  0  0  0
   -7.1006   -0.5496   -9.0877 C   0  0  0  0  0  0  0  0  0  0  0  0
   -7.1616   -2.0452   -9.1587 C   0  0  0  0  0  0  0  0  0  0  0  0
   -5.7602   -2.6451   -9.0974 C   0  0  0  0  0  0  0  0  0  0  0  0
   -6.8250    0.3219  -10.1414 C   0  0  0  0  0  0  0  0  0  0  0  0
   -6.5739   -0.2042  -11.7997 Cl  0  0  0  0  0  0  0  0  0  0  0  0
   -6.7615    1.6659   -9.7458 C   0  0  0  0  0  0  0  0  0  0  0  0
   -6.4472    2.9917  -10.8582 Cl  0  0  0  0  0  0  0  0  0  0  0  0
   -8.0938    3.6213   -6.9866 C   0  0  0  0  0  0  0  0  0  0  0  0
   -8.0833    4.8183   -6.2580 C   0  0  0  0  0  0  0  0  0  0  0  0
   -6.9212    5.6154   -6.2135 C   0  0  0  0  0  0  0  0  0  0  0  0
   -6.8527    6.8725   -5.4436 C   0  0  0  0  0  0  0  0  0  0  0  0
   -7.0308    6.9945   -3.7742 S   0  0  0  0  0  0  0  0  0  0  0  0
   -6.7082    8.6419   -3.6754 C   0  0  0  0  0  0  0  0  0  0  0  0
   -6.6572    9.4266   -2.3995 C   0  0  0  0  0  0  0  0  0  0  0  0
   -5.2175    9.6084   -1.9250 C   0  0  0  0  0  0  0  0  0  0  0  0
   -6.4260    9.1195   -4.9545 C   0  0  0  0  0  0  0  0  0  0  0  0
   -6.5042    8.1266   -5.9445 C   0  0  0  0  0  0  0  0  0  0  0  0
   -6.1983    8.4430   -7.6473 Cl  0  0  0  0  0  0  0  0  0  0  0  0
   -5.9997   10.7898   -5.2975 Cl  0  0  0  0  0  0  0  0  0  0  0  0
   -5.7783    5.1060   -6.8577 C   0  0  0  0  0  0  0  0  0  0  0  0
   -4.1921    5.6294   -6.6830 S   0  0  0  0  0  0  0  0  0  0  0  0
   -9.2802    5.0447   -5.5602 C   0  0  0  0  0  0  0  0  0  0  0  0
  -10.2136    4.0230   -5.7342 C   0  0  0  0  0  0  0  0  0  0  0  0
   -9.5785    2.8594   -6.7799 S   0  0  0  0  0  0  0  0  0  0  0  0
  -11.4181    3.8185   -4.9163 C   0  0  0  0  0  0  0  0  0  0  0  0
  -12.6368    2.6989   -5.2555 S   0  0  0  0  0  0  0  0  0  0  0  0
  -13.3980    2.8608   -3.7701 C   0  0  0  0  0  0  0  0  0  0  0  0
  -14.4755    2.0624   -3.2257 C   0  0  0  0  0  0  0  0  0  0  0  0
  -14.7472    2.1169   -1.8805 C   0  0  0  0  0  0  0  0  0  0  0  0
  -14.0254    2.9665   -1.0293 O   0  0  0  0  0  0  0  0  0  0  0  0
  -13.1235    3.9986   -1.4992 C   0  0  0  0  0  0  0  0  0  0  0  0
  -11.8908    3.9953   -0.5553 C   0  0  0  0  0  0  0  0  0  0  0  0
  -11.1555    2.6500   -0.5402 C   0  0  0  0  0  0  0  0  0  0  0  0
  -13.9077    5.3349   -1.3921 C   0  0  0  0  0  0  0  0  0  0  0  0
  -13.1529    6.5977   -1.8241 C   0  0  0  0  0  0  0  0  0  0  0  0
  -12.7030    3.7485   -2.9628 C   0  0  0  0  0  0  0  0  0  0  0  0
  -11.5946    4.3110   -3.6226 C   0  0  0  0  0  0  0  0  0  0  0  0
  -15.7495    1.2322   -1.4754 C   0  0  0  0  0  0  0  0  0  0  0  0
  -16.2613    0.4829   -2.5326 C   0  0  0  0  0  0  0  0  0  0  0  0
  -15.4532    0.9117   -3.9583 S   0  0  0  0  0  0  0  0  0  0  0  0
   11.6439  -15.3117   10.4577 H   0  0  0  0  0  0  0  0  0  0  0  0
   14.7333  -10.3742    8.0145 H   0  0  0  0  0  0  0  0  0  0  0  0
   14.7851  -12.0209    8.7100 H   0  0  0  0  0  0  0  0  0  0  0  0
   14.5211  -12.0426    6.2345 H   0  0  0  0  0  0  0  0  0  0  0  0
   13.1225  -12.8221    7.0530 H   0  0  0  0  0  0  0  0  0  0  0  0
   12.9629  -11.1539    6.3761 H   0  0  0  0  0  0  0  0  0  0  0  0
   14.0810   -9.3230   10.1806 H   0  0  0  0  0  0  0  0  0  0  0  0
   12.5974   -9.8302   11.0427 H   0  0  0  0  0  0  0  0  0  0  0  0
   14.7014  -10.4628   12.2219 H   0  0  0  0  0  0  0  0  0  0  0  0
   15.1704  -11.5387   10.8678 H   0  0  0  0  0  0  0  0  0  0  0  0
   13.6763  -11.8832   11.8511 H   0  0  0  0  0  0  0  0  0  0  0  0
   13.5774  -13.6391    9.9950 H   0  0  0  0  0  0  0  0  0  0  0  0
   10.4254   -7.8796    7.5116 H   0  0  0  0  0  0  0  0  0  0  0  0
    3.5381   -6.2336    7.8235 H   0  0  0  0  0  0  0  0  0  0  0  0
    3.1906   -7.9127    8.2856 H   0  0  0  0  0  0  0  0  0  0  0  0
    1.5720   -6.0707    6.4014 H   0  0  0  0  0  0  0  0  0  0  0  0
    1.0884   -6.7073    8.0128 H   0  0  0  0  0  0  0  0  0  0  0  0
    1.1973   -7.8248    6.6046 H   0  0  0  0  0  0  0  0  0  0  0  0
    2.7644   -9.0204    5.0013 H   0  0  0  0  0  0  0  0  0  0  0  0
    4.4548   -9.5298    5.1666 H   0  0  0  0  0  0  0  0  0  0  0  0
    3.1735  -11.1370    6.3704 H   0  0  0  0  0  0  0  0  0  0  0  0
    2.1239   -9.9056    7.1382 H   0  0  0  0  0  0  0  0  0  0  0  0
    3.8197  -10.1063    7.6938 H   0  0  0  0  0  0  0  0  0  0  0  0
    5.9090   -9.5785    7.4481 H   0  0  0  0  0  0  0  0  0  0  0  0
    3.1465   -4.5150    3.5307 H   0  0  0  0  0  0  0  0  0  0  0  0
    5.9994    3.1895    4.1186 H   0  0  0  0  0  0  0  0  0  0  0  0
    6.1158    1.6152    4.9666 H   0  0  0  0  0  0  0  0  0  0  0  0
    7.4993    0.6976    3.0916 H   0  0  0  0  0  0  0  0  0  0  0  0
    8.1949    2.2397    3.7151 H   0  0  0  0  0  0  0  0  0  0  0  0
    7.2787    2.2415    2.1622 H   0  0  0  0  0  0  0  0  0  0  0  0
    2.6206    1.4342    3.5821 H   0  0  0  0  0  0  0  0  0  0  0  0
    3.6008    1.4454    5.0821 H   0  0  0  0  0  0  0  0  0  0  0  0
    2.2053    3.4980    4.7773 H   0  0  0  0  0  0  0  0  0  0  0  0
    3.0794    3.8962    3.2578 H   0  0  0  0  0  0  0  0  0  0  0  0
    3.9528    3.9097    4.8491 H   0  0  0  0  0  0  0  0  0  0  0  0
    5.3602   -0.6842    4.9405 H   0  0  0  0  0  0  0  0  0  0  0  0
    3.9014    3.6144   -0.4059 H   0  0  0  0  0  0  0  0  0  0  0  0
    2.0428    0.3243   -3.4853 H   0  0  0  0  0  0  0  0  0  0  0  0
   -1.0603   -4.0342   -6.8049 H   0  0  0  0  0  0  0  0  0  0  0  0
   -0.0673   -3.3118   -8.1149 H   0  0  0  0  0  0  0  0  0  0  0  0
    2.0182   -3.7176   -6.7569 H   0  0  0  0  0  0  0  0  0  0  0  0
    1.1154   -5.2382   -7.1097 H   0  0  0  0  0  0  0  0  0  0  0  0
    1.0072   -4.4945   -5.4683 H   0  0  0  0  0  0  0  0  0  0  0  0
    2.1334   10.1977   -3.6261 H   0  0  0  0  0  0  0  0  0  0  0  0
    1.4110    9.3137   -2.2397 H   0  0  0  0  0  0  0  0  0  0  0  0
   -0.0041   11.2493   -2.8856 H   0  0  0  0  0  0  0  0  0  0  0  0
   -0.1685   10.6050   -4.5606 H   0  0  0  0  0  0  0  0  0  0  0  0
   -0.8866    9.6995   -3.1653 H   0  0  0  0  0  0  0  0  0  0  0  0
   -1.2601    5.7749   -6.4699 H   0  0  0  0  0  0  0  0  0  0  0  0
   -4.2894    2.4794   -8.3313 H   0  0  0  0  0  0  0  0  0  0  0  0
   -7.7593   -2.4339   -8.3101 H   0  0  0  0  0  0  0  0  0  0  0  0
   -7.6597   -2.3601  -10.1006 H   0  0  0  0  0  0  0  0  0  0  0  0
   -5.1319   -2.2674   -9.9321 H   0  0  0  0  0  0  0  0  0  0  0  0
   -5.8268   -3.7524   -9.1746 H   0  0  0  0  0  0  0  0  0  0  0  0
   -5.2760   -2.3874   -8.1295 H   0  0  0  0  0  0  0  0  0  0  0  0
   -7.2346    8.8939   -1.6162 H   0  0  0  0  0  0  0  0  0  0  0  0
   -7.1248   10.4236   -2.5500 H   0  0  0  0  0  0  0  0  0  0  0  0
   -4.7229    8.6196   -1.7924 H   0  0  0  0  0  0  0  0  0  0  0  0
   -4.6409   10.2138   -2.6556 H   0  0  0  0  0  0  0  0  0  0  0  0
   -5.2120   10.1415   -0.9488 H   0  0  0  0  0  0  0  0  0  0  0  0
   -9.4477    5.8909   -4.9102 H   0  0  0  0  0  0  0  0  0  0  0  0
  -12.2252    4.2167    0.4822 H   0  0  0  0  0  0  0  0  0  0  0  0
  -11.1613    4.7789   -0.8368 H   0  0  0  0  0  0  0  0  0  0  0  0
  -11.8348    1.8362   -0.2141 H   0  0  0  0  0  0  0  0  0  0  0  0
  -10.7503    2.4067   -1.5459 H   0  0  0  0  0  0  0  0  0  0  0  0
  -10.3064    2.7000    0.1730 H   0  0  0  0  0  0  0  0  0  0  0  0
  -14.2413    5.4712   -0.3414 H   0  0  0  0  0  0  0  0  0  0  0  0
  -14.8287    5.2582   -2.0125 H   0  0  0  0  0  0  0  0  0  0  0  0
  -13.7934    7.4832   -1.6296 H   0  0  0  0  0  0  0  0  0  0  0  0
  -12.9323    6.5712   -2.9097 H   0  0  0  0  0  0  0  0  0  0  0  0
  -12.2125    6.7261   -1.2485 H   0  0  0  0  0  0  0  0  0  0  0  0
  -10.9031    4.9953   -3.1491 H   0  0  0  0  0  0  0  0  0  0  0  0
  -16.0845    1.1321   -0.4536 H   0  0  0  0  0  0  0  0  0  0  0  0
  -17.0365   -0.2651   -2.4534 H   0  0  0  0  0  0  0  0  0  0  0  0
  1  2  1  0
  2  3  1  0
  3  4  1  0
  4  5  2  0
  5  6  1  0
  6  7  1  0
  7  8  1  0
  8  9  1  0
  7 10  1  0
 10 11  1  0
  7 12  1  0
 12 13  1  0
  5 14  1  0
 14 15  2  0
 15 16  1  0
 15 17  1  0
 17 18  1  0
 18 19  1  0
 19 20  1  0
 20 21  2  0
 21 22  1  0
 22 23  1  0
 23 24  1  0
 24 25  1  0
 23 26  1  0
 26 27  1  0
 23 28  1  0
 28 29  1  0
 21 30  1  0
 30 31  2  0
 31 32  1  0
 31 33  1  0
 33 34  1  0
 34 35  1  0
 35 36  1  0
 36 37  2  0
 37 38  1  0
 38 39  1  0
 39 40  1  0
 40 41  1  0
 39 42  1  0
 42 43  1  0
 39 44  1  0
 44 45  1  0
 37 46  1  0
 46 47  2  0
 47 48  1  0
 47 49  1  0
 49 50  2  0
 50 51  1  0
 51 52  2  0
 52 53  1  0
 53 54  1  0
 54 55  1  0
 55 56  1  0
 56 57  1  0
 55 58  2  0
 58 59  1  0
 58 60  1  0
 60 61  1  0
 52 62  1  0
 62 63  2  0
 63 64  1  0
 64 65  1  0
 65 66  1  0
 66 67  1  0
 67 68  1  0
 68 69  1  0
 67 70  2  0
 70 71  1  0
 71 72  1  0
 70 73  1  0
 64 74  2  0
 74 75  1  0
 63 76  1  0
 76 77  2  0
 77 78  1  0
 77 79  1  0
 79 80  2  0
 80 81  1  0
 81 82  2  0
 82 83  1  0
 83 84  1  0
 84 85  1  0
 85 86  1  0
 86 87  1  0
 85 88  2  0
 88 89  1  0
 88 90  1  0
 90 91  1  0
 82 92  1  0
 92 93  2  0
 93 94  1  0
 94 95  1  0
 95 96  1  0
 96 97  1  0
 97 98  1  0
 98 99  1  0
 97100  2  0
100101  1  0
101102  1  0
100103  1  0
 94104  2  0
104105  1  0
 93106  1  0
106107  2  0
107108  1  0
107109  1  0
109110  1  0
110111  1  0
111112  1  0
112113  2  0
113114  1  0
114115  1  0
115116  1  0
116117  1  0
115118  1  0
118119  1  0
115120  1  0
120121  1  0
113122  1  0
122123  2  0
123124  1  0
 13  1  2  0
 29 17  2  0
 45 33  2  0
 75 49  1  0
105 79  1  0
121109  2  0
 12  3  2  0
 28 19  2  0
 44 35  2  0
 74 51  1  0
104 81  1  0
120111  2  0
 16  4  1  0
 32 20  1  0
 48 36  1  0
 60 53  2  0
 78 62  1  0
 90 83  2  0
108 92  1  0
124112  1  0
 71 65  2  0
101 95  2  0
  1125  1  0
  8126  1  0
  8127  1  0
  9128  1  0
  9129  1  0
  9130  1  0
 10131  1  0
 10132  1  0
 11133  1  0
 11134  1  0
 11135  1  0
 13136  1  0
 14137  1  0
 24138  1  0
 24139  1  0
 25140  1  0
 25141  1  0
 25142  1  0
 26143  1  0
 26144  1  0
 27145  1  0
 27146  1  0
 27147  1  0
 29148  1  0
 30149  1  0
 40150  1  0
 40151  1  0
 41152  1  0
 41153  1  0
 41154  1  0
 42155  1  0
 42156  1  0
 43157  1  0
 43158  1  0
 43159  1  0
 45160  1  0
 46161  1  0
 50162  1  0
 56163  1  0
 56164  1  0
 57165  1  0
 57166  1  0
 57167  1  0
 68168  1  0
 68169  1  0
 69170  1  0
 69171  1  0
 69172  1  0
 76173  1  0
 80174  1  0
 86175  1  0
 86176  1  0
 87177  1  0
 87178  1  0
 87179  1  0
 98180  1  0
 98181  1  0
 99182  1  0
 99183  1  0
 99184  1  0
106185  1  0
116186  1  0
116187  1  0
117188  1  0
117189  1  0
117190  1  0
118191  1  0
118192  1  0
119193  1  0
119194  1  0
119195  1  0
121196  1  0
122197  1  0
123198  1  0
M  END

