
     RDKit          3D

125137  0  0  0  0  0  0  0  0999 V2000
  -10.3568    3.6950   -5.3649 C   0  0  0  0  0  0  0  0  0  0  0  0
   -9.6255    2.4884   -6.2834 S   0  0  0  0  0  0  0  0  0  0  0  0
   -8.4916    2.0392   -5.1235 C   0  0  0  0  0  0  0  0  0  0  0  0
   -8.6694    2.8278   -3.9928 C   0  0  0  0  0  0  0  0  0  0  0  0
   -9.7272    3.7407   -4.1259 C   0  0  0  0  0  0  0  0  0  0  0  0
  -10.0937    4.7096   -3.0384 C   0  0  0  0  0  0  0  0  0  0  0  0
   -9.6494    4.1933   -1.6538 C   0  0  2  0  0  0  0  0  0  0  0  0
   -9.8690    5.2553   -0.6497 C   0  0  0  0  0  0  0  0  0  0  0  0
  -10.0431    6.0849    0.1392 N   0  0  0  0  0  0  0  0  0  0  0  0
   -8.1606    3.7545   -1.6913 C   0  0  1  0  0  0  0  0  0  0  0  0
   -7.6909    3.3234   -0.3610 C   0  0  0  0  0  0  0  0  0  0  0  0
   -7.3300    2.9769    0.6830 N   0  0  0  0  0  0  0  0  0  0  0  0
   -7.9531    2.5967   -2.6870 C   0  0  0  0  0  0  0  0  0  0  0  0
   -7.5385    0.9348   -5.2329 C   0  0  0  0  0  0  0  0  0  0  0  0
   -5.8824    1.1963   -5.3253 S   0  0  0  0  0  0  0  0  0  0  0  0
   -5.4046   -0.3103   -4.7631 C   0  0  0  0  0  0  0  0  0  0  0  0
   -6.5546   -1.0384   -4.4339 C   0  0  0  0  0  0  0  0  0  0  0  0
   -7.7472   -0.3328   -4.6889 C   0  0  0  0  0  0  0  0  0  0  0  0
   -9.1171   -0.8830   -4.3614 C   0  0  0  0  0  0  0  0  0  0  0  0
   -9.0680   -2.0165   -3.3142 C   0  0  2  0  0  0  0  0  0  0  0  0
   -8.9623   -1.4529   -1.9549 C   0  0  0  0  0  0  0  0  0  0  0  0
   -8.8719   -1.0128   -0.8872 N   0  0  0  0  0  0  0  0  0  0  0  0
   -7.9037   -3.0043   -3.5810 C   0  0  1  0  0  0  0  0  0  0  0  0
   -8.1010   -3.7182   -4.8561 C   0  0  0  0  0  0  0  0  0  0  0  0
   -8.2426   -4.2744   -5.8606 N   0  0  0  0  0  0  0  0  0  0  0  0
   -6.5424   -2.2832   -3.5755 C   0  0  0  0  0  0  0  0  0  0  0  0
   -4.0663   -0.5555   -4.2137 C   0  0  0  0  0  0  0  0  0  0  0  0
   -3.4346    0.3055   -2.9338 S   0  0  0  0  0  0  0  0  0  0  0  0
   -2.0293   -0.5972   -2.7390 C   0  0  0  0  0  0  0  0  0  0  0  0
   -2.0547   -1.6331   -3.6886 C   0  0  0  0  0  0  0  0  0  0  0  0
   -3.1752   -1.5701   -4.5477 C   0  0  0  0  0  0  0  0  0  0  0  0
   -3.3721   -2.4927   -5.7252 C   0  0  0  0  0  0  0  0  0  0  0  0
   -2.1572   -3.4080   -5.9851 C   0  0  2  0  0  0  0  0  0  0  0  0
   -2.5917   -4.5341   -6.8334 C   0  0  0  0  0  0  0  0  0  0  0  0
   -2.9516   -5.4120   -7.4994 N   0  0  0  0  0  0  0  0  0  0  0  0
   -1.5382   -3.9038   -4.6566 C   0  0  1  0  0  0  0  0  0  0  0  0
   -0.4307   -4.8465   -4.8968 C   0  0  0  0  0  0  0  0  0  0  0  0
    0.4324   -5.5950   -5.0923 N   0  0  0  0  0  0  0  0  0  0  0  0
   -1.0162   -2.7155   -3.8204 C   0  0  0  0  0  0  0  0  0  0  0  0
   -1.0243   -0.2796   -1.6994 C   0  0  0  0  0  0  0  0  0  0  0  0
    0.5061   -0.9699   -1.4746 S   0  0  0  0  0  0  0  0  0  0  0  0
    0.8885   -0.0531   -0.1142 C   0  0  0  0  0  0  0  0  0  0  0  0
    2.0948   -0.0517    0.6975 C   0  0  0  0  0  0  0  0  0  0  0  0
    2.2223    0.8704    1.7063 C   0  0  0  0  0  0  0  0  0  0  0  0
    1.2140    1.8047    1.9652 O   0  0  0  0  0  0  0  0  0  0  0  0
   -0.1350    1.6857    1.4528 C   0  0  0  0  0  0  0  0  0  0  0  0
   -0.6250    3.1183    1.1005 C   0  0  0  0  0  0  0  0  0  0  0  0
   -0.6109    4.0893    2.2845 C   0  0  0  0  0  0  0  0  0  0  0  0
   -0.9739    1.0068    2.5748 C   0  0  0  0  0  0  0  0  0  0  0  0
   -2.4715    0.8408    2.2919 C   0  0  0  0  0  0  0  0  0  0  0  0
   -0.1534    0.8087    0.1883 C   0  0  0  0  0  0  0  0  0  0  0  0
   -1.2224    0.6823   -0.7086 C   0  0  0  0  0  0  0  0  0  0  0  0
    3.4219    0.7836    2.4108 C   0  0  0  0  0  0  0  0  0  0  0  0
    4.2428   -0.2515    1.9532 C   0  0  0  0  0  0  0  0  0  0  0  0
    3.4703   -1.0090    0.6393 S   0  0  0  0  0  0  0  0  0  0  0  0
    5.5430   -0.6122    2.5705 C   0  0  0  0  0  0  0  0  0  0  0  0
    6.3128    0.3378    3.7227 S   0  0  0  0  0  0  0  0  0  0  0  0
    7.6485   -0.6464    3.9928 C   0  0  0  0  0  0  0  0  0  0  0  0
    7.5128   -1.7718    3.1594 C   0  0  0  0  0  0  0  0  0  0  0  0
    6.3194   -1.7685    2.3941 C   0  0  0  0  0  0  0  0  0  0  0  0
    5.9517   -2.9064    1.4724 C   0  0  0  0  0  0  0  0  0  0  0  0
    6.7752   -4.1864    1.7231 C   0  0  2  0  0  0  0  0  0  0  0  0
    6.2298   -4.9295    2.8769 C   0  0  0  0  0  0  0  0  0  0  0  0
    5.8025   -5.5083    3.7833 N   0  0  0  0  0  0  0  0  0  0  0  0
    8.2710   -3.8739    1.9372 C   0  0  1  0  0  0  0  0  0  0  0  0
    8.8680   -3.3065    0.7134 C   0  0  0  0  0  0  0  0  0  0  0  0
    9.3370   -2.8724   -0.2535 N   0  0  0  0  0  0  0  0  0  0  0  0
    8.4876   -2.9251    3.1334 C   0  0  0  0  0  0  0  0  0  0  0  0
    8.6802   -0.4040    5.0397 C   0  0  0  0  0  0  0  0  0  0  0  0
    9.5388   -1.6108    5.8463 S   0  0  0  0  0  0  0  0  0  0  0  0
   10.3636   -0.6256    6.9199 C   0  0  0  0  0  0  0  0  0  0  0  0
    9.9713    0.6818    6.6808 C   0  0  0  0  0  0  0  0  0  0  0  0
    9.0534    0.8239    5.6163 C   0  0  0  0  0  0  0  0  0  0  0  0
    8.4893    2.1688    5.2306 C   0  0  0  0  0  0  0  0  0  0  0  0
    9.3087    3.3541    5.7918 C   0  0  2  0  0  0  0  0  0  0  0  0
   10.5003    3.5876    4.9572 C   0  0  0  0  0  0  0  0  0  0  0  0
   11.4402    3.7646    4.2983 N   0  0  0  0  0  0  0  0  0  0  0  0
    9.7153    3.1299    7.2674 C   0  0  1  0  0  0  0  0  0  0  0  0
    8.5216    3.0891    8.1342 C   0  0  0  0  0  0  0  0  0  0  0  0
    7.5837    3.0496    8.8098 N   0  0  0  0  0  0  0  0  0  0  0  0
   10.5502    1.8452    7.4409 C   0  0  0  0  0  0  0  0  0  0  0  0
  -11.1873    4.3126   -5.6787 H   0  0  0  0  0  0  0  0  0  0  0  0
  -11.1930    4.8802   -3.0340 H   0  0  0  0  0  0  0  0  0  0  0  0
   -9.5902    5.6786   -3.2601 H   0  0  0  0  0  0  0  0  0  0  0  0
  -10.2817    3.3195   -1.3711 H   0  0  0  0  0  0  0  0  0  0  0  0
   -7.5329    4.6170   -2.0145 H   0  0  0  0  0  0  0  0  0  0  0  0
   -8.3402    1.6448   -2.2541 H   0  0  0  0  0  0  0  0  0  0  0  0
   -6.8637    2.4739   -2.8774 H   0  0  0  0  0  0  0  0  0  0  0  0
   -9.7895   -0.0714   -4.0068 H   0  0  0  0  0  0  0  0  0  0  0  0
   -9.5574   -1.2796   -5.3016 H   0  0  0  0  0  0  0  0  0  0  0  0
  -10.0327   -2.5730   -3.3512 H   0  0  0  0  0  0  0  0  0  0  0  0
   -7.8918   -3.7761   -2.7780 H   0  0  0  0  0  0  0  0  0  0  0  0
   -6.3014   -1.9796   -2.5351 H   0  0  0  0  0  0  0  0  0  0  0  0
   -5.7423   -2.9763   -3.8860 H   0  0  0  0  0  0  0  0  0  0  0  0
   -4.2920   -3.0938   -5.5650 H   0  0  0  0  0  0  0  0  0  0  0  0
   -3.5404   -1.8679   -6.6310 H   0  0  0  0  0  0  0  0  0  0  0  0
   -1.3892   -2.8332   -6.5482 H   0  0  0  0  0  0  0  0  0  0  0  0
   -2.3189   -4.4395   -4.0676 H   0  0  0  0  0  0  0  0  0  0  0  0
   -0.1131   -2.2772   -4.2972 H   0  0  0  0  0  0  0  0  0  0  0  0
   -0.7495   -3.0922   -2.8102 H   0  0  0  0  0  0  0  0  0  0  0  0
   -1.6484    3.1024    0.6772 H   0  0  0  0  0  0  0  0  0  0  0  0
    0.0395    3.5326    0.3122 H   0  0  0  0  0  0  0  0  0  0  0  0
    0.3817    4.0998    2.7795 H   0  0  0  0  0  0  0  0  0  0  0  0
   -0.8285    5.1160    1.9182 H   0  0  0  0  0  0  0  0  0  0  0  0
   -1.3957    3.8139    3.0199 H   0  0  0  0  0  0  0  0  0  0  0  0
   -0.8585    1.5794    3.5188 H   0  0  0  0  0  0  0  0  0  0  0  0
   -0.5494   -0.0032    2.7698 H   0  0  0  0  0  0  0  0  0  0  0  0
   -2.9539    1.8143    2.0669 H   0  0  0  0  0  0  0  0  0  0  0  0
   -2.9654    0.4151    3.1852 H   0  0  0  0  0  0  0  0  0  0  0  0
   -2.6421    0.1339    1.4586 H   0  0  0  0  0  0  0  0  0  0  0  0
   -2.1332    1.2580   -0.6237 H   0  0  0  0  0  0  0  0  0  0  0  0
    3.6670    1.4296    3.2424 H   0  0  0  0  0  0  0  0  0  0  0  0
    4.8746   -3.1489    1.5900 H   0  0  0  0  0  0  0  0  0  0  0  0
    6.1162   -2.5691    0.4240 H   0  0  0  0  0  0  0  0  0  0  0  0
    6.6663   -4.8479    0.8369 H   0  0  0  0  0  0  0  0  0  0  0  0
    8.8085   -4.8233    2.1456 H   0  0  0  0  0  0  0  0  0  0  0  0
    9.5307   -2.5396    3.1181 H   0  0  0  0  0  0  0  0  0  0  0  0
    8.3578   -3.5068    4.0743 H   0  0  0  0  0  0  0  0  0  0  0  0
   11.0742   -0.9534    7.6693 H   0  0  0  0  0  0  0  0  0  0  0  0
    7.4538    2.2333    5.6334 H   0  0  0  0  0  0  0  0  0  0  0  0
    8.4232    2.2468    4.1262 H   0  0  0  0  0  0  0  0  0  0  0  0
    8.6827    4.2745    5.7251 H   0  0  0  0  0  0  0  0  0  0  0  0
   10.3303    3.9910    7.6104 H   0  0  0  0  0  0  0  0  0  0  0  0
   11.5816    2.0291    7.0628 H   0  0  0  0  0  0  0  0  0  0  0  0
   10.6421    1.5870    8.5194 H   0  0  0  0  0  0  0  0  0  0  0  0
  1  2  1  0
  2  3  1  0
  3  4  2  0
  4  5  1  0
  5  6  1  0
  6  7  1  0
  7  8  1  0
  8  9  3  0
  7 10  1  0
 10 11  1  0
 11 12  3  0
 10 13  1  0
  3 14  1  0
 14 15  1  0
 15 16  1  0
 16 17  2  0
 17 18  1  0
 18 19  1  0
 19 20  1  0
 20 21  1  0
 21 22  3  0
 20 23  1  0
 23 24  1  0
 24 25  3  0
 23 26  1  0
 16 27  1  0
 27 28  1  0
 28 29  1  0
 29 30  2  0
 30 31  1  0
 31 32  1  0
 32 33  1  0
 33 34  1  0
 34 35  3  0
 33 36  1  0
 36 37  1  0
 37 38  3  0
 36 39  1  0
 29 40  1  0
 40 41  1  0
 41 42  1  0
 42 43  1  0
 43 44  2  0
 44 45  1  0
 45 46  1  0
 46 47  1  0
 47 48  1  0
 46 49  1  0
 49 50  1  0
 46 51  1  0
 51 52  1  0
 44 53  1  0
 53 54  2  0
 54 55  1  0
 54 56  1  0
 56 57  1  0
 57 58  1  0
 58 59  2  0
 59 60  1  0
 60 61  1  0
 61 62  1  0
 62 63  1  0
 63 64  3  0
 62 65  1  0
 65 66  1  0
 66 67  3  0
 65 68  1  0
 58 69  1  0
 69 70  1  0
 70 71  1  0
 71 72  2  0
 72 73  1  0
 73 74  1  0
 74 75  1  0
 75 76  1  0
 76 77  3  0
 75 78  1  0
 78 79  1  0
 79 80  3  0
 78 81  1  0
  5  1  2  0
 18 14  2  0
 31 27  2  0
 52 40  2  0
 60 56  2  0
 73 69  2  0
 13  4  1  0
 26 17  1  0
 39 30  1  0
 51 42  2  0
 68 59  1  0
 81 72  1  0
 55 43  1  0
  1 82  1  0
  6 83  1  0
  6 84  1  0
  7 85  1  1
 10 86  1  6
 13 87  1  0
 13 88  1  0
 19 89  1  0
 19 90  1  0
 20 91  1  1
 23 92  1  1
 26 93  1  0
 26 94  1  0
 32 95  1  0
 32 96  1  0
 33 97  1  6
 36 98  1  1
 39 99  1  0
 39100  1  0
 47101  1  0
 47102  1  0
 48103  1  0
 48104  1  0
 48105  1  0
 49106  1  0
 49107  1  0
 50108  1  0
 50109  1  0
 50110  1  0
 52111  1  0
 53112  1  0
 61113  1  0
 61114  1  0
 62115  1  6
 65116  1  1
 68117  1  0
 68118  1  0
 71119  1  0
 74120  1  0
 74121  1  0
 75122  1  1
 78123  1  1
 81124  1  0
 81125  1  0
M  END

