
     RDKit          3D

170187  0  0  0  0  0  0  0  0999 V2000
   -8.7174    8.9096   -0.1687 C   0  0  0  0  0  0  0  0  0  0  0  0
   -8.9724    8.1359    0.9583 C   0  0  0  0  0  0  0  0  0  0  0  0
   -8.8399    6.7532    0.7308 C   0  0  0  0  0  0  0  0  0  0  0  0
   -9.0405    5.7228    1.6776 C   0  0  0  0  0  0  0  0  0  0  0  0
   -9.3886    6.0140    3.1146 C   0  0  0  0  0  0  0  0  0  0  0  0
  -10.8839    6.2727    3.2715 C   0  0  0  0  0  0  0  0  0  0  0  0
   -8.8850    4.3992    1.2138 C   0  0  0  0  0  0  0  0  0  0  0  0
   -8.5128    4.0993   -0.1035 C   0  0  0  0  0  0  0  0  0  0  0  0
   -8.2870    5.1324   -1.0384 C   0  0  0  0  0  0  0  0  0  0  0  0
   -7.9056    4.8638   -2.4737 C   0  0  0  0  0  0  0  0  0  0  0  0
   -9.1487    4.7437   -3.3462 C   0  0  0  0  0  0  0  0  0  0  0  0
   -8.4769    6.4502   -0.5824 C   0  0  0  0  0  0  0  0  0  0  0  0
   -8.3219    7.8877   -1.4487 S   0  0  0  0  0  0  0  0  0  0  0  0
   -8.3583    2.7176   -0.3314 C   0  0  0  0  0  0  0  0  0  0  0  0
   -8.5992    1.9416    0.8028 C   0  0  0  0  0  0  0  0  0  0  0  0
   -9.0157    2.9625    2.0823 S   0  0  0  0  0  0  0  0  0  0  0  0
   -8.3165    0.4986    0.9244 C   0  0  0  0  0  0  0  0  0  0  0  0
   -8.4589   -0.2626    2.0867 C   0  0  0  0  0  0  0  0  0  0  0  0
   -7.8591   -1.5360    1.9934 C   0  0  0  0  0  0  0  0  0  0  0  0
   -7.7422   -2.4774    3.0320 C   0  0  0  0  0  0  0  0  0  0  0  0
   -8.4386   -2.3007    4.3633 C   0  0  0  0  0  0  0  0  0  0  0  0
   -7.5829   -1.5074    5.3458 C   0  0  0  0  0  0  0  0  0  0  0  0
   -6.8980   -3.5779    2.7963 C   0  0  0  0  0  0  0  0  0  0  0  0
   -6.2749   -3.8051    1.5634 C   0  0  0  0  0  0  0  0  0  0  0  0
   -6.4723   -2.9129    0.4883 C   0  0  0  0  0  0  0  0  0  0  0  0
   -5.8604   -3.1486   -0.8749 C   0  0  0  0  0  0  0  0  0  0  0  0
   -6.6665   -4.1905   -1.6450 C   0  0  0  0  0  0  0  0  0  0  0  0
   -7.2559   -1.7699    0.7520 C   0  0  0  0  0  0  0  0  0  0  0  0
   -7.4758   -0.4108   -0.2223 S   0  0  0  0  0  0  0  0  0  0  0  0
   -5.3735   -4.8870    1.5936 C   0  0  0  0  0  0  0  0  0  0  0  0
   -5.2638   -5.4709    2.8535 C   0  0  0  0  0  0  0  0  0  0  0  0
   -6.2996   -4.6783    3.9204 S   0  0  0  0  0  0  0  0  0  0  0  0
   -4.1339   -6.3114    3.2742 C   0  0  0  0  0  0  0  0  0  0  0  0
   -3.4012   -7.1588    2.4431 C   0  0  0  0  0  0  0  0  0  0  0  0
   -2.1431   -7.5136    2.9760 C   0  0  0  0  0  0  0  0  0  0  0  0
   -1.1391   -8.2679    2.3353 C   0  0  0  0  0  0  0  0  0  0  0  0
   -1.3854   -8.9982    1.0408 C   0  0  0  0  0  0  0  0  0  0  0  0
   -1.1340   -8.1059   -0.1687 C   0  0  0  0  0  0  0  0  0  0  0  0
    0.1406   -8.2595    2.9327 C   0  0  0  0  0  0  0  0  0  0  0  0
    0.3927   -7.6415    4.1623 C   0  0  0  0  0  0  0  0  0  0  0  0
   -0.6467   -6.9855    4.8631 C   0  0  0  0  0  0  0  0  0  0  0  0
   -0.4620   -6.3527    6.2270 C   0  0  0  0  0  0  0  0  0  0  0  0
   -1.0009   -7.2707    7.3158 C   0  0  0  0  0  0  0  0  0  0  0  0
   -1.8987   -6.9303    4.2231 C   0  0  0  0  0  0  0  0  0  0  0  0
   -3.2339   -6.0064    4.6625 S   0  0  0  0  0  0  0  0  0  0  0  0
    1.7591   -7.6211    4.4940 C   0  0  0  0  0  0  0  0  0  0  0  0
    2.5870   -8.1394    3.5018 C   0  0  0  0  0  0  0  0  0  0  0  0
    1.6118   -8.7156    2.2476 S   0  0  0  0  0  0  0  0  0  0  0  0
    3.9975   -7.7270    3.3471 C   0  0  0  0  0  0  0  0  0  0  0  0
    4.6327   -7.1835    1.8797 S   0  0  0  0  0  0  0  0  0  0  0  0
    5.8325   -6.2164    2.5462 C   0  0  0  0  0  0  0  0  0  0  0  0
    6.4898   -5.0848    1.9037 C   0  0  0  0  0  0  0  0  0  0  0  0
    6.8545   -4.0048    2.6683 C   0  0  0  0  0  0  0  0  0  0  0  0
    6.7532   -4.0389    4.0627 O   0  0  0  0  0  0  0  0  0  0  0  0
    6.5057   -5.2556    4.8081 C   0  0  0  0  0  0  0  0  0  0  0  0
    5.6514   -4.8705    6.0485 C   0  0  0  0  0  0  0  0  0  0  0  0
    6.2532   -3.7572    6.9015 C   0  0  0  0  0  0  0  0  0  0  0  0
    7.8925   -5.8344    5.1868 C   0  0  0  0  0  0  0  0  0  0  0  0
    7.8512   -7.0452    6.1153 C   0  0  0  0  0  0  0  0  0  0  0  0
    5.7425   -6.2644    3.9309 C   0  0  0  0  0  0  0  0  0  0  0  0
    4.7491   -7.1585    4.3794 C   0  0  0  0  0  0  0  0  0  0  0  0
    7.2092   -2.8729    1.9336 C   0  0  0  0  0  0  0  0  0  0  0  0
    7.0887   -3.0701    0.5565 C   0  0  0  0  0  0  0  0  0  0  0  0
    6.5447   -4.6504    0.2798 S   0  0  0  0  0  0  0  0  0  0  0  0
    7.1814   -2.0172   -0.4686 C   0  0  0  0  0  0  0  0  0  0  0  0
    7.2399   -0.6448   -0.2163 C   0  0  0  0  0  0  0  0  0  0  0  0
    7.0792    0.1409   -1.3737 C   0  0  0  0  0  0  0  0  0  0  0  0
    7.0093    1.5463   -1.4243 C   0  0  0  0  0  0  0  0  0  0  0  0
    7.2370    2.4146   -0.2072 C   0  0  0  0  0  0  0  0  0  0  0  0
    8.7291    2.6559    0.0064 C   0  0  0  0  0  0  0  0  0  0  0  0
    6.7276    2.1187   -2.6794 C   0  0  0  0  0  0  0  0  0  0  0  0
    6.5682    1.3559   -3.8392 C   0  0  0  0  0  0  0  0  0  0  0  0
    6.6766   -0.0501   -3.7980 C   0  0  0  0  0  0  0  0  0  0  0  0
    6.5423   -0.9002   -5.0390 C   0  0  0  0  0  0  0  0  0  0  0  0
    7.8375   -0.8669   -5.8436 C   0  0  0  0  0  0  0  0  0  0  0  0
    6.9249   -0.6267   -2.5375 C   0  0  0  0  0  0  0  0  0  0  0  0
    6.9717   -2.2613   -2.1244 S   0  0  0  0  0  0  0  0  0  0  0  0
    6.2064    2.1267   -4.9582 C   0  0  0  0  0  0  0  0  0  0  0  0
    6.0681    3.4765   -4.6641 C   0  0  0  0  0  0  0  0  0  0  0  0
    6.3879    3.7306   -3.0291 S   0  0  0  0  0  0  0  0  0  0  0  0
    5.3845    4.4323   -5.5389 C   0  0  0  0  0  0  0  0  0  0  0  0
    4.2228    5.1109   -5.1825 C   0  0  0  0  0  0  0  0  0  0  0  0
    3.5879    5.7264   -6.2754 C   0  0  0  0  0  0  0  0  0  0  0  0
    2.3430    6.3866   -6.2537 C   0  0  0  0  0  0  0  0  0  0  0  0
    1.5261    6.5143   -4.9905 C   0  0  0  0  0  0  0  0  0  0  0  0
    2.0014    7.6929   -4.1509 C   0  0  0  0  0  0  0  0  0  0  0  0
    1.8776    6.8935   -7.4849 C   0  0  0  0  0  0  0  0  0  0  0  0
    2.5870    6.7486   -8.6836 C   0  0  0  0  0  0  0  0  0  0  0  0
    3.8312    6.0834   -8.7040 C   0  0  0  0  0  0  0  0  0  0  0  0
    4.6119    5.8741   -9.9792 C   0  0  0  0  0  0  0  0  0  0  0  0
    4.1595    4.6053  -10.6886 C   0  0  0  0  0  0  0  0  0  0  0  0
    4.2901    5.5648   -7.4765 C   0  0  0  0  0  0  0  0  0  0  0  0
    5.6426    4.5998   -7.1954 S   0  0  0  0  0  0  0  0  0  0  0  0
    1.9086    7.2886   -9.7908 C   0  0  0  0  0  0  0  0  0  0  0  0
    0.6818    7.8568   -9.4622 C   0  0  0  0  0  0  0  0  0  0  0  0
    0.4329    7.6951   -7.8042 S   0  0  0  0  0  0  0  0  0  0  0  0
   -8.7705    9.9895   -0.2107 H   0  0  0  0  0  0  0  0  0  0  0  0
   -9.2610    8.5763    1.9082 H   0  0  0  0  0  0  0  0  0  0  0  0
   -9.0978    5.1666    3.7713 H   0  0  0  0  0  0  0  0  0  0  0  0
   -8.8200    6.8985    3.4697 H   0  0  0  0  0  0  0  0  0  0  0  0
  -11.1129    6.4670    4.3397 H   0  0  0  0  0  0  0  0  0  0  0  0
  -11.4697    5.3822    2.9436 H   0  0  0  0  0  0  0  0  0  0  0  0
  -11.1990    7.1546    2.6782 H   0  0  0  0  0  0  0  0  0  0  0  0
   -7.3019    3.9389   -2.5598 H   0  0  0  0  0  0  0  0  0  0  0  0
   -7.2648    5.6857   -2.8635 H   0  0  0  0  0  0  0  0  0  0  0  0
   -9.8190    3.9431   -2.9661 H   0  0  0  0  0  0  0  0  0  0  0  0
   -9.7054    5.7045   -3.3546 H   0  0  0  0  0  0  0  0  0  0  0  0
   -8.8538    4.5002   -4.3878 H   0  0  0  0  0  0  0  0  0  0  0  0
   -8.0464    2.2869   -1.2709 H   0  0  0  0  0  0  0  0  0  0  0  0
   -8.9176    0.1274    2.9831 H   0  0  0  0  0  0  0  0  0  0  0  0
   -9.4155   -1.7850    4.2233 H   0  0  0  0  0  0  0  0  0  0  0  0
   -8.6754   -3.2934    4.7939 H   0  0  0  0  0  0  0  0  0  0  0  0
   -7.4492   -0.4705    4.9916 H   0  0  0  0  0  0  0  0  0  0  0  0
   -6.5886   -1.9915    5.4759 H   0  0  0  0  0  0  0  0  0  0  0  0
   -8.0949   -1.4778    6.3298 H   0  0  0  0  0  0  0  0  0  0  0  0
   -4.8075   -3.4832   -0.7786 H   0  0  0  0  0  0  0  0  0  0  0  0
   -5.8344   -2.2124   -1.4705 H   0  0  0  0  0  0  0  0  0  0  0  0
   -7.7351   -3.8888   -1.6900 H   0  0  0  0  0  0  0  0  0  0  0  0
   -6.5912   -5.1828   -1.1520 H   0  0  0  0  0  0  0  0  0  0  0  0
   -6.2813   -4.2713   -2.6852 H   0  0  0  0  0  0  0  0  0  0  0  0
   -4.7287   -5.1661    0.7739 H   0  0  0  0  0  0  0  0  0  0  0  0
   -3.7356   -7.4242    1.4451 H   0  0  0  0  0  0  0  0  0  0  0  0
   -0.7176   -9.8880    0.9844 H   0  0  0  0  0  0  0  0  0  0  0  0
   -2.4289   -9.3807    1.0087 H   0  0  0  0  0  0  0  0  0  0  0  0
   -0.0893   -7.7251   -0.1629 H   0  0  0  0  0  0  0  0  0  0  0  0
   -1.2962   -8.6877   -1.0995 H   0  0  0  0  0  0  0  0  0  0  0  0
   -1.8312   -7.2387   -0.1689 H   0  0  0  0  0  0  0  0  0  0  0  0
   -0.9767   -5.3728    6.2639 H   0  0  0  0  0  0  0  0  0  0  0  0
    0.5964   -6.1297    6.4433 H   0  0  0  0  0  0  0  0  0  0  0  0
   -0.7856   -6.8451    8.3243 H   0  0  0  0  0  0  0  0  0  0  0  0
   -0.5113   -8.2636    7.2539 H   0  0  0  0  0  0  0  0  0  0  0  0
   -2.0997   -7.4026    7.2046 H   0  0  0  0  0  0  0  0  0  0  0  0
    2.1606   -7.0974    5.3452 H   0  0  0  0  0  0  0  0  0  0  0  0
    4.6583   -4.5218    5.6989 H   0  0  0  0  0  0  0  0  0  0  0  0
    5.4661   -5.7502    6.7009 H   0  0  0  0  0  0  0  0  0  0  0  0
    7.2086   -4.0856    7.3572 H   0  0  0  0  0  0  0  0  0  0  0  0
    6.4279   -2.8424    6.2981 H   0  0  0  0  0  0  0  0  0  0  0  0
    5.5500   -3.5065    7.7232 H   0  0  0  0  0  0  0  0  0  0  0  0
    8.5082   -5.0419    5.6651 H   0  0  0  0  0  0  0  0  0  0  0  0
    8.4257   -6.1246    4.2561 H   0  0  0  0  0  0  0  0  0  0  0  0
    8.8770   -7.4616    6.2175 H   0  0  0  0  0  0  0  0  0  0  0  0
    7.5118   -6.7560    7.1337 H   0  0  0  0  0  0  0  0  0  0  0  0
    7.1866   -7.8344    5.7093 H   0  0  0  0  0  0  0  0  0  0  0  0
    4.5046   -7.2961    5.4179 H   0  0  0  0  0  0  0  0  0  0  0  0
    7.4739   -1.9277    2.3959 H   0  0  0  0  0  0  0  0  0  0  0  0
    7.3115   -0.2362    0.7867 H   0  0  0  0  0  0  0  0  0  0  0  0
    6.7313    3.3967   -0.3292 H   0  0  0  0  0  0  0  0  0  0  0  0
    6.7962    1.9547    0.7001 H   0  0  0  0  0  0  0  0  0  0  0  0
    9.1737    3.1130   -0.9027 H   0  0  0  0  0  0  0  0  0  0  0  0
    9.2517    1.7009    0.2221 H   0  0  0  0  0  0  0  0  0  0  0  0
    8.8730    3.3607    0.8540 H   0  0  0  0  0  0  0  0  0  0  0  0
    6.3051   -1.9536   -4.7852 H   0  0  0  0  0  0  0  0  0  0  0  0
    5.7030   -0.5392   -5.6657 H   0  0  0  0  0  0  0  0  0  0  0  0
    8.6845   -1.2364   -5.2218 H   0  0  0  0  0  0  0  0  0  0  0  0
    7.7408   -1.5119   -6.7470 H   0  0  0  0  0  0  0  0  0  0  0  0
    8.0638    0.1671   -6.1820 H   0  0  0  0  0  0  0  0  0  0  0  0
    5.9720    1.7162   -5.9305 H   0  0  0  0  0  0  0  0  0  0  0  0
    3.8203    5.0920   -4.1791 H   0  0  0  0  0  0  0  0  0  0  0  0
    1.5970    5.5840   -4.3906 H   0  0  0  0  0  0  0  0  0  0  0  0
    0.4502    6.6485   -5.2242 H   0  0  0  0  0  0  0  0  0  0  0  0
    3.0793    7.5934   -3.9048 H   0  0  0  0  0  0  0  0  0  0  0  0
    1.4266    7.7347   -3.2037 H   0  0  0  0  0  0  0  0  0  0  0  0
    1.8463    8.6429   -4.7045 H   0  0  0  0  0  0  0  0  0  0  0  0
    4.4935    6.7446  -10.6566 H   0  0  0  0  0  0  0  0  0  0  0  0
    5.6995    5.7993   -9.7544 H   0  0  0  0  0  0  0  0  0  0  0  0
    3.0904    4.6807  -10.9814 H   0  0  0  0  0  0  0  0  0  0  0  0
    4.2914    3.7278  -10.0207 H   0  0  0  0  0  0  0  0  0  0  0  0
    4.7694    4.4438  -11.6000 H   0  0  0  0  0  0  0  0  0  0  0  0
    2.2761    7.2576  -10.8060 H   0  0  0  0  0  0  0  0  0  0  0  0
   -0.0018    8.3120  -10.1632 H   0  0  0  0  0  0  0  0  0  0  0  0
  1  2  2  0
  2  3  1  0
  3  4  2  0
  4  5  1  0
  5  6  1  0
  4  7  1  0
  7  8  2  0
  8  9  1  0
  9 10  1  0
 10 11  1  0
  9 12  2  0
 12 13  1  0
  8 14  1  0
 14 15  2  0
 15 16  1  0
 15 17  1  0
 17 18  2  0
 18 19  1  0
 19 20  2  0
 20 21  1  0
 21 22  1  0
 20 23  1  0
 23 24  2  0
 24 25  1  0
 25 26  1  0
 26 27  1  0
 25 28  2  0
 28 29  1  0
 24 30  1  0
 30 31  2  0
 31 32  1  0
 31 33  1  0
 33 34  2  0
 34 35  1  0
 35 36  2  0
 36 37  1  0
 37 38  1  0
 36 39  1  0
 39 40  2  0
 40 41  1  0
 41 42  1  0
 42 43  1  0
 41 44  2  0
 44 45  1  0
 40 46  1  0
 46 47  2  0
 47 48  1  0
 47 49  1  0
 49 50  1  0
 50 51  1  0
 51 52  1  0
 52 53  2  0
 53 54  1  0
 54 55  1  0
 55 56  1  0
 56 57  1  0
 55 58  1  0
 58 59  1  0
 55 60  1  0
 60 61  1  0
 53 62  1  0
 62 63  2  0
 63 64  1  0
 63 65  1  0
 65 66  2  0
 66 67  1  0
 67 68  2  0
 68 69  1  0
 69 70  1  0
 68 71  1  0
 71 72  2  0
 72 73  1  0
 73 74  1  0
 74 75  1  0
 73 76  2  0
 76 77  1  0
 72 78  1  0
 78 79  2  0
 79 80  1  0
 79 81  1  0
 81 82  2  0
 82 83  1  0
 83 84  2  0
 84 85  1  0
 85 86  1  0
 84 87  1  0
 87 88  2  0
 88 89  1  0
 89 90  1  0
 90 91  1  0
 89 92  2  0
 92 93  1  0
 88 94  1  0
 94 95  2  0
 95 96  1  0
 13  1  1  0
 29 17  1  0
 45 33  1  0
 61 49  2  0
 77 65  1  0
 93 81  1  0
 12  3  1  0
 28 19  1  0
 44 35  1  0
 60 51  2  0
 76 67  1  0
 92 83  1  0
 16  7  1  0
 32 23  1  0
 48 39  1  0
 64 52  1  0
 80 71  1  0
 96 87  1  0
  1 97  1  0
  2 98  1  0
  5 99  1  0
  5100  1  0
  6101  1  0
  6102  1  0
  6103  1  0
 10104  1  0
 10105  1  0
 11106  1  0
 11107  1  0
 11108  1  0
 14109  1  0
 18110  1  0
 21111  1  0
 21112  1  0
 22113  1  0
 22114  1  0
 22115  1  0
 26116  1  0
 26117  1  0
 27118  1  0
 27119  1  0
 27120  1  0
 30121  1  0
 34122  1  0
 37123  1  0
 37124  1  0
 38125  1  0
 38126  1  0
 38127  1  0
 42128  1  0
 42129  1  0
 43130  1  0
 43131  1  0
 43132  1  0
 46133  1  0
 56134  1  0
 56135  1  0
 57136  1  0
 57137  1  0
 57138  1  0
 58139  1  0
 58140  1  0
 59141  1  0
 59142  1  0
 59143  1  0
 61144  1  0
 62145  1  0
 66146  1  0
 69147  1  0
 69148  1  0
 70149  1  0
 70150  1  0
 70151  1  0
 74152  1  0
 74153  1  0
 75154  1  0
 75155  1  0
 75156  1  0
 78157  1  0
 82158  1  0
 85159  1  0
 85160  1  0
 86161  1  0
 86162  1  0
 86163  1  0
 90164  1  0
 90165  1  0
 91166  1  0
 91167  1  0
 91168  1  0
 94169  1  0
 95170  1  0
M  END

