
     RDKit          3D

226251  0  0  0  0  0  0  0  0999 V2000
    0.5821   -4.5923   10.2224 C   0  0  0  0  0  0  0  0  0  0  0  0
   -0.3131   -3.5854    9.8713 C   0  0  0  0  0  0  0  0  0  0  0  0
   -1.1016   -3.9123    8.7569 C   0  0  0  0  0  0  0  0  0  0  0  0
   -2.0809   -3.0989    8.1573 C   0  0  0  0  0  0  0  0  0  0  0  0
   -2.2988   -1.7080    8.5863 C   0  0  0  0  0  0  0  0  0  0  0  0
   -1.1877   -0.4653    8.3596 S   0  0  0  0  0  0  0  0  0  0  0  0
   -2.1692    0.7608    8.9631 C   0  0  0  0  0  0  0  0  0  0  0  0
   -1.8040    2.2140    8.9685 C   0  0  0  0  0  0  0  0  0  0  0  0
   -2.2796    2.8912    7.6873 C   0  0  0  0  0  0  0  0  0  0  0  0
   -3.3985    0.2115    9.3255 C   0  0  0  0  0  0  0  0  0  0  0  0
   -4.7313    1.1579    9.9741 Cl  0  0  0  0  0  0  0  0  0  0  0  0
   -3.4703   -1.1734    9.1171 C   0  0  0  0  0  0  0  0  0  0  0  0
   -4.8875   -2.1412    9.5027 Cl  0  0  0  0  0  0  0  0  0  0  0  0
   -2.7367   -3.6190    7.0272 C   0  0  0  0  0  0  0  0  0  0  0  0
   -2.4286   -4.8732    6.4865 C   0  0  0  0  0  0  0  0  0  0  0  0
   -1.4665   -5.6969    7.1041 C   0  0  0  0  0  0  0  0  0  0  0  0
   -1.1484   -7.0367    6.5882 C   0  0  0  0  0  0  0  0  0  0  0  0
    0.3203   -7.4788    5.9025 S   0  0  0  0  0  0  0  0  0  0  0  0
   -0.1030   -9.0798    5.5927 C   0  0  0  0  0  0  0  0  0  0  0  0
    0.7522  -10.0559    4.8491 C   0  0  0  0  0  0  0  0  0  0  0  0
    0.5056   -9.9493    3.3490 C   0  0  0  0  0  0  0  0  0  0  0  0
   -1.4199   -9.2812    6.0088 C   0  0  0  0  0  0  0  0  0  0  0  0
   -2.0048   -8.1373    6.5723 C   0  0  0  0  0  0  0  0  0  0  0  0
   -3.6437   -8.0987    7.2070 Cl  0  0  0  0  0  0  0  0  0  0  0  0
   -2.2661  -10.8134    5.8440 Cl  0  0  0  0  0  0  0  0  0  0  0  0
   -0.8168   -5.1788    8.2368 C   0  0  0  0  0  0  0  0  0  0  0  0
    0.4014   -5.8868    9.1551 S   0  0  0  0  0  0  0  0  0  0  0  0
   -3.1045   -5.1419    5.2819 C   0  0  0  0  0  0  0  0  0  0  0  0
   -3.9619   -4.1082    4.9063 C   0  0  0  0  0  0  0  0  0  0  0  0
   -3.8697   -2.8606    6.0425 S   0  0  0  0  0  0  0  0  0  0  0  0
   -4.7694   -4.0496    3.6817 C   0  0  0  0  0  0  0  0  0  0  0  0
   -4.3293   -4.7048    2.1895 S   0  0  0  0  0  0  0  0  0  0  0  0
   -5.6451   -4.0595    1.3621 C   0  0  0  0  0  0  0  0  0  0  0  0
   -5.9493   -4.1062   -0.0559 C   0  0  0  0  0  0  0  0  0  0  0  0
   -7.1008   -3.5136   -0.5162 C   0  0  0  0  0  0  0  0  0  0  0  0
   -8.0133   -2.9350    0.3752 O   0  0  0  0  0  0  0  0  0  0  0  0
   -7.6403   -2.5058    1.7074 C   0  0  0  0  0  0  0  0  0  0  0  0
   -8.8637   -2.7447    2.6348 C   0  0  0  0  0  0  0  0  0  0  0  0
  -10.1257   -1.9854    2.2069 C   0  0  0  0  0  0  0  0  0  0  0  0
   -7.2429   -1.0041    1.5876 C   0  0  0  0  0  0  0  0  0  0  0  0
   -6.8399   -0.3020    2.8900 C   0  0  0  0  0  0  0  0  0  0  0  0
   -6.4463   -3.3260    2.2262 C   0  0  0  0  0  0  0  0  0  0  0  0
   -5.9470   -3.3210    3.5386 C   0  0  0  0  0  0  0  0  0  0  0  0
   -7.2112   -3.4840   -1.9076 C   0  0  0  0  0  0  0  0  0  0  0  0
   -6.0754   -4.0053   -2.5420 C   0  0  0  0  0  0  0  0  0  0  0  0
   -4.9927   -4.5526   -1.3545 S   0  0  0  0  0  0  0  0  0  0  0  0
   -5.7120   -3.7737   -3.9510 C   0  0  0  0  0  0  0  0  0  0  0  0
   -6.4080   -2.9389   -4.8300 C   0  0  0  0  0  0  0  0  0  0  0  0
   -5.6385   -2.5298   -5.9322 C   0  0  0  0  0  0  0  0  0  0  0  0
   -5.9795   -1.5036   -6.8372 C   0  0  0  0  0  0  0  0  0  0  0  0
   -7.3268   -0.8975   -6.8414 C   0  0  0  0  0  0  0  0  0  0  0  0
   -7.6755    0.7034   -6.4603 S   0  0  0  0  0  0  0  0  0  0  0  0
   -9.3422    0.5728   -6.6259 C   0  0  0  0  0  0  0  0  0  0  0  0
  -10.3048    1.7091   -6.4771 C   0  0  0  0  0  0  0  0  0  0  0  0
  -10.5245    2.4051   -7.8165 C   0  0  0  0  0  0  0  0  0  0  0  0
   -9.6526   -0.7342   -6.9985 C   0  0  0  0  0  0  0  0  0  0  0  0
  -11.2906   -1.2985   -7.3021 Cl  0  0  0  0  0  0  0  0  0  0  0  0
   -8.5244   -1.5592   -7.1074 C   0  0  0  0  0  0  0  0  0  0  0  0
   -8.6074   -3.2566   -7.5720 Cl  0  0  0  0  0  0  0  0  0  0  0  0
   -4.9444   -1.0011   -7.6473 C   0  0  0  0  0  0  0  0  0  0  0  0
   -3.6537   -1.5356   -7.6353 C   0  0  0  0  0  0  0  0  0  0  0  0
   -3.3416   -2.6262   -6.7975 C   0  0  0  0  0  0  0  0  0  0  0  0
   -1.9683   -3.1459   -6.6692 C   0  0  0  0  0  0  0  0  0  0  0  0
   -1.4415   -4.6232   -7.2727 S   0  0  0  0  0  0  0  0  0  0  0  0
    0.1144   -4.5274   -6.6330 C   0  0  0  0  0  0  0  0  0  0  0  0
    1.1481   -5.6053   -6.7588 C   0  0  0  0  0  0  0  0  0  0  0  0
    0.8580   -6.7415   -5.7854 C   0  0  0  0  0  0  0  0  0  0  0  0
    0.2288   -3.3403   -5.9093 C   0  0  0  0  0  0  0  0  0  0  0  0
   -0.9397   -2.5646   -5.9309 C   0  0  0  0  0  0  0  0  0  0  0  0
   -1.1077   -1.0292   -5.0891 Cl  0  0  0  0  0  0  0  0  0  0  0  0
    1.6696   -2.8737   -5.0158 Cl  0  0  0  0  0  0  0  0  0  0  0  0
   -4.3543   -3.0795   -5.9382 C   0  0  0  0  0  0  0  0  0  0  0  0
   -4.1704   -4.0531   -4.5795 S   0  0  0  0  0  0  0  0  0  0  0  0
   -2.7276   -0.7681   -8.3597 C   0  0  0  0  0  0  0  0  0  0  0  0
   -3.2741    0.4002   -8.8899 C   0  0  0  0  0  0  0  0  0  0  0  0
   -4.9204    0.4375   -8.5166 S   0  0  0  0  0  0  0  0  0  0  0  0
   -2.4779    1.6194   -9.0172 C   0  0  0  0  0  0  0  0  0  0  0  0
   -2.4886    2.7878   -7.8141 S   0  0  0  0  0  0  0  0  0  0  0  0
   -1.0291    3.4790   -8.2427 C   0  0  0  0  0  0  0  0  0  0  0  0
   -0.2351    4.3728   -7.4391 C   0  0  0  0  0  0  0  0  0  0  0  0
    1.0724    4.5933   -7.7832 C   0  0  0  0  0  0  0  0  0  0  0  0
    1.5716    4.1603   -9.0179 O   0  0  0  0  0  0  0  0  0  0  0  0
    0.9294    3.1572   -9.8519 C   0  0  0  0  0  0  0  0  0  0  0  0
    0.7582    3.7743  -11.2657 C   0  0  0  0  0  0  0  0  0  0  0  0
    2.0700    4.1939  -11.9246 C   0  0  0  0  0  0  0  0  0  0  0  0
    1.8869    1.9292   -9.8127 C   0  0  0  0  0  0  0  0  0  0  0  0
    1.6170    0.7777  -10.7897 C   0  0  0  0  0  0  0  0  0  0  0  0
   -0.4748    2.8023   -9.3199 C   0  0  0  0  0  0  0  0  0  0  0  0
   -1.3134    1.7606   -9.7757 C   0  0  0  0  0  0  0  0  0  0  0  0
    1.8445    5.1488   -6.7558 C   0  0  0  0  0  0  0  0  0  0  0  0
    1.1237    5.2875   -5.5638 C   0  0  0  0  0  0  0  0  0  0  0  0
   -0.4654    4.7730   -5.8294 S   0  0  0  0  0  0  0  0  0  0  0  0
    1.7251    5.4090   -4.2239 C   0  0  0  0  0  0  0  0  0  0  0  0
    1.1026    5.0039   -3.0431 C   0  0  0  0  0  0  0  0  0  0  0  0
    1.9936    4.8469   -1.9714 C   0  0  0  0  0  0  0  0  0  0  0  0
    1.6804    4.3172   -0.7044 C   0  0  0  0  0  0  0  0  0  0  0  0
    0.3157    3.8988   -0.3317 C   0  0  0  0  0  0  0  0  0  0  0  0
   -0.4661    2.5356   -0.9308 S   0  0  0  0  0  0  0  0  0  0  0  0
   -1.7986    2.6176    0.0925 C   0  0  0  0  0  0  0  0  0  0  0  0
   -2.8974    1.5992    0.1475 C   0  0  0  0  0  0  0  0  0  0  0  0
   -2.6179    0.5426    1.2150 C   0  0  0  0  0  0  0  0  0  0  0  0
   -1.6342    3.7077    0.9446 C   0  0  0  0  0  0  0  0  0  0  0  0
   -2.7728    4.1332    2.2174 Cl  0  0  0  0  0  0  0  0  0  0  0  0
   -0.4472    4.4239    0.7072 C   0  0  0  0  0  0  0  0  0  0  0  0
    0.0315    5.8380    1.6389 Cl  0  0  0  0  0  0  0  0  0  0  0  0
    2.7560    4.0713    0.1629 C   0  0  0  0  0  0  0  0  0  0  0  0
    4.0813    4.3788   -0.1634 C   0  0  0  0  0  0  0  0  0  0  0  0
    4.3891    4.9727   -1.4077 C   0  0  0  0  0  0  0  0  0  0  0  0
    5.7824    5.2729   -1.7991 C   0  0  0  0  0  0  0  0  0  0  0  0
    6.5613    4.6548   -3.1583 S   0  0  0  0  0  0  0  0  0  0  0  0
    8.0401    5.4012   -2.8812 C   0  0  0  0  0  0  0  0  0  0  0  0
    9.1949    5.3731   -3.8372 C   0  0  0  0  0  0  0  0  0  0  0  0
    9.0471    6.4764   -4.8789 C   0  0  0  0  0  0  0  0  0  0  0  0
    7.9410    6.1672   -1.7191 C   0  0  0  0  0  0  0  0  0  0  0  0
    6.6821    6.0886   -1.1095 C   0  0  0  0  0  0  0  0  0  0  0  0
    6.2565    6.9874    0.3404 Cl  0  0  0  0  0  0  0  0  0  0  0  0
    9.2495    7.1677   -1.1002 Cl  0  0  0  0  0  0  0  0  0  0  0  0
    3.3168    5.1676   -2.2992 C   0  0  0  0  0  0  0  0  0  0  0  0
    3.3721    5.6265   -3.9172 S   0  0  0  0  0  0  0  0  0  0  0  0
    5.0062    3.8829    0.7749 C   0  0  0  0  0  0  0  0  0  0  0  0
    4.3977    3.1770    1.8128 C   0  0  0  0  0  0  0  0  0  0  0  0
    2.7257    3.1877    1.5883 S   0  0  0  0  0  0  0  0  0  0  0  0
    5.0905    2.3286    2.7882 C   0  0  0  0  0  0  0  0  0  0  0  0
    4.5530    1.1660    3.3261 C   0  0  0  0  0  0  0  0  0  0  0  0
    5.4584    0.4695    4.1374 C   0  0  0  0  0  0  0  0  0  0  0  0
    5.2200   -0.7654    4.7675 C   0  0  0  0  0  0  0  0  0  0  0  0
    3.9735   -1.5133    4.5389 C   0  0  0  0  0  0  0  0  0  0  0  0
    3.4757   -2.0969    3.0385 S   0  0  0  0  0  0  0  0  0  0  0  0
    2.0184   -2.7423    3.5727 C   0  0  0  0  0  0  0  0  0  0  0  0
    1.0763   -3.5405    2.7298 C   0  0  0  0  0  0  0  0  0  0  0  0
    1.4392   -5.0232    2.7760 C   0  0  0  0  0  0  0  0  0  0  0  0
    1.9164   -2.5255    4.9468 C   0  0  0  0  0  0  0  0  0  0  0  0
    0.5551   -3.0670    5.9049 Cl  0  0  0  0  0  0  0  0  0  0  0  0
    3.0035   -1.8253    5.4869 C   0  0  0  0  0  0  0  0  0  0  0  0
    3.0957   -1.3477    7.1776 Cl  0  0  0  0  0  0  0  0  0  0  0  0
    6.2540   -1.2806    5.5631 C   0  0  0  0  0  0  0  0  0  0  0  0
    7.4804   -0.6300    5.7167 C   0  0  0  0  0  0  0  0  0  0  0  0
    7.7319    0.5899    5.0537 C   0  0  0  0  0  0  0  0  0  0  0  0
    9.0298    1.2784    5.1665 C   0  0  0  0  0  0  0  0  0  0  0  0
   10.4925    0.6651    4.5995 S   0  0  0  0  0  0  0  0  0  0  0  0
   11.4459    1.9417    5.1380 C   0  0  0  0  0  0  0  0  0  0  0  0
   12.9209    2.0570    4.9114 C   0  0  0  0  0  0  0  0  0  0  0  0
   13.2133    2.9416    3.7048 C   0  0  0  0  0  0  0  0  0  0  0  0
   10.6254    2.8794    5.7619 C   0  0  0  0  0  0  0  0  0  0  0  0
    9.2715    2.5055    5.7827 C   0  0  0  0  0  0  0  0  0  0  0  0
    8.0150    3.4660    6.5528 Cl  0  0  0  0  0  0  0  0  0  0  0  0
   11.2195    4.3774    6.4650 Cl  0  0  0  0  0  0  0  0  0  0  0  0
    6.6913    1.1148    4.2679 C   0  0  0  0  0  0  0  0  0  0  0  0
    6.6825    2.5141    3.3229 S   0  0  0  0  0  0  0  0  0  0  0  0
    8.3652   -1.3223    6.5629 C   0  0  0  0  0  0  0  0  0  0  0  0
    7.8358   -2.5131    7.0540 C   0  0  0  0  0  0  0  0  0  0  0  0
    6.2774   -2.7136    6.4412 S   0  0  0  0  0  0  0  0  0  0  0  0
    1.2807   -4.5451   11.0493 H   0  0  0  0  0  0  0  0  0  0  0  0
   -0.3866   -2.6530   10.4154 H   0  0  0  0  0  0  0  0  0  0  0  0
   -2.2626    2.7152    9.8487 H   0  0  0  0  0  0  0  0  0  0  0  0
   -0.6996    2.3174    9.0543 H   0  0  0  0  0  0  0  0  0  0  0  0
   -3.3824    2.8080    7.5925 H   0  0  0  0  0  0  0  0  0  0  0  0
   -1.7964    2.4174    6.8060 H   0  0  0  0  0  0  0  0  0  0  0  0
   -2.0031    3.9656    7.7099 H   0  0  0  0  0  0  0  0  0  0  0  0
    1.8216   -9.8483    5.0585 H   0  0  0  0  0  0  0  0  0  0  0  0
    0.5312  -11.0906    5.1878 H   0  0  0  0  0  0  0  0  0  0  0  0
    1.1076  -10.7146    2.8156 H   0  0  0  0  0  0  0  0  0  0  0  0
   -0.5670  -10.1221    3.1180 H   0  0  0  0  0  0  0  0  0  0  0  0
    0.8046   -8.9441    2.9809 H   0  0  0  0  0  0  0  0  0  0  0  0
   -2.9653   -6.0447    4.6968 H   0  0  0  0  0  0  0  0  0  0  0  0
   -9.1017   -3.8295    2.6215 H   0  0  0  0  0  0  0  0  0  0  0  0
   -8.6349   -2.4833    3.6875 H   0  0  0  0  0  0  0  0  0  0  0  0
  -10.9761   -2.3042    2.8452 H   0  0  0  0  0  0  0  0  0  0  0  0
  -10.3818   -2.2024    1.1489 H   0  0  0  0  0  0  0  0  0  0  0  0
   -9.9913   -0.8939    2.3484 H   0  0  0  0  0  0  0  0  0  0  0  0
   -8.0768   -0.4334    1.1236 H   0  0  0  0  0  0  0  0  0  0  0  0
   -6.3850   -0.9172    0.8792 H   0  0  0  0  0  0  0  0  0  0  0  0
   -7.5754   -0.4805    3.6991 H   0  0  0  0  0  0  0  0  0  0  0  0
   -6.7841    0.7938    2.7168 H   0  0  0  0  0  0  0  0  0  0  0  0
   -5.8353   -0.6379    3.2190 H   0  0  0  0  0  0  0  0  0  0  0  0
   -6.3993   -2.7773    4.3546 H   0  0  0  0  0  0  0  0  0  0  0  0
   -8.0262   -2.9977   -2.4220 H   0  0  0  0  0  0  0  0  0  0  0  0
   -7.3801   -2.5272   -4.6074 H   0  0  0  0  0  0  0  0  0  0  0  0
   -9.9037    2.4392   -5.7439 H   0  0  0  0  0  0  0  0  0  0  0  0
  -11.2772    1.3363   -6.0919 H   0  0  0  0  0  0  0  0  0  0  0  0
  -11.2562    3.2345   -7.6952 H   0  0  0  0  0  0  0  0  0  0  0  0
  -10.9250    1.6865   -8.5664 H   0  0  0  0  0  0  0  0  0  0  0  0
   -9.5684    2.8340   -8.1896 H   0  0  0  0  0  0  0  0  0  0  0  0
    1.1381   -5.9998   -7.7956 H   0  0  0  0  0  0  0  0  0  0  0  0
    2.1645   -5.1996   -6.5630 H   0  0  0  0  0  0  0  0  0  0  0  0
    0.8635   -6.3590   -4.7435 H   0  0  0  0  0  0  0  0  0  0  0  0
   -0.1289   -7.2010   -6.0114 H   0  0  0  0  0  0  0  0  0  0  0  0
    1.6407   -7.5262   -5.8784 H   0  0  0  0  0  0  0  0  0  0  0  0
   -1.6618   -0.9556   -8.3421 H   0  0  0  0  0  0  0  0  0  0  0  0
    0.2139    3.0813  -11.9378 H   0  0  0  0  0  0  0  0  0  0  0  0
    0.1236    4.6826  -11.1723 H   0  0  0  0  0  0  0  0  0  0  0  0
    2.6840    3.3077  -12.1899 H   0  0  0  0  0  0  0  0  0  0  0  0
    2.6547    4.8694  -11.2589 H   0  0  0  0  0  0  0  0  0  0  0  0
    1.8481    4.7447  -12.8650 H   0  0  0  0  0  0  0  0  0  0  0  0
    2.9200    2.2881  -10.0095 H   0  0  0  0  0  0  0  0  0  0  0  0
    1.9003    1.5091   -8.7807 H   0  0  0  0  0  0  0  0  0  0  0  0
    0.8632    0.0787  -10.3765 H   0  0  0  0  0  0  0  0  0  0  0  0
    1.2970    1.1325  -11.7910 H   0  0  0  0  0  0  0  0  0  0  0  0
    2.5548    0.1915  -10.9379 H   0  0  0  0  0  0  0  0  0  0  0  0
   -1.0748    1.1018  -10.5953 H   0  0  0  0  0  0  0  0  0  0  0  0
    2.9135    5.2840   -6.8365 H   0  0  0  0  0  0  0  0  0  0  0  0
    0.0539    4.7351   -2.9898 H   0  0  0  0  0  0  0  0  0  0  0  0
   -2.9905    1.1056   -0.8466 H   0  0  0  0  0  0  0  0  0  0  0  0
   -3.8667    2.1022    0.3676 H   0  0  0  0  0  0  0  0  0  0  0  0
   -1.6238    0.0812    1.0436 H   0  0  0  0  0  0  0  0  0  0  0  0
   -2.6422    0.9988    2.2267 H   0  0  0  0  0  0  0  0  0  0  0  0
   -3.3946   -0.2504    1.1664 H   0  0  0  0  0  0  0  0  0  0  0  0
   10.1519    5.5046   -3.2872 H   0  0  0  0  0  0  0  0  0  0  0  0
    9.2298    4.3876   -4.3503 H   0  0  0  0  0  0  0  0  0  0  0  0
    9.9238    6.4626   -5.5624 H   0  0  0  0  0  0  0  0  0  0  0  0
    8.1249    6.3187   -5.4802 H   0  0  0  0  0  0  0  0  0  0  0  0
    9.0012    7.4722   -4.3842 H   0  0  0  0  0  0  0  0  0  0  0  0
    6.0836    3.9428    0.6570 H   0  0  0  0  0  0  0  0  0  0  0  0
    3.5474    0.8217    3.1114 H   0  0  0  0  0  0  0  0  0  0  0  0
    1.1259   -3.1828    1.6783 H   0  0  0  0  0  0  0  0  0  0  0  0
    0.0317   -3.4006    3.0855 H   0  0  0  0  0  0  0  0  0  0  0  0
    2.4662   -5.1742    2.3782 H   0  0  0  0  0  0  0  0  0  0  0  0
    1.3944   -5.4047    3.8186 H   0  0  0  0  0  0  0  0  0  0  0  0
    0.7327   -5.6077    2.1494 H   0  0  0  0  0  0  0  0  0  0  0  0
   13.3525    1.0490    4.7375 H   0  0  0  0  0  0  0  0  0  0  0  0
   13.4063    2.4899    5.8141 H   0  0  0  0  0  0  0  0  0  0  0  0
   14.3108    2.9845    3.5345 H   0  0  0  0  0  0  0  0  0  0  0  0
   12.8445    3.9731    3.8802 H   0  0  0  0  0  0  0  0  0  0  0  0
   12.7309    2.5217    2.7948 H   0  0  0  0  0  0  0  0  0  0  0  0
    9.3584   -0.9705    6.8241 H   0  0  0  0  0  0  0  0  0  0  0  0
    8.3426   -3.1918    7.7307 H   0  0  0  0  0  0  0  0  0  0  0  0
  1  2  2  0
  2  3  1  0
  3  4  2  0
  4  5  1  0
  5  6  1  0
  6  7  1  0
  7  8  1  0
  8  9  1  0
  7 10  2  0
 10 11  1  0
 10 12  1  0
 12 13  1  0
  4 14  1  0
 14 15  2  0
 15 16  1  0
 16 17  1  0
 17 18  1  0
 18 19  1  0
 19 20  1  0
 20 21  1  0
 19 22  2  0
 22 23  1  0
 23 24  1  0
 22 25  1  0
 16 26  2  0
 26 27  1  0
 15 28  1  0
 28 29  2  0
 29 30  1  0
 29 31  1  0
 31 32  1  0
 32 33  1  0
 33 34  1  0
 34 35  2  0
 35 36  1  0
 36 37  1  0
 37 38  1  0
 38 39  1  0
 37 40  1  0
 40 41  1  0
 37 42  1  0
 42 43  1  0
 35 44  1  0
 44 45  2  0
 45 46  1  0
 45 47  1  0
 47 48  2  0
 48 49  1  0
 49 50  2  0
 50 51  1  0
 51 52  1  0
 52 53  1  0
 53 54  1  0
 54 55  1  0
 53 56  2  0
 56 57  1  0
 56 58  1  0
 58 59  1  0
 50 60  1  0
 60 61  2  0
 61 62  1  0
 62 63  1  0
 63 64  1  0
 64 65  1  0
 65 66  1  0
 66 67  1  0
 65 68  2  0
 68 69  1  0
 69 70  1  0
 68 71  1  0
 62 72  2  0
 72 73  1  0
 61 74  1  0
 74 75  2  0
 75 76  1  0
 75 77  1  0
 77 78  1  0
 78 79  1  0
 79 80  1  0
 80 81  2  0
 81 82  1  0
 82 83  1  0
 83 84  1  0
 84 85  1  0
 83 86  1  0
 86 87  1  0
 83 88  1  0
 88 89  1  0
 81 90  1  0
 90 91  2  0
 91 92  1  0
 91 93  1  0
 93 94  2  0
 94 95  1  0
 95 96  2  0
 96 97  1  0
 97 98  1  0
 98 99  1  0
 99100  1  0
100101  1  0
 99102  2  0
102103  1  0
102104  1  0
104105  1  0
 96106  1  0
106107  2  0
107108  1  0
108109  1  0
109110  1  0
110111  1  0
111112  1  0
112113  1  0
111114  2  0
114115  1  0
115116  1  0
114117  1  0
108118  2  0
118119  1  0
107120  1  0
120121  2  0
121122  1  0
121123  1  0
123124  2  0
124125  1  0
125126  2  0
126127  1  0
127128  1  0
128129  1  0
129130  1  0
130131  1  0
129132  2  0
132133  1  0
132134  1  0
134135  1  0
126136  1  0
136137  2  0
137138  1  0
138139  1  0
139140  1  0
140141  1  0
141142  1  0
142143  1  0
141144  2  0
144145  1  0
145146  1  0
144147  1  0
138148  2  0
148149  1  0
137150  1  0
150151  2  0
151152  1  0
 27  1  1  0
 43 31  2  0
 73 47  1  0
 89 77  2  0
119 93  1  0
149123  1  0
 26  3  1  0
 42 33  2  0
 72 49  1  0
 88 79  2  0
118 95  1  0
148125  1  0
 12  5  2  0
 30 14  1  0
 46 34  1  0
 58 51  2  0
 76 60  1  0
 92 80  1  0
104 97  2  0
122106  1  0
134127  2  0
152136  1  0
 23 17  2  0
 69 63  2  0
115109  2  0
145139  2  0
  1153  1  0
  2154  1  0
  8155  1  0
  8156  1  0
  9157  1  0
  9158  1  0
  9159  1  0
 20160  1  0
 20161  1  0
 21162  1  0
 21163  1  0
 21164  1  0
 28165  1  0
 38166  1  0
 38167  1  0
 39168  1  0
 39169  1  0
 39170  1  0
 40171  1  0
 40172  1  0
 41173  1  0
 41174  1  0
 41175  1  0
 43176  1  0
 44177  1  0
 48178  1  0
 54179  1  0
 54180  1  0
 55181  1  0
 55182  1  0
 55183  1  0
 66184  1  0
 66185  1  0
 67186  1  0
 67187  1  0
 67188  1  0
 74189  1  0
 84190  1  0
 84191  1  0
 85192  1  0
 85193  1  0
 85194  1  0
 86195  1  0
 86196  1  0
 87197  1  0
 87198  1  0
 87199  1  0
 89200  1  0
 90201  1  0
 94202  1  0
100203  1  0
100204  1  0
101205  1  0
101206  1  0
101207  1  0
112208  1  0
112209  1  0
113210  1  0
113211  1  0
113212  1  0
120213  1  0
124214  1  0
130215  1  0
130216  1  0
131217  1  0
131218  1  0
131219  1  0
142220  1  0
142221  1  0
143222  1  0
143223  1  0
143224  1  0
150225  1  0
151226  1  0
M  END

