
     RDKit          3D

146160  0  0  0  0  0  0  0  0999 V2000
    0.6234   -0.5850   13.8361 C   0  0  0  0  0  0  0  0  0  0  0  0
    0.1797    0.7425   13.7079 C   0  0  0  0  0  0  0  0  0  0  0  0
   -0.3707    1.2001   12.4931 C   0  0  0  0  0  0  0  0  0  0  0  0
   -0.4777    0.3356   11.3840 C   0  0  0  0  0  0  0  0  0  0  0  0
   -0.0503   -0.9901   11.5441 C   0  0  0  0  0  0  0  0  0  0  0  0
   -0.0408   -2.1299   10.6210 C   0  0  0  0  0  0  0  0  0  0  0  0
   -0.4367   -2.1159    9.4259 O   0  0  0  0  0  0  0  0  0  0  0  0
    0.5049   -3.2828   11.2681 N   0  0  0  0  0  0  0  0  0  0  0  0
    0.9812   -4.4992   10.6146 C   0  0  0  0  0  0  0  0  0  0  0  0
    2.3595   -4.2723   10.0058 C   0  0  0  0  0  0  0  0  0  0  0  0
    0.8577   -2.8295   12.5761 C   0  0  0  0  0  0  0  0  0  0  0  0
    1.4191   -3.5462   13.4471 O   0  0  0  0  0  0  0  0  0  0  0  0
    0.4903   -1.4290   12.7368 C   0  0  0  0  0  0  0  0  0  0  0  0
   -1.0150    0.8266   10.1032 C   0  0  0  0  0  0  0  0  0  0  0  0
   -2.3662    1.2066    9.9988 C   0  0  0  0  0  0  0  0  0  0  0  0
   -2.9004    1.6315    8.7673 C   0  0  0  0  0  0  0  0  0  0  0  0
   -2.0957    1.6907    7.6091 C   0  0  0  0  0  0  0  0  0  0  0  0
   -0.7338    1.3595    7.7459 C   0  0  0  0  0  0  0  0  0  0  0  0
    0.3883    1.4167    6.8008 C   0  0  0  0  0  0  0  0  0  0  0  0
    0.3383    1.8410    5.6134 O   0  0  0  0  0  0  0  0  0  0  0  0
    1.5985    1.0070    7.4373 N   0  0  0  0  0  0  0  0  0  0  0  0
    2.8306    0.5821    6.7770 C   0  0  0  0  0  0  0  0  0  0  0  0
    2.7386   -0.8856    6.3731 C   0  0  0  0  0  0  0  0  0  0  0  0
    1.2217    0.7086    8.7812 C   0  0  0  0  0  0  0  0  0  0  0  0
    2.0249    0.3038    9.6623 O   0  0  0  0  0  0  0  0  0  0  0  0
   -0.2146    0.9397    8.9617 C   0  0  0  0  0  0  0  0  0  0  0  0
   -2.7049    2.0409    6.3090 C   0  0  0  0  0  0  0  0  0  0  0  0
   -2.4531    1.2087    4.8639 S   0  0  0  0  0  0  0  0  0  0  0  0
   -3.5141    2.1478    3.9722 C   0  0  0  0  0  0  0  0  0  0  0  0
   -3.8561    2.0295    2.5779 C   0  0  0  0  0  0  0  0  0  0  0  0
   -4.8226    2.8390    2.0383 C   0  0  0  0  0  0  0  0  0  0  0  0
   -5.5251    3.7501    2.8389 O   0  0  0  0  0  0  0  0  0  0  0  0
   -5.1382    4.1052    4.1934 C   0  0  0  0  0  0  0  0  0  0  0  0
   -4.5203    5.5272    4.0881 C   0  0  0  0  0  0  0  0  0  0  0  0
   -4.0086    6.1514    5.3899 C   0  0  0  0  0  0  0  0  0  0  0  0
   -6.4289    4.1193    5.0550 C   0  0  0  0  0  0  0  0  0  0  0  0
   -7.1845    2.7855    5.0073 C   0  0  0  0  0  0  0  0  0  0  0  0
   -4.1157    3.1039    4.7716 C   0  0  0  0  0  0  0  0  0  0  0  0
   -3.6675    3.0310    6.1030 C   0  0  0  0  0  0  0  0  0  0  0  0
   -5.0184    2.6466    0.6686 C   0  0  0  0  0  0  0  0  0  0  0  0
   -4.1652    1.6665    0.1566 C   0  0  0  0  0  0  0  0  0  0  0  0
   -3.2011    1.0416    1.3973 S   0  0  0  0  0  0  0  0  0  0  0  0
   -4.0446    1.2604   -1.2492 C   0  0  0  0  0  0  0  0  0  0  0  0
   -4.1841   -0.0961   -1.5915 C   0  0  0  0  0  0  0  0  0  0  0  0
   -3.8699   -0.5478   -2.8850 C   0  0  0  0  0  0  0  0  0  0  0  0
   -3.3925    0.3458   -3.8670 C   0  0  0  0  0  0  0  0  0  0  0  0
   -3.3377    1.7103   -3.5314 C   0  0  0  0  0  0  0  0  0  0  0  0
   -2.8816    2.8763   -4.2959 C   0  0  0  0  0  0  0  0  0  0  0  0
   -2.6487    2.9021   -5.5323 O   0  0  0  0  0  0  0  0  0  0  0  0
   -2.8254    4.0260   -3.4550 N   0  0  0  0  0  0  0  0  0  0  0  0
   -2.6244    5.4118   -3.8712 C   0  0  0  0  0  0  0  0  0  0  0  0
   -3.9530    6.0476   -4.2587 C   0  0  0  0  0  0  0  0  0  0  0  0
   -3.3136    3.5796   -2.1908 C   0  0  0  0  0  0  0  0  0  0  0  0
   -3.4133    4.3211   -1.1785 O   0  0  0  0  0  0  0  0  0  0  0  0
   -3.6435    2.1527   -2.2522 C   0  0  0  0  0  0  0  0  0  0  0  0
   -2.7634   -0.1936   -5.0894 C   0  0  0  0  0  0  0  0  0  0  0  0
   -1.2010    0.2067   -5.5898 S   0  0  0  0  0  0  0  0  0  0  0  0
   -1.0433   -1.0703   -6.6612 C   0  0  0  0  0  0  0  0  0  0  0  0
    0.1493   -1.5149   -7.3474 C   0  0  0  0  0  0  0  0  0  0  0  0
    0.1683   -2.7565   -7.9299 C   0  0  0  0  0  0  0  0  0  0  0  0
   -0.9786   -3.5606   -7.9702 O   0  0  0  0  0  0  0  0  0  0  0  0
   -2.2538   -3.2032   -7.3769 C   0  0  0  0  0  0  0  0  0  0  0  0
   -2.6863   -4.3238   -6.3752 C   0  0  0  0  0  0  0  0  0  0  0  0
   -2.0477   -5.6937   -6.6363 C   0  0  0  0  0  0  0  0  0  0  0  0
   -3.2884   -3.0165   -8.5180 C   0  0  0  0  0  0  0  0  0  0  0  0
   -3.4556   -4.2389   -9.4223 C   0  0  0  0  0  0  0  0  0  0  0  0
   -2.1750   -1.8667   -6.6184 C   0  0  0  0  0  0  0  0  0  0  0  0
   -3.1545   -1.3635   -5.7453 C   0  0  0  0  0  0  0  0  0  0  0  0
    1.4213   -3.1283   -8.4161 C   0  0  0  0  0  0  0  0  0  0  0  0
    2.3866   -2.1451   -8.1938 C   0  0  0  0  0  0  0  0  0  0  0  0
    1.6806   -0.8281   -7.3970 S   0  0  0  0  0  0  0  0  0  0  0  0
    3.8139   -2.2650   -8.5118 C   0  0  0  0  0  0  0  0  0  0  0  0
    4.8815   -0.9699   -8.7018 S   0  0  0  0  0  0  0  0  0  0  0  0
    6.2249   -1.9399   -8.9626 C   0  0  0  0  0  0  0  0  0  0  0  0
    7.5916   -1.5471   -9.2366 C   0  0  0  0  0  0  0  0  0  0  0  0
    8.5246   -2.5098   -9.5271 C   0  0  0  0  0  0  0  0  0  0  0  0
    8.1851   -3.8713   -9.5072 O   0  0  0  0  0  0  0  0  0  0  0  0
    6.9566   -4.3776   -8.9231 C   0  0  0  0  0  0  0  0  0  0  0  0
    7.2119   -4.8197   -7.4439 C   0  0  0  0  0  0  0  0  0  0  0  0
    8.6776   -5.1390   -7.1214 C   0  0  0  0  0  0  0  0  0  0  0  0
    6.4562   -5.5585   -9.8008 C   0  0  0  0  0  0  0  0  0  0  0  0
    7.4541   -6.7124   -9.9295 C   0  0  0  0  0  0  0  0  0  0  0  0
    5.8784   -3.2807   -8.9055 C   0  0  0  0  0  0  0  0  0  0  0  0
    4.5123   -3.4654   -8.6342 C   0  0  0  0  0  0  0  0  0  0  0  0
    9.7768   -1.9956   -9.8624 C   0  0  0  0  0  0  0  0  0  0  0  0
    9.8093   -0.6011   -9.8229 C   0  0  0  0  0  0  0  0  0  0  0  0
    8.2782   -0.0259   -9.3839 S   0  0  0  0  0  0  0  0  0  0  0  0
    1.0512   -0.9403   14.7659 H   0  0  0  0  0  0  0  0  0  0  0  0
    0.2677    1.4211   14.5472 H   0  0  0  0  0  0  0  0  0  0  0  0
   -0.6922    2.2303   12.4133 H   0  0  0  0  0  0  0  0  0  0  0  0
    1.0336   -5.3246   11.3567 H   0  0  0  0  0  0  0  0  0  0  0  0
    0.2668   -4.7987    9.8160 H   0  0  0  0  0  0  0  0  0  0  0  0
    2.7205   -5.2114    9.5349 H   0  0  0  0  0  0  0  0  0  0  0  0
    2.3085   -3.4793    9.2286 H   0  0  0  0  0  0  0  0  0  0  0  0
    3.0815   -3.9661   10.7924 H   0  0  0  0  0  0  0  0  0  0  0  0
   -3.0157    1.1504   10.8644 H   0  0  0  0  0  0  0  0  0  0  0  0
   -3.9507    1.8825    8.7136 H   0  0  0  0  0  0  0  0  0  0  0  0
    3.6893    0.7248    7.4664 H   0  0  0  0  0  0  0  0  0  0  0  0
    3.0065    1.2081    5.8758 H   0  0  0  0  0  0  0  0  0  0  0  0
    2.5142   -1.5150    7.2593 H   0  0  0  0  0  0  0  0  0  0  0  0
    1.9394   -1.0272    5.6156 H   0  0  0  0  0  0  0  0  0  0  0  0
    3.7041   -1.2151    5.9386 H   0  0  0  0  0  0  0  0  0  0  0  0
   -3.6742    5.4955    3.3660 H   0  0  0  0  0  0  0  0  0  0  0  0
   -5.2804    6.2158    3.6540 H   0  0  0  0  0  0  0  0  0  0  0  0
   -3.7439    7.2160    5.1994 H   0  0  0  0  0  0  0  0  0  0  0  0
   -4.7806    6.1309    6.1837 H   0  0  0  0  0  0  0  0  0  0  0  0
   -3.0886    5.6393    5.7373 H   0  0  0  0  0  0  0  0  0  0  0  0
   -7.1123    4.9162    4.6872 H   0  0  0  0  0  0  0  0  0  0  0  0
   -6.1998    4.3472    6.1175 H   0  0  0  0  0  0  0  0  0  0  0  0
   -8.0802    2.8434    5.6621 H   0  0  0  0  0  0  0  0  0  0  0  0
   -7.5238    2.5615    3.9727 H   0  0  0  0  0  0  0  0  0  0  0  0
   -6.5432    1.9574    5.3722 H   0  0  0  0  0  0  0  0  0  0  0  0
   -4.0227    3.6792    6.8932 H   0  0  0  0  0  0  0  0  0  0  0  0
   -5.7355    3.2006    0.0773 H   0  0  0  0  0  0  0  0  0  0  0  0
   -4.4764   -0.8202   -0.8400 H   0  0  0  0  0  0  0  0  0  0  0  0
   -3.9121   -1.6108   -3.0850 H   0  0  0  0  0  0  0  0  0  0  0  0
   -2.1659    5.9864   -3.0397 H   0  0  0  0  0  0  0  0  0  0  0  0
   -1.9297    5.4457   -4.7350 H   0  0  0  0  0  0  0  0  0  0  0  0
   -3.7865    7.1000   -4.5678 H   0  0  0  0  0  0  0  0  0  0  0  0
   -4.6484    6.0335   -3.3938 H   0  0  0  0  0  0  0  0  0  0  0  0
   -4.4091    5.4928   -5.1056 H   0  0  0  0  0  0  0  0  0  0  0  0
   -2.3972   -4.0439   -5.3369 H   0  0  0  0  0  0  0  0  0  0  0  0
   -3.7921   -4.4367   -6.3713 H   0  0  0  0  0  0  0  0  0  0  0  0
   -2.1914   -6.0205   -7.6851 H   0  0  0  0  0  0  0  0  0  0  0  0
   -2.5068   -6.4484   -5.9627 H   0  0  0  0  0  0  0  0  0  0  0  0
   -0.9594   -5.6544   -6.4165 H   0  0  0  0  0  0  0  0  0  0  0  0
   -4.2823   -2.7540   -8.0948 H   0  0  0  0  0  0  0  0  0  0  0  0
   -2.9634   -2.1660   -9.1568 H   0  0  0  0  0  0  0  0  0  0  0  0
   -2.4752   -4.5746   -9.8187 H   0  0  0  0  0  0  0  0  0  0  0  0
   -4.1010   -3.9710  -10.2872 H   0  0  0  0  0  0  0  0  0  0  0  0
   -3.9493   -5.0671   -8.8741 H   0  0  0  0  0  0  0  0  0  0  0  0
   -4.0844   -1.8772   -5.5401 H   0  0  0  0  0  0  0  0  0  0  0  0
    1.6168   -4.0791   -8.8906 H   0  0  0  0  0  0  0  0  0  0  0  0
    6.9073   -4.0123   -6.7404 H   0  0  0  0  0  0  0  0  0  0  0  0
    6.5867   -5.7036   -7.1920 H   0  0  0  0  0  0  0  0  0  0  0  0
    9.2990   -4.2204   -7.1982 H   0  0  0  0  0  0  0  0  0  0  0  0
    9.0858   -5.9153   -7.8001 H   0  0  0  0  0  0  0  0  0  0  0  0
    8.7503   -5.5107   -6.0767 H   0  0  0  0  0  0  0  0  0  0  0  0
    6.2393   -5.1761  -10.8231 H   0  0  0  0  0  0  0  0  0  0  0  0
    5.5117   -5.9766   -9.3927 H   0  0  0  0  0  0  0  0  0  0  0  0
    7.5630   -7.2405   -8.9606 H   0  0  0  0  0  0  0  0  0  0  0  0
    8.4414   -6.3451  -10.2770 H   0  0  0  0  0  0  0  0  0  0  0  0
    7.0710   -7.4458  -10.6708 H   0  0  0  0  0  0  0  0  0  0  0  0
    4.0585   -4.4353   -8.4842 H   0  0  0  0  0  0  0  0  0  0  0  0
   10.6264   -2.6087  -10.1295 H   0  0  0  0  0  0  0  0  0  0  0  0
   10.6717    0.0117  -10.0518 H   0  0  0  0  0  0  0  0  0  0  0  0
  1  2  2  0
  2  3  1  0
  3  4  2  0
  4  5  1  0
  5  6  1  0
  6  7  2  0
  6  8  1  0
  8  9  1  0
  9 10  1  0
  8 11  1  0
 11 12  2  0
 11 13  1  0
  4 14  1  0
 14 15  2  0
 15 16  1  0
 16 17  2  0
 17 18  1  0
 18 19  1  0
 19 20  2  0
 19 21  1  0
 21 22  1  0
 22 23  1  0
 21 24  1  0
 24 25  2  0
 24 26  1  0
 17 27  1  0
 27 28  1  0
 28 29  1  0
 29 30  1  0
 30 31  2  0
 31 32  1  0
 32 33  1  0
 33 34  1  0
 34 35  1  0
 33 36  1  0
 36 37  1  0
 33 38  1  0
 38 39  1  0
 31 40  1  0
 40 41  2  0
 41 42  1  0
 41 43  1  0
 43 44  2  0
 44 45  1  0
 45 46  2  0
 46 47  1  0
 47 48  1  0
 48 49  2  0
 48 50  1  0
 50 51  1  0
 51 52  1  0
 50 53  1  0
 53 54  2  0
 53 55  1  0
 46 56  1  0
 56 57  1  0
 57 58  1  0
 58 59  1  0
 59 60  2  0
 60 61  1  0
 61 62  1  0
 62 63  1  0
 63 64  1  0
 62 65  1  0
 65 66  1  0
 62 67  1  0
 67 68  1  0
 60 69  1  0
 69 70  2  0
 70 71  1  0
 70 72  1  0
 72 73  1  0
 73 74  1  0
 74 75  1  0
 75 76  2  0
 76 77  1  0
 77 78  1  0
 78 79  1  0
 79 80  1  0
 78 81  1  0
 81 82  1  0
 78 83  1  0
 83 84  1  0
 76 85  1  0
 85 86  2  0
 86 87  1  0
 13  1  1  0
 26 14  1  0
 39 27  2  0
 55 43  1  0
 68 56  2  0
 84 72  2  0
 13  5  2  0
 26 18  2  0
 38 29  2  0
 55 47  2  0
 67 58  2  0
 83 74  2  0
 42 30  1  0
 71 59  1  0
 87 75  1  0
  1 88  1  0
  2 89  1  0
  3 90  1  0
  9 91  1  0
  9 92  1  0
 10 93  1  0
 10 94  1  0
 10 95  1  0
 15 96  1  0
 16 97  1  0
 22 98  1  0
 22 99  1  0
 23100  1  0
 23101  1  0
 23102  1  0
 34103  1  0
 34104  1  0
 35105  1  0
 35106  1  0
 35107  1  0
 36108  1  0
 36109  1  0
 37110  1  0
 37111  1  0
 37112  1  0
 39113  1  0
 40114  1  0
 44115  1  0
 45116  1  0
 51117  1  0
 51118  1  0
 52119  1  0
 52120  1  0
 52121  1  0
 63122  1  0
 63123  1  0
 64124  1  0
 64125  1  0
 64126  1  0
 65127  1  0
 65128  1  0
 66129  1  0
 66130  1  0
 66131  1  0
 68132  1  0
 69133  1  0
 79134  1  0
 79135  1  0
 80136  1  0
 80137  1  0
 80138  1  0
 81139  1  0
 81140  1  0
 82141  1  0
 82142  1  0
 82143  1  0
 84144  1  0
 85145  1  0
 86146  1  0
M  END

