
     RDKit          3D

125137  0  0  0  0  0  0  0  0999 V2000
   10.7738    6.7421    1.3660 C   0  0  0  0  0  0  0  0  0  0  0  0
    9.2665    6.8217    2.0943 S   0  0  0  0  0  0  0  0  0  0  0  0
    8.5847    5.4724    1.3476 C   0  0  0  0  0  0  0  0  0  0  0  0
    9.5566    4.9269    0.4895 C   0  0  0  0  0  0  0  0  0  0  0  0
   10.7759    5.6446    0.5165 C   0  0  0  0  0  0  0  0  0  0  0  0
   11.9286    5.3447   -0.4021 C   0  0  0  0  0  0  0  0  0  0  0  0
   11.8436    3.9316   -0.9839 C   0  0  0  0  0  0  0  0  0  0  0  0
   10.4293    3.6536   -1.5076 C   0  0  0  0  0  0  0  0  0  0  0  0
    9.3861    3.6872   -0.3686 C   0  0  1  0  0  0  0  0  0  0  0  0
    9.5045    2.4499    0.4893 C   0  0  0  0  0  0  0  0  0  0  0  0
    9.3775    1.3376   -0.0041 O   0  0  0  0  0  0  0  0  0  0  0  0
    7.1892    5.0344    1.5877 C   0  0  0  0  0  0  0  0  0  0  0  0
    6.5233    3.5227    1.2279 S   0  0  0  0  0  0  0  0  0  0  0  0
    4.9981    3.8839    1.8106 C   0  0  0  0  0  0  0  0  0  0  0  0
    3.8125    3.0543    1.8252 C   0  0  0  0  0  0  0  0  0  0  0  0
    2.6186    3.5848    2.2428 C   0  0  0  0  0  0  0  0  0  0  0  0
    2.5259    4.9146    2.6783 O   0  0  0  0  0  0  0  0  0  0  0  0
    3.6780    5.7721    2.8996 C   0  0  0  0  0  0  0  0  0  0  0  0
    3.3709    7.1564    2.2705 C   0  0  0  0  0  0  0  0  0  0  0  0
    3.2076    7.0967    0.7477 C   0  0  0  0  0  0  0  0  0  0  0  0
    3.9021    5.8983    4.4272 C   0  0  0  0  0  0  0  0  0  0  0  0
    2.6647    6.3553    5.2098 C   0  0  0  0  0  0  0  0  0  0  0  0
    4.9579    5.1806    2.2849 C   0  0  0  0  0  0  0  0  0  0  0  0
    6.2023    5.8225    2.1871 C   0  0  0  0  0  0  0  0  0  0  0  0
    1.5503    2.6903    2.1674 C   0  0  0  0  0  0  0  0  0  0  0  0
    1.9413    1.4334    1.7012 C   0  0  0  0  0  0  0  0  0  0  0  0
    3.5990    1.4609    1.3455 S   0  0  0  0  0  0  0  0  0  0  0  0
    1.0235    0.3047    1.4815 C   0  0  0  0  0  0  0  0  0  0  0  0
   -0.5636    0.4977    0.9640 S   0  0  0  0  0  0  0  0  0  0  0  0
   -0.9881   -1.1206    1.0324 C   0  0  0  0  0  0  0  0  0  0  0  0
    0.1034   -1.8566    1.5116 C   0  0  0  0  0  0  0  0  0  0  0  0
    1.2521   -1.0582    1.7187 C   0  0  0  0  0  0  0  0  0  0  0  0
    2.5144   -1.6177    2.3233 C   0  0  0  0  0  0  0  0  0  0  0  0
    2.5900   -3.1427    2.1872 C   0  0  0  0  0  0  0  0  0  0  0  0
    1.2837   -3.7912    2.6462 C   0  0  0  0  0  0  0  0  0  0  0  0
    0.0936   -3.3544    1.7667 C   0  0  1  0  0  0  0  0  0  0  0  0
   -1.1747   -3.7833    2.4588 C   0  0  0  0  0  0  0  0  0  0  0  0
   -1.8188   -4.7266    2.0406 O   0  0  0  0  0  0  0  0  0  0  0  0
   -2.2904   -1.6367    0.6000 C   0  0  0  0  0  0  0  0  0  0  0  0
   -2.5095   -2.7512   -0.6363 S   0  0  0  0  0  0  0  0  0  0  0  0
   -4.1788   -2.8869   -0.4655 C   0  0  0  0  0  0  0  0  0  0  0  0
   -4.5994   -2.0439    0.5742 C   0  0  0  0  0  0  0  0  0  0  0  0
   -3.5328   -1.3461    1.1588 C   0  0  0  0  0  0  0  0  0  0  0  0
   -3.7660   -0.5258    2.3933 C   0  0  0  0  0  0  0  0  0  0  0  0
   -5.0655    0.2785    2.2388 C   0  0  0  0  0  0  0  0  0  0  0  0
   -6.2764   -0.5502    1.7244 C   0  0  0  0  0  0  0  0  0  0  0  0
   -5.9441   -1.9991    1.2744 C   0  0  1  0  0  0  0  0  0  0  0  0
   -7.0847   -2.5519    0.4637 C   0  0  0  0  0  0  0  0  0  0  0  0
   -7.5220   -3.6682    0.6928 O   0  0  0  0  0  0  0  0  0  0  0  0
   -4.9911   -3.7749   -1.3023 C   0  0  0  0  0  0  0  0  0  0  0  0
   -6.0055   -3.2694   -2.5432 S   0  0  0  0  0  0  0  0  0  0  0  0
   -6.4818   -4.8028   -3.0530 C   0  0  0  0  0  0  0  0  0  0  0  0
   -5.8310   -5.7420   -2.2400 C   0  0  0  0  0  0  0  0  0  0  0  0
   -4.9822   -5.1665   -1.2834 C   0  0  0  0  0  0  0  0  0  0  0  0
   -4.2892   -6.0096   -0.2524 C   0  0  0  0  0  0  0  0  0  0  0  0
   -3.8829   -7.4088   -0.7783 C   0  0  0  0  0  0  0  0  0  0  0  0
   -4.5421   -7.8494   -2.1095 C   0  0  0  0  0  0  0  0  0  0  0  0
   -5.9334   -7.2381   -2.3530 C   0  0  1  0  0  0  0  0  0  0  0  0
   -6.9406   -7.7809   -1.3745 C   0  0  0  0  0  0  0  0  0  0  0  0
   -7.3623   -8.9206   -1.4942 O   0  0  0  0  0  0  0  0  0  0  0  0
   -7.5513   -5.0634   -4.0377 C   0  0  0  0  0  0  0  0  0  0  0  0
   -8.7994   -6.1669   -3.7934 S   0  0  0  0  0  0  0  0  0  0  0  0
   -9.6571   -5.8296   -5.1912 C   0  0  0  0  0  0  0  0  0  0  0  0
   -8.9729   -4.8384   -5.8910 C   0  0  0  0  0  0  0  0  0  0  0  0
   -7.8093   -4.3770   -5.2340 C   0  0  0  0  0  0  0  0  0  0  0  0
   -6.8894   -3.3668   -5.8742 C   0  0  0  0  0  0  0  0  0  0  0  0
   -7.6283   -2.5013   -6.9032 C   0  0  0  0  0  0  0  0  0  0  0  0
   -8.4258   -3.3737   -7.8782 C   0  0  0  0  0  0  0  0  0  0  0  0
   -9.5194   -4.1674   -7.1336 C   0  0  1  0  0  0  0  0  0  0  0  0
  -10.1875   -5.1528   -8.0579 C   0  0  0  0  0  0  0  0  0  0  0  0
   -9.5261   -5.9191   -8.7476 O   0  0  0  0  0  0  0  0  0  0  0  0
   11.5897    7.4398    1.5101 H   0  0  0  0  0  0  0  0  0  0  0  0
   12.8907    5.4670    0.1400 H   0  0  0  0  0  0  0  0  0  0  0  0
   11.9145    6.0858   -1.2318 H   0  0  0  0  0  0  0  0  0  0  0  0
   12.5745    3.8315   -1.8148 H   0  0  0  0  0  0  0  0  0  0  0  0
   12.1134    3.1877   -0.2018 H   0  0  0  0  0  0  0  0  0  0  0  0
   10.1671    4.4190   -2.2712 H   0  0  0  0  0  0  0  0  0  0  0  0
   10.4111    2.6683   -2.0246 H   0  0  0  0  0  0  0  0  0  0  0  0
    8.3817    3.7037   -0.8441 H   0  0  0  0  0  0  0  0  0  0  0  0
    9.7029    2.5314    1.5539 H   0  0  0  0  0  0  0  0  0  0  0  0
    4.1758    7.8827    2.5186 H   0  0  0  0  0  0  0  0  0  0  0  0
    2.4198    7.5534    2.6876 H   0  0  0  0  0  0  0  0  0  0  0  0
    4.1650    6.8189    0.2581 H   0  0  0  0  0  0  0  0  0  0  0  0
    2.4261    6.3606    0.4636 H   0  0  0  0  0  0  0  0  0  0  0  0
    2.9037    8.0957    0.3694 H   0  0  0  0  0  0  0  0  0  0  0  0
    4.2078    4.9056    4.8260 H   0  0  0  0  0  0  0  0  0  0  0  0
    4.7353    6.6052    4.6306 H   0  0  0  0  0  0  0  0  0  0  0  0
    2.8778    6.2836    6.2987 H   0  0  0  0  0  0  0  0  0  0  0  0
    2.4154    7.4086    4.9770 H   0  0  0  0  0  0  0  0  0  0  0  0
    1.7923    5.7071    4.9819 H   0  0  0  0  0  0  0  0  0  0  0  0
    6.3726    6.8330    2.5318 H   0  0  0  0  0  0  0  0  0  0  0  0
    0.5370    2.9476    2.4504 H   0  0  0  0  0  0  0  0  0  0  0  0
    2.5460   -1.3444    3.4011 H   0  0  0  0  0  0  0  0  0  0  0  0
    3.4099   -1.1894    1.8381 H   0  0  0  0  0  0  0  0  0  0  0  0
    2.8126   -3.4336    1.1327 H   0  0  0  0  0  0  0  0  0  0  0  0
    3.4221   -3.5116    2.8320 H   0  0  0  0  0  0  0  0  0  0  0  0
    1.3900   -4.8979    2.5964 H   0  0  0  0  0  0  0  0  0  0  0  0
    1.1017   -3.5203    3.7103 H   0  0  0  0  0  0  0  0  0  0  0  0
    0.1794   -3.8649    0.7794 H   0  0  0  0  0  0  0  0  0  0  0  0
   -1.5108   -3.2659    3.3491 H   0  0  0  0  0  0  0  0  0  0  0  0
   -2.9220    0.1711    2.5859 H   0  0  0  0  0  0  0  0  0  0  0  0
   -3.8549   -1.2073    3.2673 H   0  0  0  0  0  0  0  0  0  0  0  0
   -4.8655    1.1086    1.5218 H   0  0  0  0  0  0  0  0  0  0  0  0
   -5.3165    0.7485    3.2126 H   0  0  0  0  0  0  0  0  0  0  0  0
   -7.0468   -0.5960    2.5261 H   0  0  0  0  0  0  0  0  0  0  0  0
   -6.7309    0.0099    0.8770 H   0  0  0  0  0  0  0  0  0  0  0  0
   -5.8391   -2.6142    2.1995 H   0  0  0  0  0  0  0  0  0  0  0  0
   -7.5159   -1.9682   -0.3441 H   0  0  0  0  0  0  0  0  0  0  0  0
   -3.3839   -5.4903    0.1249 H   0  0  0  0  0  0  0  0  0  0  0  0
   -4.9833   -6.1346    0.6055 H   0  0  0  0  0  0  0  0  0  0  0  0
   -4.0963   -8.1704    0.0098 H   0  0  0  0  0  0  0  0  0  0  0  0
   -2.7767   -7.4253   -0.9244 H   0  0  0  0  0  0  0  0  0  0  0  0
   -3.8785   -7.5393   -2.9478 H   0  0  0  0  0  0  0  0  0  0  0  0
   -4.5972   -8.9609   -2.1496 H   0  0  0  0  0  0  0  0  0  0  0  0
   -6.2504   -7.5074   -3.3819 H   0  0  0  0  0  0  0  0  0  0  0  0
   -7.2999   -7.1683   -0.5513 H   0  0  0  0  0  0  0  0  0  0  0  0
  -10.5979   -6.2799   -5.4729 H   0  0  0  0  0  0  0  0  0  0  0  0
   -6.4369   -2.6912   -5.1237 H   0  0  0  0  0  0  0  0  0  0  0  0
   -6.0620   -3.9134   -6.3791 H   0  0  0  0  0  0  0  0  0  0  0  0
   -6.8922   -1.8970   -7.4744 H   0  0  0  0  0  0  0  0  0  0  0  0
   -8.3130   -1.7942   -6.3814 H   0  0  0  0  0  0  0  0  0  0  0  0
   -7.7255   -4.0642   -8.3989 H   0  0  0  0  0  0  0  0  0  0  0  0
   -8.8991   -2.7214   -8.6441 H   0  0  0  0  0  0  0  0  0  0  0  0
  -10.2965   -3.4460   -6.7913 H   0  0  0  0  0  0  0  0  0  0  0  0
  -11.2727   -5.1896   -8.1099 H   0  0  0  0  0  0  0  0  0  0  0  0
  1  2  1  0
  2  3  1  0
  3  4  2  0
  4  5  1  0
  5  6  1  0
  6  7  1  0
  7  8  1  0
  8  9  1  0
  9 10  1  0
 10 11  2  0
  3 12  1  0
 12 13  1  0
 13 14  1  0
 14 15  1  0
 15 16  2  0
 16 17  1  0
 17 18  1  0
 18 19  1  0
 19 20  1  0
 18 21  1  0
 21 22  1  0
 18 23  1  0
 23 24  1  0
 16 25  1  0
 25 26  2  0
 26 27  1  0
 26 28  1  0
 28 29  1  0
 29 30  1  0
 30 31  2  0
 31 32  1  0
 32 33  1  0
 33 34  1  0
 34 35  1  0
 35 36  1  0
 36 37  1  0
 37 38  2  0
 30 39  1  0
 39 40  1  0
 40 41  1  0
 41 42  2  0
 42 43  1  0
 43 44  1  0
 44 45  1  0
 45 46  1  0
 46 47  1  0
 47 48  1  0
 48 49  2  0
 41 50  1  0
 50 51  1  0
 51 52  1  0
 52 53  2  0
 53 54  1  0
 54 55  1  0
 55 56  1  0
 56 57  1  0
 57 58  1  0
 58 59  1  0
 59 60  2  0
 52 61  1  0
 61 62  1  0
 62 63  1  0
 63 64  2  0
 64 65  1  0
 65 66  1  0
 66 67  1  0
 67 68  1  0
 68 69  1  0
 69 70  1  0
 70 71  2  0
  5  1  2  0
 24 12  2  0
 32 28  2  0
 43 39  2  0
 54 50  2  0
 65 61  2  0
  9  4  1  0
 23 14  2  0
 36 31  1  0
 47 42  1  0
 58 53  1  0
 69 64  1  0
 27 15  1  0
  1 72  1  0
  6 73  1  0
  6 74  1  0
  7 75  1  0
  7 76  1  0
  8 77  1  0
  8 78  1  0
  9 79  1  6
 10 80  1  0
 19 81  1  0
 19 82  1  0
 20 83  1  0
 20 84  1  0
 20 85  1  0
 21 86  1  0
 21 87  1  0
 22 88  1  0
 22 89  1  0
 22 90  1  0
 24 91  1  0
 25 92  1  0
 33 93  1  0
 33 94  1  0
 34 95  1  0
 34 96  1  0
 35 97  1  0
 35 98  1  0
 36 99  1  6
 37100  1  0
 44101  1  0
 44102  1  0
 45103  1  0
 45104  1  0
 46105  1  0
 46106  1  0
 47107  1  1
 48108  1  0
 55109  1  0
 55110  1  0
 56111  1  0
 56112  1  0
 57113  1  0
 57114  1  0
 58115  1  6
 59116  1  0
 63117  1  0
 66118  1  0
 66119  1  0
 67120  1  0
 67121  1  0
 68122  1  0
 68123  1  0
 69124  1  1
 70125  1  0
M  END

