
     RDKit          3D

170187  0  0  0  0  0  0  0  0999 V2000
   -4.0413    4.9014   11.0121 C   0  0  0  0  0  0  0  0  0  0  0  0
   -2.7069    4.8609   10.5856 C   0  0  0  0  0  0  0  0  0  0  0  0
   -1.7025    5.7643   10.9525 C   0  0  0  0  0  0  0  0  0  0  0  0
   -0.4746    5.4619   10.3656 C   0  0  0  0  0  0  0  0  0  0  0  0
    0.7758    6.2772   10.4976 C   0  0  0  0  0  0  0  0  0  0  0  0
    0.7748    7.4309    9.5006 C   0  0  0  0  0  0  0  0  0  0  0  0
   -0.6370    4.1002    9.3772 S   0  0  0  0  0  0  0  0  0  0  0  0
   -2.2699    3.8647    9.7080 C   0  0  0  0  0  0  0  0  0  0  0  0
   -3.1269    2.8658    9.2184 C   0  0  0  0  0  0  0  0  0  0  0  0
   -4.4686    2.9095    9.6470 C   0  0  0  0  0  0  0  0  0  0  0  0
   -4.8975    3.9091   10.5247 C   0  0  0  0  0  0  0  0  0  0  0  0
   -6.5312    3.7100   10.8508 S   0  0  0  0  0  0  0  0  0  0  0  0
   -6.7146    2.3499    9.8630 C   0  0  0  0  0  0  0  0  0  0  0  0
   -7.9812    1.5645    9.7191 C   0  0  0  0  0  0  0  0  0  0  0  0
   -8.1034    0.5331   10.8345 C   0  0  0  0  0  0  0  0  0  0  0  0
   -5.4919    2.0231    9.2788 C   0  0  0  0  0  0  0  0  0  0  0  0
   -2.6392    1.8306    8.2827 C   0  0  0  0  0  0  0  0  0  0  0  0
   -2.3891    2.1180    6.9305 C   0  0  0  0  0  0  0  0  0  0  0  0
   -2.5723    3.3639    6.3074 C   0  0  0  0  0  0  0  0  0  0  0  0
   -2.2236    3.3508    4.9604 C   0  0  0  0  0  0  0  0  0  0  0  0
   -2.4015    4.4891    4.0006 C   0  0  0  0  0  0  0  0  0  0  0  0
   -3.8376    4.5372    3.4876 C   0  0  0  0  0  0  0  0  0  0  0  0
   -1.7085    1.8034    4.5355 S   0  0  0  0  0  0  0  0  0  0  0  0
   -1.9181    1.1219    6.0647 C   0  0  0  0  0  0  0  0  0  0  0  0
   -1.6735   -0.2035    6.4901 C   0  0  0  0  0  0  0  0  0  0  0  0
   -1.9535   -0.4914    7.8489 C   0  0  0  0  0  0  0  0  0  0  0  0
   -2.4152    0.5136    8.7088 C   0  0  0  0  0  0  0  0  0  0  0  0
   -2.6450   -0.1238   10.2502 S   0  0  0  0  0  0  0  0  0  0  0  0
   -2.1741   -1.6902    9.8394 C   0  0  0  0  0  0  0  0  0  0  0  0
   -2.1918   -2.8610   10.7719 C   0  0  0  0  0  0  0  0  0  0  0  0
   -3.5660   -3.5194   10.7844 C   0  0  0  0  0  0  0  0  0  0  0  0
   -1.8529   -1.7420    8.4844 C   0  0  0  0  0  0  0  0  0  0  0  0
   -1.1051   -1.2180    5.5700 C   0  0  0  0  0  0  0  0  0  0  0  0
   -1.5218   -1.4108    3.9457 S   0  0  0  0  0  0  0  0  0  0  0  0
   -0.3759   -2.5896    3.6330 C   0  0  0  0  0  0  0  0  0  0  0  0
   -0.0021   -3.1538    2.3617 C   0  0  0  0  0  0  0  0  0  0  0  0
    1.0895   -3.9785    2.2790 C   0  0  0  0  0  0  0  0  0  0  0  0
    1.7914   -4.3715    3.4289 O   0  0  0  0  0  0  0  0  0  0  0  0
    1.4886   -3.9105    4.7744 C   0  0  0  0  0  0  0  0  0  0  0  0
    2.7617   -3.2300    5.3562 C   0  0  0  0  0  0  0  0  0  0  0  0
    4.0297   -4.0787    5.3153 C   0  0  0  0  0  0  0  0  0  0  0  0
    1.0136   -5.1163    5.6449 C   0  0  0  0  0  0  0  0  0  0  0  0
    1.5775   -6.4750    5.2189 C   0  0  0  0  0  0  0  0  0  0  0  0
    0.3606   -2.8617    4.7706 C   0  0  0  0  0  0  0  0  0  0  0  0
   -0.0559   -2.0909    5.8705 C   0  0  0  0  0  0  0  0  0  0  0  0
    1.4657   -4.2832    0.9684 C   0  0  0  0  0  0  0  0  0  0  0  0
    0.6864   -3.6105    0.0204 C   0  0  0  0  0  0  0  0  0  0  0  0
   -0.4853   -2.6925    0.8243 S   0  0  0  0  0  0  0  0  0  0  0  0
    0.9814   -3.4660   -1.4206 C   0  0  0  0  0  0  0  0  0  0  0  0
    2.2552   -3.0612   -1.8912 C   0  0  0  0  0  0  0  0  0  0  0  0
    3.4091   -2.8320   -1.1202 C   0  0  0  0  0  0  0  0  0  0  0  0
    4.4896   -2.3800   -1.8742 C   0  0  0  0  0  0  0  0  0  0  0  0
    5.8694   -2.1259   -1.3494 C   0  0  0  0  0  0  0  0  0  0  0  0
    6.7039   -3.4009   -1.3922 C   0  0  0  0  0  0  0  0  0  0  0  0
    4.0340   -2.2456   -3.4913 S   0  0  0  0  0  0  0  0  0  0  0  0
    2.4498   -2.7601   -3.2439 C   0  0  0  0  0  0  0  0  0  0  0  0
    1.4144   -2.8170   -4.1861 C   0  0  0  0  0  0  0  0  0  0  0  0
    0.1519   -3.2311   -3.7294 C   0  0  0  0  0  0  0  0  0  0  0  0
   -0.0464   -3.5508   -2.3805 C   0  0  0  0  0  0  0  0  0  0  0  0
   -1.6657   -3.9558   -2.1519 S   0  0  0  0  0  0  0  0  0  0  0  0
   -2.1220   -3.7361   -3.7624 C   0  0  0  0  0  0  0  0  0  0  0  0
   -3.5246   -3.8476   -4.2790 C   0  0  0  0  0  0  0  0  0  0  0  0
   -4.2596   -2.5189   -4.1347 C   0  0  0  0  0  0  0  0  0  0  0  0
   -1.0167   -3.3207   -4.5026 C   0  0  0  0  0  0  0  0  0  0  0  0
    1.5990   -2.2672   -5.5406 C   0  0  0  0  0  0  0  0  0  0  0  0
    1.3992   -0.8986   -5.7983 C   0  0  0  0  0  0  0  0  0  0  0  0
    1.0641    0.0823   -4.8511 C   0  0  0  0  0  0  0  0  0  0  0  0
    0.9419    1.3507   -5.4117 C   0  0  0  0  0  0  0  0  0  0  0  0
    0.6775    2.6139   -4.6531 C   0  0  0  0  0  0  0  0  0  0  0  0
    1.9767    3.1920   -4.1009 C   0  0  0  0  0  0  0  0  0  0  0  0
    1.2705    1.2706   -7.0624 S   0  0  0  0  0  0  0  0  0  0  0  0
    1.5378   -0.3927   -7.0934 C   0  0  0  0  0  0  0  0  0  0  0  0
    1.8863   -1.2032   -8.1906 C   0  0  0  0  0  0  0  0  0  0  0  0
    2.1011   -2.5731   -7.9272 C   0  0  0  0  0  0  0  0  0  0  0  0
    1.9555   -3.0771   -6.6282 C   0  0  0  0  0  0  0  0  0  0  0  0
    2.2596   -4.7312   -6.6289 S   0  0  0  0  0  0  0  0  0  0  0  0
    2.5562   -4.8295   -8.2870 C   0  0  0  0  0  0  0  0  0  0  0  0
    2.9680   -6.0748   -9.0101 C   0  0  0  0  0  0  0  0  0  0  0  0
    4.4876   -6.1843   -9.0609 C   0  0  0  0  0  0  0  0  0  0  0  0
    2.4342   -3.5664   -8.8631 C   0  0  0  0  0  0  0  0  0  0  0  0
    1.9707   -0.6338   -9.5485 C   0  0  0  0  0  0  0  0  0  0  0  0
    3.3187   -0.7084  -10.5669 S   0  0  0  0  0  0  0  0  0  0  0  0
    2.6200    0.2205  -11.7787 C   0  0  0  0  0  0  0  0  0  0  0  0
    3.1750    0.6339  -13.0491 C   0  0  0  0  0  0  0  0  0  0  0  0
    2.4024    1.3516  -13.9287 C   0  0  0  0  0  0  0  0  0  0  0  0
    1.0782    1.6970  -13.6233 O   0  0  0  0  0  0  0  0  0  0  0  0
    0.4743    1.5006  -12.3186 C   0  0  0  0  0  0  0  0  0  0  0  0
    0.3627    2.8828  -11.6234 C   0  0  0  0  0  0  0  0  0  0  0  0
   -0.4238    3.9234  -12.4253 C   0  0  0  0  0  0  0  0  0  0  0  0
   -0.9276    0.8671  -12.5234 C   0  0  0  0  0  0  0  0  0  0  0  0
   -0.8674   -0.5555  -13.0895 C   0  0  0  0  0  0  0  0  0  0  0  0
    1.3365    0.5998  -11.4216 C   0  0  0  0  0  0  0  0  0  0  0  0
    0.9733    0.1273  -10.1532 C   0  0  0  0  0  0  0  0  0  0  0  0
    3.0549    1.6586  -15.1245 C   0  0  0  0  0  0  0  0  0  0  0  0
    4.3603    1.1664  -15.1643 C   0  0  0  0  0  0  0  0  0  0  0  0
    4.6868    0.3471  -13.7205 S   0  0  0  0  0  0  0  0  0  0  0  0
   -4.3972    5.6696   11.6885 H   0  0  0  0  0  0  0  0  0  0  0  0
   -1.8624    6.6085   11.6115 H   0  0  0  0  0  0  0  0  0  0  0  0
    1.6590    5.6301   10.3116 H   0  0  0  0  0  0  0  0  0  0  0  0
    0.8537    6.6797   11.5297 H   0  0  0  0  0  0  0  0  0  0  0  0
    0.6820    7.0447    8.4632 H   0  0  0  0  0  0  0  0  0  0  0  0
   -0.0723    8.1177    9.7118 H   0  0  0  0  0  0  0  0  0  0  0  0
    1.7221    8.0015    9.5882 H   0  0  0  0  0  0  0  0  0  0  0  0
   -7.9930    1.0468    8.7362 H   0  0  0  0  0  0  0  0  0  0  0  0
   -8.8516    2.2563    9.7561 H   0  0  0  0  0  0  0  0  0  0  0  0
   -8.0787    1.0318   11.8279 H   0  0  0  0  0  0  0  0  0  0  0  0
   -7.2736   -0.2039   10.7721 H   0  0  0  0  0  0  0  0  0  0  0  0
   -9.0684   -0.0101   10.7351 H   0  0  0  0  0  0  0  0  0  0  0  0
   -5.3561    1.1784    8.6155 H   0  0  0  0  0  0  0  0  0  0  0  0
   -2.9555    4.2441    6.8067 H   0  0  0  0  0  0  0  0  0  0  0  0
   -2.1539    5.4440    4.5087 H   0  0  0  0  0  0  0  0  0  0  0  0
   -1.7086    4.3611    3.1411 H   0  0  0  0  0  0  0  0  0  0  0  0
   -4.5465    4.6809    4.3312 H   0  0  0  0  0  0  0  0  0  0  0  0
   -3.9509    5.3878    2.7827 H   0  0  0  0  0  0  0  0  0  0  0  0
   -4.0900    3.5957    2.9550 H   0  0  0  0  0  0  0  0  0  0  0  0
   -1.4288   -3.6042   10.4573 H   0  0  0  0  0  0  0  0  0  0  0  0
   -1.9379   -2.5225   11.7983 H   0  0  0  0  0  0  0  0  0  0  0  0
   -3.8301   -3.8793    9.7666 H   0  0  0  0  0  0  0  0  0  0  0  0
   -3.5547   -4.3875   11.4781 H   0  0  0  0  0  0  0  0  0  0  0  0
   -4.3378   -2.7968   11.1293 H   0  0  0  0  0  0  0  0  0  0  0  0
   -1.5762   -2.6634    7.9879 H   0  0  0  0  0  0  0  0  0  0  0  0
    2.5867   -2.9244    6.4123 H   0  0  0  0  0  0  0  0  0  0  0  0
    2.9632   -2.3024    4.7723 H   0  0  0  0  0  0  0  0  0  0  0  0
    4.9053   -3.4424    5.5647 H   0  0  0  0  0  0  0  0  0  0  0  0
    3.9800   -4.8821    6.0780 H   0  0  0  0  0  0  0  0  0  0  0  0
    4.1902   -4.5194    4.3083 H   0  0  0  0  0  0  0  0  0  0  0  0
    1.2451   -4.9376    6.7201 H   0  0  0  0  0  0  0  0  0  0  0  0
   -0.0960   -5.2084    5.5800 H   0  0  0  0  0  0  0  0  0  0  0  0
    1.2431   -7.2536    5.9393 H   0  0  0  0  0  0  0  0  0  0  0  0
    2.6821   -6.4818    5.1984 H   0  0  0  0  0  0  0  0  0  0  0  0
    1.1931   -6.7510    4.2118 H   0  0  0  0  0  0  0  0  0  0  0  0
    0.4175   -2.1392    6.8439 H   0  0  0  0  0  0  0  0  0  0  0  0
    2.3218   -4.9001    0.7225 H   0  0  0  0  0  0  0  0  0  0  0  0
    3.4765   -2.9640   -0.0509 H   0  0  0  0  0  0  0  0  0  0  0  0
    5.8085   -1.7611   -0.3005 H   0  0  0  0  0  0  0  0  0  0  0  0
    6.3606   -1.3400   -1.9608 H   0  0  0  0  0  0  0  0  0  0  0  0
    7.7329   -3.1838   -1.0350 H   0  0  0  0  0  0  0  0  0  0  0  0
    6.7633   -3.7925   -2.4316 H   0  0  0  0  0  0  0  0  0  0  0  0
    6.2520   -4.1750   -0.7342 H   0  0  0  0  0  0  0  0  0  0  0  0
   -4.0675   -4.6297   -3.7061 H   0  0  0  0  0  0  0  0  0  0  0  0
   -3.5114   -4.1504   -5.3492 H   0  0  0  0  0  0  0  0  0  0  0  0
   -5.3108   -2.6342   -4.4726 H   0  0  0  0  0  0  0  0  0  0  0  0
   -4.2591   -2.1896   -3.0746 H   0  0  0  0  0  0  0  0  0  0  0  0
   -3.7695   -1.7406   -4.7568 H   0  0  0  0  0  0  0  0  0  0  0  0
   -1.0691   -3.0805   -5.5574 H   0  0  0  0  0  0  0  0  0  0  0  0
    0.9294   -0.1133   -3.7956 H   0  0  0  0  0  0  0  0  0  0  0  0
   -0.0248    2.4091   -3.8182 H   0  0  0  0  0  0  0  0  0  0  0  0
    0.2040    3.3589   -5.3285 H   0  0  0  0  0  0  0  0  0  0  0  0
    2.6937    3.3893   -4.9274 H   0  0  0  0  0  0  0  0  0  0  0  0
    1.7637    4.1471   -3.5755 H   0  0  0  0  0  0  0  0  0  0  0  0
    2.4368    2.4850   -3.3767 H   0  0  0  0  0  0  0  0  0  0  0  0
    2.5531   -6.9625   -8.4881 H   0  0  0  0  0  0  0  0  0  0  0  0
    2.5665   -6.0600  -10.0446 H   0  0  0  0  0  0  0  0  0  0  0  0
    4.7773   -7.1218   -9.5813 H   0  0  0  0  0  0  0  0  0  0  0  0
    4.9203   -5.3227   -9.6147 H   0  0  0  0  0  0  0  0  0  0  0  0
    4.9092   -6.2079   -8.0331 H   0  0  0  0  0  0  0  0  0  0  0  0
    2.5804   -3.3886   -9.9192 H   0  0  0  0  0  0  0  0  0  0  0  0
    1.3878    3.2838  -11.4587 H   0  0  0  0  0  0  0  0  0  0  0  0
   -0.1169    2.7717  -10.6247 H   0  0  0  0  0  0  0  0  0  0  0  0
   -0.3265    4.9131  -11.9306 H   0  0  0  0  0  0  0  0  0  0  0  0
   -1.5023    3.6628  -12.4566 H   0  0  0  0  0  0  0  0  0  0  0  0
   -0.0278    4.0130  -13.4576 H   0  0  0  0  0  0  0  0  0  0  0  0
   -1.5107    1.4819  -13.2405 H   0  0  0  0  0  0  0  0  0  0  0  0
   -1.4879    0.8478  -11.5619 H   0  0  0  0  0  0  0  0  0  0  0  0
   -0.2916   -0.5748  -14.0395 H   0  0  0  0  0  0  0  0  0  0  0  0
   -1.8988   -0.9153  -13.2911 H   0  0  0  0  0  0  0  0  0  0  0  0
   -0.3997   -1.2521  -12.3638 H   0  0  0  0  0  0  0  0  0  0  0  0
    0.0197    0.3364   -9.6866 H   0  0  0  0  0  0  0  0  0  0  0  0
    2.5996    2.2220  -15.9313 H   0  0  0  0  0  0  0  0  0  0  0  0
    5.0509    1.2934  -15.9855 H   0  0  0  0  0  0  0  0  0  0  0  0
  1  2  2  0
  2  3  1  0
  3  4  2  0
  4  5  1  0
  5  6  1  0
  4  7  1  0
  7  8  1  0
  8  9  2  0
  9 10  1  0
 10 11  2  0
 11 12  1  0
 12 13  1  0
 13 14  1  0
 14 15  1  0
 13 16  2  0
  9 17  1  0
 17 18  2  0
 18 19  1  0
 19 20  2  0
 20 21  1  0
 21 22  1  0
 20 23  1  0
 23 24  1  0
 24 25  2  0
 25 26  1  0
 26 27  2  0
 27 28  1  0
 28 29  1  0
 29 30  1  0
 30 31  1  0
 29 32  2  0
 25 33  1  0
 33 34  1  0
 34 35  1  0
 35 36  1  0
 36 37  2  0
 37 38  1  0
 38 39  1  0
 39 40  1  0
 40 41  1  0
 39 42  1  0
 42 43  1  0
 39 44  1  0
 44 45  1  0
 37 46  1  0
 46 47  2  0
 47 48  1  0
 47 49  1  0
 49 50  2  0
 50 51  1  0
 51 52  2  0
 52 53  1  0
 53 54  1  0
 52 55  1  0
 55 56  1  0
 56 57  2  0
 57 58  1  0
 58 59  2  0
 59 60  1  0
 60 61  1  0
 61 62  1  0
 62 63  1  0
 61 64  2  0
 57 65  1  0
 65 66  2  0
 66 67  1  0
 67 68  2  0
 68 69  1  0
 69 70  1  0
 68 71  1  0
 71 72  1  0
 72 73  2  0
 73 74  1  0
 74 75  2  0
 75 76  1  0
 76 77  1  0
 77 78  1  0
 78 79  1  0
 77 80  2  0
 73 81  1  0
 81 82  1  0
 82 83  1  0
 83 84  1  0
 84 85  2  0
 85 86  1  0
 86 87  1  0
 87 88  1  0
 88 89  1  0
 87 90  1  0
 90 91  1  0
 87 92  1  0
 92 93  1  0
 85 94  1  0
 94 95  2  0
 95 96  1  0
 11  1  1  0
 27 17  1  0
 45 33  2  0
 59 49  1  0
 75 65  1  0
 93 81  2  0
  8  2  1  0
 16 10  1  0
 24 18  1  0
 32 26  1  0
 44 35  2  0
 56 50  1  0
 64 58  1  0
 72 66  1  0
 80 74  1  0
 92 83  2  0
 48 36  1  0
 96 84  1  0
  1 97  1  0
  3 98  1  0
  5 99  1  0
  5100  1  0
  6101  1  0
  6102  1  0
  6103  1  0
 14104  1  0
 14105  1  0
 15106  1  0
 15107  1  0
 15108  1  0
 16109  1  0
 19110  1  0
 21111  1  0
 21112  1  0
 22113  1  0
 22114  1  0
 22115  1  0
 30116  1  0
 30117  1  0
 31118  1  0
 31119  1  0
 31120  1  0
 32121  1  0
 40122  1  0
 40123  1  0
 41124  1  0
 41125  1  0
 41126  1  0
 42127  1  0
 42128  1  0
 43129  1  0
 43130  1  0
 43131  1  0
 45132  1  0
 46133  1  0
 51134  1  0
 53135  1  0
 53136  1  0
 54137  1  0
 54138  1  0
 54139  1  0
 62140  1  0
 62141  1  0
 63142  1  0
 63143  1  0
 63144  1  0
 64145  1  0
 67146  1  0
 69147  1  0
 69148  1  0
 70149  1  0
 70150  1  0
 70151  1  0
 78152  1  0
 78153  1  0
 79154  1  0
 79155  1  0
 79156  1  0
 80157  1  0
 88158  1  0
 88159  1  0
 89160  1  0
 89161  1  0
 89162  1  0
 90163  1  0
 90164  1  0
 91165  1  0
 91166  1  0
 91167  1  0
 93168  1  0
 94169  1  0
 95170  1  0
M  END

