
     RDKit          3D

165182  0  0  0  0  0  0  0  0999 V2000
    0.0074   10.7791   12.7122 C   0  0  0  0  0  0  0  0  0  0  0  0
   -0.6416    9.2900   13.2231 S   0  0  0  0  0  0  0  0  0  0  0  0
   -0.3051    8.5156   11.7766 C   0  0  0  0  0  0  0  0  0  0  0  0
   -0.5295    7.1796   11.2551 C   0  0  0  0  0  0  0  0  0  0  0  0
   -0.1112    6.9893    9.9661 C   0  0  0  0  0  0  0  0  0  0  0  0
    0.6867    8.5650    9.2091 Ge  0  0  0  0  0  4  0  0  0  0  0  0
    2.6055    8.3925    8.9135 C   0  0  0  0  0  0  0  0  0  0  0  0
    2.8912    7.5270    7.6953 C   0  0  0  0  0  0  0  0  0  0  0  0
   -0.3444    9.3591    7.7575 C   0  0  0  0  0  0  0  0  0  0  0  0
   -0.7728    8.2994    6.7536 C   0  0  0  0  0  0  0  0  0  0  0  0
    0.2940    9.3777   10.9019 C   0  0  0  0  0  0  0  0  0  0  0  0
    0.4851   10.6628   11.4027 C   0  0  0  0  0  0  0  0  0  0  0  0
   -0.3574    5.7140    9.4640 C   0  0  0  0  0  0  0  0  0  0  0  0
   -0.9895    4.9052   10.4193 C   0  0  0  0  0  0  0  0  0  0  0  0
   -1.2309    5.7863   11.8599 S   0  0  0  0  0  0  0  0  0  0  0  0
   -1.4102    3.5098   10.2146 C   0  0  0  0  0  0  0  0  0  0  0  0
   -1.3574    2.6729    8.7455 S   0  0  0  0  0  0  0  0  0  0  0  0
   -2.0265    1.2630    9.3639 C   0  0  0  0  0  0  0  0  0  0  0  0
   -2.2542   -0.0083    8.7029 C   0  0  0  0  0  0  0  0  0  0  0  0
   -2.5984   -1.1016    9.4587 C   0  0  0  0  0  0  0  0  0  0  0  0
   -2.7921   -0.9892   10.8418 O   0  0  0  0  0  0  0  0  0  0  0  0
   -2.9869    0.2815   11.5080 C   0  0  0  0  0  0  0  0  0  0  0  0
   -4.5209    0.5422   11.5289 C   0  0  0  0  0  0  0  0  0  0  0  0
   -4.9693    1.8105   12.2617 C   0  0  0  0  0  0  0  0  0  0  0  0
   -2.3693    0.1591   12.9276 C   0  0  0  0  0  0  0  0  0  0  0  0
   -2.9688   -0.9750   13.7653 C   0  0  0  0  0  0  0  0  0  0  0  0
   -2.2879    1.4026   10.7192 C   0  0  0  0  0  0  0  0  0  0  0  0
   -1.9471    2.6788   11.1980 C   0  0  0  0  0  0  0  0  0  0  0  0
   -2.7043   -2.2843    8.7283 C   0  0  0  0  0  0  0  0  0  0  0  0
   -2.4574   -2.0881    7.3687 C   0  0  0  0  0  0  0  0  0  0  0  0
   -2.0845   -0.4562    7.0935 S   0  0  0  0  0  0  0  0  0  0  0  0
   -2.4953   -3.1339    6.3379 C   0  0  0  0  0  0  0  0  0  0  0  0
   -2.5322   -2.8428    4.6608 S   0  0  0  0  0  0  0  0  0  0  0  0
   -2.5093   -4.4718    4.2657 C   0  0  0  0  0  0  0  0  0  0  0  0
   -2.2961   -5.1999    3.0280 C   0  0  0  0  0  0  0  0  0  0  0  0
   -2.0168   -6.5309    3.1800 C   0  0  0  0  0  0  0  0  0  0  0  0
   -2.0776   -7.0863    5.0160 Ge  0  0  0  0  0  4  0  0  0  0  0  0
   -3.5988   -8.2259    5.4389 C   0  0  0  0  0  0  0  0  0  0  0  0
   -3.8533   -8.2306    6.9390 C   0  0  0  0  0  0  0  0  0  0  0  0
   -0.3650   -7.6936    5.7147 C   0  0  0  0  0  0  0  0  0  0  0  0
   -0.0540   -9.0948    5.2095 C   0  0  0  0  0  0  0  0  0  0  0  0
   -2.4268   -5.2376    5.3960 C   0  0  0  0  0  0  0  0  0  0  0  0
   -2.4270   -4.5118    6.5821 C   0  0  0  0  0  0  0  0  0  0  0  0
   -1.6371   -7.1763    2.0059 C   0  0  0  0  0  0  0  0  0  0  0  0
   -1.6645   -6.2953    0.9181 C   0  0  0  0  0  0  0  0  0  0  0  0
   -2.1113   -4.7355    1.4333 S   0  0  0  0  0  0  0  0  0  0  0  0
   -1.2452   -6.6084   -0.4503 C   0  0  0  0  0  0  0  0  0  0  0  0
   -1.7856   -5.7625   -1.8209 S   0  0  0  0  0  0  0  0  0  0  0  0
   -0.7080   -6.5119   -2.8580 C   0  0  0  0  0  0  0  0  0  0  0  0
   -0.2189   -6.1280   -4.1689 C   0  0  0  0  0  0  0  0  0  0  0  0
    1.0079   -6.6359   -4.5008 C   0  0  0  0  0  0  0  0  0  0  0  0
    1.7021   -7.8058   -3.1457 Ge  0  0  0  0  0  4  0  0  0  0  0  0
    1.7560   -9.6787   -3.6781 C   0  0  0  0  0  0  0  0  0  0  0  0
    2.7928   -9.8923   -4.7702 C   0  0  0  0  0  0  0  0  0  0  0  0
    3.3550   -7.1205   -2.3741 C   0  0  0  0  0  0  0  0  0  0  0  0
    3.6505   -7.7915   -1.0397 C   0  0  0  0  0  0  0  0  0  0  0  0
    0.1181   -7.3519   -2.1569 C   0  0  0  0  0  0  0  0  0  0  0  0
   -0.1744   -7.4406   -0.7961 C   0  0  0  0  0  0  0  0  0  0  0  0
    1.6159   -6.0031   -5.5855 C   0  0  0  0  0  0  0  0  0  0  0  0
    0.8016   -4.9858   -6.1054 C   0  0  0  0  0  0  0  0  0  0  0  0
   -0.6203   -4.8616   -5.1842 S   0  0  0  0  0  0  0  0  0  0  0  0
    1.1620   -4.0432   -7.1745 C   0  0  0  0  0  0  0  0  0  0  0  0
    0.0814   -2.9095   -7.8475 S   0  0  0  0  0  0  0  0  0  0  0  0
    1.2435   -2.2113   -8.8234 C   0  0  0  0  0  0  0  0  0  0  0  0
    1.2683   -1.0464   -9.6878 C   0  0  0  0  0  0  0  0  0  0  0  0
    2.5007   -0.7274  -10.1831 C   0  0  0  0  0  0  0  0  0  0  0  0
    3.8745   -1.9240   -9.5765 Ge  0  0  0  0  0  4  0  0  0  0  0  0
    5.1576   -1.0665   -8.3828 C   0  0  0  0  0  0  0  0  0  0  0  0
    4.4371   -0.2628   -7.3101 C   0  0  0  0  0  0  0  0  0  0  0  0
    4.6201   -2.9736  -11.0392 C   0  0  0  0  0  0  0  0  0  0  0  0
    6.1041   -3.2277  -10.8207 C   0  0  0  0  0  0  0  0  0  0  0  0
    2.4568   -2.8142   -8.6337 C   0  0  0  0  0  0  0  0  0  0  0  0
    2.4445   -3.8556   -7.7085 C   0  0  0  0  0  0  0  0  0  0  0  0
    2.5117    0.3757  -11.0313 C   0  0  0  0  0  0  0  0  0  0  0  0
    1.2257    0.9097  -11.1864 C   0  0  0  0  0  0  0  0  0  0  0  0
    0.1073    0.0100  -10.2668 S   0  0  0  0  0  0  0  0  0  0  0  0
    0.8774    2.0509  -12.0455 C   0  0  0  0  0  0  0  0  0  0  0  0
    1.9921    2.9611  -12.9606 S   0  0  0  0  0  0  0  0  0  0  0  0
    0.8104    3.9510  -13.6156 C   0  0  0  0  0  0  0  0  0  0  0  0
    0.8088    5.0494  -14.5657 C   0  0  0  0  0  0  0  0  0  0  0  0
   -0.4285    5.5585  -14.8508 C   0  0  0  0  0  0  0  0  0  0  0  0
   -1.8371    4.6621  -13.9019 Ge  0  0  0  0  0  4  0  0  0  0  0  0
   -2.7041    5.8103  -12.5878 C   0  0  0  0  0  0  0  0  0  0  0  0
   -3.5835    4.9927  -11.6538 C   0  0  0  0  0  0  0  0  0  0  0  0
   -3.0254    3.6615  -15.0817 C   0  0  0  0  0  0  0  0  0  0  0  0
   -3.4216    2.3345  -14.4515 C   0  0  0  0  0  0  0  0  0  0  0  0
   -0.4268    3.5963  -13.1527 C   0  0  0  0  0  0  0  0  0  0  0  0
   -0.4226    2.5284  -12.2625 C   0  0  0  0  0  0  0  0  0  0  0  0
   -0.4174    6.6139  -15.7571 C   0  0  0  0  0  0  0  0  0  0  0  0
    0.8819    6.9162  -16.1777 C   0  0  0  0  0  0  0  0  0  0  0  0
    1.9911    5.8711  -15.4198 S   0  0  0  0  0  0  0  0  0  0  0  0
    0.0451   11.6799   13.3095 H   0  0  0  0  0  0  0  0  0  0  0  0
    3.0405    9.4024    8.7649 H   0  0  0  0  0  0  0  0  0  0  0  0
    3.0641    7.9314    9.8125 H   0  0  0  0  0  0  0  0  0  0  0  0
    2.4124    6.5315    7.8100 H   0  0  0  0  0  0  0  0  0  0  0  0
    3.9886    7.3856    7.5909 H   0  0  0  0  0  0  0  0  0  0  0  0
    2.5077    8.0191    6.7778 H   0  0  0  0  0  0  0  0  0  0  0  0
    0.2754   10.1307    7.2528 H   0  0  0  0  0  0  0  0  0  0  0  0
   -1.2460    9.8473    8.1852 H   0  0  0  0  0  0  0  0  0  0  0  0
   -1.3551    8.7742    5.9366 H   0  0  0  0  0  0  0  0  0  0  0  0
    0.1156    7.8003    6.3135 H   0  0  0  0  0  0  0  0  0  0  0  0
   -1.4134    7.5393    7.2481 H   0  0  0  0  0  0  0  0  0  0  0  0
    0.9399   11.4717   10.8463 H   0  0  0  0  0  0  0  0  0  0  0  0
   -0.0966    5.3994    8.4618 H   0  0  0  0  0  0  0  0  0  0  0  0
   -5.0434   -0.3279   11.9792 H   0  0  0  0  0  0  0  0  0  0  0  0
   -4.8870    0.6065   10.4795 H   0  0  0  0  0  0  0  0  0  0  0  0
   -6.0783    1.8653   12.2414 H   0  0  0  0  0  0  0  0  0  0  0  0
   -4.6495    1.7974   13.3230 H   0  0  0  0  0  0  0  0  0  0  0  0
   -4.5815    2.7185   11.7592 H   0  0  0  0  0  0  0  0  0  0  0  0
   -1.2801   -0.0351   12.8203 H   0  0  0  0  0  0  0  0  0  0  0  0
   -2.4721    1.1033   13.4986 H   0  0  0  0  0  0  0  0  0  0  0  0
   -2.9332   -1.9390   13.2149 H   0  0  0  0  0  0  0  0  0  0  0  0
   -2.3839   -1.0883   14.7020 H   0  0  0  0  0  0  0  0  0  0  0  0
   -4.0188   -0.7457   14.0429 H   0  0  0  0  0  0  0  0  0  0  0  0
   -2.1033    2.9970   12.2191 H   0  0  0  0  0  0  0  0  0  0  0  0
   -2.9650   -3.2364    9.1715 H   0  0  0  0  0  0  0  0  0  0  0  0
   -3.3892   -9.2584    5.0906 H   0  0  0  0  0  0  0  0  0  0  0  0
   -4.4947   -7.8402    4.9095 H   0  0  0  0  0  0  0  0  0  0  0  0
   -2.9785   -8.6602    7.4729 H   0  0  0  0  0  0  0  0  0  0  0  0
   -4.7472   -8.8496    7.1648 H   0  0  0  0  0  0  0  0  0  0  0  0
   -4.0373   -7.1971    7.3012 H   0  0  0  0  0  0  0  0  0  0  0  0
   -0.4123   -7.6981    6.8250 H   0  0  0  0  0  0  0  0  0  0  0  0
    0.4293   -6.9910    5.3862 H   0  0  0  0  0  0  0  0  0  0  0  0
   -0.8464   -9.8039    5.5324 H   0  0  0  0  0  0  0  0  0  0  0  0
    0.9179   -9.4338    5.6272 H   0  0  0  0  0  0  0  0  0  0  0  0
    0.0130   -9.0962    4.0998 H   0  0  0  0  0  0  0  0  0  0  0  0
   -2.3179   -4.9623    7.5594 H   0  0  0  0  0  0  0  0  0  0  0  0
   -1.3408   -8.2143    1.9504 H   0  0  0  0  0  0  0  0  0  0  0  0
    0.7527   -9.9728   -4.0529 H   0  0  0  0  0  0  0  0  0  0  0  0
    2.0067  -10.3009   -2.7936 H   0  0  0  0  0  0  0  0  0  0  0  0
    2.5539   -9.2613   -5.6521 H   0  0  0  0  0  0  0  0  0  0  0  0
    2.7887  -10.9585   -5.0821 H   0  0  0  0  0  0  0  0  0  0  0  0
    3.8069   -9.6326   -4.3961 H   0  0  0  0  0  0  0  0  0  0  0  0
    4.1868   -7.3179   -3.0822 H   0  0  0  0  0  0  0  0  0  0  0  0
    3.2599   -6.0237   -2.2292 H   0  0  0  0  0  0  0  0  0  0  0  0
    3.7054   -8.8938   -1.1678 H   0  0  0  0  0  0  0  0  0  0  0  0
    4.6238   -7.4283   -0.6498 H   0  0  0  0  0  0  0  0  0  0  0  0
    2.8588   -7.5433   -0.3031 H   0  0  0  0  0  0  0  0  0  0  0  0
    0.4334   -7.9785   -0.0807 H   0  0  0  0  0  0  0  0  0  0  0  0
    2.6180   -6.2267   -5.9247 H   0  0  0  0  0  0  0  0  0  0  0  0
    5.8125   -0.3944   -8.9763 H   0  0  0  0  0  0  0  0  0  0  0  0
    5.7834   -1.8498   -7.9021 H   0  0  0  0  0  0  0  0  0  0  0  0
    3.8138    0.5304   -7.7782 H   0  0  0  0  0  0  0  0  0  0  0  0
    3.7890   -0.9292   -6.7023 H   0  0  0  0  0  0  0  0  0  0  0  0
    5.1820    0.2160   -6.6408 H   0  0  0  0  0  0  0  0  0  0  0  0
    4.4734   -2.4169  -11.9879 H   0  0  0  0  0  0  0  0  0  0  0  0
    4.0763   -3.9396  -11.1036 H   0  0  0  0  0  0  0  0  0  0  0  0
    6.6530   -2.2631  -10.7728 H   0  0  0  0  0  0  0  0  0  0  0  0
    6.2609   -3.7915   -9.8760 H   0  0  0  0  0  0  0  0  0  0  0  0
    6.5067   -3.8234  -11.6669 H   0  0  0  0  0  0  0  0  0  0  0  0
    3.3270   -4.4026   -7.4059 H   0  0  0  0  0  0  0  0  0  0  0  0
    3.4022    0.7555  -11.5147 H   0  0  0  0  0  0  0  0  0  0  0  0
   -1.9201    6.3324  -12.0004 H   0  0  0  0  0  0  0  0  0  0  0  0
   -3.3204    6.5657  -13.1199 H   0  0  0  0  0  0  0  0  0  0  0  0
   -4.0144    5.6561  -10.8759 H   0  0  0  0  0  0  0  0  0  0  0  0
   -2.9856    4.2013  -11.1558 H   0  0  0  0  0  0  0  0  0  0  0  0
   -4.4155    4.5286  -12.2217 H   0  0  0  0  0  0  0  0  0  0  0  0
   -2.5006    3.4718  -16.0419 H   0  0  0  0  0  0  0  0  0  0  0  0
   -3.9316    4.2721  -15.2795 H   0  0  0  0  0  0  0  0  0  0  0  0
   -2.5238    1.7016  -14.2920 H   0  0  0  0  0  0  0  0  0  0  0  0
   -3.9288    2.5019  -13.4795 H   0  0  0  0  0  0  0  0  0  0  0  0
   -4.1186    1.7957  -15.1284 H   0  0  0  0  0  0  0  0  0  0  0  0
   -1.3170    2.1162  -11.8124 H   0  0  0  0  0  0  0  0  0  0  0  0
   -1.3036    7.1364  -16.0914 H   0  0  0  0  0  0  0  0  0  0  0  0
    1.1409    7.6984  -16.8779 H   0  0  0  0  0  0  0  0  0  0  0  0
  1  2  1  0
  2  3  1  0
  3  4  1  0
  4  5  2  0
  5  6  1  0
  6  7  1  0
  7  8  1  0
  6  9  1  0
  9 10  1  0
  6 11  1  0
 11 12  1  0
  5 13  1  0
 13 14  2  0
 14 15  1  0
 14 16  1  0
 16 17  1  0
 17 18  1  0
 18 19  1  0
 19 20  2  0
 20 21  1  0
 21 22  1  0
 22 23  1  0
 23 24  1  0
 22 25  1  0
 25 26  1  0
 22 27  1  0
 27 28  1  0
 20 29  1  0
 29 30  2  0
 30 31  1  0
 30 32  1  0
 32 33  1  0
 33 34  1  0
 34 35  1  0
 35 36  2  0
 36 37  1  0
 37 38  1  0
 38 39  1  0
 37 40  1  0
 40 41  1  0
 37 42  1  0
 42 43  1  0
 36 44  1  0
 44 45  2  0
 45 46  1  0
 45 47  1  0
 47 48  1  0
 48 49  1  0
 49 50  1  0
 50 51  2  0
 51 52  1  0
 52 53  1  0
 53 54  1  0
 52 55  1  0
 55 56  1  0
 52 57  1  0
 57 58  1  0
 51 59  1  0
 59 60  2  0
 60 61  1  0
 60 62  1  0
 62 63  1  0
 63 64  1  0
 64 65  1  0
 65 66  2  0
 66 67  1  0
 67 68  1  0
 68 69  1  0
 67 70  1  0
 70 71  1  0
 67 72  1  0
 72 73  1  0
 66 74  1  0
 74 75  2  0
 75 76  1  0
 75 77  1  0
 77 78  1  0
 78 79  1  0
 79 80  1  0
 80 81  2  0
 81 82  1  0
 82 83  1  0
 83 84  1  0
 82 85  1  0
 85 86  1  0
 82 87  1  0
 87 88  1  0
 81 89  1  0
 89 90  2  0
 90 91  1  0
 12  1  2  0
 28 16  2  0
 43 32  2  0
 58 47  2  0
 73 62  2  0
 88 77  2  0
 11  3  2  0
 27 18  2  0
 42 34  2  0
 57 49  2  0
 72 64  2  0
 87 79  2  0
 15  4  1  0
 31 19  1  0
 46 35  1  0
 61 50  1  0
 76 65  1  0
 91 80  1  0
  1 92  1  0
  7 93  1  0
  7 94  1  0
  8 95  1  0
  8 96  1  0
  8 97  1  0
  9 98  1  0
  9 99  1  0
 10100  1  0
 10101  1  0
 10102  1  0
 12103  1  0
 13104  1  0
 23105  1  0
 23106  1  0
 24107  1  0
 24108  1  0
 24109  1  0
 25110  1  0
 25111  1  0
 26112  1  0
 26113  1  0
 26114  1  0
 28115  1  0
 29116  1  0
 38117  1  0
 38118  1  0
 39119  1  0
 39120  1  0
 39121  1  0
 40122  1  0
 40123  1  0
 41124  1  0
 41125  1  0
 41126  1  0
 43127  1  0
 44128  1  0
 53129  1  0
 53130  1  0
 54131  1  0
 54132  1  0
 54133  1  0
 55134  1  0
 55135  1  0
 56136  1  0
 56137  1  0
 56138  1  0
 58139  1  0
 59140  1  0
 68141  1  0
 68142  1  0
 69143  1  0
 69144  1  0
 69145  1  0
 70146  1  0
 70147  1  0
 71148  1  0
 71149  1  0
 71150  1  0
 73151  1  0
 74152  1  0
 83153  1  0
 83154  1  0
 84155  1  0
 84156  1  0
 84157  1  0
 85158  1  0
 85159  1  0
 86160  1  0
 86161  1  0
 86162  1  0
 88163  1  0
 89164  1  0
 90165  1  0
M  END

