
     RDKit          3D

 90 99  0  0  0  0  0  0  0  0999 V2000
    7.8518    3.5385   10.6796 N   0  0  0  0  0  0  0  0  0  0  0  0
    7.2848    2.2772   11.0018 C   0  0  0  0  0  0  0  0  0  0  0  0
    7.5662    1.6313   12.0466 O   0  0  0  0  0  0  0  0  0  0  0  0
    6.3562    1.8363    9.9612 C   0  0  0  0  0  0  0  0  0  0  0  0
    6.3379    2.7838    9.0206 C   0  0  0  0  0  0  0  0  0  0  0  0
    7.2589    3.8501    9.4275 C   0  0  0  0  0  0  0  0  0  0  0  0
    7.5404    4.8828    8.7616 O   0  0  0  0  0  0  0  0  0  0  0  0
    5.5426    2.7460    7.8206 N   0  0  0  0  0  0  0  0  0  0  0  0
    5.0551    3.8336    7.0391 C   0  0  0  0  0  0  0  0  0  0  0  0
    5.2836    5.0473    7.2851 O   0  0  0  0  0  0  0  0  0  0  0  0
    4.2037    3.3561    5.9524 C   0  0  0  0  0  0  0  0  0  0  0  0
    4.1347    2.0274    6.0403 C   0  0  0  0  0  0  0  0  0  0  0  0
    4.9523    1.6142    7.1877 C   0  0  0  0  0  0  0  0  0  0  0  0
    5.1413    0.4243    7.5579 O   0  0  0  0  0  0  0  0  0  0  0  0
    3.3476    1.1585    5.1399 C   0  0  0  0  0  0  0  0  0  0  0  0
    2.4589    1.7075    3.8191 S   0  0  0  0  0  0  0  0  0  0  0  0
    1.8953    0.1917    3.3830 C   0  0  0  0  0  0  0  0  0  0  0  0
    1.0547   -0.1469    2.2611 C   0  0  0  0  0  0  0  0  0  0  0  0
    0.6777   -1.4463    2.0684 C   0  0  0  0  0  0  0  0  0  0  0  0
    1.1046   -2.4625    2.9302 O   0  0  0  0  0  0  0  0  0  0  0  0
    2.0509   -2.2911    4.0204 C   0  0  0  0  0  0  0  0  0  0  0  0
    1.3569   -2.9845    5.2390 C   0  0  0  0  0  0  0  0  0  0  0  0
    1.7997   -2.6027    6.6526 C   0  0  0  0  0  0  0  0  0  0  0  0
    3.3316   -3.0389    3.5422 C   0  0  0  0  0  0  0  0  0  0  0  0
    4.3886   -3.3850    4.5932 C   0  0  0  0  0  0  0  0  0  0  0  0
    2.3627   -0.7862    4.2509 C   0  0  0  0  0  0  0  0  0  0  0  0
    3.2050   -0.2278    5.2347 C   0  0  0  0  0  0  0  0  0  0  0  0
   -0.1544   -1.6332    0.9649 C   0  0  0  0  0  0  0  0  0  0  0  0
   -0.4101   -0.4396    0.2867 C   0  0  0  0  0  0  0  0  0  0  0  0
    0.3936    0.8315    1.0673 S   0  0  0  0  0  0  0  0  0  0  0  0
   -1.2274   -0.3057   -0.9278 C   0  0  0  0  0  0  0  0  0  0  0  0
   -2.2415   -1.5035   -1.5545 S   0  0  0  0  0  0  0  0  0  0  0  0
   -2.7098   -0.6014   -2.8903 C   0  0  0  0  0  0  0  0  0  0  0  0
   -3.5760   -0.9843   -3.9879 C   0  0  0  0  0  0  0  0  0  0  0  0
   -3.6646   -0.1720   -5.0933 C   0  0  0  0  0  0  0  0  0  0  0  0
   -2.9838    1.0534   -5.1469 O   0  0  0  0  0  0  0  0  0  0  0  0
   -2.3471    1.6652   -3.9952 C   0  0  0  0  0  0  0  0  0  0  0  0
   -3.3170    2.7196   -3.4016 C   0  0  0  0  0  0  0  0  0  0  0  0
   -3.7867    3.7755   -4.4100 C   0  0  0  0  0  0  0  0  0  0  0  0
   -1.0257    2.3277   -4.4691 C   0  0  0  0  0  0  0  0  0  0  0  0
   -0.0086    1.3140   -5.0032 C   0  0  0  0  0  0  0  0  0  0  0  0
   -2.0729    0.6287   -2.8933 C   0  0  0  0  0  0  0  0  0  0  0  0
   -1.2586    0.8114   -1.7628 C   0  0  0  0  0  0  0  0  0  0  0  0
   -4.4540   -0.6981   -6.1176 C   0  0  0  0  0  0  0  0  0  0  0  0
   -5.0103   -1.9248   -5.7595 C   0  0  0  0  0  0  0  0  0  0  0  0
   -4.4991   -2.3704   -4.2072 S   0  0  0  0  0  0  0  0  0  0  0  0
   -5.8660   -2.7119   -6.5962 N   0  0  0  0  0  0  0  0  0  0  0  0
   -6.8472   -3.6574   -6.1792 C   0  0  0  0  0  0  0  0  0  0  0  0
   -7.3319   -3.7110   -5.0164 O   0  0  0  0  0  0  0  0  0  0  0  0
   -7.2307   -4.5340   -7.2843 C   0  0  0  0  0  0  0  0  0  0  0  0
   -6.5029   -4.1772   -8.3484 C   0  0  0  0  0  0  0  0  0  0  0  0
   -5.6274   -3.0621   -7.9554 C   0  0  0  0  0  0  0  0  0  0  0  0
   -4.7000   -2.5687   -8.6522 O   0  0  0  0  0  0  0  0  0  0  0  0
   -6.5333   -4.8398   -9.6264 N   0  0  0  0  0  0  0  0  0  0  0  0
   -6.9932   -6.1560   -9.9308 C   0  0  0  0  0  0  0  0  0  0  0  0
   -7.5010   -6.9463   -9.0919 O   0  0  0  0  0  0  0  0  0  0  0  0
   -6.7774   -6.4670  -11.3424 C   0  0  0  0  0  0  0  0  0  0  0  0
   -6.2020   -5.4129  -11.9090 C   0  0  0  0  0  0  0  0  0  0  0  0
   -6.0455   -4.3802  -10.8862 C   0  0  0  0  0  0  0  0  0  0  0  0
   -5.5881   -3.2286  -11.0974 O   0  0  0  0  0  0  0  0  0  0  0  0
    8.5657    4.0836   11.2139 H   0  0  0  0  0  0  0  0  0  0  0  0
    5.7716    0.9239    9.9717 H   0  0  0  0  0  0  0  0  0  0  0  0
    3.6939    3.9735    5.2210 H   0  0  0  0  0  0  0  0  0  0  0  0
    0.2668   -2.7669    5.1874 H   0  0  0  0  0  0  0  0  0  0  0  0
    1.4510   -4.0869    5.1333 H   0  0  0  0  0  0  0  0  0  0  0  0
    1.5355   -1.5487    6.8734 H   0  0  0  0  0  0  0  0  0  0  0  0
    2.8806   -2.7733    6.8160 H   0  0  0  0  0  0  0  0  0  0  0  0
    1.2538   -3.2357    7.3846 H   0  0  0  0  0  0  0  0  0  0  0  0
    3.0215   -3.9968    3.0666 H   0  0  0  0  0  0  0  0  0  0  0  0
    3.8185   -2.4384    2.7423 H   0  0  0  0  0  0  0  0  0  0  0  0
    5.2396   -3.8901    4.0864 H   0  0  0  0  0  0  0  0  0  0  0  0
    4.7930   -2.4811    5.0857 H   0  0  0  0  0  0  0  0  0  0  0  0
    3.9848   -4.0984    5.3411 H   0  0  0  0  0  0  0  0  0  0  0  0
    3.6916   -0.8020    5.9992 H   0  0  0  0  0  0  0  0  0  0  0  0
   -0.5401   -2.5981    0.6664 H   0  0  0  0  0  0  0  0  0  0  0  0
   -2.8352    3.2388   -2.5417 H   0  0  0  0  0  0  0  0  0  0  0  0
   -4.2216    2.1938   -3.0137 H   0  0  0  0  0  0  0  0  0  0  0  0
   -4.1863    3.3022   -5.3309 H   0  0  0  0  0  0  0  0  0  0  0  0
   -2.9588    4.4659   -4.6764 H   0  0  0  0  0  0  0  0  0  0  0  0
   -4.5990    4.3764   -3.9514 H   0  0  0  0  0  0  0  0  0  0  0  0
   -0.5585    2.9075   -3.6434 H   0  0  0  0  0  0  0  0  0  0  0  0
   -1.2437    3.0397   -5.2927 H   0  0  0  0  0  0  0  0  0  0  0  0
    0.3211    0.6273   -4.1948 H   0  0  0  0  0  0  0  0  0  0  0  0
   -0.4451    0.7177   -5.8315 H   0  0  0  0  0  0  0  0  0  0  0  0
    0.8828    1.8490   -5.3940 H   0  0  0  0  0  0  0  0  0  0  0  0
   -0.6914    1.7120   -1.5702 H   0  0  0  0  0  0  0  0  0  0  0  0
   -4.6234   -0.2048   -7.0669 H   0  0  0  0  0  0  0  0  0  0  0  0
   -7.9668   -5.3290   -7.2405 H   0  0  0  0  0  0  0  0  0  0  0  0
   -7.0257   -7.3966  -11.8414 H   0  0  0  0  0  0  0  0  0  0  0  0
   -5.9130   -5.3352  -12.9488 H   0  0  0  0  0  0  0  0  0  0  0  0
  1  2  1  0
  2  3  2  0
  2  4  1  0
  4  5  2  0
  5  6  1  0
  6  7  2  0
  5  8  1  0
  8  9  1  0
  9 10  2  0
  9 11  1  0
 11 12  2  0
 12 13  1  0
 13 14  2  0
 12 15  1  0
 15 16  1  0
 16 17  1  0
 17 18  1  0
 18 19  2  0
 19 20  1  0
 20 21  1  0
 21 22  1  0
 22 23  1  0
 21 24  1  0
 24 25  1  0
 21 26  1  0
 26 27  1  0
 19 28  1  0
 28 29  2  0
 29 30  1  0
 29 31  1  0
 31 32  1  0
 32 33  1  0
 33 34  1  0
 34 35  2  0
 35 36  1  0
 36 37  1  0
 37 38  1  0
 38 39  1  0
 37 40  1  0
 40 41  1  0
 37 42  1  0
 42 43  1  0
 35 44  1  0
 44 45  2  0
 45 46  1  0
 45 47  1  0
 47 48  1  0
 48 49  2  0
 48 50  1  0
 50 51  2  0
 51 52  1  0
 52 53  2  0
 51 54  1  0
 54 55  1  0
 55 56  2  0
 55 57  1  0
 57 58  2  0
 58 59  1  0
 59 60  2  0
  6  1  1  0
 13  8  1  0
 27 15  2  0
 43 31  2  0
 52 47  1  0
 59 54  1  0
 26 17  2  0
 42 33  2  0
 30 18  1  0
 46 34  1  0
  1 61  1  0
  4 62  1  0
 11 63  1  0
 22 64  1  0
 22 65  1  0
 23 66  1  0
 23 67  1  0
 23 68  1  0
 24 69  1  0
 24 70  1  0
 25 71  1  0
 25 72  1  0
 25 73  1  0
 27 74  1  0
 28 75  1  0
 38 76  1  0
 38 77  1  0
 39 78  1  0
 39 79  1  0
 39 80  1  0
 40 81  1  0
 40 82  1  0
 41 83  1  0
 41 84  1  0
 41 85  1  0
 43 86  1  0
 44 87  1  0
 50 88  1  0
 57 89  1  0
 58 90  1  0
M  END

