
     RDKit          3D

240267  0  0  0  0  0  0  0  0999 V2000
    4.8243   -2.0471   13.1573 C   0  0  0  0  0  0  0  0  0  0  0  0
    5.6779   -1.1631   12.4977 C   0  0  0  0  0  0  0  0  0  0  0  0
    5.3360   -0.9386   11.1540 C   0  0  0  0  0  0  0  0  0  0  0  0
    6.0471   -0.1471   10.2087 C   0  0  0  0  0  0  0  0  0  0  0  0
    7.2656    0.6068   10.5610 C   0  0  0  0  0  0  0  0  0  0  0  0
    7.4041    1.4697   11.6450 C   0  0  0  0  0  0  0  0  0  0  0  0
    8.6494    2.1227   11.6552 C   0  0  0  0  0  0  0  0  0  0  0  0
    9.4826    1.7385   10.6071 C   0  0  0  0  0  0  0  0  0  0  0  0
   10.8528    2.2915   10.3592 C   0  0  0  0  0  0  0  0  0  0  0  0
   10.7764    3.7100    9.7914 C   0  0  0  0  0  0  0  0  0  0  0  0
    8.6695    0.6384    9.6493 S   0  0  0  0  0  0  0  0  0  0  0  0
    5.5377   -0.0972    8.9120 C   0  0  0  0  0  0  0  0  0  0  0  0
    4.3917   -0.8112    8.5107 C   0  0  0  0  0  0  0  0  0  0  0  0
    3.7112   -1.6377    9.4493 C   0  0  0  0  0  0  0  0  0  0  0  0
    2.5844   -2.5029    9.0614 C   0  0  0  0  0  0  0  0  0  0  0  0
    2.5680   -3.3787    7.9797 C   0  0  0  0  0  0  0  0  0  0  0  0
    1.4149   -4.1802    7.9377 C   0  0  0  0  0  0  0  0  0  0  0  0
    0.5240   -3.9042    8.9633 C   0  0  0  0  0  0  0  0  0  0  0  0
   -0.8007   -4.5807    9.1551 C   0  0  0  0  0  0  0  0  0  0  0  0
   -0.6395   -5.9595    9.7820 C   0  0  0  0  0  0  0  0  0  0  0  0
    1.1698   -2.7189    9.9435 S   0  0  0  0  0  0  0  0  0  0  0  0
    4.2036   -1.6599   10.7533 C   0  0  0  0  0  0  0  0  0  0  0  0
    3.6695   -2.5637   12.0666 S   0  0  0  0  0  0  0  0  0  0  0  0
    4.0274   -0.5725    7.1718 C   0  0  0  0  0  0  0  0  0  0  0  0
    4.8881    0.3026    6.5091 C   0  0  0  0  0  0  0  0  0  0  0  0
    6.0973    0.7847    7.5797 S   0  0  0  0  0  0  0  0  0  0  0  0
    4.7400    0.7117    5.1066 C   0  0  0  0  0  0  0  0  0  0  0  0
    5.7645    1.0743    4.2490 C   0  0  0  0  0  0  0  0  0  0  0  0
    5.3546    1.2200    2.9058 C   0  0  0  0  0  0  0  0  0  0  0  0
    6.1949    1.3837    1.7923 C   0  0  0  0  0  0  0  0  0  0  0  0
    7.6302    1.3386    2.0025 C   0  0  0  0  0  0  0  0  0  0  0  0
    8.3834    0.1647    2.0748 C   0  0  0  0  0  0  0  0  0  0  0  0
    9.6707    0.3893    2.5737 C   0  0  0  0  0  0  0  0  0  0  0  0
    9.9124    1.7349    2.8953 C   0  0  0  0  0  0  0  0  0  0  0  0
   11.2801    2.3361    3.0313 C   0  0  0  0  0  0  0  0  0  0  0  0
   11.7328    2.8760    1.6707 C   0  0  0  0  0  0  0  0  0  0  0  0
    8.5799    2.6489    2.4338 S   0  0  0  0  0  0  0  0  0  0  0  0
    5.5986    1.4601    0.5158 C   0  0  0  0  0  0  0  0  0  0  0  0
    4.2207    1.3250    0.3415 C   0  0  0  0  0  0  0  0  0  0  0  0
    3.3704    1.0497    1.4597 C   0  0  0  0  0  0  0  0  0  0  0  0
    1.9632    0.6160    1.3057 C   0  0  0  0  0  0  0  0  0  0  0  0
    1.4984   -0.2895    0.3509 C   0  0  0  0  0  0  0  0  0  0  0  0
    0.1576   -0.6626    0.5591 C   0  0  0  0  0  0  0  0  0  0  0  0
   -0.4022   -0.0823    1.6858 C   0  0  0  0  0  0  0  0  0  0  0  0
   -1.7830   -0.3606    2.1991 C   0  0  0  0  0  0  0  0  0  0  0  0
   -1.7301   -1.1114    3.5304 C   0  0  0  0  0  0  0  0  0  0  0  0
    0.7206    0.9219    2.3930 S   0  0  0  0  0  0  0  0  0  0  0  0
    3.9813    1.0425    2.7268 C   0  0  0  0  0  0  0  0  0  0  0  0
    3.3216    0.6166    4.2127 S   0  0  0  0  0  0  0  0  0  0  0  0
    3.8225    1.4132   -0.9915 C   0  0  0  0  0  0  0  0  0  0  0  0
    4.8783    1.5698   -1.8768 C   0  0  0  0  0  0  0  0  0  0  0  0
    6.3309    1.6084   -1.0090 S   0  0  0  0  0  0  0  0  0  0  0  0
    4.7018    1.5287   -3.3279 C   0  0  0  0  0  0  0  0  0  0  0  0
    3.8346    0.6137   -3.9330 C   0  0  0  0  0  0  0  0  0  0  0  0
    3.4262    0.9765   -5.2276 C   0  0  0  0  0  0  0  0  0  0  0  0
    2.4287    0.3271   -6.0315 C   0  0  0  0  0  0  0  0  0  0  0  0
    1.5798   -0.7601   -5.4796 C   0  0  0  0  0  0  0  0  0  0  0  0
    0.9953   -0.7626   -4.2132 C   0  0  0  0  0  0  0  0  0  0  0  0
    0.1260   -1.8388   -4.0273 C   0  0  0  0  0  0  0  0  0  0  0  0
    0.0424   -2.6858   -5.1221 C   0  0  0  0  0  0  0  0  0  0  0  0
   -0.8491   -3.8712   -5.2015 C   0  0  0  0  0  0  0  0  0  0  0  0
   -2.2270   -3.4983   -5.7497 C   0  0  0  0  0  0  0  0  0  0  0  0
    0.9994   -2.0739   -6.3576 S   0  0  0  0  0  0  0  0  0  0  0  0
    2.0702    0.9492   -7.2351 C   0  0  0  0  0  0  0  0  0  0  0  0
    2.6392    2.1599   -7.6486 C   0  0  0  0  0  0  0  0  0  0  0  0
    3.6208    2.7767   -6.8682 C   0  0  0  0  0  0  0  0  0  0  0  0
    4.0368    4.1304   -7.1968 C   0  0  0  0  0  0  0  0  0  0  0  0
    3.7265    5.2377   -6.4203 C   0  0  0  0  0  0  0  0  0  0  0  0
    4.1887    6.4261   -7.0039 C   0  0  0  0  0  0  0  0  0  0  0  0
    4.8422    6.2249   -8.2258 C   0  0  0  0  0  0  0  0  0  0  0  0
    5.6005    7.2937   -8.9599 C   0  0  0  0  0  0  0  0  0  0  0  0
    5.7780    6.9298  -10.4458 C   0  0  0  0  0  0  0  0  0  0  0  0
    4.9830    4.5734   -8.4990 S   0  0  0  0  0  0  0  0  0  0  0  0
    3.9942    2.1693   -5.6548 C   0  0  0  0  0  0  0  0  0  0  0  0
    4.9433    2.8019   -4.4039 S   0  0  0  0  0  0  0  0  0  0  0  0
    1.9436    2.7775   -8.7296 C   0  0  0  0  0  0  0  0  0  0  0  0
    0.8070    2.0502   -9.1444 C   0  0  0  0  0  0  0  0  0  0  0  0
    0.7145    0.6860   -8.1986 S   0  0  0  0  0  0  0  0  0  0  0  0
   -0.4099    2.7340   -9.6389 C   0  0  0  0  0  0  0  0  0  0  0  0
   -1.3492    3.6115   -8.5897 S   0  0  0  0  0  0  0  0  0  0  0  0
   -2.8535    3.3381   -9.2636 C   0  0  0  0  0  0  0  0  0  0  0  0
   -4.0267    3.0421   -8.4635 C   0  0  0  0  0  0  0  0  0  0  0  0
   -4.8037    1.9327   -8.7390 C   0  0  0  0  0  0  0  0  0  0  0  0
   -4.5493    1.2079   -9.9256 O   0  0  0  0  0  0  0  0  0  0  0  0
   -3.9006    1.8713  -11.0173 C   0  0  0  0  0  0  0  0  0  0  0  0
   -3.5485    0.8226  -12.1179 C   0  0  0  0  0  0  0  0  0  0  0  0
   -3.0797    1.4206  -13.4454 C   0  0  0  0  0  0  0  0  0  0  0  0
   -4.9145    2.9235  -11.5649 C   0  0  0  0  0  0  0  0  0  0  0  0
   -6.2325    2.2587  -11.9805 C   0  0  0  0  0  0  0  0  0  0  0  0
   -2.6508    2.5780  -10.4393 C   0  0  0  0  0  0  0  0  0  0  0  0
   -1.2778    2.2074  -10.6201 C   0  0  0  0  0  0  0  0  0  0  0  0
   -5.7257    1.5886   -7.7676 C   0  0  0  0  0  0  0  0  0  0  0  0
   -5.6456    2.4236   -6.6434 C   0  0  0  0  0  0  0  0  0  0  0  0
   -4.4253    3.5624   -6.9349 S   0  0  0  0  0  0  0  0  0  0  0  0
   -6.1328    2.0869   -5.3027 C   0  0  0  0  0  0  0  0  0  0  0  0
   -6.8955    0.9408   -5.0084 C   0  0  0  0  0  0  0  0  0  0  0  0
   -6.7518    0.5095   -3.6767 C   0  0  0  0  0  0  0  0  0  0  0  0
   -7.1850   -0.7238   -3.1563 C   0  0  0  0  0  0  0  0  0  0  0  0
   -8.1310   -1.5803   -3.9069 C   0  0  0  0  0  0  0  0  0  0  0  0
   -8.0480   -2.9614   -4.0357 C   0  0  0  0  0  0  0  0  0  0  0  0
   -9.1198   -3.5177   -4.7540 C   0  0  0  0  0  0  0  0  0  0  0  0
  -10.0287   -2.5551   -5.2077 C   0  0  0  0  0  0  0  0  0  0  0  0
  -11.3096   -2.8326   -5.9359 C   0  0  0  0  0  0  0  0  0  0  0  0
  -12.4898   -2.8946   -4.9753 C   0  0  0  0  0  0  0  0  0  0  0  0
   -9.5400   -1.0603   -4.6393 S   0  0  0  0  0  0  0  0  0  0  0  0
   -6.6338   -1.1162   -1.9122 C   0  0  0  0  0  0  0  0  0  0  0  0
   -5.7541   -0.3070   -1.2054 C   0  0  0  0  0  0  0  0  0  0  0  0
   -5.4734    0.9905   -1.6598 C   0  0  0  0  0  0  0  0  0  0  0  0
   -4.7457    1.9337   -0.8124 C   0  0  0  0  0  0  0  0  0  0  0  0
   -5.3204    3.1048   -0.3292 C   0  0  0  0  0  0  0  0  0  0  0  0
   -4.4571    3.8240    0.4941 C   0  0  0  0  0  0  0  0  0  0  0  0
   -3.1845    3.2521    0.5924 C   0  0  0  0  0  0  0  0  0  0  0  0
   -2.0170    3.9167    1.2479 C   0  0  0  0  0  0  0  0  0  0  0  0
   -1.6587    5.2178    0.5323 C   0  0  0  0  0  0  0  0  0  0  0  0
   -3.1363    1.8491   -0.3336 S   0  0  0  0  0  0  0  0  0  0  0  0
   -5.9532    1.3568   -2.9182 C   0  0  0  0  0  0  0  0  0  0  0  0
   -5.4136    2.6164   -3.8804 S   0  0  0  0  0  0  0  0  0  0  0  0
   -5.2138   -0.9316   -0.0625 C   0  0  0  0  0  0  0  0  0  0  0  0
   -5.6963   -2.2298    0.1361 C   0  0  0  0  0  0  0  0  0  0  0  0
   -6.7843   -2.5763   -1.0809 S   0  0  0  0  0  0  0  0  0  0  0  0
   -5.1164   -3.2128    1.0522 C   0  0  0  0  0  0  0  0  0  0  0  0
   -3.7717   -3.5181    1.1165 C   0  0  0  0  0  0  0  0  0  0  0  0
   -3.4882   -4.5450    2.0353 C   0  0  0  0  0  0  0  0  0  0  0  0
   -2.2138   -5.0767    2.3073 C   0  0  0  0  0  0  0  0  0  0  0  0
   -1.0101   -4.6031    1.6041 C   0  0  0  0  0  0  0  0  0  0  0  0
    0.1730   -4.1976    2.2108 C   0  0  0  0  0  0  0  0  0  0  0  0
    1.1742   -3.8383    1.3092 C   0  0  0  0  0  0  0  0  0  0  0  0
    0.7857   -3.9726   -0.0294 C   0  0  0  0  0  0  0  0  0  0  0  0
    1.6010   -3.6143   -1.2371 C   0  0  0  0  0  0  0  0  0  0  0  0
    3.0963   -3.7465   -0.9874 C   0  0  0  0  0  0  0  0  0  0  0  0
   -0.7947   -4.5341   -0.0713 S   0  0  0  0  0  0  0  0  0  0  0  0
   -2.1345   -6.0182    3.3462 C   0  0  0  0  0  0  0  0  0  0  0  0
   -3.2442   -6.4639    4.0718 C   0  0  0  0  0  0  0  0  0  0  0  0
   -4.5509   -5.9775    3.7333 C   0  0  0  0  0  0  0  0  0  0  0  0
   -5.7836   -6.4790    4.4336 C   0  0  0  0  0  0  0  0  0  0  0  0
   -5.9948   -7.7523    4.9596 C   0  0  0  0  0  0  0  0  0  0  0  0
   -7.2655   -7.9064    5.5627 C   0  0  0  0  0  0  0  0  0  0  0  0
   -8.0594   -6.7706    5.4945 C   0  0  0  0  0  0  0  0  0  0  0  0
   -9.4958   -6.6979    5.9296 C   0  0  0  0  0  0  0  0  0  0  0  0
   -9.9925   -5.2529    6.0260 C   0  0  0  0  0  0  0  0  0  0  0  0
   -7.1859   -5.5960    4.6703 S   0  0  0  0  0  0  0  0  0  0  0  0
   -4.6201   -5.0185    2.7077 C   0  0  0  0  0  0  0  0  0  0  0  0
   -5.9606   -4.2003    2.0974 S   0  0  0  0  0  0  0  0  0  0  0  0
   -2.8754   -7.3025    5.1410 C   0  0  0  0  0  0  0  0  0  0  0  0
   -1.5121   -7.6028    5.1838 C   0  0  0  0  0  0  0  0  0  0  0  0
   -0.7577   -6.7772    3.9449 S   0  0  0  0  0  0  0  0  0  0  0  0
    4.9047   -2.3502   14.1925 H   0  0  0  0  0  0  0  0  0  0  0  0
    6.5203   -0.7170   12.9877 H   0  0  0  0  0  0  0  0  0  0  0  0
    6.6343    1.6757   12.3578 H   0  0  0  0  0  0  0  0  0  0  0  0
    8.9289    2.8561   12.3800 H   0  0  0  0  0  0  0  0  0  0  0  0
   11.4328    2.3099   11.3124 H   0  0  0  0  0  0  0  0  0  0  0  0
   11.3984    1.6402    9.6203 H   0  0  0  0  0  0  0  0  0  0  0  0
   10.3247    4.4020   10.5400 H   0  0  0  0  0  0  0  0  0  0  0  0
   10.1559    3.7155    8.8667 H   0  0  0  0  0  0  0  0  0  0  0  0
   11.7959    4.0632    9.5528 H   0  0  0  0  0  0  0  0  0  0  0  0
    3.3732   -3.4684    7.2704 H   0  0  0  0  0  0  0  0  0  0  0  0
    1.2488   -4.9328    7.1890 H   0  0  0  0  0  0  0  0  0  0  0  0
   -1.2907   -4.7043    8.1582 H   0  0  0  0  0  0  0  0  0  0  0  0
   -1.4600   -3.9552    9.7902 H   0  0  0  0  0  0  0  0  0  0  0  0
   -1.5854   -6.5402    9.6731 H   0  0  0  0  0  0  0  0  0  0  0  0
   -0.4055   -5.8679   10.8680 H   0  0  0  0  0  0  0  0  0  0  0  0
    0.1623   -6.5217    9.2595 H   0  0  0  0  0  0  0  0  0  0  0  0
    3.1698   -1.0336    6.7040 H   0  0  0  0  0  0  0  0  0  0  0  0
    6.7947    1.1634    4.5547 H   0  0  0  0  0  0  0  0  0  0  0  0
    7.9589   -0.8274    2.0062 H   0  0  0  0  0  0  0  0  0  0  0  0
   10.3397   -0.4286    2.8510 H   0  0  0  0  0  0  0  0  0  0  0  0
   12.0183    1.5981    3.4260 H   0  0  0  0  0  0  0  0  0  0  0  0
   11.2241    3.1910    3.7342 H   0  0  0  0  0  0  0  0  0  0  0  0
   12.5580    3.6127    1.8080 H   0  0  0  0  0  0  0  0  0  0  0  0
   10.9058    3.4090    1.1470 H   0  0  0  0  0  0  0  0  0  0  0  0
   12.0942    2.0457    1.0114 H   0  0  0  0  0  0  0  0  0  0  0  0
    2.1229   -0.7018   -0.4166 H   0  0  0  0  0  0  0  0  0  0  0  0
   -0.3490   -1.3730   -0.0633 H   0  0  0  0  0  0  0  0  0  0  0  0
   -2.3358    0.5862    2.3366 H   0  0  0  0  0  0  0  0  0  0  0  0
   -2.3447   -0.9770    1.4667 H   0  0  0  0  0  0  0  0  0  0  0  0
   -1.4373   -0.4113    4.3427 H   0  0  0  0  0  0  0  0  0  0  0  0
   -2.7369   -1.5360    3.7658 H   0  0  0  0  0  0  0  0  0  0  0  0
   -0.9850   -1.9364    3.4856 H   0  0  0  0  0  0  0  0  0  0  0  0
    2.8051    1.3541   -1.3336 H   0  0  0  0  0  0  0  0  0  0  0  0
    3.4640   -0.2495   -3.4077 H   0  0  0  0  0  0  0  0  0  0  0  0
    1.1390    0.0181   -3.4716 H   0  0  0  0  0  0  0  0  0  0  0  0
   -0.4137   -1.9929   -3.1189 H   0  0  0  0  0  0  0  0  0  0  0  0
   -0.9779   -4.2806   -4.1801 H   0  0  0  0  0  0  0  0  0  0  0  0
   -0.3876   -4.6592   -5.8443 H   0  0  0  0  0  0  0  0  0  0  0  0
   -2.8810   -4.4014   -5.7531 H   0  0  0  0  0  0  0  0  0  0  0  0
   -2.7019   -2.6968   -5.1459 H   0  0  0  0  0  0  0  0  0  0  0  0
   -2.1091   -3.1195   -6.7889 H   0  0  0  0  0  0  0  0  0  0  0  0
    3.0891    5.2076   -5.5554 H   0  0  0  0  0  0  0  0  0  0  0  0
    3.9963    7.4001   -6.5679 H   0  0  0  0  0  0  0  0  0  0  0  0
    5.0461    8.2702   -8.8680 H   0  0  0  0  0  0  0  0  0  0  0  0
    6.6256    7.4101   -8.5162 H   0  0  0  0  0  0  0  0  0  0  0  0
    4.8528    6.5486  -10.9095 H   0  0  0  0  0  0  0  0  0  0  0  0
    6.5758    6.1561  -10.4921 H   0  0  0  0  0  0  0  0  0  0  0  0
    6.1493    7.8203  -10.9829 H   0  0  0  0  0  0  0  0  0  0  0  0
    2.1842    3.7442   -9.0846 H   0  0  0  0  0  0  0  0  0  0  0  0
   -4.4422    0.2043  -12.2918 H   0  0  0  0  0  0  0  0  0  0  0  0
   -2.7792    0.1230  -11.7302 H   0  0  0  0  0  0  0  0  0  0  0  0
   -2.2264    2.1287  -13.2924 H   0  0  0  0  0  0  0  0  0  0  0  0
   -2.7936    0.6106  -14.1324 H   0  0  0  0  0  0  0  0  0  0  0  0
   -3.9042    1.9634  -13.9355 H   0  0  0  0  0  0  0  0  0  0  0  0
   -5.1589    3.6512  -10.7640 H   0  0  0  0  0  0  0  0  0  0  0  0
   -4.4841    3.5183  -12.3977 H   0  0  0  0  0  0  0  0  0  0  0  0
   -6.6142    1.5772  -11.1797 H   0  0  0  0  0  0  0  0  0  0  0  0
   -7.0038    2.9996  -12.2011 H   0  0  0  0  0  0  0  0  0  0  0  0
   -6.0944    1.6612  -12.9087 H   0  0  0  0  0  0  0  0  0  0  0  0
   -0.9523    1.4716  -11.3456 H   0  0  0  0  0  0  0  0  0  0  0  0
   -6.4032    0.7451   -7.8420 H   0  0  0  0  0  0  0  0  0  0  0  0
   -7.3966    0.3500   -5.7396 H   0  0  0  0  0  0  0  0  0  0  0  0
   -7.2318   -3.5643   -3.6728 H   0  0  0  0  0  0  0  0  0  0  0  0
   -9.2066   -4.5607   -4.9895 H   0  0  0  0  0  0  0  0  0  0  0  0
  -11.2360   -3.8139   -6.4714 H   0  0  0  0  0  0  0  0  0  0  0  0
  -11.4817   -2.0220   -6.6830 H   0  0  0  0  0  0  0  0  0  0  0  0
  -12.4006   -3.7923   -4.3364 H   0  0  0  0  0  0  0  0  0  0  0  0
  -13.4414   -2.9608   -5.5400 H   0  0  0  0  0  0  0  0  0  0  0  0
  -12.5020   -1.9726   -4.3572 H   0  0  0  0  0  0  0  0  0  0  0  0
   -6.3470    3.3665   -0.4777 H   0  0  0  0  0  0  0  0  0  0  0  0
   -4.7449    4.7263    1.0218 H   0  0  0  0  0  0  0  0  0  0  0  0
   -1.1404    3.2474    1.2194 H   0  0  0  0  0  0  0  0  0  0  0  0
   -2.2616    4.1132    2.3208 H   0  0  0  0  0  0  0  0  0  0  0  0
   -2.5446    5.8908    0.4543 H   0  0  0  0  0  0  0  0  0  0  0  0
   -1.2851    4.9681   -0.4871 H   0  0  0  0  0  0  0  0  0  0  0  0
   -0.8557    5.7440    1.0859 H   0  0  0  0  0  0  0  0  0  0  0  0
   -4.4713   -0.4661    0.5476 H   0  0  0  0  0  0  0  0  0  0  0  0
   -3.0316   -3.0430    0.5125 H   0  0  0  0  0  0  0  0  0  0  0  0
    0.3038   -4.1168    3.2771 H   0  0  0  0  0  0  0  0  0  0  0  0
    2.1185   -3.4359    1.6317 H   0  0  0  0  0  0  0  0  0  0  0  0
    1.3232   -4.2791   -2.0863 H   0  0  0  0  0  0  0  0  0  0  0  0
    1.3804   -2.5548   -1.5283 H   0  0  0  0  0  0  0  0  0  0  0  0
    3.3389   -4.7955   -0.6839 H   0  0  0  0  0  0  0  0  0  0  0  0
    3.6609   -3.4930   -1.9121 H   0  0  0  0  0  0  0  0  0  0  0  0
    3.4214   -3.0449   -0.1879 H   0  0  0  0  0  0  0  0  0  0  0  0
   -5.2966   -8.5764    4.8872 H   0  0  0  0  0  0  0  0  0  0  0  0
   -7.5806   -8.8179    6.0319 H   0  0  0  0  0  0  0  0  0  0  0  0
  -10.1338   -7.2417    5.1964 H   0  0  0  0  0  0  0  0  0  0  0  0
   -9.6280   -7.1831    6.9304 H   0  0  0  0  0  0  0  0  0  0  0  0
  -10.9913   -5.2355    6.5072 H   0  0  0  0  0  0  0  0  0  0  0  0
  -10.0737   -4.8306    5.0043 H   0  0  0  0  0  0  0  0  0  0  0  0
   -9.3018   -4.6406    6.6440 H   0  0  0  0  0  0  0  0  0  0  0  0
   -3.5584   -7.6067    5.9098 H   0  0  0  0  0  0  0  0  0  0  0  0
   -1.0388   -8.2230    5.9310 H   0  0  0  0  0  0  0  0  0  0  0  0
  1  2  2  0
  2  3  1  0
  3  4  2  0
  4  5  1  0
  5  6  2  0
  6  7  1  0
  7  8  2  0
  8  9  1  0
  9 10  1  0
  8 11  1  0
  4 12  1  0
 12 13  2  0
 13 14  1  0
 14 15  1  0
 15 16  2  0
 16 17  1  0
 17 18  2  0
 18 19  1  0
 19 20  1  0
 18 21  1  0
 14 22  2  0
 22 23  1  0
 13 24  1  0
 24 25  2  0
 25 26  1  0
 25 27  1  0
 27 28  2  0
 28 29  1  0
 29 30  2  0
 30 31  1  0
 31 32  2  0
 32 33  1  0
 33 34  2  0
 34 35  1  0
 35 36  1  0
 34 37  1  0
 30 38  1  0
 38 39  2  0
 39 40  1  0
 40 41  1  0
 41 42  2  0
 42 43  1  0
 43 44  2  0
 44 45  1  0
 45 46  1  0
 44 47  1  0
 40 48  2  0
 48 49  1  0
 39 50  1  0
 50 51  2  0
 51 52  1  0
 51 53  1  0
 53 54  2  0
 54 55  1  0
 55 56  2  0
 56 57  1  0
 57 58  2  0
 58 59  1  0
 59 60  2  0
 60 61  1  0
 61 62  1  0
 60 63  1  0
 56 64  1  0
 64 65  2  0
 65 66  1  0
 66 67  1  0
 67 68  2  0
 68 69  1  0
 69 70  2  0
 70 71  1  0
 71 72  1  0
 70 73  1  0
 66 74  2  0
 74 75  1  0
 65 76  1  0
 76 77  2  0
 77 78  1  0
 77 79  1  0
 79 80  1  0
 80 81  1  0
 81 82  1  0
 82 83  2  0
 83 84  1  0
 84 85  1  0
 85 86  1  0
 86 87  1  0
 85 88  1  0
 88 89  1  0
 85 90  1  0
 90 91  1  0
 83 92  1  0
 92 93  2  0
 93 94  1  0
 93 95  1  0
 95 96  2  0
 96 97  1  0
 97 98  2  0
 98 99  1  0
 99100  2  0
100101  1  0
101102  2  0
102103  1  0
103104  1  0
102105  1  0
 98106  1  0
106107  2  0
107108  1  0
108109  1  0
109110  2  0
110111  1  0
111112  2  0
112113  1  0
113114  1  0
112115  1  0
108116  2  0
116117  1  0
107118  1  0
118119  2  0
119120  1  0
119121  1  0
121122  2  0
122123  1  0
123124  2  0
124125  1  0
125126  2  0
126127  1  0
127128  2  0
128129  1  0
129130  1  0
128131  1  0
124132  1  0
132133  2  0
133134  1  0
134135  1  0
135136  2  0
136137  1  0
137138  2  0
138139  1  0
139140  1  0
138141  1  0
134142  2  0
142143  1  0
133144  1  0
144145  2  0
145146  1  0
 23  1  1  0
 49 27  1  0
 75 53  1  0
 91 79  2  0
117 95  1  0
143121  1  0
 22  3  1  0
 48 29  1  0
 74 55  1  0
 90 81  2  0
116 97  1  0
142123  1  0
 11  5  1  0
 26 12  1  0
 37 31  1  0
 52 38  1  0
 63 57  1  0
 78 64  1  0
 94 82  1  0
105 99  1  0
120106  1  0
131125  1  0
146132  1  0
 21 15  1  0
 47 41  1  0
 73 67  1  0
115109  1  0
141135  1  0
  1147  1  0
  2148  1  0
  6149  1  0
  7150  1  0
  9151  1  0
  9152  1  0
 10153  1  0
 10154  1  0
 10155  1  0
 16156  1  0
 17157  1  0
 19158  1  0
 19159  1  0
 20160  1  0
 20161  1  0
 20162  1  0
 24163  1  0
 28164  1  0
 32165  1  0
 33166  1  0
 35167  1  0
 35168  1  0
 36169  1  0
 36170  1  0
 36171  1  0
 42172  1  0
 43173  1  0
 45174  1  0
 45175  1  0
 46176  1  0
 46177  1  0
 46178  1  0
 50179  1  0
 54180  1  0
 58181  1  0
 59182  1  0
 61183  1  0
 61184  1  0
 62185  1  0
 62186  1  0
 62187  1  0
 68188  1  0
 69189  1  0
 71190  1  0
 71191  1  0
 72192  1  0
 72193  1  0
 72194  1  0
 76195  1  0
 86196  1  0
 86197  1  0
 87198  1  0
 87199  1  0
 87200  1  0
 88201  1  0
 88202  1  0
 89203  1  0
 89204  1  0
 89205  1  0
 91206  1  0
 92207  1  0
 96208  1  0
100209  1  0
101210  1  0
103211  1  0
103212  1  0
104213  1  0
104214  1  0
104215  1  0
110216  1  0
111217  1  0
113218  1  0
113219  1  0
114220  1  0
114221  1  0
114222  1  0
118223  1  0
122224  1  0
126225  1  0
127226  1  0
129227  1  0
129228  1  0
130229  1  0
130230  1  0
130231  1  0
136232  1  0
137233  1  0
139234  1  0
139235  1  0
140236  1  0
140237  1  0
140238  1  0
144239  1  0
145240  1  0
M  END

