
     RDKit          3D

145162  0  0  0  0  0  0  0  0999 V2000
    0.5023    1.2277   11.1465 C   0  0  0  0  0  0  0  0  0  0  0  0
   -1.0440    1.3382   10.4939 S   0  0  0  0  0  0  0  0  0  0  0  0
   -0.6175    1.9209    8.9678 C   0  0  0  0  0  0  0  0  0  0  0  0
    0.7770    2.0277    8.9442 C   0  0  0  0  0  0  0  0  0  0  0  0
    1.3942    1.6295   10.1621 C   0  0  0  0  0  0  0  0  0  0  0  0
    2.7921    1.6168   10.3010 C   0  0  0  0  0  0  0  0  0  0  0  0
    3.5432    2.0274    9.1988 C   0  0  0  0  0  0  0  0  0  0  0  0
    4.9882    2.0848    9.0031 C   0  0  0  0  0  0  0  0  0  0  0  0
    5.8606    1.7780    9.8576 O   0  0  0  0  0  0  0  0  0  0  0  0
    5.2811    2.5356    7.6796 N   0  0  0  0  0  0  0  0  0  0  0  0
    6.5942    2.8687    7.1298 C   0  0  0  0  0  0  0  0  0  0  0  0
    6.9810    4.2941    7.5011 C   0  0  0  0  0  0  0  0  0  0  0  0
    4.0093    2.7874    7.0816 C   0  0  0  0  0  0  0  0  0  0  0  0
    3.8471    3.2348    5.9148 O   0  0  0  0  0  0  0  0  0  0  0  0
    2.9463    2.4537    8.0229 C   0  0  0  0  0  0  0  0  0  0  0  0
    1.5600    2.4738    7.8618 C   0  0  0  0  0  0  0  0  0  0  0  0
   -1.5436    2.0304    7.8203 C   0  0  0  0  0  0  0  0  0  0  0  0
   -1.1848    1.4937    6.2673 S   0  0  0  0  0  0  0  0  0  0  0  0
   -2.6925    1.7372    5.5706 C   0  0  0  0  0  0  0  0  0  0  0  0
   -3.5454    2.2109    6.5734 C   0  0  0  0  0  0  0  0  0  0  0  0
   -2.8939    2.3954    7.8301 C   0  0  0  0  0  0  0  0  0  0  0  0
   -3.6001    2.9115    8.9345 C   0  0  0  0  0  0  0  0  0  0  0  0
   -4.9591    3.1693    8.7634 C   0  0  0  0  0  0  0  0  0  0  0  0
   -5.9523    3.6729    9.7044 C   0  0  0  0  0  0  0  0  0  0  0  0
   -5.7224    4.0494   10.8836 O   0  0  0  0  0  0  0  0  0  0  0  0
   -7.2410    3.7034    9.0881 N   0  0  0  0  0  0  0  0  0  0  0  0
   -8.4329    4.3842    9.5886 C   0  0  0  0  0  0  0  0  0  0  0  0
   -8.4304    5.8461    9.1619 C   0  0  0  0  0  0  0  0  0  0  0  0
   -7.0140    3.2573    7.7490 C   0  0  0  0  0  0  0  0  0  0  0  0
   -7.9081    3.1872    6.8634 O   0  0  0  0  0  0  0  0  0  0  0  0
   -5.6050    2.9271    7.5646 C   0  0  0  0  0  0  0  0  0  0  0  0
   -4.9297    2.4452    6.4434 C   0  0  0  0  0  0  0  0  0  0  0  0
   -2.9562    1.5341    4.1330 C   0  0  0  0  0  0  0  0  0  0  0  0
   -2.0087    0.5424    3.1476 S   0  0  0  0  0  0  0  0  0  0  0  0
   -2.7412    1.0098    1.7187 C   0  0  0  0  0  0  0  0  0  0  0  0
   -2.3826    0.6521    0.3661 C   0  0  0  0  0  0  0  0  0  0  0  0
   -3.0487    1.2162   -0.6921 C   0  0  0  0  0  0  0  0  0  0  0  0
   -4.1052    2.1175   -0.4877 O   0  0  0  0  0  0  0  0  0  0  0  0
   -4.4998    2.6181    0.8175 C   0  0  0  0  0  0  0  0  0  0  0  0
   -4.2586    4.1481    0.8331 C   0  0  0  0  0  0  0  0  0  0  0  0
   -2.7968    4.5287    0.5839 C   0  0  0  0  0  0  0  0  0  0  0  0
   -6.0135    2.3457    0.9953 C   0  0  0  0  0  0  0  0  0  0  0  0
   -6.3596    0.8536    0.9639 C   0  0  0  0  0  0  0  0  0  0  0  0
   -3.7191    1.9551    1.9633 C   0  0  0  0  0  0  0  0  0  0  0  0
   -3.8391    2.2627    3.3287 C   0  0  0  0  0  0  0  0  0  0  0  0
   -2.5613    0.8160   -1.9383 C   0  0  0  0  0  0  0  0  0  0  0  0
   -1.4730   -0.0562   -1.8224 C   0  0  0  0  0  0  0  0  0  0  0  0
   -1.1590   -0.3479   -0.1859 S   0  0  0  0  0  0  0  0  0  0  0  0
   -0.7200   -0.6889   -2.9181 C   0  0  0  0  0  0  0  0  0  0  0  0
   -0.0654   -2.2368   -2.8160 S   0  0  0  0  0  0  0  0  0  0  0  0
    0.6688   -2.2721   -4.3261 C   0  0  0  0  0  0  0  0  0  0  0  0
    0.4049   -1.0564   -4.9594 C   0  0  0  0  0  0  0  0  0  0  0  0
   -0.3607   -0.1562   -4.1614 C   0  0  0  0  0  0  0  0  0  0  0  0
   -0.6465    1.1432   -4.6245 C   0  0  0  0  0  0  0  0  0  0  0  0
   -0.2008    1.4802   -5.9032 C   0  0  0  0  0  0  0  0  0  0  0  0
   -0.3136    2.7323   -6.6423 C   0  0  0  0  0  0  0  0  0  0  0  0
   -0.8566    3.7868   -6.2195 O   0  0  0  0  0  0  0  0  0  0  0  0
    0.3042    2.6040   -7.9258 N   0  0  0  0  0  0  0  0  0  0  0  0
    0.6740    3.6980   -8.8208 C   0  0  0  0  0  0  0  0  0  0  0  0
    1.9990    4.3180   -8.3874 C   0  0  0  0  0  0  0  0  0  0  0  0
    0.8371    1.2768   -7.9383 C   0  0  0  0  0  0  0  0  0  0  0  0
    1.5197    0.7950   -8.8811 O   0  0  0  0  0  0  0  0  0  0  0  0
    0.5017    0.5899   -6.6955 C   0  0  0  0  0  0  0  0  0  0  0  0
    0.8219   -0.6959   -6.2561 C   0  0  0  0  0  0  0  0  0  0  0  0
    1.4496   -3.4176   -4.8183 C   0  0  0  0  0  0  0  0  0  0  0  0
    0.9460   -5.0158   -4.6725 S   0  0  0  0  0  0  0  0  0  0  0  0
    2.3467   -5.7559   -5.2489 C   0  0  0  0  0  0  0  0  0  0  0  0
    3.2684   -4.7405   -5.5302 C   0  0  0  0  0  0  0  0  0  0  0  0
    2.7698   -3.4301   -5.2715 C   0  0  0  0  0  0  0  0  0  0  0  0
    3.6052   -2.3037   -5.4005 C   0  0  0  0  0  0  0  0  0  0  0  0
    4.9079   -2.5217   -5.8519 C   0  0  0  0  0  0  0  0  0  0  0  0
    6.0045   -1.5849   -6.0645 C   0  0  0  0  0  0  0  0  0  0  0  0
    5.9616   -0.3448   -5.8431 O   0  0  0  0  0  0  0  0  0  0  0  0
    7.1624   -2.2785   -6.5349 N   0  0  0  0  0  0  0  0  0  0  0  0
    8.5358   -1.7761   -6.5109 C   0  0  0  0  0  0  0  0  0  0  0  0
    9.1573   -1.9921   -5.1347 C   0  0  0  0  0  0  0  0  0  0  0  0
    6.7710   -3.6537   -6.5609 C   0  0  0  0  0  0  0  0  0  0  0  0
    7.5416   -4.6045   -6.8590 O   0  0  0  0  0  0  0  0  0  0  0  0
    5.3774   -3.7884   -6.1522 C   0  0  0  0  0  0  0  0  0  0  0  0
    4.5843   -4.9263   -6.0014 C   0  0  0  0  0  0  0  0  0  0  0  0
    2.5870   -7.2127   -5.2057 C   0  0  0  0  0  0  0  0  0  0  0  0
    3.9895   -7.9410   -4.6104 S   0  0  0  0  0  0  0  0  0  0  0  0
    3.4644   -9.5389   -4.6561 C   0  0  0  0  0  0  0  0  0  0  0  0
    2.1576   -9.5292   -5.1246 C   0  0  0  0  0  0  0  0  0  0  0  0
    1.6587   -8.2334   -5.4355 C   0  0  0  0  0  0  0  0  0  0  0  0
    0.3474   -8.0735   -5.9263 C   0  0  0  0  0  0  0  0  0  0  0  0
   -0.4299   -9.2266   -6.0618 C   0  0  0  0  0  0  0  0  0  0  0  0
   -1.8103   -9.3887   -6.5060 C   0  0  0  0  0  0  0  0  0  0  0  0
   -2.5778   -8.4612   -6.8798 O   0  0  0  0  0  0  0  0  0  0  0  0
   -2.1793  -10.7685   -6.4482 N   0  0  0  0  0  0  0  0  0  0  0  0
   -3.4411  -11.3621   -6.8907 C   0  0  0  0  0  0  0  0  0  0  0  0
   -3.4241  -11.5753   -8.4009 C   0  0  0  0  0  0  0  0  0  0  0  0
   -1.0099  -11.4468   -5.9918 C   0  0  0  0  0  0  0  0  0  0  0  0
   -0.9263  -12.6959   -5.8435 O   0  0  0  0  0  0  0  0  0  0  0  0
    0.0591  -10.4853   -5.7467 C   0  0  0  0  0  0  0  0  0  0  0  0
    1.3576  -10.6750   -5.2746 C   0  0  0  0  0  0  0  0  0  0  0  0
    0.7551    0.8757   12.1397 H   0  0  0  0  0  0  0  0  0  0  0  0
    3.2703    1.2840   11.2113 H   0  0  0  0  0  0  0  0  0  0  0  0
    7.3510    2.1607    7.5260 H   0  0  0  0  0  0  0  0  0  0  0  0
    6.5747    2.7630    6.0241 H   0  0  0  0  0  0  0  0  0  0  0  0
    6.2534    5.0113    7.0634 H   0  0  0  0  0  0  0  0  0  0  0  0
    6.9917    4.4104    8.6062 H   0  0  0  0  0  0  0  0  0  0  0  0
    7.9965    4.5167    7.1039 H   0  0  0  0  0  0  0  0  0  0  0  0
    1.1255    2.8203    6.9340 H   0  0  0  0  0  0  0  0  0  0  0  0
   -3.1199    3.1148    9.8815 H   0  0  0  0  0  0  0  0  0  0  0  0
   -8.4637    4.3170   10.6979 H   0  0  0  0  0  0  0  0  0  0  0  0
   -9.3402    3.8816    9.1909 H   0  0  0  0  0  0  0  0  0  0  0  0
   -8.4224    5.9215    8.0532 H   0  0  0  0  0  0  0  0  0  0  0  0
   -9.3447    6.3478    9.5480 H   0  0  0  0  0  0  0  0  0  0  0  0
   -7.5350    6.3633    9.5720 H   0  0  0  0  0  0  0  0  0  0  0  0
   -5.4746    2.2311    5.5351 H   0  0  0  0  0  0  0  0  0  0  0  0
   -4.5815    4.5825    1.8053 H   0  0  0  0  0  0  0  0  0  0  0  0
   -4.8760    4.6265    0.0405 H   0  0  0  0  0  0  0  0  0  0  0  0
   -2.1353    4.0900    1.3598 H   0  0  0  0  0  0  0  0  0  0  0  0
   -2.6940    5.6334    0.6230 H   0  0  0  0  0  0  0  0  0  0  0  0
   -2.4679    4.1832   -0.4177 H   0  0  0  0  0  0  0  0  0  0  0  0
   -6.3739    2.7735    1.9563 H   0  0  0  0  0  0  0  0  0  0  0  0
   -6.5776    2.8451    0.1756 H   0  0  0  0  0  0  0  0  0  0  0  0
   -5.9966    0.3844    0.0233 H   0  0  0  0  0  0  0  0  0  0  0  0
   -5.9086    0.3296    1.8325 H   0  0  0  0  0  0  0  0  0  0  0  0
   -7.4622    0.7272    1.0148 H   0  0  0  0  0  0  0  0  0  0  0  0
   -4.4905    3.0411    3.6975 H   0  0  0  0  0  0  0  0  0  0  0  0
   -2.9989    1.1312   -2.8756 H   0  0  0  0  0  0  0  0  0  0  0  0
   -1.1631    1.8744   -4.0213 H   0  0  0  0  0  0  0  0  0  0  0  0
   -0.1206    4.4751   -8.8033 H   0  0  0  0  0  0  0  0  0  0  0  0
    0.7627    3.3166   -9.8612 H   0  0  0  0  0  0  0  0  0  0  0  0
    2.8167    3.5719   -8.4845 H   0  0  0  0  0  0  0  0  0  0  0  0
    1.9377    4.6573   -7.3328 H   0  0  0  0  0  0  0  0  0  0  0  0
    2.2306    5.1883   -9.0337 H   0  0  0  0  0  0  0  0  0  0  0  0
    1.3793   -1.3743   -6.8892 H   0  0  0  0  0  0  0  0  0  0  0  0
    3.2727   -1.3066   -5.1437 H   0  0  0  0  0  0  0  0  0  0  0  0
    9.1379   -2.3023   -7.2805 H   0  0  0  0  0  0  0  0  0  0  0  0
    8.5410   -0.6923   -6.7542 H   0  0  0  0  0  0  0  0  0  0  0  0
    8.5465   -1.4940   -4.3534 H   0  0  0  0  0  0  0  0  0  0  0  0
   10.1831   -1.5642   -5.1160 H   0  0  0  0  0  0  0  0  0  0  0  0
    9.2196   -3.0782   -4.9090 H   0  0  0  0  0  0  0  0  0  0  0  0
    4.9824   -5.9028   -6.2354 H   0  0  0  0  0  0  0  0  0  0  0  0
    4.0333  -10.4081   -4.3538 H   0  0  0  0  0  0  0  0  0  0  0  0
   -0.0547   -7.1082   -6.1972 H   0  0  0  0  0  0  0  0  0  0  0  0
   -3.5971  -12.3356   -6.3781 H   0  0  0  0  0  0  0  0  0  0  0  0
   -4.2850  -10.6883   -6.6177 H   0  0  0  0  0  0  0  0  0  0  0  0
   -3.2358  -10.6141   -8.9193 H   0  0  0  0  0  0  0  0  0  0  0  0
   -2.6263  -12.3015   -8.6726 H   0  0  0  0  0  0  0  0  0  0  0  0
   -4.4055  -11.9756   -8.7312 H   0  0  0  0  0  0  0  0  0  0  0  0
    1.7261  -11.6618   -5.0256 H   0  0  0  0  0  0  0  0  0  0  0  0
  1  2  1  0
  2  3  1  0
  3  4  2  0
  4  5  1  0
  5  6  1  0
  6  7  2  0
  7  8  1  0
  8  9  2  0
  8 10  1  0
 10 11  1  0
 11 12  1  0
 10 13  1  0
 13 14  2  0
 13 15  1  0
 15 16  2  0
  3 17  1  0
 17 18  1  0
 18 19  1  0
 19 20  2  0
 20 21  1  0
 21 22  1  0
 22 23  2  0
 23 24  1  0
 24 25  2  0
 24 26  1  0
 26 27  1  0
 27 28  1  0
 26 29  1  0
 29 30  2  0
 29 31  1  0
 31 32  2  0
 19 33  1  0
 33 34  1  0
 34 35  1  0
 35 36  1  0
 36 37  2  0
 37 38  1  0
 38 39  1  0
 39 40  1  0
 40 41  1  0
 39 42  1  0
 42 43  1  0
 39 44  1  0
 44 45  1  0
 37 46  1  0
 46 47  2  0
 47 48  1  0
 47 49  1  0
 49 50  1  0
 50 51  1  0
 51 52  2  0
 52 53  1  0
 53 54  1  0
 54 55  2  0
 55 56  1  0
 56 57  2  0
 56 58  1  0
 58 59  1  0
 59 60  1  0
 58 61  1  0
 61 62  2  0
 61 63  1  0
 63 64  2  0
 51 65  1  0
 65 66  1  0
 66 67  1  0
 67 68  2  0
 68 69  1  0
 69 70  1  0
 70 71  2  0
 71 72  1  0
 72 73  2  0
 72 74  1  0
 74 75  1  0
 75 76  1  0
 74 77  1  0
 77 78  2  0
 77 79  1  0
 79 80  2  0
 67 81  1  0
 81 82  1  0
 82 83  1  0
 83 84  2  0
 84 85  1  0
 85 86  1  0
 86 87  2  0
 87 88  1  0
 88 89  2  0
 88 90  1  0
 90 91  1  0
 91 92  1  0
 90 93  1  0
 93 94  2  0
 93 95  1  0
 95 96  2  0
  5  1  2  0
 15  7  1  0
 21 17  2  0
 31 23  1  0
 45 33  2  0
 53 49  2  0
 63 55  1  0
 69 65  2  0
 79 71  1  0
 85 81  2  0
 95 87  1  0
 16  4  1  0
 32 20  1  0
 44 35  2  0
 64 52  1  0
 80 68  1  0
 96 84  1  0
 48 36  1  0
  1 97  1  0
  6 98  1  0
 11 99  1  0
 11100  1  0
 12101  1  0
 12102  1  0
 12103  1  0
 16104  1  0
 22105  1  0
 27106  1  0
 27107  1  0
 28108  1  0
 28109  1  0
 28110  1  0
 32111  1  0
 40112  1  0
 40113  1  0
 41114  1  0
 41115  1  0
 41116  1  0
 42117  1  0
 42118  1  0
 43119  1  0
 43120  1  0
 43121  1  0
 45122  1  0
 46123  1  0
 54124  1  0
 59125  1  0
 59126  1  0
 60127  1  0
 60128  1  0
 60129  1  0
 64130  1  0
 70131  1  0
 75132  1  0
 75133  1  0
 76134  1  0
 76135  1  0
 76136  1  0
 80137  1  0
 83138  1  0
 86139  1  0
 91140  1  0
 91141  1  0
 92142  1  0
 92143  1  0
 92144  1  0
 96145  1  0
M  END

