
     RDKit          3D

188199  0  0  0  0  0  0  0  0999 V2000
   -3.6392    0.7416    5.5112 N   0  0  0  0  0  0  0  0  0  0  0  0
   -4.0133   -0.0973    4.3817 C   0  0  0  0  0  0  0  0  0  0  0  0
   -3.0500    0.0474    3.2194 C   0  0  0  0  0  0  0  0  0  0  0  0
   -1.6842    0.3582    3.4145 C   0  0  0  0  0  0  0  0  0  0  0  0
   -0.8062    0.2855    2.3117 C   0  0  0  0  0  0  0  0  0  0  0  0
    0.5418    0.7084    2.4001 O   0  0  0  0  0  0  0  0  0  0  0  0
    1.2217    1.0536    3.5872 C   0  0  0  0  0  0  0  0  0  0  0  0
    2.6303    1.5067    3.2109 C   0  0  0  0  0  0  0  0  0  0  0  0
   -1.2623   -0.1880    1.0732 C   0  0  0  0  0  0  0  0  0  0  0  0
   -2.6116   -0.4840    0.8956 C   0  0  0  0  0  0  0  0  0  0  0  0
   -3.4959   -0.3304    1.9622 C   0  0  0  0  0  0  0  0  0  0  0  0
   -4.9046   -0.4574    1.7938 O   0  0  0  0  0  0  0  0  0  0  0  0
   -5.6689   -1.5275    1.2385 C   0  0  0  0  0  0  0  0  0  0  0  0
   -6.6167   -1.9710    2.3353 C   0  0  0  0  0  0  0  0  0  0  0  0
   -0.3453   -0.2316   -0.1005 C   0  0  0  0  0  0  0  0  0  0  0  0
    0.8838   -0.9555    0.2338 N   0  0  0  0  0  0  0  0  0  0  0  0
    1.8434   -0.5992   -0.7426 N   0  0  0  0  0  0  0  0  0  0  0  0
    3.1672   -1.0889   -0.3347 C   0  0  0  0  0  0  0  0  0  0  0  0
    4.2030   -0.7600   -1.3713 C   0  0  0  0  0  0  0  0  0  0  0  0
    4.0739    0.4369   -2.0943 C   0  0  0  0  0  0  0  0  0  0  0  0
    4.9985    0.7669   -3.1142 C   0  0  0  0  0  0  0  0  0  0  0  0
    4.7911    1.8900   -3.9294 O   0  0  0  0  0  0  0  0  0  0  0  0
    3.7019    2.7680   -3.7199 C   0  0  0  0  0  0  0  0  0  0  0  0
    3.6289    3.8060   -4.8019 C   0  0  0  0  0  0  0  0  0  0  0  0
    6.1285   -0.0697   -3.3206 C   0  0  0  0  0  0  0  0  0  0  0  0
    6.1887   -1.2774   -2.6089 C   0  0  0  0  0  0  0  0  0  0  0  0
    5.2747   -1.6002   -1.6058 C   0  0  0  0  0  0  0  0  0  0  0  0
    5.4599   -2.7136   -0.7735 O   0  0  0  0  0  0  0  0  0  0  0  0
    6.5555   -3.6176   -0.9157 C   0  0  0  0  0  0  0  0  0  0  0  0
    7.8786   -2.9988   -0.5093 C   0  0  0  0  0  0  0  0  0  0  0  0
    7.0694    0.0782   -4.5126 C   0  0  0  0  0  0  0  0  0  0  0  0
    7.3551   -1.2134   -5.1880 N   0  0  0  0  0  0  0  0  0  0  0  0
    6.2126   -1.9424   -5.7113 C   0  0  0  0  0  0  0  0  0  0  0  0
    4.6688   -1.2813   -5.9520 S   0  0  0  0  0  0  0  0  0  0  0  0
    3.8516   -2.6590   -6.0828 C   0  0  0  0  0  0  0  0  0  0  0  0
    2.4320   -2.8092   -6.0989 C   0  0  0  0  0  0  0  0  0  0  0  0
    1.9104   -4.0831   -6.2402 C   0  0  0  0  0  0  0  0  0  0  0  0
    2.7925   -5.1850   -6.3897 O   0  0  0  0  0  0  0  0  0  0  0  0
    4.1326   -5.1232   -5.8236 C   0  0  0  0  0  0  0  0  0  0  0  0
    5.0296   -6.1718   -6.5030 C   0  0  0  0  0  0  0  0  0  0  0  0
    5.1933   -5.9370   -7.9999 C   0  0  0  0  0  0  0  0  0  0  0  0
    3.9925   -5.3524   -4.2779 C   0  0  0  0  0  0  0  0  0  0  0  0
    5.2611   -5.8419   -3.5615 C   0  0  0  0  0  0  0  0  0  0  0  0
    4.7423   -3.7273   -5.9945 C   0  0  0  0  0  0  0  0  0  0  0  0
    6.1157   -3.3301   -5.7821 C   0  0  0  0  0  0  0  0  0  0  0  0
    0.5038   -4.1050   -6.1797 C   0  0  0  0  0  0  0  0  0  0  0  0
   -0.0238   -2.7919   -5.9952 C   0  0  0  0  0  0  0  0  0  0  0  0
    1.2374   -1.7083   -6.0260 S   0  0  0  0  0  0  0  0  0  0  0  0
   -1.3954   -2.2966   -5.6270 C   0  0  0  0  0  0  0  0  0  0  0  0
   -1.6107   -0.6666   -5.3487 S   0  0  0  0  0  0  0  0  0  0  0  0
   -2.9657   -0.7467   -4.4315 C   0  0  0  0  0  0  0  0  0  0  0  0
   -3.4852    0.2801   -3.5480 C   0  0  0  0  0  0  0  0  0  0  0  0
   -4.3424   -0.0870   -2.5217 C   0  0  0  0  0  0  0  0  0  0  0  0
   -4.8167   -1.4028   -2.3890 O   0  0  0  0  0  0  0  0  0  0  0  0
   -4.4412   -2.4818   -3.2775 C   0  0  0  0  0  0  0  0  0  0  0  0
   -5.6866   -2.8386   -4.1206 C   0  0  0  0  0  0  0  0  0  0  0  0
   -6.8019   -3.3766   -3.2384 C   0  0  0  0  0  0  0  0  0  0  0  0
   -3.9894   -3.6687   -2.4240 C   0  0  0  0  0  0  0  0  0  0  0  0
   -2.7348   -3.3557   -1.6054 C   0  0  0  0  0  0  0  0  0  0  0  0
   -3.3213   -2.0880   -4.2707 C   0  0  0  0  0  0  0  0  0  0  0  0
   -2.4439   -2.9894   -4.9702 C   0  0  0  0  0  0  0  0  0  0  0  0
   -4.5695    0.9576   -1.5836 C   0  0  0  0  0  0  0  0  0  0  0  0
   -3.8104    2.1008   -1.8371 C   0  0  0  0  0  0  0  0  0  0  0  0
   -2.9241    1.8233   -3.2472 S   0  0  0  0  0  0  0  0  0  0  0  0
   -3.4363    3.1100   -0.8163 C   0  0  0  0  0  0  0  0  0  0  0  0
   -3.9672    3.0971    0.8037 S   0  0  0  0  0  0  0  0  0  0  0  0
   -2.6983    3.9895    1.4378 C   0  0  0  0  0  0  0  0  0  0  0  0
   -2.3529    4.2108    2.8216 C   0  0  0  0  0  0  0  0  0  0  0  0
   -1.0650    4.6613    3.1497 C   0  0  0  0  0  0  0  0  0  0  0  0
   -0.1741    5.1027    2.1491 O   0  0  0  0  0  0  0  0  0  0  0  0
   -0.3685    4.8204    0.7167 C   0  0  0  0  0  0  0  0  0  0  0  0
    0.6809    3.7450    0.3635 C   0  0  0  0  0  0  0  0  0  0  0  0
    0.8666    3.4010   -1.1309 C   0  0  0  0  0  0  0  0  0  0  0  0
   -0.1165    6.1388   -0.0649 C   0  0  0  0  0  0  0  0  0  0  0  0
    1.3300    6.6134    0.0605 C   0  0  0  0  0  0  0  0  0  0  0  0
   -1.7953    4.2935    0.4116 C   0  0  0  0  0  0  0  0  0  0  0  0
   -2.2728    3.8712   -0.8693 C   0  0  0  0  0  0  0  0  0  0  0  0
   -0.7904    4.5753    4.5527 C   0  0  0  0  0  0  0  0  0  0  0  0
   -1.8817    3.9975    5.2747 C   0  0  0  0  0  0  0  0  0  0  0  0
   -3.1119    3.6581    4.1916 S   0  0  0  0  0  0  0  0  0  0  0  0
   -1.9121    3.4625    6.6265 N   0  0  0  0  0  0  0  0  0  0  0  0
   -0.9881    3.6827    7.7492 C   0  0  0  0  0  0  0  0  0  0  0  0
   -0.3808    2.3756    8.1415 C   0  0  0  0  0  0  0  0  0  0  0  0
    0.5955    1.8174    7.3167 C   0  0  0  0  0  0  0  0  0  0  0  0
    0.9010    0.4744    7.4680 C   0  0  0  0  0  0  0  0  0  0  0  0
    1.9141   -0.1279    6.6197 O   0  0  0  0  0  0  0  0  0  0  0  0
    3.0223   -0.9616    7.0398 C   0  0  0  0  0  0  0  0  0  0  0  0
    2.5905   -2.3229    7.6023 C   0  0  0  0  0  0  0  0  0  0  0  0
    0.1738   -0.3172    8.3812 C   0  0  0  0  0  0  0  0  0  0  0  0
   -0.4605    0.3061    9.4299 C   0  0  0  0  0  0  0  0  0  0  0  0
   -0.8938    1.6255    9.2300 C   0  0  0  0  0  0  0  0  0  0  0  0
   -1.9183    2.1735   10.0630 O   0  0  0  0  0  0  0  0  0  0  0  0
   -3.1017    1.4410   10.3304 C   0  0  0  0  0  0  0  0  0  0  0  0
   -3.7796    2.0563   11.5950 C   0  0  0  0  0  0  0  0  0  0  0  0
   -0.4613   -1.6217    7.8806 C   0  0  0  0  0  0  0  0  0  0  0  0
   -1.9427   -1.5511    7.9491 N   0  0  0  0  0  0  0  0  0  0  0  0
   -3.6688    0.1613    6.3588 H   0  0  0  0  0  0  0  0  0  0  0  0
   -4.3071    1.5407    5.6356 H   0  0  0  0  0  0  0  0  0  0  0  0
   -5.0548    0.2005    4.0562 H   0  0  0  0  0  0  0  0  0  0  0  0
   -4.0425   -1.1455    4.6763 H   0  0  0  0  0  0  0  0  0  0  0  0
   -1.3635    0.7029    4.3891 H   0  0  0  0  0  0  0  0  0  0  0  0
    1.2816    0.1860    4.2407 H   0  0  0  0  0  0  0  0  0  0  0  0
    0.6835    1.9073    4.0956 H   0  0  0  0  0  0  0  0  0  0  0  0
    2.6201    2.1588    2.3152 H   0  0  0  0  0  0  0  0  0  0  0  0
    3.0918    2.0516    4.0564 H   0  0  0  0  0  0  0  0  0  0  0  0
    3.2385    0.6159    2.9716 H   0  0  0  0  0  0  0  0  0  0  0  0
   -2.9528   -0.8137   -0.0844 H   0  0  0  0  0  0  0  0  0  0  0  0
   -6.2541   -1.1371    0.3937 H   0  0  0  0  0  0  0  0  0  0  0  0
   -5.0374   -2.3649    0.9050 H   0  0  0  0  0  0  0  0  0  0  0  0
   -6.0650   -2.2057    3.3005 H   0  0  0  0  0  0  0  0  0  0  0  0
   -7.3687   -1.1560    2.5072 H   0  0  0  0  0  0  0  0  0  0  0  0
   -7.1194   -2.8867    2.0059 H   0  0  0  0  0  0  0  0  0  0  0  0
   -0.0652    0.8437   -0.3714 H   0  0  0  0  0  0  0  0  0  0  0  0
   -0.8270   -0.6745   -0.9560 H   0  0  0  0  0  0  0  0  0  0  0  0
    0.6839   -1.9843    0.1385 H   0  0  0  0  0  0  0  0  0  0  0  0
    1.5890   -1.0912   -1.6429 H   0  0  0  0  0  0  0  0  0  0  0  0
    3.1333   -2.1684   -0.1451 H   0  0  0  0  0  0  0  0  0  0  0  0
    3.4545   -0.5965    0.6327 H   0  0  0  0  0  0  0  0  0  0  0  0
    3.2897    1.0956   -1.8208 H   0  0  0  0  0  0  0  0  0  0  0  0
    3.8467    3.2712   -2.7366 H   0  0  0  0  0  0  0  0  0  0  0  0
    2.7465    2.1957   -3.7240 H   0  0  0  0  0  0  0  0  0  0  0  0
    4.5360    4.4523   -4.7484 H   0  0  0  0  0  0  0  0  0  0  0  0
    2.6843    4.3785   -4.6939 H   0  0  0  0  0  0  0  0  0  0  0  0
    3.6177    3.2982   -5.7860 H   0  0  0  0  0  0  0  0  0  0  0  0
    6.9778   -1.9788   -2.8225 H   0  0  0  0  0  0  0  0  0  0  0  0
    6.3442   -4.5061   -0.2807 H   0  0  0  0  0  0  0  0  0  0  0  0
    6.5879   -3.9811   -1.9721 H   0  0  0  0  0  0  0  0  0  0  0  0
    7.8472   -1.8920   -0.6130 H   0  0  0  0  0  0  0  0  0  0  0  0
    8.6959   -3.3625   -1.1757 H   0  0  0  0  0  0  0  0  0  0  0  0
    8.0897   -3.2557    0.5322 H   0  0  0  0  0  0  0  0  0  0  0  0
    7.9826    0.5762   -4.1371 H   0  0  0  0  0  0  0  0  0  0  0  0
    6.6323    0.6980   -5.3202 H   0  0  0  0  0  0  0  0  0  0  0  0
    8.3435   -1.6059   -5.0321 H   0  0  0  0  0  0  0  0  0  0  0  0
    6.0377   -6.1492   -6.0503 H   0  0  0  0  0  0  0  0  0  0  0  0
    4.5637   -7.1509   -6.3187 H   0  0  0  0  0  0  0  0  0  0  0  0
    5.6852   -6.8207   -8.4148 H   0  0  0  0  0  0  0  0  0  0  0  0
    4.1958   -5.7741   -8.4764 H   0  0  0  0  0  0  0  0  0  0  0  0
    5.8403   -5.0479   -8.1483 H   0  0  0  0  0  0  0  0  0  0  0  0
    3.6800   -4.4042   -3.7930 H   0  0  0  0  0  0  0  0  0  0  0  0
    3.1604   -6.0821   -4.1167 H   0  0  0  0  0  0  0  0  0  0  0  0
    5.5349   -6.8925   -3.8393 H   0  0  0  0  0  0  0  0  0  0  0  0
    5.1275   -5.7371   -2.4780 H   0  0  0  0  0  0  0  0  0  0  0  0
    6.1118   -5.2076   -3.8765 H   0  0  0  0  0  0  0  0  0  0  0  0
    6.9470   -4.0116   -5.6438 H   0  0  0  0  0  0  0  0  0  0  0  0
   -0.0939   -5.0246   -6.2624 H   0  0  0  0  0  0  0  0  0  0  0  0
   -5.4262   -3.6085   -4.8923 H   0  0  0  0  0  0  0  0  0  0  0  0
   -6.0456   -1.9315   -4.6491 H   0  0  0  0  0  0  0  0  0  0  0  0
   -7.7518   -3.4031   -3.8015 H   0  0  0  0  0  0  0  0  0  0  0  0
   -6.9235   -2.7230   -2.3424 H   0  0  0  0  0  0  0  0  0  0  0  0
   -6.5697   -4.4097   -2.9028 H   0  0  0  0  0  0  0  0  0  0  0  0
   -3.8894   -4.5862   -3.0616 H   0  0  0  0  0  0  0  0  0  0  0  0
   -4.7611   -3.8644   -1.6757 H   0  0  0  0  0  0  0  0  0  0  0  0
   -2.2716   -2.4040   -1.9376 H   0  0  0  0  0  0  0  0  0  0  0  0
   -3.0345   -3.2294   -0.5491 H   0  0  0  0  0  0  0  0  0  0  0  0
   -2.0096   -4.1804   -1.7014 H   0  0  0  0  0  0  0  0  0  0  0  0
   -2.5267   -4.0853   -4.9164 H   0  0  0  0  0  0  0  0  0  0  0  0
   -5.1931    0.8337   -0.6994 H   0  0  0  0  0  0  0  0  0  0  0  0
    1.6540    4.0913    0.7462 H   0  0  0  0  0  0  0  0  0  0  0  0
    0.4307    2.8302    0.9266 H   0  0  0  0  0  0  0  0  0  0  0  0
    0.0097    2.7869   -1.4775 H   0  0  0  0  0  0  0  0  0  0  0  0
    0.9558    4.3118   -1.7769 H   0  0  0  0  0  0  0  0  0  0  0  0
    1.7380    2.7902   -1.2246 H   0  0  0  0  0  0  0  0  0  0  0  0
   -0.3611    5.9815   -1.1377 H   0  0  0  0  0  0  0  0  0  0  0  0
   -0.8032    6.9309    0.3201 H   0  0  0  0  0  0  0  0  0  0  0  0
    1.9884    6.0017   -0.5804 H   0  0  0  0  0  0  0  0  0  0  0  0
    1.6993    6.5110    1.1233 H   0  0  0  0  0  0  0  0  0  0  0  0
    1.3826    7.6546   -0.2671 H   0  0  0  0  0  0  0  0  0  0  0  0
   -1.7280    4.0362   -1.7906 H   0  0  0  0  0  0  0  0  0  0  0  0
    0.1981    4.8456    4.9604 H   0  0  0  0  0  0  0  0  0  0  0  0
   -2.5710    2.6710    6.7935 H   0  0  0  0  0  0  0  0  0  0  0  0
   -1.5626    4.1289    8.6221 H   0  0  0  0  0  0  0  0  0  0  0  0
   -0.1768    4.4045    7.5176 H   0  0  0  0  0  0  0  0  0  0  0  0
    1.0784    2.3855    6.5455 H   0  0  0  0  0  0  0  0  0  0  0  0
    3.5434   -0.4591    7.8797 H   0  0  0  0  0  0  0  0  0  0  0  0
    3.7052   -1.1270    6.1669 H   0  0  0  0  0  0  0  0  0  0  0  0
    2.2317   -2.2759    8.6968 H   0  0  0  0  0  0  0  0  0  0  0  0
    1.8778   -2.8639    6.9051 H   0  0  0  0  0  0  0  0  0  0  0  0
    3.5071   -2.9262    7.6173 H   0  0  0  0  0  0  0  0  0  0  0  0
   -0.8767   -0.3518   10.1982 H   0  0  0  0  0  0  0  0  0  0  0  0
   -3.6949    1.3616    9.3798 H   0  0  0  0  0  0  0  0  0  0  0  0
   -2.8539    0.3692   10.6233 H   0  0  0  0  0  0  0  0  0  0  0  0
   -4.8162    1.6966   11.7473 H   0  0  0  0  0  0  0  0  0  0  0  0
   -3.0840    1.8732   12.4761 H   0  0  0  0  0  0  0  0  0  0  0  0
   -3.8388    3.1560   11.4075 H   0  0  0  0  0  0  0  0  0  0  0  0
   -0.1400   -1.8063    6.8340 H   0  0  0  0  0  0  0  0  0  0  0  0
   -0.0826   -2.4705    8.5198 H   0  0  0  0  0  0  0  0  0  0  0  0
   -2.2162   -0.5601    7.7310 H   0  0  0  0  0  0  0  0  0  0  0  0
   -2.3777   -2.0577    7.1360 H   0  0  0  0  0  0  0  0  0  0  0  0
  1  2  1  0
  2  3  1  0
  3  4  2  0
  4  5  1  0
  5  6  1  0
  6  7  1  0
  7  8  1  0
  5  9  2  0
  9 10  1  0
 10 11  2  0
 11 12  1  0
 12 13  1  0
 13 14  1  0
  9 15  1  0
 15 16  1  0
 16 17  1  0
 17 18  1  0
 18 19  1  0
 19 20  2  0
 20 21  1  0
 21 22  1  0
 22 23  1  0
 23 24  1  0
 21 25  2  0
 25 26  1  0
 26 27  2  0
 27 28  1  0
 28 29  1  0
 29 30  1  0
 25 31  1  0
 31 32  1  0
 32 33  1  0
 33 34  1  0
 34 35  1  0
 35 36  1  0
 36 37  2  0
 37 38  1  0
 38 39  1  0
 39 40  1  0
 40 41  1  0
 39 42  1  0
 42 43  1  0
 39 44  1  0
 44 45  1  0
 37 46  1  0
 46 47  2  0
 47 48  1  0
 47 49  1  0
 49 50  1  0
 50 51  1  0
 51 52  1  0
 52 53  2  0
 53 54  1  0
 54 55  1  0
 55 56  1  0
 56 57  1  0
 55 58  1  0
 58 59  1  0
 55 60  1  0
 60 61  1  0
 53 62  1  0
 62 63  2  0
 63 64  1  0
 63 65  1  0
 65 66  1  0
 66 67  1  0
 67 68  1  0
 68 69  2  0
 69 70  1  0
 70 71  1  0
 71 72  1  0
 72 73  1  0
 71 74  1  0
 74 75  1  0
 71 76  1  0
 76 77  1  0
 69 78  1  0
 78 79  2  0
 79 80  1  0
 79 81  1  0
 81 82  1  0
 82 83  1  0
 83 84  2  0
 84 85  1  0
 85 86  1  0
 86 87  1  0
 87 88  1  0
 85 89  2  0
 89 90  1  0
 90 91  2  0
 91 92  1  0
 92 93  1  0
 93 94  1  0
 89 95  1  0
 95 96  1  0
 11  3  1  0
 27 19  1  0
 45 33  2  0
 61 49  2  0
 77 65  2  0
 91 83  1  0
 44 35  2  0
 60 51  2  0
 76 67  2  0
 48 36  1  0
 64 52  1  0
 80 68  1  0
  1 97  1  0
  1 98  1  0
  2 99  1  0
  2100  1  0
  4101  1  0
  7102  1  0
  7103  1  0
  8104  1  0
  8105  1  0
  8106  1  0
 10107  1  0
 13108  1  0
 13109  1  0
 14110  1  0
 14111  1  0
 14112  1  0
 15113  1  0
 15114  1  0
 16115  1  0
 17116  1  0
 18117  1  0
 18118  1  0
 20119  1  0
 23120  1  0
 23121  1  0
 24122  1  0
 24123  1  0
 24124  1  0
 26125  1  0
 29126  1  0
 29127  1  0
 30128  1  0
 30129  1  0
 30130  1  0
 31131  1  0
 31132  1  0
 32133  1  0
 40134  1  0
 40135  1  0
 41136  1  0
 41137  1  0
 41138  1  0
 42139  1  0
 42140  1  0
 43141  1  0
 43142  1  0
 43143  1  0
 45144  1  0
 46145  1  0
 56146  1  0
 56147  1  0
 57148  1  0
 57149  1  0
 57150  1  0
 58151  1  0
 58152  1  0
 59153  1  0
 59154  1  0
 59155  1  0
 61156  1  0
 62157  1  0
 72158  1  0
 72159  1  0
 73160  1  0
 73161  1  0
 73162  1  0
 74163  1  0
 74164  1  0
 75165  1  0
 75166  1  0
 75167  1  0
 77168  1  0
 78169  1  0
 81170  1  0
 82171  1  0
 82172  1  0
 84173  1  0
 87174  1  0
 87175  1  0
 88176  1  0
 88177  1  0
 88178  1  0
 90179  1  0
 93180  1  0
 93181  1  0
 94182  1  0
 94183  1  0
 94184  1  0
 95185  1  0
 95186  1  0
 96187  1  0
 96188  1  0
M  END

