
     RDKit          3D

170187  0  0  0  0  0  0  0  0999 V2000
   -9.4878   10.9285    4.5740 C   0  0  0  0  0  0  0  0  0  0  0  0
   -9.1636   10.1272    5.6651 C   0  0  0  0  0  0  0  0  0  0  0  0
   -9.0153    8.7675    5.3328 C   0  0  0  0  0  0  0  0  0  0  0  0
   -8.6822    7.7185    6.2166 C   0  0  0  0  0  0  0  0  0  0  0  0
   -8.4351    7.9501    7.6907 C   0  0  0  0  0  0  0  0  0  0  0  0
   -9.7391    7.8814    8.4759 C   0  0  0  0  0  0  0  0  0  0  0  0
   -8.6308    6.4253    5.6649 C   0  0  0  0  0  0  0  0  0  0  0  0
   -8.8564    6.1645    4.3073 C   0  0  0  0  0  0  0  0  0  0  0  0
   -9.1406    7.2229    3.4153 C   0  0  0  0  0  0  0  0  0  0  0  0
   -9.3839    6.9977    1.9395 C   0  0  0  0  0  0  0  0  0  0  0  0
  -10.8544    6.7048    1.6700 C   0  0  0  0  0  0  0  0  0  0  0  0
   -9.2330    8.5106    3.9753 C   0  0  0  0  0  0  0  0  0  0  0  0
   -9.5995    9.9603    3.2000 S   0  0  0  0  0  0  0  0  0  0  0  0
   -8.7345    4.7997    3.9807 C   0  0  0  0  0  0  0  0  0  0  0  0
   -8.3987    4.0060    5.0785 C   0  0  0  0  0  0  0  0  0  0  0  0
   -8.2709    4.9835    6.4480 S   0  0  0  0  0  0  0  0  0  0  0  0
   -8.0601    2.5730    5.0500 C   0  0  0  0  0  0  0  0  0  0  0  0
   -8.0851    1.7388    3.9325 C   0  0  0  0  0  0  0  0  0  0  0  0
   -7.5313    0.4670    4.1796 C   0  0  0  0  0  0  0  0  0  0  0  0
   -7.3584   -0.5723    3.2350 C   0  0  0  0  0  0  0  0  0  0  0  0
   -7.8644   -0.4517    1.8156 C   0  0  0  0  0  0  0  0  0  0  0  0
   -9.3753   -0.6624    1.7559 C   0  0  0  0  0  0  0  0  0  0  0  0
   -6.6704   -1.7196    3.6782 C   0  0  0  0  0  0  0  0  0  0  0  0
   -6.1719   -1.8445    4.9818 C   0  0  0  0  0  0  0  0  0  0  0  0
   -6.3939   -0.8316    5.9398 C   0  0  0  0  0  0  0  0  0  0  0  0
   -5.9480   -0.9682    7.3798 C   0  0  0  0  0  0  0  0  0  0  0  0
   -6.9800   -1.7517    8.1827 C   0  0  0  0  0  0  0  0  0  0  0  0
   -7.0800    0.3128    5.4963 C   0  0  0  0  0  0  0  0  0  0  0  0
   -7.3780    1.7327    6.3447 S   0  0  0  0  0  0  0  0  0  0  0  0
   -5.4010   -3.0051    5.1654 C   0  0  0  0  0  0  0  0  0  0  0  0
   -5.2963   -3.7826    4.0158 C   0  0  0  0  0  0  0  0  0  0  0  0
   -6.1707   -3.0526    2.7743 S   0  0  0  0  0  0  0  0  0  0  0  0
   -4.3201   -4.8624    3.8253 C   0  0  0  0  0  0  0  0  0  0  0  0
   -2.7763   -4.8526    4.5042 S   0  0  0  0  0  0  0  0  0  0  0  0
   -2.2366   -6.1931    3.6537 C   0  0  0  0  0  0  0  0  0  0  0  0
   -0.8890   -6.7045    3.5589 C   0  0  0  0  0  0  0  0  0  0  0  0
   -0.6013   -7.6840    2.6423 C   0  0  0  0  0  0  0  0  0  0  0  0
   -1.6123   -8.2788    1.8735 O   0  0  0  0  0  0  0  0  0  0  0  0
   -3.0132   -7.8956    1.9197 C   0  0  0  0  0  0  0  0  0  0  0  0
   -3.8238   -9.0549    2.5532 C   0  0  0  0  0  0  0  0  0  0  0  0
   -3.6864  -10.4045    1.8451 C   0  0  0  0  0  0  0  0  0  0  0  0
   -3.4936   -7.5379    0.4799 C   0  0  0  0  0  0  0  0  0  0  0  0
   -2.8442   -8.3477   -0.6519 C   0  0  0  0  0  0  0  0  0  0  0  0
   -3.2331   -6.6704    2.8198 C   0  0  0  0  0  0  0  0  0  0  0  0
   -4.4175   -5.9131    2.9109 C   0  0  0  0  0  0  0  0  0  0  0  0
    0.7672   -7.9168    2.4777 C   0  0  0  0  0  0  0  0  0  0  0  0
    1.5484   -7.0389    3.2323 C   0  0  0  0  0  0  0  0  0  0  0  0
    0.5324   -6.0113    4.1120 S   0  0  0  0  0  0  0  0  0  0  0  0
    2.9760   -6.7765    2.9979 C   0  0  0  0  0  0  0  0  0  0  0  0
    3.6321   -5.2267    2.9303 S   0  0  0  0  0  0  0  0  0  0  0  0
    5.1106   -5.7117    2.3117 C   0  0  0  0  0  0  0  0  0  0  0  0
    6.0979   -4.8750    1.6551 C   0  0  0  0  0  0  0  0  0  0  0  0
    7.0037   -5.4618    0.8024 C   0  0  0  0  0  0  0  0  0  0  0  0
    7.1113   -6.8579    0.7038 O   0  0  0  0  0  0  0  0  0  0  0  0
    6.3597   -7.7876    1.5220 C   0  0  0  0  0  0  0  0  0  0  0  0
    7.3054   -8.2484    2.6672 C   0  0  0  0  0  0  0  0  0  0  0  0
    6.7463   -9.3512    3.5702 C   0  0  0  0  0  0  0  0  0  0  0  0
    5.9171   -8.9571    0.5977 C   0  0  0  0  0  0  0  0  0  0  0  0
    7.0748   -9.6230   -0.1528 C   0  0  0  0  0  0  0  0  0  0  0  0
    5.1266   -7.0891    2.1307 C   0  0  0  0  0  0  0  0  0  0  0  0
    3.9142   -7.6930    2.5203 C   0  0  0  0  0  0  0  0  0  0  0  0
    7.6595   -4.5624   -0.0387 C   0  0  0  0  0  0  0  0  0  0  0  0
    7.1961   -3.2528    0.1140 C   0  0  0  0  0  0  0  0  0  0  0  0
    6.0079   -3.2319    1.3202 S   0  0  0  0  0  0  0  0  0  0  0  0
    7.4093   -2.1715   -0.8636 C   0  0  0  0  0  0  0  0  0  0  0  0
    6.7616   -0.9355   -0.8606 C   0  0  0  0  0  0  0  0  0  0  0  0
    6.9033   -0.2347   -2.0727 C   0  0  0  0  0  0  0  0  0  0  0  0
    6.2980    0.9999   -2.4050 C   0  0  0  0  0  0  0  0  0  0  0  0
    5.4992    1.7997   -1.4001 C   0  0  0  0  0  0  0  0  0  0  0  0
    6.4276    2.6137   -0.5062 C   0  0  0  0  0  0  0  0  0  0  0  0
    6.5078    1.4725   -3.7165 C   0  0  0  0  0  0  0  0  0  0  0  0
    7.2639    0.7690   -4.6629 C   0  0  0  0  0  0  0  0  0  0  0  0
    7.8686   -0.4635   -4.3316 C   0  0  0  0  0  0  0  0  0  0  0  0
    8.6877   -1.2500   -5.3282 C   0  0  0  0  0  0  0  0  0  0  0  0
   10.1243   -0.7412   -5.3614 C   0  0  0  0  0  0  0  0  0  0  0  0
    7.6745   -0.9248   -3.0175 C   0  0  0  0  0  0  0  0  0  0  0  0
    8.1773   -2.3812   -2.3496 S   0  0  0  0  0  0  0  0  0  0  0  0
    7.2872    1.3924   -5.9223 C   0  0  0  0  0  0  0  0  0  0  0  0
    6.5358    2.5641   -5.9679 C   0  0  0  0  0  0  0  0  0  0  0  0
    5.8657    2.8504   -4.4453 S   0  0  0  0  0  0  0  0  0  0  0  0
    6.2503    3.3417   -7.1837 C   0  0  0  0  0  0  0  0  0  0  0  0
    5.3728    4.4223   -7.2748 C   0  0  0  0  0  0  0  0  0  0  0  0
    5.2084    4.8915   -8.5924 C   0  0  0  0  0  0  0  0  0  0  0  0
    4.3515    5.9328   -9.0141 C   0  0  0  0  0  0  0  0  0  0  0  0
    3.5097    6.7243   -8.0396 C   0  0  0  0  0  0  0  0  0  0  0  0
    4.3081    7.8791   -7.4433 C   0  0  0  0  0  0  0  0  0  0  0  0
    4.3427    6.2214  -10.3933 C   0  0  0  0  0  0  0  0  0  0  0  0
    5.1069    5.5088  -11.3236 C   0  0  0  0  0  0  0  0  0  0  0  0
    5.9630    4.4654  -10.9029 C   0  0  0  0  0  0  0  0  0  0  0  0
    6.7675    3.6373  -11.8793 C   0  0  0  0  0  0  0  0  0  0  0  0
    5.9421    2.4621  -12.3951 C   0  0  0  0  0  0  0  0  0  0  0  0
    5.9737    4.1798   -9.5243 C   0  0  0  0  0  0  0  0  0  0  0  0
    6.8300    2.9720   -8.7248 S   0  0  0  0  0  0  0  0  0  0  0  0
    4.9049    5.9470  -12.6459 C   0  0  0  0  0  0  0  0  0  0  0  0
    4.0036    7.0018  -12.7477 C   0  0  0  0  0  0  0  0  0  0  0  0
    3.4422    7.3881  -11.2069 S   0  0  0  0  0  0  0  0  0  0  0  0
   -9.6422   11.9973    4.6037 H   0  0  0  0  0  0  0  0  0  0  0  0
   -9.0452   10.5329    6.6595 H   0  0  0  0  0  0  0  0  0  0  0  0
   -7.7282    7.1903    8.0884 H   0  0  0  0  0  0  0  0  0  0  0  0
   -7.9497    8.9332    7.8577 H   0  0  0  0  0  0  0  0  0  0  0  0
   -9.5317    8.0442    9.5546 H   0  0  0  0  0  0  0  0  0  0  0  0
  -10.4450    8.6636    8.1240 H   0  0  0  0  0  0  0  0  0  0  0  0
  -10.2096    6.8801    8.3529 H   0  0  0  0  0  0  0  0  0  0  0  0
   -8.7602    6.1617    1.5573 H   0  0  0  0  0  0  0  0  0  0  0  0
   -9.0774    7.8934    1.3578 H   0  0  0  0  0  0  0  0  0  0  0  0
  -11.0274    6.6449    0.5755 H   0  0  0  0  0  0  0  0  0  0  0  0
  -11.4902    7.5218    2.0729 H   0  0  0  0  0  0  0  0  0  0  0  0
  -11.1518    5.7407    2.1398 H   0  0  0  0  0  0  0  0  0  0  0  0
   -8.8586    4.4012    2.9860 H   0  0  0  0  0  0  0  0  0  0  0  0
   -8.4516    2.0580    2.9667 H   0  0  0  0  0  0  0  0  0  0  0  0
   -7.6085    0.5479    1.4036 H   0  0  0  0  0  0  0  0  0  0  0  0
   -7.3785   -1.1937    1.1513 H   0  0  0  0  0  0  0  0  0  0  0  0
   -9.7187   -0.5782    0.7023 H   0  0  0  0  0  0  0  0  0  0  0  0
   -9.6394   -1.6711    2.1413 H   0  0  0  0  0  0  0  0  0  0  0  0
   -9.9015    0.1090    2.3548 H   0  0  0  0  0  0  0  0  0  0  0  0
   -4.9606   -1.4692    7.4442 H   0  0  0  0  0  0  0  0  0  0  0  0
   -5.8100    0.0291    7.8486 H   0  0  0  0  0  0  0  0  0  0  0  0
   -6.6363   -1.8589    9.2343 H   0  0  0  0  0  0  0  0  0  0  0  0
   -7.9538   -1.2152    8.1802 H   0  0  0  0  0  0  0  0  0  0  0  0
   -7.1202   -2.7672    7.7492 H   0  0  0  0  0  0  0  0  0  0  0  0
   -4.8793   -3.2544    6.0799 H   0  0  0  0  0  0  0  0  0  0  0  0
   -3.4727   -9.1937    3.6026 H   0  0  0  0  0  0  0  0  0  0  0  0
   -4.9037   -8.7915    2.6009 H   0  0  0  0  0  0  0  0  0  0  0  0
   -4.3596  -10.4466    0.9615 H   0  0  0  0  0  0  0  0  0  0  0  0
   -2.6382  -10.5984    1.5398 H   0  0  0  0  0  0  0  0  0  0  0  0
   -3.9980  -11.2181    2.5384 H   0  0  0  0  0  0  0  0  0  0  0  0
   -4.5992   -7.6392    0.4056 H   0  0  0  0  0  0  0  0  0  0  0  0
   -3.2520   -6.4718    0.2697 H   0  0  0  0  0  0  0  0  0  0  0  0
   -3.1364   -9.4159   -0.6158 H   0  0  0  0  0  0  0  0  0  0  0  0
   -1.7354   -8.2669   -0.6200 H   0  0  0  0  0  0  0  0  0  0  0  0
   -3.1858   -7.9442   -1.6293 H   0  0  0  0  0  0  0  0  0  0  0  0
   -5.3039   -6.1051    2.3169 H   0  0  0  0  0  0  0  0  0  0  0  0
    1.1665   -8.6041    1.7444 H   0  0  0  0  0  0  0  0  0  0  0  0
    7.5508   -7.3719    3.3052 H   0  0  0  0  0  0  0  0  0  0  0  0
    8.2680   -8.5981    2.2405 H   0  0  0  0  0  0  0  0  0  0  0  0
    5.7666   -9.0606    4.0005 H   0  0  0  0  0  0  0  0  0  0  0  0
    6.6443  -10.3074    3.0150 H   0  0  0  0  0  0  0  0  0  0  0  0
    7.4515   -9.5217    4.4135 H   0  0  0  0  0  0  0  0  0  0  0  0
    5.2081   -8.5562   -0.1613 H   0  0  0  0  0  0  0  0  0  0  0  0
    5.3743   -9.7387    1.1695 H   0  0  0  0  0  0  0  0  0  0  0  0
    7.7446  -10.1607    0.5487 H   0  0  0  0  0  0  0  0  0  0  0  0
    7.6638   -8.8758   -0.7279 H   0  0  0  0  0  0  0  0  0  0  0  0
    6.6670  -10.3627   -0.8732 H   0  0  0  0  0  0  0  0  0  0  0  0
    3.7009   -8.7475    2.4176 H   0  0  0  0  0  0  0  0  0  0  0  0
    8.3494   -4.8758   -0.8123 H   0  0  0  0  0  0  0  0  0  0  0  0
    6.1572   -0.5962   -0.0302 H   0  0  0  0  0  0  0  0  0  0  0  0
    4.8701    1.1289   -0.7781 H   0  0  0  0  0  0  0  0  0  0  0  0
    4.7966    2.4913   -1.9116 H   0  0  0  0  0  0  0  0  0  0  0  0
    7.0133    3.3317   -1.1182 H   0  0  0  0  0  0  0  0  0  0  0  0
    7.1285    1.9444    0.0366 H   0  0  0  0  0  0  0  0  0  0  0  0
    5.8306    3.1839    0.2383 H   0  0  0  0  0  0  0  0  0  0  0  0
    8.2411   -1.1839   -6.3419 H   0  0  0  0  0  0  0  0  0  0  0  0
    8.6900   -2.3314   -5.0721 H   0  0  0  0  0  0  0  0  0  0  0  0
   10.5869   -0.8354   -4.3559 H   0  0  0  0  0  0  0  0  0  0  0  0
   10.7160   -1.3439   -6.0844 H   0  0  0  0  0  0  0  0  0  0  0  0
   10.1508    0.3220   -5.6792 H   0  0  0  0  0  0  0  0  0  0  0  0
    7.7990    0.9928   -6.7866 H   0  0  0  0  0  0  0  0  0  0  0  0
    4.8610    4.8303   -6.4164 H   0  0  0  0  0  0  0  0  0  0  0  0
    3.1340    6.0684   -7.2271 H   0  0  0  0  0  0  0  0  0  0  0  0
    2.6088    7.1283   -8.5469 H   0  0  0  0  0  0  0  0  0  0  0  0
    5.2096    7.4967   -6.9178 H   0  0  0  0  0  0  0  0  0  0  0  0
    4.6212    8.5825   -8.2442 H   0  0  0  0  0  0  0  0  0  0  0  0
    3.6770    8.4271   -6.7136 H   0  0  0  0  0  0  0  0  0  0  0  0
    7.6866    3.2503  -11.3936 H   0  0  0  0  0  0  0  0  0  0  0  0
    7.1099    4.2590  -12.7316 H   0  0  0  0  0  0  0  0  0  0  0  0
    6.5440    1.8811  -13.1246 H   0  0  0  0  0  0  0  0  0  0  0  0
    5.0217    2.8248  -12.8984 H   0  0  0  0  0  0  0  0  0  0  0  0
    5.6590    1.7917  -11.5556 H   0  0  0  0  0  0  0  0  0  0  0  0
    5.3914    5.5215  -13.5139 H   0  0  0  0  0  0  0  0  0  0  0  0
    3.7116    7.4887  -13.6682 H   0  0  0  0  0  0  0  0  0  0  0  0
  1  2  2  0
  2  3  1  0
  3  4  2  0
  4  5  1  0
  5  6  1  0
  4  7  1  0
  7  8  2  0
  8  9  1  0
  9 10  1  0
 10 11  1  0
  9 12  2  0
 12 13  1  0
  8 14  1  0
 14 15  2  0
 15 16  1  0
 15 17  1  0
 17 18  2  0
 18 19  1  0
 19 20  2  0
 20 21  1  0
 21 22  1  0
 20 23  1  0
 23 24  2  0
 24 25  1  0
 25 26  1  0
 26 27  1  0
 25 28  2  0
 28 29  1  0
 24 30  1  0
 30 31  2  0
 31 32  1  0
 31 33  1  0
 33 34  1  0
 34 35  1  0
 35 36  1  0
 36 37  2  0
 37 38  1  0
 38 39  1  0
 39 40  1  0
 40 41  1  0
 39 42  1  0
 42 43  1  0
 39 44  1  0
 44 45  1  0
 37 46  1  0
 46 47  2  0
 47 48  1  0
 47 49  1  0
 49 50  1  0
 50 51  1  0
 51 52  1  0
 52 53  2  0
 53 54  1  0
 54 55  1  0
 55 56  1  0
 56 57  1  0
 55 58  1  0
 58 59  1  0
 55 60  1  0
 60 61  1  0
 53 62  1  0
 62 63  2  0
 63 64  1  0
 63 65  1  0
 65 66  2  0
 66 67  1  0
 67 68  2  0
 68 69  1  0
 69 70  1  0
 68 71  1  0
 71 72  2  0
 72 73  1  0
 73 74  1  0
 74 75  1  0
 73 76  2  0
 76 77  1  0
 72 78  1  0
 78 79  2  0
 79 80  1  0
 79 81  1  0
 81 82  2  0
 82 83  1  0
 83 84  2  0
 84 85  1  0
 85 86  1  0
 84 87  1  0
 87 88  2  0
 88 89  1  0
 89 90  1  0
 90 91  1  0
 89 92  2  0
 92 93  1  0
 88 94  1  0
 94 95  2  0
 95 96  1  0
 13  1  1  0
 29 17  1  0
 45 33  2  0
 61 49  2  0
 77 65  1  0
 93 81  1  0
 12  3  1  0
 28 19  1  0
 44 35  2  0
 60 51  2  0
 76 67  1  0
 92 83  1  0
 16  7  1  0
 32 23  1  0
 48 36  1  0
 64 52  1  0
 80 71  1  0
 96 87  1  0
  1 97  1  0
  2 98  1  0
  5 99  1  0
  5100  1  0
  6101  1  0
  6102  1  0
  6103  1  0
 10104  1  0
 10105  1  0
 11106  1  0
 11107  1  0
 11108  1  0
 14109  1  0
 18110  1  0
 21111  1  0
 21112  1  0
 22113  1  0
 22114  1  0
 22115  1  0
 26116  1  0
 26117  1  0
 27118  1  0
 27119  1  0
 27120  1  0
 30121  1  0
 40122  1  0
 40123  1  0
 41124  1  0
 41125  1  0
 41126  1  0
 42127  1  0
 42128  1  0
 43129  1  0
 43130  1  0
 43131  1  0
 45132  1  0
 46133  1  0
 56134  1  0
 56135  1  0
 57136  1  0
 57137  1  0
 57138  1  0
 58139  1  0
 58140  1  0
 59141  1  0
 59142  1  0
 59143  1  0
 61144  1  0
 62145  1  0
 66146  1  0
 69147  1  0
 69148  1  0
 70149  1  0
 70150  1  0
 70151  1  0
 74152  1  0
 74153  1  0
 75154  1  0
 75155  1  0
 75156  1  0
 78157  1  0
 82158  1  0
 85159  1  0
 85160  1  0
 86161  1  0
 86162  1  0
 86163  1  0
 90164  1  0
 90165  1  0
 91166  1  0
 91167  1  0
 91168  1  0
 94169  1  0
 95170  1  0
M  END

