
     RDKit          3D

226251  0  0  0  0  0  0  0  0999 V2000
    3.0154  -13.4833    0.9348 C   0  0  0  0  0  0  0  0  0  0  0  0
    3.3994  -12.1514    1.0485 C   0  0  0  0  0  0  0  0  0  0  0  0
    2.7232  -11.3017    0.1562 C   0  0  0  0  0  0  0  0  0  0  0  0
    2.8789   -9.9030    0.0484 C   0  0  0  0  0  0  0  0  0  0  0  0
    3.8992   -9.1702    0.8249 C   0  0  0  0  0  0  0  0  0  0  0  0
    3.5790   -7.9270    1.9141 S   0  0  0  0  0  0  0  0  0  0  0  0
    5.1824   -7.6539    2.3508 C   0  0  0  0  0  0  0  0  0  0  0  0
    5.6442   -6.5871    3.2973 C   0  0  0  0  0  0  0  0  0  0  0  0
    6.1210   -5.3548    2.5374 C   0  0  0  0  0  0  0  0  0  0  0  0
    5.9967   -8.5225    1.6254 C   0  0  0  0  0  0  0  0  0  0  0  0
    7.7498   -8.5424    1.7514 Cl  0  0  0  0  0  0  0  0  0  0  0  0
    5.2776   -9.3727    0.7717 C   0  0  0  0  0  0  0  0  0  0  0  0
    6.0514  -10.5187   -0.3145 Cl  0  0  0  0  0  0  0  0  0  0  0  0
    2.0353   -9.2406   -0.8613 C   0  0  0  0  0  0  0  0  0  0  0  0
    1.1126   -9.9186   -1.6666 C   0  0  0  0  0  0  0  0  0  0  0  0
    0.9815  -11.3197   -1.5826 C   0  0  0  0  0  0  0  0  0  0  0  0
    0.0351  -12.0661   -2.4314 C   0  0  0  0  0  0  0  0  0  0  0  0
   -1.6335  -11.8476   -2.4299 S   0  0  0  0  0  0  0  0  0  0  0  0
   -1.9573  -12.9310   -3.6749 C   0  0  0  0  0  0  0  0  0  0  0  0
   -3.3102  -13.1436   -4.2817 C   0  0  0  0  0  0  0  0  0  0  0  0
   -3.5418  -12.1748   -5.4389 C   0  0  0  0  0  0  0  0  0  0  0  0
   -0.7518  -13.4640   -4.1292 C   0  0  0  0  0  0  0  0  0  0  0  0
    0.3664  -12.9845   -3.4271 C   0  0  0  0  0  0  0  0  0  0  0  0
    2.0209  -13.4112   -3.8396 Cl  0  0  0  0  0  0  0  0  0  0  0  0
   -0.6362  -14.5841   -5.4795 Cl  0  0  0  0  0  0  0  0  0  0  0  0
    1.7987  -11.9777   -0.6468 C   0  0  0  0  0  0  0  0  0  0  0  0
    1.8301  -13.6132   -0.2556 S   0  0  0  0  0  0  0  0  0  0  0  0
    0.4137   -9.0695   -2.5390 C   0  0  0  0  0  0  0  0  0  0  0  0
    0.7740   -7.7308   -2.4016 C   0  0  0  0  0  0  0  0  0  0  0  0
    1.9782   -7.5980   -1.2224 S   0  0  0  0  0  0  0  0  0  0  0  0
    0.2298   -6.6149   -3.1887 C   0  0  0  0  0  0  0  0  0  0  0  0
    0.5736   -5.2746   -3.0347 C   0  0  0  0  0  0  0  0  0  0  0  0
   -0.0612   -4.4401   -3.9674 C   0  0  0  0  0  0  0  0  0  0  0  0
    0.0815   -3.0463   -4.0608 C   0  0  0  0  0  0  0  0  0  0  0  0
    0.8250   -2.2598   -3.0652 C   0  0  0  0  0  0  0  0  0  0  0  0
    2.4993   -2.0946   -3.0094 S   0  0  0  0  0  0  0  0  0  0  0  0
    2.5121   -0.9181   -1.8013 C   0  0  0  0  0  0  0  0  0  0  0  0
    3.7412   -0.2740   -1.2409 C   0  0  0  0  0  0  0  0  0  0  0  0
    4.0977   -0.8704    0.1139 C   0  0  0  0  0  0  0  0  0  0  0  0
    1.1999   -0.6473   -1.4215 C   0  0  0  0  0  0  0  0  0  0  0  0
    0.7677    0.5409   -0.1990 Cl  0  0  0  0  0  0  0  0  0  0  0  0
    0.2537   -1.3933   -2.1368 C   0  0  0  0  0  0  0  0  0  0  0  0
   -1.4800   -1.2446   -1.8923 Cl  0  0  0  0  0  0  0  0  0  0  0  0
   -0.6063   -2.4067   -5.0988 C   0  0  0  0  0  0  0  0  0  0  0  0
   -1.4777   -3.0730   -5.9661 C   0  0  0  0  0  0  0  0  0  0  0  0
   -1.6701   -4.4674   -5.8388 C   0  0  0  0  0  0  0  0  0  0  0  0
   -2.6307   -5.2045   -6.6795 C   0  0  0  0  0  0  0  0  0  0  0  0
   -2.2471   -6.5253   -7.6488 S   0  0  0  0  0  0  0  0  0  0  0  0
   -3.8218   -6.8540   -8.1383 C   0  0  0  0  0  0  0  0  0  0  0  0
   -4.2242   -8.0477   -8.9529 C   0  0  0  0  0  0  0  0  0  0  0  0
   -4.4025   -9.2731   -8.0610 C   0  0  0  0  0  0  0  0  0  0  0  0
   -4.6791   -5.9445   -7.5211 C   0  0  0  0  0  0  0  0  0  0  0  0
   -4.0107   -5.0167   -6.7055 C   0  0  0  0  0  0  0  0  0  0  0  0
   -4.8487   -3.8134   -5.7330 Cl  0  0  0  0  0  0  0  0  0  0  0  0
   -6.4278   -5.9806   -7.7001 Cl  0  0  0  0  0  0  0  0  0  0  0  0
   -0.9151   -5.1238   -4.8435 C   0  0  0  0  0  0  0  0  0  0  0  0
   -0.8835   -6.7599   -4.4535 S   0  0  0  0  0  0  0  0  0  0  0  0
   -2.0671   -2.2131   -6.9180 C   0  0  0  0  0  0  0  0  0  0  0  0
   -1.6152   -0.8966   -6.7980 C   0  0  0  0  0  0  0  0  0  0  0  0
   -0.5350   -0.7884   -5.5111 S   0  0  0  0  0  0  0  0  0  0  0  0
   -2.0925    0.2905   -7.5134 C   0  0  0  0  0  0  0  0  0  0  0  0
   -3.3954    0.7736   -7.3831 C   0  0  0  0  0  0  0  0  0  0  0  0
   -3.4758    2.1793   -7.4493 C   0  0  0  0  0  0  0  0  0  0  0  0
   -4.5984    2.9564   -7.0851 C   0  0  0  0  0  0  0  0  0  0  0  0
   -5.9487    2.3560   -6.9882 C   0  0  0  0  0  0  0  0  0  0  0  0
   -7.0017    2.4786   -5.6768 S   0  0  0  0  0  0  0  0  0  0  0  0
   -8.2626    1.6036   -6.3654 C   0  0  0  0  0  0  0  0  0  0  0  0
   -9.6170    1.4259   -5.7464 C   0  0  0  0  0  0  0  0  0  0  0  0
  -10.5711    2.5227   -6.2164 C   0  0  0  0  0  0  0  0  0  0  0  0
   -7.8828    1.2136   -7.6480 C   0  0  0  0  0  0  0  0  0  0  0  0
   -8.9356    0.3242   -8.7403 Cl  0  0  0  0  0  0  0  0  0  0  0  0
   -6.5896    1.6312   -7.9963 C   0  0  0  0  0  0  0  0  0  0  0  0
   -5.8962    1.3451   -9.5886 Cl  0  0  0  0  0  0  0  0  0  0  0  0
   -4.3467    4.3070   -6.7594 C   0  0  0  0  0  0  0  0  0  0  0  0
   -3.0878    4.8931   -6.9259 C   0  0  0  0  0  0  0  0  0  0  0  0
   -2.0164    4.1584   -7.4667 C   0  0  0  0  0  0  0  0  0  0  0  0
   -0.6764    4.7635   -7.6116 C   0  0  0  0  0  0  0  0  0  0  0  0
    0.6872    4.3315   -6.7233 S   0  0  0  0  0  0  0  0  0  0  0  0
    1.6994    5.5154   -7.3616 C   0  0  0  0  0  0  0  0  0  0  0  0
    3.1575    5.6506   -7.0403 C   0  0  0  0  0  0  0  0  0  0  0  0
    4.0004    4.8300   -8.0123 C   0  0  0  0  0  0  0  0  0  0  0  0
    0.9810    6.2643   -8.2923 C   0  0  0  0  0  0  0  0  0  0  0  0
   -0.3533    5.8501   -8.4229 C   0  0  0  0  0  0  0  0  0  0  0  0
   -1.4940    6.6080   -9.5243 Cl  0  0  0  0  0  0  0  0  0  0  0  0
    1.6753    7.5903   -9.2168 Cl  0  0  0  0  0  0  0  0  0  0  0  0
   -2.2344    2.7868   -7.6654 C   0  0  0  0  0  0  0  0  0  0  0  0
   -1.0641    1.5954   -7.7880 S   0  0  0  0  0  0  0  0  0  0  0  0
   -2.9559    6.1283   -6.2747 C   0  0  0  0  0  0  0  0  0  0  0  0
   -4.0819    6.4980   -5.5477 C   0  0  0  0  0  0  0  0  0  0  0  0
   -5.2776    5.3326   -5.7997 S   0  0  0  0  0  0  0  0  0  0  0  0
   -3.9603    7.2149   -4.2728 C   0  0  0  0  0  0  0  0  0  0  0  0
   -2.6926    6.9059   -3.2012 S   0  0  0  0  0  0  0  0  0  0  0  0
   -3.4254    7.6363   -1.8934 C   0  0  0  0  0  0  0  0  0  0  0  0
   -2.9784    7.6439   -0.5197 C   0  0  0  0  0  0  0  0  0  0  0  0
   -3.7322    8.2813    0.4264 C   0  0  0  0  0  0  0  0  0  0  0  0
   -4.8842    8.9941    0.0585 O   0  0  0  0  0  0  0  0  0  0  0  0
   -5.6008    8.7580   -1.1825 C   0  0  0  0  0  0  0  0  0  0  0  0
   -6.7540    7.7724   -0.8264 C   0  0  0  0  0  0  0  0  0  0  0  0
   -7.7603    7.4608   -1.9389 C   0  0  0  0  0  0  0  0  0  0  0  0
   -6.0957   10.1320   -1.7036 C   0  0  0  0  0  0  0  0  0  0  0  0
   -7.0183   10.8685   -0.7297 C   0  0  0  0  0  0  0  0  0  0  0  0
   -4.6705    8.1369   -2.2437 C   0  0  0  0  0  0  0  0  0  0  0  0
   -4.9788    7.8880   -3.5980 C   0  0  0  0  0  0  0  0  0  0  0  0
   -3.2650    8.1038    1.7319 C   0  0  0  0  0  0  0  0  0  0  0  0
   -2.1458    7.2626    1.7826 C   0  0  0  0  0  0  0  0  0  0  0  0
   -1.7371    6.7889    0.2093 S   0  0  0  0  0  0  0  0  0  0  0  0
   -1.4959    6.7495    3.0007 C   0  0  0  0  0  0  0  0  0  0  0  0
   -0.2367    5.6212    3.0189 S   0  0  0  0  0  0  0  0  0  0  0  0
   -0.1471    5.5317    4.6916 C   0  0  0  0  0  0  0  0  0  0  0  0
    0.6690    4.6570    5.5119 C   0  0  0  0  0  0  0  0  0  0  0  0
    0.4282    4.5884    6.8617 C   0  0  0  0  0  0  0  0  0  0  0  0
   -0.5568    5.3862    7.4645 O   0  0  0  0  0  0  0  0  0  0  0  0
   -1.1977    6.5056    6.8022 C   0  0  0  0  0  0  0  0  0  0  0  0
   -2.6881    6.5041    7.2354 C   0  0  0  0  0  0  0  0  0  0  0  0
   -2.8919    6.5956    8.7521 C   0  0  0  0  0  0  0  0  0  0  0  0
   -0.4312    7.7838    7.2477 C   0  0  0  0  0  0  0  0  0  0  0  0
   -1.0182    9.1170    6.7667 C   0  0  0  0  0  0  0  0  0  0  0  0
   -1.0990    6.3575    5.2729 C   0  0  0  0  0  0  0  0  0  0  0  0
   -1.8592    7.0516    4.3139 C   0  0  0  0  0  0  0  0  0  0  0  0
    1.2052    3.6414    7.5276 C   0  0  0  0  0  0  0  0  0  0  0  0
    2.0650    2.9564    6.6646 C   0  0  0  0  0  0  0  0  0  0  0  0
    1.8424    3.5318    5.0840 S   0  0  0  0  0  0  0  0  0  0  0  0
    2.9928    1.8844    7.0682 C   0  0  0  0  0  0  0  0  0  0  0  0
    3.8837    1.2063    6.2322 C   0  0  0  0  0  0  0  0  0  0  0  0
    4.6364    0.2315    6.9125 C   0  0  0  0  0  0  0  0  0  0  0  0
    5.6073   -0.6267    6.3505 C   0  0  0  0  0  0  0  0  0  0  0  0
    6.0034   -0.5556    4.9303 C   0  0  0  0  0  0  0  0  0  0  0  0
    5.9721   -1.8601    3.8701 S   0  0  0  0  0  0  0  0  0  0  0  0
    6.7852   -1.1028    2.6112 C   0  0  0  0  0  0  0  0  0  0  0  0
    7.2446   -1.7926    1.3600 C   0  0  0  0  0  0  0  0  0  0  0  0
    8.6185   -2.4213    1.5595 C   0  0  0  0  0  0  0  0  0  0  0  0
    7.1126    0.1926    3.0143 C   0  0  0  0  0  0  0  0  0  0  0  0
    8.0345    1.3121    2.0222 Cl  0  0  0  0  0  0  0  0  0  0  0  0
    6.6752    0.4986    4.3144 C   0  0  0  0  0  0  0  0  0  0  0  0
    7.0506    2.0124    5.1241 Cl  0  0  0  0  0  0  0  0  0  0  0  0
    6.2115   -1.5557    7.2185 C   0  0  0  0  0  0  0  0  0  0  0  0
    5.8870   -1.6474    8.5741 C   0  0  0  0  0  0  0  0  0  0  0  0
    4.9132   -0.7981    9.1339 C   0  0  0  0  0  0  0  0  0  0  0  0
    4.5235   -0.8903   10.5526 C   0  0  0  0  0  0  0  0  0  0  0  0
    4.7881    0.3077   11.7023 S   0  0  0  0  0  0  0  0  0  0  0  0
    4.1335   -0.5404   12.9995 C   0  0  0  0  0  0  0  0  0  0  0  0
    4.1122   -0.0487   14.4161 C   0  0  0  0  0  0  0  0  0  0  0  0
    5.3580   -0.5101   15.1649 C   0  0  0  0  0  0  0  0  0  0  0  0
    3.7098   -1.7894   12.5486 C   0  0  0  0  0  0  0  0  0  0  0  0
    3.9185   -1.9811   11.1744 C   0  0  0  0  0  0  0  0  0  0  0  0
    3.4339   -3.4383   10.3197 Cl  0  0  0  0  0  0  0  0  0  0  0  0
    2.9898   -3.0069   13.5935 Cl  0  0  0  0  0  0  0  0  0  0  0  0
    4.3177    0.1406    8.2726 C   0  0  0  0  0  0  0  0  0  0  0  0
    3.1256    1.2661    8.6364 S   0  0  0  0  0  0  0  0  0  0  0  0
    6.6448   -2.6115    9.2591 C   0  0  0  0  0  0  0  0  0  0  0  0
    7.5531   -3.2788    8.4438 C   0  0  0  0  0  0  0  0  0  0  0  0
    7.4307   -2.6653    6.8794 S   0  0  0  0  0  0  0  0  0  0  0  0
    3.4042  -14.2988    1.5290 H   0  0  0  0  0  0  0  0  0  0  0  0
    4.1391  -11.8175    1.7624 H   0  0  0  0  0  0  0  0  0  0  0  0
    4.8093   -6.2986    3.9727 H   0  0  0  0  0  0  0  0  0  0  0  0
    6.4722   -6.9774    3.9278 H   0  0  0  0  0  0  0  0  0  0  0  0
    6.9336   -5.6187    1.8274 H   0  0  0  0  0  0  0  0  0  0  0  0
    6.5144   -4.6142    3.2598 H   0  0  0  0  0  0  0  0  0  0  0  0
    5.2774   -4.8988    1.9752 H   0  0  0  0  0  0  0  0  0  0  0  0
   -4.0921  -12.9808   -3.5080 H   0  0  0  0  0  0  0  0  0  0  0  0
   -3.4028  -14.1904   -4.6453 H   0  0  0  0  0  0  0  0  0  0  0  0
   -3.5265  -11.1284   -5.0689 H   0  0  0  0  0  0  0  0  0  0  0  0
   -4.5334  -12.3726   -5.8948 H   0  0  0  0  0  0  0  0  0  0  0  0
   -2.7613  -12.2981   -6.2189 H   0  0  0  0  0  0  0  0  0  0  0  0
   -0.3188   -9.4110   -3.2571 H   0  0  0  0  0  0  0  0  0  0  0  0
    1.2678   -4.9170   -2.2857 H   0  0  0  0  0  0  0  0  0  0  0  0
    3.5719    0.8205   -1.1352 H   0  0  0  0  0  0  0  0  0  0  0  0
    4.5936   -0.4177   -1.9402 H   0  0  0  0  0  0  0  0  0  0  0  0
    3.2404   -0.8106    0.8139 H   0  0  0  0  0  0  0  0  0  0  0  0
    4.3975   -1.9321   -0.0060 H   0  0  0  0  0  0  0  0  0  0  0  0
    4.9405   -0.2973    0.5505 H   0  0  0  0  0  0  0  0  0  0  0  0
   -5.1735   -7.8398   -9.4925 H   0  0  0  0  0  0  0  0  0  0  0  0
   -3.4398   -8.2564   -9.7131 H   0  0  0  0  0  0  0  0  0  0  0  0
   -5.1363   -9.0650   -7.2537 H   0  0  0  0  0  0  0  0  0  0  0  0
   -4.7719  -10.1253   -8.6701 H   0  0  0  0  0  0  0  0  0  0  0  0
   -3.4313   -9.5619   -7.6062 H   0  0  0  0  0  0  0  0  0  0  0  0
   -2.7791   -2.5299   -7.6699 H   0  0  0  0  0  0  0  0  0  0  0  0
   -4.2159    0.1508   -7.0504 H   0  0  0  0  0  0  0  0  0  0  0  0
  -10.0287    0.4312   -6.0250 H   0  0  0  0  0  0  0  0  0  0  0  0
   -9.5289    1.4646   -4.6383 H   0  0  0  0  0  0  0  0  0  0  0  0
  -11.5893    2.3205   -5.8197 H   0  0  0  0  0  0  0  0  0  0  0  0
  -10.2351    3.5120   -5.8404 H   0  0  0  0  0  0  0  0  0  0  0  0
  -10.6180    2.5495   -7.3258 H   0  0  0  0  0  0  0  0  0  0  0  0
    3.4608    6.7167   -7.0976 H   0  0  0  0  0  0  0  0  0  0  0  0
    3.3451    5.2971   -6.0036 H   0  0  0  0  0  0  0  0  0  0  0  0
    3.7672    3.7489   -7.9034 H   0  0  0  0  0  0  0  0  0  0  0  0
    3.8008    5.1421   -9.0588 H   0  0  0  0  0  0  0  0  0  0  0  0
    5.0777    4.9868   -7.7903 H   0  0  0  0  0  0  0  0  0  0  0  0
   -2.0061    6.6381   -6.1621 H   0  0  0  0  0  0  0  0  0  0  0  0
   -7.3140    8.1721    0.0436 H   0  0  0  0  0  0  0  0  0  0  0  0
   -6.3092    6.8118   -0.4865 H   0  0  0  0  0  0  0  0  0  0  0  0
   -8.6115    6.8938   -1.5045 H   0  0  0  0  0  0  0  0  0  0  0  0
   -8.1690    8.3852   -2.3937 H   0  0  0  0  0  0  0  0  0  0  0  0
   -7.3051    6.8169   -2.7174 H   0  0  0  0  0  0  0  0  0  0  0  0
   -6.6133   10.0321   -2.6808 H   0  0  0  0  0  0  0  0  0  0  0  0
   -5.2055   10.7777   -1.8792 H   0  0  0  0  0  0  0  0  0  0  0  0
   -6.5432   10.9658    0.2690 H   0  0  0  0  0  0  0  0  0  0  0  0
   -7.2247   11.8884   -1.1209 H   0  0  0  0  0  0  0  0  0  0  0  0
   -7.9885   10.3384   -0.6326 H   0  0  0  0  0  0  0  0  0  0  0  0
   -5.9221    8.1395   -4.0611 H   0  0  0  0  0  0  0  0  0  0  0  0
   -3.7603    8.5200    2.5988 H   0  0  0  0  0  0  0  0  0  0  0  0
   -3.2518    7.3323    6.7603 H   0  0  0  0  0  0  0  0  0  0  0  0
   -3.1552    5.5579    6.8885 H   0  0  0  0  0  0  0  0  0  0  0  0
   -2.5705    7.5871    9.1337 H   0  0  0  0  0  0  0  0  0  0  0  0
   -3.9720    6.4764    8.9843 H   0  0  0  0  0  0  0  0  0  0  0  0
   -2.3317    5.7939    9.2781 H   0  0  0  0  0  0  0  0  0  0  0  0
    0.6172    7.7175    6.8822 H   0  0  0  0  0  0  0  0  0  0  0  0
   -0.3679    7.8086    8.3560 H   0  0  0  0  0  0  0  0  0  0  0  0
   -0.9591    9.2015    5.6629 H   0  0  0  0  0  0  0  0  0  0  0  0
   -0.4233    9.9499    7.1979 H   0  0  0  0  0  0  0  0  0  0  0  0
   -2.0670    9.2435    7.1039 H   0  0  0  0  0  0  0  0  0  0  0  0
   -2.6459    7.7488    4.5651 H   0  0  0  0  0  0  0  0  0  0  0  0
    1.1338    3.4571    8.5911 H   0  0  0  0  0  0  0  0  0  0  0  0
    3.9775    1.4071    5.1713 H   0  0  0  0  0  0  0  0  0  0  0  0
    7.2885   -1.0681    0.5189 H   0  0  0  0  0  0  0  0  0  0  0  0
    6.5173   -2.5881    1.0916 H   0  0  0  0  0  0  0  0  0  0  0  0
    9.3647   -1.6436    1.8275 H   0  0  0  0  0  0  0  0  0  0  0  0
    8.5808   -3.1886    2.3632 H   0  0  0  0  0  0  0  0  0  0  0  0
    8.9413   -2.9092    0.6149 H   0  0  0  0  0  0  0  0  0  0  0  0
    4.0718    1.0608   14.4193 H   0  0  0  0  0  0  0  0  0  0  0  0
    3.2042   -0.4230   14.9350 H   0  0  0  0  0  0  0  0  0  0  0  0
    5.3296   -0.1198   16.2051 H   0  0  0  0  0  0  0  0  0  0  0  0
    6.2714   -0.1266   14.6645 H   0  0  0  0  0  0  0  0  0  0  0  0
    5.3999   -1.6193   15.2019 H   0  0  0  0  0  0  0  0  0  0  0  0
    6.5530   -2.8173   10.3181 H   0  0  0  0  0  0  0  0  0  0  0  0
    8.2325   -4.0574    8.7650 H   0  0  0  0  0  0  0  0  0  0  0  0
  1  2  2  0
  2  3  1  0
  3  4  2  0
  4  5  1  0
  5  6  1  0
  6  7  1  0
  7  8  1  0
  8  9  1  0
  7 10  2  0
 10 11  1  0
 10 12  1  0
 12 13  1  0
  4 14  1  0
 14 15  2  0
 15 16  1  0
 16 17  1  0
 17 18  1  0
 18 19  1  0
 19 20  1  0
 20 21  1  0
 19 22  2  0
 22 23  1  0
 23 24  1  0
 22 25  1  0
 16 26  2  0
 26 27  1  0
 15 28  1  0
 28 29  2  0
 29 30  1  0
 29 31  1  0
 31 32  2  0
 32 33  1  0
 33 34  2  0
 34 35  1  0
 35 36  1  0
 36 37  1  0
 37 38  1  0
 38 39  1  0
 37 40  2  0
 40 41  1  0
 40 42  1  0
 42 43  1  0
 34 44  1  0
 44 45  2  0
 45 46  1  0
 46 47  1  0
 47 48  1  0
 48 49  1  0
 49 50  1  0
 50 51  1  0
 49 52  2  0
 52 53  1  0
 53 54  1  0
 52 55  1  0
 46 56  2  0
 56 57  1  0
 45 58  1  0
 58 59  2  0
 59 60  1  0
 59 61  1  0
 61 62  2  0
 62 63  1  0
 63 64  2  0
 64 65  1  0
 65 66  1  0
 66 67  1  0
 67 68  1  0
 68 69  1  0
 67 70  2  0
 70 71  1  0
 70 72  1  0
 72 73  1  0
 64 74  1  0
 74 75  2  0
 75 76  1  0
 76 77  1  0
 77 78  1  0
 78 79  1  0
 79 80  1  0
 80 81  1  0
 79 82  2  0
 82 83  1  0
 83 84  1  0
 82 85  1  0
 76 86  2  0
 86 87  1  0
 75 88  1  0
 88 89  2  0
 89 90  1  0
 89 91  1  0
 91 92  1  0
 92 93  1  0
 93 94  1  0
 94 95  2  0
 95 96  1  0
 96 97  1  0
 97 98  1  0
 98 99  1  0
 97100  1  0
100101  1  0
 97102  1  0
102103  1  0
 95104  1  0
104105  2  0
105106  1  0
105107  1  0
107108  1  0
108109  1  0
109110  1  0
110111  2  0
111112  1  0
112113  1  0
113114  1  0
114115  1  0
113116  1  0
116117  1  0
113118  1  0
118119  1  0
111120  1  0
120121  2  0
121122  1  0
121123  1  0
123124  2  0
124125  1  0
125126  2  0
126127  1  0
127128  1  0
128129  1  0
129130  1  0
130131  1  0
129132  2  0
132133  1  0
132134  1  0
134135  1  0
126136  1  0
136137  2  0
137138  1  0
138139  1  0
139140  1  0
140141  1  0
141142  1  0
142143  1  0
141144  2  0
144145  1  0
145146  1  0
144147  1  0
138148  2  0
148149  1  0
137150  1  0
150151  2  0
151152  1  0
 27  1  1  0
 57 31  1  0
 87 61  1  0
103 91  2  0
119107  2  0
149123  1  0
 26  3  1  0
 56 33  1  0
 86 63  1  0
102 93  2  0
118109  2  0
148125  1  0
 12  5  2  0
 30 14  1  0
 42 35  2  0
 60 44  1  0
 72 65  2  0
 90 74  1  0
106 94  1  0
122110  1  0
134127  2  0
152136  1  0
 23 17  2  0
 53 47  2  0
 83 77  2  0
145139  2  0
  1153  1  0
  2154  1  0
  8155  1  0
  8156  1  0
  9157  1  0
  9158  1  0
  9159  1  0
 20160  1  0
 20161  1  0
 21162  1  0
 21163  1  0
 21164  1  0
 28165  1  0
 32166  1  0
 38167  1  0
 38168  1  0
 39169  1  0
 39170  1  0
 39171  1  0
 50172  1  0
 50173  1  0
 51174  1  0
 51175  1  0
 51176  1  0
 58177  1  0
 62178  1  0
 68179  1  0
 68180  1  0
 69181  1  0
 69182  1  0
 69183  1  0
 80184  1  0
 80185  1  0
 81186  1  0
 81187  1  0
 81188  1  0
 88189  1  0
 98190  1  0
 98191  1  0
 99192  1  0
 99193  1  0
 99194  1  0
100195  1  0
100196  1  0
101197  1  0
101198  1  0
101199  1  0
103200  1  0
104201  1  0
114202  1  0
114203  1  0
115204  1  0
115205  1  0
115206  1  0
116207  1  0
116208  1  0
117209  1  0
117210  1  0
117211  1  0
119212  1  0
120213  1  0
124214  1  0
130215  1  0
130216  1  0
131217  1  0
131218  1  0
131219  1  0
142220  1  0
142221  1  0
143222  1  0
143223  1  0
143224  1  0
150225  1  0
151226  1  0
M  END

