
     RDKit          3D

212235  0  0  0  0  0  0  0  0999 V2000
    4.5146   -4.9932    8.8546 C   0  0  0  0  0  0  0  0  0  0  0  0
    2.8593   -5.1993    8.6077 S   0  0  0  0  0  0  0  0  0  0  0  0
    2.5391   -3.5655    8.4057 C   0  0  0  0  0  0  0  0  0  0  0  0
    1.2810   -2.9161    8.1212 C   0  0  0  0  0  0  0  0  0  0  0  0
    1.2381   -1.5517    7.9698 C   0  0  0  0  0  0  0  0  0  0  0  0
    2.3945   -0.7676    8.0891 O   0  0  0  0  0  0  0  0  0  0  0  0
    3.7166   -1.3009    8.3570 C   0  0  0  0  0  0  0  0  0  0  0  0
    4.6417   -0.9168    7.1712 C   0  0  0  0  0  0  0  0  0  0  0  0
    4.2418   -1.5872    5.8524 C   0  0  0  0  0  0  0  0  0  0  0  0
    4.2278   -0.6772    9.6792 C   0  0  0  0  0  0  0  0  0  0  0  0
    4.1826    0.8549    9.7210 C   0  0  0  0  0  0  0  0  0  0  0  0
    3.7028   -2.8280    8.5276 C   0  0  0  0  0  0  0  0  0  0  0  0
    4.8213   -3.6373    8.7760 C   0  0  0  0  0  0  0  0  0  0  0  0
   -0.0316   -1.0607    7.6680 C   0  0  0  0  0  0  0  0  0  0  0  0
   -0.9828   -2.0801    7.5665 C   0  0  0  0  0  0  0  0  0  0  0  0
   -0.2427   -3.5734    7.8619 S   0  0  0  0  0  0  0  0  0  0  0  0
   -2.3798   -1.9008    7.1456 C   0  0  0  0  0  0  0  0  0  0  0  0
   -3.1128   -0.4072    6.8704 S   0  0  0  0  0  0  0  0  0  0  0  0
   -4.5190   -1.0589    6.2302 C   0  0  0  0  0  0  0  0  0  0  0  0
   -5.6384   -0.3612    5.6361 C   0  0  0  0  0  0  0  0  0  0  0  0
   -6.6504   -1.0784    5.0548 C   0  0  0  0  0  0  0  0  0  0  0  0
   -6.6796   -2.4794    5.1486 O   0  0  0  0  0  0  0  0  0  0  0  0
   -5.5027   -3.2744    5.4438 C   0  0  0  0  0  0  0  0  0  0  0  0
   -5.9544   -4.4816    6.3038 C   0  0  0  0  0  0  0  0  0  0  0  0
   -6.6650   -4.0602    7.5951 C   0  0  0  0  0  0  0  0  0  0  0  0
   -4.9620   -3.7476    4.0596 C   0  0  0  0  0  0  0  0  0  0  0  0
   -3.7320   -4.6611    4.0736 C   0  0  0  0  0  0  0  0  0  0  0  0
   -4.4409   -2.4419    6.1877 C   0  0  0  0  0  0  0  0  0  0  0  0
   -3.2410   -2.9201    6.7370 C   0  0  0  0  0  0  0  0  0  0  0  0
   -7.5559   -0.2930    4.3307 C   0  0  0  0  0  0  0  0  0  0  0  0
   -7.2086    1.0630    4.3441 C   0  0  0  0  0  0  0  0  0  0  0  0
   -5.7972    1.2584    5.2600 S   0  0  0  0  0  0  0  0  0  0  0  0
   -7.6787    2.0749    3.3870 C   0  0  0  0  0  0  0  0  0  0  0  0
   -7.3221    3.4234    3.4510 C   0  0  0  0  0  0  0  0  0  0  0  0
   -7.3648    4.0687    2.2043 C   0  0  0  0  0  0  0  0  0  0  0  0
   -6.8567    5.3540    1.9343 C   0  0  0  0  0  0  0  0  0  0  0  0
   -6.3108    6.2194    2.9917 C   0  0  0  0  0  0  0  0  0  0  0  0
   -4.8670    5.9420    3.8142 S   0  0  0  0  0  0  0  0  0  0  0  0
   -4.8817    7.3844    4.6809 C   0  0  0  0  0  0  0  0  0  0  0  0
   -3.7687    7.8528    5.5668 C   0  0  0  0  0  0  0  0  0  0  0  0
   -2.8735    8.8532    4.8357 C   0  0  0  0  0  0  0  0  0  0  0  0
   -6.0163    8.1145    4.3189 C   0  0  0  0  0  0  0  0  0  0  0  0
   -6.3961    9.7060    4.9661 Cl  0  0  0  0  0  0  0  0  0  0  0  0
   -6.8097    7.4662    3.3591 C   0  0  0  0  0  0  0  0  0  0  0  0
   -8.2740    8.1656    2.6792 Cl  0  0  0  0  0  0  0  0  0  0  0  0
   -6.7042    5.7094    0.5844 C   0  0  0  0  0  0  0  0  0  0  0  0
   -7.0972    4.8675   -0.4609 C   0  0  0  0  0  0  0  0  0  0  0  0
   -7.6986    3.6161   -0.1931 C   0  0  0  0  0  0  0  0  0  0  0  0
   -8.0474    2.6717   -1.2789 C   0  0  0  0  0  0  0  0  0  0  0  0
   -7.3600    1.1472   -1.5016 S   0  0  0  0  0  0  0  0  0  0  0  0
   -8.2024    0.7690   -2.9059 C   0  0  0  0  0  0  0  0  0  0  0  0
   -8.0238   -0.5019   -3.6839 C   0  0  0  0  0  0  0  0  0  0  0  0
   -6.9043   -0.3644   -4.7088 C   0  0  0  0  0  0  0  0  0  0  0  0
   -9.0190    1.8502   -3.2384 C   0  0  0  0  0  0  0  0  0  0  0  0
   -8.9350    2.9139   -2.3252 C   0  0  0  0  0  0  0  0  0  0  0  0
   -9.8849    4.3879   -2.4697 Cl  0  0  0  0  0  0  0  0  0  0  0  0
  -10.0557    1.8779   -4.6606 Cl  0  0  0  0  0  0  0  0  0  0  0  0
   -7.7825    3.2372    1.1612 C   0  0  0  0  0  0  0  0  0  0  0  0
   -8.1076    1.7087    1.7934 S   0  0  0  0  0  0  0  0  0  0  0  0
   -6.5944    5.2761   -1.7064 C   0  0  0  0  0  0  0  0  0  0  0  0
   -5.7620    6.3992   -1.6345 C   0  0  0  0  0  0  0  0  0  0  0  0
   -5.7104    6.9208   -0.0295 S   0  0  0  0  0  0  0  0  0  0  0  0
   -4.6739    6.6326   -2.6021 C   0  0  0  0  0  0  0  0  0  0  0  0
   -3.3352    6.7491   -2.2079 C   0  0  0  0  0  0  0  0  0  0  0  0
   -2.4266    6.2458   -3.1519 C   0  0  0  0  0  0  0  0  0  0  0  0
   -1.0714    5.9340   -2.8921 C   0  0  0  0  0  0  0  0  0  0  0  0
   -0.3811    6.4417   -1.6871 C   0  0  0  0  0  0  0  0  0  0  0  0
    0.2794    5.4966   -0.4576 S   0  0  0  0  0  0  0  0  0  0  0  0
    0.7990    6.7811    0.4994 C   0  0  0  0  0  0  0  0  0  0  0  0
    1.5673    6.6337    1.7788 C   0  0  0  0  0  0  0  0  0  0  0  0
    3.0656    6.5687    1.5069 C   0  0  0  0  0  0  0  0  0  0  0  0
    0.4794    7.9744   -0.1446 C   0  0  0  0  0  0  0  0  0  0  0  0
    0.8908    9.5615    0.4981 Cl  0  0  0  0  0  0  0  0  0  0  0  0
   -0.1918    7.7854   -1.3621 C   0  0  0  0  0  0  0  0  0  0  0  0
   -0.7077    9.1165   -2.3917 Cl  0  0  0  0  0  0  0  0  0  0  0  0
   -0.4595    5.0178   -3.7715 C   0  0  0  0  0  0  0  0  0  0  0  0
   -1.1056    4.5356   -4.9144 C   0  0  0  0  0  0  0  0  0  0  0  0
   -2.4090    4.9582   -5.2376 C   0  0  0  0  0  0  0  0  0  0  0  0
   -3.1663    4.3320   -6.3328 C   0  0  0  0  0  0  0  0  0  0  0  0
   -3.7578    2.7586   -6.3034 S   0  0  0  0  0  0  0  0  0  0  0  0
   -4.3837    2.7821   -7.8635 C   0  0  0  0  0  0  0  0  0  0  0  0
   -4.9808    1.5913   -8.5430 C   0  0  0  0  0  0  0  0  0  0  0  0
   -3.8815    0.6765   -9.0707 C   0  0  0  0  0  0  0  0  0  0  0  0
   -4.1232    4.0299   -8.4335 C   0  0  0  0  0  0  0  0  0  0  0  0
   -3.4512    4.9046   -7.5654 C   0  0  0  0  0  0  0  0  0  0  0  0
   -2.9861    6.5467   -7.9996 Cl  0  0  0  0  0  0  0  0  0  0  0  0
   -4.5700    4.4617  -10.0806 Cl  0  0  0  0  0  0  0  0  0  0  0  0
   -3.0540    5.7884   -4.3153 C   0  0  0  0  0  0  0  0  0  0  0  0
   -4.7105    6.0000   -4.1658 S   0  0  0  0  0  0  0  0  0  0  0  0
   -0.4258    3.4778   -5.5336 C   0  0  0  0  0  0  0  0  0  0  0  0
    0.7161    3.0666   -4.8468 C   0  0  0  0  0  0  0  0  0  0  0  0
    0.9321    4.0929   -3.5197 S   0  0  0  0  0  0  0  0  0  0  0  0
    1.1768    1.6713   -4.8838 C   0  0  0  0  0  0  0  0  0  0  0  0
    2.7059    1.0834   -4.4789 S   0  0  0  0  0  0  0  0  0  0  0  0
    2.2492   -0.5414   -4.5610 C   0  0  0  0  0  0  0  0  0  0  0  0
    3.0281   -1.7387   -4.2860 C   0  0  0  0  0  0  0  0  0  0  0  0
    2.3920   -2.9558   -4.2302 C   0  0  0  0  0  0  0  0  0  0  0  0
    1.0056   -3.0635   -4.3800 O   0  0  0  0  0  0  0  0  0  0  0  0
    0.1654   -1.9980   -4.8749 C   0  0  0  0  0  0  0  0  0  0  0  0
   -0.2173   -2.4013   -6.3237 C   0  0  0  0  0  0  0  0  0  0  0  0
   -1.1410   -1.4367   -7.0791 C   0  0  0  0  0  0  0  0  0  0  0  0
   -1.0888   -1.9445   -3.9605 C   0  0  0  0  0  0  0  0  0  0  0  0
   -0.7400   -1.7537   -2.4819 C   0  0  0  0  0  0  0  0  0  0  0  0
    0.9018   -0.6471   -4.8565 C   0  0  0  0  0  0  0  0  0  0  0  0
    0.3023    0.6012   -5.0476 C   0  0  0  0  0  0  0  0  0  0  0  0
    3.2428   -4.0348   -4.0239 C   0  0  0  0  0  0  0  0  0  0  0  0
    4.5806   -3.6507   -3.9320 C   0  0  0  0  0  0  0  0  0  0  0  0
    4.6858   -1.9611   -4.0841 S   0  0  0  0  0  0  0  0  0  0  0  0
    5.7104   -4.5838   -3.8538 C   0  0  0  0  0  0  0  0  0  0  0  0
    5.6533   -5.9285   -4.2158 C   0  0  0  0  0  0  0  0  0  0  0  0
    6.8835   -6.5859   -4.0730 C   0  0  0  0  0  0  0  0  0  0  0  0
    7.1388   -7.9404   -4.3664 C   0  0  0  0  0  0  0  0  0  0  0  0
    6.0761   -8.8480   -4.8234 C   0  0  0  0  0  0  0  0  0  0  0  0
    5.3414  -10.0041   -3.8514 S   0  0  0  0  0  0  0  0  0  0  0  0
    4.1975  -10.4877   -4.9840 C   0  0  0  0  0  0  0  0  0  0  0  0
    3.0976  -11.4668   -4.7084 C   0  0  0  0  0  0  0  0  0  0  0  0
    1.8054  -10.7455   -4.3364 C   0  0  0  0  0  0  0  0  0  0  0  0
    4.3658   -9.7297   -6.1421 C   0  0  0  0  0  0  0  0  0  0  0  0
    3.3413   -9.8806   -7.5635 Cl  0  0  0  0  0  0  0  0  0  0  0  0
    5.4203   -8.8055   -6.0490 C   0  0  0  0  0  0  0  0  0  0  0  0
    5.8596   -7.6945   -7.3415 Cl  0  0  0  0  0  0  0  0  0  0  0  0
    8.4417   -8.4045   -4.1327 C   0  0  0  0  0  0  0  0  0  0  0  0
    9.4537   -7.5883   -3.6189 C   0  0  0  0  0  0  0  0  0  0  0  0
    9.1986   -6.2321   -3.3238 C   0  0  0  0  0  0  0  0  0  0  0  0
   10.2167   -5.3566   -2.7161 C   0  0  0  0  0  0  0  0  0  0  0  0
   10.0899   -4.6728   -1.1834 S   0  0  0  0  0  0  0  0  0  0  0  0
   11.5834   -3.9007   -1.2063 C   0  0  0  0  0  0  0  0  0  0  0  0
   12.0932   -3.0160   -0.1099 C   0  0  0  0  0  0  0  0  0  0  0  0
   11.5101   -1.6145   -0.2335 C   0  0  0  0  0  0  0  0  0  0  0  0
   12.1955   -4.1492   -2.4351 C   0  0  0  0  0  0  0  0  0  0  0  0
   11.4310   -4.9736   -3.2786 C   0  0  0  0  0  0  0  0  0  0  0  0
   11.9362   -5.4276   -4.9024 Cl  0  0  0  0  0  0  0  0  0  0  0  0
   13.7633   -3.4906   -2.8895 Cl  0  0  0  0  0  0  0  0  0  0  0  0
    7.8989   -5.7574   -3.5756 C   0  0  0  0  0  0  0  0  0  0  0  0
    7.2789   -4.2045   -3.3512 S   0  0  0  0  0  0  0  0  0  0  0  0
   10.6612   -8.2784   -3.4191 C   0  0  0  0  0  0  0  0  0  0  0  0
   10.6025   -9.6145   -3.8012 C   0  0  0  0  0  0  0  0  0  0  0  0
    9.0481   -9.9595   -4.3638 S   0  0  0  0  0  0  0  0  0  0  0  0
    5.2216   -5.7851    9.0395 H   0  0  0  0  0  0  0  0  0  0  0  0
    5.6955   -1.1878    7.4051 H   0  0  0  0  0  0  0  0  0  0  0  0
    4.6026    0.1823    7.0123 H   0  0  0  0  0  0  0  0  0  0  0  0
    3.1677   -1.4080    5.6285 H   0  0  0  0  0  0  0  0  0  0  0  0
    4.8496   -1.1657    5.0216 H   0  0  0  0  0  0  0  0  0  0  0  0
    4.4289   -2.6829    5.8962 H   0  0  0  0  0  0  0  0  0  0  0  0
    3.6035   -1.0539   10.5218 H   0  0  0  0  0  0  0  0  0  0  0  0
    5.2743   -0.9975    9.8741 H   0  0  0  0  0  0  0  0  0  0  0  0
    4.9141    1.2936    9.0071 H   0  0  0  0  0  0  0  0  0  0  0  0
    4.4503    1.2014   10.7414 H   0  0  0  0  0  0  0  0  0  0  0  0
    3.1617    1.2304    9.4829 H   0  0  0  0  0  0  0  0  0  0  0  0
    5.8254   -3.2502    8.8826 H   0  0  0  0  0  0  0  0  0  0  0  0
   -0.2381   -0.0110    7.4977 H   0  0  0  0  0  0  0  0  0  0  0  0
   -6.6516   -5.1175    5.7159 H   0  0  0  0  0  0  0  0  0  0  0  0
   -5.0874   -5.1114    6.5850 H   0  0  0  0  0  0  0  0  0  0  0  0
   -7.5794   -3.4775    7.3630 H   0  0  0  0  0  0  0  0  0  0  0  0
   -5.9905   -3.4531    8.2368 H   0  0  0  0  0  0  0  0  0  0  0  0
   -6.9652   -4.9668    8.1581 H   0  0  0  0  0  0  0  0  0  0  0  0
   -5.7776   -4.2847    3.5228 H   0  0  0  0  0  0  0  0  0  0  0  0
   -4.7171   -2.8501    3.4480 H   0  0  0  0  0  0  0  0  0  0  0  0
   -3.8871   -5.5547    4.7095 H   0  0  0  0  0  0  0  0  0  0  0  0
   -3.5313   -5.0128    3.0418 H   0  0  0  0  0  0  0  0  0  0  0  0
   -2.8258   -4.1067    4.3982 H   0  0  0  0  0  0  0  0  0  0  0  0
   -2.9743   -3.9669    6.7746 H   0  0  0  0  0  0  0  0  0  0  0  0
   -8.3601   -0.7145    3.7350 H   0  0  0  0  0  0  0  0  0  0  0  0
   -6.9285    3.8828    4.3486 H   0  0  0  0  0  0  0  0  0  0  0  0
   -4.1910    8.3359    6.4733 H   0  0  0  0  0  0  0  0  0  0  0  0
   -3.1582    6.9819    5.8847 H   0  0  0  0  0  0  0  0  0  0  0  0
   -3.4519    9.7577    4.5579 H   0  0  0  0  0  0  0  0  0  0  0  0
   -2.4432    8.3943    3.9189 H   0  0  0  0  0  0  0  0  0  0  0  0
   -2.0464    9.1606    5.5091 H   0  0  0  0  0  0  0  0  0  0  0  0
   -7.7831   -1.3311   -2.9834 H   0  0  0  0  0  0  0  0  0  0  0  0
   -8.9694   -0.7660   -4.2077 H   0  0  0  0  0  0  0  0  0  0  0  0
   -7.1378    0.4460   -5.4323 H   0  0  0  0  0  0  0  0  0  0  0  0
   -6.7914   -1.3156   -5.2658 H   0  0  0  0  0  0  0  0  0  0  0  0
   -5.9404   -0.1318   -4.2025 H   0  0  0  0  0  0  0  0  0  0  0  0
   -6.6863    4.6724   -2.5985 H   0  0  0  0  0  0  0  0  0  0  0  0
   -3.0442    6.9825   -1.1905 H   0  0  0  0  0  0  0  0  0  0  0  0
    1.3517    7.4928    2.4514 H   0  0  0  0  0  0  0  0  0  0  0  0
    1.2422    5.7075    2.2999 H   0  0  0  0  0  0  0  0  0  0  0  0
    3.4034    7.4867    0.9806 H   0  0  0  0  0  0  0  0  0  0  0  0
    3.6172    6.4869    2.4674 H   0  0  0  0  0  0  0  0  0  0  0  0
    3.3041    5.6831    0.8799 H   0  0  0  0  0  0  0  0  0  0  0  0
   -5.6320    1.9077   -9.3839 H   0  0  0  0  0  0  0  0  0  0  0  0
   -5.6024    1.0362   -7.8111 H   0  0  0  0  0  0  0  0  0  0  0  0
   -4.3243   -0.2676   -9.4563 H   0  0  0  0  0  0  0  0  0  0  0  0
   -3.3312    1.1815   -9.8968 H   0  0  0  0  0  0  0  0  0  0  0  0
   -3.1644    0.4270   -8.2585 H   0  0  0  0  0  0  0  0  0  0  0  0
   -0.8311    2.9165   -6.3699 H   0  0  0  0  0  0  0  0  0  0  0  0
    0.7118   -2.5232   -6.9207 H   0  0  0  0  0  0  0  0  0  0  0  0
   -0.7155   -3.3993   -6.2999 H   0  0  0  0  0  0  0  0  0  0  0  0
   -0.6030   -0.5035   -7.3458 H   0  0  0  0  0  0  0  0  0  0  0  0
   -1.4667   -1.9165   -8.0283 H   0  0  0  0  0  0  0  0  0  0  0  0
   -2.0536   -1.2033   -6.4970 H   0  0  0  0  0  0  0  0  0  0  0  0
   -1.7739   -1.1249   -4.2568 H   0  0  0  0  0  0  0  0  0  0  0  0
   -1.6602   -2.8952   -4.0543 H   0  0  0  0  0  0  0  0  0  0  0  0
   -1.6722   -1.6291   -1.8893 H   0  0  0  0  0  0  0  0  0  0  0  0
   -0.1151   -0.8486   -2.3317 H   0  0  0  0  0  0  0  0  0  0  0  0
   -0.1997   -2.6418   -2.0914 H   0  0  0  0  0  0  0  0  0  0  0  0
   -0.7567    0.7282   -5.2311 H   0  0  0  0  0  0  0  0  0  0  0  0
    2.8924   -5.0566   -3.9715 H   0  0  0  0  0  0  0  0  0  0  0  0
    4.7578   -6.4099   -4.5881 H   0  0  0  0  0  0  0  0  0  0  0  0
    3.3957  -12.1242   -3.8645 H   0  0  0  0  0  0  0  0  0  0  0  0
    2.9284  -12.1090   -5.5989 H   0  0  0  0  0  0  0  0  0  0  0  0
    1.0391  -11.4850   -4.0264 H   0  0  0  0  0  0  0  0  0  0  0  0
    1.9829  -10.0435   -3.4885 H   0  0  0  0  0  0  0  0  0  0  0  0
    1.4211  -10.1666   -5.2045 H   0  0  0  0  0  0  0  0  0  0  0  0
   13.2032   -2.9622   -0.1388 H   0  0  0  0  0  0  0  0  0  0  0  0
   11.8041   -3.4477    0.8732 H   0  0  0  0  0  0  0  0  0  0  0  0
   11.9301   -0.9608    0.5592 H   0  0  0  0  0  0  0  0  0  0  0  0
   11.7641   -1.1789   -1.2243 H   0  0  0  0  0  0  0  0  0  0  0  0
   10.4031   -1.6449   -0.1215 H   0  0  0  0  0  0  0  0  0  0  0  0
   11.5567   -7.8336   -3.0061 H   0  0  0  0  0  0  0  0  0  0  0  0
   11.4165  -10.3248   -3.7357 H   0  0  0  0  0  0  0  0  0  0  0  0
  1  2  1  0
  2  3  1  0
  3  4  1  0
  4  5  2  0
  5  6  1  0
  6  7  1  0
  7  8  1  0
  8  9  1  0
  7 10  1  0
 10 11  1  0
  7 12  1  0
 12 13  1  0
  5 14  1  0
 14 15  2  0
 15 16  1  0
 15 17  1  0
 17 18  1  0
 18 19  1  0
 19 20  1  0
 20 21  2  0
 21 22  1  0
 22 23  1  0
 23 24  1  0
 24 25  1  0
 23 26  1  0
 26 27  1  0
 23 28  1  0
 28 29  1  0
 21 30  1  0
 30 31  2  0
 31 32  1  0
 31 33  1  0
 33 34  2  0
 34 35  1  0
 35 36  2  0
 36 37  1  0
 37 38  1  0
 38 39  1  0
 39 40  1  0
 40 41  1  0
 39 42  2  0
 42 43  1  0
 42 44  1  0
 44 45  1  0
 36 46  1  0
 46 47  2  0
 47 48  1  0
 48 49  1  0
 49 50  1  0
 50 51  1  0
 51 52  1  0
 52 53  1  0
 51 54  2  0
 54 55  1  0
 55 56  1  0
 54 57  1  0
 48 58  2  0
 58 59  1  0
 47 60  1  0
 60 61  2  0
 61 62  1  0
 61 63  1  0
 63 64  2  0
 64 65  1  0
 65 66  2  0
 66 67  1  0
 67 68  1  0
 68 69  1  0
 69 70  1  0
 70 71  1  0
 69 72  2  0
 72 73  1  0
 72 74  1  0
 74 75  1  0
 66 76  1  0
 76 77  2  0
 77 78  1  0
 78 79  1  0
 79 80  1  0
 80 81  1  0
 81 82  1  0
 82 83  1  0
 81 84  2  0
 84 85  1  0
 85 86  1  0
 84 87  1  0
 78 88  2  0
 88 89  1  0
 77 90  1  0
 90 91  2  0
 91 92  1  0
 91 93  1  0
 93 94  1  0
 94 95  1  0
 95 96  1  0
 96 97  2  0
 97 98  1  0
 98 99  1  0
 99100  1  0
100101  1  0
 99102  1  0
102103  1  0
 99104  1  0
104105  1  0
 97106  1  0
106107  2  0
107108  1  0
107109  1  0
109110  2  0
110111  1  0
111112  2  0
112113  1  0
113114  1  0
114115  1  0
115116  1  0
116117  1  0
115118  2  0
118119  1  0
118120  1  0
120121  1  0
112122  1  0
122123  2  0
123124  1  0
124125  1  0
125126  1  0
126127  1  0
127128  1  0
128129  1  0
127130  2  0
130131  1  0
131132  1  0
130133  1  0
124134  2  0
134135  1  0
123136  1  0
136137  2  0
137138  1  0
 13  1  2  0
 29 17  2  0
 59 33  1  0
 89 63  1  0
105 93  2  0
135109  1  0
 12  3  2  0
 28 19  2  0
 58 35  1  0
 88 65  1  0
104 95  2  0
134111  1  0
 16  4  1  0
 32 20  1  0
 44 37  2  0
 62 46  1  0
 74 67  2  0
 92 76  1  0
108 96  1  0
120113  2  0
138122  1  0
 55 49  2  0
 85 79  2  0
131125  2  0
  1139  1  0
  8140  1  0
  8141  1  0
  9142  1  0
  9143  1  0
  9144  1  0
 10145  1  0
 10146  1  0
 11147  1  0
 11148  1  0
 11149  1  0
 13150  1  0
 14151  1  0
 24152  1  0
 24153  1  0
 25154  1  0
 25155  1  0
 25156  1  0
 26157  1  0
 26158  1  0
 27159  1  0
 27160  1  0
 27161  1  0
 29162  1  0
 30163  1  0
 34164  1  0
 40165  1  0
 40166  1  0
 41167  1  0
 41168  1  0
 41169  1  0
 52170  1  0
 52171  1  0
 53172  1  0
 53173  1  0
 53174  1  0
 60175  1  0
 64176  1  0
 70177  1  0
 70178  1  0
 71179  1  0
 71180  1  0
 71181  1  0
 82182  1  0
 82183  1  0
 83184  1  0
 83185  1  0
 83186  1  0
 90187  1  0
100188  1  0
100189  1  0
101190  1  0
101191  1  0
101192  1  0
102193  1  0
102194  1  0
103195  1  0
103196  1  0
103197  1  0
105198  1  0
106199  1  0
110200  1  0
116201  1  0
116202  1  0
117203  1  0
117204  1  0
117205  1  0
128206  1  0
128207  1  0
129208  1  0
129209  1  0
129210  1  0
136211  1  0
137212  1  0
M  END

