
     RDKit          3D

185197  0  0  0  0  0  0  0  0999 V2000
    1.8646   -1.8662   13.2137 C   0  0  0  0  0  0  0  0  0  0  0  0
    2.1403   -0.8102   12.3542 C   0  0  0  0  0  0  0  0  0  0  0  0
    1.6938   -1.0250   11.0422 C   0  0  0  0  0  0  0  0  0  0  0  0
    1.7605    0.0103    9.9948 C   0  0  0  0  0  0  0  0  0  0  0  0
    2.9989    0.4659    9.5288 C   0  0  0  0  0  0  0  0  0  0  0  0
    3.0679    1.3676    8.4626 C   0  0  0  0  0  0  0  0  0  0  0  0
    1.8753    1.8712    7.9035 C   0  0  0  0  0  0  0  0  0  0  0  0
    0.6242    1.4321    8.3760 C   0  0  0  0  0  0  0  0  0  0  0  0
   -0.5972    1.8872    7.8480 O   0  0  0  0  0  0  0  0  0  0  0  0
   -0.7526    2.7381    6.7096 C   0  0  0  0  0  0  0  0  0  0  0  0
   -0.5233    1.9587    5.4162 C   0  0  0  0  0  0  0  0  0  0  0  0
    0.5804    0.5020    9.4182 C   0  0  0  0  0  0  0  0  0  0  0  0
    4.3409    1.7285    7.9861 O   0  0  0  0  0  0  0  0  0  0  0  0
    4.6058    2.4151    6.7619 C   0  0  0  0  0  0  0  0  0  0  0  0
    4.3284    1.5112    5.5588 C   0  0  0  0  0  0  0  0  0  0  0  0
    1.0830   -2.2690   10.8666 C   0  0  0  0  0  0  0  0  0  0  0  0
    1.0718   -3.0686   12.3448 S   0  0  0  0  0  0  0  0  0  0  0  0
    0.5793   -2.8271    9.6033 C   0  0  0  0  0  0  0  0  0  0  0  0
   -0.6082   -3.5279    9.4363 C   0  0  0  0  0  0  0  0  0  0  0  0
   -0.8657   -3.8611    8.0981 C   0  0  0  0  0  0  0  0  0  0  0  0
   -2.0820   -4.5677    7.6639 C   0  0  0  0  0  0  0  0  0  0  0  0
   -3.3401   -3.9973    7.8874 C   0  0  0  0  0  0  0  0  0  0  0  0
   -4.4941   -4.5958    7.3727 C   0  0  0  0  0  0  0  0  0  0  0  0
   -4.3808   -5.7982    6.6451 C   0  0  0  0  0  0  0  0  0  0  0  0
   -3.1201   -6.3925    6.4385 C   0  0  0  0  0  0  0  0  0  0  0  0
   -2.9478   -7.5965    5.7317 O   0  0  0  0  0  0  0  0  0  0  0  0
   -3.9608   -8.2755    4.9880 C   0  0  0  0  0  0  0  0  0  0  0  0
   -4.2447   -7.5502    3.6760 C   0  0  0  0  0  0  0  0  0  0  0  0
   -1.9799   -5.7707    6.9516 C   0  0  0  0  0  0  0  0  0  0  0  0
   -5.7224   -3.9539    7.6006 O   0  0  0  0  0  0  0  0  0  0  0  0
   -7.0007   -4.4295    7.1823 C   0  0  0  0  0  0  0  0  0  0  0  0
   -7.4825   -5.5600    8.0895 C   0  0  0  0  0  0  0  0  0  0  0  0
    0.1369   -3.4465    7.2202 C   0  0  0  0  0  0  0  0  0  0  0  0
    1.3157   -2.6419    8.1012 S   0  0  0  0  0  0  0  0  0  0  0  0
    0.0575   -3.4320    5.7578 C   0  0  0  0  0  0  0  0  0  0  0  0
    1.0975   -3.6822    4.8779 C   0  0  0  0  0  0  0  0  0  0  0  0
    0.7633   -3.4465    3.5330 C   0  0  0  0  0  0  0  0  0  0  0  0
    1.7429   -3.6795    2.4574 C   0  0  0  0  0  0  0  0  0  0  0  0
    1.5586   -4.7286    1.5469 C   0  0  0  0  0  0  0  0  0  0  0  0
    2.5249   -5.0107    0.5736 C   0  0  0  0  0  0  0  0  0  0  0  0
    3.6880   -4.2192    0.5152 C   0  0  0  0  0  0  0  0  0  0  0  0
    3.9089   -3.2025    1.4514 C   0  0  0  0  0  0  0  0  0  0  0  0
    5.1226   -2.4999    1.3880 O   0  0  0  0  0  0  0  0  0  0  0  0
    5.6225   -1.6208    2.3967 C   0  0  0  0  0  0  0  0  0  0  0  0
    6.0511   -2.4001    3.6387 C   0  0  0  0  0  0  0  0  0  0  0  0
    2.9249   -2.9293    2.4182 C   0  0  0  0  0  0  0  0  0  0  0  0
    2.2922   -6.0868   -0.3001 O   0  0  0  0  0  0  0  0  0  0  0  0
    3.2149   -6.5840   -1.2716 C   0  0  0  0  0  0  0  0  0  0  0  0
    4.3544   -7.3523   -0.6050 C   0  0  0  0  0  0  0  0  0  0  0  0
   -0.5421   -2.9559    3.3593 C   0  0  0  0  0  0  0  0  0  0  0  0
   -1.2537   -2.8619    4.8828 S   0  0  0  0  0  0  0  0  0  0  0  0
   -1.1676   -2.3854    2.1449 C   0  0  0  0  0  0  0  0  0  0  0  0
   -0.6152   -2.5044    0.5483 S   0  0  0  0  0  0  0  0  0  0  0  0
   -1.7864   -1.4881   -0.1001 C   0  0  0  0  0  0  0  0  0  0  0  0
   -1.9478   -1.0144   -1.4625 C   0  0  0  0  0  0  0  0  0  0  0  0
   -2.9664   -0.1422   -1.7532 C   0  0  0  0  0  0  0  0  0  0  0  0
   -3.8647    0.2805   -0.7662 O   0  0  0  0  0  0  0  0  0  0  0  0
   -3.6398    0.0949    0.6526 C   0  0  0  0  0  0  0  0  0  0  0  0
   -3.0235    1.4000    1.2292 C   0  0  0  0  0  0  0  0  0  0  0  0
   -3.8250    2.6691    0.9320 C   0  0  0  0  0  0  0  0  0  0  0  0
   -4.9869   -0.2707    1.3500 C   0  0  0  0  0  0  0  0  0  0  0  0
   -6.2388    0.2486    0.6289 C   0  0  0  0  0  0  0  0  0  0  0  0
   -2.6204   -1.0258    0.9056 C   0  0  0  0  0  0  0  0  0  0  0  0
   -2.2724   -1.5310    2.1672 C   0  0  0  0  0  0  0  0  0  0  0  0
   -3.0061    0.2490   -3.0884 C   0  0  0  0  0  0  0  0  0  0  0  0
   -1.9930   -0.3398   -3.8470 C   0  0  0  0  0  0  0  0  0  0  0  0
   -1.0547   -1.3410   -2.8511 S   0  0  0  0  0  0  0  0  0  0  0  0
   -1.7248   -0.0448   -5.2613 C   0  0  0  0  0  0  0  0  0  0  0  0
   -0.8742   -0.7458   -6.1089 C   0  0  0  0  0  0  0  0  0  0  0  0
   -0.7423   -0.1571   -7.3794 C   0  0  0  0  0  0  0  0  0  0  0  0
    0.2229   -0.6493   -8.3776 C   0  0  0  0  0  0  0  0  0  0  0  0
    1.5966   -0.5138   -8.1409 C   0  0  0  0  0  0  0  0  0  0  0  0
    2.5310   -0.9393   -9.1024 C   0  0  0  0  0  0  0  0  0  0  0  0
    2.0690   -1.4828  -10.3077 C   0  0  0  0  0  0  0  0  0  0  0  0
    0.6888   -1.6275  -10.5536 C   0  0  0  0  0  0  0  0  0  0  0  0
    0.1803   -2.1568  -11.7502 O   0  0  0  0  0  0  0  0  0  0  0  0
    0.9372   -2.4182  -12.9310 C   0  0  0  0  0  0  0  0  0  0  0  0
    1.3154   -1.1171  -13.6333 C   0  0  0  0  0  0  0  0  0  0  0  0
   -0.2234   -1.2327   -9.5693 C   0  0  0  0  0  0  0  0  0  0  0  0
    3.9188   -0.8281   -8.9131 O   0  0  0  0  0  0  0  0  0  0  0  0
    4.5561   -0.4041   -7.7085 C   0  0  0  0  0  0  0  0  0  0  0  0
    4.5098   -1.5058   -6.6552 C   0  0  0  0  0  0  0  0  0  0  0  0
   -1.4788    1.0245   -7.5201 C   0  0  0  0  0  0  0  0  0  0  0  0
   -2.2833    1.3173   -6.0739 S   0  0  0  0  0  0  0  0  0  0  0  0
   -1.3589    2.0186   -8.5943 C   0  0  0  0  0  0  0  0  0  0  0  0
   -1.1133    3.3673   -8.3879 C   0  0  0  0  0  0  0  0  0  0  0  0
   -1.0275    4.1049   -9.5752 C   0  0  0  0  0  0  0  0  0  0  0  0
   -0.7648    5.5587   -9.5934 C   0  0  0  0  0  0  0  0  0  0  0  0
   -1.5573    6.4140  -10.3706 C   0  0  0  0  0  0  0  0  0  0  0  0
   -1.3844    7.8007  -10.3018 C   0  0  0  0  0  0  0  0  0  0  0  0
   -0.3601    8.3305   -9.4932 C   0  0  0  0  0  0  0  0  0  0  0  0
    0.4487    7.4895   -8.7205 C   0  0  0  0  0  0  0  0  0  0  0  0
    1.4314    8.0807   -7.9103 O   0  0  0  0  0  0  0  0  0  0  0  0
    2.2687    7.3991   -6.9731 C   0  0  0  0  0  0  0  0  0  0  0  0
    1.4733    6.9718   -5.7375 C   0  0  0  0  0  0  0  0  0  0  0  0
    0.2443    6.0989   -8.7775 C   0  0  0  0  0  0  0  0  0  0  0  0
   -2.2645    8.6117  -11.0357 O   0  0  0  0  0  0  0  0  0  0  0  0
   -2.4137   10.0222  -10.8836 C   0  0  0  0  0  0  0  0  0  0  0  0
   -3.0610   10.3620   -9.5424 C   0  0  0  0  0  0  0  0  0  0  0  0
   -1.2218    3.3375  -10.7222 C   0  0  0  0  0  0  0  0  0  0  0  0
   -1.4642    1.7419  -10.2473 S   0  0  0  0  0  0  0  0  0  0  0  0
    2.1039   -1.9007   14.2687 H   0  0  0  0  0  0  0  0  0  0  0  0
    2.6229    0.1018   12.6802 H   0  0  0  0  0  0  0  0  0  0  0  0
    3.9156    0.0799    9.9559 H   0  0  0  0  0  0  0  0  0  0  0  0
    1.9214    2.5964    7.1065 H   0  0  0  0  0  0  0  0  0  0  0  0
   -0.0774    3.6186    6.7702 H   0  0  0  0  0  0  0  0  0  0  0  0
   -1.7963    3.1205    6.7057 H   0  0  0  0  0  0  0  0  0  0  0  0
   -0.7396    2.6133    4.5453 H   0  0  0  0  0  0  0  0  0  0  0  0
    0.5267    1.6109    5.3519 H   0  0  0  0  0  0  0  0  0  0  0  0
   -1.2005    1.0794    5.3785 H   0  0  0  0  0  0  0  0  0  0  0  0
   -0.3833    0.1514    9.7715 H   0  0  0  0  0  0  0  0  0  0  0  0
    5.6794    2.6952    6.7446 H   0  0  0  0  0  0  0  0  0  0  0  0
    4.0154    3.3543    6.6975 H   0  0  0  0  0  0  0  0  0  0  0  0
    3.2551    1.2396    5.5109 H   0  0  0  0  0  0  0  0  0  0  0  0
    4.9365    0.5830    5.6320 H   0  0  0  0  0  0  0  0  0  0  0  0
    4.6010    2.0433    4.6231 H   0  0  0  0  0  0  0  0  0  0  0  0
   -1.2775   -3.7628   10.2539 H   0  0  0  0  0  0  0  0  0  0  0  0
   -3.4181   -3.0612    8.4272 H   0  0  0  0  0  0  0  0  0  0  0  0
   -5.2624   -6.2641    6.2389 H   0  0  0  0  0  0  0  0  0  0  0  0
   -3.5908   -9.2965    4.7502 H   0  0  0  0  0  0  0  0  0  0  0  0
   -4.8910   -8.3945    5.5903 H   0  0  0  0  0  0  0  0  0  0  0  0
   -4.6716   -6.5466    3.8712 H   0  0  0  0  0  0  0  0  0  0  0  0
   -3.3045   -7.4419    3.0938 H   0  0  0  0  0  0  0  0  0  0  0  0
   -4.9731   -8.1368    3.0756 H   0  0  0  0  0  0  0  0  0  0  0  0
   -1.0063   -6.2201    6.7793 H   0  0  0  0  0  0  0  0  0  0  0  0
   -6.9779   -4.7520    6.1184 H   0  0  0  0  0  0  0  0  0  0  0  0
   -7.7247   -3.5890    7.2555 H   0  0  0  0  0  0  0  0  0  0  0  0
   -6.8390   -6.4558    7.9793 H   0  0  0  0  0  0  0  0  0  0  0  0
   -8.5212   -5.8388    7.8123 H   0  0  0  0  0  0  0  0  0  0  0  0
   -7.4714   -5.2252    9.1493 H   0  0  0  0  0  0  0  0  0  0  0  0
    2.0734   -4.0317    5.1969 H   0  0  0  0  0  0  0  0  0  0  0  0
    0.6626   -5.3367    1.6000 H   0  0  0  0  0  0  0  0  0  0  0  0
    4.4420   -4.3959   -0.2384 H   0  0  0  0  0  0  0  0  0  0  0  0
    6.5120   -1.0940    1.9909 H   0  0  0  0  0  0  0  0  0  0  0  0
    4.8699   -0.8427    2.6519 H   0  0  0  0  0  0  0  0  0  0  0  0
    6.8143   -3.1614    3.3667 H   0  0  0  0  0  0  0  0  0  0  0  0
    5.1815   -2.9088    4.1043 H   0  0  0  0  0  0  0  0  0  0  0  0
    6.4882   -1.7027    4.3851 H   0  0  0  0  0  0  0  0  0  0  0  0
    3.0627   -2.1403    3.1438 H   0  0  0  0  0  0  0  0  0  0  0  0
    2.6681   -7.2849   -1.9361 H   0  0  0  0  0  0  0  0  0  0  0  0
    3.6052   -5.7553   -1.9033 H   0  0  0  0  0  0  0  0  0  0  0  0
    4.9905   -7.8225   -1.3846 H   0  0  0  0  0  0  0  0  0  0  0  0
    4.9872   -6.6745    0.0036 H   0  0  0  0  0  0  0  0  0  0  0  0
    3.9442   -8.1460    0.0526 H   0  0  0  0  0  0  0  0  0  0  0  0
   -2.8921    1.3148    2.3330 H   0  0  0  0  0  0  0  0  0  0  0  0
   -2.0088    1.5382    0.7926 H   0  0  0  0  0  0  0  0  0  0  0  0
   -4.0386    2.7603   -0.1506 H   0  0  0  0  0  0  0  0  0  0  0  0
   -3.2281    3.5562    1.2359 H   0  0  0  0  0  0  0  0  0  0  0  0
   -4.7668    2.6890    1.5192 H   0  0  0  0  0  0  0  0  0  0  0  0
   -4.9930    0.1019    2.4029 H   0  0  0  0  0  0  0  0  0  0  0  0
   -5.0996   -1.3813    1.4086 H   0  0  0  0  0  0  0  0  0  0  0  0
   -6.4225   -0.3515   -0.2865 H   0  0  0  0  0  0  0  0  0  0  0  0
   -7.1239    0.1456    1.2915 H   0  0  0  0  0  0  0  0  0  0  0  0
   -6.1486    1.3113    0.3334 H   0  0  0  0  0  0  0  0  0  0  0  0
   -2.7784   -1.2298    3.0773 H   0  0  0  0  0  0  0  0  0  0  0  0
   -3.7407    0.9419   -3.4814 H   0  0  0  0  0  0  0  0  0  0  0  0
   -0.3343   -1.6378   -5.8120 H   0  0  0  0  0  0  0  0  0  0  0  0
    1.9190   -0.0655   -7.2119 H   0  0  0  0  0  0  0  0  0  0  0  0
    2.7986   -1.7932  -11.0419 H   0  0  0  0  0  0  0  0  0  0  0  0
    1.8407   -3.0248  -12.7043 H   0  0  0  0  0  0  0  0  0  0  0  0
    0.3015   -3.0149  -13.6219 H   0  0  0  0  0  0  0  0  0  0  0  0
    2.0229   -0.5271  -13.0150 H   0  0  0  0  0  0  0  0  0  0  0  0
    0.4019   -0.5121  -13.8253 H   0  0  0  0  0  0  0  0  0  0  0  0
    1.8016   -1.3440  -14.6067 H   0  0  0  0  0  0  0  0  0  0  0  0
   -1.2833   -1.3503   -9.7500 H   0  0  0  0  0  0  0  0  0  0  0  0
    5.6185   -0.1787   -7.9340 H   0  0  0  0  0  0  0  0  0  0  0  0
    4.0970    0.5308   -7.3229 H   0  0  0  0  0  0  0  0  0  0  0  0
    5.0451   -2.4071   -7.0250 H   0  0  0  0  0  0  0  0  0  0  0  0
    5.0001   -1.1522   -5.7213 H   0  0  0  0  0  0  0  0  0  0  0  0
    3.4609   -1.7777   -6.4142 H   0  0  0  0  0  0  0  0  0  0  0  0
   -0.9910    3.8048   -7.4030 H   0  0  0  0  0  0  0  0  0  0  0  0
   -2.3483    6.0096  -10.9895 H   0  0  0  0  0  0  0  0  0  0  0  0
   -0.1876    9.3944   -9.4424 H   0  0  0  0  0  0  0  0  0  0  0  0
    3.0627    8.1046   -6.6465 H   0  0  0  0  0  0  0  0  0  0  0  0
    2.7703    6.5284   -7.4502 H   0  0  0  0  0  0  0  0  0  0  0  0
    0.8556    7.8173   -5.3705 H   0  0  0  0  0  0  0  0  0  0  0  0
    0.8185    6.1126   -5.9745 H   0  0  0  0  0  0  0  0  0  0  0  0
    2.1771    6.6630   -4.9361 H   0  0  0  0  0  0  0  0  0  0  0  0
    0.8682    5.4257   -8.2062 H   0  0  0  0  0  0  0  0  0  0  0  0
   -3.0791   10.3887  -11.6947 H   0  0  0  0  0  0  0  0  0  0  0  0
   -1.4364   10.5370  -10.9916 H   0  0  0  0  0  0  0  0  0  0  0  0
   -2.4094   10.0559   -8.6991 H   0  0  0  0  0  0  0  0  0  0  0  0
   -3.2242   11.4584   -9.4723 H   0  0  0  0  0  0  0  0  0  0  0  0
   -4.0433    9.8479   -9.4525 H   0  0  0  0  0  0  0  0  0  0  0  0
   -1.1923    3.6956  -11.7418 H   0  0  0  0  0  0  0  0  0  0  0  0
  1  2  2  0
  2  3  1  0
  3  4  1  0
  4  5  2  0
  5  6  1  0
  6  7  2  0
  7  8  1  0
  8  9  1  0
  9 10  1  0
 10 11  1  0
  8 12  2  0
  6 13  1  0
 13 14  1  0
 14 15  1  0
  3 16  2  0
 16 17  1  0
 16 18  1  0
 18 19  2  0
 19 20  1  0
 20 21  1  0
 21 22  2  0
 22 23  1  0
 23 24  2  0
 24 25  1  0
 25 26  1  0
 26 27  1  0
 27 28  1  0
 25 29  2  0
 23 30  1  0
 30 31  1  0
 31 32  1  0
 20 33  2  0
 33 34  1  0
 33 35  1  0
 35 36  2  0
 36 37  1  0
 37 38  1  0
 38 39  2  0
 39 40  1  0
 40 41  2  0
 41 42  1  0
 42 43  1  0
 43 44  1  0
 44 45  1  0
 42 46  2  0
 40 47  1  0
 47 48  1  0
 48 49  1  0
 37 50  2  0
 50 51  1  0
 50 52  1  0
 52 53  1  0
 53 54  1  0
 54 55  1  0
 55 56  2  0
 56 57  1  0
 57 58  1  0
 58 59  1  0
 59 60  1  0
 58 61  1  0
 61 62  1  0
 58 63  1  0
 63 64  1  0
 56 65  1  0
 65 66  2  0
 66 67  1  0
 66 68  1  0
 68 69  2  0
 69 70  1  0
 70 71  1  0
 71 72  2  0
 72 73  1  0
 73 74  2  0
 74 75  1  0
 75 76  1  0
 76 77  1  0
 77 78  1  0
 75 79  2  0
 73 80  1  0
 80 81  1  0
 81 82  1  0
 70 83  2  0
 83 84  1  0
 83 85  1  0
 85 86  2  0
 86 87  1  0
 87 88  1  0
 88 89  2  0
 89 90  1  0
 90 91  2  0
 91 92  1  0
 92 93  1  0
 93 94  1  0
 94 95  1  0
 92 96  2  0
 90 97  1  0
 97 98  1  0
 98 99  1  0
 87100  2  0
100101  1  0
 17  1  1  0
 34 18  1  0
 51 35  1  0
 64 52  2  0
 84 68  1  0
101 85  1  0
 12  4  1  0
 29 21  1  0
 46 38  1  0
 63 54  2  0
 79 71  1  0
 96 88  1  0
 67 55  1  0
  1102  1  0
  2103  1  0
  5104  1  0
  7105  1  0
 10106  1  0
 10107  1  0
 11108  1  0
 11109  1  0
 11110  1  0
 12111  1  0
 14112  1  0
 14113  1  0
 15114  1  0
 15115  1  0
 15116  1  0
 19117  1  0
 22118  1  0
 24119  1  0
 27120  1  0
 27121  1  0
 28122  1  0
 28123  1  0
 28124  1  0
 29125  1  0
 31126  1  0
 31127  1  0
 32128  1  0
 32129  1  0
 32130  1  0
 36131  1  0
 39132  1  0
 41133  1  0
 44134  1  0
 44135  1  0
 45136  1  0
 45137  1  0
 45138  1  0
 46139  1  0
 48140  1  0
 48141  1  0
 49142  1  0
 49143  1  0
 49144  1  0
 59145  1  0
 59146  1  0
 60147  1  0
 60148  1  0
 60149  1  0
 61150  1  0
 61151  1  0
 62152  1  0
 62153  1  0
 62154  1  0
 64155  1  0
 65156  1  0
 69157  1  0
 72158  1  0
 74159  1  0
 77160  1  0
 77161  1  0
 78162  1  0
 78163  1  0
 78164  1  0
 79165  1  0
 81166  1  0
 81167  1  0
 82168  1  0
 82169  1  0
 82170  1  0
 86171  1  0
 89172  1  0
 91173  1  0
 94174  1  0
 94175  1  0
 95176  1  0
 95177  1  0
 95178  1  0
 96179  1  0
 98180  1  0
 98181  1  0
 99182  1  0
 99183  1  0
 99184  1  0
100185  1  0
M  END

