
     RDKit          3D

115127  0  0  0  0  0  0  0  0999 V2000
    1.8890    0.2805   -5.0467 C   0  0  0  0  0  0  0  0  0  0  0  0
    0.4204    1.1149   -4.8930 S   0  0  0  0  0  0  0  0  0  0  0  0
    1.0014    2.6939   -5.1231 C   0  0  0  0  0  0  0  0  0  0  0  0
    2.3550    2.5394   -5.3644 C   0  0  0  0  0  0  0  0  0  0  0  0
    2.8405    1.2520   -5.3099 C   0  0  0  0  0  0  0  0  0  0  0  0
    4.2097    1.1442   -5.5465 C   0  0  0  0  0  0  0  0  0  0  0  0
    4.7789    2.3962   -5.8106 C   0  0  0  0  0  0  0  0  0  0  0  0
    6.2306    2.6472   -6.0428 C   0  0  0  0  0  0  0  0  0  0  0  0
    3.5937    3.6134   -5.7249 S   0  0  0  0  0  0  0  0  0  0  0  0
    0.2487    3.9635   -5.1963 C   0  0  0  0  0  0  0  0  0  0  0  0
   -0.9890    4.1707   -4.7221 C   0  0  0  0  0  0  0  0  0  0  0  0
   -1.7482    3.1994   -3.9282 C   0  0  0  0  0  0  0  0  0  0  0  0
   -1.3227    2.6415   -2.3900 S   0  0  0  0  0  0  0  0  0  0  0  0
   -2.6548    1.6307   -2.2515 C   0  0  0  0  0  0  0  0  0  0  0  0
   -3.0383    0.7777   -1.1438 C   0  0  0  0  0  0  0  0  0  0  0  0
   -4.2489    0.1333   -1.1793 C   0  0  0  0  0  0  0  0  0  0  0  0
   -5.1101    0.2734   -2.2771 O   0  0  0  0  0  0  0  0  0  0  0  0
   -4.6876    0.8090   -3.5560 C   0  0  0  0  0  0  0  0  0  0  0  0
   -4.3054   -0.4117   -4.4428 C   0  0  0  0  0  0  0  0  0  0  0  0
   -3.9195   -0.0954   -5.8918 C   0  0  0  0  0  0  0  0  0  0  0  0
   -5.8741    1.6320   -4.1260 C   0  0  0  0  0  0  0  0  0  0  0  0
   -7.1652    0.8261   -4.2937 C   0  0  0  0  0  0  0  0  0  0  0  0
   -3.4599    1.7209   -3.3785 C   0  0  0  0  0  0  0  0  0  0  0  0
   -2.9512    2.6259   -4.3241 C   0  0  0  0  0  0  0  0  0  0  0  0
   -4.5216   -0.6176   -0.0364 C   0  0  0  0  0  0  0  0  0  0  0  0
   -3.4919   -0.5496    0.9053 C   0  0  0  0  0  0  0  0  0  0  0  0
   -2.2567    0.4461    0.3031 S   0  0  0  0  0  0  0  0  0  0  0  0
   -3.4773   -1.2829    2.1843 C   0  0  0  0  0  0  0  0  0  0  0  0
   -4.5392   -2.5465    2.5950 S   0  0  0  0  0  0  0  0  0  0  0  0
   -3.9102   -2.8912    4.1249 C   0  0  0  0  0  0  0  0  0  0  0  0
   -2.8820   -1.9829    4.3231 C   0  0  0  0  0  0  0  0  0  0  0  0
   -2.6311   -1.1140    3.2816 C   0  0  0  0  0  0  0  0  0  0  0  0
   -1.6201   -0.1877    3.5556 C   0  0  0  0  0  0  0  0  0  0  0  0
   -1.0910   -0.3652    4.8397 C   0  0  0  0  0  0  0  0  0  0  0  0
   -0.0638    0.5015    5.4895 C   0  0  0  0  0  0  0  0  0  0  0  0
   -1.8994   -1.6232    5.6355 S   0  0  0  0  0  0  0  0  0  0  0  0
   -4.3848   -3.9457    5.0373 C   0  0  0  0  0  0  0  0  0  0  0  0
   -3.5696   -4.7839    5.6933 C   0  0  0  0  0  0  0  0  0  0  0  0
   -2.1209   -4.8694    5.4449 C   0  0  0  0  0  0  0  0  0  0  0  0
   -0.9123   -4.8164    6.6281 S   0  0  0  0  0  0  0  0  0  0  0  0
    0.4308   -4.9039    5.5992 C   0  0  0  0  0  0  0  0  0  0  0  0
   -0.0926   -5.0544    4.3174 C   0  0  0  0  0  0  0  0  0  0  0  0
   -1.4704   -5.0254    4.2264 C   0  0  0  0  0  0  0  0  0  0  0  0
   -1.9697   -5.2545    2.9431 C   0  0  0  0  0  0  0  0  0  0  0  0
   -0.9396   -5.4909    2.0295 C   0  0  0  0  0  0  0  0  0  0  0  0
   -1.1216   -5.7117    0.5659 C   0  0  0  0  0  0  0  0  0  0  0  0
    0.5644   -5.4074    2.8117 S   0  0  0  0  0  0  0  0  0  0  0  0
    1.8220   -5.0050    6.0752 C   0  0  0  0  0  0  0  0  0  0  0  0
    2.9169   -4.5848    5.4294 C   0  0  0  0  0  0  0  0  0  0  0  0
    2.9408   -3.8087    4.1795 C   0  0  0  0  0  0  0  0  0  0  0  0
    2.1000   -2.3681    3.8217 S   0  0  0  0  0  0  0  0  0  0  0  0
    2.8327   -2.0572    2.3149 C   0  0  0  0  0  0  0  0  0  0  0  0
    3.7381   -3.0858    2.1232 C   0  0  0  0  0  0  0  0  0  0  0  0
    3.8161   -4.0228    3.1265 C   0  0  0  0  0  0  0  0  0  0  0  0
    4.7711   -5.0169    2.9128 C   0  0  0  0  0  0  0  0  0  0  0  0
    5.4311   -4.8309    1.6939 C   0  0  0  0  0  0  0  0  0  0  0  0
    6.5533   -5.6759    1.1931 C   0  0  0  0  0  0  0  0  0  0  0  0
    4.8540   -3.4309    0.9180 S   0  0  0  0  0  0  0  0  0  0  0  0
    2.6529   -0.9069    1.4100 C   0  0  0  0  0  0  0  0  0  0  0  0
    1.8685    0.1374    1.6911 C   0  0  0  0  0  0  0  0  0  0  0  0
    1.7949    1.3116    0.7940 C   0  0  0  0  0  0  0  0  0  0  0  0
    2.6314    1.5304   -0.6699 S   0  0  0  0  0  0  0  0  0  0  0  0
    2.0987    3.0947   -1.0289 C   0  0  0  0  0  0  0  0  0  0  0  0
    1.2530    3.4454    0.0186 C   0  0  0  0  0  0  0  0  0  0  0  0
    1.0950    2.4951    1.0117 C   0  0  0  0  0  0  0  0  0  0  0  0
    0.3080    2.9142    2.0858 C   0  0  0  0  0  0  0  0  0  0  0  0
   -0.1767    4.2100    1.8926 C   0  0  0  0  0  0  0  0  0  0  0  0
   -0.9893    4.9767    2.8792 C   0  0  0  0  0  0  0  0  0  0  0  0
    0.4184    4.8437    0.4347 S   0  0  0  0  0  0  0  0  0  0  0  0
    2.5865    3.8950   -2.1653 C   0  0  0  0  0  0  0  0  0  0  0  0
    2.0229    5.0287   -2.5747 C   0  0  0  0  0  0  0  0  0  0  0  0
    2.0494   -0.7886   -4.9852 H   0  0  0  0  0  0  0  0  0  0  0  0
    4.7571    0.2122   -5.5296 H   0  0  0  0  0  0  0  0  0  0  0  0
    6.3551    3.4597   -6.7884 H   0  0  0  0  0  0  0  0  0  0  0  0
    6.7234    1.7289   -6.4267 H   0  0  0  0  0  0  0  0  0  0  0  0
    6.7098    2.9483   -5.0885 H   0  0  0  0  0  0  0  0  0  0  0  0
    0.7348    4.7922   -5.6955 H   0  0  0  0  0  0  0  0  0  0  0  0
   -1.4680    5.1168   -4.9354 H   0  0  0  0  0  0  0  0  0  0  0  0
   -5.1473   -1.1358   -4.4562 H   0  0  0  0  0  0  0  0  0  0  0  0
   -3.4508   -0.9437   -3.9680 H   0  0  0  0  0  0  0  0  0  0  0  0
   -4.7284    0.4525   -6.4176 H   0  0  0  0  0  0  0  0  0  0  0  0
   -2.9746    0.4845   -5.9341 H   0  0  0  0  0  0  0  0  0  0  0  0
   -3.7488   -1.0493   -6.4356 H   0  0  0  0  0  0  0  0  0  0  0  0
   -6.0866    2.4712   -3.4277 H   0  0  0  0  0  0  0  0  0  0  0  0
   -5.6174    2.0877   -5.1042 H   0  0  0  0  0  0  0  0  0  0  0  0
   -7.9900    1.5098   -4.5849 H   0  0  0  0  0  0  0  0  0  0  0  0
   -7.4468    0.3266   -3.3429 H   0  0  0  0  0  0  0  0  0  0  0  0
   -7.0531    0.0674   -5.0952 H   0  0  0  0  0  0  0  0  0  0  0  0
   -3.4164    2.8341   -5.2791 H   0  0  0  0  0  0  0  0  0  0  0  0
   -5.4292   -1.1905    0.0953 H   0  0  0  0  0  0  0  0  0  0  0  0
   -1.3081    0.5929    2.8844 H   0  0  0  0  0  0  0  0  0  0  0  0
   -0.5629    1.3673    5.9719 H   0  0  0  0  0  0  0  0  0  0  0  0
    0.6712    0.8641    4.7440 H   0  0  0  0  0  0  0  0  0  0  0  0
    0.4862   -0.0819    6.2601 H   0  0  0  0  0  0  0  0  0  0  0  0
   -5.4527   -4.0372    5.1892 H   0  0  0  0  0  0  0  0  0  0  0  0
   -3.9941   -5.4488    6.4339 H   0  0  0  0  0  0  0  0  0  0  0  0
   -3.0201   -5.2845    2.6904 H   0  0  0  0  0  0  0  0  0  0  0  0
   -0.2855   -6.3235    0.1674 H   0  0  0  0  0  0  0  0  0  0  0  0
   -2.0763   -6.2451    0.3748 H   0  0  0  0  0  0  0  0  0  0  0  0
   -1.1401   -4.7325    0.0428 H   0  0  0  0  0  0  0  0  0  0  0  0
    1.9657   -5.4715    7.0423 H   0  0  0  0  0  0  0  0  0  0  0  0
    3.8784   -4.8291    5.8616 H   0  0  0  0  0  0  0  0  0  0  0  0
    4.9802   -5.8212    3.6053 H   0  0  0  0  0  0  0  0  0  0  0  0
    6.6298   -5.5900    0.0891 H   0  0  0  0  0  0  0  0  0  0  0  0
    7.5040   -5.3368    1.6530 H   0  0  0  0  0  0  0  0  0  0  0  0
    6.3771   -6.7396    1.4568 H   0  0  0  0  0  0  0  0  0  0  0  0
    3.2279   -0.9099    0.4947 H   0  0  0  0  0  0  0  0  0  0  0  0
    1.2965    0.1470    2.6056 H   0  0  0  0  0  0  0  0  0  0  0  0
    0.1337    2.3368    2.9789 H   0  0  0  0  0  0  0  0  0  0  0  0
   -1.6220    5.7194    2.3511 H   0  0  0  0  0  0  0  0  0  0  0  0
   -1.6470    4.2896    3.4498 H   0  0  0  0  0  0  0  0  0  0  0  0
   -0.3138    5.5043    3.5841 H   0  0  0  0  0  0  0  0  0  0  0  0
    3.4472    3.5243   -2.7055 H   0  0  0  0  0  0  0  0  0  0  0  0
    2.4352    5.5543   -3.4251 H   0  0  0  0  0  0  0  0  0  0  0  0
    1.1333    5.4294   -2.1186 H   0  0  0  0  0  0  0  0  0  0  0  0
  1  2  1  0
  2  3  1  0
  3  4  2  0
  4  5  1  0
  5  6  1  0
  6  7  2  0
  7  8  1  0
  7  9  1  0
  3 10  1  0
 10 11  2  3
 11 12  1  0
 12 13  1  0
 13 14  1  0
 14 15  1  0
 15 16  2  0
 16 17  1  0
 17 18  1  0
 18 19  1  0
 19 20  1  0
 18 21  1  0
 21 22  1  0
 18 23  1  0
 23 24  1  0
 16 25  1  0
 25 26  2  0
 26 27  1  0
 26 28  1  0
 28 29  1  0
 29 30  1  0
 30 31  2  0
 31 32  1  0
 32 33  1  0
 33 34  2  0
 34 35  1  0
 34 36  1  0
 30 37  1  0
 37 38  2  3
 38 39  1  0
 39 40  1  0
 40 41  1  0
 41 42  2  0
 42 43  1  0
 43 44  1  0
 44 45  2  0
 45 46  1  0
 45 47  1  0
 41 48  1  0
 48 49  2  3
 49 50  1  0
 50 51  1  0
 51 52  1  0
 52 53  2  0
 53 54  1  0
 54 55  1  0
 55 56  2  0
 56 57  1  0
 56 58  1  0
 52 59  1  0
 59 60  2  3
 60 61  1  0
 61 62  1  0
 62 63  1  0
 63 64  2  0
 64 65  1  0
 65 66  1  0
 66 67  2  0
 67 68  1  0
 67 69  1  0
 63 70  1  0
 70 71  2  3
  5  1  2  0
 24 12  2  0
 32 28  2  0
 43 39  2  0
 54 50  2  0
 65 61  2  0
  9  4  1  0
 23 14  2  0
 36 31  1  0
 47 42  1  0
 58 53  1  0
 69 64  1  0
 27 15  1  0
  1 72  1  0
  6 73  1  0
  8 74  1  0
  8 75  1  0
  8 76  1  0
 10 77  1  0
 11 78  1  0
 19 79  1  0
 19 80  1  0
 20 81  1  0
 20 82  1  0
 20 83  1  0
 21 84  1  0
 21 85  1  0
 22 86  1  0
 22 87  1  0
 22 88  1  0
 24 89  1  0
 25 90  1  0
 33 91  1  0
 35 92  1  0
 35 93  1  0
 35 94  1  0
 37 95  1  0
 38 96  1  0
 44 97  1  0
 46 98  1  0
 46 99  1  0
 46100  1  0
 48101  1  0
 49102  1  0
 55103  1  0
 57104  1  0
 57105  1  0
 57106  1  0
 59107  1  0
 60108  1  0
 66109  1  0
 68110  1  0
 68111  1  0
 68112  1  0
 70113  1  0
 71114  1  0
 71115  1  0
M  END

