
     RDKit          3D

114127  0  0  0  0  0  0  0  0999 V2000
    4.4268    2.9500   11.9485 C   0  0  0  0  0  0  0  0  0  0  0  0
    3.3913    2.1205   10.9167 S   0  0  0  0  0  0  0  0  0  0  0  0
    4.1914    2.4764    9.4794 C   0  0  0  0  0  0  0  0  0  0  0  0
    5.2993    3.2645    9.7965 C   0  0  0  0  0  0  0  0  0  0  0  0
    5.4331    3.5109   11.1766 C   0  0  0  0  0  0  0  0  0  0  0  0
    6.8058    4.4223   11.8752 S   0  0  0  0  0  0  0  0  0  0  0  0
    6.1992    5.9317   11.1188 C   0  0  0  0  0  0  0  0  0  0  0  0
    5.6766    6.7804   11.8218 O   0  0  0  0  0  0  0  0  0  0  0  0
    6.2820    6.1506    9.6313 C   0  0  0  0  0  0  0  0  0  0  0  0
    6.8558    4.9753    8.8786 C   0  0  0  0  0  0  0  0  0  0  0  0
    7.9034    5.1384    8.1977 O   0  0  0  0  0  0  0  0  0  0  0  0
    6.2053    3.7303    8.8334 O   0  0  0  0  0  0  0  0  0  0  0  0
    3.7493    2.0344    8.1429 C   0  0  0  0  0  0  0  0  0  0  0  0
    2.5999    0.8253    7.8684 S   0  0  0  0  0  0  0  0  0  0  0  0
    2.6827    0.9233    6.1990 C   0  0  0  0  0  0  0  0  0  0  0  0
    1.9083    0.2046    5.2074 C   0  0  0  0  0  0  0  0  0  0  0  0
    1.9868    0.5818    3.8892 C   0  0  0  0  0  0  0  0  0  0  0  0
    2.8327    1.6250    3.4873 O   0  0  0  0  0  0  0  0  0  0  0  0
    3.8904    2.1516    4.3270 C   0  0  0  0  0  0  0  0  0  0  0  0
    5.1791    1.3857    3.9236 C   0  0  0  0  0  0  0  0  0  0  0  0
    6.4507    1.7408    4.7036 C   0  0  0  0  0  0  0  0  0  0  0  0
    4.0265    3.6639    4.0124 C   0  0  0  0  0  0  0  0  0  0  0  0
    2.7348    4.4437    4.2636 C   0  0  0  0  0  0  0  0  0  0  0  0
    3.5800    1.9061    5.8150 C   0  0  0  0  0  0  0  0  0  0  0  0
    4.1875    2.5341    6.9133 C   0  0  0  0  0  0  0  0  0  0  0  0
    1.1524   -0.1454    3.0439 C   0  0  0  0  0  0  0  0  0  0  0  0
    0.4360   -1.1362    3.7262 C   0  0  0  0  0  0  0  0  0  0  0  0
    0.8187   -1.0619    5.3813 S   0  0  0  0  0  0  0  0  0  0  0  0
   -0.5045   -2.0767    3.0886 C   0  0  0  0  0  0  0  0  0  0  0  0
   -1.2580   -1.7901    1.6167 S   0  0  0  0  0  0  0  0  0  0  0  0
   -2.0244   -3.2805    1.4488 C   0  0  0  0  0  0  0  0  0  0  0  0
   -1.6799   -4.0499    2.5706 C   0  0  0  0  0  0  0  0  0  0  0  0
   -0.8251   -3.3799    3.4767 C   0  0  0  0  0  0  0  0  0  0  0  0
   -0.1099   -4.2123    4.8973 S   0  0  0  0  0  0  0  0  0  0  0  0
   -1.7163   -4.2523    5.6858 C   0  0  0  0  0  0  0  0  0  0  0  0
   -1.9480   -3.4896    6.6117 O   0  0  0  0  0  0  0  0  0  0  0  0
   -2.8008   -5.1636    5.1811 C   0  0  0  0  0  0  0  0  0  0  0  0
   -2.3796   -5.9770    3.9786 C   0  0  0  0  0  0  0  0  0  0  0  0
   -2.3645   -7.2327    4.0665 O   0  0  0  0  0  0  0  0  0  0  0  0
   -2.0748   -5.3833    2.7422 O   0  0  0  0  0  0  0  0  0  0  0  0
   -2.7828   -3.6397    0.2243 C   0  0  0  0  0  0  0  0  0  0  0  0
   -2.6049   -2.7779   -1.2070 S   0  0  0  0  0  0  0  0  0  0  0  0
   -3.7540   -3.5710   -2.1306 C   0  0  0  0  0  0  0  0  0  0  0  0
   -4.2987   -4.5750   -1.3317 C   0  0  0  0  0  0  0  0  0  0  0  0
   -3.7929   -4.5898   -0.0053 C   0  0  0  0  0  0  0  0  0  0  0  0
   -4.5240   -5.6527    1.2393 S   0  0  0  0  0  0  0  0  0  0  0  0
   -3.7677   -7.0950    0.4845 C   0  0  0  0  0  0  0  0  0  0  0  0
   -2.8306   -7.6409    1.0459 O   0  0  0  0  0  0  0  0  0  0  0  0
   -4.2303   -7.6053   -0.8527 C   0  0  0  0  0  0  0  0  0  0  0  0
   -5.3883   -6.8191   -1.4075 C   0  0  0  0  0  0  0  0  0  0  0  0
   -6.4980   -7.3963   -1.5718 O   0  0  0  0  0  0  0  0  0  0  0  0
   -5.2505   -5.4848   -1.8174 O   0  0  0  0  0  0  0  0  0  0  0  0
   -4.0080   -3.2315   -3.5478 C   0  0  0  0  0  0  0  0  0  0  0  0
   -2.8574   -2.4473   -4.4931 S   0  0  0  0  0  0  0  0  0  0  0  0
   -3.8266   -2.1695   -5.8352 C   0  0  0  0  0  0  0  0  0  0  0  0
   -5.0909   -2.6915   -5.5668 C   0  0  0  0  0  0  0  0  0  0  0  0
   -5.2038   -3.2697   -4.2844 C   0  0  0  0  0  0  0  0  0  0  0  0
   -6.7972   -3.8056   -3.6574 S   0  0  0  0  0  0  0  0  0  0  0  0
   -6.7867   -5.1940   -4.8011 C   0  0  0  0  0  0  0  0  0  0  0  0
   -6.5773   -6.3198   -4.3789 O   0  0  0  0  0  0  0  0  0  0  0  0
   -6.9731   -4.9906   -6.2800 C   0  0  0  0  0  0  0  0  0  0  0  0
   -7.1577   -3.5460   -6.6641 C   0  0  0  0  0  0  0  0  0  0  0  0
   -8.2237   -3.1965   -7.2399 O   0  0  0  0  0  0  0  0  0  0  0  0
   -6.1460   -2.5903   -6.4817 O   0  0  0  0  0  0  0  0  0  0  0  0
   -3.3975   -1.4346   -7.0367 C   0  0  0  0  0  0  0  0  0  0  0  0
   -4.2323   -1.3473   -8.5063 S   0  0  0  0  0  0  0  0  0  0  0  0
   -3.1206   -0.3281   -9.2392 C   0  0  0  0  0  0  0  0  0  0  0  0
   -3.1630    0.2718  -10.5550 C   0  0  0  0  0  0  0  0  0  0  0  0
   -2.1707    1.1363  -10.9447 C   0  0  0  0  0  0  0  0  0  0  0  0
   -1.0942    1.4393  -10.0969 O   0  0  0  0  0  0  0  0  0  0  0  0
   -1.0004    1.0002   -8.7165 C   0  0  0  0  0  0  0  0  0  0  0  0
   -1.1498    2.2357   -7.7886 C   0  0  0  0  0  0  0  0  0  0  0  0
   -2.5189    2.9111   -7.8974 C   0  0  0  0  0  0  0  0  0  0  0  0
    0.3837    0.3281   -8.5210 C   0  0  0  0  0  0  0  0  0  0  0  0
    1.5751    1.2288   -8.8718 C   0  0  0  0  0  0  0  0  0  0  0  0
   -2.0864   -0.0314   -8.3669 C   0  0  0  0  0  0  0  0  0  0  0  0
   -2.2387   -0.6608   -7.1233 C   0  0  0  0  0  0  0  0  0  0  0  0
   -2.3417    1.6482  -12.2321 C   0  0  0  0  0  0  0  0  0  0  0  0
   -3.5066    1.1826  -12.8383 C   0  0  0  0  0  0  0  0  0  0  0  0
   -4.2977    0.1254  -11.7798 S   0  0  0  0  0  0  0  0  0  0  0  0
    4.3444    3.0069   13.0235 H   0  0  0  0  0  0  0  0  0  0  0  0
    6.8963    7.0562    9.4386 H   0  0  0  0  0  0  0  0  0  0  0  0
    5.2609    6.3419    9.2414 H   0  0  0  0  0  0  0  0  0  0  0  0
    4.9991    0.2954    4.0447 H   0  0  0  0  0  0  0  0  0  0  0  0
    5.3778    1.5563    2.8427 H   0  0  0  0  0  0  0  0  0  0  0  0
    6.6874    2.8230    4.6319 H   0  0  0  0  0  0  0  0  0  0  0  0
    6.3569    1.4417    5.7699 H   0  0  0  0  0  0  0  0  0  0  0  0
    7.3119    1.1782    4.2790 H   0  0  0  0  0  0  0  0  0  0  0  0
    4.3016    3.7905    2.9429 H   0  0  0  0  0  0  0  0  0  0  0  0
    4.8349    4.1315    4.6096 H   0  0  0  0  0  0  0  0  0  0  0  0
    2.8811    5.5042    3.9691 H   0  0  0  0  0  0  0  0  0  0  0  0
    1.9047    4.0301    3.6568 H   0  0  0  0  0  0  0  0  0  0  0  0
    2.4636    4.4094    5.3392 H   0  0  0  0  0  0  0  0  0  0  0  0
    4.9160    3.3233    6.8076 H   0  0  0  0  0  0  0  0  0  0  0  0
    1.0967    0.0262    1.9751 H   0  0  0  0  0  0  0  0  0  0  0  0
   -3.1055   -5.8426    6.0073 H   0  0  0  0  0  0  0  0  0  0  0  0
   -3.6818   -4.5495    4.9013 H   0  0  0  0  0  0  0  0  0  0  0  0
   -4.5158   -8.6731   -0.7502 H   0  0  0  0  0  0  0  0  0  0  0  0
   -3.3847   -7.5459   -1.5723 H   0  0  0  0  0  0  0  0  0  0  0  0
   -6.0778   -5.3776   -6.8111 H   0  0  0  0  0  0  0  0  0  0  0  0
   -7.8472   -5.5854   -6.6223 H   0  0  0  0  0  0  0  0  0  0  0  0
   -0.9703    1.9432   -6.7295 H   0  0  0  0  0  0  0  0  0  0  0  0
   -0.3881    2.9961   -8.0590 H   0  0  0  0  0  0  0  0  0  0  0  0
   -3.3221    2.2286   -7.5543 H   0  0  0  0  0  0  0  0  0  0  0  0
   -2.5334    3.8093   -7.2501 H   0  0  0  0  0  0  0  0  0  0  0  0
   -2.7213    3.2235   -8.9419 H   0  0  0  0  0  0  0  0  0  0  0  0
    0.4345   -0.5725   -9.1724 H   0  0  0  0  0  0  0  0  0  0  0  0
    0.5052   -0.0158   -7.4706 H   0  0  0  0  0  0  0  0  0  0  0  0
    1.4519    1.6908   -9.8754 H   0  0  0  0  0  0  0  0  0  0  0  0
    1.7018    2.0270   -8.1102 H   0  0  0  0  0  0  0  0  0  0  0  0
    2.5092    0.6244   -8.8774 H   0  0  0  0  0  0  0  0  0  0  0  0
   -1.5449   -0.5275   -6.3006 H   0  0  0  0  0  0  0  0  0  0  0  0
   -1.6608    2.3457  -12.7013 H   0  0  0  0  0  0  0  0  0  0  0  0
   -3.8497    1.4581  -13.8255 H   0  0  0  0  0  0  0  0  0  0  0  0
  1  2  1  0
  2  3  1  0
  3  4  2  0
  4  5  1  0
  5  6  1  0
  6  7  1  0
  7  8  2  0
  7  9  1  0
  9 10  1  0
 10 11  2  0
 10 12  1  0
  3 13  1  0
 13 14  1  0
 14 15  1  0
 15 16  1  0
 16 17  2  0
 17 18  1  0
 18 19  1  0
 19 20  1  0
 20 21  1  0
 19 22  1  0
 22 23  1  0
 19 24  1  0
 24 25  1  0
 17 26  1  0
 26 27  2  0
 27 28  1  0
 27 29  1  0
 29 30  1  0
 30 31  1  0
 31 32  2  0
 32 33  1  0
 33 34  1  0
 34 35  1  0
 35 36  2  0
 35 37  1  0
 37 38  1  0
 38 39  2  0
 38 40  1  0
 31 41  1  0
 41 42  1  0
 42 43  1  0
 43 44  2  0
 44 45  1  0
 45 46  1  0
 46 47  1  0
 47 48  2  0
 47 49  1  0
 49 50  1  0
 50 51  2  0
 50 52  1  0
 43 53  1  0
 53 54  1  0
 54 55  1  0
 55 56  2  0
 56 57  1  0
 57 58  1  0
 58 59  1  0
 59 60  2  0
 59 61  1  0
 61 62  1  0
 62 63  2  0
 62 64  1  0
 55 65  1  0
 65 66  1  0
 66 67  1  0
 67 68  1  0
 68 69  2  0
 69 70  1  0
 70 71  1  0
 71 72  1  0
 72 73  1  0
 71 74  1  0
 74 75  1  0
 71 76  1  0
 76 77  1  0
 69 78  1  0
 78 79  2  0
 79 80  1  0
  5  1  2  0
 25 13  2  0
 33 29  2  0
 45 41  2  0
 57 53  2  0
 77 65  2  0
 12  4  1  0
 24 15  2  0
 40 32  1  0
 52 44  1  0
 64 56  1  0
 76 67  2  0
 28 16  1  0
 80 68  1  0
  1 81  1  0
  9 82  1  0
  9 83  1  0
 20 84  1  0
 20 85  1  0
 21 86  1  0
 21 87  1  0
 21 88  1  0
 22 89  1  0
 22 90  1  0
 23 91  1  0
 23 92  1  0
 23 93  1  0
 25 94  1  0
 26 95  1  0
 37 96  1  0
 37 97  1  0
 49 98  1  0
 49 99  1  0
 61100  1  0
 61101  1  0
 72102  1  0
 72103  1  0
 73104  1  0
 73105  1  0
 73106  1  0
 74107  1  0
 74108  1  0
 75109  1  0
 75110  1  0
 75111  1  0
 77112  1  0
 78113  1  0
 79114  1  0
M  END

