
     RDKit          3D

120132  0  0  0  0  0  0  0  0999 V2000
    0.7234    2.0484    0.9376 C   0  0  0  0  0  0  0  0  0  0  0  0
   -0.3753    1.3865    2.0253 S   0  0  0  0  0  0  0  0  0  0  0  0
   -1.6867    2.3708    1.6377 C   0  0  0  0  0  0  0  0  0  0  0  0
   -1.2859    3.2259    0.6048 C   0  0  0  0  0  0  0  0  0  0  0  0
    0.0627    3.0490    0.2256 C   0  0  0  0  0  0  0  0  0  0  0  0
    0.6200    3.8174   -0.8103 C   0  0  0  0  0  0  0  0  0  0  0  0
    2.3298    3.6169   -1.3204 S   0  0  0  0  0  0  0  0  0  0  0  0
   -0.1916    4.7511   -1.4719 C   0  0  0  0  0  0  0  0  0  0  0  0
   -1.5401    4.9060   -1.1155 C   0  0  0  0  0  0  0  0  0  0  0  0
   -2.0957    4.1406   -0.0832 C   0  0  0  0  0  0  0  0  0  0  0  0
   -3.0024    2.2395    2.2851 C   0  0  0  0  0  0  0  0  0  0  0  0
   -3.7548    3.2878    2.6488 C   0  0  0  0  0  0  0  0  0  0  0  0
   -4.9913    3.0965    3.4377 C   0  0  0  0  0  0  0  0  0  0  0  0
   -5.1821    1.8229    4.5149 S   0  0  0  0  0  0  0  0  0  0  0  0
   -6.7248    2.1841    5.0569 C   0  0  0  0  0  0  0  0  0  0  0  0
   -7.1093    3.3718    4.4343 C   0  0  0  0  0  0  0  0  0  0  0  0
   -6.1596    3.8847    3.5090 C   0  0  0  0  0  0  0  0  0  0  0  0
   -6.4826    5.0415    2.7578 C   0  0  0  0  0  0  0  0  0  0  0  0
   -5.4399    5.7126    1.4628 S   0  0  0  0  0  0  0  0  0  0  0  0
   -7.7121    5.6805    2.9866 C   0  0  0  0  0  0  0  0  0  0  0  0
   -8.6239    5.1798    3.9219 C   0  0  0  0  0  0  0  0  0  0  0  0
   -8.3323    4.0206    4.6424 C   0  0  0  0  0  0  0  0  0  0  0  0
   -7.5196    1.3640    6.0022 C   0  0  0  0  0  0  0  0  0  0  0  0
   -7.5821    0.0215    5.9588 C   0  0  0  0  0  0  0  0  0  0  0  0
   -6.9497   -0.7797    4.8956 C   0  0  0  0  0  0  0  0  0  0  0  0
   -5.4239   -1.4656    5.0801 S   0  0  0  0  0  0  0  0  0  0  0  0
   -5.0805   -1.6836    3.4438 C   0  0  0  0  0  0  0  0  0  0  0  0
   -6.1884   -1.2311    2.7183 C   0  0  0  0  0  0  0  0  0  0  0  0
   -7.2437   -0.7397    3.5226 C   0  0  0  0  0  0  0  0  0  0  0  0
   -8.4313   -0.2704    2.9156 C   0  0  0  0  0  0  0  0  0  0  0  0
   -9.8882    0.2059    3.8506 S   0  0  0  0  0  0  0  0  0  0  0  0
   -8.5194   -0.2570    1.5173 C   0  0  0  0  0  0  0  0  0  0  0  0
   -7.4565   -0.7094    0.7278 C   0  0  0  0  0  0  0  0  0  0  0  0
   -6.2925   -1.2037    1.3213 C   0  0  0  0  0  0  0  0  0  0  0  0
   -3.7696   -2.0806    2.8865 C   0  0  0  0  0  0  0  0  0  0  0  0
   -2.7315   -2.4129    3.6593 C   0  0  0  0  0  0  0  0  0  0  0  0
   -1.3996   -2.7107    3.1037 C   0  0  0  0  0  0  0  0  0  0  0  0
   -0.9163   -2.5189    1.4917 S   0  0  0  0  0  0  0  0  0  0  0  0
    0.6630   -3.0133    1.7608 C   0  0  0  0  0  0  0  0  0  0  0  0
    1.7489   -3.1430    0.8127 C   0  0  0  0  0  0  0  0  0  0  0  0
    2.9483   -3.6716    1.2225 C   0  0  0  0  0  0  0  0  0  0  0  0
    3.1615   -4.0458    2.5582 O   0  0  0  0  0  0  0  0  0  0  0  0
    2.2178   -3.7900    3.6302 C   0  0  0  0  0  0  0  0  0  0  0  0
    2.0323   -5.1067    4.4281 C   0  0  0  0  0  0  0  0  0  0  0  0
    3.3418   -5.7538    4.8895 C   0  0  0  0  0  0  0  0  0  0  0  0
    2.7937   -2.6719    4.5392 C   0  0  0  0  0  0  0  0  0  0  0  0
    2.9335   -1.3219    3.8298 C   0  0  0  0  0  0  0  0  0  0  0  0
    0.8466   -3.3508    3.0916 C   0  0  0  0  0  0  0  0  0  0  0  0
   -0.3156   -3.1574    3.8569 C   0  0  0  0  0  0  0  0  0  0  0  0
    3.8917   -3.7828    0.2004 C   0  0  0  0  0  0  0  0  0  0  0  0
    3.3988   -3.3373   -1.0263 C   0  0  0  0  0  0  0  0  0  0  0  0
    1.8219   -2.7475   -0.8151 S   0  0  0  0  0  0  0  0  0  0  0  0
    4.2054   -3.1961   -2.2464 C   0  0  0  0  0  0  0  0  0  0  0  0
    5.6878   -2.3973   -2.2481 S   0  0  0  0  0  0  0  0  0  0  0  0
    5.9610   -2.4547   -3.9017 C   0  0  0  0  0  0  0  0  0  0  0  0
    4.9023   -3.1519   -4.4886 C   0  0  0  0  0  0  0  0  0  0  0  0
    3.9154   -3.5874   -3.5688 C   0  0  0  0  0  0  0  0  0  0  0  0
    2.8565   -4.4089   -4.0287 C   0  0  0  0  0  0  0  0  0  0  0  0
    1.6972   -5.2428   -2.9458 S   0  0  0  0  0  0  0  0  0  0  0  0
    2.7658   -4.6980   -5.3990 C   0  0  0  0  0  0  0  0  0  0  0  0
    3.7275   -4.2301   -6.2995 C   0  0  0  0  0  0  0  0  0  0  0  0
    4.8118   -3.4807   -5.8460 C   0  0  0  0  0  0  0  0  0  0  0  0
    7.1929   -1.9663   -4.5496 C   0  0  0  0  0  0  0  0  0  0  0  0
    7.2135   -1.1416   -5.6032 C   0  0  0  0  0  0  0  0  0  0  0  0
    6.0196   -0.4558   -6.1320 C   0  0  0  0  0  0  0  0  0  0  0  0
    4.9519    0.4120   -5.1613 S   0  0  0  0  0  0  0  0  0  0  0  0
    4.0405    1.0949   -6.3931 C   0  0  0  0  0  0  0  0  0  0  0  0
    4.5939    0.6856   -7.6117 C   0  0  0  0  0  0  0  0  0  0  0  0
    5.6925   -0.1996   -7.4742 C   0  0  0  0  0  0  0  0  0  0  0  0
    6.3216   -0.7208   -8.6302 C   0  0  0  0  0  0  0  0  0  0  0  0
    7.6246   -1.9557   -8.5807 S   0  0  0  0  0  0  0  0  0  0  0  0
    5.8814   -0.2955   -9.8918 C   0  0  0  0  0  0  0  0  0  0  0  0
    4.8371    0.6278  -10.0150 C   0  0  0  0  0  0  0  0  0  0  0  0
    4.1935    1.1258   -8.8812 C   0  0  0  0  0  0  0  0  0  0  0  0
    2.9071    2.0018   -6.1408 C   0  0  0  0  0  0  0  0  0  0  0  0
    1.7805    1.9613   -6.8492 C   0  0  0  0  0  0  0  0  0  0  0  0
    1.7504    1.7317    0.8097 H   0  0  0  0  0  0  0  0  0  0  0  0
    1.9934    2.6151   -2.2526 H   0  0  0  0  0  0  0  0  0  0  0  0
    0.2169    5.3490   -2.2771 H   0  0  0  0  0  0  0  0  0  0  0  0
   -2.1605    5.6132   -1.6515 H   0  0  0  0  0  0  0  0  0  0  0  0
   -3.1457    4.2455    0.1439 H   0  0  0  0  0  0  0  0  0  0  0  0
   -3.3024    1.2374    2.5650 H   0  0  0  0  0  0  0  0  0  0  0  0
   -3.4063    4.2884    2.4427 H   0  0  0  0  0  0  0  0  0  0  0  0
   -6.0281    4.8866    0.4862 H   0  0  0  0  0  0  0  0  0  0  0  0
   -7.9762    6.5659    2.4211 H   0  0  0  0  0  0  0  0  0  0  0  0
   -9.5713    5.6833    4.0758 H   0  0  0  0  0  0  0  0  0  0  0  0
   -9.0582    3.6347    5.3450 H   0  0  0  0  0  0  0  0  0  0  0  0
   -8.1033    1.8788    6.7562 H   0  0  0  0  0  0  0  0  0  0  0  0
   -8.1511   -0.5014    6.7166 H   0  0  0  0  0  0  0  0  0  0  0  0
   -9.5490    1.5664    3.8005 H   0  0  0  0  0  0  0  0  0  0  0  0
   -9.4236    0.0923    1.0346 H   0  0  0  0  0  0  0  0  0  0  0  0
   -7.5419   -0.6883   -0.3514 H   0  0  0  0  0  0  0  0  0  0  0  0
   -5.4969   -1.5617    0.6862 H   0  0  0  0  0  0  0  0  0  0  0  0
   -3.6393   -2.0572    1.8153 H   0  0  0  0  0  0  0  0  0  0  0  0
   -2.8468   -2.4611    4.7354 H   0  0  0  0  0  0  0  0  0  0  0  0
    1.3993   -4.9292    5.3242 H   0  0  0  0  0  0  0  0  0  0  0  0
    1.5023   -5.8432    3.7855 H   0  0  0  0  0  0  0  0  0  0  0  0
    3.1184   -6.7310    5.3665 H   0  0  0  0  0  0  0  0  0  0  0  0
    3.8569   -5.1212    5.6418 H   0  0  0  0  0  0  0  0  0  0  0  0
    4.0197   -5.9365    4.0313 H   0  0  0  0  0  0  0  0  0  0  0  0
    2.1470   -2.5351    5.4336 H   0  0  0  0  0  0  0  0  0  0  0  0
    3.8049   -2.9634    4.8924 H   0  0  0  0  0  0  0  0  0  0  0  0
    3.4130   -0.5940    4.5168 H   0  0  0  0  0  0  0  0  0  0  0  0
    3.5669   -1.4171    2.9230 H   0  0  0  0  0  0  0  0  0  0  0  0
    1.9381   -0.9200    3.5456 H   0  0  0  0  0  0  0  0  0  0  0  0
   -0.3660   -3.3290    4.9242 H   0  0  0  0  0  0  0  0  0  0  0  0
    4.8946   -4.1616    0.3519 H   0  0  0  0  0  0  0  0  0  0  0  0
    0.7254   -4.2380   -3.1268 H   0  0  0  0  0  0  0  0  0  0  0  0
    1.9616   -5.3197   -5.7705 H   0  0  0  0  0  0  0  0  0  0  0  0
    3.6522   -4.4831   -7.3499 H   0  0  0  0  0  0  0  0  0  0  0  0
    5.5764   -3.1811   -6.5469 H   0  0  0  0  0  0  0  0  0  0  0  0
    8.1377   -2.3025   -4.1374 H   0  0  0  0  0  0  0  0  0  0  0  0
    8.1726   -0.8985   -6.0417 H   0  0  0  0  0  0  0  0  0  0  0  0
    6.7013   -3.0124   -8.7081 H   0  0  0  0  0  0  0  0  0  0  0  0
    6.3478   -0.6840  -10.7879 H   0  0  0  0  0  0  0  0  0  0  0  0
    4.5270    0.9593  -10.9975 H   0  0  0  0  0  0  0  0  0  0  0  0
    3.4132    1.8618   -9.0065 H   0  0  0  0  0  0  0  0  0  0  0  0
    2.9532    2.6557   -5.2793 H   0  0  0  0  0  0  0  0  0  0  0  0
    1.6433    1.2535   -7.6566 H   0  0  0  0  0  0  0  0  0  0  0  0
    0.9603    2.6200   -6.5934 H   0  0  0  0  0  0  0  0  0  0  0  0
  1  2  1  0
  2  3  1  0
  3  4  2  0
  4  5  1  0
  5  6  1  0
  6  7  1  0
  6  8  2  0
  8  9  1  0
  9 10  2  0
  3 11  1  0
 11 12  2  3
 12 13  1  0
 13 14  1  0
 14 15  1  0
 15 16  2  0
 16 17  1  0
 17 18  1  0
 18 19  1  0
 18 20  2  0
 20 21  1  0
 21 22  2  0
 15 23  1  0
 23 24  2  3
 24 25  1  0
 25 26  1  0
 26 27  1  0
 27 28  2  0
 28 29  1  0
 29 30  1  0
 30 31  1  0
 30 32  2  0
 32 33  1  0
 33 34  2  0
 27 35  1  0
 35 36  2  3
 36 37  1  0
 37 38  1  0
 38 39  1  0
 39 40  1  0
 40 41  2  0
 41 42  1  0
 42 43  1  0
 43 44  1  0
 44 45  1  0
 43 46  1  0
 46 47  1  0
 43 48  1  0
 48 49  1  0
 41 50  1  0
 50 51  2  0
 51 52  1  0
 51 53  1  0
 53 54  1  0
 54 55  1  0
 55 56  2  0
 56 57  1  0
 57 58  1  0
 58 59  1  0
 58 60  2  0
 60 61  1  0
 61 62  2  0
 55 63  1  0
 63 64  2  3
 64 65  1  0
 65 66  1  0
 66 67  1  0
 67 68  2  0
 68 69  1  0
 69 70  1  0
 70 71  1  0
 70 72  2  0
 72 73  1  0
 73 74  2  0
 67 75  1  0
 75 76  2  3
  5  1  2  0
 17 13  2  0
 29 25  2  0
 49 37  2  0
 57 53  2  0
 69 65  2  0
 10  4  1  0
 22 16  1  0
 34 28  1  0
 48 39  2  0
 62 56  1  0
 74 68  1  0
 52 40  1  0
  1 77  1  0
  7 78  1  0
  8 79  1  0
  9 80  1  0
 10 81  1  0
 11 82  1  0
 12 83  1  0
 19 84  1  0
 20 85  1  0
 21 86  1  0
 22 87  1  0
 23 88  1  0
 24 89  1  0
 31 90  1  0
 32 91  1  0
 33 92  1  0
 34 93  1  0
 35 94  1  0
 36 95  1  0
 44 96  1  0
 44 97  1  0
 45 98  1  0
 45 99  1  0
 45100  1  0
 46101  1  0
 46102  1  0
 47103  1  0
 47104  1  0
 47105  1  0
 49106  1  0
 50107  1  0
 59108  1  0
 60109  1  0
 61110  1  0
 62111  1  0
 63112  1  0
 64113  1  0
 71114  1  0
 72115  1  0
 73116  1  0
 74117  1  0
 75118  1  0
 76119  1  0
 76120  1  0
M  END

