
     RDKit          3D

205217  0  0  0  0  0  0  0  0999 V2000
   -1.0614    1.5509   11.2046 C   0  0  0  0  0  0  0  0  0  0  0  0
   -0.8355    2.4116   10.1353 C   0  0  0  0  0  0  0  0  0  0  0  0
   -0.8817    3.8828   10.2537 C   0  0  0  0  0  0  0  0  0  0  0  0
   -2.0282    4.5967    9.8220 C   0  0  0  0  0  0  0  0  0  0  0  0
   -2.0499    5.9967    9.9283 C   0  0  0  0  0  0  0  0  0  0  0  0
   -0.9405    6.6981   10.4115 C   0  0  0  0  0  0  0  0  0  0  0  0
   -0.9820    8.1986   10.5251 C   0  0  0  0  0  0  0  0  0  0  0  0
   -1.5104    8.6231   11.8910 C   0  0  0  0  0  0  0  0  0  0  0  0
    0.1911    5.9931   10.8347 C   0  0  0  0  0  0  0  0  0  0  0  0
    0.2330    4.5911   10.7727 C   0  0  0  0  0  0  0  0  0  0  0  0
    1.5038    3.8907   11.2061 C   0  0  0  0  0  0  0  0  0  0  0  0
    2.4409    3.6733   10.0217 C   0  0  0  0  0  0  0  0  0  0  0  0
   -3.2677    3.8955    9.3082 C   0  0  0  0  0  0  0  0  0  0  0  0
   -4.2034    3.5359   10.4579 C   0  0  0  0  0  0  0  0  0  0  0  0
   -0.5316    1.7578    8.9341 C   0  0  0  0  0  0  0  0  0  0  0  0
   -0.5091    0.3745    9.0565 C   0  0  0  0  0  0  0  0  0  0  0  0
   -0.8721   -0.0257   10.6512 S   0  0  0  0  0  0  0  0  0  0  0  0
   -0.1784   -0.5754    7.9836 C   0  0  0  0  0  0  0  0  0  0  0  0
    0.2020   -0.1424    6.3975 S   0  0  0  0  0  0  0  0  0  0  0  0
    0.4713   -1.7159    5.8866 C   0  0  0  0  0  0  0  0  0  0  0  0
    0.7647   -2.1870    4.5516 C   0  0  0  0  0  0  0  0  0  0  0  0
    0.7782   -3.5354    4.2992 C   0  0  0  0  0  0  0  0  0  0  0  0
    0.5528   -4.4695    5.3220 O   0  0  0  0  0  0  0  0  0  0  0  0
    0.4692   -4.1262    6.7285 C   0  0  0  0  0  0  0  0  0  0  0  0
   -0.7183   -4.9256    7.3268 C   0  0  0  0  0  0  0  0  0  0  0  0
   -2.0439   -4.6380    6.6156 C   0  0  0  0  0  0  0  0  0  0  0  0
    1.8170   -4.5777    7.3544 C   0  0  0  0  0  0  0  0  0  0  0  0
    1.9775   -4.3464    8.8602 C   0  0  0  0  0  0  0  0  0  0  0  0
    0.2661   -2.6109    6.9245 C   0  0  0  0  0  0  0  0  0  0  0  0
   -0.1079   -1.9626    8.1149 C   0  0  0  0  0  0  0  0  0  0  0  0
    0.9455   -3.8539    2.9512 C   0  0  0  0  0  0  0  0  0  0  0  0
    1.0251   -2.7158    2.1439 C   0  0  0  0  0  0  0  0  0  0  0  0
    0.8899   -1.3341    3.1139 S   0  0  0  0  0  0  0  0  0  0  0  0
    1.0443   -2.6921    0.6726 C   0  0  0  0  0  0  0  0  0  0  0  0
    1.6224   -3.6174   -0.2027 C   0  0  0  0  0  0  0  0  0  0  0  0
    2.5341   -4.7001    0.2223 C   0  0  0  0  0  0  0  0  0  0  0  0
    3.9048   -4.4211    0.4636 C   0  0  0  0  0  0  0  0  0  0  0  0
    4.7431   -5.4410    0.9383 C   0  0  0  0  0  0  0  0  0  0  0  0
    4.2552   -6.7352    1.1444 C   0  0  0  0  0  0  0  0  0  0  0  0
    5.1461   -7.7884    1.7452 C   0  0  0  0  0  0  0  0  0  0  0  0
    5.0864   -7.7275    3.2684 C   0  0  0  0  0  0  0  0  0  0  0  0
    2.9145   -7.0198    0.8632 C   0  0  0  0  0  0  0  0  0  0  0  0
    2.0459   -6.0190    0.4006 C   0  0  0  0  0  0  0  0  0  0  0  0
    0.6102   -6.3940    0.1006 C   0  0  0  0  0  0  0  0  0  0  0  0
    0.4743   -6.9309   -1.3198 C   0  0  0  0  0  0  0  0  0  0  0  0
    4.5105   -3.0499    0.2412 C   0  0  0  0  0  0  0  0  0  0  0  0
    4.7053   -2.3063    1.5589 C   0  0  0  0  0  0  0  0  0  0  0  0
    1.3975   -3.3187   -1.5560 C   0  0  0  0  0  0  0  0  0  0  0  0
    0.6704   -2.1504   -1.7481 C   0  0  0  0  0  0  0  0  0  0  0  0
    0.3017   -1.5005   -0.2440 S   0  0  0  0  0  0  0  0  0  0  0  0
    0.3314   -1.5584   -3.0511 C   0  0  0  0  0  0  0  0  0  0  0  0
    0.2820   -0.1983   -3.3749 C   0  0  0  0  0  0  0  0  0  0  0  0
    0.4843    0.8980   -2.4068 C   0  0  0  0  0  0  0  0  0  0  0  0
    1.7749    1.4462   -2.2018 C   0  0  0  0  0  0  0  0  0  0  0  0
    1.9711    2.3708   -1.1641 C   0  0  0  0  0  0  0  0  0  0  0  0
    0.9000    2.8002   -0.3712 C   0  0  0  0  0  0  0  0  0  0  0  0
    1.1423    3.7085    0.8053 C   0  0  0  0  0  0  0  0  0  0  0  0
    1.3747    2.8892    2.0718 C   0  0  0  0  0  0  0  0  0  0  0  0
   -0.3868    2.3157   -0.6290 C   0  0  0  0  0  0  0  0  0  0  0  0
   -0.6111    1.3678   -1.6379 C   0  0  0  0  0  0  0  0  0  0  0  0
   -2.0283    0.8879   -1.8760 C   0  0  0  0  0  0  0  0  0  0  0  0
   -2.7463    1.7853   -2.8786 C   0  0  0  0  0  0  0  0  0  0  0  0
    2.9672    1.0464   -3.0443 C   0  0  0  0  0  0  0  0  0  0  0  0
    3.7459   -0.0948   -2.4017 C   0  0  0  0  0  0  0  0  0  0  0  0
   -0.0781    0.0433   -4.7030 C   0  0  0  0  0  0  0  0  0  0  0  0
   -0.3545   -1.1146   -5.4105 C   0  0  0  0  0  0  0  0  0  0  0  0
   -0.1247   -2.4430   -4.4077 S   0  0  0  0  0  0  0  0  0  0  0  0
   -0.9005   -1.1650   -6.7663 C   0  0  0  0  0  0  0  0  0  0  0  0
   -0.2972   -0.6817   -7.9266 C   0  0  0  0  0  0  0  0  0  0  0  0
    1.0591   -0.0864   -7.9404 C   0  0  0  0  0  0  0  0  0  0  0  0
    1.2324    1.3118   -8.1295 C   0  0  0  0  0  0  0  0  0  0  0  0
    2.5036    1.8772   -7.9327 C   0  0  0  0  0  0  0  0  0  0  0  0
    3.6089    1.0811   -7.6152 C   0  0  0  0  0  0  0  0  0  0  0  0
    4.9571    1.7088   -7.3790 C   0  0  0  0  0  0  0  0  0  0  0  0
    5.1444    2.0420   -5.9035 C   0  0  0  0  0  0  0  0  0  0  0  0
    3.4482   -0.3008   -7.4897 C   0  0  0  0  0  0  0  0  0  0  0  0
    2.1889   -0.8985   -7.6490 C   0  0  0  0  0  0  0  0  0  0  0  0
    2.1113   -2.4127   -7.6141 C   0  0  0  0  0  0  0  0  0  0  0  0
    2.2316   -2.9892   -9.0215 C   0  0  0  0  0  0  0  0  0  0  0  0
    0.0973    2.2340   -8.5352 C   0  0  0  0  0  0  0  0  0  0  0  0
   -0.7878    2.6209   -7.3561 C   0  0  0  0  0  0  0  0  0  0  0  0
   -1.1163   -0.7989   -9.0614 C   0  0  0  0  0  0  0  0  0  0  0  0
   -2.3773   -1.3147   -8.7762 C   0  0  0  0  0  0  0  0  0  0  0  0
   -2.4489   -1.6824   -7.1341 S   0  0  0  0  0  0  0  0  0  0  0  0
   -3.5038   -1.3870   -9.7227 C   0  0  0  0  0  0  0  0  0  0  0  0
   -4.8614   -1.2044   -9.4326 C   0  0  0  0  0  0  0  0  0  0  0  0
   -5.3969   -0.9028   -8.0834 C   0  0  0  0  0  0  0  0  0  0  0  0
   -5.1908    0.3775   -7.5015 C   0  0  0  0  0  0  0  0  0  0  0  0
   -5.6476    0.6251   -6.1972 C   0  0  0  0  0  0  0  0  0  0  0  0
   -6.2811   -0.3759   -5.4545 C   0  0  0  0  0  0  0  0  0  0  0  0
   -6.7786   -0.0865   -4.0626 C   0  0  0  0  0  0  0  0  0  0  0  0
   -8.2127    0.4304   -4.0997 C   0  0  0  0  0  0  0  0  0  0  0  0
   -6.5068   -1.6273   -6.0376 C   0  0  0  0  0  0  0  0  0  0  0  0
   -6.0846   -1.9020   -7.3480 C   0  0  0  0  0  0  0  0  0  0  0  0
   -6.3289   -3.2900   -7.9017 C   0  0  0  0  0  0  0  0  0  0  0  0
   -5.1352   -4.2038   -7.6444 C   0  0  0  0  0  0  0  0  0  0  0  0
   -4.5634    1.5259   -8.2645 C   0  0  0  0  0  0  0  0  0  0  0  0
   -5.6294    2.3315   -8.9985 C   0  0  0  0  0  0  0  0  0  0  0  0
   -5.6778   -1.2367  -10.5736 C   0  0  0  0  0  0  0  0  0  0  0  0
   -4.9778   -1.4407  -11.7545 C   0  0  0  0  0  0  0  0  0  0  0  0
   -3.3425   -1.5620  -11.3873 S   0  0  0  0  0  0  0  0  0  0  0  0
   -1.3018    1.8451   12.2177 H   0  0  0  0  0  0  0  0  0  0  0  0
   -2.9350    6.5456    9.6282 H   0  0  0  0  0  0  0  0  0  0  0  0
   -1.6329    8.6264    9.7316 H   0  0  0  0  0  0  0  0  0  0  0  0
    0.0357    8.6212   10.3790 H   0  0  0  0  0  0  0  0  0  0  0  0
   -0.8623    8.2207   12.6978 H   0  0  0  0  0  0  0  0  0  0  0  0
   -1.5148    9.7314   11.9603 H   0  0  0  0  0  0  0  0  0  0  0  0
   -2.5480    8.2540   12.0339 H   0  0  0  0  0  0  0  0  0  0  0  0
    1.0461    6.5410   11.2126 H   0  0  0  0  0  0  0  0  0  0  0  0
    2.0324    4.4982   11.9742 H   0  0  0  0  0  0  0  0  0  0  0  0
    1.2782    2.9165   11.6862 H   0  0  0  0  0  0  0  0  0  0  0  0
    3.3644    3.1637   10.3679 H   0  0  0  0  0  0  0  0  0  0  0  0
    1.9568    3.0380    9.2520 H   0  0  0  0  0  0  0  0  0  0  0  0
    2.7197    4.6480    9.5666 H   0  0  0  0  0  0  0  0  0  0  0  0
   -3.8101    4.5537    8.5944 H   0  0  0  0  0  0  0  0  0  0  0  0
   -3.0068    2.9770    8.7419 H   0  0  0  0  0  0  0  0  0  0  0  0
   -5.1111    3.0387   10.0558 H   0  0  0  0  0  0  0  0  0  0  0  0
   -3.7017    2.8426   11.1642 H   0  0  0  0  0  0  0  0  0  0  0  0
   -4.5121    4.4528   11.0025 H   0  0  0  0  0  0  0  0  0  0  0  0
   -0.3236    2.2831    8.0101 H   0  0  0  0  0  0  0  0  0  0  0  0
   -0.8532   -4.7006    8.4051 H   0  0  0  0  0  0  0  0  0  0  0  0
   -0.5110   -6.0147    7.2385 H   0  0  0  0  0  0  0  0  0  0  0  0
   -2.8506   -5.2458    7.0777 H   0  0  0  0  0  0  0  0  0  0  0  0
   -1.9799   -4.9053    5.5403 H   0  0  0  0  0  0  0  0  0  0  0  0
   -2.3165   -3.5663    6.7101 H   0  0  0  0  0  0  0  0  0  0  0  0
    2.6467   -4.0497    6.8350 H   0  0  0  0  0  0  0  0  0  0  0  0
    1.9567   -5.6632    7.1561 H   0  0  0  0  0  0  0  0  0  0  0  0
    2.0240   -3.2639    9.0922 H   0  0  0  0  0  0  0  0  0  0  0  0
    2.9362   -4.7969    9.1933 H   0  0  0  0  0  0  0  0  0  0  0  0
    1.1624   -4.8281    9.4365 H   0  0  0  0  0  0  0  0  0  0  0  0
   -0.3117   -2.4781    9.0429 H   0  0  0  0  0  0  0  0  0  0  0  0
    0.9289   -4.8688    2.5844 H   0  0  0  0  0  0  0  0  0  0  0  0
    5.7831   -5.2235    1.1537 H   0  0  0  0  0  0  0  0  0  0  0  0
    6.1965   -7.6378    1.4120 H   0  0  0  0  0  0  0  0  0  0  0  0
    4.8306   -8.7982    1.4045 H   0  0  0  0  0  0  0  0  0  0  0  0
    4.0450   -7.8877    3.6195 H   0  0  0  0  0  0  0  0  0  0  0  0
    5.7335   -8.5184    3.6999 H   0  0  0  0  0  0  0  0  0  0  0  0
    5.4438   -6.7392    3.6305 H   0  0  0  0  0  0  0  0  0  0  0  0
    2.5409   -8.0245    1.0196 H   0  0  0  0  0  0  0  0  0  0  0  0
    0.2678   -7.1749    0.8155 H   0  0  0  0  0  0  0  0  0  0  0  0
   -0.0732   -5.5287    0.2363 H   0  0  0  0  0  0  0  0  0  0  0  0
   -0.5886   -7.1715   -1.5244 H   0  0  0  0  0  0  0  0  0  0  0  0
    1.0797   -7.8539   -1.4400 H   0  0  0  0  0  0  0  0  0  0  0  0
    0.8161   -6.1737   -2.0560 H   0  0  0  0  0  0  0  0  0  0  0  0
    3.8935   -2.4306   -0.4389 H   0  0  0  0  0  0  0  0  0  0  0  0
    5.4987   -3.1617   -0.2565 H   0  0  0  0  0  0  0  0  0  0  0  0
    5.1416   -1.3059    1.3569 H   0  0  0  0  0  0  0  0  0  0  0  0
    5.3966   -2.8687    2.2225 H   0  0  0  0  0  0  0  0  0  0  0  0
    3.7335   -2.1722    2.0761 H   0  0  0  0  0  0  0  0  0  0  0  0
    1.8091   -3.9020   -2.3679 H   0  0  0  0  0  0  0  0  0  0  0  0
    2.9664    2.7534   -0.9669 H   0  0  0  0  0  0  0  0  0  0  0  0
    2.0285    4.3533    0.6190 H   0  0  0  0  0  0  0  0  0  0  0  0
    0.2687    4.3802    0.9568 H   0  0  0  0  0  0  0  0  0  0  0  0
    2.2519    2.2205    1.9427 H   0  0  0  0  0  0  0  0  0  0  0  0
    1.5684    3.5698    2.9269 H   0  0  0  0  0  0  0  0  0  0  0  0
    0.4794    2.2736    2.3029 H   0  0  0  0  0  0  0  0  0  0  0  0
   -1.2166    2.6597   -0.0210 H   0  0  0  0  0  0  0  0  0  0  0  0
   -2.5947    0.8899   -0.9187 H   0  0  0  0  0  0  0  0  0  0  0  0
   -2.0466   -0.1602   -2.2413 H   0  0  0  0  0  0  0  0  0  0  0  0
   -2.2046    1.8059   -3.8466 H   0  0  0  0  0  0  0  0  0  0  0  0
   -3.7714    1.3974   -3.0558 H   0  0  0  0  0  0  0  0  0  0  0  0
   -2.8216    2.8198   -2.4824 H   0  0  0  0  0  0  0  0  0  0  0  0
    2.6556    0.7539   -4.0691 H   0  0  0  0  0  0  0  0  0  0  0  0
    3.6464    1.9188   -3.1623 H   0  0  0  0  0  0  0  0  0  0  0  0
    4.0519    0.1759   -1.3688 H   0  0  0  0  0  0  0  0  0  0  0  0
    3.1308   -1.0144   -2.3737 H   0  0  0  0  0  0  0  0  0  0  0  0
    4.6588   -0.3025   -2.9985 H   0  0  0  0  0  0  0  0  0  0  0  0
   -0.1791    1.0359   -5.1109 H   0  0  0  0  0  0  0  0  0  0  0  0
    2.6381    2.9484   -8.0321 H   0  0  0  0  0  0  0  0  0  0  0  0
    5.0605    2.6377   -7.9806 H   0  0  0  0  0  0  0  0  0  0  0  0
    5.7646    1.0167   -7.7025 H   0  0  0  0  0  0  0  0  0  0  0  0
    5.1031    1.1164   -5.2922 H   0  0  0  0  0  0  0  0  0  0  0  0
    4.3542    2.7439   -5.5629 H   0  0  0  0  0  0  0  0  0  0  0  0
    6.1347    2.5212   -5.7512 H   0  0  0  0  0  0  0  0  0  0  0  0
    4.3113   -0.9177   -7.2652 H   0  0  0  0  0  0  0  0  0  0  0  0
    2.9285   -2.8267   -6.9831 H   0  0  0  0  0  0  0  0  0  0  0  0
    1.1677   -2.7690   -7.1607 H   0  0  0  0  0  0  0  0  0  0  0  0
    1.3957   -2.6268   -9.6587 H   0  0  0  0  0  0  0  0  0  0  0  0
    3.1985   -2.6876   -9.4791 H   0  0  0  0  0  0  0  0  0  0  0  0
    2.1898   -4.0975   -8.9745 H   0  0  0  0  0  0  0  0  0  0  0  0
    0.5067    3.1677   -8.9824 H   0  0  0  0  0  0  0  0  0  0  0  0
   -0.5218    1.7736   -9.3305 H   0  0  0  0  0  0  0  0  0  0  0  0
   -1.3718    1.7475   -7.0034 H   0  0  0  0  0  0  0  0  0  0  0  0
   -1.5056    3.4037   -7.6765 H   0  0  0  0  0  0  0  0  0  0  0  0
   -0.1712    3.0276   -6.5264 H   0  0  0  0  0  0  0  0  0  0  0  0
   -0.8164   -0.4725  -10.0482 H   0  0  0  0  0  0  0  0  0  0  0  0
   -5.5119    1.6074   -5.7571 H   0  0  0  0  0  0  0  0  0  0  0  0
   -6.7365   -1.0087   -3.4423 H   0  0  0  0  0  0  0  0  0  0  0  0
   -6.1302    0.6707   -3.5716 H   0  0  0  0  0  0  0  0  0  0  0  0
   -8.2659    1.3749   -4.6827 H   0  0  0  0  0  0  0  0  0  0  0  0
   -8.5629    0.6311   -3.0653 H   0  0  0  0  0  0  0  0  0  0  0  0
   -8.8830   -0.3249   -4.5632 H   0  0  0  0  0  0  0  0  0  0  0  0
   -7.0168   -2.3931   -5.4636 H   0  0  0  0  0  0  0  0  0  0  0  0
   -6.5418   -3.2550   -8.9890 H   0  0  0  0  0  0  0  0  0  0  0  0
   -7.2295   -3.7369   -7.4256 H   0  0  0  0  0  0  0  0  0  0  0  0
   -4.9030   -4.2414   -6.5587 H   0  0  0  0  0  0  0  0  0  0  0  0
   -5.3724   -5.2305   -7.9938 H   0  0  0  0  0  0  0  0  0  0  0  0
   -4.2447   -3.8424   -8.1975 H   0  0  0  0  0  0  0  0  0  0  0  0
   -3.8080    1.1731   -8.9934 H   0  0  0  0  0  0  0  0  0  0  0  0
   -4.0217    2.1974   -7.5635 H   0  0  0  0  0  0  0  0  0  0  0  0
   -6.3273    2.7961   -8.2697 H   0  0  0  0  0  0  0  0  0  0  0  0
   -6.2040    1.6759   -9.6866 H   0  0  0  0  0  0  0  0  0  0  0  0
   -5.1462    3.1354   -9.5906 H   0  0  0  0  0  0  0  0  0  0  0  0
   -6.7497   -1.0925  -10.5429 H   0  0  0  0  0  0  0  0  0  0  0  0
   -5.4108   -1.4875  -12.7441 H   0  0  0  0  0  0  0  0  0  0  0  0
  1  2  2  0
  2  3  1  0
  3  4  2  0
  4  5  1  0
  5  6  2  0
  6  7  1  0
  7  8  1  0
  6  9  1  0
  9 10  2  0
 10 11  1  0
 11 12  1  0
  4 13  1  0
 13 14  1  0
  2 15  1  0
 15 16  2  0
 16 17  1  0
 16 18  1  0
 18 19  1  0
 19 20  1  0
 20 21  1  0
 21 22  2  0
 22 23  1  0
 23 24  1  0
 24 25  1  0
 25 26  1  0
 24 27  1  0
 27 28  1  0
 24 29  1  0
 29 30  1  0
 22 31  1  0
 31 32  2  0
 32 33  1  0
 32 34  1  0
 34 35  2  0
 35 36  1  0
 36 37  2  0
 37 38  1  0
 38 39  2  0
 39 40  1  0
 40 41  1  0
 39 42  1  0
 42 43  2  0
 43 44  1  0
 44 45  1  0
 37 46  1  0
 46 47  1  0
 35 48  1  0
 48 49  2  0
 49 50  1  0
 49 51  1  0
 51 52  2  0
 52 53  1  0
 53 54  2  0
 54 55  1  0
 55 56  2  0
 56 57  1  0
 57 58  1  0
 56 59  1  0
 59 60  2  0
 60 61  1  0
 61 62  1  0
 54 63  1  0
 63 64  1  0
 52 65  1  0
 65 66  2  0
 66 67  1  0
 66 68  1  0
 68 69  2  0
 69 70  1  0
 70 71  2  0
 71 72  1  0
 72 73  2  0
 73 74  1  0
 74 75  1  0
 73 76  1  0
 76 77  2  0
 77 78  1  0
 78 79  1  0
 71 80  1  0
 80 81  1  0
 69 82  1  0
 82 83  2  0
 83 84  1  0
 83 85  1  0
 85 86  2  0
 86 87  1  0
 87 88  2  0
 88 89  1  0
 89 90  2  0
 90 91  1  0
 91 92  1  0
 90 93  1  0
 93 94  2  0
 94 95  1  0
 95 96  1  0
 88 97  1  0
 97 98  1  0
 86 99  1  0
 99100  2  0
100101  1  0
 17  1  1  0
 30 18  2  0
 50 34  1  0
 67 51  1  0
 84 68  1  0
101 85  1  0
 10  3  1  0
 29 20  2  0
 43 36  1  0
 60 53  1  0
 77 70  1  0
 94 87  1  0
 33 21  1  0
  1102  1  0
  5103  1  0
  7104  1  0
  7105  1  0
  8106  1  0
  8107  1  0
  8108  1  0
  9109  1  0
 11110  1  0
 11111  1  0
 12112  1  0
 12113  1  0
 12114  1  0
 13115  1  0
 13116  1  0
 14117  1  0
 14118  1  0
 14119  1  0
 15120  1  0
 25121  1  0
 25122  1  0
 26123  1  0
 26124  1  0
 26125  1  0
 27126  1  0
 27127  1  0
 28128  1  0
 28129  1  0
 28130  1  0
 30131  1  0
 31132  1  0
 38133  1  0
 40134  1  0
 40135  1  0
 41136  1  0
 41137  1  0
 41138  1  0
 42139  1  0
 44140  1  0
 44141  1  0
 45142  1  0
 45143  1  0
 45144  1  0
 46145  1  0
 46146  1  0
 47147  1  0
 47148  1  0
 47149  1  0
 48150  1  0
 55151  1  0
 57152  1  0
 57153  1  0
 58154  1  0
 58155  1  0
 58156  1  0
 59157  1  0
 61158  1  0
 61159  1  0
 62160  1  0
 62161  1  0
 62162  1  0
 63163  1  0
 63164  1  0
 64165  1  0
 64166  1  0
 64167  1  0
 65168  1  0
 72169  1  0
 74170  1  0
 74171  1  0
 75172  1  0
 75173  1  0
 75174  1  0
 76175  1  0
 78176  1  0
 78177  1  0
 79178  1  0
 79179  1  0
 79180  1  0
 80181  1  0
 80182  1  0
 81183  1  0
 81184  1  0
 81185  1  0
 82186  1  0
 89187  1  0
 91188  1  0
 91189  1  0
 92190  1  0
 92191  1  0
 92192  1  0
 93193  1  0
 95194  1  0
 95195  1  0
 96196  1  0
 96197  1  0
 96198  1  0
 97199  1  0
 97200  1  0
 98201  1  0
 98202  1  0
 98203  1  0
 99204  1  0
100205  1  0
M  END

