
     RDKit          3D

110122  0  0  0  0  0  0  0  0999 V2000
   12.1053   -0.8434   -1.4189 C   0  0  0  0  0  0  0  0  0  0  0  0
   11.1568    0.2712   -2.2296 S   0  0  0  0  0  0  0  0  0  0  0  0
    9.6677   -0.1838   -1.5846 C   0  0  0  0  0  0  0  0  0  0  0  0
    9.9050   -1.2632   -0.7096 C   0  0  0  0  0  0  0  0  0  0  0  0
   11.2800   -1.6077   -0.6103 C   0  0  0  0  0  0  0  0  0  0  0  0
   11.8447   -2.5620    0.2529 O   0  0  0  0  0  0  0  0  0  0  0  0
   11.1336   -3.5013    1.0550 C   0  0  0  0  0  0  0  0  0  0  0  0
   10.4127   -2.8421    2.2425 C   0  0  0  0  0  0  0  0  0  0  0  0
    9.4336   -1.7243    1.8543 C   0  0  0  0  0  0  0  0  0  0  0  0
    8.6178   -2.0680    0.2588 S   0  0  0  0  0  0  0  0  0  0  0  0
    8.3771    0.4848   -1.9153 C   0  0  0  0  0  0  0  0  0  0  0  0
    6.8507   -0.0044   -1.4136 S   0  0  0  0  0  0  0  0  0  0  0  0
    5.9554    1.2031   -2.1567 C   0  0  0  0  0  0  0  0  0  0  0  0
    6.8526    2.0556   -2.8141 C   0  0  0  0  0  0  0  0  0  0  0  0
    8.2077    1.6355   -2.6998 C   0  0  0  0  0  0  0  0  0  0  0  0
    9.3056    2.2468   -3.3309 O   0  0  0  0  0  0  0  0  0  0  0  0
    9.3059    3.4868   -4.0341 C   0  0  0  0  0  0  0  0  0  0  0  0
    8.5518    3.4055   -5.3729 C   0  0  0  0  0  0  0  0  0  0  0  0
    7.0800    2.9755   -5.2655 C   0  0  0  0  0  0  0  0  0  0  0  0
    6.3288    3.5340   -3.6988 S   0  0  0  0  0  0  0  0  0  0  0  0
    4.4843    1.2982   -2.0410 C   0  0  0  0  0  0  0  0  0  0  0  0
    3.5916    0.5517   -0.8164 S   0  0  0  0  0  0  0  0  0  0  0  0
    2.0959    1.0185   -1.4084 C   0  0  0  0  0  0  0  0  0  0  0  0
    0.7806    0.6423   -0.9373 C   0  0  0  0  0  0  0  0  0  0  0  0
   -0.3165    0.9315   -1.7069 C   0  0  0  0  0  0  0  0  0  0  0  0
   -0.1884    1.6241   -2.9207 O   0  0  0  0  0  0  0  0  0  0  0  0
    1.0213    2.3181   -3.3153 C   0  0  0  0  0  0  0  0  0  0  0  0
    0.8146    3.8057   -2.9163 C   0  0  0  0  0  0  0  0  0  0  0  0
    1.9847    4.7493   -3.2138 C   0  0  0  0  0  0  0  0  0  0  0  0
    1.1590    2.1706   -4.8532 C   0  0  0  0  0  0  0  0  0  0  0  0
    1.2216    0.7120   -5.3143 C   0  0  0  0  0  0  0  0  0  0  0  0
    2.2443    1.7388   -2.5820 C   0  0  0  0  0  0  0  0  0  0  0  0
    3.5964    1.8974   -2.9401 C   0  0  0  0  0  0  0  0  0  0  0  0
   -1.5124    0.4425   -1.1806 C   0  0  0  0  0  0  0  0  0  0  0  0
   -1.3229   -0.2504    0.0188 C   0  0  0  0  0  0  0  0  0  0  0  0
    0.3256   -0.2464    0.4094 S   0  0  0  0  0  0  0  0  0  0  0  0
   -2.3922   -0.8883    0.8108 C   0  0  0  0  0  0  0  0  0  0  0  0
   -4.0277   -0.6851    0.5272 S   0  0  0  0  0  0  0  0  0  0  0  0
   -4.6032   -1.6487    1.7802 C   0  0  0  0  0  0  0  0  0  0  0  0
   -3.4827   -2.1804    2.4456 C   0  0  0  0  0  0  0  0  0  0  0  0
   -2.2448   -1.7249    1.9163 C   0  0  0  0  0  0  0  0  0  0  0  0
   -0.9717   -2.0032    2.4406 O   0  0  0  0  0  0  0  0  0  0  0  0
   -0.6554   -2.9267    3.4824 C   0  0  0  0  0  0  0  0  0  0  0  0
   -1.1515   -2.4519    4.8587 C   0  0  0  0  0  0  0  0  0  0  0  0
   -2.6664   -2.2095    4.9506 C   0  0  0  0  0  0  0  0  0  0  0  0
   -3.5985   -3.3127    3.8406 S   0  0  0  0  0  0  0  0  0  0  0  0
   -6.0483   -1.8440    2.0837 C   0  0  0  0  0  0  0  0  0  0  0  0
   -6.6803   -2.5086    3.4947 S   0  0  0  0  0  0  0  0  0  0  0  0
   -8.3004   -2.2957    3.1373 C   0  0  0  0  0  0  0  0  0  0  0  0
   -8.3954   -1.6689    1.8939 C   0  0  0  0  0  0  0  0  0  0  0  0
   -7.1286   -1.4021    1.3078 C   0  0  0  0  0  0  0  0  0  0  0  0
   -6.9191   -0.7062    0.1068 O   0  0  0  0  0  0  0  0  0  0  0  0
   -7.9223   -0.2731   -0.8070 C   0  0  0  0  0  0  0  0  0  0  0  0
   -8.7401    0.9068   -0.2547 C   0  0  0  0  0  0  0  0  0  0  0  0
   -9.4149    0.6425    1.1006 C   0  0  0  0  0  0  0  0  0  0  0  0
   -9.9688   -1.0893    1.2367 S   0  0  0  0  0  0  0  0  0  0  0  0
   -9.3990   -2.6737    4.0426 C   0  0  0  0  0  0  0  0  0  0  0  0
   -9.4320   -2.3290    5.6872 S   0  0  0  0  0  0  0  0  0  0  0  0
  -10.9333   -3.0161    5.9992 C   0  0  0  0  0  0  0  0  0  0  0  0
  -11.4169   -3.5585    4.8164 C   0  0  0  0  0  0  0  0  0  0  0  0
  -10.5669   -3.3577    3.7119 C   0  0  0  0  0  0  0  0  0  0  0  0
  -10.8412   -3.7644    2.3983 O   0  0  0  0  0  0  0  0  0  0  0  0
  -12.1265   -4.1375    1.8928 C   0  0  0  0  0  0  0  0  0  0  0  0
  -13.2061   -3.1145    2.2869 C   0  0  0  0  0  0  0  0  0  0  0  0
  -13.8171   -3.3072    3.6943 C   0  0  0  0  0  0  0  0  0  0  0  0
  -12.9369   -4.5025    4.7657 S   0  0  0  0  0  0  0  0  0  0  0  0
   13.1826   -0.9328   -1.4863 H   0  0  0  0  0  0  0  0  0  0  0  0
   10.4276   -4.0853    0.4275 H   0  0  0  0  0  0  0  0  0  0  0  0
   11.8656   -4.2300    1.4614 H   0  0  0  0  0  0  0  0  0  0  0  0
   11.1670   -2.4320    2.9485 H   0  0  0  0  0  0  0  0  0  0  0  0
    9.8523   -3.6365    2.7841 H   0  0  0  0  0  0  0  0  0  0  0  0
    8.6509   -1.6457    2.6393 H   0  0  0  0  0  0  0  0  0  0  0  0
    9.9578   -0.7433    1.8257 H   0  0  0  0  0  0  0  0  0  0  0  0
    8.9151    4.3008   -3.3859 H   0  0  0  0  0  0  0  0  0  0  0  0
   10.3630    3.7478   -4.2556 H   0  0  0  0  0  0  0  0  0  0  0  0
    9.0882    2.7056   -6.0518 H   0  0  0  0  0  0  0  0  0  0  0  0
    8.5884    4.4109   -5.8395 H   0  0  0  0  0  0  0  0  0  0  0  0
    6.5089    3.4263   -6.1063 H   0  0  0  0  0  0  0  0  0  0  0  0
    6.9949    1.8698   -5.3763 H   0  0  0  0  0  0  0  0  0  0  0  0
   -0.0898    4.1966   -3.4343 H   0  0  0  0  0  0  0  0  0  0  0  0
    0.6010    3.8580   -1.8262 H   0  0  0  0  0  0  0  0  0  0  0  0
    2.2384    4.7473   -4.2914 H   0  0  0  0  0  0  0  0  0  0  0  0
    2.8767    4.4774   -2.6148 H   0  0  0  0  0  0  0  0  0  0  0  0
    1.6968    5.7836   -2.9299 H   0  0  0  0  0  0  0  0  0  0  0  0
    0.2879    2.6515   -5.3488 H   0  0  0  0  0  0  0  0  0  0  0  0
    2.0691    2.6836   -5.2226 H   0  0  0  0  0  0  0  0  0  0  0  0
    0.2808    0.1761   -5.0628 H   0  0  0  0  0  0  0  0  0  0  0  0
    1.3577    0.6779   -6.4155 H   0  0  0  0  0  0  0  0  0  0  0  0
    2.0777    0.1856   -4.8432 H   0  0  0  0  0  0  0  0  0  0  0  0
    3.9007    2.3923   -3.8456 H   0  0  0  0  0  0  0  0  0  0  0  0
   -2.4732    0.5717   -1.6572 H   0  0  0  0  0  0  0  0  0  0  0  0
    0.4506   -3.0181    3.5344 H   0  0  0  0  0  0  0  0  0  0  0  0
   -1.0383   -3.9389    3.2324 H   0  0  0  0  0  0  0  0  0  0  0  0
   -0.6211   -1.5135    5.1358 H   0  0  0  0  0  0  0  0  0  0  0  0
   -0.8689   -3.2247    5.6065 H   0  0  0  0  0  0  0  0  0  0  0  0
   -2.8995   -1.1442    4.7341 H   0  0  0  0  0  0  0  0  0  0  0  0
   -2.9982   -2.4070    5.9906 H   0  0  0  0  0  0  0  0  0  0  0  0
   -8.5717   -1.1240   -1.0986 H   0  0  0  0  0  0  0  0  0  0  0  0
   -7.4132    0.0674   -1.7334 H   0  0  0  0  0  0  0  0  0  0  0  0
   -9.5287    1.1507   -0.9991 H   0  0  0  0  0  0  0  0  0  0  0  0
   -8.0802    1.7976   -0.1614 H   0  0  0  0  0  0  0  0  0  0  0  0
   -8.7273    0.9052    1.9322 H   0  0  0  0  0  0  0  0  0  0  0  0
  -10.3014    1.3061    1.1926 H   0  0  0  0  0  0  0  0  0  0  0  0
  -11.4179   -3.0642    6.9638 H   0  0  0  0  0  0  0  0  0  0  0  0
  -12.0543   -4.1604    0.7829 H   0  0  0  0  0  0  0  0  0  0  0  0
  -12.3914   -5.1666    2.2043 H   0  0  0  0  0  0  0  0  0  0  0  0
  -12.7790   -2.0899    2.2073 H   0  0  0  0  0  0  0  0  0  0  0  0
  -14.0293   -3.1667    1.5402 H   0  0  0  0  0  0  0  0  0  0  0  0
  -14.8571   -3.6809    3.5868 H   0  0  0  0  0  0  0  0  0  0  0  0
  -13.8786   -2.3290    4.2134 H   0  0  0  0  0  0  0  0  0  0  0  0
  1  2  1  0
  2  3  1  0
  3  4  2  0
  4  5  1  0
  5  6  1  0
  6  7  1  0
  7  8  1  0
  8  9  1  0
  9 10  1  0
  3 11  1  0
 11 12  1  0
 12 13  1  0
 13 14  2  0
 14 15  1  0
 15 16  1  0
 16 17  1  0
 17 18  1  0
 18 19  1  0
 19 20  1  0
 13 21  1  0
 21 22  1  0
 22 23  1  0
 23 24  1  0
 24 25  2  0
 25 26  1  0
 26 27  1  0
 27 28  1  0
 28 29  1  0
 27 30  1  0
 30 31  1  0
 27 32  1  0
 32 33  1  0
 25 34  1  0
 34 35  2  0
 35 36  1  0
 35 37  1  0
 37 38  1  0
 38 39  1  0
 39 40  2  0
 40 41  1  0
 41 42  1  0
 42 43  1  0
 43 44  1  0
 44 45  1  0
 45 46  1  0
 39 47  1  0
 47 48  1  0
 48 49  1  0
 49 50  2  0
 50 51  1  0
 51 52  1  0
 52 53  1  0
 53 54  1  0
 54 55  1  0
 55 56  1  0
 49 57  1  0
 57 58  1  0
 58 59  1  0
 59 60  2  0
 60 61  1  0
 61 62  1  0
 62 63  1  0
 63 64  1  0
 64 65  1  0
 65 66  1  0
  5  1  2  0
 15 11  2  0
 33 21  2  0
 41 37  2  0
 51 47  2  0
 61 57  2  0
 10  4  1  0
 20 14  1  0
 32 23  2  0
 46 40  1  0
 56 50  1  0
 66 60  1  0
 36 24  1  0
  1 67  1  0
  7 68  1  0
  7 69  1  0
  8 70  1  0
  8 71  1  0
  9 72  1  0
  9 73  1  0
 17 74  1  0
 17 75  1  0
 18 76  1  0
 18 77  1  0
 19 78  1  0
 19 79  1  0
 28 80  1  0
 28 81  1  0
 29 82  1  0
 29 83  1  0
 29 84  1  0
 30 85  1  0
 30 86  1  0
 31 87  1  0
 31 88  1  0
 31 89  1  0
 33 90  1  0
 34 91  1  0
 43 92  1  0
 43 93  1  0
 44 94  1  0
 44 95  1  0
 45 96  1  0
 45 97  1  0
 53 98  1  0
 53 99  1  0
 54100  1  0
 54101  1  0
 55102  1  0
 55103  1  0
 59104  1  0
 63105  1  0
 63106  1  0
 64107  1  0
 64108  1  0
 65109  1  0
 65110  1  0
M  END

