
     RDKit          3D

185202  0  0  0  0  0  0  0  0999 V2000
   -4.3560   10.1933    1.2541 C   0  0  0  0  0  0  0  0  0  0  0  0
   -3.4966    9.9016    2.3198 C   0  0  0  0  0  0  0  0  0  0  0  0
   -3.4962    8.5395    2.6188 C   0  0  0  0  0  0  0  0  0  0  0  0
   -4.3110    7.8076    1.8073 C   0  0  0  0  0  0  0  0  0  0  0  0
   -5.0520    8.7585    0.6505 S   0  0  0  0  0  0  0  0  0  0  0  0
   -4.0235    6.4205    2.0030 C   0  0  0  0  0  0  0  0  0  0  0  0
   -3.0493    6.3038    2.9437 C   0  0  0  0  0  0  0  0  0  0  0  0
   -2.5955    7.6552    3.4744 C   0  0  0  0  0  0  0  0  0  0  0  0
   -2.9504    7.7449    4.9810 C   0  0  0  0  0  0  0  0  0  0  0  0
   -2.7016    9.1150    5.6135 C   0  0  0  0  0  0  0  0  0  0  0  0
   -1.0877    7.9029    3.1988 C   0  0  0  0  0  0  0  0  0  0  0  0
   -0.6621    7.6643    1.7442 C   0  0  0  0  0  0  0  0  0  0  0  0
   -2.6224    4.9945    3.1495 C   0  0  0  0  0  0  0  0  0  0  0  0
   -3.3077    4.1000    2.3146 C   0  0  0  0  0  0  0  0  0  0  0  0
   -4.4137    4.9464    1.3179 S   0  0  0  0  0  0  0  0  0  0  0  0
   -3.0816    2.6452    2.3239 C   0  0  0  0  0  0  0  0  0  0  0  0
   -3.7113    1.8126    1.4873 C   0  0  0  0  0  0  0  0  0  0  0  0
   -3.5115    0.3547    1.5426 C   0  0  0  0  0  0  0  0  0  0  0  0
   -2.6453   -0.4909    2.7245 S   0  0  0  0  0  0  0  0  0  0  0  0
   -2.9587   -2.0007    2.0699 C   0  0  0  0  0  0  0  0  0  0  0  0
   -2.4576   -3.2890    2.4970 C   0  0  0  0  0  0  0  0  0  0  0  0
   -2.6218   -4.3791    1.6794 C   0  0  0  0  0  0  0  0  0  0  0  0
   -3.3338   -4.2715    0.4739 O   0  0  0  0  0  0  0  0  0  0  0  0
   -4.1945   -3.1430    0.1637 C   0  0  0  0  0  0  0  0  0  0  0  0
   -5.6242   -3.5216    0.6513 C   0  0  0  0  0  0  0  0  0  0  0  0
   -6.7243   -2.5053    0.3337 C   0  0  0  0  0  0  0  0  0  0  0  0
   -4.1195   -2.9049   -1.3682 C   0  0  0  0  0  0  0  0  0  0  0  0
   -4.5516   -4.1115   -2.2076 C   0  0  0  0  0  0  0  0  0  0  0  0
   -3.7153   -1.8879    0.9149 C   0  0  0  0  0  0  0  0  0  0  0  0
   -4.0434   -0.5508    0.6255 C   0  0  0  0  0  0  0  0  0  0  0  0
   -1.9976   -5.5352    2.1516 C   0  0  0  0  0  0  0  0  0  0  0  0
   -1.3634   -5.3235    3.3799 C   0  0  0  0  0  0  0  0  0  0  0  0
   -1.5503   -3.7041    3.8433 S   0  0  0  0  0  0  0  0  0  0  0  0
   -0.5893   -6.3230    4.1305 C   0  0  0  0  0  0  0  0  0  0  0  0
   -0.1371   -6.1596    5.4437 C   0  0  0  0  0  0  0  0  0  0  0  0
    0.7059   -7.2053    5.8380 C   0  0  0  0  0  0  0  0  0  0  0  0
    0.8725   -8.1652    4.8803 C   0  0  0  0  0  0  0  0  0  0  0  0
    0.0960   -7.7236    3.4613 S   0  0  0  0  0  0  0  0  0  0  0  0
    2.1123   -8.8424    5.1226 C   0  0  0  0  0  0  0  0  0  0  0  0
    2.7084   -8.2687    6.2226 C   0  0  0  0  0  0  0  0  0  0  0  0
    1.7776   -7.2723    6.9166 C   0  0  0  0  0  0  0  0  0  0  0  0
    2.4458   -5.8784    7.1383 C   0  0  0  0  0  0  0  0  0  0  0  0
    3.2983   -5.7373    8.4046 C   0  0  0  0  0  0  0  0  0  0  0  0
    1.1904   -7.9152    8.2023 C   0  0  0  0  0  0  0  0  0  0  0  0
    0.0402   -7.1137    8.8185 C   0  0  0  0  0  0  0  0  0  0  0  0
    4.1077   -8.3391    6.1855 C   0  0  0  0  0  0  0  0  0  0  0  0
    4.5682   -8.9739    5.0294 C   0  0  0  0  0  0  0  0  0  0  0  0
    3.2630   -9.4072    4.0427 S   0  0  0  0  0  0  0  0  0  0  0  0
    5.9551   -8.9554    4.5649 C   0  0  0  0  0  0  0  0  0  0  0  0
    6.6207   -7.8488    4.1917 C   0  0  0  0  0  0  0  0  0  0  0  0
    6.0827   -6.4698    4.0977 C   0  0  0  0  0  0  0  0  0  0  0  0
    4.7393   -6.0602    3.9853 C   0  0  0  0  0  0  0  0  0  0  0  0
    4.6237   -4.6885    3.7480 C   0  0  0  0  0  0  0  0  0  0  0  0
    5.8271   -4.0541    3.6608 C   0  0  0  0  0  0  0  0  0  0  0  0
    7.0945   -5.1342    3.7989 S   0  0  0  0  0  0  0  0  0  0  0  0
    5.6331   -2.8165    2.9720 C   0  0  0  0  0  0  0  0  0  0  0  0
    4.3122   -2.6723    2.6694 C   0  0  0  0  0  0  0  0  0  0  0  0
    3.4885   -3.8652    3.1374 C   0  0  0  0  0  0  0  0  0  0  0  0
    2.4275   -3.4623    4.1950 C   0  0  0  0  0  0  0  0  0  0  0  0
    2.9948   -2.7143    5.4072 C   0  0  0  0  0  0  0  0  0  0  0  0
    2.8739   -4.6739    1.9534 C   0  0  0  0  0  0  0  0  0  0  0  0
    1.7090   -4.0133    1.2081 C   0  0  0  0  0  0  0  0  0  0  0  0
    4.0527   -1.5839    1.8388 C   0  0  0  0  0  0  0  0  0  0  0  0
    5.2389   -0.9601    1.4305 C   0  0  0  0  0  0  0  0  0  0  0  0
    6.5891   -1.7447    2.1172 S   0  0  0  0  0  0  0  0  0  0  0  0
    5.2834    0.0796    0.3961 C   0  0  0  0  0  0  0  0  0  0  0  0
    6.2852    0.1569   -0.4837 C   0  0  0  0  0  0  0  0  0  0  0  0
    6.1553    0.9904   -1.6850 C   0  0  0  0  0  0  0  0  0  0  0  0
    6.3592    0.5017   -2.9799 C   0  0  0  0  0  0  0  0  0  0  0  0
    5.8057    1.3505   -3.9475 C   0  0  0  0  0  0  0  0  0  0  0  0
    5.3142    2.5153   -3.4201 C   0  0  0  0  0  0  0  0  0  0  0  0
    5.3314    2.4750   -1.7480 S   0  0  0  0  0  0  0  0  0  0  0  0
    4.3938    3.0982   -4.3446 C   0  0  0  0  0  0  0  0  0  0  0  0
    4.2917    2.2727   -5.4274 C   0  0  0  0  0  0  0  0  0  0  0  0
    5.2653    1.0974   -5.3607 C   0  0  0  0  0  0  0  0  0  0  0  0
    6.3475    1.3360   -6.4475 C   0  0  0  0  0  0  0  0  0  0  0  0
    7.4925    0.3239   -6.4670 C   0  0  0  0  0  0  0  0  0  0  0  0
    4.4485   -0.2252   -5.5440 C   0  0  0  0  0  0  0  0  0  0  0  0
    5.0581   -1.5219   -5.0002 C   0  0  0  0  0  0  0  0  0  0  0  0
    3.0877    2.4253   -6.1256 C   0  0  0  0  0  0  0  0  0  0  0  0
    2.2624    3.3903   -5.5296 C   0  0  0  0  0  0  0  0  0  0  0  0
    3.0000    3.9992   -4.1325 S   0  0  0  0  0  0  0  0  0  0  0  0
    0.8643    3.6719   -5.8765 C   0  0  0  0  0  0  0  0  0  0  0  0
    0.0380    2.7088   -6.2935 C   0  0  0  0  0  0  0  0  0  0  0  0
   -1.3958    2.9573   -6.5112 C   0  0  0  0  0  0  0  0  0  0  0  0
   -2.3557    1.9469   -6.6269 C   0  0  0  0  0  0  0  0  0  0  0  0
   -3.6243    2.4751   -6.8710 C   0  0  0  0  0  0  0  0  0  0  0  0
   -3.6455    3.8371   -6.9451 C   0  0  0  0  0  0  0  0  0  0  0  0
   -2.1119    4.4824   -6.7842 S   0  0  0  0  0  0  0  0  0  0  0  0
   -4.8477    4.2393   -7.6092 C   0  0  0  0  0  0  0  0  0  0  0  0
   -5.5650    3.1269   -7.9319 C   0  0  0  0  0  0  0  0  0  0  0  0
   -4.8989    1.8547   -7.4285 C   0  0  0  0  0  0  0  0  0  0  0  0
   -4.6168    0.8441   -8.5773 C   0  0  0  0  0  0  0  0  0  0  0  0
   -3.8685    1.4360   -9.7771 C   0  0  0  0  0  0  0  0  0  0  0  0
   -5.7717    1.2436   -6.3027 C   0  0  0  0  0  0  0  0  0  0  0  0
   -5.1360    0.0510   -5.5848 C   0  0  0  0  0  0  0  0  0  0  0  0
   -6.5747    3.3584   -8.8674 C   0  0  0  0  0  0  0  0  0  0  0  0
   -6.5813    4.7014   -9.2896 C   0  0  0  0  0  0  0  0  0  0  0  0
   -5.3225    5.5551   -8.5252 S   0  0  0  0  0  0  0  0  0  0  0  0
   -7.4355    5.2998  -10.3290 C   0  0  0  0  0  0  0  0  0  0  0  0
   -8.3885    4.6277  -10.9713 C   0  0  0  0  0  0  0  0  0  0  0  0
   -4.5047   11.1793    0.8335 H   0  0  0  0  0  0  0  0  0  0  0  0
   -2.8696   10.6352    2.8104 H   0  0  0  0  0  0  0  0  0  0  0  0
   -2.3558    6.9902    5.5406 H   0  0  0  0  0  0  0  0  0  0  0  0
   -4.0216    7.4888    5.1272 H   0  0  0  0  0  0  0  0  0  0  0  0
   -1.6262    9.3868    5.5691 H   0  0  0  0  0  0  0  0  0  0  0  0
   -3.3089    9.8994    5.1184 H   0  0  0  0  0  0  0  0  0  0  0  0
   -2.9979    9.0833    6.6822 H   0  0  0  0  0  0  0  0  0  0  0  0
   -0.8325    8.9517    3.4543 H   0  0  0  0  0  0  0  0  0  0  0  0
   -0.4799    7.2393    3.8522 H   0  0  0  0  0  0  0  0  0  0  0  0
    0.4123    7.9210    1.6296 H   0  0  0  0  0  0  0  0  0  0  0  0
   -0.7922    6.5972    1.4614 H   0  0  0  0  0  0  0  0  0  0  0  0
   -1.2504    8.3022    1.0501 H   0  0  0  0  0  0  0  0  0  0  0  0
   -1.8464    4.7114    3.8494 H   0  0  0  0  0  0  0  0  0  0  0  0
   -2.3746    2.2548    3.0476 H   0  0  0  0  0  0  0  0  0  0  0  0
   -4.3987    2.2018    0.7434 H   0  0  0  0  0  0  0  0  0  0  0  0
   -5.9149   -4.5018    0.2178 H   0  0  0  0  0  0  0  0  0  0  0  0
   -5.5995   -3.6682    1.7535 H   0  0  0  0  0  0  0  0  0  0  0  0
   -7.6953   -2.8977    0.7034 H   0  0  0  0  0  0  0  0  0  0  0  0
   -6.8173   -2.3431   -0.7587 H   0  0  0  0  0  0  0  0  0  0  0  0
   -6.5369   -1.5418    0.8478 H   0  0  0  0  0  0  0  0  0  0  0  0
   -4.7365   -2.0341   -1.6722 H   0  0  0  0  0  0  0  0  0  0  0  0
   -3.0683   -2.6614   -1.6356 H   0  0  0  0  0  0  0  0  0  0  0  0
   -4.3296   -3.9130   -3.2779 H   0  0  0  0  0  0  0  0  0  0  0  0
   -5.6434   -4.2831   -2.1131 H   0  0  0  0  0  0  0  0  0  0  0  0
   -4.0064   -5.0281   -1.8967 H   0  0  0  0  0  0  0  0  0  0  0  0
   -4.6536   -0.2448   -0.2137 H   0  0  0  0  0  0  0  0  0  0  0  0
   -2.0126   -6.4817    1.6272 H   0  0  0  0  0  0  0  0  0  0  0  0
   -0.3305   -5.2788    6.0417 H   0  0  0  0  0  0  0  0  0  0  0  0
    1.6681   -5.0900    7.1966 H   0  0  0  0  0  0  0  0  0  0  0  0
    3.0829   -5.6367    6.2633 H   0  0  0  0  0  0  0  0  0  0  0  0
    4.0992   -6.4979    8.4558 H   0  0  0  0  0  0  0  0  0  0  0  0
    3.7753   -4.7332    8.4140 H   0  0  0  0  0  0  0  0  0  0  0  0
    2.6754   -5.8158    9.3189 H   0  0  0  0  0  0  0  0  0  0  0  0
    0.8087   -8.9332    7.9668 H   0  0  0  0  0  0  0  0  0  0  0  0
    1.9910   -8.0512    8.9583 H   0  0  0  0  0  0  0  0  0  0  0  0
   -0.8357   -7.1019    8.1369 H   0  0  0  0  0  0  0  0  0  0  0  0
   -0.2702   -7.5896    9.7730 H   0  0  0  0  0  0  0  0  0  0  0  0
    0.3457   -6.0694    9.0334 H   0  0  0  0  0  0  0  0  0  0  0  0
    4.7696   -7.8348    6.8717 H   0  0  0  0  0  0  0  0  0  0  0  0
    6.4672   -9.9042    4.5012 H   0  0  0  0  0  0  0  0  0  0  0  0
    7.6586   -7.9750    3.9116 H   0  0  0  0  0  0  0  0  0  0  0  0
    3.8905   -6.7164    3.9359 H   0  0  0  0  0  0  0  0  0  0  0  0
    1.6702   -2.7961    3.7310 H   0  0  0  0  0  0  0  0  0  0  0  0
    1.9011   -4.3718    4.5499 H   0  0  0  0  0  0  0  0  0  0  0  0
    2.1773   -2.5252    6.1365 H   0  0  0  0  0  0  0  0  0  0  0  0
    3.4142   -1.7350    5.0971 H   0  0  0  0  0  0  0  0  0  0  0  0
    3.7835   -3.3064    5.9150 H   0  0  0  0  0  0  0  0  0  0  0  0
    3.6692   -4.9061    1.2114 H   0  0  0  0  0  0  0  0  0  0  0  0
    2.4950   -5.6438    2.3391 H   0  0  0  0  0  0  0  0  0  0  0  0
    1.3432   -4.7125    0.4271 H   0  0  0  0  0  0  0  0  0  0  0  0
    2.0270   -3.0889    0.6949 H   0  0  0  0  0  0  0  0  0  0  0  0
    0.8586   -3.8044    1.8870 H   0  0  0  0  0  0  0  0  0  0  0  0
    3.0710   -1.3028    1.4873 H   0  0  0  0  0  0  0  0  0  0  0  0
    4.3771    0.6592    0.2316 H   0  0  0  0  0  0  0  0  0  0  0  0
    7.1298   -0.5181   -0.4153 H   0  0  0  0  0  0  0  0  0  0  0  0
    6.7550   -0.4837   -3.1812 H   0  0  0  0  0  0  0  0  0  0  0  0
    5.8703    1.3411   -7.4521 H   0  0  0  0  0  0  0  0  0  0  0  0
    6.7939    2.3442   -6.3004 H   0  0  0  0  0  0  0  0  0  0  0  0
    7.1609   -0.6234   -6.9372 H   0  0  0  0  0  0  0  0  0  0  0  0
    8.3241    0.7249   -7.0826 H   0  0  0  0  0  0  0  0  0  0  0  0
    7.8821    0.1374   -5.4446 H   0  0  0  0  0  0  0  0  0  0  0  0
    3.4542   -0.1268   -5.0527 H   0  0  0  0  0  0  0  0  0  0  0  0
    4.2458   -0.3680   -6.6286 H   0  0  0  0  0  0  0  0  0  0  0  0
    4.5694   -2.3893   -5.4920 H   0  0  0  0  0  0  0  0  0  0  0  0
    4.8620   -1.6116   -3.9110 H   0  0  0  0  0  0  0  0  0  0  0  0
    6.1433   -1.5959   -5.1861 H   0  0  0  0  0  0  0  0  0  0  0  0
    2.7829    1.7896   -6.9484 H   0  0  0  0  0  0  0  0  0  0  0  0
    0.4817    4.6609   -5.6516 H   0  0  0  0  0  0  0  0  0  0  0  0
    0.4007    1.6915   -6.3998 H   0  0  0  0  0  0  0  0  0  0  0  0
   -2.1311    0.8892   -6.6103 H   0  0  0  0  0  0  0  0  0  0  0  0
   -4.0095    0.0005   -8.1867 H   0  0  0  0  0  0  0  0  0  0  0  0
   -5.5810    0.4182   -8.9366 H   0  0  0  0  0  0  0  0  0  0  0  0
   -2.9148    1.9059   -9.4605 H   0  0  0  0  0  0  0  0  0  0  0  0
   -3.6331    0.6257  -10.4989 H   0  0  0  0  0  0  0  0  0  0  0  0
   -4.4932    2.1893  -10.2999 H   0  0  0  0  0  0  0  0  0  0  0  0
   -5.9962    2.0248   -5.5407 H   0  0  0  0  0  0  0  0  0  0  0  0
   -6.7461    0.9186   -6.7301 H   0  0  0  0  0  0  0  0  0  0  0  0
   -5.0063   -0.8071   -6.2759 H   0  0  0  0  0  0  0  0  0  0  0  0
   -5.8020   -0.2760   -4.7596 H   0  0  0  0  0  0  0  0  0  0  0  0
   -4.1566    0.3286   -5.1450 H   0  0  0  0  0  0  0  0  0  0  0  0
   -7.1943    2.5728   -9.2745 H   0  0  0  0  0  0  0  0  0  0  0  0
   -7.2727    6.3395  -10.5870 H   0  0  0  0  0  0  0  0  0  0  0  0
   -8.9751    5.1272  -11.7321 H   0  0  0  0  0  0  0  0  0  0  0  0
   -8.5989    3.5888  -10.7594 H   0  0  0  0  0  0  0  0  0  0  0  0
  1  2  2  0
  2  3  1  0
  3  4  2  0
  4  5  1  0
  4  6  1  0
  6  7  2  0
  7  8  1  0
  8  9  1  0
  9 10  1  0
  8 11  1  0
 11 12  1  0
  7 13  1  0
 13 14  2  0
 14 15  1  0
 14 16  1  0
 16 17  2  3
 17 18  1  0
 18 19  1  0
 19 20  1  0
 20 21  1  0
 21 22  2  0
 22 23  1  0
 23 24  1  0
 24 25  1  0
 25 26  1  0
 24 27  1  0
 27 28  1  0
 24 29  1  0
 29 30  1  0
 22 31  1  0
 31 32  2  0
 32 33  1  0
 32 34  1  0
 34 35  2  0
 35 36  1  0
 36 37  2  0
 37 38  1  0
 37 39  1  0
 39 40  2  0
 40 41  1  0
 41 42  1  0
 42 43  1  0
 41 44  1  0
 44 45  1  0
 40 46  1  0
 46 47  2  0
 47 48  1  0
 47 49  1  0
 49 50  2  3
 50 51  1  0
 51 52  2  0
 52 53  1  0
 53 54  2  0
 54 55  1  0
 54 56  1  0
 56 57  2  0
 57 58  1  0
 58 59  1  0
 59 60  1  0
 58 61  1  0
 61 62  1  0
 57 63  1  0
 63 64  2  0
 64 65  1  0
 64 66  1  0
 66 67  2  3
 67 68  1  0
 68 69  2  0
 69 70  1  0
 70 71  2  0
 71 72  1  0
 71 73  1  0
 73 74  2  0
 74 75  1  0
 75 76  1  0
 76 77  1  0
 75 78  1  0
 78 79  1  0
 74 80  1  0
 80 81  2  0
 81 82  1  0
 81 83  1  0
 83 84  2  3
 84 85  1  0
 85 86  2  0
 86 87  1  0
 87 88  2  0
 88 89  1  0
 88 90  1  0
 90 91  2  0
 91 92  1  0
 92 93  1  0
 93 94  1  0
 92 95  1  0
 95 96  1  0
 91 97  1  0
 97 98  2  0
 98 99  1  0
 98100  1  0
100101  2  3
  5  1  1  0
 15  6  1  0
 30 18  2  0
 38 34  1  0
 48 39  1  0
 55 51  1  0
 65 56  1  0
 72 68  1  0
 82 73  1  0
 89 85  1  0
 99 90  1  0
  8  3  1  0
 29 20  2  0
 41 36  1  0
 58 53  1  0
 75 70  1  0
 92 87  1  0
 33 21  1  0
  1102  1  0
  2103  1  0
  9104  1  0
  9105  1  0
 10106  1  0
 10107  1  0
 10108  1  0
 11109  1  0
 11110  1  0
 12111  1  0
 12112  1  0
 12113  1  0
 13114  1  0
 16115  1  0
 17116  1  0
 25117  1  0
 25118  1  0
 26119  1  0
 26120  1  0
 26121  1  0
 27122  1  0
 27123  1  0
 28124  1  0
 28125  1  0
 28126  1  0
 30127  1  0
 31128  1  0
 35129  1  0
 42130  1  0
 42131  1  0
 43132  1  0
 43133  1  0
 43134  1  0
 44135  1  0
 44136  1  0
 45137  1  0
 45138  1  0
 45139  1  0
 46140  1  0
 49141  1  0
 50142  1  0
 52143  1  0
 59144  1  0
 59145  1  0
 60146  1  0
 60147  1  0
 60148  1  0
 61149  1  0
 61150  1  0
 62151  1  0
 62152  1  0
 62153  1  0
 63154  1  0
 66155  1  0
 67156  1  0
 69157  1  0
 76158  1  0
 76159  1  0
 77160  1  0
 77161  1  0
 77162  1  0
 78163  1  0
 78164  1  0
 79165  1  0
 79166  1  0
 79167  1  0
 80168  1  0
 83169  1  0
 84170  1  0
 86171  1  0
 93172  1  0
 93173  1  0
 94174  1  0
 94175  1  0
 94176  1  0
 95177  1  0
 95178  1  0
 96179  1  0
 96180  1  0
 96181  1  0
 97182  1  0
100183  1  0
101184  1  0
101185  1  0
M  END

