
     RDKit          3D

198219  0  0  0  0  0  0  0  0999 V2000
    5.9394   -8.2283   14.1539 C   0  0  0  0  0  0  0  0  0  0  0  0
    5.8733   -6.8457   14.2925 C   0  0  0  0  0  0  0  0  0  0  0  0
    5.3285   -6.2033   13.1676 C   0  0  0  0  0  0  0  0  0  0  0  0
    5.1525   -4.8131   12.9965 C   0  0  0  0  0  0  0  0  0  0  0  0
    5.4993   -3.8411   14.0503 C   0  0  0  0  0  0  0  0  0  0  0  0
    6.6384   -2.6120   13.8804 S   0  0  0  0  0  0  0  0  0  0  0  0
    6.4587   -1.9858   15.4285 C   0  0  0  0  0  0  0  0  0  0  0  0
    7.2518   -0.8404   15.9805 C   0  0  0  0  0  0  0  0  0  0  0  0
    8.4744   -1.3441   16.7375 C   0  0  0  0  0  0  0  0  0  0  0  0
    5.5084   -2.7440   16.1125 C   0  0  0  0  0  0  0  0  0  0  0  0
    5.0347   -2.4362   17.7771 Cl  0  0  0  0  0  0  0  0  0  0  0  0
    4.9622   -3.7789   15.3356 C   0  0  0  0  0  0  0  0  0  0  0  0
    3.6787   -4.8368   15.9116 Cl  0  0  0  0  0  0  0  0  0  0  0  0
    4.6558   -4.3870   11.7512 C   0  0  0  0  0  0  0  0  0  0  0  0
    4.3410   -5.2778   10.7197 C   0  0  0  0  0  0  0  0  0  0  0  0
    4.4931   -6.6639   10.9014 C   0  0  0  0  0  0  0  0  0  0  0  0
    4.1599   -7.6259    9.8404 C   0  0  0  0  0  0  0  0  0  0  0  0
    5.0591   -7.8600    8.4397 S   0  0  0  0  0  0  0  0  0  0  0  0
    4.0585   -9.0465    7.7843 C   0  0  0  0  0  0  0  0  0  0  0  0
    4.3338   -9.7866    6.5108 C   0  0  0  0  0  0  0  0  0  0  0  0
    4.9980  -11.1283    6.7967 C   0  0  0  0  0  0  0  0  0  0  0  0
    3.0094   -9.2847    8.6723 C   0  0  0  0  0  0  0  0  0  0  0  0
    3.0678   -8.4876    9.8261 C   0  0  0  0  0  0  0  0  0  0  0  0
    1.8738   -8.5525   11.1146 Cl  0  0  0  0  0  0  0  0  0  0  0  0
    1.7383  -10.4616    8.3785 Cl  0  0  0  0  0  0  0  0  0  0  0  0
    4.9911   -7.0930   12.1415 C   0  0  0  0  0  0  0  0  0  0  0  0
    5.3417   -8.6617   12.6368 S   0  0  0  0  0  0  0  0  0  0  0  0
    3.8654   -4.6427    9.5616 C   0  0  0  0  0  0  0  0  0  0  0  0
    3.8015   -3.2557    9.6909 C   0  0  0  0  0  0  0  0  0  0  0  0
    4.3258   -2.8192   11.2358 S   0  0  0  0  0  0  0  0  0  0  0  0
    3.4173   -2.3105    8.6330 C   0  0  0  0  0  0  0  0  0  0  0  0
    3.3023   -2.6113    7.2759 C   0  0  0  0  0  0  0  0  0  0  0  0
    3.0384   -1.4809    6.4888 C   0  0  0  0  0  0  0  0  0  0  0  0
    2.9467   -1.4538    5.0855 C   0  0  0  0  0  0  0  0  0  0  0  0
    3.0871   -2.6731    4.2763 C   0  0  0  0  0  0  0  0  0  0  0  0
    1.9011   -3.8492    4.0919 S   0  0  0  0  0  0  0  0  0  0  0  0
    2.8082   -4.8597    3.0975 C   0  0  0  0  0  0  0  0  0  0  0  0
    2.2965   -6.1171    2.4627 C   0  0  0  0  0  0  0  0  0  0  0  0
    1.8536   -5.8572    1.0273 C   0  0  0  0  0  0  0  0  0  0  0  0
    4.0588   -4.2780    2.8901 C   0  0  0  0  0  0  0  0  0  0  0  0
    5.3203   -5.0026    1.9030 Cl  0  0  0  0  0  0  0  0  0  0  0  0
    4.2133   -3.0482    3.5503 C   0  0  0  0  0  0  0  0  0  0  0  0
    5.6870   -2.0912    3.4978 Cl  0  0  0  0  0  0  0  0  0  0  0  0
    2.7611   -0.1997    4.4839 C   0  0  0  0  0  0  0  0  0  0  0  0
    2.6672    0.9827    5.2245 C   0  0  0  0  0  0  0  0  0  0  0  0
    2.7421    0.9539    6.6317 C   0  0  0  0  0  0  0  0  0  0  0  0
    2.5772    2.1682    7.4495 C   0  0  0  0  0  0  0  0  0  0  0  0
    1.2784    2.4455    8.4812 S   0  0  0  0  0  0  0  0  0  0  0  0
    1.7426    3.9932    8.9399 C   0  0  0  0  0  0  0  0  0  0  0  0
    0.9312    4.8940    9.8192 C   0  0  0  0  0  0  0  0  0  0  0  0
   -0.0343    5.7307    8.9888 C   0  0  0  0  0  0  0  0  0  0  0  0
    2.9216    4.3237    8.2727 C   0  0  0  0  0  0  0  0  0  0  0  0
    3.3953    3.2961    7.4425 C   0  0  0  0  0  0  0  0  0  0  0  0
    4.8848    3.4123    6.5142 Cl  0  0  0  0  0  0  0  0  0  0  0  0
    3.7257    5.8774    8.4371 Cl  0  0  0  0  0  0  0  0  0  0  0  0
    2.9341   -0.3008    7.2309 C   0  0  0  0  0  0  0  0  0  0  0  0
    3.1823   -0.6526    8.8573 S   0  0  0  0  0  0  0  0  0  0  0  0
    2.4896    2.1215    4.4241 C   0  0  0  0  0  0  0  0  0  0  0  0
    2.4559    1.8244    3.0636 C   0  0  0  0  0  0  0  0  0  0  0  0
    2.6208    0.1579    2.8451 S   0  0  0  0  0  0  0  0  0  0  0  0
    2.3398    2.8094    1.9825 C   0  0  0  0  0  0  0  0  0  0  0  0
    1.7485    2.4827    0.4365 S   0  0  0  0  0  0  0  0  0  0  0  0
    1.9994    4.0413   -0.1322 C   0  0  0  0  0  0  0  0  0  0  0  0
    1.7157    4.5816   -1.4421 C   0  0  0  0  0  0  0  0  0  0  0  0
    1.9916    5.8980   -1.7118 C   0  0  0  0  0  0  0  0  0  0  0  0
    2.5880    6.7297   -0.7511 O   0  0  0  0  0  0  0  0  0  0  0  0
    2.9887    6.2871    0.5725 C   0  0  0  0  0  0  0  0  0  0  0  0
    4.5335    6.3930    0.6796 C   0  0  0  0  0  0  0  0  0  0  0  0
    5.2691    5.4689   -0.2972 C   0  0  0  0  0  0  0  0  0  0  0  0
    2.3036    7.2061    1.6198 C   0  0  0  0  0  0  0  0  0  0  0  0
    2.5222    8.7031    1.3766 C   0  0  0  0  0  0  0  0  0  0  0  0
    2.5542    4.8389    0.8531 C   0  0  0  0  0  0  0  0  0  0  0  0
    2.7442    4.1430    2.0571 C   0  0  0  0  0  0  0  0  0  0  0  0
    1.5958    6.3026   -2.9897 C   0  0  0  0  0  0  0  0  0  0  0  0
    0.9862    5.2674   -3.7060 C   0  0  0  0  0  0  0  0  0  0  0  0
    0.9546    3.8703   -2.7494 S   0  0  0  0  0  0  0  0  0  0  0  0
    0.3719    5.3684   -5.0362 C   0  0  0  0  0  0  0  0  0  0  0  0
   -0.5347    4.1375   -5.7441 S   0  0  0  0  0  0  0  0  0  0  0  0
   -0.9273    5.0184   -7.1114 C   0  0  0  0  0  0  0  0  0  0  0  0
   -1.8499    4.6600   -8.1612 C   0  0  0  0  0  0  0  0  0  0  0  0
   -2.2833    5.6171   -9.0442 C   0  0  0  0  0  0  0  0  0  0  0  0
   -1.7746    6.9254   -8.9786 O   0  0  0  0  0  0  0  0  0  0  0  0
   -0.5942    7.2838   -8.2115 C   0  0  0  0  0  0  0  0  0  0  0  0
   -0.8232    8.7099   -7.6414 C   0  0  0  0  0  0  0  0  0  0  0  0
   -1.0779    9.7734   -8.7129 C   0  0  0  0  0  0  0  0  0  0  0  0
    0.6161    7.2019   -9.1829 C   0  0  0  0  0  0  0  0  0  0  0  0
    1.9697    7.5947   -8.5874 C   0  0  0  0  0  0  0  0  0  0  0  0
   -0.3848    6.2896   -7.0517 C   0  0  0  0  0  0  0  0  0  0  0  0
    0.3676    6.4878   -5.8747 C   0  0  0  0  0  0  0  0  0  0  0  0
   -3.3001    5.1717   -9.8993 C   0  0  0  0  0  0  0  0  0  0  0  0
   -3.6634    3.8519   -9.6233 C   0  0  0  0  0  0  0  0  0  0  0  0
   -2.7308    3.2556   -8.3467 S   0  0  0  0  0  0  0  0  0  0  0  0
   -4.7616    3.0905  -10.2126 C   0  0  0  0  0  0  0  0  0  0  0  0
   -5.9112    2.3256   -9.2525 S   0  0  0  0  0  0  0  0  0  0  0  0
   -6.3382    1.1882  -10.3965 C   0  0  0  0  0  0  0  0  0  0  0  0
   -7.1476    0.0113  -10.1938 C   0  0  0  0  0  0  0  0  0  0  0  0
   -7.2152   -0.9426  -11.1741 C   0  0  0  0  0  0  0  0  0  0  0  0
   -6.6105   -0.7234  -12.4203 O   0  0  0  0  0  0  0  0  0  0  0  0
   -5.5329    0.2305  -12.6217 C   0  0  0  0  0  0  0  0  0  0  0  0
   -5.7365    0.8816  -14.0148 C   0  0  0  0  0  0  0  0  0  0  0  0
   -5.7024   -0.1161  -15.1755 C   0  0  0  0  0  0  0  0  0  0  0  0
   -4.2160   -0.5940  -12.5093 C   0  0  0  0  0  0  0  0  0  0  0  0
   -2.9077    0.1377  -12.8278 C   0  0  0  0  0  0  0  0  0  0  0  0
   -5.5666    1.3337  -11.5414 C   0  0  0  0  0  0  0  0  0  0  0  0
   -4.6945    2.4410  -11.4468 C   0  0  0  0  0  0  0  0  0  0  0  0
   -7.8852   -2.1065  -10.7797 C   0  0  0  0  0  0  0  0  0  0  0  0
   -8.3271   -2.0295   -9.4539 C   0  0  0  0  0  0  0  0  0  0  0  0
   -7.8924   -0.5328   -8.7997 S   0  0  0  0  0  0  0  0  0  0  0  0
   -8.9215   -3.1128   -8.6628 C   0  0  0  0  0  0  0  0  0  0  0  0
   -9.8246   -2.8731   -7.2593 S   0  0  0  0  0  0  0  0  0  0  0  0
   -9.9276   -4.4986   -6.8717 C   0  0  0  0  0  0  0  0  0  0  0  0
  -10.4742   -5.0994   -5.6748 C   0  0  0  0  0  0  0  0  0  0  0  0
  -10.2204   -6.4180   -5.4075 C   0  0  0  0  0  0  0  0  0  0  0  0
   -9.4738   -7.2050   -6.2944 O   0  0  0  0  0  0  0  0  0  0  0  0
   -9.1132   -6.7927   -7.6392 C   0  0  0  0  0  0  0  0  0  0  0  0
   -7.6397   -7.2271   -7.8690 C   0  0  0  0  0  0  0  0  0  0  0  0
   -7.3952   -8.7258   -7.6583 C   0  0  0  0  0  0  0  0  0  0  0  0
  -10.1137   -7.4952   -8.5985 C   0  0  0  0  0  0  0  0  0  0  0  0
   -9.8409   -7.3218  -10.0951 C   0  0  0  0  0  0  0  0  0  0  0  0
   -9.2297   -5.2632   -7.7943 C   0  0  0  0  0  0  0  0  0  0  0  0
   -8.6730   -4.4762   -8.8242 C   0  0  0  0  0  0  0  0  0  0  0  0
  -10.7275   -6.8489   -4.1806 C   0  0  0  0  0  0  0  0  0  0  0  0
  -11.3867   -5.8325   -3.4880 C   0  0  0  0  0  0  0  0  0  0  0  0
  -11.3190   -4.4093   -4.3993 S   0  0  0  0  0  0  0  0  0  0  0  0
    6.3267   -8.9136   14.8953 H   0  0  0  0  0  0  0  0  0  0  0  0
    6.2246   -6.3313   15.1752 H   0  0  0  0  0  0  0  0  0  0  0  0
    7.5845   -0.1880   15.1455 H   0  0  0  0  0  0  0  0  0  0  0  0
    6.6143   -0.2334   16.6580 H   0  0  0  0  0  0  0  0  0  0  0  0
    9.0522   -0.4782   17.1260 H   0  0  0  0  0  0  0  0  0  0  0  0
    9.1285   -1.9337   16.0620 H   0  0  0  0  0  0  0  0  0  0  0  0
    8.1658   -1.9772   17.5967 H   0  0  0  0  0  0  0  0  0  0  0  0
    5.0029   -9.1774    5.8680 H   0  0  0  0  0  0  0  0  0  0  0  0
    3.3844   -9.9475    5.9584 H   0  0  0  0  0  0  0  0  0  0  0  0
    4.3310  -11.7671    7.4131 H   0  0  0  0  0  0  0  0  0  0  0  0
    5.2027  -11.6507    5.8385 H   0  0  0  0  0  0  0  0  0  0  0  0
    5.9594  -10.9792    7.3341 H   0  0  0  0  0  0  0  0  0  0  0  0
    3.5787   -5.1723    8.6630 H   0  0  0  0  0  0  0  0  0  0  0  0
    3.4497   -3.6026    6.8696 H   0  0  0  0  0  0  0  0  0  0  0  0
    3.0860   -6.8963    2.4778 H   0  0  0  0  0  0  0  0  0  0  0  0
    1.4301   -6.4958    3.0437 H   0  0  0  0  0  0  0  0  0  0  0  0
    1.0612   -5.0759    1.0037 H   0  0  0  0  0  0  0  0  0  0  0  0
    1.4402   -6.7913    0.5913 H   0  0  0  0  0  0  0  0  0  0  0  0
    2.7150   -5.5272    0.4071 H   0  0  0  0  0  0  0  0  0  0  0  0
    0.3519    4.2781   10.5400 H   0  0  0  0  0  0  0  0  0  0  0  0
    1.6006    5.5638   10.4005 H   0  0  0  0  0  0  0  0  0  0  0  0
   -0.6865    5.0749    8.3758 H   0  0  0  0  0  0  0  0  0  0  0  0
   -0.6752    6.3352    9.6635 H   0  0  0  0  0  0  0  0  0  0  0  0
    0.5260    6.4193    8.3185 H   0  0  0  0  0  0  0  0  0  0  0  0
    2.3853    3.1255    4.8141 H   0  0  0  0  0  0  0  0  0  0  0  0
    4.8583    7.4315    0.4555 H   0  0  0  0  0  0  0  0  0  0  0  0
    4.8630    6.1535    1.7140 H   0  0  0  0  0  0  0  0  0  0  0  0
    6.3647    5.6220   -0.1967 H   0  0  0  0  0  0  0  0  0  0  0  0
    5.0504    4.4038   -0.0722 H   0  0  0  0  0  0  0  0  0  0  0  0
    4.9786    5.6920   -1.3441 H   0  0  0  0  0  0  0  0  0  0  0  0
    2.6626    6.9624    2.6428 H   0  0  0  0  0  0  0  0  0  0  0  0
    1.2065    7.0183    1.5972 H   0  0  0  0  0  0  0  0  0  0  0  0
    3.5862    8.9804    1.5234 H   0  0  0  0  0  0  0  0  0  0  0  0
    1.9205    9.2844    2.1080 H   0  0  0  0  0  0  0  0  0  0  0  0
    2.1976    8.9922    0.3548 H   0  0  0  0  0  0  0  0  0  0  0  0
    3.1964    4.5836    2.9366 H   0  0  0  0  0  0  0  0  0  0  0  0
    1.7243    7.3110   -3.3615 H   0  0  0  0  0  0  0  0  0  0  0  0
    0.0324    9.0415   -7.0198 H   0  0  0  0  0  0  0  0  0  0  0  0
   -1.7125    8.6804   -6.9734 H   0  0  0  0  0  0  0  0  0  0  0  0
   -1.3701   10.7240   -8.2218 H   0  0  0  0  0  0  0  0  0  0  0  0
   -1.8973    9.4633   -9.3928 H   0  0  0  0  0  0  0  0  0  0  0  0
   -0.1551    9.9654   -9.3008 H   0  0  0  0  0  0  0  0  0  0  0  0
    0.6975    6.1603   -9.5620 H   0  0  0  0  0  0  0  0  0  0  0  0
    0.4235    7.8350  -10.0732 H   0  0  0  0  0  0  0  0  0  0  0  0
    2.7420    7.5489   -9.3850 H   0  0  0  0  0  0  0  0  0  0  0  0
    2.2716    6.8895   -7.7877 H   0  0  0  0  0  0  0  0  0  0  0  0
    1.9548    8.6308   -8.1946 H   0  0  0  0  0  0  0  0  0  0  0  0
    0.8844    7.4060   -5.6382 H   0  0  0  0  0  0  0  0  0  0  0  0
   -3.7814    5.7916  -10.6455 H   0  0  0  0  0  0  0  0  0  0  0  0
   -6.7298    1.3824  -14.0260 H   0  0  0  0  0  0  0  0  0  0  0  0
   -4.9818    1.6735  -14.2038 H   0  0  0  0  0  0  0  0  0  0  0  0
   -6.4124   -0.9506  -14.9960 H   0  0  0  0  0  0  0  0  0  0  0  0
   -4.6794   -0.5228  -15.3138 H   0  0  0  0  0  0  0  0  0  0  0  0
   -5.9947    0.4012  -16.1132 H   0  0  0  0  0  0  0  0  0  0  0  0
   -4.2868   -1.4772  -13.1802 H   0  0  0  0  0  0  0  0  0  0  0  0
   -4.1388   -1.0044  -11.4773 H   0  0  0  0  0  0  0  0  0  0  0  0
   -2.0929   -0.6107  -12.9220 H   0  0  0  0  0  0  0  0  0  0  0  0
   -2.6249    0.8171  -11.9993 H   0  0  0  0  0  0  0  0  0  0  0  0
   -2.9656    0.6970  -13.7825 H   0  0  0  0  0  0  0  0  0  0  0  0
   -3.9517    2.6860  -12.1932 H   0  0  0  0  0  0  0  0  0  0  0  0
   -8.0051   -2.9744  -11.4117 H   0  0  0  0  0  0  0  0  0  0  0  0
   -7.2883   -6.9532   -8.8837 H   0  0  0  0  0  0  0  0  0  0  0  0
   -6.9956   -6.6757   -7.1478 H   0  0  0  0  0  0  0  0  0  0  0  0
   -7.9079   -9.3232   -8.4396 H   0  0  0  0  0  0  0  0  0  0  0  0
   -7.7442   -9.0477   -6.6546 H   0  0  0  0  0  0  0  0  0  0  0  0
   -6.3067   -8.9336   -7.7268 H   0  0  0  0  0  0  0  0  0  0  0  0
  -11.1365   -7.1100   -8.3883 H   0  0  0  0  0  0  0  0  0  0  0  0
  -10.1406   -8.5826   -8.3729 H   0  0  0  0  0  0  0  0  0  0  0  0
   -9.9348   -6.2602  -10.3990 H   0  0  0  0  0  0  0  0  0  0  0  0
   -8.8404   -7.7094  -10.3723 H   0  0  0  0  0  0  0  0  0  0  0  0
  -10.5954   -7.8994  -10.6686 H   0  0  0  0  0  0  0  0  0  0  0  0
   -8.0682   -4.8745   -9.6266 H   0  0  0  0  0  0  0  0  0  0  0  0
  -10.6136   -7.8556   -3.8021 H   0  0  0  0  0  0  0  0  0  0  0  0
  -11.8493   -5.9360   -2.5164 H   0  0  0  0  0  0  0  0  0  0  0  0
  1  2  2  0
  2  3  1  0
  3  4  2  0
  4  5  1  0
  5  6  1  0
  6  7  1  0
  7  8  1  0
  8  9  1  0
  7 10  2  0
 10 11  1  0
 10 12  1  0
 12 13  1  0
  4 14  1  0
 14 15  2  0
 15 16  1  0
 16 17  1  0
 17 18  1  0
 18 19  1  0
 19 20  1  0
 20 21  1  0
 19 22  2  0
 22 23  1  0
 23 24  1  0
 22 25  1  0
 16 26  2  0
 26 27  1  0
 15 28  1  0
 28 29  2  0
 29 30  1  0
 29 31  1  0
 31 32  2  0
 32 33  1  0
 33 34  2  0
 34 35  1  0
 35 36  1  0
 36 37  1  0
 37 38  1  0
 38 39  1  0
 37 40  2  0
 40 41  1  0
 40 42  1  0
 42 43  1  0
 34 44  1  0
 44 45  2  0
 45 46  1  0
 46 47  1  0
 47 48  1  0
 48 49  1  0
 49 50  1  0
 50 51  1  0
 49 52  2  0
 52 53  1  0
 53 54  1  0
 52 55  1  0
 46 56  2  0
 56 57  1  0
 45 58  1  0
 58 59  2  0
 59 60  1  0
 59 61  1  0
 61 62  1  0
 62 63  1  0
 63 64  1  0
 64 65  2  0
 65 66  1  0
 66 67  1  0
 67 68  1  0
 68 69  1  0
 67 70  1  0
 70 71  1  0
 67 72  1  0
 72 73  1  0
 65 74  1  0
 74 75  2  0
 75 76  1  0
 75 77  1  0
 77 78  1  0
 78 79  1  0
 79 80  1  0
 80 81  2  0
 81 82  1  0
 82 83  1  0
 83 84  1  0
 84 85  1  0
 83 86  1  0
 86 87  1  0
 83 88  1  0
 88 89  1  0
 81 90  1  0
 90 91  2  0
 91 92  1  0
 91 93  1  0
 93 94  1  0
 94 95  1  0
 95 96  1  0
 96 97  2  0
 97 98  1  0
 98 99  1  0
 99100  1  0
100101  1  0
 99102  1  0
102103  1  0
 99104  1  0
104105  1  0
 97106  1  0
106107  2  0
107108  1  0
107109  1  0
109110  1  0
110111  1  0
111112  1  0
112113  2  0
113114  1  0
114115  1  0
115116  1  0
116117  1  0
115118  1  0
118119  1  0
115120  1  0
120121  1  0
113122  1  0
122123  2  0
123124  1  0
 27  1  1  0
 57 31  1  0
 73 61  2  0
 89 77  2  0
105 93  2  0
121109  2  0
 26  3  1  0
 56 33  1  0
 72 63  2  0
 88 79  2  0
104 95  2  0
120111  2  0
 12  5  2  0
 30 14  1  0
 42 35  2  0
 60 44  1  0
 76 64  1  0
 92 80  1  0
108 96  1  0
124112  1  0
 23 17  2  0
 53 47  2  0
  1125  1  0
  2126  1  0
  8127  1  0
  8128  1  0
  9129  1  0
  9130  1  0
  9131  1  0
 20132  1  0
 20133  1  0
 21134  1  0
 21135  1  0
 21136  1  0
 28137  1  0
 32138  1  0
 38139  1  0
 38140  1  0
 39141  1  0
 39142  1  0
 39143  1  0
 50144  1  0
 50145  1  0
 51146  1  0
 51147  1  0
 51148  1  0
 58149  1  0
 68150  1  0
 68151  1  0
 69152  1  0
 69153  1  0
 69154  1  0
 70155  1  0
 70156  1  0
 71157  1  0
 71158  1  0
 71159  1  0
 73160  1  0
 74161  1  0
 84162  1  0
 84163  1  0
 85164  1  0
 85165  1  0
 85166  1  0
 86167  1  0
 86168  1  0
 87169  1  0
 87170  1  0
 87171  1  0
 89172  1  0
 90173  1  0
100174  1  0
100175  1  0
101176  1  0
101177  1  0
101178  1  0
102179  1  0
102180  1  0
103181  1  0
103182  1  0
103183  1  0
105184  1  0
106185  1  0
116186  1  0
116187  1  0
117188  1  0
117189  1  0
117190  1  0
118191  1  0
118192  1  0
119193  1  0
119194  1  0
119195  1  0
121196  1  0
122197  1  0
123198  1  0
M  END

