
     RDKit          3D

258283  0  0  0  0  0  0  0  0999 V2000
    1.4801  -10.6721   -7.6339 C   0  0  0  0  0  0  0  0  0  0  0  0
   -0.0798  -10.5098   -7.0156 S   0  0  0  0  0  0  0  0  0  0  0  0
    0.4208  -10.1489   -5.4542 C   0  0  0  0  0  0  0  0  0  0  0  0
   -0.3877   -9.7509   -4.3232 C   0  0  0  0  0  0  0  0  0  0  0  0
    0.2276   -9.3108   -3.1807 C   0  0  0  0  0  0  0  0  0  0  0  0
    1.6264   -9.2810   -3.0718 O   0  0  0  0  0  0  0  0  0  0  0  0
    2.5376   -9.8329   -4.0568 C   0  0  0  0  0  0  0  0  0  0  0  0
    3.0946  -11.1493   -3.4433 C   0  0  0  0  0  0  0  0  0  0  0  0
    4.2520  -11.8123   -4.2001 C   0  0  0  0  0  0  0  0  0  0  0  0
    3.6339   -8.7641   -4.3188 C   0  0  0  0  0  0  0  0  0  0  0  0
    4.3857   -8.3242   -3.0584 C   0  0  0  0  0  0  0  0  0  0  0  0
    1.8045  -10.1359   -5.3781 C   0  0  0  0  0  0  0  0  0  0  0  0
    2.4000  -10.4280   -6.6176 C   0  0  0  0  0  0  0  0  0  0  0  0
   -0.6570   -8.8208   -2.2205 C   0  0  0  0  0  0  0  0  0  0  0  0
   -1.9804   -8.8334   -2.6620 C   0  0  0  0  0  0  0  0  0  0  0  0
   -2.0410   -9.4710   -4.2320 S   0  0  0  0  0  0  0  0  0  0  0  0
   -3.0923   -8.1508   -1.9881 C   0  0  0  0  0  0  0  0  0  0  0  0
   -4.1486   -7.5107   -2.6404 C   0  0  0  0  0  0  0  0  0  0  0  0
   -4.8710   -6.6540   -1.7951 C   0  0  0  0  0  0  0  0  0  0  0  0
   -5.8619   -5.7394   -2.1953 C   0  0  0  0  0  0  0  0  0  0  0  0
   -6.3570   -5.6758   -3.5789 C   0  0  0  0  0  0  0  0  0  0  0  0
   -7.6069   -6.2252   -3.8970 C   0  0  0  0  0  0  0  0  0  0  0  0
   -8.0977   -6.1435   -5.2022 C   0  0  0  0  0  0  0  0  0  0  0  0
   -7.3432   -5.5134   -6.1983 C   0  0  0  0  0  0  0  0  0  0  0  0
   -8.0018   -5.3866   -7.8666 S   0  0  0  0  0  0  0  0  0  0  0  0
   -7.4193   -7.0346   -8.4052 C   0  0  0  0  0  0  0  0  0  0  0  0
   -5.9472   -6.9995   -8.7949 C   0  0  0  0  0  0  0  0  0  0  0  0
   -6.1001   -4.9489   -5.8789 C   0  0  0  0  0  0  0  0  0  0  0  0
   -5.3744   -4.3021   -6.8272 F   0  0  0  0  0  0  0  0  0  0  0  0
   -5.6056   -5.0364   -4.5740 C   0  0  0  0  0  0  0  0  0  0  0  0
   -6.2887   -4.8048   -1.2383 C   0  0  0  0  0  0  0  0  0  0  0  0
   -5.8157   -4.8069    0.0791 C   0  0  0  0  0  0  0  0  0  0  0  0
   -4.8953   -5.7874    0.5075 C   0  0  0  0  0  0  0  0  0  0  0  0
   -4.4246   -5.8786    1.9057 C   0  0  0  0  0  0  0  0  0  0  0  0
   -4.7378   -7.0168    2.6665 C   0  0  0  0  0  0  0  0  0  0  0  0
   -4.3395   -7.1032    4.0009 C   0  0  0  0  0  0  0  0  0  0  0  0
   -3.6256   -6.0527    4.5919 C   0  0  0  0  0  0  0  0  0  0  0  0
   -3.1198   -6.1735    6.3134 S   0  0  0  0  0  0  0  0  0  0  0  0
   -4.5210   -5.2033    6.9739 C   0  0  0  0  0  0  0  0  0  0  0  0
   -5.7927   -6.0392    7.0448 C   0  0  0  0  0  0  0  0  0  0  0  0
   -3.2889   -4.9263    3.8285 C   0  0  0  0  0  0  0  0  0  0  0  0
   -3.6814   -4.8433    2.4881 C   0  0  0  0  0  0  0  0  0  0  0  0
   -2.6052   -3.8980    4.3928 F   0  0  0  0  0  0  0  0  0  0  0  0
   -4.4148   -6.6724   -0.4722 C   0  0  0  0  0  0  0  0  0  0  0  0
   -3.0930   -7.7044   -0.3595 S   0  0  0  0  0  0  0  0  0  0  0  0
   -6.2242   -3.6810    0.8081 C   0  0  0  0  0  0  0  0  0  0  0  0
   -6.9572   -2.7715    0.0479 C   0  0  0  0  0  0  0  0  0  0  0  0
   -7.1718   -3.3989   -1.5062 S   0  0  0  0  0  0  0  0  0  0  0  0
   -6.9920   -1.3331    0.3348 C   0  0  0  0  0  0  0  0  0  0  0  0
   -5.9241   -0.6501    0.9127 C   0  0  0  0  0  0  0  0  0  0  0  0
   -6.0121    0.7386    0.7714 C   0  0  0  0  0  0  0  0  0  0  0  0
   -5.0098    1.6645    1.1130 C   0  0  0  0  0  0  0  0  0  0  0  0
   -3.6814    1.2436    1.6143 C   0  0  0  0  0  0  0  0  0  0  0  0
   -3.5461    0.6119    2.8593 C   0  0  0  0  0  0  0  0  0  0  0  0
   -2.2774    0.2591    3.3337 C   0  0  0  0  0  0  0  0  0  0  0  0
   -1.1343    0.5314    2.5687 C   0  0  0  0  0  0  0  0  0  0  0  0
    0.4931    0.1251    3.2120 S   0  0  0  0  0  0  0  0  0  0  0  0
    0.6614   -1.4460    2.2899 C   0  0  0  0  0  0  0  0  0  0  0  0
   -0.1761   -2.5492    2.9204 C   0  0  0  0  0  0  0  0  0  0  0  0
   -1.2659    1.1550    1.3224 C   0  0  0  0  0  0  0  0  0  0  0  0
   -0.1699    1.4323    0.5721 F   0  0  0  0  0  0  0  0  0  0  0  0
   -2.5322    1.4935    0.8409 C   0  0  0  0  0  0  0  0  0  0  0  0
   -5.2513    3.0014    0.7769 C   0  0  0  0  0  0  0  0  0  0  0  0
   -6.3750    3.4302    0.0653 C   0  0  0  0  0  0  0  0  0  0  0  0
   -7.3904    2.5032   -0.2686 C   0  0  0  0  0  0  0  0  0  0  0  0
   -8.6567    2.9067   -0.9181 C   0  0  0  0  0  0  0  0  0  0  0  0
   -8.6601    3.5182   -2.1808 C   0  0  0  0  0  0  0  0  0  0  0  0
   -9.8668    3.9158   -2.7635 C   0  0  0  0  0  0  0  0  0  0  0  0
  -11.0760    3.7039   -2.0926 C   0  0  0  0  0  0  0  0  0  0  0  0
  -12.6222    4.2346   -2.8452 S   0  0  0  0  0  0  0  0  0  0  0  0
  -12.5334    5.9507   -2.2149 C   0  0  0  0  0  0  0  0  0  0  0  0
  -12.9764    6.0264   -0.7592 C   0  0  0  0  0  0  0  0  0  0  0  0
  -11.0802    3.0593   -0.8493 C   0  0  0  0  0  0  0  0  0  0  0  0
   -9.8743    2.6700   -0.2645 C   0  0  0  0  0  0  0  0  0  0  0  0
  -12.2463    2.8082   -0.2009 F   0  0  0  0  0  0  0  0  0  0  0  0
   -7.1667    1.1556    0.0983 C   0  0  0  0  0  0  0  0  0  0  0  0
   -8.0504   -0.2102   -0.3561 S   0  0  0  0  0  0  0  0  0  0  0  0
   -6.3025    4.7949   -0.3001 C   0  0  0  0  0  0  0  0  0  0  0  0
   -5.1392    5.4170    0.1617 C   0  0  0  0  0  0  0  0  0  0  0  0
   -4.2126    4.2872    0.9970 S   0  0  0  0  0  0  0  0  0  0  0  0
   -4.4902    6.6075   -0.3918 C   0  0  0  0  0  0  0  0  0  0  0  0
   -3.8469    6.4930   -1.6288 C   0  0  0  0  0  0  0  0  0  0  0  0
   -2.5384    7.0150   -1.6389 C   0  0  0  0  0  0  0  0  0  0  0  0
   -1.5609    6.7492   -2.6207 C   0  0  0  0  0  0  0  0  0  0  0  0
   -1.8875    6.0056   -3.8496 C   0  0  0  0  0  0  0  0  0  0  0  0
   -1.8971    4.6056   -3.8415 C   0  0  0  0  0  0  0  0  0  0  0  0
   -2.2361    3.8971   -4.9987 C   0  0  0  0  0  0  0  0  0  0  0  0
   -2.5789    4.5883   -6.1674 C   0  0  0  0  0  0  0  0  0  0  0  0
   -3.0445    3.6717   -7.6418 S   0  0  0  0  0  0  0  0  0  0  0  0
   -4.8450    3.7679   -7.3377 C   0  0  0  0  0  0  0  0  0  0  0  0
   -5.2918    2.7234   -6.3227 C   0  0  0  0  0  0  0  0  0  0  0  0
   -2.5490    5.9895   -6.1863 C   0  0  0  0  0  0  0  0  0  0  0  0
   -2.8669    6.6714   -7.3139 F   0  0  0  0  0  0  0  0  0  0  0  0
   -2.2065    6.6968   -5.0267 C   0  0  0  0  0  0  0  0  0  0  0  0
   -0.2266    7.0216   -2.2827 C   0  0  0  0  0  0  0  0  0  0  0  0
    0.1370    7.5656   -1.0485 C   0  0  0  0  0  0  0  0  0  0  0  0
   -0.8448    7.9201   -0.0999 C   0  0  0  0  0  0  0  0  0  0  0  0
   -0.4580    8.3582    1.2600 C   0  0  0  0  0  0  0  0  0  0  0  0
    0.2487    9.5566    1.4399 C   0  0  0  0  0  0  0  0  0  0  0  0
    0.6945    9.9316    2.7112 C   0  0  0  0  0  0  0  0  0  0  0  0
    0.4433    9.1085    3.8153 C   0  0  0  0  0  0  0  0  0  0  0  0
    1.0172    9.6083    5.4473 S   0  0  0  0  0  0  0  0  0  0  0  0
    2.4948    8.5276    5.4705 C   0  0  0  0  0  0  0  0  0  0  0  0
    3.5687    9.0165    4.5028 C   0  0  0  0  0  0  0  0  0  0  0  0
   -0.2791    7.9173    3.6466 C   0  0  0  0  0  0  0  0  0  0  0  0
   -0.7116    7.5398    2.3711 C   0  0  0  0  0  0  0  0  0  0  0  0
   -0.5373    7.1127    4.7099 F   0  0  0  0  0  0  0  0  0  0  0  0
   -2.1796    7.6200   -0.4324 C   0  0  0  0  0  0  0  0  0  0  0  0
   -3.4792    7.5108    0.6186 S   0  0  0  0  0  0  0  0  0  0  0  0
    1.5169    7.4841   -0.7980 C   0  0  0  0  0  0  0  0  0  0  0  0
    2.2262    6.8592   -1.8202 C   0  0  0  0  0  0  0  0  0  0  0  0
    1.1535    6.4442   -3.0558 S   0  0  0  0  0  0  0  0  0  0  0  0
    3.5624    6.2637   -1.6578 C   0  0  0  0  0  0  0  0  0  0  0  0
    4.2498    5.9045   -0.1570 S   0  0  0  0  0  0  0  0  0  0  0  0
    5.4778    4.9514   -0.7759 C   0  0  0  0  0  0  0  0  0  0  0  0
    6.3029    4.0013   -0.0499 C   0  0  0  0  0  0  0  0  0  0  0  0
    6.8776    2.9572   -0.7376 C   0  0  0  0  0  0  0  0  0  0  0  0
    6.7907    2.8830   -2.1346 O   0  0  0  0  0  0  0  0  0  0  0  0
    6.3808    4.0060   -2.9507 C   0  0  0  0  0  0  0  0  0  0  0  0
    5.7422    3.4086   -4.2429 C   0  0  0  0  0  0  0  0  0  0  0  0
    5.7723    4.3042   -5.4941 C   0  0  0  0  0  0  0  0  0  0  0  0
    7.6493    4.8647   -3.2295 C   0  0  0  0  0  0  0  0  0  0  0  0
    8.8427    4.0462   -3.7356 C   0  0  0  0  0  0  0  0  0  0  0  0
    5.3770    4.8705   -2.1596 C   0  0  0  0  0  0  0  0  0  0  0  0
    4.2913    5.6167   -2.6593 C   0  0  0  0  0  0  0  0  0  0  0  0
    7.4304    1.9719    0.0812 C   0  0  0  0  0  0  0  0  0  0  0  0
    7.2482    2.2475    1.4381 C   0  0  0  0  0  0  0  0  0  0  0  0
    6.4012    3.7067    1.5970 S   0  0  0  0  0  0  0  0  0  0  0  0
    7.5655    1.3350    2.5473 C   0  0  0  0  0  0  0  0  0  0  0  0
    8.1079    0.0559    2.4231 C   0  0  0  0  0  0  0  0  0  0  0  0
    8.1272   -0.6570    3.6346 C   0  0  0  0  0  0  0  0  0  0  0  0
    8.5204   -2.0010    3.8087 C   0  0  0  0  0  0  0  0  0  0  0  0
    8.9390   -2.8591    2.6744 C   0  0  0  0  0  0  0  0  0  0  0  0
    8.1000   -3.0293    1.5604 C   0  0  0  0  0  0  0  0  0  0  0  0
    8.4774   -3.8726    0.5139 C   0  0  0  0  0  0  0  0  0  0  0  0
    9.6911   -4.5660    0.5719 C   0  0  0  0  0  0  0  0  0  0  0  0
   10.1552   -5.6734   -0.7689 S   0  0  0  0  0  0  0  0  0  0  0  0
    9.1830   -7.1004   -0.1679 C   0  0  0  0  0  0  0  0  0  0  0  0
    9.8119   -7.7260    1.0739 C   0  0  0  0  0  0  0  0  0  0  0  0
   10.5454   -4.3812    1.6671 C   0  0  0  0  0  0  0  0  0  0  0  0
   11.7340   -5.0335    1.7317 F   0  0  0  0  0  0  0  0  0  0  0  0
   10.1704   -3.5331    2.7130 C   0  0  0  0  0  0  0  0  0  0  0  0
    8.4361   -2.5164    5.1186 C   0  0  0  0  0  0  0  0  0  0  0  0
    7.9699   -1.7623    6.2023 C   0  0  0  0  0  0  0  0  0  0  0  0
    7.5604   -0.4250    6.0209 C   0  0  0  0  0  0  0  0  0  0  0  0
    6.9931    0.3911    7.1195 C   0  0  0  0  0  0  0  0  0  0  0  0
    7.5818    1.6137    7.4723 C   0  0  0  0  0  0  0  0  0  0  0  0
    6.9874    2.4342    8.4353 C   0  0  0  0  0  0  0  0  0  0  0  0
    5.7898    2.0441    9.0483 C   0  0  0  0  0  0  0  0  0  0  0  0
    5.0228    3.1104   10.2743 S   0  0  0  0  0  0  0  0  0  0  0  0
    3.8433    3.8864    9.1104 C   0  0  0  0  0  0  0  0  0  0  0  0
    4.5104    4.9911    8.2968 C   0  0  0  0  0  0  0  0  0  0  0  0
    5.2121    0.8099    8.7220 C   0  0  0  0  0  0  0  0  0  0  0  0
    5.8031   -0.0073    7.7534 C   0  0  0  0  0  0  0  0  0  0  0  0
    4.0531    0.4183    9.3086 F   0  0  0  0  0  0  0  0  0  0  0  0
    7.6552    0.0932    4.7192 C   0  0  0  0  0  0  0  0  0  0  0  0
    7.1561    1.6024    4.1642 S   0  0  0  0  0  0  0  0  0  0  0  0
    7.9520   -2.4850    7.4070 C   0  0  0  0  0  0  0  0  0  0  0  0
    8.3782   -3.8016    7.2650 C   0  0  0  0  0  0  0  0  0  0  0  0
    8.7846   -4.0734    5.6528 S   0  0  0  0  0  0  0  0  0  0  0  0
    1.7274  -10.9106   -8.6602 H   0  0  0  0  0  0  0  0  0  0  0  0
    2.2656  -11.8847   -3.3663 H   0  0  0  0  0  0  0  0  0  0  0  0
    3.4330  -10.9586   -2.4037 H   0  0  0  0  0  0  0  0  0  0  0  0
    3.9334  -12.1469   -5.2065 H   0  0  0  0  0  0  0  0  0  0  0  0
    4.5770  -12.7138   -3.6389 H   0  0  0  0  0  0  0  0  0  0  0  0
    5.1251  -11.1351   -4.2814 H   0  0  0  0  0  0  0  0  0  0  0  0
    4.3730   -9.1184   -5.0683 H   0  0  0  0  0  0  0  0  0  0  0  0
    3.1487   -7.8641   -4.7539 H   0  0  0  0  0  0  0  0  0  0  0  0
    4.9764   -9.1661   -2.6391 H   0  0  0  0  0  0  0  0  0  0  0  0
    3.6863   -7.9426   -2.2888 H   0  0  0  0  0  0  0  0  0  0  0  0
    5.0892   -7.5064   -3.3190 H   0  0  0  0  0  0  0  0  0  0  0  0
    3.4668  -10.4561   -6.7861 H   0  0  0  0  0  0  0  0  0  0  0  0
   -0.3308   -8.3888   -1.2839 H   0  0  0  0  0  0  0  0  0  0  0  0
   -4.3075   -7.5738   -3.7075 H   0  0  0  0  0  0  0  0  0  0  0  0
   -8.1993   -6.7132   -3.1333 H   0  0  0  0  0  0  0  0  0  0  0  0
   -9.0661   -6.5675   -5.4355 H   0  0  0  0  0  0  0  0  0  0  0  0
   -8.0163   -7.3326   -9.2933 H   0  0  0  0  0  0  0  0  0  0  0  0
   -7.5879   -7.7906   -7.6113 H   0  0  0  0  0  0  0  0  0  0  0  0
   -5.6543   -7.9795   -9.2283 H   0  0  0  0  0  0  0  0  0  0  0  0
   -5.7713   -6.2075   -9.5529 H   0  0  0  0  0  0  0  0  0  0  0  0
   -5.3151   -6.8068   -7.9040 H   0  0  0  0  0  0  0  0  0  0  0  0
   -4.6460   -4.5963   -4.3324 H   0  0  0  0  0  0  0  0  0  0  0  0
   -5.3036   -7.8298    2.2285 H   0  0  0  0  0  0  0  0  0  0  0  0
   -4.5956   -7.9814    4.5826 H   0  0  0  0  0  0  0  0  0  0  0  0
   -4.2508   -4.8736    8.0003 H   0  0  0  0  0  0  0  0  0  0  0  0
   -4.6950   -4.2966    6.3587 H   0  0  0  0  0  0  0  0  0  0  0  0
   -5.6102   -6.9654    7.6281 H   0  0  0  0  0  0  0  0  0  0  0  0
   -6.5929   -5.4535    7.5483 H   0  0  0  0  0  0  0  0  0  0  0  0
   -6.1398   -6.3043    6.0258 H   0  0  0  0  0  0  0  0  0  0  0  0
   -3.4197   -3.9683    1.9078 H   0  0  0  0  0  0  0  0  0  0  0  0
   -5.8864   -3.4606    1.8108 H   0  0  0  0  0  0  0  0  0  0  0  0
   -5.0563   -1.1536    1.3156 H   0  0  0  0  0  0  0  0  0  0  0  0
   -4.4192    0.4041    3.4639 H   0  0  0  0  0  0  0  0  0  0  0  0
   -2.1820   -0.2181    4.3003 H   0  0  0  0  0  0  0  0  0  0  0  0
    0.3728   -1.3090    1.2274 H   0  0  0  0  0  0  0  0  0  0  0  0
    1.7293   -1.7464    2.3159 H   0  0  0  0  0  0  0  0  0  0  0  0
    0.0242   -3.5120    2.4071 H   0  0  0  0  0  0  0  0  0  0  0  0
   -1.2553   -2.3175    2.8179 H   0  0  0  0  0  0  0  0  0  0  0  0
    0.0805   -2.6554    3.9965 H   0  0  0  0  0  0  0  0  0  0  0  0
   -2.6186    1.9651   -0.1302 H   0  0  0  0  0  0  0  0  0  0  0  0
   -7.7326    3.6845   -2.7095 H   0  0  0  0  0  0  0  0  0  0  0  0
   -9.8621    4.3911   -3.7360 H   0  0  0  0  0  0  0  0  0  0  0  0
  -11.5059    6.3583   -2.3251 H   0  0  0  0  0  0  0  0  0  0  0  0
  -13.2150    6.5742   -2.8283 H   0  0  0  0  0  0  0  0  0  0  0  0
  -13.9798    5.5652   -0.6390 H   0  0  0  0  0  0  0  0  0  0  0  0
  -13.0281    7.0883   -0.4409 H   0  0  0  0  0  0  0  0  0  0  0  0
  -12.2481    5.5047   -0.1052 H   0  0  0  0  0  0  0  0  0  0  0  0
   -9.8883    2.1895    0.7079 H   0  0  0  0  0  0  0  0  0  0  0  0
   -7.0191    5.2977   -0.9338 H   0  0  0  0  0  0  0  0  0  0  0  0
   -4.2123    5.8331   -2.4050 H   0  0  0  0  0  0  0  0  0  0  0  0
   -1.6603    4.0624   -2.9351 H   0  0  0  0  0  0  0  0  0  0  0  0
   -2.2481    2.8155   -4.9811 H   0  0  0  0  0  0  0  0  0  0  0  0
   -5.1343    4.7838   -6.9937 H   0  0  0  0  0  0  0  0  0  0  0  0
   -5.3664    3.5723   -8.3000 H   0  0  0  0  0  0  0  0  0  0  0  0
   -4.9783    1.7106   -6.6557 H   0  0  0  0  0  0  0  0  0  0  0  0
   -6.3991    2.7433   -6.2304 H   0  0  0  0  0  0  0  0  0  0  0  0
   -4.8556    2.9354   -5.3266 H   0  0  0  0  0  0  0  0  0  0  0  0
   -2.2057    7.7775   -5.0423 H   0  0  0  0  0  0  0  0  0  0  0  0
    0.4707   10.1927    0.5920 H   0  0  0  0  0  0  0  0  0  0  0  0
    1.2436   10.8586    2.8361 H   0  0  0  0  0  0  0  0  0  0  0  0
    2.2149    7.4816    5.2279 H   0  0  0  0  0  0  0  0  0  0  0  0
    2.9073    8.5410    6.5013 H   0  0  0  0  0  0  0  0  0  0  0  0
    3.8072   10.0824    4.6953 H   0  0  0  0  0  0  0  0  0  0  0  0
    3.2333    8.8950    3.4539 H   0  0  0  0  0  0  0  0  0  0  0  0
    4.4909    8.4103    4.6400 H   0  0  0  0  0  0  0  0  0  0  0  0
   -1.2228    6.5941    2.2494 H   0  0  0  0  0  0  0  0  0  0  0  0
    1.9685    7.7523    0.1471 H   0  0  0  0  0  0  0  0  0  0  0  0
    4.6875    3.1177   -4.0327 H   0  0  0  0  0  0  0  0  0  0  0  0
    6.2708    2.4661   -4.5052 H   0  0  0  0  0  0  0  0  0  0  0  0
    5.4747    5.3450   -5.2726 H   0  0  0  0  0  0  0  0  0  0  0  0
    6.7878    4.3148   -5.9366 H   0  0  0  0  0  0  0  0  0  0  0  0
    5.0779    3.8955   -6.2561 H   0  0  0  0  0  0  0  0  0  0  0  0
    7.9693    5.3601   -2.2860 H   0  0  0  0  0  0  0  0  0  0  0  0
    7.4315    5.6872   -3.9451 H   0  0  0  0  0  0  0  0  0  0  0  0
    8.5903    3.4874   -4.6582 H   0  0  0  0  0  0  0  0  0  0  0  0
    9.1825    3.3314   -2.9561 H   0  0  0  0  0  0  0  0  0  0  0  0
    9.6871    4.7334   -3.9581 H   0  0  0  0  0  0  0  0  0  0  0  0
    3.9812    5.6273   -3.6921 H   0  0  0  0  0  0  0  0  0  0  0  0
    7.8837    1.0688   -0.3081 H   0  0  0  0  0  0  0  0  0  0  0  0
    8.4494   -0.3524    1.4813 H   0  0  0  0  0  0  0  0  0  0  0  0
    7.1445   -2.5237    1.5099 H   0  0  0  0  0  0  0  0  0  0  0  0
    7.8160   -4.0014   -0.3345 H   0  0  0  0  0  0  0  0  0  0  0  0
    9.1550   -7.8590   -0.9803 H   0  0  0  0  0  0  0  0  0  0  0  0
    8.1382   -6.7945    0.0455 H   0  0  0  0  0  0  0  0  0  0  0  0
   10.8917   -7.9220    0.9053 H   0  0  0  0  0  0  0  0  0  0  0  0
    9.3069   -8.6882    1.2994 H   0  0  0  0  0  0  0  0  0  0  0  0
    9.6870   -7.0557    1.9514 H   0  0  0  0  0  0  0  0  0  0  0  0
   10.8392   -3.4042    3.5524 H   0  0  0  0  0  0  0  0  0  0  0  0
    8.4990    1.9363    6.9926 H   0  0  0  0  0  0  0  0  0  0  0  0
    7.4406    3.3843    8.6860 H   0  0  0  0  0  0  0  0  0  0  0  0
    3.4025    3.1282    8.4296 H   0  0  0  0  0  0  0  0  0  0  0  0
    3.0162    4.3285    9.7073 H   0  0  0  0  0  0  0  0  0  0  0  0
    4.9196    5.7733    8.9701 H   0  0  0  0  0  0  0  0  0  0  0  0
    3.7601    5.4571    7.6222 H   0  0  0  0  0  0  0  0  0  0  0  0
    5.3278    4.5786    7.6708 H   0  0  0  0  0  0  0  0  0  0  0  0
    5.3236   -0.9388    7.4837 H   0  0  0  0  0  0  0  0  0  0  0  0
    7.6343   -2.0797    8.3561 H   0  0  0  0  0  0  0  0  0  0  0  0
    8.4335   -4.5357    8.0573 H   0  0  0  0  0  0  0  0  0  0  0  0
  1  2  1  0
  2  3  1  0
  3  4  1  0
  4  5  2  0
  5  6  1  0
  6  7  1  0
  7  8  1  0
  8  9  1  0
  7 10  1  0
 10 11  1  0
  7 12  1  0
 12 13  1  0
  5 14  1  0
 14 15  2  0
 15 16  1  0
 15 17  1  0
 17 18  2  0
 18 19  1  0
 19 20  2  0
 20 21  1  0
 21 22  2  0
 22 23  1  0
 23 24  2  0
 24 25  1  0
 25 26  1  0
 26 27  1  0
 24 28  1  0
 28 29  1  0
 28 30  2  0
 20 31  1  0
 31 32  2  0
 32 33  1  0
 33 34  1  0
 34 35  2  0
 35 36  1  0
 36 37  2  0
 37 38  1  0
 38 39  1  0
 39 40  1  0
 37 41  1  0
 41 42  2  0
 41 43  1  0
 33 44  2  0
 44 45  1  0
 32 46  1  0
 46 47  2  0
 47 48  1  0
 47 49  1  0
 49 50  2  0
 50 51  1  0
 51 52  2  0
 52 53  1  0
 53 54  2  0
 54 55  1  0
 55 56  2  0
 56 57  1  0
 57 58  1  0
 58 59  1  0
 56 60  1  0
 60 61  1  0
 60 62  2  0
 52 63  1  0
 63 64  2  0
 64 65  1  0
 65 66  1  0
 66 67  2  0
 67 68  1  0
 68 69  2  0
 69 70  1  0
 70 71  1  0
 71 72  1  0
 69 73  1  0
 73 74  2  0
 73 75  1  0
 65 76  2  0
 76 77  1  0
 64 78  1  0
 78 79  2  0
 79 80  1  0
 79 81  1  0
 81 82  2  0
 82 83  1  0
 83 84  2  0
 84 85  1  0
 85 86  2  0
 86 87  1  0
 87 88  2  0
 88 89  1  0
 89 90  1  0
 90 91  1  0
 88 92  1  0
 92 93  1  0
 92 94  2  0
 84 95  1  0
 95 96  2  0
 96 97  1  0
 97 98  1  0
 98 99  2  0
 99100  1  0
100101  2  0
101102  1  0
102103  1  0
103104  1  0
101105  1  0
105106  2  0
105107  1  0
 97108  2  0
108109  1  0
 96110  1  0
110111  2  0
111112  1  0
111113  1  0
113114  1  0
114115  1  0
115116  1  0
116117  2  0
117118  1  0
118119  1  0
119120  1  0
120121  1  0
119122  1  0
122123  1  0
119124  1  0
124125  1  0
117126  1  0
126127  2  0
127128  1  0
127129  1  0
129130  2  0
130131  1  0
131132  2  0
132133  1  0
133134  2  0
134135  1  0
135136  2  0
136137  1  0
137138  1  0
138139  1  0
136140  1  0
140141  1  0
140142  2  0
132143  1  0
143144  2  0
144145  1  0
145146  1  0
146147  2  0
147148  1  0
148149  2  0
149150  1  0
150151  1  0
151152  1  0
149153  1  0
153154  2  0
153155  1  0
145156  2  0
156157  1  0
144158  1  0
158159  2  0
159160  1  0
 13  1  2  0
 45 17  1  0
 77 49  1  0
109 81  1  0
125113  2  0
157129  1  0
 12  3  2  0
 44 19  1  0
 76 51  1  0
108 83  1  0
124115  2  0
156131  1  0
 16  4  1  0
 30 21  1  0
 48 31  1  0
 62 53  1  0
 80 63  1  0
 94 85  1  0
112 95  1  0
128116  1  0
142133  1  0
160143  1  0
 42 34  1  0
 74 66  1  0
106 98  1  0
154146  1  0
  1161  1  0
  8162  1  0
  8163  1  0
  9164  1  0
  9165  1  0
  9166  1  0
 10167  1  0
 10168  1  0
 11169  1  0
 11170  1  0
 11171  1  0
 13172  1  0
 14173  1  0
 18174  1  0
 22175  1  0
 23176  1  0
 26177  1  0
 26178  1  0
 27179  1  0
 27180  1  0
 27181  1  0
 30182  1  0
 35183  1  0
 36184  1  0
 39185  1  0
 39186  1  0
 40187  1  0
 40188  1  0
 40189  1  0
 42190  1  0
 46191  1  0
 50192  1  0
 54193  1  0
 55194  1  0
 58195  1  0
 58196  1  0
 59197  1  0
 59198  1  0
 59199  1  0
 62200  1  0
 67201  1  0
 68202  1  0
 71203  1  0
 71204  1  0
 72205  1  0
 72206  1  0
 72207  1  0
 74208  1  0
 78209  1  0
 82210  1  0
 86211  1  0
 87212  1  0
 90213  1  0
 90214  1  0
 91215  1  0
 91216  1  0
 91217  1  0
 94218  1  0
 99219  1  0
100220  1  0
103221  1  0
103222  1  0
104223  1  0
104224  1  0
104225  1  0
106226  1  0
110227  1  0
120228  1  0
120229  1  0
121230  1  0
121231  1  0
121232  1  0
122233  1  0
122234  1  0
123235  1  0
123236  1  0
123237  1  0
125238  1  0
126239  1  0
130240  1  0
134241  1  0
135242  1  0
138243  1  0
138244  1  0
139245  1  0
139246  1  0
139247  1  0
142248  1  0
147249  1  0
148250  1  0
151251  1  0
151252  1  0
152253  1  0
152254  1  0
152255  1  0
154256  1  0
158257  1  0
159258  1  0
M  END

