
     RDKit          3D

 95112  0  0  0  0  0  0  0  0999 V2000
    2.6688    1.6235    4.8025 C   0  0  0  0  0  0  0  0  0  0  0  0
    1.8946    0.4963    5.8082 S   0  0  0  0  0  0  0  0  0  0  0  0
    3.1999    0.0881    6.8113 C   0  0  0  0  0  0  0  0  0  0  0  0
    4.2555    0.8485    6.3434 C   0  0  0  0  0  0  0  0  0  0  0  0
    3.9713    1.6765    5.2660 C   0  0  0  0  0  0  0  0  0  0  0  0
    5.0845    2.3833    4.8457 C   0  0  0  0  0  0  0  0  0  0  0  0
    6.1861    2.0931    5.5968 C   0  0  0  0  0  0  0  0  0  0  0  0
    5.8867    0.9568    6.8188 S   0  0  0  0  0  0  0  0  0  0  0  0
    7.5330    2.9142    5.0414 S   0  0  0  0  0  0  0  0  0  0  0  0
    6.6629    3.6567    3.7704 C   0  0  0  0  0  0  0  0  0  0  0  0
    5.3099    3.2890    3.8164 C   0  0  0  0  0  0  0  0  0  0  0  0
    7.2592    4.5787    2.7989 C   0  0  0  0  0  0  0  0  0  0  0  0
    8.3745    5.7964    3.1792 S   0  0  0  0  0  0  0  0  0  0  0  0
    8.5589    6.4575    1.6317 C   0  0  0  0  0  0  0  0  0  0  0  0
    7.7458    5.6993    0.8093 C   0  0  0  0  0  0  0  0  0  0  0  0
    7.0415    4.6685    1.4258 C   0  0  0  0  0  0  0  0  0  0  0  0
    6.3125    3.9211    0.5006 C   0  0  0  0  0  0  0  0  0  0  0  0
    6.4492    4.4133   -0.7665 C   0  0  0  0  0  0  0  0  0  0  0  0
    7.4786    5.7526   -0.8675 S   0  0  0  0  0  0  0  0  0  0  0  0
    5.6052    3.4956   -1.8814 S   0  0  0  0  0  0  0  0  0  0  0  0
    5.0358    2.4118   -0.6905 C   0  0  0  0  0  0  0  0  0  0  0  0
    5.5283    2.7695    0.5728 C   0  0  0  0  0  0  0  0  0  0  0  0
    4.1226    1.2887   -0.9469 C   0  0  0  0  0  0  0  0  0  0  0  0
    3.2782    0.4379    0.2426 S   0  0  0  0  0  0  0  0  0  0  0  0
    2.4497   -0.5275   -0.8474 C   0  0  0  0  0  0  0  0  0  0  0  0
    1.4889   -1.5715   -0.5676 C   0  0  0  0  0  0  0  0  0  0  0  0
    1.0300   -2.3494   -1.5978 C   0  0  0  0  0  0  0  0  0  0  0  0
    1.4686   -2.1374   -2.9111 O   0  0  0  0  0  0  0  0  0  0  0  0
    2.1273   -0.9225   -3.3548 C   0  0  0  0  0  0  0  0  0  0  0  0
    3.1697   -1.3998   -4.4183 C   0  0  0  0  0  0  0  0  0  0  0  0
    3.5944   -0.4189   -5.5174 C   0  0  0  0  0  0  0  0  0  0  0  0
    0.9889   -0.0359   -3.9462 C   0  0  0  0  0  0  0  0  0  0  0  0
    1.2613    1.4712   -4.0407 C   0  0  0  0  0  0  0  0  0  0  0  0
    2.8137   -0.2276   -2.1560 C   0  0  0  0  0  0  0  0  0  0  0  0
    3.7562    0.8153   -2.2066 C   0  0  0  0  0  0  0  0  0  0  0  0
    0.1457   -3.3485   -1.1987 C   0  0  0  0  0  0  0  0  0  0  0  0
   -0.1103   -3.3063    0.1736 C   0  0  0  0  0  0  0  0  0  0  0  0
    0.8148   -2.0784    0.8873 S   0  0  0  0  0  0  0  0  0  0  0  0
   -0.9690   -4.2433    0.9060 C   0  0  0  0  0  0  0  0  0  0  0  0
   -0.5601   -5.0108    2.3618 S   0  0  0  0  0  0  0  0  0  0  0  0
   -1.8967   -6.0448    2.4849 C   0  0  0  0  0  0  0  0  0  0  0  0
   -2.6677   -5.7785    1.3655 C   0  0  0  0  0  0  0  0  0  0  0  0
   -2.1826   -4.7939    0.5108 C   0  0  0  0  0  0  0  0  0  0  0  0
   -3.0645   -4.5377   -0.5344 C   0  0  0  0  0  0  0  0  0  0  0  0
   -4.1551   -5.3579   -0.4880 C   0  0  0  0  0  0  0  0  0  0  0  0
   -4.1620   -6.3987    0.8471 S   0  0  0  0  0  0  0  0  0  0  0  0
   -5.2561   -4.9904   -1.6922 S   0  0  0  0  0  0  0  0  0  0  0  0
   -4.3098   -3.6961   -2.2771 C   0  0  0  0  0  0  0  0  0  0  0  0
   -3.1267   -3.5711   -1.5371 C   0  0  0  0  0  0  0  0  0  0  0  0
   -4.6789   -2.8341   -3.4030 C   0  0  0  0  0  0  0  0  0  0  0  0
   -3.6980   -2.4848   -4.7391 S   0  0  0  0  0  0  0  0  0  0  0  0
   -4.7640   -1.4676   -5.5762 C   0  0  0  0  0  0  0  0  0  0  0  0
   -5.8939   -1.3923   -4.7805 C   0  0  0  0  0  0  0  0  0  0  0  0
   -5.8550   -2.1212   -3.5964 C   0  0  0  0  0  0  0  0  0  0  0  0
   -6.9709   -1.8745   -2.8030 C   0  0  0  0  0  0  0  0  0  0  0  0
   -7.8391   -1.0051   -3.3980 C   0  0  0  0  0  0  0  0  0  0  0  0
   -7.3028   -0.4468   -4.9041 S   0  0  0  0  0  0  0  0  0  0  0  0
   -9.1174   -0.6240   -2.3827 S   0  0  0  0  0  0  0  0  0  0  0  0
   -8.5234   -1.6078   -1.1199 C   0  0  0  0  0  0  0  0  0  0  0  0
   -7.3388   -2.2426   -1.5126 C   0  0  0  0  0  0  0  0  0  0  0  0
   -9.1924   -1.8152    0.1717 C   0  0  0  0  0  0  0  0  0  0  0  0
  -10.8569   -2.0738    0.3784 S   0  0  0  0  0  0  0  0  0  0  0  0
  -10.8487   -2.4892    2.0221 C   0  0  0  0  0  0  0  0  0  0  0  0
   -9.5195   -2.4255    2.4049 C   0  0  0  0  0  0  0  0  0  0  0  0
   -8.6136   -2.0462    1.4176 C   0  0  0  0  0  0  0  0  0  0  0  0
   -7.3145   -1.9588    1.9194 C   0  0  0  0  0  0  0  0  0  0  0  0
   -7.2570   -2.3154    3.2366 C   0  0  0  0  0  0  0  0  0  0  0  0
   -8.7642   -2.7079    3.9022 S   0  0  0  0  0  0  0  0  0  0  0  0
   -5.7101   -2.1348    3.8516 S   0  0  0  0  0  0  0  0  0  0  0  0
   -5.0815   -1.5676    2.3726 C   0  0  0  0  0  0  0  0  0  0  0  0
   -6.0964   -1.5077    1.4086 C   0  0  0  0  0  0  0  0  0  0  0  0
    2.2447    2.1750    3.9756 H   0  0  0  0  0  0  0  0  0  0  0  0
    3.2114   -0.6212    7.6286 H   0  0  0  0  0  0  0  0  0  0  0  0
    4.5458    3.6527    3.1409 H   0  0  0  0  0  0  0  0  0  0  0  0
    9.1918    7.2829    1.3400 H   0  0  0  0  0  0  0  0  0  0  0  0
    5.3494    2.1949    1.4670 H   0  0  0  0  0  0  0  0  0  0  0  0
    4.0792   -1.7706   -3.8982 H   0  0  0  0  0  0  0  0  0  0  0  0
    2.7459   -2.2784   -4.9522 H   0  0  0  0  0  0  0  0  0  0  0  0
    4.3032   -0.9322   -6.1963 H   0  0  0  0  0  0  0  0  0  0  0  0
    4.1237    0.4623   -5.1162 H   0  0  0  0  0  0  0  0  0  0  0  0
    2.7269   -0.1009   -6.1295 H   0  0  0  0  0  0  0  0  0  0  0  0
    0.0866   -0.1490   -3.3042 H   0  0  0  0  0  0  0  0  0  0  0  0
    0.6974   -0.4216   -4.9464 H   0  0  0  0  0  0  0  0  0  0  0  0
    1.3173    1.9162   -3.0244 H   0  0  0  0  0  0  0  0  0  0  0  0
    0.4207    1.9586   -4.5773 H   0  0  0  0  0  0  0  0  0  0  0  0
    2.1947    1.6969   -4.5894 H   0  0  0  0  0  0  0  0  0  0  0  0
    4.1408    1.2476   -3.1142 H   0  0  0  0  0  0  0  0  0  0  0  0
   -0.2803   -4.0770   -1.8763 H   0  0  0  0  0  0  0  0  0  0  0  0
   -2.1093   -6.7585    3.2694 H   0  0  0  0  0  0  0  0  0  0  0  0
   -2.4003   -2.7868   -1.6926 H   0  0  0  0  0  0  0  0  0  0  0  0
   -4.5818   -0.9458   -6.5054 H   0  0  0  0  0  0  0  0  0  0  0  0
   -6.7861   -2.9163   -0.8821 H   0  0  0  0  0  0  0  0  0  0  0  0
  -11.6961   -2.7448    2.6461 H   0  0  0  0  0  0  0  0  0  0  0  0
   -4.0578   -1.2591    2.2091 H   0  0  0  0  0  0  0  0  0  0  0  0
   -5.9478   -1.1060    0.4184 H   0  0  0  0  0  0  0  0  0  0  0  0
  1  2  1  0
  2  3  1  0
  3  4  2  0
  4  5  1  0
  5  6  1  0
  6  7  2  0
  7  8  1  0
  7  9  1  0
  9 10  1  0
 10 11  2  0
 10 12  1  0
 12 13  1  0
 13 14  1  0
 14 15  2  0
 15 16  1  0
 16 17  1  0
 17 18  2  0
 18 19  1  0
 18 20  1  0
 20 21  1  0
 21 22  2  0
 21 23  1  0
 23 24  1  0
 24 25  1  0
 25 26  1  0
 26 27  2  0
 27 28  1  0
 28 29  1  0
 29 30  1  0
 30 31  1  0
 29 32  1  0
 32 33  1  0
 29 34  1  0
 34 35  1  0
 27 36  1  0
 36 37  2  0
 37 38  1  0
 37 39  1  0
 39 40  1  0
 40 41  1  0
 41 42  2  0
 42 43  1  0
 43 44  1  0
 44 45  2  0
 45 46  1  0
 45 47  1  0
 47 48  1  0
 48 49  2  0
 48 50  1  0
 50 51  1  0
 51 52  1  0
 52 53  2  0
 53 54  1  0
 54 55  1  0
 55 56  2  0
 56 57  1  0
 56 58  1  0
 58 59  1  0
 59 60  2  0
 59 61  1  0
 61 62  1  0
 62 63  1  0
 63 64  2  0
 64 65  1  0
 65 66  1  0
 66 67  2  0
 67 68  1  0
 67 69  1  0
 69 70  1  0
 70 71  2  0
  5  1  2  0
 11  6  1  0
 16 12  2  0
 22 17  1  0
 35 23  2  0
 43 39  2  0
 49 44  1  0
 54 50  2  0
 60 55  1  0
 65 61  2  0
 71 66  1  0
  8  4  1  0
 19 15  1  0
 34 25  2  0
 46 42  1  0
 57 53  1  0
 68 64  1  0
 38 26  1  0
  1 72  1  0
  3 73  1  0
 11 74  1  0
 14 75  1  0
 22 76  1  0
 30 77  1  0
 30 78  1  0
 31 79  1  0
 31 80  1  0
 31 81  1  0
 32 82  1  0
 32 83  1  0
 33 84  1  0
 33 85  1  0
 33 86  1  0
 35 87  1  0
 36 88  1  0
 41 89  1  0
 49 90  1  0
 52 91  1  0
 60 92  1  0
 63 93  1  0
 70 94  1  0
 71 95  1  0
M  END

