
     RDKit          3D

212235  0  0  0  0  0  0  0  0999 V2000
    2.9142   -8.4074   11.2421 C   0  0  0  0  0  0  0  0  0  0  0  0
    3.2863   -7.3173   10.4610 C   0  0  0  0  0  0  0  0  0  0  0  0
    2.4474   -7.1198    9.3511 C   0  0  0  0  0  0  0  0  0  0  0  0
    2.5834   -6.1226    8.3668 C   0  0  0  0  0  0  0  0  0  0  0  0
    3.6806   -5.1409    8.3903 C   0  0  0  0  0  0  0  0  0  0  0  0
    4.8918   -5.0400    7.2283 S   0  0  0  0  0  0  0  0  0  0  0  0
    5.6644   -3.7011    7.8885 C   0  0  0  0  0  0  0  0  0  0  0  0
    6.8355   -3.0084    7.2610 C   0  0  0  0  0  0  0  0  0  0  0  0
    6.3683   -2.0215    6.1973 C   0  0  0  0  0  0  0  0  0  0  0  0
    4.9595   -3.2928    9.0212 C   0  0  0  0  0  0  0  0  0  0  0  0
    5.3884   -1.8792    9.9745 Cl  0  0  0  0  0  0  0  0  0  0  0  0
    3.8524   -4.1068    9.3084 C   0  0  0  0  0  0  0  0  0  0  0  0
    2.7516   -3.8091   10.6479 Cl  0  0  0  0  0  0  0  0  0  0  0  0
    1.6581   -6.1414    7.3121 C   0  0  0  0  0  0  0  0  0  0  0  0
    0.6517   -7.1084    7.2031 C   0  0  0  0  0  0  0  0  0  0  0  0
    0.5023   -8.0937    8.1999 C   0  0  0  0  0  0  0  0  0  0  0  0
   -0.5676   -9.1041    8.1467 C   0  0  0  0  0  0  0  0  0  0  0  0
   -0.6647  -10.3443    7.0140 S   0  0  0  0  0  0  0  0  0  0  0  0
   -2.0513  -11.0549    7.6500 C   0  0  0  0  0  0  0  0  0  0  0  0
   -2.7498  -12.2423    7.0598 C   0  0  0  0  0  0  0  0  0  0  0  0
   -3.8611  -11.8017    6.1149 C   0  0  0  0  0  0  0  0  0  0  0  0
   -2.4700  -10.3119    8.7537 C   0  0  0  0  0  0  0  0  0  0  0  0
   -1.6332   -9.2229    9.0369 C   0  0  0  0  0  0  0  0  0  0  0  0
   -1.9302   -8.0858   10.3476 Cl  0  0  0  0  0  0  0  0  0  0  0  0
   -3.9071  -10.6938    9.6919 Cl  0  0  0  0  0  0  0  0  0  0  0  0
    1.4236   -8.0666    9.2629 C   0  0  0  0  0  0  0  0  0  0  0  0
    1.5559   -9.1364   10.5549 S   0  0  0  0  0  0  0  0  0  0  0  0
   -0.1399   -6.9541    6.0521 C   0  0  0  0  0  0  0  0  0  0  0  0
    0.2326   -5.8475    5.2914 C   0  0  0  0  0  0  0  0  0  0  0  0
    1.5425   -5.0724    6.0190 S   0  0  0  0  0  0  0  0  0  0  0  0
   -0.3400   -5.4564    4.0015 C   0  0  0  0  0  0  0  0  0  0  0  0
   -0.3841   -4.1542    3.5115 C   0  0  0  0  0  0  0  0  0  0  0  0
   -0.8111   -4.0873    2.1760 C   0  0  0  0  0  0  0  0  0  0  0  0
   -0.9151   -2.9228    1.3844 C   0  0  0  0  0  0  0  0  0  0  0  0
   -0.6693   -1.5697    1.9256 C   0  0  0  0  0  0  0  0  0  0  0  0
   -1.8181   -0.3393    1.9503 S   0  0  0  0  0  0  0  0  0  0  0  0
   -0.8383    0.8150    2.6801 C   0  0  0  0  0  0  0  0  0  0  0  0
   -1.2875    2.1898    3.0672 C   0  0  0  0  0  0  0  0  0  0  0  0
   -2.0889    2.1501    4.3635 C   0  0  0  0  0  0  0  0  0  0  0  0
    0.4061    0.2456    2.9335 C   0  0  0  0  0  0  0  0  0  0  0  0
    1.7138    1.1050    3.7310 Cl  0  0  0  0  0  0  0  0  0  0  0  0
    0.5086   -1.0858    2.4974 C   0  0  0  0  0  0  0  0  0  0  0  0
    1.9929   -2.0221    2.6171 Cl  0  0  0  0  0  0  0  0  0  0  0  0
   -1.3278   -3.1006    0.0522 C   0  0  0  0  0  0  0  0  0  0  0  0
   -1.6412   -4.3549   -0.4839 C   0  0  0  0  0  0  0  0  0  0  0  0
   -1.5379   -5.5149    0.3065 C   0  0  0  0  0  0  0  0  0  0  0  0
   -1.7500   -6.8568   -0.2611 C   0  0  0  0  0  0  0  0  0  0  0  0
   -0.7871   -7.5469   -1.4574 S   0  0  0  0  0  0  0  0  0  0  0  0
   -1.5915   -9.0238   -1.5042 C   0  0  0  0  0  0  0  0  0  0  0  0
   -1.2600  -10.1417   -2.4449 C   0  0  0  0  0  0  0  0  0  0  0  0
   -1.9494   -9.9408   -3.7889 C   0  0  0  0  0  0  0  0  0  0  0  0
   -2.6442   -8.9887   -0.5895 C   0  0  0  0  0  0  0  0  0  0  0  0
   -2.7272   -7.7760    0.1135 C   0  0  0  0  0  0  0  0  0  0  0  0
   -3.9781   -7.4328    1.3033 Cl  0  0  0  0  0  0  0  0  0  0  0  0
   -3.7621  -10.3247   -0.3438 Cl  0  0  0  0  0  0  0  0  0  0  0  0
   -1.1226   -5.3430    1.6397 C   0  0  0  0  0  0  0  0  0  0  0  0
   -0.8486   -6.5286    2.8036 S   0  0  0  0  0  0  0  0  0  0  0  0
   -2.0489   -4.2961   -1.8275 C   0  0  0  0  0  0  0  0  0  0  0  0
   -2.0127   -3.0019   -2.3444 C   0  0  0  0  0  0  0  0  0  0  0  0
   -1.4987   -1.9324   -1.1446 S   0  0  0  0  0  0  0  0  0  0  0  0
   -2.4166   -2.5978   -3.6956 C   0  0  0  0  0  0  0  0  0  0  0  0
   -1.9118   -1.1801   -4.4484 S   0  0  0  0  0  0  0  0  0  0  0  0
   -2.9088   -1.3642   -5.7813 C   0  0  0  0  0  0  0  0  0  0  0  0
   -3.2454   -0.3483   -6.7573 C   0  0  0  0  0  0  0  0  0  0  0  0
   -4.4559   -0.4207   -7.4030 C   0  0  0  0  0  0  0  0  0  0  0  0
   -5.2528   -1.5736   -7.2970 O   0  0  0  0  0  0  0  0  0  0  0  0
   -4.7830   -2.8158   -6.7064 C   0  0  0  0  0  0  0  0  0  0  0  0
   -4.1791   -3.6473   -7.8816 C   0  0  0  0  0  0  0  0  0  0  0  0
   -3.1377   -4.7067   -7.4921 C   0  0  0  0  0  0  0  0  0  0  0  0
   -6.0524   -3.4726   -6.0734 C   0  0  0  0  0  0  0  0  0  0  0  0
   -6.0740   -4.9980   -5.9255 C   0  0  0  0  0  0  0  0  0  0  0  0
   -3.6999   -2.4983   -5.6492 C   0  0  0  0  0  0  0  0  0  0  0  0
   -3.3919   -3.2184   -4.4780 C   0  0  0  0  0  0  0  0  0  0  0  0
   -4.8331    0.7702   -8.0353 C   0  0  0  0  0  0  0  0  0  0  0  0
   -3.8832    1.7831   -7.8648 C   0  0  0  0  0  0  0  0  0  0  0  0
   -2.6101    1.1889   -6.9192 S   0  0  0  0  0  0  0  0  0  0  0  0
   -4.0842    3.2208   -8.1002 C   0  0  0  0  0  0  0  0  0  0  0  0
   -2.8250    4.3304   -8.0033 S   0  0  0  0  0  0  0  0  0  0  0  0
   -3.7722    5.6634   -7.6507 C   0  0  0  0  0  0  0  0  0  0  0  0
   -3.3198    6.7717   -6.8133 C   0  0  0  0  0  0  0  0  0  0  0  0
   -4.1760    7.2363   -5.8323 C   0  0  0  0  0  0  0  0  0  0  0  0
   -5.5451    6.9231   -5.8733 O   0  0  0  0  0  0  0  0  0  0  0  0
   -6.1467    6.2507   -7.0063 C   0  0  0  0  0  0  0  0  0  0  0  0
   -6.4689    7.3281   -8.0816 C   0  0  0  0  0  0  0  0  0  0  0  0
   -7.3236    8.4860   -7.5561 C   0  0  0  0  0  0  0  0  0  0  0  0
   -7.4235    5.5295   -6.4830 C   0  0  0  0  0  0  0  0  0  0  0  0
   -8.4279    5.0943   -7.5640 C   0  0  0  0  0  0  0  0  0  0  0  0
   -5.1115    5.2702   -7.5951 C   0  0  0  0  0  0  0  0  0  0  0  0
   -5.2822    3.8928   -7.8590 C   0  0  0  0  0  0  0  0  0  0  0  0
   -3.5333    7.8450   -4.7492 C   0  0  0  0  0  0  0  0  0  0  0  0
   -2.1423    7.8367   -4.8749 C   0  0  0  0  0  0  0  0  0  0  0  0
   -1.7436    7.0649   -6.3218 S   0  0  0  0  0  0  0  0  0  0  0  0
   -1.2049    7.8626   -3.7491 C   0  0  0  0  0  0  0  0  0  0  0  0
   -1.3375    7.0080   -2.6554 C   0  0  0  0  0  0  0  0  0  0  0  0
   -0.1214    6.7467   -2.0020 C   0  0  0  0  0  0  0  0  0  0  0  0
    0.0908    5.7563   -1.0190 C   0  0  0  0  0  0  0  0  0  0  0  0
   -1.0384    4.9798   -0.4716 C   0  0  0  0  0  0  0  0  0  0  0  0
   -2.3146    5.6569    0.3910 S   0  0  0  0  0  0  0  0  0  0  0  0
   -3.3154    4.3078    0.3344 C   0  0  0  0  0  0  0  0  0  0  0  0
   -4.7046    4.2571    0.8984 C   0  0  0  0  0  0  0  0  0  0  0  0
   -4.7281    3.5491    2.2467 C   0  0  0  0  0  0  0  0  0  0  0  0
   -2.6592    3.2970   -0.3676 C   0  0  0  0  0  0  0  0  0  0  0  0
   -3.3796    1.7295   -0.7127 Cl  0  0  0  0  0  0  0  0  0  0  0  0
   -1.3850    3.6758   -0.8232 C   0  0  0  0  0  0  0  0  0  0  0  0
   -0.3806    2.6480   -1.8378 Cl  0  0  0  0  0  0  0  0  0  0  0  0
    1.4256    5.4836   -0.6679 C   0  0  0  0  0  0  0  0  0  0  0  0
    2.5020    6.1858   -1.2220 C   0  0  0  0  0  0  0  0  0  0  0  0
    2.2853    7.1958   -2.1808 C   0  0  0  0  0  0  0  0  0  0  0  0
    3.3949    7.9053   -2.8368 C   0  0  0  0  0  0  0  0  0  0  0  0
    3.7233    9.5445   -2.6480 S   0  0  0  0  0  0  0  0  0  0  0  0
    5.0460    9.5778   -3.6887 C   0  0  0  0  0  0  0  0  0  0  0  0
    5.9006   10.7825   -3.9375 C   0  0  0  0  0  0  0  0  0  0  0  0
    7.0496   10.8416   -2.9384 C   0  0  0  0  0  0  0  0  0  0  0  0
    5.2522    8.2942   -4.1937 C   0  0  0  0  0  0  0  0  0  0  0  0
    4.3191    7.3581   -3.7240 C   0  0  0  0  0  0  0  0  0  0  0  0
    4.2940    5.6752   -4.2362 Cl  0  0  0  0  0  0  0  0  0  0  0  0
    6.5489    7.8883   -5.3097 Cl  0  0  0  0  0  0  0  0  0  0  0  0
    0.9578    7.4375   -2.5603 C   0  0  0  0  0  0  0  0  0  0  0  0
    0.4147    8.3165   -3.8888 S   0  0  0  0  0  0  0  0  0  0  0  0
    3.7502    5.7138   -0.7940 C   0  0  0  0  0  0  0  0  0  0  0  0
    3.6570    4.6140    0.0574 C   0  0  0  0  0  0  0  0  0  0  0  0
    2.0235    4.2569    0.3228 S   0  0  0  0  0  0  0  0  0  0  0  0
    4.8010    3.7885    0.4819 C   0  0  0  0  0  0  0  0  0  0  0  0
    6.4178    4.1570    0.1551 S   0  0  0  0  0  0  0  0  0  0  0  0
    7.0195    2.7023    0.7270 C   0  0  0  0  0  0  0  0  0  0  0  0
    8.3689    2.1835    0.6218 C   0  0  0  0  0  0  0  0  0  0  0  0
    8.5936    0.8466    0.8273 C   0  0  0  0  0  0  0  0  0  0  0  0
    7.5441   -0.0087    1.1948 O   0  0  0  0  0  0  0  0  0  0  0  0
    6.2802    0.4763    1.7133 C   0  0  0  0  0  0  0  0  0  0  0  0
    5.1779   -0.5197    1.2624 C   0  0  0  0  0  0  0  0  0  0  0  0
    5.4515   -1.9698    1.6724 C   0  0  0  0  0  0  0  0  0  0  0  0
    6.4383    0.5513    3.2568 C   0  0  0  0  0  0  0  0  0  0  0  0
    5.1624    0.8572    4.0396 C   0  0  0  0  0  0  0  0  0  0  0  0
    5.9849    1.8844    1.1593 C   0  0  0  0  0  0  0  0  0  0  0  0
    4.7270    2.5094    1.0400 C   0  0  0  0  0  0  0  0  0  0  0  0
    9.9101    0.4517    0.5906 C   0  0  0  0  0  0  0  0  0  0  0  0
   10.7195    1.5144    0.1900 C   0  0  0  0  0  0  0  0  0  0  0  0
    9.7854    2.9249    0.1173 S   0  0  0  0  0  0  0  0  0  0  0  0
    3.4188   -8.7365   12.1394 H   0  0  0  0  0  0  0  0  0  0  0  0
    4.1440   -6.6986   10.6889 H   0  0  0  0  0  0  0  0  0  0  0  0
    7.5025   -3.7642    6.7921 H   0  0  0  0  0  0  0  0  0  0  0  0
    7.4230   -2.4699    8.0337 H   0  0  0  0  0  0  0  0  0  0  0  0
    5.7231   -1.2386    6.6527 H   0  0  0  0  0  0  0  0  0  0  0  0
    7.2515   -1.5312    5.7355 H   0  0  0  0  0  0  0  0  0  0  0  0
    5.7974   -2.5479    5.4020 H   0  0  0  0  0  0  0  0  0  0  0  0
   -3.1762  -12.8706    7.8693 H   0  0  0  0  0  0  0  0  0  0  0  0
   -2.0147  -12.8595    6.5017 H   0  0  0  0  0  0  0  0  0  0  0  0
   -3.4419  -11.2065    5.2758 H   0  0  0  0  0  0  0  0  0  0  0  0
   -4.3717  -12.6953    5.6978 H   0  0  0  0  0  0  0  0  0  0  0  0
   -4.6102  -11.1882    6.6592 H   0  0  0  0  0  0  0  0  0  0  0  0
   -0.9581   -7.6095    5.7849 H   0  0  0  0  0  0  0  0  0  0  0  0
   -0.0991   -3.2945    4.1032 H   0  0  0  0  0  0  0  0  0  0  0  0
   -1.9195    2.6059    2.2598 H   0  0  0  0  0  0  0  0  0  0  0  0
   -0.4164    2.8668    3.1900 H   0  0  0  0  0  0  0  0  0  0  0  0
   -1.4828    1.6982    5.1782 H   0  0  0  0  0  0  0  0  0  0  0  0
   -2.3688    3.1822    4.6631 H   0  0  0  0  0  0  0  0  0  0  0  0
   -3.0192    1.5573    4.2257 H   0  0  0  0  0  0  0  0  0  0  0  0
   -0.1611  -10.1763   -2.6001 H   0  0  0  0  0  0  0  0  0  0  0  0
   -1.5720  -11.1144   -2.0097 H   0  0  0  0  0  0  0  0  0  0  0  0
   -1.7118  -10.7936   -4.4598 H   0  0  0  0  0  0  0  0  0  0  0  0
   -1.5939   -9.0048   -4.2694 H   0  0  0  0  0  0  0  0  0  0  0  0
   -3.0511   -9.8917   -3.6558 H   0  0  0  0  0  0  0  0  0  0  0  0
   -2.3569   -5.1581   -2.4048 H   0  0  0  0  0  0  0  0  0  0  0  0
   -4.9944   -4.1236   -8.4651 H   0  0  0  0  0  0  0  0  0  0  0  0
   -3.6703   -2.9546   -8.5878 H   0  0  0  0  0  0  0  0  0  0  0  0
   -3.4918   -5.3560   -6.6720 H   0  0  0  0  0  0  0  0  0  0  0  0
   -2.1886   -4.2190   -7.1797 H   0  0  0  0  0  0  0  0  0  0  0  0
   -2.9249   -5.3491   -8.3715 H   0  0  0  0  0  0  0  0  0  0  0  0
   -6.2515   -3.0120   -5.0801 H   0  0  0  0  0  0  0  0  0  0  0  0
   -6.9321   -3.2148   -6.7070 H   0  0  0  0  0  0  0  0  0  0  0  0
   -7.0357   -5.3004   -5.4573 H   0  0  0  0  0  0  0  0  0  0  0  0
   -5.2666   -5.3700   -5.2701 H   0  0  0  0  0  0  0  0  0  0  0  0
   -6.0179   -5.4999   -6.9136 H   0  0  0  0  0  0  0  0  0  0  0  0
   -3.8987   -4.1137   -4.1587 H   0  0  0  0  0  0  0  0  0  0  0  0
   -5.7877    0.9089   -8.5258 H   0  0  0  0  0  0  0  0  0  0  0  0
   -6.9699    6.8687   -8.9603 H   0  0  0  0  0  0  0  0  0  0  0  0
   -5.5204    7.7686   -8.4608 H   0  0  0  0  0  0  0  0  0  0  0  0
   -7.5051    9.2145   -8.3749 H   0  0  0  0  0  0  0  0  0  0  0  0
   -6.7987    9.0149   -6.7331 H   0  0  0  0  0  0  0  0  0  0  0  0
   -8.3069    8.1253   -7.1938 H   0  0  0  0  0  0  0  0  0  0  0  0
   -7.1251    4.6425   -5.8822 H   0  0  0  0  0  0  0  0  0  0  0  0
   -7.9579    6.2009   -5.7771 H   0  0  0  0  0  0  0  0  0  0  0  0
   -9.0153    5.9636   -7.9237 H   0  0  0  0  0  0  0  0  0  0  0  0
   -7.9230    4.6301   -8.4346 H   0  0  0  0  0  0  0  0  0  0  0  0
   -9.1411    4.3597   -7.1321 H   0  0  0  0  0  0  0  0  0  0  0  0
   -6.2084    3.3576   -7.7081 H   0  0  0  0  0  0  0  0  0  0  0  0
   -4.0510    8.1418   -3.8472 H   0  0  0  0  0  0  0  0  0  0  0  0
   -2.2540    6.4696   -2.4469 H   0  0  0  0  0  0  0  0  0  0  0  0
   -5.0853    5.2923    1.0281 H   0  0  0  0  0  0  0  0  0  0  0  0
   -5.3797    3.7330    0.1905 H   0  0  0  0  0  0  0  0  0  0  0  0
   -5.7571    3.5733    2.6630 H   0  0  0  0  0  0  0  0  0  0  0  0
   -4.0463    4.0600    2.9593 H   0  0  0  0  0  0  0  0  0  0  0  0
   -4.4200    2.4884    2.1320 H   0  0  0  0  0  0  0  0  0  0  0  0
    6.3069   10.7513   -4.9705 H   0  0  0  0  0  0  0  0  0  0  0  0
    5.2835   11.7017   -3.8401 H   0  0  0  0  0  0  0  0  0  0  0  0
    7.6584    9.9147   -2.9929 H   0  0  0  0  0  0  0  0  0  0  0  0
    7.7041   11.7096   -3.1741 H   0  0  0  0  0  0  0  0  0  0  0  0
    6.6557   10.9624   -1.9064 H   0  0  0  0  0  0  0  0  0  0  0  0
    4.6922    6.1144   -1.1443 H   0  0  0  0  0  0  0  0  0  0  0  0
    5.1057   -0.4887    0.1519 H   0  0  0  0  0  0  0  0  0  0  0  0
    4.1854   -0.2222    1.6566 H   0  0  0  0  0  0  0  0  0  0  0  0
    5.4077   -2.0826    2.7755 H   0  0  0  0  0  0  0  0  0  0  0  0
    4.6775   -2.6327    1.2282 H   0  0  0  0  0  0  0  0  0  0  0  0
    6.4426   -2.3053    1.3026 H   0  0  0  0  0  0  0  0  0  0  0  0
    6.8534   -0.4092    3.6280 H   0  0  0  0  0  0  0  0  0  0  0  0
    7.1941    1.3296    3.5047 H   0  0  0  0  0  0  0  0  0  0  0  0
    5.4153    0.9765    5.1139 H   0  0  0  0  0  0  0  0  0  0  0  0
    4.6988    1.8010    3.6922 H   0  0  0  0  0  0  0  0  0  0  0  0
    4.4397    0.0194    3.9539 H   0  0  0  0  0  0  0  0  0  0  0  0
    3.7921    2.0340    1.3014 H   0  0  0  0  0  0  0  0  0  0  0  0
   10.2602   -0.5659    0.6953 H   0  0  0  0  0  0  0  0  0  0  0  0
   11.7707    1.4447   -0.0520 H   0  0  0  0  0  0  0  0  0  0  0  0
  1  2  2  0
  2  3  1  0
  3  4  2  0
  4  5  1  0
  5  6  1  0
  6  7  1  0
  7  8  1  0
  8  9  1  0
  7 10  2  0
 10 11  1  0
 10 12  1  0
 12 13  1  0
  4 14  1  0
 14 15  2  0
 15 16  1  0
 16 17  1  0
 17 18  1  0
 18 19  1  0
 19 20  1  0
 20 21  1  0
 19 22  2  0
 22 23  1  0
 23 24  1  0
 22 25  1  0
 16 26  2  0
 26 27  1  0
 15 28  1  0
 28 29  2  0
 29 30  1  0
 29 31  1  0
 31 32  2  0
 32 33  1  0
 33 34  2  0
 34 35  1  0
 35 36  1  0
 36 37  1  0
 37 38  1  0
 38 39  1  0
 37 40  2  0
 40 41  1  0
 40 42  1  0
 42 43  1  0
 34 44  1  0
 44 45  2  0
 45 46  1  0
 46 47  1  0
 47 48  1  0
 48 49  1  0
 49 50  1  0
 50 51  1  0
 49 52  2  0
 52 53  1  0
 53 54  1  0
 52 55  1  0
 46 56  2  0
 56 57  1  0
 45 58  1  0
 58 59  2  0
 59 60  1  0
 59 61  1  0
 61 62  1  0
 62 63  1  0
 63 64  1  0
 64 65  2  0
 65 66  1  0
 66 67  1  0
 67 68  1  0
 68 69  1  0
 67 70  1  0
 70 71  1  0
 67 72  1  0
 72 73  1  0
 65 74  1  0
 74 75  2  0
 75 76  1  0
 75 77  1  0
 77 78  1  0
 78 79  1  0
 79 80  1  0
 80 81  2  0
 81 82  1  0
 82 83  1  0
 83 84  1  0
 84 85  1  0
 83 86  1  0
 86 87  1  0
 83 88  1  0
 88 89  1  0
 81 90  1  0
 90 91  2  0
 91 92  1  0
 91 93  1  0
 93 94  2  0
 94 95  1  0
 95 96  2  0
 96 97  1  0
 97 98  1  0
 98 99  1  0
 99100  1  0
100101  1  0
 99102  2  0
102103  1  0
102104  1  0
104105  1  0
 96106  1  0
106107  2  0
107108  1  0
108109  1  0
109110  1  0
110111  1  0
111112  1  0
112113  1  0
111114  2  0
114115  1  0
115116  1  0
114117  1  0
108118  2  0
118119  1  0
107120  1  0
120121  2  0
121122  1  0
121123  1  0
123124  1  0
124125  1  0
125126  1  0
126127  2  0
127128  1  0
128129  1  0
129130  1  0
130131  1  0
129132  1  0
132133  1  0
129134  1  0
134135  1  0
127136  1  0
136137  2  0
137138  1  0
 27  1  1  0
 57 31  1  0
 73 61  2  0
 89 77  2  0
119 93  1  0
135123  2  0
 26  3  1  0
 56 33  1  0
 72 63  2  0
 88 79  2  0
118 95  1  0
134125  2  0
 12  5  2  0
 30 14  1  0
 42 35  2  0
 60 44  1  0
 76 64  1  0
 92 80  1  0
104 97  2  0
122106  1  0
138126  1  0
 23 17  2  0
 53 47  2  0
115109  2  0
  1139  1  0
  2140  1  0
  8141  1  0
  8142  1  0
  9143  1  0
  9144  1  0
  9145  1  0
 20146  1  0
 20147  1  0
 21148  1  0
 21149  1  0
 21150  1  0
 28151  1  0
 32152  1  0
 38153  1  0
 38154  1  0
 39155  1  0
 39156  1  0
 39157  1  0
 50158  1  0
 50159  1  0
 51160  1  0
 51161  1  0
 51162  1  0
 58163  1  0
 68164  1  0
 68165  1  0
 69166  1  0
 69167  1  0
 69168  1  0
 70169  1  0
 70170  1  0
 71171  1  0
 71172  1  0
 71173  1  0
 73174  1  0
 74175  1  0
 84176  1  0
 84177  1  0
 85178  1  0
 85179  1  0
 85180  1  0
 86181  1  0
 86182  1  0
 87183  1  0
 87184  1  0
 87185  1  0
 89186  1  0
 90187  1  0
 94188  1  0
100189  1  0
100190  1  0
101191  1  0
101192  1  0
101193  1  0
112194  1  0
112195  1  0
113196  1  0
113197  1  0
113198  1  0
120199  1  0
130200  1  0
130201  1  0
131202  1  0
131203  1  0
131204  1  0
132205  1  0
132206  1  0
133207  1  0
133208  1  0
133209  1  0
135210  1  0
136211  1  0
137212  1  0
M  END

