
     RDKit          3D

258283  0  0  0  0  0  0  0  0999 V2000
    4.8460   -5.3694   11.6408 C   0  0  0  0  0  0  0  0  0  0  0  0
    3.2958   -5.5674   11.0101 S   0  0  0  0  0  0  0  0  0  0  0  0
    3.5009   -4.4463    9.7764 C   0  0  0  0  0  0  0  0  0  0  0  0
    2.5840   -4.0873    8.7185 C   0  0  0  0  0  0  0  0  0  0  0  0
    3.0146   -3.2702    7.7061 C   0  0  0  0  0  0  0  0  0  0  0  0
    4.3221   -2.7660    7.6947 O   0  0  0  0  0  0  0  0  0  0  0  0
    5.1998   -2.7899    8.8498 C   0  0  0  0  0  0  0  0  0  0  0  0
    6.6367   -3.0641    8.3303 C   0  0  0  0  0  0  0  0  0  0  0  0
    7.1247   -2.0463    7.2969 C   0  0  0  0  0  0  0  0  0  0  0  0
    5.0554   -1.4029    9.5434 C   0  0  0  0  0  0  0  0  0  0  0  0
    6.0385   -1.1135   10.6798 C   0  0  0  0  0  0  0  0  0  0  0  0
    4.7759   -3.9016    9.8246 C   0  0  0  0  0  0  0  0  0  0  0  0
    5.5333   -4.4231   10.8860 C   0  0  0  0  0  0  0  0  0  0  0  0
    2.0517   -3.0187    6.7342 C   0  0  0  0  0  0  0  0  0  0  0  0
    0.8385   -3.6528    7.0118 C   0  0  0  0  0  0  0  0  0  0  0  0
    0.9851   -4.5355    8.4535 S   0  0  0  0  0  0  0  0  0  0  0  0
   -0.4022   -3.4955    6.2405 C   0  0  0  0  0  0  0  0  0  0  0  0
   -0.5817   -2.6020    5.1876 C   0  0  0  0  0  0  0  0  0  0  0  0
   -1.8997   -2.5754    4.7054 C   0  0  0  0  0  0  0  0  0  0  0  0
   -2.3798   -1.7470    3.6745 C   0  0  0  0  0  0  0  0  0  0  0  0
   -1.4721   -0.9133    2.8521 C   0  0  0  0  0  0  0  0  0  0  0  0
   -0.4417   -1.5230    2.1227 C   0  0  0  0  0  0  0  0  0  0  0  0
    0.4150   -0.7502    1.3363 C   0  0  0  0  0  0  0  0  0  0  0  0
    0.2442    0.6369    1.2547 C   0  0  0  0  0  0  0  0  0  0  0  0
    1.3807    1.6151    0.2610 S   0  0  0  0  0  0  0  0  0  0  0  0
    0.5239    1.3167   -1.3287 C   0  0  0  0  0  0  0  0  0  0  0  0
   -0.5929    2.3287   -1.5483 C   0  0  0  0  0  0  0  0  0  0  0  0
   -0.7918    1.2504    1.9750 C   0  0  0  0  0  0  0  0  0  0  0  0
   -0.9612    2.5953    1.9145 F   0  0  0  0  0  0  0  0  0  0  0  0
   -1.6396    0.4808    2.7781 C   0  0  0  0  0  0  0  0  0  0  0  0
   -3.7499   -1.8159    3.4027 C   0  0  0  0  0  0  0  0  0  0  0  0
   -4.6120   -2.7106    4.0490 C   0  0  0  0  0  0  0  0  0  0  0  0
   -4.1267   -3.5637    5.0662 C   0  0  0  0  0  0  0  0  0  0  0  0
   -5.0109   -4.5168    5.7777 C   0  0  0  0  0  0  0  0  0  0  0  0
   -5.7316   -5.4889    5.0649 C   0  0  0  0  0  0  0  0  0  0  0  0
   -6.6343   -6.3288    5.7258 C   0  0  0  0  0  0  0  0  0  0  0  0
   -6.8129   -6.2165    7.1089 C   0  0  0  0  0  0  0  0  0  0  0  0
   -8.0280   -7.2467    7.9450 S   0  0  0  0  0  0  0  0  0  0  0  0
   -6.9063   -8.6648    8.2125 C   0  0  0  0  0  0  0  0  0  0  0  0
   -7.2586   -9.7949    7.2564 C   0  0  0  0  0  0  0  0  0  0  0  0
   -6.0688   -5.2767    7.8338 C   0  0  0  0  0  0  0  0  0  0  0  0
   -5.1798   -4.4260    7.1698 C   0  0  0  0  0  0  0  0  0  0  0  0
   -6.2272   -5.1590    9.1752 F   0  0  0  0  0  0  0  0  0  0  0  0
   -2.7567   -3.4484    5.3839 C   0  0  0  0  0  0  0  0  0  0  0  0
   -1.8746   -4.2647    6.5670 S   0  0  0  0  0  0  0  0  0  0  0  0
   -5.9281   -2.6548    3.5524 C   0  0  0  0  0  0  0  0  0  0  0  0
   -6.0794   -1.7120    2.5401 C   0  0  0  0  0  0  0  0  0  0  0  0
   -4.6012   -0.9697    2.2338 S   0  0  0  0  0  0  0  0  0  0  0  0
   -7.1919   -1.6170    1.6026 C   0  0  0  0  0  0  0  0  0  0  0  0
   -7.3470   -2.5600    0.5880 C   0  0  0  0  0  0  0  0  0  0  0  0
   -7.8418   -2.0168   -0.6082 C   0  0  0  0  0  0  0  0  0  0  0  0
   -7.8684   -2.6608   -1.8642 C   0  0  0  0  0  0  0  0  0  0  0  0
   -7.4868   -4.0804   -2.0190 C   0  0  0  0  0  0  0  0  0  0  0  0
   -6.1602   -4.4960   -1.8022 C   0  0  0  0  0  0  0  0  0  0  0  0
   -5.8226   -5.8544   -1.8882 C   0  0  0  0  0  0  0  0  0  0  0  0
   -6.8065   -6.8071   -2.1806 C   0  0  0  0  0  0  0  0  0  0  0  0
   -6.3954   -8.5584   -2.1936 S   0  0  0  0  0  0  0  0  0  0  0  0
   -6.0467   -8.6542   -3.9878 C   0  0  0  0  0  0  0  0  0  0  0  0
   -4.5803   -8.9880   -4.2152 C   0  0  0  0  0  0  0  0  0  0  0  0
   -8.1262   -6.3930   -2.4142 C   0  0  0  0  0  0  0  0  0  0  0  0
   -9.0900   -7.3025   -2.7038 F   0  0  0  0  0  0  0  0  0  0  0  0
   -8.4611   -5.0350   -2.3444 C   0  0  0  0  0  0  0  0  0  0  0  0
   -8.1298   -1.8511   -2.9858 C   0  0  0  0  0  0  0  0  0  0  0  0
   -8.3825   -0.4790   -2.8780 C   0  0  0  0  0  0  0  0  0  0  0  0
   -8.4264    0.1434   -1.6178 C   0  0  0  0  0  0  0  0  0  0  0  0
   -8.5922    1.5983   -1.4758 C   0  0  0  0  0  0  0  0  0  0  0  0
   -9.8694    2.1694   -1.5530 C   0  0  0  0  0  0  0  0  0  0  0  0
  -10.0336    3.5424   -1.3527 C   0  0  0  0  0  0  0  0  0  0  0  0
   -8.9282    4.3513   -1.0725 C   0  0  0  0  0  0  0  0  0  0  0  0
   -9.1525    6.1046   -0.7490 S   0  0  0  0  0  0  0  0  0  0  0  0
   -9.6172    5.8980    1.0089 C   0  0  0  0  0  0  0  0  0  0  0  0
   -8.4052    5.5834    1.8820 C   0  0  0  0  0  0  0  0  0  0  0  0
   -7.6447    3.7887   -1.0359 C   0  0  0  0  0  0  0  0  0  0  0  0
   -7.4776    2.4169   -1.2375 C   0  0  0  0  0  0  0  0  0  0  0  0
   -6.5598    4.5651   -0.7907 F   0  0  0  0  0  0  0  0  0  0  0  0
   -8.1270   -0.6512   -0.5052 C   0  0  0  0  0  0  0  0  0  0  0  0
   -7.7255   -0.1232    1.0335 S   0  0  0  0  0  0  0  0  0  0  0  0
   -8.3286    0.1980   -4.1057 C   0  0  0  0  0  0  0  0  0  0  0  0
   -8.0074   -0.6291   -5.1824 C   0  0  0  0  0  0  0  0  0  0  0  0
   -7.8316   -2.2098   -4.6048 S   0  0  0  0  0  0  0  0  0  0  0  0
   -7.3161   -0.1360   -6.3874 C   0  0  0  0  0  0  0  0  0  0  0  0
   -6.2801    1.1902   -6.3373 S   0  0  0  0  0  0  0  0  0  0  0  0
   -5.4289    0.7927   -7.7245 C   0  0  0  0  0  0  0  0  0  0  0  0
   -4.0694    1.2103   -8.0255 C   0  0  0  0  0  0  0  0  0  0  0  0
   -3.2710    0.3705   -8.7694 C   0  0  0  0  0  0  0  0  0  0  0  0
   -3.8077   -0.7145   -9.4741 O   0  0  0  0  0  0  0  0  0  0  0  0
   -5.2075   -1.0895   -9.4299 C   0  0  0  0  0  0  0  0  0  0  0  0
   -5.8809   -0.6918  -10.7738 C   0  0  0  0  0  0  0  0  0  0  0  0
   -5.8842    0.8152  -11.0503 C   0  0  0  0  0  0  0  0  0  0  0  0
   -5.2667   -2.6301   -9.2324 C   0  0  0  0  0  0  0  0  0  0  0  0
   -4.3914   -3.4267  -10.2053 C   0  0  0  0  0  0  0  0  0  0  0  0
   -5.9246   -0.3923   -8.2574 C   0  0  0  0  0  0  0  0  0  0  0  0
   -7.0013   -0.9083   -7.5045 C   0  0  0  0  0  0  0  0  0  0  0  0
   -1.9046    0.5974   -8.6131 C   0  0  0  0  0  0  0  0  0  0  0  0
   -1.6269    1.6018   -7.6850 C   0  0  0  0  0  0  0  0  0  0  0  0
   -3.0891    2.2106   -7.0936 S   0  0  0  0  0  0  0  0  0  0  0  0
   -0.3556    1.7401   -6.9722 C   0  0  0  0  0  0  0  0  0  0  0  0
    0.0356    2.8391   -6.2046 C   0  0  0  0  0  0  0  0  0  0  0  0
    1.1931    2.5839   -5.4408 C   0  0  0  0  0  0  0  0  0  0  0  0
    1.8603    3.4888   -4.5891 C   0  0  0  0  0  0  0  0  0  0  0  0
    1.4099    4.8927   -4.4143 C   0  0  0  0  0  0  0  0  0  0  0  0
    0.0878    5.1847   -4.0316 C   0  0  0  0  0  0  0  0  0  0  0  0
   -0.3488    6.5091   -3.9626 C   0  0  0  0  0  0  0  0  0  0  0  0
    0.5339    7.5586   -4.2396 C   0  0  0  0  0  0  0  0  0  0  0  0
   -0.0640    9.2554   -4.2784 S   0  0  0  0  0  0  0  0  0  0  0  0
   -0.0632    9.5037   -2.4681 C   0  0  0  0  0  0  0  0  0  0  0  0
   -1.4992    9.6353   -1.9767 C   0  0  0  0  0  0  0  0  0  0  0  0
    1.8660    7.2780   -4.5684 C   0  0  0  0  0  0  0  0  0  0  0  0
    2.7372    8.2844   -4.8402 F   0  0  0  0  0  0  0  0  0  0  0  0
    2.2961    5.9532   -4.6674 C   0  0  0  0  0  0  0  0  0  0  0  0
    3.0115    3.0066   -3.9380 C   0  0  0  0  0  0  0  0  0  0  0  0
    3.4907    1.6971   -4.0993 C   0  0  0  0  0  0  0  0  0  0  0  0
    2.8233    0.8019   -4.9562 C   0  0  0  0  0  0  0  0  0  0  0  0
    3.2850   -0.5824   -5.1762 C   0  0  0  0  0  0  0  0  0  0  0  0
    2.4710   -1.6609   -4.8016 C   0  0  0  0  0  0  0  0  0  0  0  0
    2.8470   -2.9670   -5.1192 C   0  0  0  0  0  0  0  0  0  0  0  0
    4.0421   -3.2142   -5.8082 C   0  0  0  0  0  0  0  0  0  0  0  0
    4.4827   -4.8924   -6.2733 S   0  0  0  0  0  0  0  0  0  0  0  0
    5.5749   -5.1825   -4.8392 C   0  0  0  0  0  0  0  0  0  0  0  0
    4.7739   -5.6280   -3.6219 C   0  0  0  0  0  0  0  0  0  0  0  0
    4.8688   -2.1379   -6.1618 C   0  0  0  0  0  0  0  0  0  0  0  0
    4.4974   -0.8284   -5.8389 C   0  0  0  0  0  0  0  0  0  0  0  0
    6.0231   -2.3563   -6.8435 F   0  0  0  0  0  0  0  0  0  0  0  0
    1.6823    1.2849   -5.6154 C   0  0  0  0  0  0  0  0  0  0  0  0
    0.7161    0.4647   -6.7171 S   0  0  0  0  0  0  0  0  0  0  0  0
    4.6208    1.4116   -3.3029 C   0  0  0  0  0  0  0  0  0  0  0  0
    5.0221    2.4999   -2.5264 C   0  0  0  0  0  0  0  0  0  0  0  0
    3.9788    3.7935   -2.8140 S   0  0  0  0  0  0  0  0  0  0  0  0
    6.0921    2.5239   -1.5182 C   0  0  0  0  0  0  0  0  0  0  0  0
    6.9227    1.4703   -1.1259 C   0  0  0  0  0  0  0  0  0  0  0  0
    7.7161    1.7967   -0.0065 C   0  0  0  0  0  0  0  0  0  0  0  0
    8.6462    0.9585    0.6459 C   0  0  0  0  0  0  0  0  0  0  0  0
    8.9511   -0.4122    0.1837 C   0  0  0  0  0  0  0  0  0  0  0  0
    7.9567   -1.4054    0.1704 C   0  0  0  0  0  0  0  0  0  0  0  0
    8.2834   -2.7241   -0.1702 C   0  0  0  0  0  0  0  0  0  0  0  0
    9.6042   -3.0606   -0.4889 C   0  0  0  0  0  0  0  0  0  0  0  0
   10.0404   -4.7748   -0.8268 S   0  0  0  0  0  0  0  0  0  0  0  0
    9.9890   -4.6080   -2.6459 C   0  0  0  0  0  0  0  0  0  0  0  0
    8.5646   -4.7270   -3.1629 C   0  0  0  0  0  0  0  0  0  0  0  0
   10.5968   -2.0705   -0.4829 C   0  0  0  0  0  0  0  0  0  0  0  0
   11.8813   -2.3813   -0.7860 F   0  0  0  0  0  0  0  0  0  0  0  0
   10.2684   -0.7529   -0.1585 C   0  0  0  0  0  0  0  0  0  0  0  0
    9.2799    1.4811    1.7906 C   0  0  0  0  0  0  0  0  0  0  0  0
    9.0240    2.7662    2.2823 C   0  0  0  0  0  0  0  0  0  0  0  0
    8.1244    3.6240    1.6052 C   0  0  0  0  0  0  0  0  0  0  0  0
    7.8272    4.9963    2.0714 C   0  0  0  0  0  0  0  0  0  0  0  0
    6.4992    5.4130    2.2555 C   0  0  0  0  0  0  0  0  0  0  0  0
    6.2159    6.7386    2.5972 C   0  0  0  0  0  0  0  0  0  0  0  0
    7.2632    7.6520    2.7859 C   0  0  0  0  0  0  0  0  0  0  0  0
    6.8934    9.3613    3.2095 S   0  0  0  0  0  0  0  0  0  0  0  0
    6.5708    9.0355    4.9802 C   0  0  0  0  0  0  0  0  0  0  0  0
    7.8620    8.7515    5.7385 C   0  0  0  0  0  0  0  0  0  0  0  0
    8.5902    7.2377    2.6334 C   0  0  0  0  0  0  0  0  0  0  0  0
    8.8713    5.9178    2.2584 C   0  0  0  0  0  0  0  0  0  0  0  0
    9.6086    8.1100    2.8186 F   0  0  0  0  0  0  0  0  0  0  0  0
    7.4970    3.0974    0.4614 C   0  0  0  0  0  0  0  0  0  0  0  0
    6.3643    3.8461   -0.5192 S   0  0  0  0  0  0  0  0  0  0  0  0
    9.6989    3.0404    3.4850 C   0  0  0  0  0  0  0  0  0  0  0  0
   10.4946    1.9871    3.9217 C   0  0  0  0  0  0  0  0  0  0  0  0
   10.3473    0.7090    2.8389 S   0  0  0  0  0  0  0  0  0  0  0  0
    5.2457   -5.8920   12.5008 H   0  0  0  0  0  0  0  0  0  0  0  0
    6.6511   -4.0683    7.8500 H   0  0  0  0  0  0  0  0  0  0  0  0
    7.3714   -3.0962    9.1620 H   0  0  0  0  0  0  0  0  0  0  0  0
    8.1170   -2.3599    6.9014 H   0  0  0  0  0  0  0  0  0  0  0  0
    7.2417   -1.0407    7.7527 H   0  0  0  0  0  0  0  0  0  0  0  0
    6.4145   -1.9801    6.4428 H   0  0  0  0  0  0  0  0  0  0  0  0
    4.0259   -1.3148    9.9494 H   0  0  0  0  0  0  0  0  0  0  0  0
    5.1526   -0.5948    8.7854 H   0  0  0  0  0  0  0  0  0  0  0  0
    7.0869   -1.1325   10.3162 H   0  0  0  0  0  0  0  0  0  0  0  0
    5.9083   -1.8284   11.5148 H   0  0  0  0  0  0  0  0  0  0  0  0
    5.8384   -0.0946   11.0787 H   0  0  0  0  0  0  0  0  0  0  0  0
    6.5452   -4.1219   11.1107 H   0  0  0  0  0  0  0  0  0  0  0  0
    2.2360   -2.3858    5.8757 H   0  0  0  0  0  0  0  0  0  0  0  0
    0.2059   -1.9653    4.8062 H   0  0  0  0  0  0  0  0  0  0  0  0
   -0.3052   -2.5967    2.1596 H   0  0  0  0  0  0  0  0  0  0  0  0
    1.2092   -1.2349    0.7828 H   0  0  0  0  0  0  0  0  0  0  0  0
    1.2714    1.4376   -2.1387 H   0  0  0  0  0  0  0  0  0  0  0  0
    0.1221    0.2833   -1.3823 H   0  0  0  0  0  0  0  0  0  0  0  0
   -0.1811    3.3564   -1.4875 H   0  0  0  0  0  0  0  0  0  0  0  0
   -1.0318    2.1807   -2.5598 H   0  0  0  0  0  0  0  0  0  0  0  0
   -1.3944    2.1989   -0.7916 H   0  0  0  0  0  0  0  0  0  0  0  0
   -2.4304    0.9667    3.3303 H   0  0  0  0  0  0  0  0  0  0  0  0
   -5.6058   -5.5842    3.9923 H   0  0  0  0  0  0  0  0  0  0  0  0
   -7.2010   -7.0549    5.1624 H   0  0  0  0  0  0  0  0  0  0  0  0
   -7.0366   -9.0206    9.2572 H   0  0  0  0  0  0  0  0  0  0  0  0
   -5.8392   -8.3773    8.0787 H   0  0  0  0  0  0  0  0  0  0  0  0
   -7.1619   -9.4578    6.2037 H   0  0  0  0  0  0  0  0  0  0  0  0
   -8.3015  -10.1334    7.4369 H   0  0  0  0  0  0  0  0  0  0  0  0
   -6.5692  -10.6492    7.4217 H   0  0  0  0  0  0  0  0  0  0  0  0
   -4.6402   -3.6802    7.7412 H   0  0  0  0  0  0  0  0  0  0  0  0
   -6.7447   -3.2859    3.8786 H   0  0  0  0  0  0  0  0  0  0  0  0
   -6.9455   -3.5609    0.6731 H   0  0  0  0  0  0  0  0  0  0  0  0
   -5.3894   -3.7746   -1.5558 H   0  0  0  0  0  0  0  0  0  0  0  0
   -4.8004   -6.1684   -1.7110 H   0  0  0  0  0  0  0  0  0  0  0  0
   -6.6759   -9.4612   -4.4195 H   0  0  0  0  0  0  0  0  0  0  0  0
   -6.2967   -7.7114   -4.5201 H   0  0  0  0  0  0  0  0  0  0  0  0
   -4.3181   -9.9371   -3.6972 H   0  0  0  0  0  0  0  0  0  0  0  0
   -3.9420   -8.1676   -3.8272 H   0  0  0  0  0  0  0  0  0  0  0  0
   -4.3899   -9.1112   -5.3025 H   0  0  0  0  0  0  0  0  0  0  0  0
   -9.4885   -4.7303   -2.5149 H   0  0  0  0  0  0  0  0  0  0  0  0
  -10.7366    1.5451   -1.7420 H   0  0  0  0  0  0  0  0  0  0  0  0
  -11.0257    3.9708   -1.3904 H   0  0  0  0  0  0  0  0  0  0  0  0
  -10.0737    6.8472    1.3555 H   0  0  0  0  0  0  0  0  0  0  0  0
  -10.3787    5.0980    1.1163 H   0  0  0  0  0  0  0  0  0  0  0  0
   -8.7154    5.5658    2.9461 H   0  0  0  0  0  0  0  0  0  0  0  0
   -7.6163    6.3555    1.7545 H   0  0  0  0  0  0  0  0  0  0  0  0
   -7.9909    4.5843    1.6308 H   0  0  0  0  0  0  0  0  0  0  0  0
   -6.4840    1.9856   -1.1917 H   0  0  0  0  0  0  0  0  0  0  0  0
   -8.3596    1.2774   -4.1879 H   0  0  0  0  0  0  0  0  0  0  0  0
   -5.3401   -1.1729  -11.6147 H   0  0  0  0  0  0  0  0  0  0  0  0
   -6.9281   -1.0570  -10.7959 H   0  0  0  0  0  0  0  0  0  0  0  0
   -6.5210    1.3513  -10.3171 H   0  0  0  0  0  0  0  0  0  0  0  0
   -6.3044    1.0016  -12.0617 H   0  0  0  0  0  0  0  0  0  0  0  0
   -4.8519    1.2206  -11.0225 H   0  0  0  0  0  0  0  0  0  0  0  0
   -6.3159   -2.9859   -9.3355 H   0  0  0  0  0  0  0  0  0  0  0  0
   -4.9271   -2.8746   -8.1988 H   0  0  0  0  0  0  0  0  0  0  0  0
   -3.3374   -3.0779  -10.1655 H   0  0  0  0  0  0  0  0  0  0  0  0
   -4.4016   -4.4951   -9.9121 H   0  0  0  0  0  0  0  0  0  0  0  0
   -4.7740   -3.3502  -11.2411 H   0  0  0  0  0  0  0  0  0  0  0  0
   -7.4582   -1.8699   -7.6886 H   0  0  0  0  0  0  0  0  0  0  0  0
   -1.1457   -0.0349   -9.0524 H   0  0  0  0  0  0  0  0  0  0  0  0
   -0.5112    3.7730   -6.1992 H   0  0  0  0  0  0  0  0  0  0  0  0
   -0.6092    4.3849   -3.8257 H   0  0  0  0  0  0  0  0  0  0  0  0
   -1.3798    6.7212   -3.6977 H   0  0  0  0  0  0  0  0  0  0  0  0
    0.4414    8.6677   -1.9347 H   0  0  0  0  0  0  0  0  0  0  0  0
    0.4836   10.4426   -2.2432 H   0  0  0  0  0  0  0  0  0  0  0  0
   -1.9862   10.5116   -2.4552 H   0  0  0  0  0  0  0  0  0  0  0  0
   -2.0736    8.7187   -2.2295 H   0  0  0  0  0  0  0  0  0  0  0  0
   -1.5134    9.7740   -0.8742 H   0  0  0  0  0  0  0  0  0  0  0  0
    3.3154    5.7551   -4.9763 H   0  0  0  0  0  0  0  0  0  0  0  0
    1.5331   -1.4845   -4.2840 H   0  0  0  0  0  0  0  0  0  0  0  0
    2.1977   -3.7880   -4.8530 H   0  0  0  0  0  0  0  0  0  0  0  0
    6.2955   -5.9799   -5.1055 H   0  0  0  0  0  0  0  0  0  0  0  0
    6.1487   -4.2636   -4.5986 H   0  0  0  0  0  0  0  0  0  0  0  0
    4.1240   -4.8016   -3.2627 H   0  0  0  0  0  0  0  0  0  0  0  0
    4.1421   -6.5067   -3.8748 H   0  0  0  0  0  0  0  0  0  0  0  0
    5.4677   -5.9133   -2.8038 H   0  0  0  0  0  0  0  0  0  0  0  0
    5.1313   -0.0067   -6.1348 H   0  0  0  0  0  0  0  0  0  0  0  0
    5.1035    0.4420   -3.2703 H   0  0  0  0  0  0  0  0  0  0  0  0
    6.9259    0.5058   -1.6153 H   0  0  0  0  0  0  0  0  0  0  0  0
    6.9377   -1.1633    0.4509 H   0  0  0  0  0  0  0  0  0  0  0  0
    7.5177   -3.4888   -0.1596 H   0  0  0  0  0  0  0  0  0  0  0  0
   10.4311   -3.6425   -2.9701 H   0  0  0  0  0  0  0  0  0  0  0  0
   10.5959   -5.4282   -3.0786 H   0  0  0  0  0  0  0  0  0  0  0  0
    8.5682   -4.6692   -4.2714 H   0  0  0  0  0  0  0  0  0  0  0  0
    8.1236   -5.6980   -2.8540 H   0  0  0  0  0  0  0  0  0  0  0  0
    7.9395   -3.9005   -2.7674 H   0  0  0  0  0  0  0  0  0  0  0  0
   11.0435    0.0002   -0.1519 H   0  0  0  0  0  0  0  0  0  0  0  0
    5.6778    4.7229    2.1244 H   0  0  0  0  0  0  0  0  0  0  0  0
    5.1881    7.0570    2.7031 H   0  0  0  0  0  0  0  0  0  0  0  0
    6.0899    9.9367    5.4143 H   0  0  0  0  0  0  0  0  0  0  0  0
    5.8663    8.1851    5.1015 H   0  0  0  0  0  0  0  0  0  0  0  0
    8.2752    7.7642    5.4450 H   0  0  0  0  0  0  0  0  0  0  0  0
    7.6586    8.7312    6.8299 H   0  0  0  0  0  0  0  0  0  0  0  0
    8.6156    9.5381    5.5269 H   0  0  0  0  0  0  0  0  0  0  0  0
    9.9002    5.6249    2.1021 H   0  0  0  0  0  0  0  0  0  0  0  0
    9.6024    3.9639    4.0447 H   0  0  0  0  0  0  0  0  0  0  0  0
   11.0920    1.9857    4.8227 H   0  0  0  0  0  0  0  0  0  0  0  0
  1  2  1  0
  2  3  1  0
  3  4  1  0
  4  5  2  0
  5  6  1  0
  6  7  1  0
  7  8  1  0
  8  9  1  0
  7 10  1  0
 10 11  1  0
  7 12  1  0
 12 13  1  0
  5 14  1  0
 14 15  2  0
 15 16  1  0
 15 17  1  0
 17 18  2  0
 18 19  1  0
 19 20  2  0
 20 21  1  0
 21 22  2  0
 22 23  1  0
 23 24  2  0
 24 25  1  0
 25 26  1  0
 26 27  1  0
 24 28  1  0
 28 29  1  0
 28 30  2  0
 20 31  1  0
 31 32  2  0
 32 33  1  0
 33 34  1  0
 34 35  2  0
 35 36  1  0
 36 37  2  0
 37 38  1  0
 38 39  1  0
 39 40  1  0
 37 41  1  0
 41 42  2  0
 41 43  1  0
 33 44  2  0
 44 45  1  0
 32 46  1  0
 46 47  2  0
 47 48  1  0
 47 49  1  0
 49 50  2  0
 50 51  1  0
 51 52  2  0
 52 53  1  0
 53 54  2  0
 54 55  1  0
 55 56  2  0
 56 57  1  0
 57 58  1  0
 58 59  1  0
 56 60  1  0
 60 61  1  0
 60 62  2  0
 52 63  1  0
 63 64  2  0
 64 65  1  0
 65 66  1  0
 66 67  2  0
 67 68  1  0
 68 69  2  0
 69 70  1  0
 70 71  1  0
 71 72  1  0
 69 73  1  0
 73 74  2  0
 73 75  1  0
 65 76  2  0
 76 77  1  0
 64 78  1  0
 78 79  2  0
 79 80  1  0
 79 81  1  0
 81 82  1  0
 82 83  1  0
 83 84  1  0
 84 85  2  0
 85 86  1  0
 86 87  1  0
 87 88  1  0
 88 89  1  0
 87 90  1  0
 90 91  1  0
 87 92  1  0
 92 93  1  0
 85 94  1  0
 94 95  2  0
 95 96  1  0
 95 97  1  0
 97 98  2  0
 98 99  1  0
 99100  2  0
100101  1  0
101102  2  0
102103  1  0
103104  2  0
104105  1  0
105106  1  0
106107  1  0
104108  1  0
108109  1  0
108110  2  0
100111  1  0
111112  2  0
112113  1  0
113114  1  0
114115  2  0
115116  1  0
116117  2  0
117118  1  0
118119  1  0
119120  1  0
117121  1  0
121122  2  0
121123  1  0
113124  2  0
124125  1  0
112126  1  0
126127  2  0
127128  1  0
127129  1  0
129130  2  0
130131  1  0
131132  2  0
132133  1  0
133134  2  0
134135  1  0
135136  2  0
136137  1  0
137138  1  0
138139  1  0
136140  1  0
140141  1  0
140142  2  0
132143  1  0
143144  2  0
144145  1  0
145146  1  0
146147  2  0
147148  1  0
148149  2  0
149150  1  0
150151  1  0
151152  1  0
149153  1  0
153154  2  0
153155  1  0
145156  2  0
156157  1  0
144158  1  0
158159  2  0
159160  1  0
 13  1  2  0
 45 17  1  0
 77 49  1  0
 93 81  2  0
125 97  1  0
157129  1  0
 12  3  2  0
 44 19  1  0
 76 51  1  0
 92 83  2  0
124 99  1  0
156131  1  0
 16  4  1  0
 30 21  1  0
 48 31  1  0
 62 53  1  0
 80 63  1  0
 96 84  1  0
110101  1  0
128111  1  0
142133  1  0
160143  1  0
 42 34  1  0
 74 66  1  0
122114  1  0
154146  1  0
  1161  1  0
  8162  1  0
  8163  1  0
  9164  1  0
  9165  1  0
  9166  1  0
 10167  1  0
 10168  1  0
 11169  1  0
 11170  1  0
 11171  1  0
 13172  1  0
 14173  1  0
 18174  1  0
 22175  1  0
 23176  1  0
 26177  1  0
 26178  1  0
 27179  1  0
 27180  1  0
 27181  1  0
 30182  1  0
 35183  1  0
 36184  1  0
 39185  1  0
 39186  1  0
 40187  1  0
 40188  1  0
 40189  1  0
 42190  1  0
 46191  1  0
 50192  1  0
 54193  1  0
 55194  1  0
 58195  1  0
 58196  1  0
 59197  1  0
 59198  1  0
 59199  1  0
 62200  1  0
 67201  1  0
 68202  1  0
 71203  1  0
 71204  1  0
 72205  1  0
 72206  1  0
 72207  1  0
 74208  1  0
 78209  1  0
 88210  1  0
 88211  1  0
 89212  1  0
 89213  1  0
 89214  1  0
 90215  1  0
 90216  1  0
 91217  1  0
 91218  1  0
 91219  1  0
 93220  1  0
 94221  1  0
 98222  1  0
102223  1  0
103224  1  0
106225  1  0
106226  1  0
107227  1  0
107228  1  0
107229  1  0
110230  1  0
115231  1  0
116232  1  0
119233  1  0
119234  1  0
120235  1  0
120236  1  0
120237  1  0
122238  1  0
126239  1  0
130240  1  0
134241  1  0
135242  1  0
138243  1  0
138244  1  0
139245  1  0
139246  1  0
139247  1  0
142248  1  0
147249  1  0
148250  1  0
151251  1  0
151252  1  0
152253  1  0
152254  1  0
152255  1  0
154256  1  0
158257  1  0
159258  1  0
M  END

