
     RDKit          3D

146163  0  0  0  0  0  0  0  0999 V2000
   12.1744    5.4666    6.3078 C   0  0  0  0  0  0  0  0  0  0  0  0
   10.6710    6.2270    6.6374 S   0  0  0  0  0  0  0  0  0  0  0  0
    9.8789    4.7631    6.7639 C   0  0  0  0  0  0  0  0  0  0  0  0
    8.6472    4.2236    7.0011 C   0  0  0  0  0  0  0  0  0  0  0  0
    8.8019    2.8795    6.9353 C   0  0  0  0  0  0  0  0  0  0  0  0
   10.0858    2.5218    6.6744 N   0  0  0  0  0  0  0  0  0  0  0  0
   10.6274    1.1779    6.4781 C   0  0  0  0  0  0  0  0  0  0  0  0
   10.4268    0.7297    5.0360 C   0  0  0  0  0  0  0  0  0  0  0  0
   10.7187    3.7185    6.5641 C   0  0  0  0  0  0  0  0  0  0  0  0
   12.0363    4.0685    6.3000 C   0  0  0  0  0  0  0  0  0  0  0  0
    7.6450    2.1412    7.1453 C   0  0  0  0  0  0  0  0  0  0  0  0
    6.5592    3.0065    7.3909 C   0  0  0  0  0  0  0  0  0  0  0  0
    7.0664    4.6479    7.3328 S   0  0  0  0  0  0  0  0  0  0  0  0
    5.1795    2.5791    7.6751 C   0  0  0  0  0  0  0  0  0  0  0  0
    3.8772    3.6595    7.9654 S   0  0  0  0  0  0  0  0  0  0  0  0
    2.7818    2.4132    8.1596 C   0  0  0  0  0  0  0  0  0  0  0  0
    1.4328    2.2035    8.1265 C   0  0  0  0  0  0  0  0  0  0  0  0
    1.2611    0.8768    7.8936 C   0  0  0  0  0  0  0  0  0  0  0  0
    2.4428    0.2145    7.7954 N   0  0  0  0  0  0  0  0  0  0  0  0
    2.6664   -1.1507    7.3189 C   0  0  0  0  0  0  0  0  0  0  0  0
    2.6725   -1.1924    5.7950 C   0  0  0  0  0  0  0  0  0  0  0  0
    3.3621    1.2028    7.9528 C   0  0  0  0  0  0  0  0  0  0  0  0
    4.7248    1.2464    7.6726 C   0  0  0  0  0  0  0  0  0  0  0  0
   -0.0271    0.5130    7.5178 C   0  0  0  0  0  0  0  0  0  0  0  0
   -0.8647    1.6423    7.4897 C   0  0  0  0  0  0  0  0  0  0  0  0
    0.0221    3.0621    7.8658 S   0  0  0  0  0  0  0  0  0  0  0  0
   -2.2622    1.6338    7.0363 C   0  0  0  0  0  0  0  0  0  0  0  0
   -2.9638    0.4020    6.1193 S   0  0  0  0  0  0  0  0  0  0  0  0
   -4.4346    1.1813    5.9398 C   0  0  0  0  0  0  0  0  0  0  0  0
   -5.5262    0.8339    5.0491 C   0  0  0  0  0  0  0  0  0  0  0  0
   -6.4543    1.7966    4.7304 C   0  0  0  0  0  0  0  0  0  0  0  0
   -6.4469    3.0413    5.3765 O   0  0  0  0  0  0  0  0  0  0  0  0
   -5.6887    3.2924    6.5874 C   0  0  0  0  0  0  0  0  0  0  0  0
   -6.5680    2.8379    7.7879 C   0  0  0  0  0  0  0  0  0  0  0  0
   -7.9929    3.4024    7.7586 C   0  0  0  0  0  0  0  0  0  0  0  0
   -5.3629    4.8193    6.6065 C   0  0  0  0  0  0  0  0  0  0  0  0
   -5.1278    5.4672    7.9819 C   0  0  0  0  0  0  0  0  0  0  0  0
   -4.4136    2.4204    6.5734 C   0  0  0  0  0  0  0  0  0  0  0  0
   -3.1781    2.6733    7.1975 C   0  0  0  0  0  0  0  0  0  0  0  0
   -7.2985    1.4441    3.6781 C   0  0  0  0  0  0  0  0  0  0  0  0
   -7.0077    0.1774    3.1681 C   0  0  0  0  0  0  0  0  0  0  0  0
   -5.6971   -0.4786    4.0202 S   0  0  0  0  0  0  0  0  0  0  0  0
   -7.5740   -0.3958    1.9390 C   0  0  0  0  0  0  0  0  0  0  0  0
   -7.3585   -2.0144    1.4403 S   0  0  0  0  0  0  0  0  0  0  0  0
   -8.0139   -1.7458   -0.0774 C   0  0  0  0  0  0  0  0  0  0  0  0
   -7.7433   -2.2481   -1.3202 C   0  0  0  0  0  0  0  0  0  0  0  0
   -7.8322   -1.2002   -2.1874 C   0  0  0  0  0  0  0  0  0  0  0  0
   -8.1953   -0.0511   -1.5593 N   0  0  0  0  0  0  0  0  0  0  0  0
   -8.0424    1.3124   -2.0754 C   0  0  0  0  0  0  0  0  0  0  0  0
   -6.6041    1.8001   -1.9182 C   0  0  0  0  0  0  0  0  0  0  0  0
   -8.2871   -0.4185   -0.2529 C   0  0  0  0  0  0  0  0  0  0  0  0
   -8.0873    0.3679    0.8812 C   0  0  0  0  0  0  0  0  0  0  0  0
   -7.1147   -1.3673   -3.3737 C   0  0  0  0  0  0  0  0  0  0  0  0
   -6.4702   -2.6120   -3.3915 C   0  0  0  0  0  0  0  0  0  0  0  0
   -6.7258   -3.4331   -1.9178 S   0  0  0  0  0  0  0  0  0  0  0  0
   -5.4994   -3.0437   -4.4009 C   0  0  0  0  0  0  0  0  0  0  0  0
   -4.4187   -2.0193   -5.1983 S   0  0  0  0  0  0  0  0  0  0  0  0
   -3.6066   -3.2650   -5.9789 C   0  0  0  0  0  0  0  0  0  0  0  0
   -2.4004   -3.2017   -6.7820 C   0  0  0  0  0  0  0  0  0  0  0  0
   -1.7510   -4.3675   -7.1157 C   0  0  0  0  0  0  0  0  0  0  0  0
   -2.2942   -5.6198   -6.7845 O   0  0  0  0  0  0  0  0  0  0  0  0
   -3.6411   -5.7892   -6.2769 C   0  0  0  0  0  0  0  0  0  0  0  0
   -3.6344   -6.9661   -5.2647 C   0  0  0  0  0  0  0  0  0  0  0  0
   -2.7748   -6.6898   -4.0270 C   0  0  0  0  0  0  0  0  0  0  0  0
   -4.5825   -6.0941   -7.4737 C   0  0  0  0  0  0  0  0  0  0  0  0
   -4.1406   -7.2777   -8.3373 C   0  0  0  0  0  0  0  0  0  0  0  0
   -4.1478   -4.4925   -5.6270 C   0  0  0  0  0  0  0  0  0  0  0  0
   -5.2295   -4.3673   -4.7417 C   0  0  0  0  0  0  0  0  0  0  0  0
   -0.5135   -4.1701   -7.7280 C   0  0  0  0  0  0  0  0  0  0  0  0
   -0.1999   -2.8152   -7.8645 C   0  0  0  0  0  0  0  0  0  0  0  0
   -1.4609   -1.8818   -7.2173 S   0  0  0  0  0  0  0  0  0  0  0  0
    1.0681   -2.2741   -8.3774 C   0  0  0  0  0  0  0  0  0  0  0  0
    1.3375   -0.6609   -8.7853 S   0  0  0  0  0  0  0  0  0  0  0  0
    2.9535   -0.8890   -9.1757 C   0  0  0  0  0  0  0  0  0  0  0  0
    3.9226    0.1081   -9.5686 C   0  0  0  0  0  0  0  0  0  0  0  0
    5.2430   -0.2362   -9.6585 C   0  0  0  0  0  0  0  0  0  0  0  0
    5.6680   -1.5469   -9.4084 O   0  0  0  0  0  0  0  0  0  0  0  0
    4.7832   -2.6851   -9.2386 C   0  0  0  0  0  0  0  0  0  0  0  0
    4.8931   -3.4864  -10.5729 C   0  0  0  0  0  0  0  0  0  0  0  0
    3.7504   -4.4556  -10.9012 C   0  0  0  0  0  0  0  0  0  0  0  0
    5.3615   -3.4490   -8.0019 C   0  0  0  0  0  0  0  0  0  0  0  0
    5.1008   -4.9550   -7.8862 C   0  0  0  0  0  0  0  0  0  0  0  0
    3.3325   -2.2092   -8.9747 C   0  0  0  0  0  0  0  0  0  0  0  0
    2.2516   -2.9932   -8.5355 C   0  0  0  0  0  0  0  0  0  0  0  0
    6.0817    0.8337   -9.9737 C   0  0  0  0  0  0  0  0  0  0  0  0
    5.3864    2.0320  -10.1292 C   0  0  0  0  0  0  0  0  0  0  0  0
    3.7395    1.7500   -9.8639 S   0  0  0  0  0  0  0  0  0  0  0  0
   13.1035    5.9927    6.1326 H   0  0  0  0  0  0  0  0  0  0  0  0
   11.7119    1.1643    6.7236 H   0  0  0  0  0  0  0  0  0  0  0  0
   10.1165    0.4658    7.1615 H   0  0  0  0  0  0  0  0  0  0  0  0
   11.0326    1.3640    4.3525 H   0  0  0  0  0  0  0  0  0  0  0  0
   10.7480   -0.3289    4.9258 H   0  0  0  0  0  0  0  0  0  0  0  0
    9.3548    0.8062    4.7562 H   0  0  0  0  0  0  0  0  0  0  0  0
   12.8405    3.3688    6.1174 H   0  0  0  0  0  0  0  0  0  0  0  0
    7.5978    1.0601    7.1289 H   0  0  0  0  0  0  0  0  0  0  0  0
    3.6369   -1.5291    7.7047 H   0  0  0  0  0  0  0  0  0  0  0  0
    1.8661   -1.8167    7.7050 H   0  0  0  0  0  0  0  0  0  0  0  0
    2.8653   -2.2306    5.4515 H   0  0  0  0  0  0  0  0  0  0  0  0
    3.4677   -0.5279    5.3961 H   0  0  0  0  0  0  0  0  0  0  0  0
    1.6887   -0.8632    5.4002 H   0  0  0  0  0  0  0  0  0  0  0  0
    5.3248    0.3810    7.4230 H   0  0  0  0  0  0  0  0  0  0  0  0
   -0.3197   -0.4860    7.2194 H   0  0  0  0  0  0  0  0  0  0  0  0
   -6.0848    3.0912    8.7531 H   0  0  0  0  0  0  0  0  0  0  0  0
   -6.6583    1.7283    7.7707 H   0  0  0  0  0  0  0  0  0  0  0  0
   -7.9951    4.5077    7.8559 H   0  0  0  0  0  0  0  0  0  0  0  0
   -8.5737    2.9739    8.6029 H   0  0  0  0  0  0  0  0  0  0  0  0
   -8.5086    3.1186    6.8190 H   0  0  0  0  0  0  0  0  0  0  0  0
   -6.2111    5.3670    6.1376 H   0  0  0  0  0  0  0  0  0  0  0  0
   -4.4777    5.0110    5.9597 H   0  0  0  0  0  0  0  0  0  0  0  0
   -4.3786    4.9315    8.5867 H   0  0  0  0  0  0  0  0  0  0  0  0
   -4.7769    6.5079    7.8307 H   0  0  0  0  0  0  0  0  0  0  0  0
   -6.0691    5.5214    8.5603 H   0  0  0  0  0  0  0  0  0  0  0  0
   -2.9330    3.5786    7.7247 H   0  0  0  0  0  0  0  0  0  0  0  0
   -8.0542    2.1059    3.2733 H   0  0  0  0  0  0  0  0  0  0  0  0
   -8.7275    1.9978   -1.5280 H   0  0  0  0  0  0  0  0  0  0  0  0
   -8.3279    1.3421   -3.1483 H   0  0  0  0  0  0  0  0  0  0  0  0
   -5.9101    1.1420   -2.4826 H   0  0  0  0  0  0  0  0  0  0  0  0
   -6.3081    1.8021   -0.8494 H   0  0  0  0  0  0  0  0  0  0  0  0
   -6.5151    2.8335   -2.3140 H   0  0  0  0  0  0  0  0  0  0  0  0
   -8.1363    1.4504    0.8844 H   0  0  0  0  0  0  0  0  0  0  0  0
   -6.9719   -0.5951   -4.1186 H   0  0  0  0  0  0  0  0  0  0  0  0
   -3.2205   -7.8727   -5.7530 H   0  0  0  0  0  0  0  0  0  0  0  0
   -4.6683   -7.2082   -4.9428 H   0  0  0  0  0  0  0  0  0  0  0  0
   -3.1907   -5.8523   -3.4303 H   0  0  0  0  0  0  0  0  0  0  0  0
   -1.7309   -6.4496   -4.3215 H   0  0  0  0  0  0  0  0  0  0  0  0
   -2.7603   -7.5946   -3.3819 H   0  0  0  0  0  0  0  0  0  0  0  0
   -5.6146   -6.2850   -7.1052 H   0  0  0  0  0  0  0  0  0  0  0  0
   -4.6284   -5.1973   -8.1335 H   0  0  0  0  0  0  0  0  0  0  0  0
   -3.0956   -7.1450   -8.6892 H   0  0  0  0  0  0  0  0  0  0  0  0
   -4.7997   -7.3463   -9.2269 H   0  0  0  0  0  0  0  0  0  0  0  0
   -4.2294   -8.2303   -7.7771 H   0  0  0  0  0  0  0  0  0  0  0  0
   -5.7947   -5.2069   -4.3575 H   0  0  0  0  0  0  0  0  0  0  0  0
    0.1328   -4.9819   -8.0328 H   0  0  0  0  0  0  0  0  0  0  0  0
    4.9414   -2.7626  -11.4158 H   0  0  0  0  0  0  0  0  0  0  0  0
    5.8572   -4.0417  -10.5951 H   0  0  0  0  0  0  0  0  0  0  0  0
    4.0152   -5.0340  -11.8131 H   0  0  0  0  0  0  0  0  0  0  0  0
    2.8140   -3.8969  -11.1185 H   0  0  0  0  0  0  0  0  0  0  0  0
    3.5636   -5.1782  -10.0858 H   0  0  0  0  0  0  0  0  0  0  0  0
    5.0067   -2.9558   -7.0705 H   0  0  0  0  0  0  0  0  0  0  0  0
    6.4685   -3.3296   -8.0036 H   0  0  0  0  0  0  0  0  0  0  0  0
    5.4855   -5.5023   -8.7696 H   0  0  0  0  0  0  0  0  0  0  0  0
    5.6503   -5.3403   -6.9984 H   0  0  0  0  0  0  0  0  0  0  0  0
    4.0337   -5.1822   -7.7239 H   0  0  0  0  0  0  0  0  0  0  0  0
    2.3123   -4.0470   -8.3332 H   0  0  0  0  0  0  0  0  0  0  0  0
    7.1548    0.7459  -10.0743 H   0  0  0  0  0  0  0  0  0  0  0  0
    5.8317    2.9877  -10.3703 H   0  0  0  0  0  0  0  0  0  0  0  0
  1  2  1  0
  2  3  1  0
  3  4  1  0
  4  5  2  0
  5  6  1  0
  6  7  1  0
  7  8  1  0
  6  9  1  0
  9 10  1  0
  5 11  1  0
 11 12  2  0
 12 13  1  0
 12 14  1  0
 14 15  1  0
 15 16  1  0
 16 17  1  0
 17 18  2  0
 18 19  1  0
 19 20  1  0
 20 21  1  0
 19 22  1  0
 22 23  1  0
 18 24  1  0
 24 25  2  0
 25 26  1  0
 25 27  1  0
 27 28  1  0
 28 29  1  0
 29 30  1  0
 30 31  2  0
 31 32  1  0
 32 33  1  0
 33 34  1  0
 34 35  1  0
 33 36  1  0
 36 37  1  0
 33 38  1  0
 38 39  1  0
 31 40  1  0
 40 41  2  0
 41 42  1  0
 41 43  1  0
 43 44  1  0
 44 45  1  0
 45 46  1  0
 46 47  2  0
 47 48  1  0
 48 49  1  0
 49 50  1  0
 48 51  1  0
 51 52  1  0
 47 53  1  0
 53 54  2  0
 54 55  1  0
 54 56  1  0
 56 57  1  0
 57 58  1  0
 58 59  1  0
 59 60  2  0
 60 61  1  0
 61 62  1  0
 62 63  1  0
 63 64  1  0
 62 65  1  0
 65 66  1  0
 62 67  1  0
 67 68  1  0
 60 69  1  0
 69 70  2  0
 70 71  1  0
 70 72  1  0
 72 73  1  0
 73 74  1  0
 74 75  1  0
 75 76  2  0
 76 77  1  0
 77 78  1  0
 78 79  1  0
 79 80  1  0
 78 81  1  0
 81 82  1  0
 78 83  1  0
 83 84  1  0
 76 85  1  0
 85 86  2  0
 86 87  1  0
 10  1  2  0
 23 14  2  0
 39 27  2  0
 52 43  2  0
 68 56  2  0
 84 72  2  0
  9  3  2  0
 22 16  2  0
 38 29  2  0
 51 45  2  0
 67 58  2  0
 83 74  2  0
 13  4  1  0
 26 17  1  0
 42 30  1  0
 55 46  1  0
 71 59  1  0
 87 75  1  0
  1 88  1  0
  7 89  1  0
  7 90  1  0
  8 91  1  0
  8 92  1  0
  8 93  1  0
 10 94  1  0
 11 95  1  0
 20 96  1  0
 20 97  1  0
 21 98  1  0
 21 99  1  0
 21100  1  0
 23101  1  0
 24102  1  0
 34103  1  0
 34104  1  0
 35105  1  0
 35106  1  0
 35107  1  0
 36108  1  0
 36109  1  0
 37110  1  0
 37111  1  0
 37112  1  0
 39113  1  0
 40114  1  0
 49115  1  0
 49116  1  0
 50117  1  0
 50118  1  0
 50119  1  0
 52120  1  0
 53121  1  0
 63122  1  0
 63123  1  0
 64124  1  0
 64125  1  0
 64126  1  0
 65127  1  0
 65128  1  0
 66129  1  0
 66130  1  0
 66131  1  0
 68132  1  0
 69133  1  0
 79134  1  0
 79135  1  0
 80136  1  0
 80137  1  0
 80138  1  0
 81139  1  0
 81140  1  0
 82141  1  0
 82142  1  0
 82143  1  0
 84144  1  0
 85145  1  0
 86146  1  0
M  END

