
     RDKit          3D

214235  0  0  0  0  0  0  0  0999 V2000
    7.7353   -2.4876    9.2725 C   0  0  0  0  0  0  0  0  0  0  0  0
    6.6439   -1.6271    9.2195 C   0  0  0  0  0  0  0  0  0  0  0  0
    5.4170   -2.2970    9.0781 C   0  0  0  0  0  0  0  0  0  0  0  0
    4.1428   -1.6991    8.9655 C   0  0  0  0  0  0  0  0  0  0  0  0
    3.9545   -0.2334    9.0013 C   0  0  0  0  0  0  0  0  0  0  0  0
    3.4233    0.4427    7.8921 C   0  0  0  0  0  0  0  0  0  0  0  0
    3.1720    1.8158    7.9577 C   0  0  0  0  0  0  0  0  0  0  0  0
    3.4663    2.5334    9.1257 C   0  0  0  0  0  0  0  0  0  0  0  0
    3.0648    4.2810    9.2285 S   0  0  0  0  0  0  0  0  0  0  0  0
    4.7158    4.8683    8.7089 C   0  0  0  0  0  0  0  0  0  0  0  0
    4.7845    4.9985    7.1931 C   0  0  0  0  0  0  0  0  0  0  0  0
    4.0184    1.8659   10.2277 C   0  0  0  0  0  0  0  0  0  0  0  0
    4.3092    2.5464   11.3659 F   0  0  0  0  0  0  0  0  0  0  0  0
    4.2618    0.4905   10.1657 C   0  0  0  0  0  0  0  0  0  0  0  0
    3.0471   -2.5707    8.8034 C   0  0  0  0  0  0  0  0  0  0  0  0
    3.1848   -3.9638    8.7574 C   0  0  0  0  0  0  0  0  0  0  0  0
    4.4615   -4.5553    8.8448 C   0  0  0  0  0  0  0  0  0  0  0  0
    4.6610   -6.0068    8.6737 C   0  0  0  0  0  0  0  0  0  0  0  0
    4.2151   -6.9082    9.6551 C   0  0  0  0  0  0  0  0  0  0  0  0
    4.3813   -8.2839    9.4690 C   0  0  0  0  0  0  0  0  0  0  0  0
    4.9908   -8.7686    8.3051 C   0  0  0  0  0  0  0  0  0  0  0  0
    5.1539  -10.5384    8.0500 S   0  0  0  0  0  0  0  0  0  0  0  0
    3.6210  -10.6998    7.0668 C   0  0  0  0  0  0  0  0  0  0  0  0
    2.4031  -10.8462    7.9697 C   0  0  0  0  0  0  0  0  0  0  0  0
    5.4555   -7.8715    7.3334 C   0  0  0  0  0  0  0  0  0  0  0  0
    5.2869   -6.4955    7.5162 C   0  0  0  0  0  0  0  0  0  0  0  0
    6.0505   -8.3277    6.2004 F   0  0  0  0  0  0  0  0  0  0  0  0
    5.5563   -3.6876    9.0103 C   0  0  0  0  0  0  0  0  0  0  0  0
    7.1883   -4.0769    9.1339 S   0  0  0  0  0  0  0  0  0  0  0  0
    1.9661   -4.6336    8.5439 C   0  0  0  0  0  0  0  0  0  0  0  0
    0.8862   -3.7625    8.4253 C   0  0  0  0  0  0  0  0  0  0  0  0
    1.4302   -2.1718    8.5638 S   0  0  0  0  0  0  0  0  0  0  0  0
   -0.4495   -4.1354    7.9571 C   0  0  0  0  0  0  0  0  0  0  0  0
   -1.0650   -3.6900    6.4530 S   0  0  0  0  0  0  0  0  0  0  0  0
   -2.5334   -4.4650    6.6780 C   0  0  0  0  0  0  0  0  0  0  0  0
   -3.6188   -4.6291    5.7340 C   0  0  0  0  0  0  0  0  0  0  0  0
   -4.6386   -5.5039    6.0207 C   0  0  0  0  0  0  0  0  0  0  0  0
   -4.7196   -6.1224    7.2801 O   0  0  0  0  0  0  0  0  0  0  0  0
   -3.8897   -5.7256    8.4049 C   0  0  0  0  0  0  0  0  0  0  0  0
   -4.6424   -4.6340    9.2127 C   0  0  0  0  0  0  0  0  0  0  0  0
   -6.0682   -5.0184    9.6177 C   0  0  0  0  0  0  0  0  0  0  0  0
   -3.6292   -6.9764    9.2844 C   0  0  0  0  0  0  0  0  0  0  0  0
   -2.8965   -8.0913    8.5332 C   0  0  0  0  0  0  0  0  0  0  0  0
   -2.5767   -5.0899    7.9146 C   0  0  0  0  0  0  0  0  0  0  0  0
   -1.3932   -4.8954    8.6527 C   0  0  0  0  0  0  0  0  0  0  0  0
   -5.4909   -5.7485    4.9389 C   0  0  0  0  0  0  0  0  0  0  0  0
   -5.1125   -5.0239    3.8030 C   0  0  0  0  0  0  0  0  0  0  0  0
   -3.7231   -4.1200    4.1461 S   0  0  0  0  0  0  0  0  0  0  0  0
   -5.6769   -5.1497    2.4534 C   0  0  0  0  0  0  0  0  0  0  0  0
   -5.4519   -4.0001    1.2404 S   0  0  0  0  0  0  0  0  0  0  0  0
   -6.0281   -4.9724    0.0072 C   0  0  0  0  0  0  0  0  0  0  0  0
   -5.9273   -4.7342   -1.4136 C   0  0  0  0  0  0  0  0  0  0  0  0
   -6.0304   -5.7885   -2.2877 C   0  0  0  0  0  0  0  0  0  0  0  0
   -6.4038   -7.0652   -1.8388 O   0  0  0  0  0  0  0  0  0  0  0  0
   -6.7603   -7.3663   -0.4620 C   0  0  0  0  0  0  0  0  0  0  0  0
   -8.3019   -7.5034   -0.3677 C   0  0  0  0  0  0  0  0  0  0  0  0
   -8.9089   -8.5141   -1.3455 C   0  0  0  0  0  0  0  0  0  0  0  0
   -6.0609   -8.6953   -0.0706 C   0  0  0  0  0  0  0  0  0  0  0  0
   -4.5306   -8.5969   -0.0772 C   0  0  0  0  0  0  0  0  0  0  0  0
   -6.3496   -6.2288    0.4921 C   0  0  0  0  0  0  0  0  0  0  0  0
   -6.2028   -6.3141    1.8916 C   0  0  0  0  0  0  0  0  0  0  0  0
   -5.6285   -5.4787   -3.5931 C   0  0  0  0  0  0  0  0  0  0  0  0
   -5.2131   -4.1499   -3.7114 C   0  0  0  0  0  0  0  0  0  0  0  0
   -5.3099   -3.3967   -2.2045 S   0  0  0  0  0  0  0  0  0  0  0  0
   -4.4491   -3.5711   -4.8135 C   0  0  0  0  0  0  0  0  0  0  0  0
   -3.0616   -3.6839   -4.8876 C   0  0  0  0  0  0  0  0  0  0  0  0
   -2.4498   -2.6135   -5.5627 C   0  0  0  0  0  0  0  0  0  0  0  0
   -1.0620   -2.3720   -5.6602 C   0  0  0  0  0  0  0  0  0  0  0  0
   -0.0582   -3.3040   -5.1053 C   0  0  0  0  0  0  0  0  0  0  0  0
   -0.0084   -3.5584   -3.7259 C   0  0  0  0  0  0  0  0  0  0  0  0
    0.9410   -4.4460   -3.2094 C   0  0  0  0  0  0  0  0  0  0  0  0
    1.8604   -5.0696   -4.0626 C   0  0  0  0  0  0  0  0  0  0  0  0
    3.0653   -6.2208   -3.3898 S   0  0  0  0  0  0  0  0  0  0  0  0
    4.2664   -4.9388   -2.8819 C   0  0  0  0  0  0  0  0  0  0  0  0
    5.1052   -4.4676   -4.0638 C   0  0  0  0  0  0  0  0  0  0  0  0
    1.8169   -4.8128   -5.4417 C   0  0  0  0  0  0  0  0  0  0  0  0
    2.6869   -5.4255   -6.2843 F   0  0  0  0  0  0  0  0  0  0  0  0
    0.8619   -3.9310   -5.9597 C   0  0  0  0  0  0  0  0  0  0  0  0
   -0.6692   -1.1481   -6.2270 C   0  0  0  0  0  0  0  0  0  0  0  0
   -1.5873   -0.2103   -6.7099 C   0  0  0  0  0  0  0  0  0  0  0  0
   -2.9736   -0.4736   -6.6629 C   0  0  0  0  0  0  0  0  0  0  0  0
   -3.9665    0.5051   -7.1554 C   0  0  0  0  0  0  0  0  0  0  0  0
   -4.9021    1.0792   -6.2802 C   0  0  0  0  0  0  0  0  0  0  0  0
   -5.8389    2.0003   -6.7548 C   0  0  0  0  0  0  0  0  0  0  0  0
   -5.8468    2.3633   -8.1077 C   0  0  0  0  0  0  0  0  0  0  0  0
   -7.0244    3.5892   -8.6946 S   0  0  0  0  0  0  0  0  0  0  0  0
   -8.2086    2.3808   -9.3876 C   0  0  0  0  0  0  0  0  0  0  0  0
   -9.0462    1.7286   -8.2952 C   0  0  0  0  0  0  0  0  0  0  0  0
   -4.9012    1.8082   -8.9801 C   0  0  0  0  0  0  0  0  0  0  0  0
   -3.9737    0.8743   -8.5110 C   0  0  0  0  0  0  0  0  0  0  0  0
   -4.9020    2.1482  -10.2963 F   0  0  0  0  0  0  0  0  0  0  0  0
   -3.3692   -1.6786   -6.0527 C   0  0  0  0  0  0  0  0  0  0  0  0
   -4.9185   -2.1610   -5.6084 S   0  0  0  0  0  0  0  0  0  0  0  0
   -0.9921    1.0136   -7.0641 C   0  0  0  0  0  0  0  0  0  0  0  0
    0.3859    1.0340   -6.8430 C   0  0  0  0  0  0  0  0  0  0  0  0
    0.8704   -0.4667   -6.2385 S   0  0  0  0  0  0  0  0  0  0  0  0
    1.2281    2.2408   -6.8636 C   0  0  0  0  0  0  0  0  0  0  0  0
    0.6551    3.8070   -7.1372 S   0  0  0  0  0  0  0  0  0  0  0  0
    2.0957    4.5596   -6.7210 C   0  0  0  0  0  0  0  0  0  0  0  0
    2.3934    5.9743   -6.6702 C   0  0  0  0  0  0  0  0  0  0  0  0
    3.6621    6.3871   -6.3499 C   0  0  0  0  0  0  0  0  0  0  0  0
    4.6733    5.4538   -6.0809 O   0  0  0  0  0  0  0  0  0  0  0  0
    4.4075    4.0626   -5.7707 C   0  0  0  0  0  0  0  0  0  0  0  0
    5.5453    3.2235   -6.4127 C   0  0  0  0  0  0  0  0  0  0  0  0
    6.9455    3.5833   -5.9079 C   0  0  0  0  0  0  0  0  0  0  0  0
    4.3673    3.9618   -4.2175 C   0  0  0  0  0  0  0  0  0  0  0  0
    4.2334    2.5524   -3.6335 C   0  0  0  0  0  0  0  0  0  0  0  0
    3.0507    3.6239   -6.3565 C   0  0  0  0  0  0  0  0  0  0  0  0
    2.5598    2.3063   -6.4458 C   0  0  0  0  0  0  0  0  0  0  0  0
    3.8133    7.7748   -6.3329 C   0  0  0  0  0  0  0  0  0  0  0  0
    2.6202    8.4383   -6.6370 C   0  0  0  0  0  0  0  0  0  0  0  0
    1.4031    7.2987   -6.9381 S   0  0  0  0  0  0  0  0  0  0  0  0
    2.4212    9.8961   -6.6359 C   0  0  0  0  0  0  0  0  0  0  0  0
    3.5631   11.0439   -6.1495 S   0  0  0  0  0  0  0  0  0  0  0  0
    2.5367   12.3582   -6.3483 C   0  0  0  0  0  0  0  0  0  0  0  0
    2.8140   13.7703   -6.1688 C   0  0  0  0  0  0  0  0  0  0  0  0
    1.8715   14.6966   -6.5382 C   0  0  0  0  0  0  0  0  0  0  0  0
    0.6305   14.3005   -7.0589 O   0  0  0  0  0  0  0  0  0  0  0  0
    0.1427   12.9368   -7.0151 C   0  0  0  0  0  0  0  0  0  0  0  0
   -0.8507   12.8767   -5.8205 C   0  0  0  0  0  0  0  0  0  0  0  0
   -1.5252   11.5235   -5.5692 C   0  0  0  0  0  0  0  0  0  0  0  0
   -0.5838   12.6643   -8.3598 C   0  0  0  0  0  0  0  0  0  0  0  0
    0.3263   12.8756   -9.5745 C   0  0  0  0  0  0  0  0  0  0  0  0
    1.2964   11.9393   -6.8022 C   0  0  0  0  0  0  0  0  0  0  0  0
    1.2317   10.5449   -6.9698 C   0  0  0  0  0  0  0  0  0  0  0  0
    2.2917   16.0174   -6.3776 C   0  0  0  0  0  0  0  0  0  0  0  0
    3.5879   16.1077   -5.8728 C   0  0  0  0  0  0  0  0  0  0  0  0
    4.2046   14.5470   -5.6407 S   0  0  0  0  0  0  0  0  0  0  0  0
    8.7672   -2.1838    9.3722 H   0  0  0  0  0  0  0  0  0  0  0  0
    6.7482   -0.5516    9.2706 H   0  0  0  0  0  0  0  0  0  0  0  0
    3.1854   -0.0981    6.9822 H   0  0  0  0  0  0  0  0  0  0  0  0
    2.7348    2.3219    7.1062 H   0  0  0  0  0  0  0  0  0  0  0  0
    5.5165    4.1904    9.0723 H   0  0  0  0  0  0  0  0  0  0  0  0
    4.8884    5.8696    9.1614 H   0  0  0  0  0  0  0  0  0  0  0  0
    3.9899    5.6891    6.8315 H   0  0  0  0  0  0  0  0  0  0  0  0
    4.6558    4.0080    6.7126 H   0  0  0  0  0  0  0  0  0  0  0  0
    5.7740    5.4071    6.8926 H   0  0  0  0  0  0  0  0  0  0  0  0
    4.6791   -0.0139   11.0275 H   0  0  0  0  0  0  0  0  0  0  0  0
    3.7355   -6.5461   10.5540 H   0  0  0  0  0  0  0  0  0  0  0  0
    4.0270   -8.9714   10.2262 H   0  0  0  0  0  0  0  0  0  0  0  0
    3.7084  -11.6078    6.4350 H   0  0  0  0  0  0  0  0  0  0  0  0
    3.4873   -9.8290    6.3905 H   0  0  0  0  0  0  0  0  0  0  0  0
    2.2517   -9.9243    8.5697 H   0  0  0  0  0  0  0  0  0  0  0  0
    2.5323  -11.7161    8.6514 H   0  0  0  0  0  0  0  0  0  0  0  0
    1.5007  -11.0125    7.3403 H   0  0  0  0  0  0  0  0  0  0  0  0
    5.6252   -5.8081    6.7492 H   0  0  0  0  0  0  0  0  0  0  0  0
    1.8766   -5.7066    8.4098 H   0  0  0  0  0  0  0  0  0  0  0  0
   -4.7132   -3.7116    8.5937 H   0  0  0  0  0  0  0  0  0  0  0  0
   -4.0662   -4.3713   10.1260 H   0  0  0  0  0  0  0  0  0  0  0  0
   -6.0590   -5.7963   10.4097 H   0  0  0  0  0  0  0  0  0  0  0  0
   -6.6499   -5.3779    8.7430 H   0  0  0  0  0  0  0  0  0  0  0  0
   -6.5831   -4.1244   10.0291 H   0  0  0  0  0  0  0  0  0  0  0  0
   -3.0447   -6.7024   10.1881 H   0  0  0  0  0  0  0  0  0  0  0  0
   -4.5969   -7.3964    9.6331 H   0  0  0  0  0  0  0  0  0  0  0  0
   -3.4684   -8.3914    7.6302 H   0  0  0  0  0  0  0  0  0  0  0  0
   -2.7974   -8.9765    9.1965 H   0  0  0  0  0  0  0  0  0  0  0  0
   -1.8813   -7.7613    8.2339 H   0  0  0  0  0  0  0  0  0  0  0  0
   -1.2358   -5.2645    9.6576 H   0  0  0  0  0  0  0  0  0  0  0  0
   -6.3228   -6.4400    4.9716 H   0  0  0  0  0  0  0  0  0  0  0  0
   -8.5939   -7.7899    0.6665 H   0  0  0  0  0  0  0  0  0  0  0  0
   -8.7647   -6.5134   -0.5800 H   0  0  0  0  0  0  0  0  0  0  0  0
  -10.0176   -8.4458   -1.2952 H   0  0  0  0  0  0  0  0  0  0  0  0
   -8.5976   -8.2985   -2.3881 H   0  0  0  0  0  0  0  0  0  0  0  0
   -8.6197   -9.5503   -1.0741 H   0  0  0  0  0  0  0  0  0  0  0  0
   -6.3381   -9.4890   -0.7967 H   0  0  0  0  0  0  0  0  0  0  0  0
   -6.4016   -9.0352    0.9317 H   0  0  0  0  0  0  0  0  0  0  0  0
   -4.1672   -8.2469   -1.0661 H   0  0  0  0  0  0  0  0  0  0  0  0
   -4.1750   -7.9021    0.7097 H   0  0  0  0  0  0  0  0  0  0  0  0
   -4.0957   -9.5983    0.1239 H   0  0  0  0  0  0  0  0  0  0  0  0
   -6.3759   -7.2218    2.4558 H   0  0  0  0  0  0  0  0  0  0  0  0
   -5.5664   -6.2053   -4.3924 H   0  0  0  0  0  0  0  0  0  0  0  0
   -2.5134   -4.4498   -4.3572 H   0  0  0  0  0  0  0  0  0  0  0  0
   -0.7014   -3.0711   -3.0521 H   0  0  0  0  0  0  0  0  0  0  0  0
    0.9660   -4.6438   -2.1448 H   0  0  0  0  0  0  0  0  0  0  0  0
    3.7448   -4.0762   -2.4177 H   0  0  0  0  0  0  0  0  0  0  0  0
    4.9406   -5.3804   -2.1173 H   0  0  0  0  0  0  0  0  0  0  0  0
    4.4663   -3.9583   -4.8134 H   0  0  0  0  0  0  0  0  0  0  0  0
    5.8747   -3.7492   -3.7078 H   0  0  0  0  0  0  0  0  0  0  0  0
    5.6169   -5.3324   -4.5384 H   0  0  0  0  0  0  0  0  0  0  0  0
    0.8343   -3.7424   -7.0269 H   0  0  0  0  0  0  0  0  0  0  0  0
   -4.8926    0.8259   -5.2253 H   0  0  0  0  0  0  0  0  0  0  0  0
   -6.5554    2.4348   -6.0679 H   0  0  0  0  0  0  0  0  0  0  0  0
   -7.6778    1.6016   -9.9768 H   0  0  0  0  0  0  0  0  0  0  0  0
   -8.8841    2.9234  -10.0823 H   0  0  0  0  0  0  0  0  0  0  0  0
   -8.4074    1.1247   -7.6186 H   0  0  0  0  0  0  0  0  0  0  0  0
   -9.5782    2.5089   -7.7056 H   0  0  0  0  0  0  0  0  0  0  0  0
   -9.7987    1.0584   -8.7688 H   0  0  0  0  0  0  0  0  0  0  0  0
   -3.2588    0.4384   -9.1998 H   0  0  0  0  0  0  0  0  0  0  0  0
   -1.5536    1.8816   -7.3872 H   0  0  0  0  0  0  0  0  0  0  0  0
    5.5277    3.3924   -7.5115 H   0  0  0  0  0  0  0  0  0  0  0  0
    5.3835    2.1363   -6.2588 H   0  0  0  0  0  0  0  0  0  0  0  0
    7.0664    3.2926   -4.8423 H   0  0  0  0  0  0  0  0  0  0  0  0
    7.1429    4.6702   -6.0262 H   0  0  0  0  0  0  0  0  0  0  0  0
    7.7035    3.0233   -6.5006 H   0  0  0  0  0  0  0  0  0  0  0  0
    3.5126    4.5714   -3.8445 H   0  0  0  0  0  0  0  0  0  0  0  0
    5.2826    4.4297   -3.7952 H   0  0  0  0  0  0  0  0  0  0  0  0
    4.3368    2.6070   -2.5278 H   0  0  0  0  0  0  0  0  0  0  0  0
    3.2312    2.1282   -3.8462 H   0  0  0  0  0  0  0  0  0  0  0  0
    5.0245    1.8760   -4.0127 H   0  0  0  0  0  0  0  0  0  0  0  0
    3.1309    1.4310   -6.1613 H   0  0  0  0  0  0  0  0  0  0  0  0
    4.7434    8.2724   -6.0912 H   0  0  0  0  0  0  0  0  0  0  0  0
   -1.6488   13.6363   -5.9778 H   0  0  0  0  0  0  0  0  0  0  0  0
   -0.3092   13.1673   -4.8934 H   0  0  0  0  0  0  0  0  0  0  0  0
   -2.0603   11.1582   -6.4690 H   0  0  0  0  0  0  0  0  0  0  0  0
   -0.7903   10.7666   -5.2288 H   0  0  0  0  0  0  0  0  0  0  0  0
   -2.2751   11.6399   -4.7591 H   0  0  0  0  0  0  0  0  0  0  0  0
   -0.9735   11.6264   -8.4024 H   0  0  0  0  0  0  0  0  0  0  0  0
   -1.4536   13.3480   -8.4551 H   0  0  0  0  0  0  0  0  0  0  0  0
    1.1906   12.1787   -9.5446 H   0  0  0  0  0  0  0  0  0  0  0  0
    0.6995   13.9228   -9.6093 H   0  0  0  0  0  0  0  0  0  0  0  0
   -0.2485   12.6790  -10.5042 H   0  0  0  0  0  0  0  0  0  0  0  0
    0.3441   10.0186   -7.3006 H   0  0  0  0  0  0  0  0  0  0  0  0
    1.6815   16.8767   -6.6242 H   0  0  0  0  0  0  0  0  0  0  0  0
    4.1178   17.0273   -5.6751 H   0  0  0  0  0  0  0  0  0  0  0  0
  1  2  2  0
  2  3  1  0
  3  4  2  0
  4  5  1  0
  5  6  2  0
  6  7  1  0
  7  8  2  0
  8  9  1  0
  9 10  1  0
 10 11  1  0
  8 12  1  0
 12 13  1  0
 12 14  2  0
  4 15  1  0
 15 16  2  0
 16 17  1  0
 17 18  1  0
 18 19  2  0
 19 20  1  0
 20 21  2  0
 21 22  1  0
 22 23  1  0
 23 24  1  0
 21 25  1  0
 25 26  2  0
 25 27  1  0
 17 28  2  0
 28 29  1  0
 16 30  1  0
 30 31  2  0
 31 32  1  0
 31 33  1  0
 33 34  1  0
 34 35  1  0
 35 36  1  0
 36 37  2  0
 37 38  1  0
 38 39  1  0
 39 40  1  0
 40 41  1  0
 39 42  1  0
 42 43  1  0
 39 44  1  0
 44 45  1  0
 37 46  1  0
 46 47  2  0
 47 48  1  0
 47 49  1  0
 49 50  1  0
 50 51  1  0
 51 52  1  0
 52 53  2  0
 53 54  1  0
 54 55  1  0
 55 56  1  0
 56 57  1  0
 55 58  1  0
 58 59  1  0
 55 60  1  0
 60 61  1  0
 53 62  1  0
 62 63  2  0
 63 64  1  0
 63 65  1  0
 65 66  2  0
 66 67  1  0
 67 68  2  0
 68 69  1  0
 69 70  2  0
 70 71  1  0
 71 72  2  0
 72 73  1  0
 73 74  1  0
 74 75  1  0
 72 76  1  0
 76 77  1  0
 76 78  2  0
 68 79  1  0
 79 80  2  0
 80 81  1  0
 81 82  1  0
 82 83  2  0
 83 84  1  0
 84 85  2  0
 85 86  1  0
 86 87  1  0
 87 88  1  0
 85 89  1  0
 89 90  2  0
 89 91  1  0
 81 92  2  0
 92 93  1  0
 80 94  1  0
 94 95  2  0
 95 96  1  0
 95 97  1  0
 97 98  1  0
 98 99  1  0
 99100  1  0
100101  2  0
101102  1  0
102103  1  0
103104  1  0
104105  1  0
103106  1  0
106107  1  0
103108  1  0
108109  1  0
101110  1  0
110111  2  0
111112  1  0
111113  1  0
113114  1  0
114115  1  0
115116  1  0
116117  2  0
117118  1  0
118119  1  0
119120  1  0
120121  1  0
119122  1  0
122123  1  0
119124  1  0
124125  1  0
117126  1  0
126127  2  0
127128  1  0
 29  1  1  0
 45 33  2  0
 61 49  2  0
 93 65  1  0
109 97  2  0
125113  2  0
 28  3  1  0
 44 35  2  0
 60 51  2  0
 92 67  1  0
108 99  2  0
124115  2  0
 14  5  1  0
 32 15  1  0
 48 36  1  0
 64 52  1  0
 78 69  1  0
 96 79  1  0
112100  1  0
128116  1  0
 26 18  1  0
 90 82  1  0
  1129  1  0
  2130  1  0
  6131  1  0
  7132  1  0
 10133  1  0
 10134  1  0
 11135  1  0
 11136  1  0
 11137  1  0
 14138  1  0
 19139  1  0
 20140  1  0
 23141  1  0
 23142  1  0
 24143  1  0
 24144  1  0
 24145  1  0
 26146  1  0
 30147  1  0
 40148  1  0
 40149  1  0
 41150  1  0
 41151  1  0
 41152  1  0
 42153  1  0
 42154  1  0
 43155  1  0
 43156  1  0
 43157  1  0
 45158  1  0
 46159  1  0
 56160  1  0
 56161  1  0
 57162  1  0
 57163  1  0
 57164  1  0
 58165  1  0
 58166  1  0
 59167  1  0
 59168  1  0
 59169  1  0
 61170  1  0
 62171  1  0
 66172  1  0
 70173  1  0
 71174  1  0
 74175  1  0
 74176  1  0
 75177  1  0
 75178  1  0
 75179  1  0
 78180  1  0
 83181  1  0
 84182  1  0
 87183  1  0
 87184  1  0
 88185  1  0
 88186  1  0
 88187  1  0
 90188  1  0
 94189  1  0
104190  1  0
104191  1  0
105192  1  0
105193  1  0
105194  1  0
106195  1  0
106196  1  0
107197  1  0
107198  1  0
107199  1  0
109200  1  0
110201  1  0
120202  1  0
120203  1  0
121204  1  0
121205  1  0
121206  1  0
122207  1  0
122208  1  0
123209  1  0
123210  1  0
123211  1  0
125212  1  0
126213  1  0
127214  1  0
M  END

