
     RDKit          3D

226251  0  0  0  0  0  0  0  0999 V2000
   -0.2914   -4.2548   11.1715 C   0  0  0  0  0  0  0  0  0  0  0  0
   -0.7200   -3.1221   10.4828 C   0  0  0  0  0  0  0  0  0  0  0  0
   -1.5404   -3.4218    9.3815 C   0  0  0  0  0  0  0  0  0  0  0  0
   -2.1554   -2.4933    8.5178 C   0  0  0  0  0  0  0  0  0  0  0  0
   -1.9756   -1.0381    8.6743 C   0  0  0  0  0  0  0  0  0  0  0  0
   -1.1796   -0.0485    7.5722 S   0  0  0  0  0  0  0  0  0  0  0  0
   -1.4086    1.3879    8.4179 C   0  0  0  0  0  0  0  0  0  0  0  0
   -0.8676    2.7207    7.9942 C   0  0  0  0  0  0  0  0  0  0  0  0
    0.4524    3.0173    8.6970 C   0  0  0  0  0  0  0  0  0  0  0  0
   -2.1090    1.1073    9.5903 C   0  0  0  0  0  0  0  0  0  0  0  0
   -2.5465    2.3315   10.7757 Cl  0  0  0  0  0  0  0  0  0  0  0  0
   -2.4340   -0.2523    9.7294 C   0  0  0  0  0  0  0  0  0  0  0  0
   -3.3663   -0.8872   11.0808 Cl  0  0  0  0  0  0  0  0  0  0  0  0
   -2.9378   -3.0187    7.4755 C   0  0  0  0  0  0  0  0  0  0  0  0
   -3.1107   -4.3935    7.2789 C   0  0  0  0  0  0  0  0  0  0  0  0
   -2.5096   -5.3190    8.1551 C   0  0  0  0  0  0  0  0  0  0  0  0
   -2.7559   -6.7650    8.0469 C   0  0  0  0  0  0  0  0  0  0  0  0
   -4.2165   -7.5059    8.4267 S   0  0  0  0  0  0  0  0  0  0  0  0
   -3.6918   -9.0814    8.1542 C   0  0  0  0  0  0  0  0  0  0  0  0
   -4.5558  -10.2980    8.2938 C   0  0  0  0  0  0  0  0  0  0  0  0
   -5.3193  -10.5723    7.0035 C   0  0  0  0  0  0  0  0  0  0  0  0
   -2.3608   -9.0437    7.7377 C   0  0  0  0  0  0  0  0  0  0  0  0
   -1.8322   -7.7438    7.6907 C   0  0  0  0  0  0  0  0  0  0  0  0
   -0.1859   -7.3834    7.1902 Cl  0  0  0  0  0  0  0  0  0  0  0  0
   -1.4322  -10.4770    7.3190 Cl  0  0  0  0  0  0  0  0  0  0  0  0
   -1.7278   -4.7951    9.1966 C   0  0  0  0  0  0  0  0  0  0  0  0
   -0.9131   -5.6274   10.4115 S   0  0  0  0  0  0  0  0  0  0  0  0
   -3.9294   -4.6975    6.1777 C   0  0  0  0  0  0  0  0  0  0  0  0
   -4.4243   -3.5573    5.5508 C   0  0  0  0  0  0  0  0  0  0  0  0
   -3.8430   -2.1794    6.3333 S   0  0  0  0  0  0  0  0  0  0  0  0
   -5.3554   -3.5270    4.4242 C   0  0  0  0  0  0  0  0  0  0  0  0
   -5.0014   -4.0437    2.8557 S   0  0  0  0  0  0  0  0  0  0  0  0
   -6.4108   -3.4116    2.1899 C   0  0  0  0  0  0  0  0  0  0  0  0
   -6.8285   -3.3604    0.7962 C   0  0  0  0  0  0  0  0  0  0  0  0
   -8.0451   -2.7998    0.4854 C   0  0  0  0  0  0  0  0  0  0  0  0
   -8.9133   -2.3633    1.4944 O   0  0  0  0  0  0  0  0  0  0  0  0
   -8.4370   -1.9886    2.8073 C   0  0  0  0  0  0  0  0  0  0  0  0
   -9.5814   -2.2508    3.8167 C   0  0  0  0  0  0  0  0  0  0  0  0
  -10.0649   -3.7042    3.7975 C   0  0  0  0  0  0  0  0  0  0  0  0
   -8.1051   -0.4702    2.7178 C   0  0  0  0  0  0  0  0  0  0  0  0
   -7.5313    0.1727    3.9849 C   0  0  0  0  0  0  0  0  0  0  0  0
   -7.1744   -2.7904    3.1701 C   0  0  0  0  0  0  0  0  0  0  0  0
   -6.5705   -2.8533    4.4333 C   0  0  0  0  0  0  0  0  0  0  0  0
   -8.2621   -2.6241   -0.8791 C   0  0  0  0  0  0  0  0  0  0  0  0
   -7.1552   -2.9955   -1.6467 C   0  0  0  0  0  0  0  0  0  0  0  0
   -5.9418   -3.5864   -0.6165 S   0  0  0  0  0  0  0  0  0  0  0  0
   -6.9286   -2.5447   -3.0282 C   0  0  0  0  0  0  0  0  0  0  0  0
   -5.8490   -2.9020   -3.8364 C   0  0  0  0  0  0  0  0  0  0  0  0
   -5.6752   -2.0370   -4.9347 C   0  0  0  0  0  0  0  0  0  0  0  0
   -4.5858   -2.0440   -5.8338 C   0  0  0  0  0  0  0  0  0  0  0  0
   -3.5945   -3.1394   -5.8417 C   0  0  0  0  0  0  0  0  0  0  0  0
   -1.9414   -2.9633   -5.5598 S   0  0  0  0  0  0  0  0  0  0  0  0
   -1.5575   -4.5934   -5.7174 C   0  0  0  0  0  0  0  0  0  0  0  0
   -0.1704   -5.1557   -5.6325 C   0  0  0  0  0  0  0  0  0  0  0  0
    0.4797   -5.2078   -7.0106 C   0  0  0  0  0  0  0  0  0  0  0  0
   -2.7216   -5.3014   -6.0133 C   0  0  0  0  0  0  0  0  0  0  0  0
   -2.7597   -7.0367   -6.2959 Cl  0  0  0  0  0  0  0  0  0  0  0  0
   -3.8642   -4.4881   -6.0743 C   0  0  0  0  0  0  0  0  0  0  0  0
   -5.4666   -5.1049   -6.4633 Cl  0  0  0  0  0  0  0  0  0  0  0  0
   -4.4406   -0.9084   -6.6574 C   0  0  0  0  0  0  0  0  0  0  0  0
   -5.3409    0.1602   -6.6337 C   0  0  0  0  0  0  0  0  0  0  0  0
   -6.4785    0.1167   -5.8053 C   0  0  0  0  0  0  0  0  0  0  0  0
   -7.3746    1.2743   -5.6531 C   0  0  0  0  0  0  0  0  0  0  0  0
   -8.9558    1.3432   -6.2182 S   0  0  0  0  0  0  0  0  0  0  0  0
   -9.2996    2.8684   -5.5943 C   0  0  0  0  0  0  0  0  0  0  0  0
  -10.5914    3.5987   -5.7950 C   0  0  0  0  0  0  0  0  0  0  0  0
  -10.4966    4.5487   -6.9820 C   0  0  0  0  0  0  0  0  0  0  0  0
   -8.1696    3.3469   -4.9334 C   0  0  0  0  0  0  0  0  0  0  0  0
   -7.0893    2.4501   -4.9634 C   0  0  0  0  0  0  0  0  0  0  0  0
   -5.5481    2.7636   -4.1748 Cl  0  0  0  0  0  0  0  0  0  0  0  0
   -8.1025    4.9112   -4.1319 Cl  0  0  0  0  0  0  0  0  0  0  0  0
   -6.6117   -0.9980   -4.9659 C   0  0  0  0  0  0  0  0  0  0  0  0
   -7.6639   -1.1710   -3.6735 S   0  0  0  0  0  0  0  0  0  0  0  0
   -4.8968    1.2817   -7.3529 C   0  0  0  0  0  0  0  0  0  0  0  0
   -3.6234    1.1190   -7.9013 C   0  0  0  0  0  0  0  0  0  0  0  0
   -3.1007   -0.4536   -7.5650 S   0  0  0  0  0  0  0  0  0  0  0  0
   -2.6766    2.2370   -8.0470 C   0  0  0  0  0  0  0  0  0  0  0  0
   -1.3346    2.0739   -8.4017 C   0  0  0  0  0  0  0  0  0  0  0  0
   -0.4813    3.0232   -7.8091 C   0  0  0  0  0  0  0  0  0  0  0  0
    0.9292    2.9618   -7.7935 C   0  0  0  0  0  0  0  0  0  0  0  0
    1.6691    2.0300   -8.6745 C   0  0  0  0  0  0  0  0  0  0  0  0
    2.7075    0.8087   -8.1562 S   0  0  0  0  0  0  0  0  0  0  0  0
    3.1351    0.2655   -9.6897 C   0  0  0  0  0  0  0  0  0  0  0  0
    4.0656   -0.8804   -9.9619 C   0  0  0  0  0  0  0  0  0  0  0  0
    3.2877   -2.1731  -10.1779 C   0  0  0  0  0  0  0  0  0  0  0  0
    2.4463    1.0203  -10.6363 C   0  0  0  0  0  0  0  0  0  0  0  0
    2.5974    0.7748  -12.3718 Cl  0  0  0  0  0  0  0  0  0  0  0  0
    1.6273    2.0096  -10.0681 C   0  0  0  0  0  0  0  0  0  0  0  0
    0.6826    3.1415  -11.0256 Cl  0  0  0  0  0  0  0  0  0  0  0  0
    1.5819    3.7406   -6.8174 C   0  0  0  0  0  0  0  0  0  0  0  0
    0.8886    4.5896   -5.9466 C   0  0  0  0  0  0  0  0  0  0  0  0
   -0.5044    4.7575   -6.0638 C   0  0  0  0  0  0  0  0  0  0  0  0
   -1.2595    5.5885   -5.1074 C   0  0  0  0  0  0  0  0  0  0  0  0
   -2.3561    5.0008   -3.9731 S   0  0  0  0  0  0  0  0  0  0  0  0
   -2.7104    6.4868   -3.2736 C   0  0  0  0  0  0  0  0  0  0  0  0
   -3.7249    6.6912   -2.1925 C   0  0  0  0  0  0  0  0  0  0  0  0
   -5.0968    6.9631   -2.7957 C   0  0  0  0  0  0  0  0  0  0  0  0
   -1.9796    7.4750   -3.9329 C   0  0  0  0  0  0  0  0  0  0  0  0
   -1.1546    6.9686   -4.9506 C   0  0  0  0  0  0  0  0  0  0  0  0
   -0.1171    7.9802   -5.9480 Cl  0  0  0  0  0  0  0  0  0  0  0  0
   -2.0894    9.1866   -3.5410 Cl  0  0  0  0  0  0  0  0  0  0  0  0
   -1.1592    3.9363   -6.9955 C   0  0  0  0  0  0  0  0  0  0  0  0
   -2.7991    3.6021   -7.0629 S   0  0  0  0  0  0  0  0  0  0  0  0
    1.6681    5.0285   -4.8640 C   0  0  0  0  0  0  0  0  0  0  0  0
    2.9698    4.5332   -4.8803 C   0  0  0  0  0  0  0  0  0  0  0  0
    3.1602    3.5829   -6.2590 S   0  0  0  0  0  0  0  0  0  0  0  0
    3.7272    4.2587   -3.6565 C   0  0  0  0  0  0  0  0  0  0  0  0
    3.1767    3.5705   -2.5773 C   0  0  0  0  0  0  0  0  0  0  0  0
    4.1410    3.0479   -1.7051 C   0  0  0  0  0  0  0  0  0  0  0  0
    3.8986    2.1800   -0.6177 C   0  0  0  0  0  0  0  0  0  0  0  0
    2.5455    1.6658   -0.3098 C   0  0  0  0  0  0  0  0  0  0  0  0
    1.5834    0.8152   -1.3985 S   0  0  0  0  0  0  0  0  0  0  0  0
    0.3220    0.4951   -0.3301 C   0  0  0  0  0  0  0  0  0  0  0  0
   -0.9282   -0.2538   -0.6892 C   0  0  0  0  0  0  0  0  0  0  0  0
   -0.6245   -1.7129   -1.0110 C   0  0  0  0  0  0  0  0  0  0  0  0
    0.6458    1.0491    0.9096 C   0  0  0  0  0  0  0  0  0  0  0  0
   -0.3788    0.9179    2.3340 Cl  0  0  0  0  0  0  0  0  0  0  0  0
    1.8851    1.7105    0.9191 C   0  0  0  0  0  0  0  0  0  0  0  0
    2.4993    2.5659    2.3254 Cl  0  0  0  0  0  0  0  0  0  0  0  0
    5.0323    1.7018    0.0682 C   0  0  0  0  0  0  0  0  0  0  0  0
    6.3389    2.0553   -0.2892 C   0  0  0  0  0  0  0  0  0  0  0  0
    6.5729    2.9230   -1.3737 C   0  0  0  0  0  0  0  0  0  0  0  0
    7.9335    3.2961   -1.7871 C   0  0  0  0  0  0  0  0  0  0  0  0
    8.6188    4.8150   -1.5626 S   0  0  0  0  0  0  0  0  0  0  0  0
   10.1319    4.4164   -2.1842 C   0  0  0  0  0  0  0  0  0  0  0  0
   11.2768    5.3762   -2.3152 C   0  0  0  0  0  0  0  0  0  0  0  0
   11.2587    6.0621   -3.6759 C   0  0  0  0  0  0  0  0  0  0  0  0
   10.1063    3.0880   -2.6048 C   0  0  0  0  0  0  0  0  0  0  0  0
    8.8747    2.4555   -2.3729 C   0  0  0  0  0  0  0  0  0  0  0  0
    8.5435    0.7827   -2.8051 Cl  0  0  0  0  0  0  0  0  0  0  0  0
   11.4763    2.2791   -3.3543 Cl  0  0  0  0  0  0  0  0  0  0  0  0
    5.4477    3.3882   -2.0729 C   0  0  0  0  0  0  0  0  0  0  0  0
    5.4092    4.2463   -3.5232 S   0  0  0  0  0  0  0  0  0  0  0  0
    7.3228    1.4101    0.4811 C   0  0  0  0  0  0  0  0  0  0  0  0
    6.7825    0.5340    1.4237 C   0  0  0  0  0  0  0  0  0  0  0  0
    5.0986    0.5653    1.3095 S   0  0  0  0  0  0  0  0  0  0  0  0
    7.5443   -0.3425    2.3265 C   0  0  0  0  0  0  0  0  0  0  0  0
    6.8904   -1.1588    3.6527 S   0  0  0  0  0  0  0  0  0  0  0  0
    8.3212   -1.9350    4.0520 C   0  0  0  0  0  0  0  0  0  0  0  0
    8.5513   -2.9255    5.0835 C   0  0  0  0  0  0  0  0  0  0  0  0
    9.7319   -3.6249    5.0947 C   0  0  0  0  0  0  0  0  0  0  0  0
   10.7232   -3.3763    4.1350 O   0  0  0  0  0  0  0  0  0  0  0  0
   10.7458   -2.1894    3.3032 C   0  0  0  0  0  0  0  0  0  0  0  0
   11.2796   -2.6117    1.9075 C   0  0  0  0  0  0  0  0  0  0  0  0
   12.6587   -3.2727    1.9446 C   0  0  0  0  0  0  0  0  0  0  0  0
   11.6655   -1.1632    4.0236 C   0  0  0  0  0  0  0  0  0  0  0  0
   11.9545    0.1328    3.2618 C   0  0  0  0  0  0  0  0  0  0  0  0
    9.3263   -1.6043    3.1583 C   0  0  0  0  0  0  0  0  0  0  0  0
    8.8899   -0.6877    2.1880 C   0  0  0  0  0  0  0  0  0  0  0  0
    9.8049   -4.5874    6.1024 C   0  0  0  0  0  0  0  0  0  0  0  0
    8.6552   -4.6213    6.8902 C   0  0  0  0  0  0  0  0  0  0  0  0
    7.5512   -3.4717    6.3137 S   0  0  0  0  0  0  0  0  0  0  0  0
    0.3340   -4.2537   12.0546 H   0  0  0  0  0  0  0  0  0  0  0  0
   -0.4491   -2.1183   10.7868 H   0  0  0  0  0  0  0  0  0  0  0  0
   -0.7021    2.7173    6.8950 H   0  0  0  0  0  0  0  0  0  0  0  0
   -1.6040    3.5180    8.2226 H   0  0  0  0  0  0  0  0  0  0  0  0
    0.2997    3.0746    9.7947 H   0  0  0  0  0  0  0  0  0  0  0  0
    0.8503    3.9919    8.3444 H   0  0  0  0  0  0  0  0  0  0  0  0
    1.1965    2.2257    8.4688 H   0  0  0  0  0  0  0  0  0  0  0  0
   -5.2798  -10.1346    9.1222 H   0  0  0  0  0  0  0  0  0  0  0  0
   -3.9348  -11.1808    8.5524 H   0  0  0  0  0  0  0  0  0  0  0  0
   -5.9061   -9.6782    6.6989 H   0  0  0  0  0  0  0  0  0  0  0  0
   -4.6147  -10.8472    6.1876 H   0  0  0  0  0  0  0  0  0  0  0  0
   -6.0233  -11.4167    7.1652 H   0  0  0  0  0  0  0  0  0  0  0  0
   -4.1794   -5.7032    5.8608 H   0  0  0  0  0  0  0  0  0  0  0  0
   -9.2679   -2.0076    4.8528 H   0  0  0  0  0  0  0  0  0  0  0  0
  -10.4491   -1.5971    3.5709 H   0  0  0  0  0  0  0  0  0  0  0  0
   -9.2386   -4.3983    4.0623 H   0  0  0  0  0  0  0  0  0  0  0  0
  -10.8806   -3.8305    4.5411 H   0  0  0  0  0  0  0  0  0  0  0  0
  -10.4637   -3.9740    2.7965 H   0  0  0  0  0  0  0  0  0  0  0  0
   -9.0248    0.0880    2.4314 H   0  0  0  0  0  0  0  0  0  0  0  0
   -7.3702   -0.3058    1.8973 H   0  0  0  0  0  0  0  0  0  0  0  0
   -8.1799   -0.0063    4.8668 H   0  0  0  0  0  0  0  0  0  0  0  0
   -6.5055   -0.2002    4.1825 H   0  0  0  0  0  0  0  0  0  0  0  0
   -7.4559    1.2718    3.8334 H   0  0  0  0  0  0  0  0  0  0  0  0
   -6.9739   -2.3804    5.3193 H   0  0  0  0  0  0  0  0  0  0  0  0
   -9.1390   -2.1316   -1.2756 H   0  0  0  0  0  0  0  0  0  0  0  0
   -5.1596   -3.6961   -3.5819 H   0  0  0  0  0  0  0  0  0  0  0  0
   -0.2038   -6.1771   -5.1957 H   0  0  0  0  0  0  0  0  0  0  0  0
    0.4443   -4.5187   -4.9601 H   0  0  0  0  0  0  0  0  0  0  0  0
    1.4884   -5.6670   -6.9301 H   0  0  0  0  0  0  0  0  0  0  0  0
    0.5874   -4.1850   -7.4260 H   0  0  0  0  0  0  0  0  0  0  0  0
   -0.1327   -5.8222   -7.7067 H   0  0  0  0  0  0  0  0  0  0  0  0
  -10.8492    4.1715   -4.8790 H   0  0  0  0  0  0  0  0  0  0  0  0
  -11.4078    2.8668   -5.9755 H   0  0  0  0  0  0  0  0  0  0  0  0
   -9.6984    5.3046   -6.8125 H   0  0  0  0  0  0  0  0  0  0  0  0
  -11.4621    5.0791   -7.1137 H   0  0  0  0  0  0  0  0  0  0  0  0
  -10.2733    3.9810   -7.9124 H   0  0  0  0  0  0  0  0  0  0  0  0
   -5.4116    2.2352   -7.3392 H   0  0  0  0  0  0  0  0  0  0  0  0
   -0.9706    1.1968   -8.9212 H   0  0  0  0  0  0  0  0  0  0  0  0
    4.6840   -0.6617  -10.8574 H   0  0  0  0  0  0  0  0  0  0  0  0
    4.7534   -1.0097   -9.1005 H   0  0  0  0  0  0  0  0  0  0  0  0
    3.9973   -3.0066  -10.3760 H   0  0  0  0  0  0  0  0  0  0  0  0
    2.6921   -2.4207   -9.2720 H   0  0  0  0  0  0  0  0  0  0  0  0
    2.6064   -2.0737  -11.0503 H   0  0  0  0  0  0  0  0  0  0  0  0
   -3.4261    7.5394   -1.5431 H   0  0  0  0  0  0  0  0  0  0  0  0
   -3.7740    5.7795   -1.5609 H   0  0  0  0  0  0  0  0  0  0  0  0
   -5.4021    6.1202   -3.4494 H   0  0  0  0  0  0  0  0  0  0  0  0
   -5.0742    7.8991   -3.3929 H   0  0  0  0  0  0  0  0  0  0  0  0
   -5.8465    7.0761   -1.9856 H   0  0  0  0  0  0  0  0  0  0  0  0
    1.2580    5.5518   -4.0091 H   0  0  0  0  0  0  0  0  0  0  0  0
    2.1151    3.3766   -2.4893 H   0  0  0  0  0  0  0  0  0  0  0  0
   -1.6630   -0.2112    0.1436 H   0  0  0  0  0  0  0  0  0  0  0  0
   -1.3955    0.2277   -1.5748 H   0  0  0  0  0  0  0  0  0  0  0  0
    0.0113   -1.7792   -1.9173 H   0  0  0  0  0  0  0  0  0  0  0  0
   -0.1044   -2.2011   -0.1580 H   0  0  0  0  0  0  0  0  0  0  0  0
   -1.5740   -2.2547   -1.2091 H   0  0  0  0  0  0  0  0  0  0  0  0
   12.2367    4.8341   -2.1839 H   0  0  0  0  0  0  0  0  0  0  0  0
   11.2116    6.1426   -1.5141 H   0  0  0  0  0  0  0  0  0  0  0  0
   12.1402    6.7279   -3.7659 H   0  0  0  0  0  0  0  0  0  0  0  0
   10.3391    6.6742   -3.7831 H   0  0  0  0  0  0  0  0  0  0  0  0
   11.2943    5.3090   -4.4927 H   0  0  0  0  0  0  0  0  0  0  0  0
    8.3861    1.5577    0.3455 H   0  0  0  0  0  0  0  0  0  0  0  0
   10.5685   -3.3424    1.4653 H   0  0  0  0  0  0  0  0  0  0  0  0
   11.3256   -1.7505    1.2116 H   0  0  0  0  0  0  0  0  0  0  0  0
   12.6782   -4.1225    2.6628 H   0  0  0  0  0  0  0  0  0  0  0  0
   13.4439   -2.5343    2.2221 H   0  0  0  0  0  0  0  0  0  0  0  0
   12.9057   -3.6712    0.9346 H   0  0  0  0  0  0  0  0  0  0  0  0
   12.6391   -1.6447    4.2687 H   0  0  0  0  0  0  0  0  0  0  0  0
   11.2015   -0.8921    4.9989 H   0  0  0  0  0  0  0  0  0  0  0  0
   11.0275    0.7196    3.1022 H   0  0  0  0  0  0  0  0  0  0  0  0
   12.6470    0.7582    3.8643 H   0  0  0  0  0  0  0  0  0  0  0  0
   12.4479   -0.0693    2.2899 H   0  0  0  0  0  0  0  0  0  0  0  0
    9.5167   -0.3052    1.3967 H   0  0  0  0  0  0  0  0  0  0  0  0
   10.6618   -5.2318    6.2615 H   0  0  0  0  0  0  0  0  0  0  0  0
    8.4926   -5.2804    7.7323 H   0  0  0  0  0  0  0  0  0  0  0  0
  1  2  2  0
  2  3  1  0
  3  4  2  0
  4  5  1  0
  5  6  1  0
  6  7  1  0
  7  8  1  0
  8  9  1  0
  7 10  2  0
 10 11  1  0
 10 12  1  0
 12 13  1  0
  4 14  1  0
 14 15  2  0
 15 16  1  0
 16 17  1  0
 17 18  1  0
 18 19  1  0
 19 20  1  0
 20 21  1  0
 19 22  2  0
 22 23  1  0
 23 24  1  0
 22 25  1  0
 16 26  2  0
 26 27  1  0
 15 28  1  0
 28 29  2  0
 29 30  1  0
 29 31  1  0
 31 32  1  0
 32 33  1  0
 33 34  1  0
 34 35  2  0
 35 36  1  0
 36 37  1  0
 37 38  1  0
 38 39  1  0
 37 40  1  0
 40 41  1  0
 37 42  1  0
 42 43  1  0
 35 44  1  0
 44 45  2  0
 45 46  1  0
 45 47  1  0
 47 48  2  0
 48 49  1  0
 49 50  2  0
 50 51  1  0
 51 52  1  0
 52 53  1  0
 53 54  1  0
 54 55  1  0
 53 56  2  0
 56 57  1  0
 56 58  1  0
 58 59  1  0
 50 60  1  0
 60 61  2  0
 61 62  1  0
 62 63  1  0
 63 64  1  0
 64 65  1  0
 65 66  1  0
 66 67  1  0
 65 68  2  0
 68 69  1  0
 69 70  1  0
 68 71  1  0
 62 72  2  0
 72 73  1  0
 61 74  1  0
 74 75  2  0
 75 76  1  0
 75 77  1  0
 77 78  2  0
 78 79  1  0
 79 80  2  0
 80 81  1  0
 81 82  1  0
 82 83  1  0
 83 84  1  0
 84 85  1  0
 83 86  2  0
 86 87  1  0
 86 88  1  0
 88 89  1  0
 80 90  1  0
 90 91  2  0
 91 92  1  0
 92 93  1  0
 93 94  1  0
 94 95  1  0
 95 96  1  0
 96 97  1  0
 95 98  2  0
 98 99  1  0
 99100  1  0
 98101  1  0
 92102  2  0
102103  1  0
 91104  1  0
104105  2  0
105106  1  0
105107  1  0
107108  2  0
108109  1  0
109110  2  0
110111  1  0
111112  1  0
112113  1  0
113114  1  0
114115  1  0
113116  2  0
116117  1  0
116118  1  0
118119  1  0
110120  1  0
120121  2  0
121122  1  0
122123  1  0
123124  1  0
124125  1  0
125126  1  0
126127  1  0
125128  2  0
128129  1  0
129130  1  0
128131  1  0
122132  2  0
132133  1  0
121134  1  0
134135  2  0
135136  1  0
135137  1  0
137138  1  0
138139  1  0
139140  1  0
140141  2  0
141142  1  0
142143  1  0
143144  1  0
144145  1  0
143146  1  0
146147  1  0
143148  1  0
148149  1  0
141150  1  0
150151  2  0
151152  1  0
 27  1  1  0
 43 31  2  0
 73 47  1  0
103 77  1  0
133107  1  0
149137  2  0
 26  3  1  0
 42 33  2  0
 72 49  1  0
102 79  1  0
132109  1  0
148139  2  0
 12  5  2  0
 30 14  1  0
 46 34  1  0
 58 51  2  0
 76 60  1  0
 88 81  2  0
106 90  1  0
118111  2  0
136120  1  0
152140  1  0
 23 17  2  0
 69 63  2  0
 99 93  2  0
129123  2  0
  1153  1  0
  2154  1  0
  8155  1  0
  8156  1  0
  9157  1  0
  9158  1  0
  9159  1  0
 20160  1  0
 20161  1  0
 21162  1  0
 21163  1  0
 21164  1  0
 28165  1  0
 38166  1  0
 38167  1  0
 39168  1  0
 39169  1  0
 39170  1  0
 40171  1  0
 40172  1  0
 41173  1  0
 41174  1  0
 41175  1  0
 43176  1  0
 44177  1  0
 48178  1  0
 54179  1  0
 54180  1  0
 55181  1  0
 55182  1  0
 55183  1  0
 66184  1  0
 66185  1  0
 67186  1  0
 67187  1  0
 67188  1  0
 74189  1  0
 78190  1  0
 84191  1  0
 84192  1  0
 85193  1  0
 85194  1  0
 85195  1  0
 96196  1  0
 96197  1  0
 97198  1  0
 97199  1  0
 97200  1  0
104201  1  0
108202  1  0
114203  1  0
114204  1  0
115205  1  0
115206  1  0
115207  1  0
126208  1  0
126209  1  0
127210  1  0
127211  1  0
127212  1  0
134213  1  0
144214  1  0
144215  1  0
145216  1  0
145217  1  0
145218  1  0
146219  1  0
146220  1  0
147221  1  0
147222  1  0
147223  1  0
149224  1  0
150225  1  0
151226  1  0
M  END

