
     RDKit          3D

226251  0  0  0  0  0  0  0  0999 V2000
    1.8461   -0.9229   11.5971 C   0  0  0  0  0  0  0  0  0  0  0  0
    0.6443   -1.8637   10.8744 S   0  0  0  0  0  0  0  0  0  0  0  0
   -0.0711   -0.5915   10.0583 C   0  0  0  0  0  0  0  0  0  0  0  0
   -1.1888   -0.6103    9.1312 C   0  0  0  0  0  0  0  0  0  0  0  0
   -1.6379    0.5710    8.5973 C   0  0  0  0  0  0  0  0  0  0  0  0
   -1.0297    1.7892    8.9185 O   0  0  0  0  0  0  0  0  0  0  0  0
    0.2492    1.8937    9.5907 C   0  0  0  0  0  0  0  0  0  0  0  0
    0.1666    3.0834   10.5804 C   0  0  0  0  0  0  0  0  0  0  0  0
   -0.7679    2.8169   11.7700 C   0  0  0  0  0  0  0  0  0  0  0  0
    1.3424    2.1324    8.5146 C   0  0  0  0  0  0  0  0  0  0  0  0
    1.0547    3.3049    7.5758 C   0  0  0  0  0  0  0  0  0  0  0  0
    0.6000    0.5900   10.3254 C   0  0  0  0  0  0  0  0  0  0  0  0
    1.6948    0.3982   11.1805 C   0  0  0  0  0  0  0  0  0  0  0  0
   -2.6996    0.4183    7.7098 C   0  0  0  0  0  0  0  0  0  0  0  0
   -3.0417   -0.9209    7.5191 C   0  0  0  0  0  0  0  0  0  0  0  0
   -2.0441   -1.9024    8.4803 S   0  0  0  0  0  0  0  0  0  0  0  0
   -4.0023   -1.4074    6.5207 C   0  0  0  0  0  0  0  0  0  0  0  0
   -4.9532   -0.6209    5.8745 C   0  0  0  0  0  0  0  0  0  0  0  0
   -5.5568   -1.2712    4.7919 C   0  0  0  0  0  0  0  0  0  0  0  0
   -6.5060   -0.7086    3.9201 C   0  0  0  0  0  0  0  0  0  0  0  0
   -6.9682    0.6841    4.0597 C   0  0  0  0  0  0  0  0  0  0  0  0
   -6.0068    2.0401    3.8010 S   0  0  0  0  0  0  0  0  0  0  0  0
   -7.2155    3.1703    4.0934 C   0  0  0  0  0  0  0  0  0  0  0  0
   -7.0103    4.6541    4.0747 C   0  0  0  0  0  0  0  0  0  0  0  0
   -6.5583    5.1629    5.4372 C   0  0  0  0  0  0  0  0  0  0  0  0
   -8.3968    2.4938    4.4160 C   0  0  0  0  0  0  0  0  0  0  0  0
   -9.8951    3.2996    4.8423 Cl  0  0  0  0  0  0  0  0  0  0  0  0
   -8.2556    1.0998    4.3786 C   0  0  0  0  0  0  0  0  0  0  0  0
   -9.5635   -0.0157    4.7431 Cl  0  0  0  0  0  0  0  0  0  0  0  0
   -6.8940   -1.4858    2.8219 C   0  0  0  0  0  0  0  0  0  0  0  0
   -6.3821   -2.7626    2.5730 C   0  0  0  0  0  0  0  0  0  0  0  0
   -5.4969   -3.3640    3.4917 C   0  0  0  0  0  0  0  0  0  0  0  0
   -5.0037   -4.7438    3.3176 C   0  0  0  0  0  0  0  0  0  0  0  0
   -3.3833   -5.1976    3.2371 S   0  0  0  0  0  0  0  0  0  0  0  0
   -3.6595   -6.8550    3.1620 C   0  0  0  0  0  0  0  0  0  0  0  0
   -2.5809   -7.8966    3.2042 C   0  0  0  0  0  0  0  0  0  0  0  0
   -2.1991   -8.2212    4.6446 C   0  0  0  0  0  0  0  0  0  0  0  0
   -5.0328   -7.0784    3.2321 C   0  0  0  0  0  0  0  0  0  0  0  0
   -5.7878   -5.8968    3.3055 C   0  0  0  0  0  0  0  0  0  0  0  0
   -7.5389   -5.8810    3.4639 Cl  0  0  0  0  0  0  0  0  0  0  0  0
   -5.7540   -8.6822    3.2857 Cl  0  0  0  0  0  0  0  0  0  0  0  0
   -5.0886   -2.5746    4.5889 C   0  0  0  0  0  0  0  0  0  0  0  0
   -3.9350   -2.9193    5.7708 S   0  0  0  0  0  0  0  0  0  0  0  0
   -6.7314   -3.2588    1.3009 C   0  0  0  0  0  0  0  0  0  0  0  0
   -7.5225   -2.3716    0.5682 C   0  0  0  0  0  0  0  0  0  0  0  0
   -7.7939   -0.9907    1.5031 S   0  0  0  0  0  0  0  0  0  0  0  0
   -7.7218   -2.3748   -0.8924 C   0  0  0  0  0  0  0  0  0  0  0  0
   -6.8958   -3.0316   -1.8107 C   0  0  0  0  0  0  0  0  0  0  0  0
   -6.9065   -2.4398   -3.0871 C   0  0  0  0  0  0  0  0  0  0  0  0
   -6.0039   -2.7210   -4.1373 C   0  0  0  0  0  0  0  0  0  0  0  0
   -5.1793   -3.9504   -4.1334 C   0  0  0  0  0  0  0  0  0  0  0  0
   -3.5064   -4.0207   -4.3325 S   0  0  0  0  0  0  0  0  0  0  0  0
   -3.3895   -5.7004   -4.3049 C   0  0  0  0  0  0  0  0  0  0  0  0
   -2.1268   -6.4654   -4.5656 C   0  0  0  0  0  0  0  0  0  0  0  0
   -1.9894   -6.7921   -6.0498 C   0  0  0  0  0  0  0  0  0  0  0  0
   -4.6669   -6.2347   -4.1570 C   0  0  0  0  0  0  0  0  0  0  0  0
   -5.0015   -7.9601   -4.1486 Cl  0  0  0  0  0  0  0  0  0  0  0  0
   -5.6670   -5.2572   -4.0576 C   0  0  0  0  0  0  0  0  0  0  0  0
   -7.3811   -5.6474   -3.9466 Cl  0  0  0  0  0  0  0  0  0  0  0  0
   -5.8877   -1.7382   -5.1478 C   0  0  0  0  0  0  0  0  0  0  0  0
   -6.6960   -0.5958   -5.1819 C   0  0  0  0  0  0  0  0  0  0  0  0
   -7.6984   -0.4022   -4.2175 C   0  0  0  0  0  0  0  0  0  0  0  0
   -8.5021    0.8303   -4.1864 C   0  0  0  0  0  0  0  0  0  0  0  0
   -9.8449    1.1198   -5.1557 S   0  0  0  0  0  0  0  0  0  0  0  0
  -10.1587    2.6628   -4.5648 C   0  0  0  0  0  0  0  0  0  0  0  0
  -11.3348    3.4959   -4.9694 C   0  0  0  0  0  0  0  0  0  0  0  0
  -12.5933    3.0527   -4.2258 C   0  0  0  0  0  0  0  0  0  0  0  0
   -9.2071    2.9721   -3.5923 C   0  0  0  0  0  0  0  0  0  0  0  0
   -8.2657    1.9517   -3.3972 C   0  0  0  0  0  0  0  0  0  0  0  0
   -6.8906    2.0961   -2.3104 Cl  0  0  0  0  0  0  0  0  0  0  0  0
   -9.1773    4.4913   -2.7044 Cl  0  0  0  0  0  0  0  0  0  0  0  0
   -7.7564   -1.3302   -3.1672 C   0  0  0  0  0  0  0  0  0  0  0  0
   -8.5120   -1.1084   -1.6877 S   0  0  0  0  0  0  0  0  0  0  0  0
   -6.2430    0.3898   -6.0718 C   0  0  0  0  0  0  0  0  0  0  0  0
   -5.0414    0.0634   -6.6976 C   0  0  0  0  0  0  0  0  0  0  0  0
   -4.6145   -1.5034   -6.2240 S   0  0  0  0  0  0  0  0  0  0  0  0
   -4.0136    1.0780   -6.9845 C   0  0  0  0  0  0  0  0  0  0  0  0
   -2.7582    0.8121   -7.5309 C   0  0  0  0  0  0  0  0  0  0  0  0
   -1.7697    1.7377   -7.1414 C   0  0  0  0  0  0  0  0  0  0  0  0
   -0.3879    1.6422   -7.4126 C   0  0  0  0  0  0  0  0  0  0  0  0
    0.1363    0.7258   -8.4509 C   0  0  0  0  0  0  0  0  0  0  0  0
    1.3492   -0.4241   -8.2365 S   0  0  0  0  0  0  0  0  0  0  0  0
    1.3781   -0.9659   -9.8287 C   0  0  0  0  0  0  0  0  0  0  0  0
    2.3583   -1.9580  -10.3735 C   0  0  0  0  0  0  0  0  0  0  0  0
    3.6300   -1.2574  -10.8403 C   0  0  0  0  0  0  0  0  0  0  0  0
    0.4485   -0.2314  -10.5620 C   0  0  0  0  0  0  0  0  0  0  0  0
    0.2060   -0.4198  -12.2945 Cl  0  0  0  0  0  0  0  0  0  0  0  0
   -0.2544    0.7051   -9.7918 C   0  0  0  0  0  0  0  0  0  0  0  0
   -1.4320    1.8184  -10.4785 Cl  0  0  0  0  0  0  0  0  0  0  0  0
    0.4603    2.4446   -6.6232 C   0  0  0  0  0  0  0  0  0  0  0  0
   -0.0291    3.3535   -5.6784 C   0  0  0  0  0  0  0  0  0  0  0  0
   -1.4101    3.5596   -5.5270 C   0  0  0  0  0  0  0  0  0  0  0  0
   -1.9413    4.5167   -4.5430 C   0  0  0  0  0  0  0  0  0  0  0  0
   -2.8513    4.1096   -3.1839 S   0  0  0  0  0  0  0  0  0  0  0  0
   -2.9491    5.6733   -2.5633 C   0  0  0  0  0  0  0  0  0  0  0  0
   -3.6828    6.0496   -1.3109 C   0  0  0  0  0  0  0  0  0  0  0  0
   -5.1241    6.4423   -1.6226 C   0  0  0  0  0  0  0  0  0  0  0  0
   -2.2842    6.5419   -3.4315 C   0  0  0  0  0  0  0  0  0  0  0  0
   -1.7077    5.8894   -4.5293 C   0  0  0  0  0  0  0  0  0  0  0  0
   -0.8056    6.7284   -5.7857 Cl  0  0  0  0  0  0  0  0  0  0  0  0
   -2.1795    8.2757   -3.1833 Cl  0  0  0  0  0  0  0  0  0  0  0  0
   -2.2526    2.7127   -6.2624 C   0  0  0  0  0  0  0  0  0  0  0  0
   -3.8961    2.4759   -6.0414 S   0  0  0  0  0  0  0  0  0  0  0  0
    0.9581    3.8350   -4.8021 C   0  0  0  0  0  0  0  0  0  0  0  0
    2.2251    3.3168   -5.0468 C   0  0  0  0  0  0  0  0  0  0  0  0
    2.1181    2.2826   -6.3838 S   0  0  0  0  0  0  0  0  0  0  0  0
    3.1794    3.0556   -3.9687 C   0  0  0  0  0  0  0  0  0  0  0  0
    2.8232    2.3370   -2.8296 C   0  0  0  0  0  0  0  0  0  0  0  0
    3.9200    1.7911   -2.1585 C   0  0  0  0  0  0  0  0  0  0  0  0
    3.8630    0.8886   -1.0740 C   0  0  0  0  0  0  0  0  0  0  0  0
    2.5828    0.4200   -0.4934 C   0  0  0  0  0  0  0  0  0  0  0  0
    1.3533   -0.3489   -1.3526 S   0  0  0  0  0  0  0  0  0  0  0  0
    0.3132   -0.5656   -0.0468 C   0  0  0  0  0  0  0  0  0  0  0  0
   -1.0343   -1.2233   -0.1322 C   0  0  0  0  0  0  0  0  0  0  0  0
   -0.9970   -2.6324    0.4466 C   0  0  0  0  0  0  0  0  0  0  0  0
    0.9268   -0.0610    1.0967 C   0  0  0  0  0  0  0  0  0  0  0  0
    0.1820   -0.0813    2.6878 Cl  0  0  0  0  0  0  0  0  0  0  0  0
    2.1967    0.4912    0.8479 C   0  0  0  0  0  0  0  0  0  0  0  0
    3.1765    1.2388    2.1001 Cl  0  0  0  0  0  0  0  0  0  0  0  0
    5.0894    0.3574   -0.6416 C   0  0  0  0  0  0  0  0  0  0  0  0
    6.3173    0.7317   -1.1979 C   0  0  0  0  0  0  0  0  0  0  0  0
    6.3791    1.6859   -2.2312 C   0  0  0  0  0  0  0  0  0  0  0  0
    7.6665    2.1951   -2.7436 C   0  0  0  0  0  0  0  0  0  0  0  0
    8.1945    2.1224   -4.3421 S   0  0  0  0  0  0  0  0  0  0  0  0
    9.6440    2.9459   -4.0914 C   0  0  0  0  0  0  0  0  0  0  0  0
   10.6544    3.2363   -5.1565 C   0  0  0  0  0  0  0  0  0  0  0  0
   11.8705    2.3262   -5.0231 C   0  0  0  0  0  0  0  0  0  0  0  0
    9.7323    3.2948   -2.7470 C   0  0  0  0  0  0  0  0  0  0  0  0
    8.6256    2.8726   -1.9906 C   0  0  0  0  0  0  0  0  0  0  0  0
    8.4497    3.2127   -0.2715 Cl  0  0  0  0  0  0  0  0  0  0  0  0
   11.0762    4.1996   -2.0634 Cl  0  0  0  0  0  0  0  0  0  0  0  0
    5.1481    2.1497   -2.7307 C   0  0  0  0  0  0  0  0  0  0  0  0
    4.8566    3.0662   -4.1194 S   0  0  0  0  0  0  0  0  0  0  0  0
    7.3967   -0.0180   -0.7076 C   0  0  0  0  0  0  0  0  0  0  0  0
    7.0092   -0.9885    0.2143 C   0  0  0  0  0  0  0  0  0  0  0  0
    5.3375   -0.9027    0.4406 S   0  0  0  0  0  0  0  0  0  0  0  0
    7.8714   -2.0357    0.7854 C   0  0  0  0  0  0  0  0  0  0  0  0
    7.3651   -3.1892    1.9127 S   0  0  0  0  0  0  0  0  0  0  0  0
    8.8307   -4.0122    1.9274 C   0  0  0  0  0  0  0  0  0  0  0  0
    9.1964   -5.1942    2.6745 C   0  0  0  0  0  0  0  0  0  0  0  0
   10.4595   -5.7044    2.5590 C   0  0  0  0  0  0  0  0  0  0  0  0
   11.4066   -5.1142    1.7091 O   0  0  0  0  0  0  0  0  0  0  0  0
   11.1307   -3.9996    0.8161 C   0  0  0  0  0  0  0  0  0  0  0  0
   11.2076   -4.4774   -0.6690 C   0  0  0  0  0  0  0  0  0  0  0  0
   11.9928   -5.7782   -0.8724 C   0  0  0  0  0  0  0  0  0  0  0  0
   12.1701   -2.8864    1.1135 C   0  0  0  0  0  0  0  0  0  0  0  0
   13.6211   -3.3243    0.9303 C   0  0  0  0  0  0  0  0  0  0  0  0
    9.7337   -3.4162    1.0637 C   0  0  0  0  0  0  0  0  0  0  0  0
    9.1868   -2.3017    0.4096 C   0  0  0  0  0  0  0  0  0  0  0  0
   10.6902   -6.8176    3.3677 C   0  0  0  0  0  0  0  0  0  0  0  0
    9.5717   -7.1700    4.1225 C   0  0  0  0  0  0  0  0  0  0  0  0
    8.3147   -6.0895    3.7801 S   0  0  0  0  0  0  0  0  0  0  0  0
    2.6275   -1.2860   12.2484 H   0  0  0  0  0  0  0  0  0  0  0  0
    1.1806    3.3453   10.9684 H   0  0  0  0  0  0  0  0  0  0  0  0
   -0.2269    3.9717   10.0318 H   0  0  0  0  0  0  0  0  0  0  0  0
   -1.6152    2.1539   11.4840 H   0  0  0  0  0  0  0  0  0  0  0  0
   -0.1993    2.3433   12.5995 H   0  0  0  0  0  0  0  0  0  0  0  0
   -1.1861    3.7818   12.1358 H   0  0  0  0  0  0  0  0  0  0  0  0
    1.4400    1.2143    7.8922 H   0  0  0  0  0  0  0  0  0  0  0  0
    2.3236    2.3034    9.0075 H   0  0  0  0  0  0  0  0  0  0  0  0
    1.0390    4.2588    8.1381 H   0  0  0  0  0  0  0  0  0  0  0  0
    1.8565    3.3674    6.8077 H   0  0  0  0  0  0  0  0  0  0  0  0
    0.0895    3.1621    7.0466 H   0  0  0  0  0  0  0  0  0  0  0  0
    2.3761    1.1877   11.4735 H   0  0  0  0  0  0  0  0  0  0  0  0
   -3.1506    1.2436    7.1806 H   0  0  0  0  0  0  0  0  0  0  0  0
   -5.1671    0.3995    6.1587 H   0  0  0  0  0  0  0  0  0  0  0  0
   -6.2361    4.9046    3.3175 H   0  0  0  0  0  0  0  0  0  0  0  0
   -7.9476    5.1683    3.7780 H   0  0  0  0  0  0  0  0  0  0  0  0
   -7.3283    4.9505    6.2084 H   0  0  0  0  0  0  0  0  0  0  0  0
   -5.6058    4.6742    5.7348 H   0  0  0  0  0  0  0  0  0  0  0  0
   -6.3998    6.2588    5.3899 H   0  0  0  0  0  0  0  0  0  0  0  0
   -1.6856   -7.5136    2.6665 H   0  0  0  0  0  0  0  0  0  0  0  0
   -2.9164   -8.8187    2.6830 H   0  0  0  0  0  0  0  0  0  0  0  0
   -1.8326   -7.3051    5.1536 H   0  0  0  0  0  0  0  0  0  0  0  0
   -1.3872   -8.9771    4.6466 H   0  0  0  0  0  0  0  0  0  0  0  0
   -3.0729   -8.6310    5.1940 H   0  0  0  0  0  0  0  0  0  0  0  0
   -6.3394   -4.1811    0.8929 H   0  0  0  0  0  0  0  0  0  0  0  0
   -6.1914   -3.8047   -1.5222 H   0  0  0  0  0  0  0  0  0  0  0  0
   -2.1271   -7.4060   -3.9788 H   0  0  0  0  0  0  0  0  0  0  0  0
   -1.2527   -5.8598   -4.2401 H   0  0  0  0  0  0  0  0  0  0  0  0
   -1.9675   -5.8572   -6.6494 H   0  0  0  0  0  0  0  0  0  0  0  0
   -2.8333   -7.4300   -6.3923 H   0  0  0  0  0  0  0  0  0  0  0  0
   -1.0425   -7.3427   -6.2231 H   0  0  0  0  0  0  0  0  0  0  0  0
  -11.5052    3.3844   -6.0595 H   0  0  0  0  0  0  0  0  0  0  0  0
  -11.1402    4.5674   -4.7660 H   0  0  0  0  0  0  0  0  0  0  0  0
  -12.8531    2.0034   -4.4921 H   0  0  0  0  0  0  0  0  0  0  0  0
  -13.4413    3.7071   -4.5077 H   0  0  0  0  0  0  0  0  0  0  0  0
  -12.4352    3.1212   -3.1267 H   0  0  0  0  0  0  0  0  0  0  0  0
   -6.6637    1.3877   -6.1091 H   0  0  0  0  0  0  0  0  0  0  0  0
   -2.5396   -0.0969   -8.0766 H   0  0  0  0  0  0  0  0  0  0  0  0
    1.9132   -2.5089  -11.2274 H   0  0  0  0  0  0  0  0  0  0  0  0
    2.6134   -2.6971   -9.5834 H   0  0  0  0  0  0  0  0  0  0  0  0
    3.3990   -0.5167  -11.6383 H   0  0  0  0  0  0  0  0  0  0  0  0
    4.3426   -2.0050  -11.2486 H   0  0  0  0  0  0  0  0  0  0  0  0
    4.1117   -0.7349   -9.9863 H   0  0  0  0  0  0  0  0  0  0  0  0
   -3.1678    6.8964   -0.8136 H   0  0  0  0  0  0  0  0  0  0  0  0
   -3.6802    5.1856   -0.6119 H   0  0  0  0  0  0  0  0  0  0  0  0
   -5.6658    5.5915   -2.0920 H   0  0  0  0  0  0  0  0  0  0  0  0
   -5.1458    7.3152   -2.3072 H   0  0  0  0  0  0  0  0  0  0  0  0
   -5.6479    6.7160   -0.6837 H   0  0  0  0  0  0  0  0  0  0  0  0
    0.7311    4.4159   -3.9135 H   0  0  0  0  0  0  0  0  0  0  0  0
    1.7922    2.1355   -2.5699 H   0  0  0  0  0  0  0  0  0  0  0  0
   -1.7820   -0.6143    0.4177 H   0  0  0  0  0  0  0  0  0  0  0  0
   -1.3554   -1.2794   -1.1941 H   0  0  0  0  0  0  0  0  0  0  0  0
   -0.2194   -3.2434   -0.0653 H   0  0  0  0  0  0  0  0  0  0  0  0
   -1.9845   -3.1236    0.3100 H   0  0  0  0  0  0  0  0  0  0  0  0
   -0.7677   -2.6004    1.5324 H   0  0  0  0  0  0  0  0  0  0  0  0
   10.1968    3.0918   -6.1595 H   0  0  0  0  0  0  0  0  0  0  0  0
   10.9740    4.2977   -5.0800 H   0  0  0  0  0  0  0  0  0  0  0  0
   12.4250    2.5666   -4.0938 H   0  0  0  0  0  0  0  0  0  0  0  0
   12.5527    2.4914   -5.8847 H   0  0  0  0  0  0  0  0  0  0  0  0
   11.5635    1.2607   -5.0003 H   0  0  0  0  0  0  0  0  0  0  0  0
    8.4122    0.0941   -1.0600 H   0  0  0  0  0  0  0  0  0  0  0  0
   11.6507   -3.6847   -1.3063 H   0  0  0  0  0  0  0  0  0  0  0  0
   10.1872   -4.6612   -1.0742 H   0  0  0  0  0  0  0  0  0  0  0  0
   12.9528   -5.7684   -0.3209 H   0  0  0  0  0  0  0  0  0  0  0  0
   12.2000   -5.9236   -1.9531 H   0  0  0  0  0  0  0  0  0  0  0  0
   11.3876   -6.6369   -0.5127 H   0  0  0  0  0  0  0  0  0  0  0  0
   12.0385   -2.5457    2.1633 H   0  0  0  0  0  0  0  0  0  0  0  0
   11.9911   -2.0058    0.4574 H   0  0  0  0  0  0  0  0  0  0  0  0
   13.8361   -4.2250    1.5410 H   0  0  0  0  0  0  0  0  0  0  0  0
   14.2938   -2.5046    1.2647 H   0  0  0  0  0  0  0  0  0  0  0  0
   13.8349   -3.5309   -0.1395 H   0  0  0  0  0  0  0  0  0  0  0  0
    9.7247   -1.7353   -0.3365 H   0  0  0  0  0  0  0  0  0  0  0  0
   11.6331   -7.3430    3.4121 H   0  0  0  0  0  0  0  0  0  0  0  0
    9.5204   -7.9998    4.8177 H   0  0  0  0  0  0  0  0  0  0  0  0
  1  2  1  0
  2  3  1  0
  3  4  1  0
  4  5  2  0
  5  6  1  0
  6  7  1  0
  7  8  1  0
  8  9  1  0
  7 10  1  0
 10 11  1  0
  7 12  1  0
 12 13  1  0
  5 14  1  0
 14 15  2  0
 15 16  1  0
 15 17  1  0
 17 18  2  0
 18 19  1  0
 19 20  2  0
 20 21  1  0
 21 22  1  0
 22 23  1  0
 23 24  1  0
 24 25  1  0
 23 26  2  0
 26 27  1  0
 26 28  1  0
 28 29  1  0
 20 30  1  0
 30 31  2  0
 31 32  1  0
 32 33  1  0
 33 34  1  0
 34 35  1  0
 35 36  1  0
 36 37  1  0
 35 38  2  0
 38 39  1  0
 39 40  1  0
 38 41  1  0
 32 42  2  0
 42 43  1  0
 31 44  1  0
 44 45  2  0
 45 46  1  0
 45 47  1  0
 47 48  2  0
 48 49  1  0
 49 50  2  0
 50 51  1  0
 51 52  1  0
 52 53  1  0
 53 54  1  0
 54 55  1  0
 53 56  2  0
 56 57  1  0
 56 58  1  0
 58 59  1  0
 50 60  1  0
 60 61  2  0
 61 62  1  0
 62 63  1  0
 63 64  1  0
 64 65  1  0
 65 66  1  0
 66 67  1  0
 65 68  2  0
 68 69  1  0
 69 70  1  0
 68 71  1  0
 62 72  2  0
 72 73  1  0
 61 74  1  0
 74 75  2  0
 75 76  1  0
 75 77  1  0
 77 78  2  0
 78 79  1  0
 79 80  2  0
 80 81  1  0
 81 82  1  0
 82 83  1  0
 83 84  1  0
 84 85  1  0
 83 86  2  0
 86 87  1  0
 86 88  1  0
 88 89  1  0
 80 90  1  0
 90 91  2  0
 91 92  1  0
 92 93  1  0
 93 94  1  0
 94 95  1  0
 95 96  1  0
 96 97  1  0
 95 98  2  0
 98 99  1  0
 99100  1  0
 98101  1  0
 92102  2  0
102103  1  0
 91104  1  0
104105  2  0
105106  1  0
105107  1  0
107108  2  0
108109  1  0
109110  2  0
110111  1  0
111112  1  0
112113  1  0
113114  1  0
114115  1  0
113116  2  0
116117  1  0
116118  1  0
118119  1  0
110120  1  0
120121  2  0
121122  1  0
122123  1  0
123124  1  0
124125  1  0
125126  1  0
126127  1  0
125128  2  0
128129  1  0
129130  1  0
128131  1  0
122132  2  0
132133  1  0
121134  1  0
134135  2  0
135136  1  0
135137  1  0
137138  1  0
138139  1  0
139140  1  0
140141  2  0
141142  1  0
142143  1  0
143144  1  0
144145  1  0
143146  1  0
146147  1  0
143148  1  0
148149  1  0
141150  1  0
150151  2  0
151152  1  0
 13  1  2  0
 43 17  1  0
 73 47  1  0
103 77  1  0
133107  1  0
149137  2  0
 12  3  2  0
 42 19  1  0
 72 49  1  0
102 79  1  0
132109  1  0
148139  2  0
 16  4  1  0
 28 21  2  0
 46 30  1  0
 58 51  2  0
 76 60  1  0
 88 81  2  0
106 90  1  0
118111  2  0
136120  1  0
152140  1  0
 39 33  2  0
 69 63  2  0
 99 93  2  0
129123  2  0
  1153  1  0
  8154  1  0
  8155  1  0
  9156  1  0
  9157  1  0
  9158  1  0
 10159  1  0
 10160  1  0
 11161  1  0
 11162  1  0
 11163  1  0
 13164  1  0
 14165  1  0
 18166  1  0
 24167  1  0
 24168  1  0
 25169  1  0
 25170  1  0
 25171  1  0
 36172  1  0
 36173  1  0
 37174  1  0
 37175  1  0
 37176  1  0
 44177  1  0
 48178  1  0
 54179  1  0
 54180  1  0
 55181  1  0
 55182  1  0
 55183  1  0
 66184  1  0
 66185  1  0
 67186  1  0
 67187  1  0
 67188  1  0
 74189  1  0
 78190  1  0
 84191  1  0
 84192  1  0
 85193  1  0
 85194  1  0
 85195  1  0
 96196  1  0
 96197  1  0
 97198  1  0
 97199  1  0
 97200  1  0
104201  1  0
108202  1  0
114203  1  0
114204  1  0
115205  1  0
115206  1  0
115207  1  0
126208  1  0
126209  1  0
127210  1  0
127211  1  0
127212  1  0
134213  1  0
144214  1  0
144215  1  0
145216  1  0
145217  1  0
145218  1  0
146219  1  0
146220  1  0
147221  1  0
147222  1  0
147223  1  0
149224  1  0
150225  1  0
151226  1  0
M  END

