
     RDKit          3D

165182  0  0  0  0  0  0  0  0999 V2000
    2.5135    2.8198    9.5363 C   0  0  0  0  0  0  0  0  0  0  0  0
    1.5206    2.4752   10.8479 S   0  0  0  0  0  0  0  0  0  0  0  0
    1.6981    2.9934    8.4245 C   0  0  0  0  0  0  0  0  0  0  0  0
    2.1886    3.3218    7.0641 C   0  0  0  0  0  0  0  0  0  0  0  0
    3.4177    3.4784    6.8227 O   0  0  0  0  0  0  0  0  0  0  0  0
    1.1772    3.4596    6.0074 C   0  0  0  0  0  0  0  0  0  0  0  0
    1.3106    3.7325    4.6613 C   0  0  0  0  0  0  0  0  0  0  0  0
    0.0800    3.7622    4.0994 N   0  0  0  0  0  0  0  0  0  0  0  0
   -0.2251    4.0863    2.7073 C   0  0  0  0  0  0  0  0  0  0  0  0
   -0.3732    5.5941    2.5366 C   0  0  0  0  0  0  0  0  0  0  0  0
   -0.8320    3.5263    5.0718 C   0  0  0  0  0  0  0  0  0  0  0  0
   -0.1681    3.3340    6.2643 C   0  0  0  0  0  0  0  0  0  0  0  0
   -0.6897    3.0630    7.6129 C   0  0  0  0  0  0  0  0  0  0  0  0
   -1.9290    3.0319    7.8319 O   0  0  0  0  0  0  0  0  0  0  0  0
    0.3145    2.8463    8.6931 C   0  0  0  0  0  0  0  0  0  0  0  0
    0.0532    2.5157   10.0278 C   0  0  0  0  0  0  0  0  0  0  0  0
   -1.2501    2.3285   10.6829 C   0  0  0  0  0  0  0  0  0  0  0  0
   -2.1690    1.4069   10.3540 C   0  0  0  0  0  0  0  0  0  0  0  0
   -2.0274    0.3562    9.3230 C   0  0  0  0  0  0  0  0  0  0  0  0
   -0.5914   -0.2586    8.6649 S   0  0  0  0  0  0  0  0  0  0  0  0
   -1.3590   -1.3634    7.6634 C   0  0  0  0  0  0  0  0  0  0  0  0
   -0.7747   -2.2816    6.7086 C   0  0  0  0  0  0  0  0  0  0  0  0
   -1.5850   -3.1754    6.0555 C   0  0  0  0  0  0  0  0  0  0  0  0
   -2.9538   -3.2554    6.3521 O   0  0  0  0  0  0  0  0  0  0  0  0
   -3.6846   -2.1770    6.9853 C   0  0  0  0  0  0  0  0  0  0  0  0
   -4.7598   -2.8200    7.9016 C   0  0  0  0  0  0  0  0  0  0  0  0
   -5.7337   -3.7454    7.1646 C   0  0  0  0  0  0  0  0  0  0  0  0
   -4.2909   -1.3199    5.8323 C   0  0  0  0  0  0  0  0  0  0  0  0
   -5.3075   -0.2454    6.2387 C   0  0  0  0  0  0  0  0  0  0  0  0
   -2.7357   -1.3102    7.8399 C   0  0  0  0  0  0  0  0  0  0  0  0
   -3.1126   -0.3354    8.7818 C   0  0  0  0  0  0  0  0  0  0  0  0
   -0.9373   -3.9065    5.0638 C   0  0  0  0  0  0  0  0  0  0  0  0
    0.4055   -3.5391    4.9232 C   0  0  0  0  0  0  0  0  0  0  0  0
    0.7637   -2.3133    6.0410 S   0  0  0  0  0  0  0  0  0  0  0  0
    1.1873   -3.8168    3.7101 C   0  0  0  0  0  0  0  0  0  0  0  0
    0.4910   -3.7812    2.1820 S   0  0  0  0  0  0  0  0  0  0  0  0
    2.5685   -3.9851    3.5537 C   0  0  0  0  0  0  0  0  0  0  0  0
    3.5541   -4.1940    4.6455 C   0  0  0  0  0  0  0  0  0  0  0  0
    3.2217   -4.1950    5.8594 O   0  0  0  0  0  0  0  0  0  0  0  0
    4.9441   -4.4553    4.2492 C   0  0  0  0  0  0  0  0  0  0  0  0
    6.0452   -4.8005    5.0120 C   0  0  0  0  0  0  0  0  0  0  0  0
    7.0850   -5.0664    4.1848 N   0  0  0  0  0  0  0  0  0  0  0  0
    8.4212   -5.4947    4.6001 C   0  0  0  0  0  0  0  0  0  0  0  0
    9.2786   -4.2895    4.9613 C   0  0  0  0  0  0  0  0  0  0  0  0
    6.6667   -4.8742    2.9120 C   0  0  0  0  0  0  0  0  0  0  0  0
    5.3334   -4.5076    2.9331 C   0  0  0  0  0  0  0  0  0  0  0  0
    4.3907   -4.3019    1.8245 C   0  0  0  0  0  0  0  0  0  0  0  0
    4.7762   -4.3629    0.6266 O   0  0  0  0  0  0  0  0  0  0  0  0
    2.9708   -4.0538    2.1870 C   0  0  0  0  0  0  0  0  0  0  0  0
    1.9011   -3.9616    1.2891 C   0  0  0  0  0  0  0  0  0  0  0  0
    1.9349   -3.9512   -0.1828 C   0  0  0  0  0  0  0  0  0  0  0  0
    0.9726   -4.5650   -0.8739 C   0  0  0  0  0  0  0  0  0  0  0  0
    0.8037   -4.4092   -2.3308 C   0  0  0  0  0  0  0  0  0  0  0  0
    1.1919   -3.0208   -3.2022 S   0  0  0  0  0  0  0  0  0  0  0  0
    0.0549   -5.2447   -3.1702 C   0  0  0  0  0  0  0  0  0  0  0  0
   -0.5251   -6.5652   -2.7889 C   0  0  0  0  0  0  0  0  0  0  0  0
   -0.2732   -7.1197   -1.6870 O   0  0  0  0  0  0  0  0  0  0  0  0
   -1.3914   -7.2277   -3.7721 C   0  0  0  0  0  0  0  0  0  0  0  0
   -2.1041   -8.4096   -3.6936 C   0  0  0  0  0  0  0  0  0  0  0  0
   -2.7553   -8.6044   -4.8642 N   0  0  0  0  0  0  0  0  0  0  0  0
   -3.5851   -9.7536   -5.2047 C   0  0  0  0  0  0  0  0  0  0  0  0
   -2.7117  -10.8990   -5.7169 C   0  0  0  0  0  0  0  0  0  0  0  0
   -2.4499   -7.5762   -5.6888 C   0  0  0  0  0  0  0  0  0  0  0  0
   -1.6102   -6.7051   -5.0206 C   0  0  0  0  0  0  0  0  0  0  0  0
   -0.9922   -5.4499   -5.4646 C   0  0  0  0  0  0  0  0  0  0  0  0
   -1.1708   -5.0414   -6.6409 O   0  0  0  0  0  0  0  0  0  0  0  0
   -0.1545   -4.7077   -4.4725 C   0  0  0  0  0  0  0  0  0  0  0  0
    0.4328   -3.4415   -4.6509 C   0  0  0  0  0  0  0  0  0  0  0  0
    0.2784   -2.5448   -5.8211 C   0  0  0  0  0  0  0  0  0  0  0  0
    0.5790   -1.2415   -5.7873 C   0  0  0  0  0  0  0  0  0  0  0  0
    0.2084   -0.3441   -6.9044 C   0  0  0  0  0  0  0  0  0  0  0  0
   -1.0424   -0.6592   -7.9949 S   0  0  0  0  0  0  0  0  0  0  0  0
    0.6918    0.9442   -7.1714 C   0  0  0  0  0  0  0  0  0  0  0  0
    1.8047    1.6380   -6.4626 C   0  0  0  0  0  0  0  0  0  0  0  0
    2.4338    1.1008   -5.5117 O   0  0  0  0  0  0  0  0  0  0  0  0
    2.1562    2.9879   -6.9290 C   0  0  0  0  0  0  0  0  0  0  0  0
    3.1204    3.8733   -6.4850 C   0  0  0  0  0  0  0  0  0  0  0  0
    3.1070    4.9656   -7.2834 N   0  0  0  0  0  0  0  0  0  0  0  0
    3.9525    6.1488   -7.1396 C   0  0  0  0  0  0  0  0  0  0  0  0
    3.2563    7.1891   -6.2701 C   0  0  0  0  0  0  0  0  0  0  0  0
    2.1466    4.7894   -8.2203 C   0  0  0  0  0  0  0  0  0  0  0  0
    1.5490    3.5663   -8.0168 C   0  0  0  0  0  0  0  0  0  0  0  0
    0.5131    2.8786   -8.7903 C   0  0  0  0  0  0  0  0  0  0  0  0
    0.1184    3.3384   -9.8955 O   0  0  0  0  0  0  0  0  0  0  0  0
    0.0312    1.5757   -8.2635 C   0  0  0  0  0  0  0  0  0  0  0  0
   -1.0173    0.8162   -8.7943 C   0  0  0  0  0  0  0  0  0  0  0  0
   -2.0341    1.2021   -9.7923 C   0  0  0  0  0  0  0  0  0  0  0  0
   -2.7782    2.3163   -9.7397 C   0  0  0  0  0  0  0  0  0  0  0  0
   -2.6799    3.3525   -8.6951 C   0  0  0  0  0  0  0  0  0  0  0  0
   -2.4112    4.9732   -9.0437 S   0  0  0  0  0  0  0  0  0  0  0  0
   -2.7389    3.2141   -7.3034 C   0  0  0  0  0  0  0  0  0  0  0  0
   -3.1220    1.9811   -6.5625 C   0  0  0  0  0  0  0  0  0  0  0  0
   -3.5754    0.9617   -7.1517 O   0  0  0  0  0  0  0  0  0  0  0  0
   -3.0422    2.0278   -5.0984 C   0  0  0  0  0  0  0  0  0  0  0  0
   -3.2775    1.0497   -4.1537 C   0  0  0  0  0  0  0  0  0  0  0  0
   -3.1319    1.5938   -2.9223 N   0  0  0  0  0  0  0  0  0  0  0  0
   -3.2777    0.8926   -1.6483 C   0  0  0  0  0  0  0  0  0  0  0  0
   -1.9125    0.4861   -1.1038 C   0  0  0  0  0  0  0  0  0  0  0  0
   -2.7958    2.8953   -3.0733 C   0  0  0  0  0  0  0  0  0  0  0  0
   -2.7356    3.1820   -4.4201 C   0  0  0  0  0  0  0  0  0  0  0  0
   -2.4509    4.4457   -5.1097 C   0  0  0  0  0  0  0  0  0  0  0  0
   -2.1750    5.4819   -4.4522 O   0  0  0  0  0  0  0  0  0  0  0  0
   -2.4802    4.4303   -6.6035 C   0  0  0  0  0  0  0  0  0  0  0  0
   -2.2815    5.5306   -7.4575 C   0  0  0  0  0  0  0  0  0  0  0  0
   -2.0055    6.9354   -7.0781 C   0  0  0  0  0  0  0  0  0  0  0  0
   -1.8030    7.8972   -7.9801 C   0  0  0  0  0  0  0  0  0  0  0  0
    3.5920    2.8898    9.5586 H   0  0  0  0  0  0  0  0  0  0  0  0
    2.2365    3.9138    4.1337 H   0  0  0  0  0  0  0  0  0  0  0  0
   -1.1749    3.5896    2.4095 H   0  0  0  0  0  0  0  0  0  0  0  0
    0.5841    3.7094    2.0443 H   0  0  0  0  0  0  0  0  0  0  0  0
   -1.0864    5.9926    3.2890 H   0  0  0  0  0  0  0  0  0  0  0  0
    0.6129    6.0901    2.6684 H   0  0  0  0  0  0  0  0  0  0  0  0
   -0.7586    5.8192    1.5240 H   0  0  0  0  0  0  0  0  0  0  0  0
   -1.9058    3.5157    4.9256 H   0  0  0  0  0  0  0  0  0  0  0  0
   -1.4640    2.9729   11.5267 H   0  0  0  0  0  0  0  0  0  0  0  0
   -3.1049    1.4269   10.9038 H   0  0  0  0  0  0  0  0  0  0  0  0
   -5.3492   -2.0439    8.4378 H   0  0  0  0  0  0  0  0  0  0  0  0
   -4.2386   -3.4234    8.6794 H   0  0  0  0  0  0  0  0  0  0  0  0
   -6.3538   -3.1708    6.4420 H   0  0  0  0  0  0  0  0  0  0  0  0
   -6.4200   -4.2098    7.9025 H   0  0  0  0  0  0  0  0  0  0  0  0
   -5.1855   -4.5520    6.6311 H   0  0  0  0  0  0  0  0  0  0  0  0
   -4.7826   -1.9967    5.1006 H   0  0  0  0  0  0  0  0  0  0  0  0
   -3.4596   -0.8220    5.2794 H   0  0  0  0  0  0  0  0  0  0  0  0
   -4.8318    0.5405    6.8587 H   0  0  0  0  0  0  0  0  0  0  0  0
   -6.1736   -0.6882    6.7741 H   0  0  0  0  0  0  0  0  0  0  0  0
   -5.6972    0.2399    5.3174 H   0  0  0  0  0  0  0  0  0  0  0  0
   -4.1395   -0.1219    9.0534 H   0  0  0  0  0  0  0  0  0  0  0  0
   -1.4479   -4.5984    4.4040 H   0  0  0  0  0  0  0  0  0  0  0  0
    6.0774   -4.8949    6.0947 H   0  0  0  0  0  0  0  0  0  0  0  0
    8.3373   -6.1607    5.4872 H   0  0  0  0  0  0  0  0  0  0  0  0
    8.9074   -6.0691    3.7797 H   0  0  0  0  0  0  0  0  0  0  0  0
    9.3759   -3.6083    4.0855 H   0  0  0  0  0  0  0  0  0  0  0  0
   10.2900   -4.6406    5.2626 H   0  0  0  0  0  0  0  0  0  0  0  0
    8.8236   -3.7335    5.8119 H   0  0  0  0  0  0  0  0  0  0  0  0
    7.2769   -5.0403    2.0315 H   0  0  0  0  0  0  0  0  0  0  0  0
    2.7100   -3.3878   -0.6881 H   0  0  0  0  0  0  0  0  0  0  0  0
    0.2413   -5.1576   -0.3393 H   0  0  0  0  0  0  0  0  0  0  0  0
   -2.1442   -9.0785   -2.8423 H   0  0  0  0  0  0  0  0  0  0  0  0
   -4.3222   -9.4674   -5.9910 H   0  0  0  0  0  0  0  0  0  0  0  0
   -4.1535  -10.0905   -4.3060 H   0  0  0  0  0  0  0  0  0  0  0  0
   -2.0679  -11.2770   -4.8997 H   0  0  0  0  0  0  0  0  0  0  0  0
   -3.3566  -11.7283   -6.0789 H   0  0  0  0  0  0  0  0  0  0  0  0
   -2.0720  -10.5525   -6.5567 H   0  0  0  0  0  0  0  0  0  0  0  0
   -2.8108   -7.4649   -6.7053 H   0  0  0  0  0  0  0  0  0  0  0  0
   -0.1478   -2.9433   -6.7238 H   0  0  0  0  0  0  0  0  0  0  0  0
    1.0276   -0.8153   -4.9031 H   0  0  0  0  0  0  0  0  0  0  0  0
    3.7924    3.7261   -5.6464 H   0  0  0  0  0  0  0  0  0  0  0  0
    4.9247    5.8655   -6.6767 H   0  0  0  0  0  0  0  0  0  0  0  0
    4.1658    6.5873   -8.1406 H   0  0  0  0  0  0  0  0  0  0  0  0
    3.0497    6.7661   -5.2623 H   0  0  0  0  0  0  0  0  0  0  0  0
    3.9064    8.0803   -6.1582 H   0  0  0  0  0  0  0  0  0  0  0  0
    2.2968    7.5041   -6.7371 H   0  0  0  0  0  0  0  0  0  0  0  0
    1.9043    5.5014   -8.9991 H   0  0  0  0  0  0  0  0  0  0  0  0
   -2.2411    0.4982  -10.5857 H   0  0  0  0  0  0  0  0  0  0  0  0
   -3.4548    2.5130  -10.5615 H   0  0  0  0  0  0  0  0  0  0  0  0
   -3.5417    0.0187   -4.3490 H   0  0  0  0  0  0  0  0  0  0  0  0
   -3.7894    1.5574   -0.9165 H   0  0  0  0  0  0  0  0  0  0  0  0
   -3.9096   -0.0166   -1.7805 H   0  0  0  0  0  0  0  0  0  0  0  0
   -2.0387   -0.0241   -0.1267 H   0  0  0  0  0  0  0  0  0  0  0  0
   -1.4096   -0.2061   -1.8127 H   0  0  0  0  0  0  0  0  0  0  0  0
   -1.2771    1.3859   -0.9588 H   0  0  0  0  0  0  0  0  0  0  0  0
   -2.6133    3.5862   -2.2608 H   0  0  0  0  0  0  0  0  0  0  0  0
   -1.9690    7.2204   -6.0405 H   0  0  0  0  0  0  0  0  0  0  0  0
   -1.8203    7.6990   -9.0441 H   0  0  0  0  0  0  0  0  0  0  0  0
   -1.6151    8.9099   -7.6526 H   0  0  0  0  0  0  0  0  0  0  0  0
  1  2  1  0
  1  3  2  0
  3  4  1  0
  4  5  2  0
  4  6  1  0
  6  7  2  0
  7  8  1  0
  8  9  1  0
  9 10  1  0
  8 11  1  0
 11 12  2  0
 12 13  1  0
 13 14  2  0
 13 15  1  0
 15 16  2  0
 16 17  1  0
 17 18  2  3
 18 19  1  0
 19 20  1  0
 20 21  1  0
 21 22  1  0
 22 23  2  0
 23 24  1  0
 24 25  1  0
 25 26  1  0
 26 27  1  0
 25 28  1  0
 28 29  1  0
 25 30  1  0
 30 31  1  0
 23 32  1  0
 32 33  2  0
 33 34  1  0
 33 35  1  0
 35 36  1  0
 35 37  2  0
 37 38  1  0
 38 39  2  0
 38 40  1  0
 40 41  2  0
 41 42  1  0
 42 43  1  0
 43 44  1  0
 42 45  1  0
 45 46  2  0
 46 47  1  0
 47 48  2  0
 47 49  1  0
 49 50  2  0
 50 51  1  0
 51 52  2  3
 52 53  1  0
 53 54  1  0
 53 55  2  0
 55 56  1  0
 56 57  2  0
 56 58  1  0
 58 59  2  0
 59 60  1  0
 60 61  1  0
 61 62  1  0
 60 63  1  0
 63 64  2  0
 64 65  1  0
 65 66  2  0
 65 67  1  0
 67 68  2  0
 68 69  1  0
 69 70  2  3
 70 71  1  0
 71 72  1  0
 71 73  2  0
 73 74  1  0
 74 75  2  0
 74 76  1  0
 76 77  2  0
 77 78  1  0
 78 79  1  0
 79 80  1  0
 78 81  1  0
 81 82  2  0
 82 83  1  0
 83 84  2  0
 83 85  1  0
 85 86  2  0
 86 87  1  0
 87 88  2  3
 88 89  1  0
 89 90  1  0
 89 91  2  0
 91 92  1  0
 92 93  2  0
 92 94  1  0
 94 95  2  0
 95 96  1  0
 96 97  1  0
 97 98  1  0
 96 99  1  0
 99100  2  0
100101  1  0
101102  2  0
101103  1  0
103104  2  0
104105  1  0
105106  2  3
 16  2  1  0
 31 19  2  0
 50 36  1  0
 68 54  1  0
 86 72  1  0
104 90  1  0
 15  3  1  0
 30 21  2  0
 49 37  1  0
 67 55  1  0
 85 73  1  0
103 91  1  0
 12  6  1  0
 34 22  1  0
 46 40  1  0
 64 58  1  0
 82 76  1  0
100 94  1  0
  1107  1  0
  7108  1  0
  9109  1  0
  9110  1  0
 10111  1  0
 10112  1  0
 10113  1  0
 11114  1  0
 17115  1  0
 18116  1  0
 26117  1  0
 26118  1  0
 27119  1  0
 27120  1  0
 27121  1  0
 28122  1  0
 28123  1  0
 29124  1  0
 29125  1  0
 29126  1  0
 31127  1  0
 32128  1  0
 41129  1  0
 43130  1  0
 43131  1  0
 44132  1  0
 44133  1  0
 44134  1  0
 45135  1  0
 51136  1  0
 52137  1  0
 59138  1  0
 61139  1  0
 61140  1  0
 62141  1  0
 62142  1  0
 62143  1  0
 63144  1  0
 69145  1  0
 70146  1  0
 77147  1  0
 79148  1  0
 79149  1  0
 80150  1  0
 80151  1  0
 80152  1  0
 81153  1  0
 87154  1  0
 88155  1  0
 95156  1  0
 97157  1  0
 97158  1  0
 98159  1  0
 98160  1  0
 98161  1  0
 99162  1  0
105163  1  0
106164  1  0
106165  1  0
M  END

