
     RDKit          3D

 75 87  0  0  0  0  0  0  0  0999 V2000
    5.6206   -1.2448   11.9747 C   0  0  0  0  0  0  0  0  0  0  0  0
    4.6640   -1.7391   10.6537 S   0  0  0  0  0  0  0  0  0  0  0  0
    4.9214   -0.4050    9.6282 C   0  0  0  0  0  0  0  0  0  0  0  0
    5.7648    0.4177   10.3487 C   0  0  0  0  0  0  0  0  0  0  0  0
    6.1277   -0.0241   11.5729 C   0  0  0  0  0  0  0  0  0  0  0  0
    6.9203    0.8498   12.1340 O   0  0  0  0  0  0  0  0  0  0  0  0
    7.0217    1.8141   11.2257 C   0  0  0  0  0  0  0  0  0  0  0  0
    7.7126    2.8523   11.3954 O   0  0  0  0  0  0  0  0  0  0  0  0
    6.3236    1.5765   10.1208 O   0  0  0  0  0  0  0  0  0  0  0  0
    4.3610   -0.1971    8.2880 C   0  0  0  0  0  0  0  0  0  0  0  0
    3.3198   -1.2470    7.4400 S   0  0  0  0  0  0  0  0  0  0  0  0
    3.1358   -0.3141    6.0257 C   0  0  0  0  0  0  0  0  0  0  0  0
    3.9017    0.8140    6.2488 C   0  0  0  0  0  0  0  0  0  0  0  0
    4.5448    0.8762    7.4348 C   0  0  0  0  0  0  0  0  0  0  0  0
    5.2226    1.9912    7.5032 O   0  0  0  0  0  0  0  0  0  0  0  0
    4.9717    2.5865    6.3423 C   0  0  0  0  0  0  0  0  0  0  0  0
    5.4527    3.7045    6.0221 O   0  0  0  0  0  0  0  0  0  0  0  0
    4.1642    1.8877    5.5521 O   0  0  0  0  0  0  0  0  0  0  0  0
    2.3356   -0.6390    4.8410 C   0  0  0  0  0  0  0  0  0  0  0  0
    2.1410    0.3010    3.4327 S   0  0  0  0  0  0  0  0  0  0  0  0
    1.0935   -0.7457    2.5869 C   0  0  0  0  0  0  0  0  0  0  0  0
    0.9161   -1.8220    3.4370 C   0  0  0  0  0  0  0  0  0  0  0  0
    1.5674   -1.7656    4.6185 C   0  0  0  0  0  0  0  0  0  0  0  0
    1.3062   -2.8412    5.3128 O   0  0  0  0  0  0  0  0  0  0  0  0
    0.4913   -3.5348    4.5253 C   0  0  0  0  0  0  0  0  0  0  0  0
    0.0092   -4.6527    4.8446 O   0  0  0  0  0  0  0  0  0  0  0  0
    0.2340   -2.9344    3.3683 O   0  0  0  0  0  0  0  0  0  0  0  0
    0.5075   -0.5361    1.2569 C   0  0  0  0  0  0  0  0  0  0  0  0
   -0.5379   -1.6069    0.4749 S   0  0  0  0  0  0  0  0  0  0  0  0
   -0.7265   -0.6431   -0.8852 C   0  0  0  0  0  0  0  0  0  0  0  0
   -1.4574   -0.9287   -2.1026 C   0  0  0  0  0  0  0  0  0  0  0  0
   -1.3221   -0.0904   -3.1808 C   0  0  0  0  0  0  0  0  0  0  0  0
   -0.5192    1.0574   -3.1057 O   0  0  0  0  0  0  0  0  0  0  0  0
   -0.0321    1.6098   -1.8563 C   0  0  0  0  0  0  0  0  0  0  0  0
   -1.0447    2.7132   -1.4361 C   0  0  0  0  0  0  0  0  0  0  0  0
   -0.6616    3.5402   -0.2048 C   0  0  0  0  0  0  0  0  0  0  0  0
    1.3962    2.1589   -2.1194 C   0  0  0  0  0  0  0  0  0  0  0  0
    1.4600    3.2099   -3.2310 C   0  0  0  0  0  0  0  0  0  0  0  0
    0.0217    0.5191   -0.7701 C   0  0  0  0  0  0  0  0  0  0  0  0
    0.7190    0.5804    0.4493 C   0  0  0  0  0  0  0  0  0  0  0  0
   -2.0110   -0.5177   -4.3167 C   0  0  0  0  0  0  0  0  0  0  0  0
   -2.6922   -1.7170   -4.0990 C   0  0  0  0  0  0  0  0  0  0  0  0
   -2.4226   -2.2397   -2.5093 S   0  0  0  0  0  0  0  0  0  0  0  0
   -3.5084   -2.4243   -5.0940 C   0  0  0  0  0  0  0  0  0  0  0  0
   -3.8248   -1.9501   -6.7009 S   0  0  0  0  0  0  0  0  0  0  0  0
   -4.8182   -3.2598   -7.1505 C   0  0  0  0  0  0  0  0  0  0  0  0
   -4.8831   -4.0522   -6.0188 C   0  0  0  0  0  0  0  0  0  0  0  0
   -4.1965   -3.6138   -4.9413 C   0  0  0  0  0  0  0  0  0  0  0  0
   -4.3490   -4.4564   -3.9542 O   0  0  0  0  0  0  0  0  0  0  0  0
   -5.1348   -5.3992   -4.4623 C   0  0  0  0  0  0  0  0  0  0  0  0
   -5.5169   -6.4049   -3.8093 O   0  0  0  0  0  0  0  0  0  0  0  0
   -5.4783   -5.1779   -5.7262 O   0  0  0  0  0  0  0  0  0  0  0  0
   -5.4569   -3.4752   -8.4541 C   0  0  0  0  0  0  0  0  0  0  0  0
   -5.3488   -2.4769   -9.8288 S   0  0  0  0  0  0  0  0  0  0  0  0
   -6.3356   -3.3777  -10.8869 C   0  0  0  0  0  0  0  0  0  0  0  0
   -6.7335   -4.4581  -10.1232 C   0  0  0  0  0  0  0  0  0  0  0  0
   -6.2767   -4.5125   -8.8529 C   0  0  0  0  0  0  0  0  0  0  0  0
   -6.7406   -5.5853   -8.2690 O   0  0  0  0  0  0  0  0  0  0  0  0
   -7.4773   -6.1646   -9.2104 C   0  0  0  0  0  0  0  0  0  0  0  0
   -8.1015   -7.2427   -9.0321 O   0  0  0  0  0  0  0  0  0  0  0  0
   -7.4915   -5.4958  -10.3582 O   0  0  0  0  0  0  0  0  0  0  0  0
    5.7931   -1.7604   12.9095 H   0  0  0  0  0  0  0  0  0  0  0  0
   -1.2072    3.4091   -2.2867 H   0  0  0  0  0  0  0  0  0  0  0  0
   -2.0301    2.2366   -1.2374 H   0  0  0  0  0  0  0  0  0  0  0  0
   -1.4426    4.3098   -0.0301 H   0  0  0  0  0  0  0  0  0  0  0  0
   -0.6107    2.9060    0.7022 H   0  0  0  0  0  0  0  0  0  0  0  0
    0.3016    4.0676   -0.3555 H   0  0  0  0  0  0  0  0  0  0  0  0
    2.0499    1.3094   -2.4168 H   0  0  0  0  0  0  0  0  0  0  0  0
    1.8377    2.5946   -1.1999 H   0  0  0  0  0  0  0  0  0  0  0  0
    1.0146    2.8213   -4.1706 H   0  0  0  0  0  0  0  0  0  0  0  0
    2.5212    3.4687   -3.4303 H   0  0  0  0  0  0  0  0  0  0  0  0
    0.9340    4.1380   -2.9265 H   0  0  0  0  0  0  0  0  0  0  0  0
    1.3456    1.4110    0.7442 H   0  0  0  0  0  0  0  0  0  0  0  0
   -2.0081    0.0201   -5.2557 H   0  0  0  0  0  0  0  0  0  0  0  0
   -6.5931   -3.1598  -11.9143 H   0  0  0  0  0  0  0  0  0  0  0  0
  1  2  1  0
  2  3  1  0
  3  4  2  0
  4  5  1  0
  5  6  1  0
  6  7  1  0
  7  8  2  0
  7  9  1  0
  3 10  1  0
 10 11  1  0
 11 12  1  0
 12 13  2  0
 13 14  1  0
 14 15  1  0
 15 16  1  0
 16 17  2  0
 16 18  1  0
 12 19  1  0
 19 20  1  0
 20 21  1  0
 21 22  2  0
 22 23  1  0
 23 24  1  0
 24 25  1  0
 25 26  2  0
 25 27  1  0
 21 28  1  0
 28 29  1  0
 29 30  1  0
 30 31  1  0
 31 32  2  0
 32 33  1  0
 33 34  1  0
 34 35  1  0
 35 36  1  0
 34 37  1  0
 37 38  1  0
 34 39  1  0
 39 40  1  0
 32 41  1  0
 41 42  2  0
 42 43  1  0
 42 44  1  0
 44 45  1  0
 45 46  1  0
 46 47  2  0
 47 48  1  0
 48 49  1  0
 49 50  1  0
 50 51  2  0
 50 52  1  0
 46 53  1  0
 53 54  1  0
 54 55  1  0
 55 56  2  0
 56 57  1  0
 57 58  1  0
 58 59  1  0
 59 60  2  0
 59 61  1  0
  5  1  2  0
 14 10  2  0
 23 19  2  0
 40 28  2  0
 48 44  2  0
 57 53  2  0
  9  4  1  0
 18 13  1  0
 27 22  1  0
 39 30  2  0
 52 47  1  0
 61 56  1  0
 43 31  1  0
  1 62  1  0
 35 63  1  0
 35 64  1  0
 36 65  1  0
 36 66  1  0
 36 67  1  0
 37 68  1  0
 37 69  1  0
 38 70  1  0
 38 71  1  0
 38 72  1  0
 40 73  1  0
 41 74  1  0
 55 75  1  0
M  END

