
     RDKit          3D

248277  0  0  0  0  0  0  0  0999 V2000
    0.4964   -0.2024   10.4829 C   0  0  0  0  0  0  0  0  0  0  0  0
    0.1992    0.8362    9.6075 C   0  0  0  0  0  0  0  0  0  0  0  0
   -0.6977    0.4664    8.5911 C   0  0  0  0  0  0  0  0  0  0  0  0
   -1.1647    1.2910    7.5451 C   0  0  0  0  0  0  0  0  0  0  0  0
   -0.6184    2.6445    7.3148 C   0  0  0  0  0  0  0  0  0  0  0  0
    0.7379    2.9397    7.1631 C   0  0  0  0  0  0  0  0  0  0  0  0
    0.9620    4.2854    6.8659 C   0  0  0  0  0  0  0  0  0  0  0  0
    2.2028    4.8747    6.6113 C   0  0  0  0  0  0  0  0  0  0  0  0
    2.2548    6.2477    6.2889 C   0  0  0  0  0  0  0  0  0  0  0  0
    3.5717    6.8906    5.9435 C   0  0  0  0  0  0  0  0  0  0  0  0
    3.8702    6.7326    4.4544 C   0  0  0  0  0  0  0  0  0  0  0  0
    1.0582    6.9966    6.2122 C   0  0  0  0  0  0  0  0  0  0  0  0
   -0.1806    6.3906    6.4682 C   0  0  0  0  0  0  0  0  0  0  0  0
   -0.1988    5.0377    6.7935 C   0  0  0  0  0  0  0  0  0  0  0  0
   -1.5311    4.0549    7.0859 S   0  0  0  0  0  0  0  0  0  0  0  0
   -2.1008    0.7218    6.6626 C   0  0  0  0  0  0  0  0  0  0  0  0
   -2.5169   -0.6120    6.7569 C   0  0  0  0  0  0  0  0  0  0  0  0
   -2.0087   -1.4489    7.7727 C   0  0  0  0  0  0  0  0  0  0  0  0
   -2.3243   -2.8906    7.8283 C   0  0  0  0  0  0  0  0  0  0  0  0
   -2.9638   -3.7085    9.1650 S   0  0  0  0  0  0  0  0  0  0  0  0
   -2.9821   -5.2104    8.4148 C   0  0  0  0  0  0  0  0  0  0  0  0
   -3.3933   -6.4305    8.9409 C   0  0  0  0  0  0  0  0  0  0  0  0
   -3.3117   -7.5684    8.1243 C   0  0  0  0  0  0  0  0  0  0  0  0
   -2.8271   -7.4685    6.7989 C   0  0  0  0  0  0  0  0  0  0  0  0
   -2.7242   -8.6952    5.9301 C   0  0  0  0  0  0  0  0  0  0  0  0
   -1.3269   -9.3053    6.0111 C   0  0  0  0  0  0  0  0  0  0  0  0
   -2.4024   -6.2179    6.3008 C   0  0  0  0  0  0  0  0  0  0  0  0
   -2.4951   -5.0951    7.1238 C   0  0  0  0  0  0  0  0  0  0  0  0
   -2.1199   -3.7940    6.7840 C   0  0  0  0  0  0  0  0  0  0  0  0
   -1.1199   -0.8639    8.6906 C   0  0  0  0  0  0  0  0  0  0  0  0
   -0.3514   -1.5782   10.0074 S   0  0  0  0  0  0  0  0  0  0  0  0
   -3.4268   -0.9821    5.7525 C   0  0  0  0  0  0  0  0  0  0  0  0
   -3.7065    0.0533    4.8595 C   0  0  0  0  0  0  0  0  0  0  0  0
   -2.8284    1.4204    5.3157 S   0  0  0  0  0  0  0  0  0  0  0  0
   -4.5268   -0.0490    3.6407 C   0  0  0  0  0  0  0  0  0  0  0  0
   -5.1236   -1.2114    3.1524 C   0  0  0  0  0  0  0  0  0  0  0  0
   -5.6595   -1.0561    1.8623 C   0  0  0  0  0  0  0  0  0  0  0  0
   -6.2174   -2.0696    1.0535 C   0  0  0  0  0  0  0  0  0  0  0  0
   -6.3533   -3.4656    1.5160 C   0  0  0  0  0  0  0  0  0  0  0  0
   -7.5324   -4.2122    1.4768 C   0  0  0  0  0  0  0  0  0  0  0  0
   -7.3564   -5.5113    1.9578 C   0  0  0  0  0  0  0  0  0  0  0  0
   -8.3455   -6.4909    2.0606 C   0  0  0  0  0  0  0  0  0  0  0  0
   -8.0012   -7.7585    2.5767 C   0  0  0  0  0  0  0  0  0  0  0  0
   -9.0576   -8.8173    2.7366 C   0  0  0  0  0  0  0  0  0  0  0  0
   -9.8417   -8.6090    4.0293 C   0  0  0  0  0  0  0  0  0  0  0  0
   -6.6741   -8.0096    2.9972 C   0  0  0  0  0  0  0  0  0  0  0  0
   -5.6905   -7.0149    2.8866 C   0  0  0  0  0  0  0  0  0  0  0  0
   -6.0590   -5.7808    2.3647 C   0  0  0  0  0  0  0  0  0  0  0  0
   -5.0982   -4.4252    2.1298 S   0  0  0  0  0  0  0  0  0  0  0  0
   -6.5800   -1.7071   -0.2581 C   0  0  0  0  0  0  0  0  0  0  0  0
   -6.4355   -0.4053   -0.7494 C   0  0  0  0  0  0  0  0  0  0  0  0
   -5.9295    0.6205    0.0769 C   0  0  0  0  0  0  0  0  0  0  0  0
   -5.7446    2.0061   -0.3998 C   0  0  0  0  0  0  0  0  0  0  0  0
   -4.7838    2.4732   -1.7148 S   0  0  0  0  0  0  0  0  0  0  0  0
   -5.0903    4.1178   -1.5394 C   0  0  0  0  0  0  0  0  0  0  0  0
   -4.6250    5.1723   -2.3227 C   0  0  0  0  0  0  0  0  0  0  0  0
   -5.0167    6.4768   -1.9825 C   0  0  0  0  0  0  0  0  0  0  0  0
   -5.8621    6.7078   -0.8734 C   0  0  0  0  0  0  0  0  0  0  0  0
   -6.3020    8.1083   -0.5376 C   0  0  0  0  0  0  0  0  0  0  0  0
   -7.5791    8.4715   -1.2925 C   0  0  0  0  0  0  0  0  0  0  0  0
   -6.3279    5.6163   -0.1082 C   0  0  0  0  0  0  0  0  0  0  0  0
   -5.9279    4.3235   -0.4544 C   0  0  0  0  0  0  0  0  0  0  0  0
   -6.2967    3.1431    0.1972 C   0  0  0  0  0  0  0  0  0  0  0  0
   -5.5368    0.2511    1.3749 C   0  0  0  0  0  0  0  0  0  0  0  0
   -4.7153    1.1860    2.5080 S   0  0  0  0  0  0  0  0  0  0  0  0
   -6.7381   -0.2971   -2.1162 C   0  0  0  0  0  0  0  0  0  0  0  0
   -7.0467   -1.5191   -2.7132 C   0  0  0  0  0  0  0  0  0  0  0  0
   -7.0173   -2.7247   -1.5299 S   0  0  0  0  0  0  0  0  0  0  0  0
   -7.0205   -1.7617   -4.1671 C   0  0  0  0  0  0  0  0  0  0  0  0
   -6.5133   -0.6120   -5.2907 S   0  0  0  0  0  0  0  0  0  0  0  0
   -6.3397   -1.6909   -6.5600 C   0  0  0  0  0  0  0  0  0  0  0  0
   -5.5636   -1.4803   -7.7649 C   0  0  0  0  0  0  0  0  0  0  0  0
   -5.0563   -2.5716   -8.4342 C   0  0  0  0  0  0  0  0  0  0  0  0
   -5.4489   -3.8739   -8.0909 O   0  0  0  0  0  0  0  0  0  0  0  0
   -6.4370   -4.1846   -7.0763 C   0  0  0  0  0  0  0  0  0  0  0  0
   -7.7692   -4.4978   -7.8135 C   0  0  0  0  0  0  0  0  0  0  0  0
   -8.8968   -5.0329   -6.9271 C   0  0  0  0  0  0  0  0  0  0  0  0
   -5.8956   -5.4029   -6.2751 C   0  0  0  0  0  0  0  0  0  0  0  0
   -5.5471   -6.6128   -7.1474 C   0  0  0  0  0  0  0  0  0  0  0  0
   -6.6455   -2.9780   -6.1374 C   0  0  0  0  0  0  0  0  0  0  0  0
   -7.0523   -3.0126   -4.7866 C   0  0  0  0  0  0  0  0  0  0  0  0
   -4.0177   -2.2617   -9.3209 C   0  0  0  0  0  0  0  0  0  0  0  0
   -3.6641   -0.9086   -9.2783 C   0  0  0  0  0  0  0  0  0  0  0  0
   -4.6783   -0.1178   -8.1805 S   0  0  0  0  0  0  0  0  0  0  0  0
   -2.3912   -0.3403   -9.7592 C   0  0  0  0  0  0  0  0  0  0  0  0
   -1.7068    1.0705   -9.1340 S   0  0  0  0  0  0  0  0  0  0  0  0
   -0.2036    0.8459   -9.8356 C   0  0  0  0  0  0  0  0  0  0  0  0
    1.0372    1.5158   -9.4864 C   0  0  0  0  0  0  0  0  0  0  0  0
    2.2272    0.8814   -9.7599 C   0  0  0  0  0  0  0  0  0  0  0  0
    2.2703   -0.2804  -10.5432 O   0  0  0  0  0  0  0  0  0  0  0  0
    1.1129   -0.8490  -11.2074 C   0  0  0  0  0  0  0  0  0  0  0  0
    1.2091   -2.3953  -11.0687 C   0  0  0  0  0  0  0  0  0  0  0  0
    2.5231   -2.9907  -11.5763 C   0  0  0  0  0  0  0  0  0  0  0  0
    1.0861   -0.4114  -12.7078 C   0  0  0  0  0  0  0  0  0  0  0  0
    2.4403    0.0700  -13.2461 C   0  0  0  0  0  0  0  0  0  0  0  0
   -0.1823   -0.3537  -10.5376 C   0  0  0  0  0  0  0  0  0  0  0  0
   -1.4302   -1.0089  -10.5204 C   0  0  0  0  0  0  0  0  0  0  0  0
    3.3204    1.4053   -9.0681 C   0  0  0  0  0  0  0  0  0  0  0  0
    2.9644    2.4513   -8.2163 C   0  0  0  0  0  0  0  0  0  0  0  0
    1.2963    2.7102   -8.3303 S   0  0  0  0  0  0  0  0  0  0  0  0
    3.7808    2.8908   -7.0822 C   0  0  0  0  0  0  0  0  0  0  0  0
    4.6948    1.8239   -6.1508 S   0  0  0  0  0  0  0  0  0  0  0  0
    5.0227    2.9399   -4.9468 C   0  0  0  0  0  0  0  0  0  0  0  0
    5.6862    2.7116   -3.6833 C   0  0  0  0  0  0  0  0  0  0  0  0
    5.8727    3.7569   -2.8159 C   0  0  0  0  0  0  0  0  0  0  0  0
    5.4947    5.0580   -3.1864 O   0  0  0  0  0  0  0  0  0  0  0  0
    4.5019    5.3219   -4.2150 C   0  0  0  0  0  0  0  0  0  0  0  0
    4.8922    6.6501   -4.9145 C   0  0  0  0  0  0  0  0  0  0  0  0
    6.3103    6.6257   -5.4899 C   0  0  0  0  0  0  0  0  0  0  0  0
    3.1457    5.4493   -3.4633 C   0  0  0  0  0  0  0  0  0  0  0  0
    1.9530    5.9816   -4.2676 C   0  0  0  0  0  0  0  0  0  0  0  0
    4.4397    4.1646   -5.2346 C   0  0  0  0  0  0  0  0  0  0  0  0
    3.7189    4.1333   -6.4466 C   0  0  0  0  0  0  0  0  0  0  0  0
    6.3673    3.3746   -1.5637 C   0  0  0  0  0  0  0  0  0  0  0  0
    6.4970    1.9854   -1.4580 C   0  0  0  0  0  0  0  0  0  0  0  0
    6.0291    1.2632   -2.9152 S   0  0  0  0  0  0  0  0  0  0  0  0
    6.6026    1.2389   -0.2004 C   0  0  0  0  0  0  0  0  0  0  0  0
    7.5771    1.3820    0.7883 C   0  0  0  0  0  0  0  0  0  0  0  0
    7.3803    0.4959    1.8694 C   0  0  0  0  0  0  0  0  0  0  0  0
    8.2269    0.3235    2.9896 C   0  0  0  0  0  0  0  0  0  0  0  0
    9.4495    1.1327    3.1968 C   0  0  0  0  0  0  0  0  0  0  0  0
   10.7158    0.6250    3.5011 C   0  0  0  0  0  0  0  0  0  0  0  0
   11.6570    1.6309    3.7348 C   0  0  0  0  0  0  0  0  0  0  0  0
   12.9994    1.4406    4.0718 C   0  0  0  0  0  0  0  0  0  0  0  0
   13.8136    2.5695    4.2988 C   0  0  0  0  0  0  0  0  0  0  0  0
   15.2680    2.3904    4.6434 C   0  0  0  0  0  0  0  0  0  0  0  0
   16.1266    2.3814    3.3802 C   0  0  0  0  0  0  0  0  0  0  0  0
   13.2698    3.8684    4.1602 C   0  0  0  0  0  0  0  0  0  0  0  0
   11.9193    4.0434    3.8224 C   0  0  0  0  0  0  0  0  0  0  0  0
   11.1383    2.9099    3.6182 C   0  0  0  0  0  0  0  0  0  0  0  0
    9.5055    2.8250    3.2330 S   0  0  0  0  0  0  0  0  0  0  0  0
    7.8491   -0.6694    3.9184 C   0  0  0  0  0  0  0  0  0  0  0  0
    6.6937   -1.4474    3.7751 C   0  0  0  0  0  0  0  0  0  0  0  0
    5.8520   -1.2780    2.6582 C   0  0  0  0  0  0  0  0  0  0  0  0
    4.6079   -2.0563    2.4802 C   0  0  0  0  0  0  0  0  0  0  0  0
    3.0769   -1.3868    2.2081 S   0  0  0  0  0  0  0  0  0  0  0  0
    2.2887   -2.8639    2.0800 C   0  0  0  0  0  0  0  0  0  0  0  0
    0.9399   -3.1034    1.8303 C   0  0  0  0  0  0  0  0  0  0  0  0
    0.5060   -4.4345    1.7518 C   0  0  0  0  0  0  0  0  0  0  0  0
    1.4242   -5.5000    1.9053 C   0  0  0  0  0  0  0  0  0  0  0  0
    0.9530   -6.9264    1.8170 C   0  0  0  0  0  0  0  0  0  0  0  0
    0.5643   -7.4559    3.1931 C   0  0  0  0  0  0  0  0  0  0  0  0
    2.7836   -5.2222    2.1684 C   0  0  0  0  0  0  0  0  0  0  0  0
    3.2014   -3.8914    2.2472 C   0  0  0  0  0  0  0  0  0  0  0  0
    4.5097   -3.4497    2.4739 C   0  0  0  0  0  0  0  0  0  0  0  0
    6.2393   -0.3064    1.7185 C   0  0  0  0  0  0  0  0  0  0  0  0
    5.5056    0.0450    0.2516 S   0  0  0  0  0  0  0  0  0  0  0  0
    6.4822   -2.3284    4.8496 C   0  0  0  0  0  0  0  0  0  0  0  0
    7.4697   -2.2501    5.8261 C   0  0  0  0  0  0  0  0  0  0  0  0
    8.5964   -1.0812    5.3704 S   0  0  0  0  0  0  0  0  0  0  0  0
    1.1594   -0.1342   11.3341 H   0  0  0  0  0  0  0  0  0  0  0  0
    0.6184    1.8270    9.7187 H   0  0  0  0  0  0  0  0  0  0  0  0
    1.5271    2.1974    7.2353 H   0  0  0  0  0  0  0  0  0  0  0  0
    3.1087    4.2802    6.6451 H   0  0  0  0  0  0  0  0  0  0  0  0
    3.5511    7.9731    6.1997 H   0  0  0  0  0  0  0  0  0  0  0  0
    4.3908    6.4237    6.5317 H   0  0  0  0  0  0  0  0  0  0  0  0
    4.8435    7.2095    4.2156 H   0  0  0  0  0  0  0  0  0  0  0  0
    3.0742    7.2158    3.8462 H   0  0  0  0  0  0  0  0  0  0  0  0
    3.9257    5.6552    4.1873 H   0  0  0  0  0  0  0  0  0  0  0  0
    1.0859    8.0429    5.9368 H   0  0  0  0  0  0  0  0  0  0  0  0
   -1.1016    6.9569    6.3964 H   0  0  0  0  0  0  0  0  0  0  0  0
   -3.7685   -6.4984    9.9543 H   0  0  0  0  0  0  0  0  0  0  0  0
   -3.6278   -8.5230    8.5211 H   0  0  0  0  0  0  0  0  0  0  0  0
   -2.9458   -8.4269    4.8734 H   0  0  0  0  0  0  0  0  0  0  0  0
   -3.4733   -9.4561    6.2415 H   0  0  0  0  0  0  0  0  0  0  0  0
   -1.2529  -10.1630    5.3105 H   0  0  0  0  0  0  0  0  0  0  0  0
   -0.5617   -8.5520    5.7278 H   0  0  0  0  0  0  0  0  0  0  0  0
   -1.1196   -9.6598    7.0443 H   0  0  0  0  0  0  0  0  0  0  0  0
   -2.0152   -6.1270    5.2930 H   0  0  0  0  0  0  0  0  0  0  0  0
   -1.7052   -3.5185    5.8206 H   0  0  0  0  0  0  0  0  0  0  0  0
   -3.8558   -1.9720    5.6649 H   0  0  0  0  0  0  0  0  0  0  0  0
   -5.1213   -2.1462    3.6975 H   0  0  0  0  0  0  0  0  0  0  0  0
   -8.4794   -3.8223    1.1226 H   0  0  0  0  0  0  0  0  0  0  0  0
   -9.3620   -6.2777    1.7485 H   0  0  0  0  0  0  0  0  0  0  0  0
   -8.5923   -9.8277    2.7500 H   0  0  0  0  0  0  0  0  0  0  0  0
   -9.7574   -8.7895    1.8723 H   0  0  0  0  0  0  0  0  0  0  0  0
   -9.1498   -8.6046    4.8982 H   0  0  0  0  0  0  0  0  0  0  0  0
  -10.3906   -7.6419    3.9964 H   0  0  0  0  0  0  0  0  0  0  0  0
  -10.5749   -9.4348    4.1576 H   0  0  0  0  0  0  0  0  0  0  0  0
   -6.4027   -8.9728    3.4049 H   0  0  0  0  0  0  0  0  0  0  0  0
   -4.6730   -7.2015    3.2046 H   0  0  0  0  0  0  0  0  0  0  0  0
   -3.9782    4.9878   -3.1719 H   0  0  0  0  0  0  0  0  0  0  0  0
   -4.6574    7.3027   -2.5798 H   0  0  0  0  0  0  0  0  0  0  0  0
   -6.4920    8.1988    0.5537 H   0  0  0  0  0  0  0  0  0  0  0  0
   -5.5014    8.8354   -0.7974 H   0  0  0  0  0  0  0  0  0  0  0  0
   -7.8836    9.5094   -1.0390 H   0  0  0  0  0  0  0  0  0  0  0  0
   -7.4101    8.4113   -2.3880 H   0  0  0  0  0  0  0  0  0  0  0  0
   -8.4036    7.7808   -1.0128 H   0  0  0  0  0  0  0  0  0  0  0  0
   -6.9866    5.7747    0.7372 H   0  0  0  0  0  0  0  0  0  0  0  0
   -6.9415    3.1118    1.0677 H   0  0  0  0  0  0  0  0  0  0  0  0
   -6.6462    0.6217   -2.6790 H   0  0  0  0  0  0  0  0  0  0  0  0
   -7.5880   -5.2303   -8.6297 H   0  0  0  0  0  0  0  0  0  0  0  0
   -8.1283   -3.5698   -8.3118 H   0  0  0  0  0  0  0  0  0  0  0  0
   -8.6487   -6.0382   -6.5287 H   0  0  0  0  0  0  0  0  0  0  0  0
   -9.1127   -4.3365   -6.0908 H   0  0  0  0  0  0  0  0  0  0  0  0
   -9.8218   -5.1356   -7.5358 H   0  0  0  0  0  0  0  0  0  0  0  0
   -6.6182   -5.7329   -5.5015 H   0  0  0  0  0  0  0  0  0  0  0  0
   -4.9712   -5.0957   -5.7386 H   0  0  0  0  0  0  0  0  0  0  0  0
   -4.8132   -6.3415   -7.9353 H   0  0  0  0  0  0  0  0  0  0  0  0
   -6.4586   -7.0373   -7.6197 H   0  0  0  0  0  0  0  0  0  0  0  0
   -5.0940   -7.4005   -6.5107 H   0  0  0  0  0  0  0  0  0  0  0  0
   -7.2860   -3.9223   -4.2507 H   0  0  0  0  0  0  0  0  0  0  0  0
   -3.4608   -3.0173   -9.8610 H   0  0  0  0  0  0  0  0  0  0  0  0
    1.0980   -2.6656   -9.9933 H   0  0  0  0  0  0  0  0  0  0  0  0
    0.3826   -2.8895  -11.6243 H   0  0  0  0  0  0  0  0  0  0  0  0
    2.5957   -2.8993  -12.6809 H   0  0  0  0  0  0  0  0  0  0  0  0
    3.3959   -2.5024  -11.0951 H   0  0  0  0  0  0  0  0  0  0  0  0
    2.5523   -4.0705  -11.3242 H   0  0  0  0  0  0  0  0  0  0  0  0
    0.3707    0.4256  -12.8607 H   0  0  0  0  0  0  0  0  0  0  0  0
    0.7192   -1.2424  -13.3484 H   0  0  0  0  0  0  0  0  0  0  0  0
    2.6971    1.0526  -12.7973 H   0  0  0  0  0  0  0  0  0  0  0  0
    2.3798    0.1953  -14.3472 H   0  0  0  0  0  0  0  0  0  0  0  0
    3.2485   -0.6524  -13.0199 H   0  0  0  0  0  0  0  0  0  0  0  0
   -1.6089   -1.9696  -10.9835 H   0  0  0  0  0  0  0  0  0  0  0  0
    4.3067    0.9616   -9.0982 H   0  0  0  0  0  0  0  0  0  0  0  0
    4.1925    6.8804   -5.7452 H   0  0  0  0  0  0  0  0  0  0  0  0
    4.8308    7.4860   -4.1836 H   0  0  0  0  0  0  0  0  0  0  0  0
    6.5291    7.5991   -5.9802 H   0  0  0  0  0  0  0  0  0  0  0  0
    7.0577    6.4688   -4.6833 H   0  0  0  0  0  0  0  0  0  0  0  0
    6.4125    5.8210   -6.2486 H   0  0  0  0  0  0  0  0  0  0  0  0
    3.2872    6.1274   -2.5925 H   0  0  0  0  0  0  0  0  0  0  0  0
    2.8690    4.4543   -3.0465 H   0  0  0  0  0  0  0  0  0  0  0  0
    2.1563    6.9967   -4.6700 H   0  0  0  0  0  0  0  0  0  0  0  0
    1.0849    6.0670   -3.5832 H   0  0  0  0  0  0  0  0  0  0  0  0
    1.6654    5.2824   -5.0764 H   0  0  0  0  0  0  0  0  0  0  0  0
    3.1469    4.9650   -6.8321 H   0  0  0  0  0  0  0  0  0  0  0  0
    6.5020    4.0622   -0.7379 H   0  0  0  0  0  0  0  0  0  0  0  0
    8.4065    2.0699    0.6987 H   0  0  0  0  0  0  0  0  0  0  0  0
   10.9426   -0.4331    3.5532 H   0  0  0  0  0  0  0  0  0  0  0  0
   13.4031    0.4393    4.1600 H   0  0  0  0  0  0  0  0  0  0  0  0
   15.4212    1.4343    5.1921 H   0  0  0  0  0  0  0  0  0  0  0  0
   15.6082    3.2105    5.3129 H   0  0  0  0  0  0  0  0  0  0  0  0
   16.0052    3.3346    2.8221 H   0  0  0  0  0  0  0  0  0  0  0  0
   15.8359    1.5335    2.7249 H   0  0  0  0  0  0  0  0  0  0  0  0
   17.1959    2.2612    3.6573 H   0  0  0  0  0  0  0  0  0  0  0  0
   13.8899    4.7393    4.3185 H   0  0  0  0  0  0  0  0  0  0  0  0
   11.4967    5.0345    3.7304 H   0  0  0  0  0  0  0  0  0  0  0  0
    0.2434   -2.2830    1.7033 H   0  0  0  0  0  0  0  0  0  0  0  0
   -0.5410   -4.6367    1.5659 H   0  0  0  0  0  0  0  0  0  0  0  0
    1.7565   -7.5644    1.3901 H   0  0  0  0  0  0  0  0  0  0  0  0
    0.0783   -6.9994    1.1357 H   0  0  0  0  0  0  0  0  0  0  0  0
    1.4144   -7.3605    3.9036 H   0  0  0  0  0  0  0  0  0  0  0  0
   -0.3051   -6.8911    3.5895 H   0  0  0  0  0  0  0  0  0  0  0  0
    0.2832   -8.5252    3.1095 H   0  0  0  0  0  0  0  0  0  0  0  0
    3.4960   -6.0273    2.3003 H   0  0  0  0  0  0  0  0  0  0  0  0
    5.3557   -4.1136    2.6116 H   0  0  0  0  0  0  0  0  0  0  0  0
    5.6342   -2.9947    4.9347 H   0  0  0  0  0  0  0  0  0  0  0  0
    7.5000   -2.8354    6.7355 H   0  0  0  0  0  0  0  0  0  0  0  0
  1  2  2  0
  2  3  1  0
  3  4  2  0
  4  5  1  0
  5  6  2  0
  6  7  1  0
  7  8  2  0
  8  9  1  0
  9 10  1  0
 10 11  1  0
  9 12  2  0
 12 13  1  0
 13 14  2  0
 14 15  1  0
  4 16  1  0
 16 17  2  0
 17 18  1  0
 18 19  1  0
 19 20  1  0
 20 21  1  0
 21 22  2  0
 22 23  1  0
 23 24  2  0
 24 25  1  0
 25 26  1  0
 24 27  1  0
 27 28  2  0
 28 29  1  0
 18 30  2  0
 30 31  1  0
 17 32  1  0
 32 33  2  0
 33 34  1  0
 33 35  1  0
 35 36  2  0
 36 37  1  0
 37 38  2  0
 38 39  1  0
 39 40  2  0
 40 41  1  0
 41 42  2  0
 42 43  1  0
 43 44  1  0
 44 45  1  0
 43 46  2  0
 46 47  1  0
 47 48  2  0
 48 49  1  0
 38 50  1  0
 50 51  2  0
 51 52  1  0
 52 53  1  0
 53 54  1  0
 54 55  1  0
 55 56  2  0
 56 57  1  0
 57 58  2  0
 58 59  1  0
 59 60  1  0
 58 61  1  0
 61 62  2  0
 62 63  1  0
 52 64  2  0
 64 65  1  0
 51 66  1  0
 66 67  2  0
 67 68  1  0
 67 69  1  0
 69 70  1  0
 70 71  1  0
 71 72  1  0
 72 73  2  0
 73 74  1  0
 74 75  1  0
 75 76  1  0
 76 77  1  0
 75 78  1  0
 78 79  1  0
 75 80  1  0
 80 81  1  0
 73 82  1  0
 82 83  2  0
 83 84  1  0
 83 85  1  0
 85 86  1  0
 86 87  1  0
 87 88  1  0
 88 89  2  0
 89 90  1  0
 90 91  1  0
 91 92  1  0
 92 93  1  0
 91 94  1  0
 94 95  1  0
 91 96  1  0
 96 97  1  0
 89 98  1  0
 98 99  2  0
 99100  1  0
 99101  1  0
101102  1  0
102103  1  0
103104  1  0
104105  2  0
105106  1  0
106107  1  0
107108  1  0
108109  1  0
107110  1  0
110111  1  0
107112  1  0
112113  1  0
105114  1  0
114115  2  0
115116  1  0
115117  1  0
117118  2  0
118119  1  0
119120  2  0
120121  1  0
121122  2  0
122123  1  0
123124  2  0
124125  1  0
125126  1  0
126127  1  0
125128  2  0
128129  1  0
129130  2  0
130131  1  0
120132  1  0
132133  2  0
133134  1  0
134135  1  0
135136  1  0
136137  1  0
137138  2  0
138139  1  0
139140  2  0
140141  1  0
141142  1  0
140143  1  0
143144  2  0
144145  1  0
134146  2  0
146147  1  0
133148  1  0
148149  2  0
149150  1  0
 31  1  1  0
 65 35  1  0
 81 69  2  0
 97 85  2  0
113101  2  0
147117  1  0
 30  3  1  0
 64 37  1  0
 80 71  2  0
 96 87  2  0
112103  2  0
146119  1  0
 15  5  1  0
 34 16  1  0
 49 39  1  0
 68 50  1  0
 84 72  1  0
100 88  1  0
116104  1  0
131121  1  0
150132  1  0
 14  7  1  0
 29 19  2  0
 48 41  1  0
 63 53  2  0
130123  1  0
145135  2  0
 28 21  1  0
 62 55  1  0
144137  1  0
  1151  1  0
  2152  1  0
  6153  1  0
  8154  1  0
 10155  1  0
 10156  1  0
 11157  1  0
 11158  1  0
 11159  1  0
 12160  1  0
 13161  1  0
 22162  1  0
 23163  1  0
 25164  1  0
 25165  1  0
 26166  1  0
 26167  1  0
 26168  1  0
 27169  1  0
 29170  1  0
 32171  1  0
 36172  1  0
 40173  1  0
 42174  1  0
 44175  1  0
 44176  1  0
 45177  1  0
 45178  1  0
 45179  1  0
 46180  1  0
 47181  1  0
 56182  1  0
 57183  1  0
 59184  1  0
 59185  1  0
 60186  1  0
 60187  1  0
 60188  1  0
 61189  1  0
 63190  1  0
 66191  1  0
 76192  1  0
 76193  1  0
 77194  1  0
 77195  1  0
 77196  1  0
 78197  1  0
 78198  1  0
 79199  1  0
 79200  1  0
 79201  1  0
 81202  1  0
 82203  1  0
 92204  1  0
 92205  1  0
 93206  1  0
 93207  1  0
 93208  1  0
 94209  1  0
 94210  1  0
 95211  1  0
 95212  1  0
 95213  1  0
 97214  1  0
 98215  1  0
108216  1  0
108217  1  0
109218  1  0
109219  1  0
109220  1  0
110221  1  0
110222  1  0
111223  1  0
111224  1  0
111225  1  0
113226  1  0
114227  1  0
118228  1  0
122229  1  0
124230  1  0
126231  1  0
126232  1  0
127233  1  0
127234  1  0
127235  1  0
128236  1  0
129237  1  0
138238  1  0
139239  1  0
141240  1  0
141241  1  0
142242  1  0
142243  1  0
142244  1  0
143245  1  0
145246  1  0
148247  1  0
149248  1  0
M  END

