
     RDKit          3D

212235  0  0  0  0  0  0  0  0999 V2000
    4.9235  -10.4720   -3.6453 C   0  0  0  0  0  0  0  0  0  0  0  0
    3.4396  -10.3396   -2.8540 S   0  0  0  0  0  0  0  0  0  0  0  0
    4.0985  -10.2823   -1.3136 C   0  0  0  0  0  0  0  0  0  0  0  0
    3.4257  -10.1971   -0.0315 C   0  0  0  0  0  0  0  0  0  0  0  0
    4.1610  -10.3119    1.1212 C   0  0  0  0  0  0  0  0  0  0  0  0
    5.5464  -10.5229    1.0704 O   0  0  0  0  0  0  0  0  0  0  0  0
    6.3419  -10.2326   -0.1061 C   0  0  0  0  0  0  0  0  0  0  0  0
    7.5019  -11.2611   -0.1489 C   0  0  0  0  0  0  0  0  0  0  0  0
    8.3594  -11.2814    1.1192 C   0  0  0  0  0  0  0  0  0  0  0  0
    6.8262   -8.7622    0.0409 C   0  0  0  0  0  0  0  0  0  0  0  0
    7.8366   -8.2792   -1.0031 C   0  0  0  0  0  0  0  0  0  0  0  0
    5.4817  -10.3657   -1.3758 C   0  0  0  0  0  0  0  0  0  0  0  0
    5.9461  -10.4696   -2.6989 C   0  0  0  0  0  0  0  0  0  0  0  0
    3.4079  -10.1819    2.2873 C   0  0  0  0  0  0  0  0  0  0  0  0
    2.0596   -9.9351    2.0191 C   0  0  0  0  0  0  0  0  0  0  0  0
    1.8158   -9.9084    0.3388 S   0  0  0  0  0  0  0  0  0  0  0  0
    1.0438   -9.5500    3.0119 C   0  0  0  0  0  0  0  0  0  0  0  0
    1.2988   -9.1909    4.3375 C   0  0  0  0  0  0  0  0  0  0  0  0
    0.1915   -8.5974    4.9671 C   0  0  0  0  0  0  0  0  0  0  0  0
    0.1855   -7.9754    6.2338 C   0  0  0  0  0  0  0  0  0  0  0  0
    1.3843   -7.9234    7.0914 C   0  0  0  0  0  0  0  0  0  0  0  0
    2.8274   -7.1540    6.6870 S   0  0  0  0  0  0  0  0  0  0  0  0
    3.5973   -7.4395    8.1553 C   0  0  0  0  0  0  0  0  0  0  0  0
    4.9667   -6.9442    8.5131 C   0  0  0  0  0  0  0  0  0  0  0  0
    4.8810   -5.6338    9.2874 C   0  0  0  0  0  0  0  0  0  0  0  0
    2.7170   -8.1204    8.9990 C   0  0  0  0  0  0  0  0  0  0  0  0
    3.1176   -8.5952   10.6430 Cl  0  0  0  0  0  0  0  0  0  0  0  0
    1.4760   -8.3870    8.4032 C   0  0  0  0  0  0  0  0  0  0  0  0
    0.1781   -9.2413    9.2202 Cl  0  0  0  0  0  0  0  0  0  0  0  0
   -0.9809   -7.2782    6.5926 C   0  0  0  0  0  0  0  0  0  0  0  0
   -2.1087   -7.2199    5.7684 C   0  0  0  0  0  0  0  0  0  0  0  0
   -2.1179   -7.8762    4.5202 C   0  0  0  0  0  0  0  0  0  0  0  0
   -3.2267   -7.7141    3.5629 C   0  0  0  0  0  0  0  0  0  0  0  0
   -3.6760   -6.2547    2.8484 S   0  0  0  0  0  0  0  0  0  0  0  0
   -4.9006   -6.8986    1.8946 C   0  0  0  0  0  0  0  0  0  0  0  0
   -5.7197   -6.1096    0.9214 C   0  0  0  0  0  0  0  0  0  0  0  0
   -5.0880   -6.1442   -0.4637 C   0  0  0  0  0  0  0  0  0  0  0  0
   -4.9512   -8.2790    2.0968 C   0  0  0  0  0  0  0  0  0  0  0  0
   -4.0147   -8.7365    3.0359 C   0  0  0  0  0  0  0  0  0  0  0  0
   -3.8725  -10.4161    3.5273 Cl  0  0  0  0  0  0  0  0  0  0  0  0
   -6.0839   -9.3374    1.2686 Cl  0  0  0  0  0  0  0  0  0  0  0  0
   -0.9428   -8.5479    4.1491 C   0  0  0  0  0  0  0  0  0  0  0  0
   -0.5609   -9.1807    2.6399 S   0  0  0  0  0  0  0  0  0  0  0  0
   -3.0830   -6.3246    6.2297 C   0  0  0  0  0  0  0  0  0  0  0  0
   -2.6817   -5.5879    7.3474 C   0  0  0  0  0  0  0  0  0  0  0  0
   -1.1622   -6.1518    7.8288 S   0  0  0  0  0  0  0  0  0  0  0  0
   -3.1687   -4.2263    7.6418 C   0  0  0  0  0  0  0  0  0  0  0  0
   -3.8982   -3.4724    6.7182 C   0  0  0  0  0  0  0  0  0  0  0  0
   -3.7101   -2.0901    6.8489 C   0  0  0  0  0  0  0  0  0  0  0  0
   -4.0498   -1.1367    5.8700 C   0  0  0  0  0  0  0  0  0  0  0  0
   -4.8105   -1.5124    4.6622 C   0  0  0  0  0  0  0  0  0  0  0  0
   -4.1958   -1.5315    3.0956 S   0  0  0  0  0  0  0  0  0  0  0  0
   -5.6031   -2.0819    2.3562 C   0  0  0  0  0  0  0  0  0  0  0  0
   -5.7816   -2.2292    0.8710 C   0  0  0  0  0  0  0  0  0  0  0  0
   -5.8782   -0.8634    0.1995 C   0  0  0  0  0  0  0  0  0  0  0  0
   -6.5829   -2.2527    3.3339 C   0  0  0  0  0  0  0  0  0  0  0  0
   -8.2205   -2.7893    2.9932 Cl  0  0  0  0  0  0  0  0  0  0  0  0
   -6.1334   -1.9480    4.6289 C   0  0  0  0  0  0  0  0  0  0  0  0
   -7.1538   -2.0500    6.0544 Cl  0  0  0  0  0  0  0  0  0  0  0  0
   -3.4704    0.1344    6.0000 C   0  0  0  0  0  0  0  0  0  0  0  0
   -2.6452    0.4847    7.0746 C   0  0  0  0  0  0  0  0  0  0  0  0
   -2.3965   -0.4406    8.1135 C   0  0  0  0  0  0  0  0  0  0  0  0
   -1.5629   -0.1134    9.2844 C   0  0  0  0  0  0  0  0  0  0  0  0
    0.0629    0.3240    9.2413 S   0  0  0  0  0  0  0  0  0  0  0  0
    0.2460    0.4804   10.9065 C   0  0  0  0  0  0  0  0  0  0  0  0
    1.5032    0.9305   11.5889 C   0  0  0  0  0  0  0  0  0  0  0  0
    1.4574    2.4297   11.8615 C   0  0  0  0  0  0  0  0  0  0  0  0
   -0.9739    0.1980   11.5207 C   0  0  0  0  0  0  0  0  0  0  0  0
   -1.9847   -0.1496   10.6116 C   0  0  0  0  0  0  0  0  0  0  0  0
   -3.6355   -0.5063   11.0980 Cl  0  0  0  0  0  0  0  0  0  0  0  0
   -1.2309    0.2982   13.2567 Cl  0  0  0  0  0  0  0  0  0  0  0  0
   -2.9106   -1.7391    7.9401 C   0  0  0  0  0  0  0  0  0  0  0  0
   -2.3844   -3.1541    8.6924 S   0  0  0  0  0  0  0  0  0  0  0  0
   -2.0240    1.7362    6.9040 C   0  0  0  0  0  0  0  0  0  0  0  0
   -2.3243    2.3346    5.6776 C   0  0  0  0  0  0  0  0  0  0  0  0
   -3.4201    1.3541    4.8518 S   0  0  0  0  0  0  0  0  0  0  0  0
   -1.5048    3.3539    4.9986 C   0  0  0  0  0  0  0  0  0  0  0  0
   -1.5545    3.5975    3.3290 S   0  0  0  0  0  0  0  0  0  0  0  0
   -0.1064    4.4247    3.2458 C   0  0  0  0  0  0  0  0  0  0  0  0
    0.6599    4.7336    2.0639 C   0  0  0  0  0  0  0  0  0  0  0  0
    1.9281    5.2464    2.1768 C   0  0  0  0  0  0  0  0  0  0  0  0
    2.4893    5.5028    3.4363 O   0  0  0  0  0  0  0  0  0  0  0  0
    1.9039    5.0341    4.6818 C   0  0  0  0  0  0  0  0  0  0  0  0
    2.7882    3.8785    5.2181 C   0  0  0  0  0  0  0  0  0  0  0  0
    2.7861    2.6409    4.3191 C   0  0  0  0  0  0  0  0  0  0  0  0
    1.9304    6.2013    5.6969 C   0  0  0  0  0  0  0  0  0  0  0  0
    1.2096    7.4502    5.1917 C   0  0  0  0  0  0  0  0  0  0  0  0
    0.4578    4.5396    4.5033 C   0  0  0  0  0  0  0  0  0  0  0  0
   -0.3364    3.9382    5.5018 C   0  0  0  0  0  0  0  0  0  0  0  0
    2.5809    5.4086    0.9465 C   0  0  0  0  0  0  0  0  0  0  0  0
    1.8097    4.9248   -0.1125 C   0  0  0  0  0  0  0  0  0  0  0  0
    0.3289    4.3588    0.4702 S   0  0  0  0  0  0  0  0  0  0  0  0
    2.1889    4.8536   -1.5233 C   0  0  0  0  0  0  0  0  0  0  0  0
    2.5243    5.9494   -2.3181 C   0  0  0  0  0  0  0  0  0  0  0  0
    2.4020    5.6781   -3.6955 C   0  0  0  0  0  0  0  0  0  0  0  0
    2.5063    6.6193   -4.7396 C   0  0  0  0  0  0  0  0  0  0  0  0
    2.9418    8.0069   -4.4970 C   0  0  0  0  0  0  0  0  0  0  0  0
    2.0357    9.3822   -4.8420 S   0  0  0  0  0  0  0  0  0  0  0  0
    3.2215   10.4928   -4.4157 C   0  0  0  0  0  0  0  0  0  0  0  0
    3.0951   11.9718   -4.5996 C   0  0  0  0  0  0  0  0  0  0  0  0
    3.4810   12.3693   -6.0201 C   0  0  0  0  0  0  0  0  0  0  0  0
    4.3634    9.7968   -4.0180 C   0  0  0  0  0  0  0  0  0  0  0  0
    5.8704   10.5821   -3.5684 Cl  0  0  0  0  0  0  0  0  0  0  0  0
    4.2026    8.4029   -4.0528 C   0  0  0  0  0  0  0  0  0  0  0  0
    5.4919    7.2718   -3.6585 Cl  0  0  0  0  0  0  0  0  0  0  0  0
    2.1080    6.1920   -6.0197 C   0  0  0  0  0  0  0  0  0  0  0  0
    1.7012    4.8800   -6.2871 C   0  0  0  0  0  0  0  0  0  0  0  0
    1.6675    3.9185   -5.2578 C   0  0  0  0  0  0  0  0  0  0  0  0
    1.2356    2.5294   -5.5039 C   0  0  0  0  0  0  0  0  0  0  0  0
   -0.0535    1.7646   -4.7378 S   0  0  0  0  0  0  0  0  0  0  0  0
    0.1502    0.2723   -5.4829 C   0  0  0  0  0  0  0  0  0  0  0  0
   -0.6441   -0.9561   -5.1541 C   0  0  0  0  0  0  0  0  0  0  0  0
    0.0587   -1.7835   -4.0829 C   0  0  0  0  0  0  0  0  0  0  0  0
    1.2500    0.3458   -6.3362 C   0  0  0  0  0  0  0  0  0  0  0  0
    1.8562    1.6112   -6.3518 C   0  0  0  0  0  0  0  0  0  0  0  0
    3.3040    1.9745   -7.2811 Cl  0  0  0  0  0  0  0  0  0  0  0  0
    1.8485   -1.0199   -7.2682 Cl  0  0  0  0  0  0  0  0  0  0  0  0
    1.9894    4.3671   -3.9651 C   0  0  0  0  0  0  0  0  0  0  0  0
    1.7742    3.5560   -2.5136 S   0  0  0  0  0  0  0  0  0  0  0  0
    1.2202    4.7061   -7.5945 C   0  0  0  0  0  0  0  0  0  0  0  0
    1.2304    5.8830   -8.3389 C   0  0  0  0  0  0  0  0  0  0  0  0
    1.8737    7.1273   -7.3978 S   0  0  0  0  0  0  0  0  0  0  0  0
    0.5358    6.0791   -9.6180 C   0  0  0  0  0  0  0  0  0  0  0  0
    0.0369    4.8486  -10.6602 S   0  0  0  0  0  0  0  0  0  0  0  0
   -0.8232    5.8680  -11.6783 C   0  0  0  0  0  0  0  0  0  0  0  0
   -1.6823    5.5183  -12.7880 C   0  0  0  0  0  0  0  0  0  0  0  0
   -2.5252    6.4622  -13.3140 C   0  0  0  0  0  0  0  0  0  0  0  0
   -2.5362    7.7809  -12.8282 O   0  0  0  0  0  0  0  0  0  0  0  0
   -1.5357    8.3120  -11.9218 C   0  0  0  0  0  0  0  0  0  0  0  0
   -2.2809    9.1691  -10.8604 C   0  0  0  0  0  0  0  0  0  0  0  0
   -3.1716   10.2613  -11.4567 C   0  0  0  0  0  0  0  0  0  0  0  0
   -0.5476    9.1370  -12.7919 C   0  0  0  0  0  0  0  0  0  0  0  0
    0.5138    9.9385  -12.0293 C   0  0  0  0  0  0  0  0  0  0  0  0
   -0.7733    7.1753  -11.2147 C   0  0  0  0  0  0  0  0  0  0  0  0
    0.0131    7.2962  -10.0566 C   0  0  0  0  0  0  0  0  0  0  0  0
   -3.3631    5.9703  -14.3169 C   0  0  0  0  0  0  0  0  0  0  0  0
   -3.1597    4.6120  -14.5639 C   0  0  0  0  0  0  0  0  0  0  0  0
   -1.9526    4.0365  -13.5280 S   0  0  0  0  0  0  0  0  0  0  0  0
    5.0637  -10.5334   -4.7157 H   0  0  0  0  0  0  0  0  0  0  0  0
    8.1654  -11.0802   -1.0200 H   0  0  0  0  0  0  0  0  0  0  0  0
    7.0695  -12.2773   -0.2818 H   0  0  0  0  0  0  0  0  0  0  0  0
    9.1160  -12.0904    1.0349 H   0  0  0  0  0  0  0  0  0  0  0  0
    8.8981  -10.3209    1.2481 H   0  0  0  0  0  0  0  0  0  0  0  0
    7.7355  -11.4824    2.0157 H   0  0  0  0  0  0  0  0  0  0  0  0
    7.2721   -8.6199    1.0478 H   0  0  0  0  0  0  0  0  0  0  0  0
    5.9401   -8.0916    0.0012 H   0  0  0  0  0  0  0  0  0  0  0  0
    8.0919   -7.2194   -0.7931 H   0  0  0  0  0  0  0  0  0  0  0  0
    7.4088   -8.3189   -2.0251 H   0  0  0  0  0  0  0  0  0  0  0  0
    8.7756   -8.8717   -0.9563 H   0  0  0  0  0  0  0  0  0  0  0  0
    6.9913  -10.5244   -2.9722 H   0  0  0  0  0  0  0  0  0  0  0  0
    3.8404  -10.2195    3.2784 H   0  0  0  0  0  0  0  0  0  0  0  0
    2.2723   -9.2763    4.7952 H   0  0  0  0  0  0  0  0  0  0  0  0
    5.4968   -7.7036    9.1254 H   0  0  0  0  0  0  0  0  0  0  0  0
    5.5540   -6.7820    7.5840 H   0  0  0  0  0  0  0  0  0  0  0  0
    4.3414   -5.7855   10.2466 H   0  0  0  0  0  0  0  0  0  0  0  0
    4.3485   -4.8644    8.6879 H   0  0  0  0  0  0  0  0  0  0  0  0
    5.9024   -5.2626    9.5142 H   0  0  0  0  0  0  0  0  0  0  0  0
   -5.7831   -5.0607    1.2670 H   0  0  0  0  0  0  0  0  0  0  0  0
   -6.7523   -6.5162    0.8755 H   0  0  0  0  0  0  0  0  0  0  0  0
   -4.0724   -5.6891   -0.4316 H   0  0  0  0  0  0  0  0  0  0  0  0
   -5.7142   -5.5647   -1.1736 H   0  0  0  0  0  0  0  0  0  0  0  0
   -5.0079   -7.1895   -0.8309 H   0  0  0  0  0  0  0  0  0  0  0  0
   -3.9936   -6.1191    5.6903 H   0  0  0  0  0  0  0  0  0  0  0  0
   -4.3917   -3.9065    5.8618 H   0  0  0  0  0  0  0  0  0  0  0  0
   -6.7028   -2.8083    0.6457 H   0  0  0  0  0  0  0  0  0  0  0  0
   -4.9152   -2.7868    0.4553 H   0  0  0  0  0  0  0  0  0  0  0  0
   -6.0833   -0.9942   -0.8845 H   0  0  0  0  0  0  0  0  0  0  0  0
   -4.9185   -0.3146    0.3167 H   0  0  0  0  0  0  0  0  0  0  0  0
   -6.7047   -0.2692    0.6485 H   0  0  0  0  0  0  0  0  0  0  0  0
    1.6267    0.3817   12.5465 H   0  0  0  0  0  0  0  0  0  0  0  0
    2.3772    0.6959   10.9447 H   0  0  0  0  0  0  0  0  0  0  0  0
    1.3760    2.9924   10.9062 H   0  0  0  0  0  0  0  0  0  0  0  0
    0.5886    2.6766   12.5096 H   0  0  0  0  0  0  0  0  0  0  0  0
    2.3884    2.7450   12.3820 H   0  0  0  0  0  0  0  0  0  0  0  0
   -1.2946    2.1401    7.5881 H   0  0  0  0  0  0  0  0  0  0  0  0
    3.8371    4.2394    5.3104 H   0  0  0  0  0  0  0  0  0  0  0  0
    2.4524    3.5763    6.2367 H   0  0  0  0  0  0  0  0  0  0  0  0
    3.1017    2.8990    3.2850 H   0  0  0  0  0  0  0  0  0  0  0  0
    1.7773    2.1755    4.2894 H   0  0  0  0  0  0  0  0  0  0  0  0
    3.4998    1.8920    4.7237 H   0  0  0  0  0  0  0  0  0  0  0  0
    1.4721    5.8867    6.6627 H   0  0  0  0  0  0  0  0  0  0  0  0
    2.9867    6.4764    5.9100 H   0  0  0  0  0  0  0  0  0  0  0  0
    0.1455    7.2316    4.9634 H   0  0  0  0  0  0  0  0  0  0  0  0
    1.2454    8.2396    5.9724 H   0  0  0  0  0  0  0  0  0  0  0  0
    1.7042    7.8416    4.2772 H   0  0  0  0  0  0  0  0  0  0  0  0
   -0.0100    3.8335    6.5275 H   0  0  0  0  0  0  0  0  0  0  0  0
    3.5848    5.7973    0.8397 H   0  0  0  0  0  0  0  0  0  0  0  0
    2.7287    6.9314   -1.9124 H   0  0  0  0  0  0  0  0  0  0  0  0
    3.7473   12.5047   -3.8769 H   0  0  0  0  0  0  0  0  0  0  0  0
    2.0464   12.2793   -4.4071 H   0  0  0  0  0  0  0  0  0  0  0  0
    3.4183   13.4747   -6.1310 H   0  0  0  0  0  0  0  0  0  0  0  0
    4.5230   12.0557   -6.2453 H   0  0  0  0  0  0  0  0  0  0  0  0
    2.7912   11.8986   -6.7552 H   0  0  0  0  0  0  0  0  0  0  0  0
   -1.6513   -0.6616   -4.7843 H   0  0  0  0  0  0  0  0  0  0  0  0
   -0.7829   -1.5729   -6.0685 H   0  0  0  0  0  0  0  0  0  0  0  0
   -0.5169   -2.7134   -3.8869 H   0  0  0  0  0  0  0  0  0  0  0  0
    1.0794   -2.0660   -4.4187 H   0  0  0  0  0  0  0  0  0  0  0  0
    0.1311   -1.2045   -3.1366 H   0  0  0  0  0  0  0  0  0  0  0  0
    0.7828    3.7847   -7.9552 H   0  0  0  0  0  0  0  0  0  0  0  0
   -1.5732    9.6430  -10.1513 H   0  0  0  0  0  0  0  0  0  0  0  0
   -2.9316    8.4964  -10.2596 H   0  0  0  0  0  0  0  0  0  0  0  0
   -3.9334    9.8232  -12.1355 H   0  0  0  0  0  0  0  0  0  0  0  0
   -2.5658   11.0103  -12.0078 H   0  0  0  0  0  0  0  0  0  0  0  0
   -3.7013   10.7899  -10.6370 H   0  0  0  0  0  0  0  0  0  0  0  0
   -0.0223    8.4454  -13.4879 H   0  0  0  0  0  0  0  0  0  0  0  0
   -1.1185    9.8411  -13.4317 H   0  0  0  0  0  0  0  0  0  0  0  0
    0.0451   10.6785  -11.3493 H   0  0  0  0  0  0  0  0  0  0  0  0
    1.1872    9.2696  -11.4586 H   0  0  0  0  0  0  0  0  0  0  0  0
    1.1383   10.4978  -12.7572 H   0  0  0  0  0  0  0  0  0  0  0  0
    0.1556    8.2266   -9.5242 H   0  0  0  0  0  0  0  0  0  0  0  0
   -4.0969    6.5701  -14.8334 H   0  0  0  0  0  0  0  0  0  0  0  0
   -3.6986    4.0196  -15.2919 H   0  0  0  0  0  0  0  0  0  0  0  0
  1  2  1  0
  2  3  1  0
  3  4  1  0
  4  5  2  0
  5  6  1  0
  6  7  1  0
  7  8  1  0
  8  9  1  0
  7 10  1  0
 10 11  1  0
  7 12  1  0
 12 13  1  0
  5 14  1  0
 14 15  2  0
 15 16  1  0
 15 17  1  0
 17 18  2  0
 18 19  1  0
 19 20  2  0
 20 21  1  0
 21 22  1  0
 22 23  1  0
 23 24  1  0
 24 25  1  0
 23 26  2  0
 26 27  1  0
 26 28  1  0
 28 29  1  0
 20 30  1  0
 30 31  2  0
 31 32  1  0
 32 33  1  0
 33 34  1  0
 34 35  1  0
 35 36  1  0
 36 37  1  0
 35 38  2  0
 38 39  1  0
 39 40  1  0
 38 41  1  0
 32 42  2  0
 42 43  1  0
 31 44  1  0
 44 45  2  0
 45 46  1  0
 45 47  1  0
 47 48  2  0
 48 49  1  0
 49 50  2  0
 50 51  1  0
 51 52  1  0
 52 53  1  0
 53 54  1  0
 54 55  1  0
 53 56  2  0
 56 57  1  0
 56 58  1  0
 58 59  1  0
 50 60  1  0
 60 61  2  0
 61 62  1  0
 62 63  1  0
 63 64  1  0
 64 65  1  0
 65 66  1  0
 66 67  1  0
 65 68  2  0
 68 69  1  0
 69 70  1  0
 68 71  1  0
 62 72  2  0
 72 73  1  0
 61 74  1  0
 74 75  2  0
 75 76  1  0
 75 77  1  0
 77 78  1  0
 78 79  1  0
 79 80  1  0
 80 81  2  0
 81 82  1  0
 82 83  1  0
 83 84  1  0
 84 85  1  0
 83 86  1  0
 86 87  1  0
 83 88  1  0
 88 89  1  0
 81 90  1  0
 90 91  2  0
 91 92  1  0
 91 93  1  0
 93 94  2  0
 94 95  1  0
 95 96  2  0
 96 97  1  0
 97 98  1  0
 98 99  1  0
 99100  1  0
100101  1  0
 99102  2  0
102103  1  0
102104  1  0
104105  1  0
 96106  1  0
106107  2  0
107108  1  0
108109  1  0
109110  1  0
110111  1  0
111112  1  0
112113  1  0
111114  2  0
114115  1  0
115116  1  0
114117  1  0
108118  2  0
118119  1  0
107120  1  0
120121  2  0
121122  1  0
121123  1  0
123124  1  0
124125  1  0
125126  1  0
126127  2  0
127128  1  0
128129  1  0
129130  1  0
130131  1  0
129132  1  0
132133  1  0
129134  1  0
134135  1  0
127136  1  0
136137  2  0
137138  1  0
 13  1  2  0
 43 17  1  0
 73 47  1  0
 89 77  2  0
119 93  1  0
135123  2  0
 12  3  2  0
 42 19  1  0
 72 49  1  0
 88 79  2  0
118 95  1  0
134125  2  0
 16  4  1  0
 28 21  2  0
 46 30  1  0
 58 51  2  0
 76 60  1  0
 92 80  1  0
104 97  2  0
122106  1  0
138126  1  0
 39 33  2  0
 69 63  2  0
115109  2  0
  1139  1  0
  8140  1  0
  8141  1  0
  9142  1  0
  9143  1  0
  9144  1  0
 10145  1  0
 10146  1  0
 11147  1  0
 11148  1  0
 11149  1  0
 13150  1  0
 14151  1  0
 18152  1  0
 24153  1  0
 24154  1  0
 25155  1  0
 25156  1  0
 25157  1  0
 36158  1  0
 36159  1  0
 37160  1  0
 37161  1  0
 37162  1  0
 44163  1  0
 48164  1  0
 54165  1  0
 54166  1  0
 55167  1  0
 55168  1  0
 55169  1  0
 66170  1  0
 66171  1  0
 67172  1  0
 67173  1  0
 67174  1  0
 74175  1  0
 84176  1  0
 84177  1  0
 85178  1  0
 85179  1  0
 85180  1  0
 86181  1  0
 86182  1  0
 87183  1  0
 87184  1  0
 87185  1  0
 89186  1  0
 90187  1  0
 94188  1  0
100189  1  0
100190  1  0
101191  1  0
101192  1  0
101193  1  0
112194  1  0
112195  1  0
113196  1  0
113197  1  0
113198  1  0
120199  1  0
130200  1  0
130201  1  0
131202  1  0
131203  1  0
131204  1  0
132205  1  0
132206  1  0
133207  1  0
133208  1  0
133209  1  0
135210  1  0
136211  1  0
137212  1  0
M  END

