
     RDKit          3D

135142  0  0  0  0  0  0  0  0999 V2000
    9.7381    4.8242    0.4001 C   0  0  0  0  0  0  0  0  0  0  0  0
    9.8276    4.3845    1.6442 C   0  0  0  0  0  0  0  0  0  0  0  0
   11.1608    4.0039    2.2441 C   0  0  0  0  0  0  0  0  0  0  0  0
   11.4303    2.5069    2.0730 C   0  0  0  0  0  0  0  0  0  0  0  0
    8.5015    4.2275    2.3117 C   0  0  0  0  0  0  0  0  0  0  0  0
    8.4144    3.7104    3.7316 C   0  0  0  0  0  0  0  0  0  0  0  0
    8.0464    4.8259    4.7091 C   0  0  0  0  0  0  0  0  0  0  0  0
    7.4543    4.6166    1.5305 C   0  0  0  0  0  0  0  0  0  0  0  0
    8.1087    5.1689   -0.0202 S   0  0  0  0  0  6  0  0  0  0  0  0
    7.9994    6.6348   -0.3069 O   0  0  0  0  0  0  0  0  0  0  0  0
    7.7004    4.3296   -1.2119 O   0  0  0  0  0  0  0  0  0  0  0  0
    5.9702    4.4396    1.8144 C   0  0  0  0  0  0  0  0  0  0  0  0
    4.9269    5.1814    1.3610 C   0  0  0  0  0  0  0  0  0  0  0  0
    5.0578    6.5194    0.6660 C   0  0  0  0  0  0  0  0  0  0  0  0
    4.8538    6.3873   -0.8431 C   0  0  0  0  0  0  0  0  0  0  0  0
    3.5748    4.5815    1.6595 C   0  0  0  0  0  0  0  0  0  0  0  0
    2.2643    5.2154    1.2270 C   0  0  0  0  0  0  0  0  0  0  0  0
    1.3362    5.4765    2.4185 C   0  0  0  0  0  0  0  0  0  0  0  0
    3.6749    3.4128    2.3237 C   0  0  0  0  0  0  0  0  0  0  0  0
    5.3265    3.1046    2.7290 S   0  0  0  0  0  6  0  0  0  0  0  0
    5.7914    1.7650    2.2362 O   0  0  0  0  0  0  0  0  0  0  0  0
    5.5235    3.2881    4.2033 O   0  0  0  0  0  0  0  0  0  0  0  0
    2.5856    2.4392    2.6289 C   0  0  0  0  0  0  0  0  0  0  0  0
    2.3388    1.8873    3.8364 C   0  0  0  0  0  0  0  0  0  0  0  0
    2.7051    2.5689    5.1391 C   0  0  0  0  0  0  0  0  0  0  0  0
    3.6858    1.7653    6.0092 C   0  0  0  0  0  0  0  0  0  0  0  0
    1.3862    0.7335    3.7593 C   0  0  0  0  0  0  0  0  0  0  0  0
    1.1321   -0.2411    4.8986 C   0  0  0  0  0  0  0  0  0  0  0  0
    0.2520    0.3477    6.0131 C   0  0  0  0  0  0  0  0  0  0  0  0
    0.9250    0.5381    2.5144 C   0  0  0  0  0  0  0  0  0  0  0  0
    1.6756    1.6207    1.3838 S   0  0  0  0  0  6  0  0  0  0  0  0
    0.6499    2.4882    0.7177 O   0  0  0  0  0  0  0  0  0  0  0  0
    2.5522    0.8997    0.3957 O   0  0  0  0  0  0  0  0  0  0  0  0
   -0.1754   -0.3725    2.1007 C   0  0  0  0  0  0  0  0  0  0  0  0
   -0.4246   -0.9326    0.5242 S   0  0  0  0  0  0  0  0  0  0  0  0
   -1.8818   -1.7065    0.8748 C   0  0  0  0  0  0  0  0  0  0  0  0
   -2.8288   -2.3159   -0.0377 C   0  0  0  0  0  0  0  0  0  0  0  0
   -4.0690   -2.6904    0.4246 C   0  0  0  0  0  0  0  0  0  0  0  0
   -4.4256   -2.5280    1.7748 O   0  0  0  0  0  0  0  0  0  0  0  0
   -3.4786   -2.1675    2.8143 C   0  0  0  0  0  0  0  0  0  0  0  0
   -4.1758   -1.1308    3.7433 C   0  0  0  0  0  0  0  0  0  0  0  0
   -5.5433   -1.5817    4.2662 C   0  0  0  0  0  0  0  0  0  0  0  0
   -3.1004   -3.4929    3.5470 C   0  0  0  0  0  0  0  0  0  0  0  0
   -2.0636   -3.3566    4.6756 C   0  0  0  0  0  0  0  0  0  0  0  0
   -2.2216   -1.5311    2.2039 C   0  0  0  0  0  0  0  0  0  0  0  0
   -1.2732   -0.7516    2.8826 C   0  0  0  0  0  0  0  0  0  0  0  0
   -4.9154   -3.1866   -0.5687 C   0  0  0  0  0  0  0  0  0  0  0  0
   -4.3308   -3.1528   -1.8334 C   0  0  0  0  0  0  0  0  0  0  0  0
   -2.7456   -2.5498   -1.6919 S   0  0  0  0  0  0  0  0  0  0  0  0
   -4.9461   -3.5880   -3.1055 C   0  0  0  0  0  0  0  0  0  0  0  0
   -6.1759   -3.2772   -3.5519 C   0  0  0  0  0  0  0  0  0  0  0  0
   -7.0933   -2.2767   -2.8830 C   0  0  0  0  0  0  0  0  0  0  0  0
   -6.6766   -0.8454   -3.2531 C   0  0  0  0  0  0  0  0  0  0  0  0
   -6.4191   -3.7898   -4.9246 C   0  0  0  0  0  0  0  0  0  0  0  0
   -7.7279   -3.6340   -5.6709 C   0  0  0  0  0  0  0  0  0  0  0  0
   -8.6801   -4.7735   -5.3239 C   0  0  0  0  0  0  0  0  0  0  0  0
   -5.3772   -4.4606   -5.4143 C   0  0  0  0  0  0  0  0  0  0  0  0
   -4.0479   -4.4726   -4.3028 S   0  0  0  0  0  6  0  0  0  0  0  0
   -3.6642   -5.8413   -3.8205 O   0  0  0  0  0  0  0  0  0  0  0  0
   -2.8756   -3.6892   -4.8217 O   0  0  0  0  0  0  0  0  0  0  0  0
   -5.2707   -4.9892   -6.7863 C   0  0  0  0  0  0  0  0  0  0  0  0
   -5.4114   -6.2808   -7.1497 C   0  0  0  0  0  0  0  0  0  0  0  0
   -5.7131   -7.4017   -6.1773 C   0  0  0  0  0  0  0  0  0  0  0  0
   -4.4852   -8.2680   -5.9476 C   0  0  0  0  0  0  0  0  0  0  0  0
   -5.1894   -6.4815   -8.6090 C   0  0  0  0  0  0  0  0  0  0  0  0
   -5.2785   -7.8068   -9.3236 C   0  0  0  0  0  0  0  0  0  0  0  0
   -6.2118   -7.7541  -10.5299 C   0  0  0  0  0  0  0  0  0  0  0  0
   -4.8272   -5.3529   -9.2319 C   0  0  0  0  0  0  0  0  0  0  0  0
   -4.7759   -4.0102   -8.1322 S   0  0  0  0  0  6  0  0  0  0  0  0
   -5.7669   -2.9441   -8.4976 O   0  0  0  0  0  0  0  0  0  0  0  0
   -3.3818   -3.4653   -7.9749 O   0  0  0  0  0  0  0  0  0  0  0  0
   10.5934    4.9945   -0.2486 H   0  0  0  0  0  0  0  0  0  0  0  0
   11.1974    4.2736    3.3275 H   0  0  0  0  0  0  0  0  0  0  0  0
   11.9806    4.5624    1.7496 H   0  0  0  0  0  0  0  0  0  0  0  0
   12.3830    2.2312    2.5705 H   0  0  0  0  0  0  0  0  0  0  0  0
   11.4962    2.2528    0.9930 H   0  0  0  0  0  0  0  0  0  0  0  0
   10.6199    1.9044    2.5365 H   0  0  0  0  0  0  0  0  0  0  0  0
    7.7599    2.8303    3.7981 H   0  0  0  0  0  0  0  0  0  0  0  0
    9.3795    3.3010    4.0753 H   0  0  0  0  0  0  0  0  0  0  0  0
    7.8529    4.3944    5.7165 H   0  0  0  0  0  0  0  0  0  0  0  0
    8.8852    5.5528    4.7905 H   0  0  0  0  0  0  0  0  0  0  0  0
    7.1327    5.3755    4.3855 H   0  0  0  0  0  0  0  0  0  0  0  0
    6.0071    6.9937    0.9242 H   0  0  0  0  0  0  0  0  0  0  0  0
    4.3055    7.2197    1.0842 H   0  0  0  0  0  0  0  0  0  0  0  0
    5.0970    7.3553   -1.3424 H   0  0  0  0  0  0  0  0  0  0  0  0
    5.5188    5.5943   -1.2512 H   0  0  0  0  0  0  0  0  0  0  0  0
    3.8116    6.1200   -1.0870 H   0  0  0  0  0  0  0  0  0  0  0  0
    2.4184    6.1859    0.7402 H   0  0  0  0  0  0  0  0  0  0  0  0
    1.7695    4.5750    0.4791 H   0  0  0  0  0  0  0  0  0  0  0  0
    1.0160    4.5243    2.8842 H   0  0  0  0  0  0  0  0  0  0  0  0
    0.4287    6.0159    2.0777 H   0  0  0  0  0  0  0  0  0  0  0  0
    1.8498    6.0996    3.1800 H   0  0  0  0  0  0  0  0  0  0  0  0
    1.7779    2.7748    5.7148 H   0  0  0  0  0  0  0  0  0  0  0  0
    3.1483    3.5774    4.9570 H   0  0  0  0  0  0  0  0  0  0  0  0
    4.5870    1.4548    5.4531 H   0  0  0  0  0  0  0  0  0  0  0  0
    3.9545    2.3676    6.8858 H   0  0  0  0  0  0  0  0  0  0  0  0
    3.1999    0.8653    6.4091 H   0  0  0  0  0  0  0  0  0  0  0  0
    0.6702   -1.1709    4.5316 H   0  0  0  0  0  0  0  0  0  0  0  0
    2.0928   -0.5917    5.3132 H   0  0  0  0  0  0  0  0  0  0  0  0
    0.8396    0.9850    6.6945 H   0  0  0  0  0  0  0  0  0  0  0  0
   -0.1613   -0.4830    6.6189 H   0  0  0  0  0  0  0  0  0  0  0  0
   -0.5865    0.9499    5.5914 H   0  0  0  0  0  0  0  0  0  0  0  0
   -4.3365   -0.1907    3.1758 H   0  0  0  0  0  0  0  0  0  0  0  0
   -3.5451   -0.8853    4.6236 H   0  0  0  0  0  0  0  0  0  0  0  0
   -6.0222   -0.7421    4.8226 H   0  0  0  0  0  0  0  0  0  0  0  0
   -6.2187   -1.8705    3.4381 H   0  0  0  0  0  0  0  0  0  0  0  0
   -5.4397   -2.4322    4.9758 H   0  0  0  0  0  0  0  0  0  0  0  0
   -4.0161   -3.9673    3.9545 H   0  0  0  0  0  0  0  0  0  0  0  0
   -2.6893   -4.2011    2.7964 H   0  0  0  0  0  0  0  0  0  0  0  0
   -1.9236   -4.3525    5.1532 H   0  0  0  0  0  0  0  0  0  0  0  0
   -1.0925   -3.0472    4.2677 H   0  0  0  0  0  0  0  0  0  0  0  0
   -2.3980   -2.6430    5.4540 H   0  0  0  0  0  0  0  0  0  0  0  0
   -1.4041   -0.4527    3.9066 H   0  0  0  0  0  0  0  0  0  0  0  0
   -5.8993   -3.5836   -0.3544 H   0  0  0  0  0  0  0  0  0  0  0  0
   -8.1437   -2.4383   -3.1839 H   0  0  0  0  0  0  0  0  0  0  0  0
   -7.0808   -2.3697   -1.7858 H   0  0  0  0  0  0  0  0  0  0  0  0
   -5.6329   -0.6581   -2.9290 H   0  0  0  0  0  0  0  0  0  0  0  0
   -6.7596   -0.6887   -4.3432 H   0  0  0  0  0  0  0  0  0  0  0  0
   -7.3418   -0.1201   -2.7360 H   0  0  0  0  0  0  0  0  0  0  0  0
   -8.1949   -2.6545   -5.4293 H   0  0  0  0  0  0  0  0  0  0  0  0
   -7.5616   -3.6186   -6.7632 H   0  0  0  0  0  0  0  0  0  0  0  0
   -9.6899   -4.5560   -5.7216 H   0  0  0  0  0  0  0  0  0  0  0  0
   -8.3181   -5.7076   -5.8105 H   0  0  0  0  0  0  0  0  0  0  0  0
   -8.7452   -4.9157   -4.2231 H   0  0  0  0  0  0  0  0  0  0  0  0
   -6.0621   -6.9949   -5.2022 H   0  0  0  0  0  0  0  0  0  0  0  0
   -6.5444   -8.0113   -6.5752 H   0  0  0  0  0  0  0  0  0  0  0  0
   -3.6051   -7.6482   -5.6630 H   0  0  0  0  0  0  0  0  0  0  0  0
   -4.6932   -9.0022   -5.1358 H   0  0  0  0  0  0  0  0  0  0  0  0
   -4.2220   -8.8448   -6.8607 H   0  0  0  0  0  0  0  0  0  0  0  0
   -4.2574   -8.1121   -9.6524 H   0  0  0  0  0  0  0  0  0  0  0  0
   -5.6615   -8.5887   -8.6452 H   0  0  0  0  0  0  0  0  0  0  0  0
   -6.3198   -8.7743  -10.9561 H   0  0  0  0  0  0  0  0  0  0  0  0
   -7.2192   -7.3799  -10.2356 H   0  0  0  0  0  0  0  0  0  0  0  0
   -5.7970   -7.0904  -11.3193 H   0  0  0  0  0  0  0  0  0  0  0  0
   -4.5634   -5.2850  -10.2811 H   0  0  0  0  0  0  0  0  0  0  0  0
  1  2  2  0
  2  3  1  0
  3  4  1  0
  2  5  1  0
  5  6  1  0
  6  7  1  0
  5  8  2  0
  8  9  1  0
  9 10  2  0
  9 11  2  0
  8 12  1  0
 12 13  2  0
 13 14  1  0
 14 15  1  0
 13 16  1  0
 16 17  1  0
 17 18  1  0
 16 19  2  0
 19 20  1  0
 20 21  2  0
 20 22  2  0
 19 23  1  0
 23 24  2  0
 24 25  1  0
 25 26  1  0
 24 27  1  0
 27 28  1  0
 28 29  1  0
 27 30  2  0
 30 31  1  0
 31 32  2  0
 31 33  2  0
 30 34  1  0
 34 35  1  0
 35 36  1  0
 36 37  1  0
 37 38  2  0
 38 39  1  0
 39 40  1  0
 40 41  1  0
 41 42  1  0
 40 43  1  0
 43 44  1  0
 40 45  1  0
 45 46  1  0
 38 47  1  0
 47 48  2  0
 48 49  1  0
 48 50  1  0
 50 51  2  0
 51 52  1  0
 52 53  1  0
 51 54  1  0
 54 55  1  0
 55 56  1  0
 54 57  2  0
 57 58  1  0
 58 59  2  0
 58 60  2  0
 57 61  1  0
 61 62  2  0
 62 63  1  0
 63 64  1  0
 62 65  1  0
 65 66  1  0
 66 67  1  0
 65 68  2  0
 68 69  1  0
 69 70  2  0
 69 71  2  0
  9  1  1  0
 20 12  1  0
 31 23  1  0
 46 34  2  0
 58 50  1  0
 69 61  1  0
 45 36  2  0
 49 37  1  0
  1 72  1  0
  3 73  1  0
  3 74  1  0
  4 75  1  0
  4 76  1  0
  4 77  1  0
  6 78  1  0
  6 79  1  0
  7 80  1  0
  7 81  1  0
  7 82  1  0
 14 83  1  0
 14 84  1  0
 15 85  1  0
 15 86  1  0
 15 87  1  0
 17 88  1  0
 17 89  1  0
 18 90  1  0
 18 91  1  0
 18 92  1  0
 25 93  1  0
 25 94  1  0
 26 95  1  0
 26 96  1  0
 26 97  1  0
 28 98  1  0
 28 99  1  0
 29100  1  0
 29101  1  0
 29102  1  0
 41103  1  0
 41104  1  0
 42105  1  0
 42106  1  0
 42107  1  0
 43108  1  0
 43109  1  0
 44110  1  0
 44111  1  0
 44112  1  0
 46113  1  0
 47114  1  0
 52115  1  0
 52116  1  0
 53117  1  0
 53118  1  0
 53119  1  0
 55120  1  0
 55121  1  0
 56122  1  0
 56123  1  0
 56124  1  0
 63125  1  0
 63126  1  0
 64127  1  0
 64128  1  0
 64129  1  0
 66130  1  0
 66131  1  0
 67132  1  0
 67133  1  0
 67134  1  0
 68135  1  0
M  END

