
     RDKit          3D

145162  0  0  0  0  0  0  0  0999 V2000
    1.9754    2.9112   12.5495 C   0  0  0  0  0  0  0  0  0  0  0  0
    0.6967    2.3414   12.5628 C   0  0  0  0  0  0  0  0  0  0  0  0
    0.1587    1.7218   11.3876 C   0  0  0  0  0  0  0  0  0  0  0  0
   -1.0910    1.2017   11.4986 N   0  0  0  0  0  0  0  0  0  0  0  0
   -1.4254    1.5653   13.0775 S   0  0  0  0  0  0  0  0  0  0  0  0
   -0.0928    2.3469   13.6673 N   0  0  0  0  0  0  0  0  0  0  0  0
    0.9059    1.6737   10.1946 C   0  0  0  0  0  0  0  0  0  0  0  0
    2.1871    2.2607   10.1985 C   0  0  0  0  0  0  0  0  0  0  0  0
    3.0637    2.3503    9.1064 C   0  0  0  0  0  0  0  0  0  0  0  0
    4.2494    3.0141    9.4201 C   0  0  0  0  0  0  0  0  0  0  0  0
    5.3367    3.2878    8.4761 C   0  0  0  0  0  0  0  0  0  0  0  0
    6.3779    3.8799    8.8697 O   0  0  0  0  0  0  0  0  0  0  0  0
    5.2025    2.8962    7.1411 O   0  0  0  0  0  0  0  0  0  0  0  0
    6.2104    3.1261    6.1620 C   0  0  0  0  0  0  0  0  0  0  0  0
    5.7377    2.5972    4.8177 C   0  0  0  0  0  0  0  0  0  0  0  0
    4.2174    3.4904   11.0426 S   0  0  0  0  0  0  0  0  0  0  0  0
    2.6929    2.8574   11.3541 C   0  0  0  0  0  0  0  0  0  0  0  0
    0.3586    1.0541    8.9717 C   0  0  0  0  0  0  0  0  0  0  0  0
   -0.5397    1.7481    8.1438 C   0  0  0  0  0  0  0  0  0  0  0  0
   -0.9567    1.1920    6.8910 C   0  0  0  0  0  0  0  0  0  0  0  0
   -1.7860    1.9599    6.1380 N   0  0  0  0  0  0  0  0  0  0  0  0
   -1.9427    3.2847    7.1126 S   0  0  0  0  0  0  0  0  0  0  0  0
   -1.0197    2.9816    8.4489 N   0  0  0  0  0  0  0  0  0  0  0  0
   -0.4808   -0.0639    6.4658 C   0  0  0  0  0  0  0  0  0  0  0  0
    0.3902   -0.7620    7.3254 C   0  0  0  0  0  0  0  0  0  0  0  0
    0.9558   -2.0251    7.0835 C   0  0  0  0  0  0  0  0  0  0  0  0
    1.8058   -2.4417    8.1042 C   0  0  0  0  0  0  0  0  0  0  0  0
    2.5424   -3.7102    8.1325 C   0  0  0  0  0  0  0  0  0  0  0  0
    3.3337   -3.9544    9.0838 O   0  0  0  0  0  0  0  0  0  0  0  0
    2.3581   -4.6417    7.1067 O   0  0  0  0  0  0  0  0  0  0  0  0
    3.0411   -5.8904    7.0699 C   0  0  0  0  0  0  0  0  0  0  0  0
    2.5726   -6.6951    5.8678 C   0  0  0  0  0  0  0  0  0  0  0  0
    1.8580   -1.2572    9.3074 S   0  0  0  0  0  0  0  0  0  0  0  0
    0.7933   -0.2042    8.5385 C   0  0  0  0  0  0  0  0  0  0  0  0
   -0.7653   -0.5552    5.0989 C   0  0  0  0  0  0  0  0  0  0  0  0
    0.2464   -0.5771    4.1252 C   0  0  0  0  0  0  0  0  0  0  0  0
   -0.0313   -1.0134    2.7913 C   0  0  0  0  0  0  0  0  0  0  0  0
    1.0205   -1.0089    1.9296 N   0  0  0  0  0  0  0  0  0  0  0  0
    2.2210   -0.4367    2.9087 S   0  0  0  0  0  0  0  0  0  0  0  0
    1.5223   -0.1852    4.3831 N   0  0  0  0  0  0  0  0  0  0  0  0
   -1.3283   -1.4292    2.4186 C   0  0  0  0  0  0  0  0  0  0  0  0
   -2.3365   -1.3993    3.4077 C   0  0  0  0  0  0  0  0  0  0  0  0
   -3.6922   -1.7308    3.2334 C   0  0  0  0  0  0  0  0  0  0  0  0
   -4.4396   -1.5927    4.4024 C   0  0  0  0  0  0  0  0  0  0  0  0
   -5.8767   -1.8534    4.5382 C   0  0  0  0  0  0  0  0  0  0  0  0
   -6.5662   -2.1258    3.5184 O   0  0  0  0  0  0  0  0  0  0  0  0
   -6.4686   -1.8038    5.8043 O   0  0  0  0  0  0  0  0  0  0  0  0
   -7.8666   -1.9917    6.0292 C   0  0  0  0  0  0  0  0  0  0  0  0
   -8.6354   -0.7239    5.6841 C   0  0  0  0  0  0  0  0  0  0  0  0
   -3.4389   -1.0445    5.6457 S   0  0  0  0  0  0  0  0  0  0  0  0
   -2.0443   -0.9743    4.7074 C   0  0  0  0  0  0  0  0  0  0  0  0
   -1.5963   -1.8744    1.0346 C   0  0  0  0  0  0  0  0  0  0  0  0
   -1.0928   -1.0475   -0.3468 S   0  0  0  0  0  0  0  0  0  0  0  0
   -1.5774   -2.2450   -1.4099 C   0  0  0  0  0  0  0  0  0  0  0  0
   -1.4534   -2.2669   -2.8479 C   0  0  0  0  0  0  0  0  0  0  0  0
   -1.9492   -3.3271   -3.5569 C   0  0  0  0  0  0  0  0  0  0  0  0
   -2.5977   -4.3861   -2.9047 O   0  0  0  0  0  0  0  0  0  0  0  0
   -2.5421   -4.6056   -1.4684 C   0  0  0  0  0  0  0  0  0  0  0  0
   -3.9653   -5.0219   -1.0071 C   0  0  0  0  0  0  0  0  0  0  0  0
   -4.5099   -6.2692   -1.7130 C   0  0  0  0  0  0  0  0  0  0  0  0
   -1.4749   -5.7166   -1.2433 C   0  0  0  0  0  0  0  0  0  0  0  0
   -1.2831   -6.1951    0.1993 C   0  0  0  0  0  0  0  0  0  0  0  0
   -2.1310   -3.3171   -0.7292 C   0  0  0  0  0  0  0  0  0  0  0  0
   -2.1548   -3.0995    0.6622 C   0  0  0  0  0  0  0  0  0  0  0  0
   -1.7508   -3.2218   -4.9378 C   0  0  0  0  0  0  0  0  0  0  0  0
   -1.0774   -2.0431   -5.2962 C   0  0  0  0  0  0  0  0  0  0  0  0
   -0.7684   -1.1506   -3.8869 S   0  0  0  0  0  0  0  0  0  0  0  0
   -0.6938   -1.6303   -6.6724 C   0  0  0  0  0  0  0  0  0  0  0  0
   -1.5376   -1.8757   -7.7789 C   0  0  0  0  0  0  0  0  0  0  0  0
   -1.1618   -1.4613   -9.0990 C   0  0  0  0  0  0  0  0  0  0  0  0
   -2.0415   -1.7369  -10.0969 N   0  0  0  0  0  0  0  0  0  0  0  0
   -3.2463   -2.4766   -9.2436 S   0  0  0  0  0  0  0  0  0  0  0  0
   -2.7476   -2.4851   -7.6689 N   0  0  0  0  0  0  0  0  0  0  0  0
    0.0575   -0.8027   -9.3291 C   0  0  0  0  0  0  0  0  0  0  0  0
    0.8891   -0.5499   -8.2248 C   0  0  0  0  0  0  0  0  0  0  0  0
    2.1292    0.1138   -8.2686 C   0  0  0  0  0  0  0  0  0  0  0  0
    2.7316    0.2223   -7.0210 C   0  0  0  0  0  0  0  0  0  0  0  0
    3.9945    0.9149   -6.7410 C   0  0  0  0  0  0  0  0  0  0  0  0
    4.4126    1.0051   -5.5555 O   0  0  0  0  0  0  0  0  0  0  0  0
    4.7187    1.4808   -7.7948 O   0  0  0  0  0  0  0  0  0  0  0  0
    5.8294    2.3600   -7.6060 C   0  0  0  0  0  0  0  0  0  0  0  0
    5.3429    3.7441   -7.1968 C   0  0  0  0  0  0  0  0  0  0  0  0
    1.7402   -0.5053   -5.8690 S   0  0  0  0  0  0  0  0  0  0  0  0
    0.5154   -0.9536   -6.9397 C   0  0  0  0  0  0  0  0  0  0  0  0
    0.4676   -0.4216  -10.6964 C   0  0  0  0  0  0  0  0  0  0  0  0
    1.4175   -1.1782  -11.4063 C   0  0  0  0  0  0  0  0  0  0  0  0
    1.8344   -0.7806  -12.7180 C   0  0  0  0  0  0  0  0  0  0  0  0
    2.7553   -1.5668  -13.3297 N   0  0  0  0  0  0  0  0  0  0  0  0
    2.9797   -2.7177  -12.1640 S   0  0  0  0  0  0  0  0  0  0  0  0
    1.9877   -2.3046  -10.9076 N   0  0  0  0  0  0  0  0  0  0  0  0
    1.3070    0.3685  -13.3193 C   0  0  0  0  0  0  0  0  0  0  0  0
    0.3672    1.1174  -12.6023 C   0  0  0  0  0  0  0  0  0  0  0  0
   -0.2372    2.2974  -13.0451 C   0  0  0  0  0  0  0  0  0  0  0  0
   -1.1208    2.8317  -12.1075 C   0  0  0  0  0  0  0  0  0  0  0  0
   -1.8952    4.0668  -12.2744 C   0  0  0  0  0  0  0  0  0  0  0  0
   -1.8105    4.7214  -13.3487 O   0  0  0  0  0  0  0  0  0  0  0  0
   -2.7125    4.5173  -11.2350 O   0  0  0  0  0  0  0  0  0  0  0  0
   -3.4624    5.7235  -11.3211 C   0  0  0  0  0  0  0  0  0  0  0  0
   -4.2323    5.9416  -10.0278 C   0  0  0  0  0  0  0  0  0  0  0  0
   -1.1472    1.8452  -10.7328 S   0  0  0  0  0  0  0  0  0  0  0  0
   -0.0397    0.7248  -11.3265 C   0  0  0  0  0  0  0  0  0  0  0  0
    2.3890    3.3892   13.4282 H   0  0  0  0  0  0  0  0  0  0  0  0
    2.8434    1.9573    8.1221 H   0  0  0  0  0  0  0  0  0  0  0  0
    6.4101    4.2173    6.0783 H   0  0  0  0  0  0  0  0  0  0  0  0
    7.1451    2.6029    6.4569 H   0  0  0  0  0  0  0  0  0  0  0  0
    6.5340    2.7424    4.0576 H   0  0  0  0  0  0  0  0  0  0  0  0
    4.8283    3.1452    4.4949 H   0  0  0  0  0  0  0  0  0  0  0  0
    5.5034    1.5143    4.8967 H   0  0  0  0  0  0  0  0  0  0  0  0
    0.7590   -2.6164    6.1968 H   0  0  0  0  0  0  0  0  0  0  0  0
    2.8271   -6.4628    7.9992 H   0  0  0  0  0  0  0  0  0  0  0  0
    4.1362   -5.7140    6.9951 H   0  0  0  0  0  0  0  0  0  0  0  0
    1.4860   -6.9022    5.9533 H   0  0  0  0  0  0  0  0  0  0  0  0
    3.1216   -7.6590    5.8265 H   0  0  0  0  0  0  0  0  0  0  0  0
    2.7637   -6.1293    4.9329 H   0  0  0  0  0  0  0  0  0  0  0  0
   -4.1228   -2.0527    2.2951 H   0  0  0  0  0  0  0  0  0  0  0  0
   -8.2491   -2.8489    5.4342 H   0  0  0  0  0  0  0  0  0  0  0  0
   -8.0213   -2.2228    7.1035 H   0  0  0  0  0  0  0  0  0  0  0  0
   -8.2256    0.1337    6.2590 H   0  0  0  0  0  0  0  0  0  0  0  0
   -9.7088   -0.8512    5.9451 H   0  0  0  0  0  0  0  0  0  0  0  0
   -8.5570   -0.5070    4.5980 H   0  0  0  0  0  0  0  0  0  0  0  0
   -4.0020   -5.1883    0.0886 H   0  0  0  0  0  0  0  0  0  0  0  0
   -4.6607   -4.1805   -1.2242 H   0  0  0  0  0  0  0  0  0  0  0  0
   -3.9366   -7.1714   -1.4153 H   0  0  0  0  0  0  0  0  0  0  0  0
   -5.5697   -6.4246   -1.4190 H   0  0  0  0  0  0  0  0  0  0  0  0
   -4.4737   -6.1490   -2.8143 H   0  0  0  0  0  0  0  0  0  0  0  0
   -0.4911   -5.3483   -1.6129 H   0  0  0  0  0  0  0  0  0  0  0  0
   -1.7245   -6.5977   -1.8728 H   0  0  0  0  0  0  0  0  0  0  0  0
   -0.6113   -7.0803    0.2047 H   0  0  0  0  0  0  0  0  0  0  0  0
   -2.2456   -6.5001    0.6597 H   0  0  0  0  0  0  0  0  0  0  0  0
   -0.7967   -5.4106    0.8113 H   0  0  0  0  0  0  0  0  0  0  0  0
   -2.5161   -3.8249    1.3794 H   0  0  0  0  0  0  0  0  0  0  0  0
   -2.0624   -3.9849   -5.6386 H   0  0  0  0  0  0  0  0  0  0  0  0
    2.5682    0.5126   -9.1744 H   0  0  0  0  0  0  0  0  0  0  0  0
    6.3802    2.4446   -8.5666 H   0  0  0  0  0  0  0  0  0  0  0  0
    6.5264    1.9538   -6.8422 H   0  0  0  0  0  0  0  0  0  0  0  0
    4.8652    3.7034   -6.1950 H   0  0  0  0  0  0  0  0  0  0  0  0
    4.6032    4.1215   -7.9367 H   0  0  0  0  0  0  0  0  0  0  0  0
    6.2012    4.4482   -7.1557 H   0  0  0  0  0  0  0  0  0  0  0  0
    1.6250    0.6742  -14.3087 H   0  0  0  0  0  0  0  0  0  0  0  0
   -0.0354    2.7469  -14.0093 H   0  0  0  0  0  0  0  0  0  0  0  0
   -2.7756    6.5815  -11.4879 H   0  0  0  0  0  0  0  0  0  0  0  0
   -4.1795    5.6602  -12.1685 H   0  0  0  0  0  0  0  0  0  0  0  0
   -4.9626    5.1193   -9.8787 H   0  0  0  0  0  0  0  0  0  0  0  0
   -4.7793    6.9062  -10.0778 H   0  0  0  0  0  0  0  0  0  0  0  0
   -3.5292    5.9675   -9.1685 H   0  0  0  0  0  0  0  0  0  0  0  0
  1  2  1  0
  2  3  1  0
  3  4  2  0
  4  5  1  0
  5  6  1  0
  3  7  1  0
  7  8  2  0
  8  9  1  0
  9 10  2  0
 10 11  1  0
 11 12  2  0
 11 13  1  0
 13 14  1  0
 14 15  1  0
 10 16  1  0
 16 17  1  0
  7 18  1  0
 18 19  1  0
 19 20  1  0
 20 21  2  0
 21 22  1  0
 22 23  1  0
 20 24  1  0
 24 25  2  0
 25 26  1  0
 26 27  2  0
 27 28  1  0
 28 29  2  0
 28 30  1  0
 30 31  1  0
 31 32  1  0
 27 33  1  0
 33 34  1  0
 24 35  1  0
 35 36  1  0
 36 37  1  0
 37 38  2  0
 38 39  1  0
 39 40  1  0
 37 41  1  0
 41 42  2  0
 42 43  1  0
 43 44  2  0
 44 45  1  0
 45 46  2  0
 45 47  1  0
 47 48  1  0
 48 49  1  0
 44 50  1  0
 50 51  1  0
 41 52  1  0
 52 53  1  0
 53 54  1  0
 54 55  1  0
 55 56  2  0
 56 57  1  0
 57 58  1  0
 58 59  1  0
 59 60  1  0
 58 61  1  0
 61 62  1  0
 58 63  1  0
 63 64  1  0
 56 65  1  0
 65 66  2  0
 66 67  1  0
 66 68  1  0
 68 69  1  0
 69 70  1  0
 70 71  2  0
 71 72  1  0
 72 73  1  0
 70 74  1  0
 74 75  2  0
 75 76  1  0
 76 77  2  0
 77 78  1  0
 78 79  2  0
 78 80  1  0
 80 81  1  0
 81 82  1  0
 77 83  1  0
 83 84  1  0
 74 85  1  0
 85 86  1  0
 86 87  1  0
 87 88  2  0
 88 89  1  0
 89 90  1  0
 87 91  1  0
 91 92  2  0
 92 93  1  0
 93 94  2  0
 94 95  1  0
 95 96  2  0
 95 97  1  0
 97 98  1  0
 98 99  1  0
 94100  1  0
100101  1  0
 17  1  2  0
 34 18  2  0
 51 35  2  0
 64 52  2  0
 84 68  2  0
101 85  2  0
  6  2  2  0
 17  8  1  0
 23 19  2  0
 34 25  1  0
 40 36  2  0
 51 42  1  0
 63 54  2  0
 73 69  2  0
 84 75  1  0
 90 86  2  0
101 92  1  0
 67 55  1  0
  1102  1  0
  9103  1  0
 14104  1  0
 14105  1  0
 15106  1  0
 15107  1  0
 15108  1  0
 26109  1  0
 31110  1  0
 31111  1  0
 32112  1  0
 32113  1  0
 32114  1  0
 43115  1  0
 48116  1  0
 48117  1  0
 49118  1  0
 49119  1  0
 49120  1  0
 59121  1  0
 59122  1  0
 60123  1  0
 60124  1  0
 60125  1  0
 61126  1  0
 61127  1  0
 62128  1  0
 62129  1  0
 62130  1  0
 64131  1  0
 65132  1  0
 76133  1  0
 81134  1  0
 81135  1  0
 82136  1  0
 82137  1  0
 82138  1  0
 91139  1  0
 93140  1  0
 98141  1  0
 98142  1  0
 99143  1  0
 99144  1  0
 99145  1  0
M  END

