
     RDKit          3D

212235  0  0  0  0  0  0  0  0999 V2000
    3.5512   -3.7152   11.0438 C   0  0  0  0  0  0  0  0  0  0  0  0
    2.3456   -4.5764   10.2356 S   0  0  0  0  0  0  0  0  0  0  0  0
    1.7693   -3.2556    9.3788 C   0  0  0  0  0  0  0  0  0  0  0  0
    0.6877   -3.1916    8.4200 C   0  0  0  0  0  0  0  0  0  0  0  0
    0.3749   -1.9924    7.8313 C   0  0  0  0  0  0  0  0  0  0  0  0
    1.0917   -0.8229    8.1225 O   0  0  0  0  0  0  0  0  0  0  0  0
    2.2055   -0.7587    9.0503 C   0  0  0  0  0  0  0  0  0  0  0  0
    3.4576   -0.2730    8.2752 C   0  0  0  0  0  0  0  0  0  0  0  0
    3.9015   -1.2435    7.1772 C   0  0  0  0  0  0  0  0  0  0  0  0
    1.8293    0.2359   10.1795 C   0  0  0  0  0  0  0  0  0  0  0  0
    1.4031    1.6215    9.6822 C   0  0  0  0  0  0  0  0  0  0  0  0
    2.4962   -2.1224    9.6984 C   0  0  0  0  0  0  0  0  0  0  0  0
    3.5054   -2.3840   10.6384 C   0  0  0  0  0  0  0  0  0  0  0  0
   -0.6883   -2.0685    6.9344 C   0  0  0  0  0  0  0  0  0  0  0  0
   -1.1957   -3.3638    6.8196 C   0  0  0  0  0  0  0  0  0  0  0  0
   -0.3224   -4.4006    7.8380 S   0  0  0  0  0  0  0  0  0  0  0  0
   -2.2841   -3.7676    5.9189 C   0  0  0  0  0  0  0  0  0  0  0  0
   -3.2534   -2.6943    5.0488 S   0  0  0  0  0  0  0  0  0  0  0  0
   -4.0958   -3.8911    4.2330 C   0  0  0  0  0  0  0  0  0  0  0  0
   -5.0285   -3.7343    3.1419 C   0  0  0  0  0  0  0  0  0  0  0  0
   -5.3566   -4.8250    2.3762 C   0  0  0  0  0  0  0  0  0  0  0  0
   -4.9344   -6.1153    2.7295 O   0  0  0  0  0  0  0  0  0  0  0  0
   -4.1505   -6.4192    3.9106 C   0  0  0  0  0  0  0  0  0  0  0  0
   -5.0387   -7.1962    4.9161 C   0  0  0  0  0  0  0  0  0  0  0  0
   -6.2585   -6.3996    5.3876 C   0  0  0  0  0  0  0  0  0  0  0  0
   -2.9403   -7.2894    3.4694 C   0  0  0  0  0  0  0  0  0  0  0  0
   -3.3132   -8.4852    2.5859 C   0  0  0  0  0  0  0  0  0  0  0  0
   -3.6173   -5.1429    4.5817 C   0  0  0  0  0  0  0  0  0  0  0  0
   -2.6133   -5.0766    5.5665 C   0  0  0  0  0  0  0  0  0  0  0  0
   -6.0464   -4.5016    1.2045 C   0  0  0  0  0  0  0  0  0  0  0  0
   -6.2383   -3.1247    1.0633 C   0  0  0  0  0  0  0  0  0  0  0  0
   -5.5554   -2.3301    2.3934 S   0  0  0  0  0  0  0  0  0  0  0  0
   -6.6210   -2.4420   -0.1794 C   0  0  0  0  0  0  0  0  0  0  0  0
   -6.8757   -1.0753   -0.2987 C   0  0  0  0  0  0  0  0  0  0  0  0
   -6.8494   -0.6270   -1.6300 C   0  0  0  0  0  0  0  0  0  0  0  0
   -6.9826    0.7073   -2.0629 C   0  0  0  0  0  0  0  0  0  0  0  0
   -7.2305    1.8163   -1.1236 C   0  0  0  0  0  0  0  0  0  0  0  0
   -6.1407    2.3534    0.0416 S   0  0  0  0  0  0  0  0  0  0  0  0
   -7.0856    3.6335    0.5913 C   0  0  0  0  0  0  0  0  0  0  0  0
   -6.6541    4.6194    1.6353 C   0  0  0  0  0  0  0  0  0  0  0  0
   -6.1175    5.8917    0.9893 C   0  0  0  0  0  0  0  0  0  0  0  0
   -8.2663    3.6689   -0.1503 C   0  0  0  0  0  0  0  0  0  0  0  0
   -9.5236    4.8758    0.0821 Cl  0  0  0  0  0  0  0  0  0  0  0  0
   -8.3449    2.6498   -1.1126 C   0  0  0  0  0  0  0  0  0  0  0  0
   -9.7156    2.4443   -2.1954 Cl  0  0  0  0  0  0  0  0  0  0  0  0
   -6.7459    0.9586   -3.4245 C   0  0  0  0  0  0  0  0  0  0  0  0
   -6.4045   -0.0515   -4.3304 C   0  0  0  0  0  0  0  0  0  0  0  0
   -6.3651   -1.3979   -3.9166 C   0  0  0  0  0  0  0  0  0  0  0  0
   -6.0295   -2.4886   -4.8509 C   0  0  0  0  0  0  0  0  0  0  0  0
   -4.7266   -3.5415   -4.6866 S   0  0  0  0  0  0  0  0  0  0  0  0
   -5.0577   -4.4583   -6.0577 C   0  0  0  0  0  0  0  0  0  0  0  0
   -4.2954   -5.6822   -6.4667 C   0  0  0  0  0  0  0  0  0  0  0  0
   -4.9031   -6.9319   -5.8390 C   0  0  0  0  0  0  0  0  0  0  0  0
   -6.2151   -3.9604   -6.6562 C   0  0  0  0  0  0  0  0  0  0  0  0
   -6.7526   -2.8509   -5.9858 C   0  0  0  0  0  0  0  0  0  0  0  0
   -8.2362   -2.0501   -6.4894 Cl  0  0  0  0  0  0  0  0  0  0  0  0
   -6.9489   -4.6731   -8.0869 Cl  0  0  0  0  0  0  0  0  0  0  0  0
   -6.5786   -1.6463   -2.5492 C   0  0  0  0  0  0  0  0  0  0  0  0
   -6.3974   -3.0971   -1.7180 S   0  0  0  0  0  0  0  0  0  0  0  0
   -5.9575    0.4457   -5.5667 C   0  0  0  0  0  0  0  0  0  0  0  0
   -5.9549    1.8393   -5.6294 C   0  0  0  0  0  0  0  0  0  0  0  0
   -6.5161    2.4509   -4.1593 S   0  0  0  0  0  0  0  0  0  0  0  0
   -5.1285    2.6307   -6.5503 C   0  0  0  0  0  0  0  0  0  0  0  0
   -3.6100    2.1210   -7.0736 S   0  0  0  0  0  0  0  0  0  0  0  0
   -3.0324    3.6495   -7.4471 C   0  0  0  0  0  0  0  0  0  0  0  0
   -1.6369    4.0421   -7.5450 C   0  0  0  0  0  0  0  0  0  0  0  0
   -1.2917    5.3353   -7.2185 C   0  0  0  0  0  0  0  0  0  0  0  0
   -2.2649    6.3319   -7.0633 O   0  0  0  0  0  0  0  0  0  0  0  0
   -3.6873    6.1007   -7.2206 C   0  0  0  0  0  0  0  0  0  0  0  0
   -4.4519    6.8742   -6.0960 C   0  0  0  0  0  0  0  0  0  0  0  0
   -3.7180    8.1055   -5.5535 C   0  0  0  0  0  0  0  0  0  0  0  0
   -4.1177    6.5605   -8.6384 C   0  0  0  0  0  0  0  0  0  0  0  0
   -3.8039    8.0219   -8.9582 C   0  0  0  0  0  0  0  0  0  0  0  0
   -4.0003    4.5965   -7.1374 C   0  0  0  0  0  0  0  0  0  0  0  0
   -5.1961    4.0188   -6.6711 C   0  0  0  0  0  0  0  0  0  0  0  0
    0.0531    5.4983   -6.8767 C   0  0  0  0  0  0  0  0  0  0  0  0
    0.7632    4.2972   -6.8925 C   0  0  0  0  0  0  0  0  0  0  0  0
   -0.2937    3.0591   -7.3440 S   0  0  0  0  0  0  0  0  0  0  0  0
    1.9189    4.0308   -6.0345 C   0  0  0  0  0  0  0  0  0  0  0  0
    1.8715    4.2199   -4.6549 C   0  0  0  0  0  0  0  0  0  0  0  0
    2.8145    3.4515   -3.9609 C   0  0  0  0  0  0  0  0  0  0  0  0
    2.8700    3.2780   -2.5654 C   0  0  0  0  0  0  0  0  0  0  0  0
    1.9474    3.9720   -1.6523 C   0  0  0  0  0  0  0  0  0  0  0  0
    0.3006    3.6570   -1.5269 S   0  0  0  0  0  0  0  0  0  0  0  0
    0.0122    4.7342   -0.2655 C   0  0  0  0  0  0  0  0  0  0  0  0
   -1.3366    5.0147    0.3243 C   0  0  0  0  0  0  0  0  0  0  0  0
   -2.0379    6.1256   -0.4469 C   0  0  0  0  0  0  0  0  0  0  0  0
    1.2089    5.3730    0.0588 C   0  0  0  0  0  0  0  0  0  0  0  0
    1.3448    6.6143    1.2981 Cl  0  0  0  0  0  0  0  0  0  0  0  0
    2.2974    4.9329   -0.7085 C   0  0  0  0  0  0  0  0  0  0  0  0
    3.9341    5.5469   -0.5178 Cl  0  0  0  0  0  0  0  0  0  0  0  0
    3.7690    2.3199   -2.0804 C   0  0  0  0  0  0  0  0  0  0  0  0
    4.6195    1.5877   -2.9159 C   0  0  0  0  0  0  0  0  0  0  0  0
    4.5922    1.7896   -4.3114 C   0  0  0  0  0  0  0  0  0  0  0  0
    5.4466    1.0215   -5.2320 C   0  0  0  0  0  0  0  0  0  0  0  0
    5.2975   -0.6255   -5.5358 S   0  0  0  0  0  0  0  0  0  0  0  0
    6.5447   -0.7067   -6.6641 C   0  0  0  0  0  0  0  0  0  0  0  0
    6.9282   -1.9438   -7.4195 C   0  0  0  0  0  0  0  0  0  0  0  0
    6.2571   -1.9692   -8.7889 C   0  0  0  0  0  0  0  0  0  0  0  0
    7.0824    0.5681   -6.8313 C   0  0  0  0  0  0  0  0  0  0  0  0
    6.4651    1.5379   -6.0271 C   0  0  0  0  0  0  0  0  0  0  0  0
    6.9371    3.2319   -6.0122 Cl  0  0  0  0  0  0  0  0  0  0  0  0
    8.3996    0.9311   -7.9390 Cl  0  0  0  0  0  0  0  0  0  0  0  0
    3.6506    2.7106   -4.8025 C   0  0  0  0  0  0  0  0  0  0  0  0
    3.1542    2.9357   -6.3963 S   0  0  0  0  0  0  0  0  0  0  0  0
    5.3512    0.6044   -2.2275 C   0  0  0  0  0  0  0  0  0  0  0  0
    5.0288    0.5487   -0.8734 C   0  0  0  0  0  0  0  0  0  0  0  0
    3.8671    1.7138   -0.5168 S   0  0  0  0  0  0  0  0  0  0  0  0
    5.3507   -0.5642    0.0133 C   0  0  0  0  0  0  0  0  0  0  0  0
    4.4149   -1.4723    0.4962 C   0  0  0  0  0  0  0  0  0  0  0  0
    4.9848   -2.4495    1.3199 C   0  0  0  0  0  0  0  0  0  0  0  0
    4.3070   -3.5300    1.9141 C   0  0  0  0  0  0  0  0  0  0  0  0
    2.8962   -3.8192    1.6043 C   0  0  0  0  0  0  0  0  0  0  0  0
    1.6057   -3.6420    2.6720 S   0  0  0  0  0  0  0  0  0  0  0  0
    0.4089   -4.0726    1.5672 C   0  0  0  0  0  0  0  0  0  0  0  0
   -1.0642   -4.0238    1.8416 C   0  0  0  0  0  0  0  0  0  0  0  0
   -1.6442   -2.6814    1.4117 C   0  0  0  0  0  0  0  0  0  0  0  0
    1.0071   -4.3456    0.3382 C   0  0  0  0  0  0  0  0  0  0  0  0
    0.1054   -4.7921   -1.1041 Cl  0  0  0  0  0  0  0  0  0  0  0  0
    2.4013   -4.2082    0.3614 C   0  0  0  0  0  0  0  0  0  0  0  0
    3.4242   -4.5022   -1.0390 Cl  0  0  0  0  0  0  0  0  0  0  0  0
    5.0619   -4.3715    2.7448 C   0  0  0  0  0  0  0  0  0  0  0  0
    6.4331   -4.1908    2.9520 C   0  0  0  0  0  0  0  0  0  0  0  0
    7.1222   -3.1352    2.3188 C   0  0  0  0  0  0  0  0  0  0  0  0
    8.5693   -2.9314    2.4928 C   0  0  0  0  0  0  0  0  0  0  0  0
    9.2674   -1.5832    3.2161 S   0  0  0  0  0  0  0  0  0  0  0  0
   10.8638   -2.0776    3.0108 C   0  0  0  0  0  0  0  0  0  0  0  0
   12.0607   -1.2581    3.3898 C   0  0  0  0  0  0  0  0  0  0  0  0
   12.4063   -0.2670    2.2847 C   0  0  0  0  0  0  0  0  0  0  0  0
   10.8689   -3.2980    2.3390 C   0  0  0  0  0  0  0  0  0  0  0  0
    9.5820   -3.7824    2.0563 C   0  0  0  0  0  0  0  0  0  0  0  0
    9.2832   -5.2747    1.1763 Cl  0  0  0  0  0  0  0  0  0  0  0  0
   12.3394   -4.1414    1.8679 Cl  0  0  0  0  0  0  0  0  0  0  0  0
    6.3603   -2.2760    1.5095 C   0  0  0  0  0  0  0  0  0  0  0  0
    6.8822   -0.9498    0.6061 S   0  0  0  0  0  0  0  0  0  0  0  0
    6.9869   -5.1487    3.8173 C   0  0  0  0  0  0  0  0  0  0  0  0
    6.0584   -6.0828    4.2686 C   0  0  0  0  0  0  0  0  0  0  0  0
    4.5485   -5.7239    3.6030 S   0  0  0  0  0  0  0  0  0  0  0  0
    4.2527   -4.1305   11.7557 H   0  0  0  0  0  0  0  0  0  0  0  0
    4.3057   -0.1104    8.9764 H   0  0  0  0  0  0  0  0  0  0  0  0
    3.2376    0.6986    7.7852 H   0  0  0  0  0  0  0  0  0  0  0  0
    3.0783   -1.4168    6.4515 H   0  0  0  0  0  0  0  0  0  0  0  0
    4.7654   -0.8115    6.6291 H   0  0  0  0  0  0  0  0  0  0  0  0
    4.2203   -2.2141    7.6122 H   0  0  0  0  0  0  0  0  0  0  0  0
    0.9820   -0.1906   10.7602 H   0  0  0  0  0  0  0  0  0  0  0  0
    2.6829    0.3638   10.8800 H   0  0  0  0  0  0  0  0  0  0  0  0
    0.5949    1.5427    8.9249 H   0  0  0  0  0  0  0  0  0  0  0  0
    1.0188    2.2127   10.5386 H   0  0  0  0  0  0  0  0  0  0  0  0
    2.2666    2.1706    9.2532 H   0  0  0  0  0  0  0  0  0  0  0  0
    4.1876   -1.6322   11.0142 H   0  0  0  0  0  0  0  0  0  0  0  0
   -1.0584   -1.2171    6.3782 H   0  0  0  0  0  0  0  0  0  0  0  0
   -5.4173   -8.1273    4.4445 H   0  0  0  0  0  0  0  0  0  0  0  0
   -4.4408   -7.4915    5.8062 H   0  0  0  0  0  0  0  0  0  0  0  0
   -6.8685   -7.0287    6.0699 H   0  0  0  0  0  0  0  0  0  0  0  0
   -6.8916   -6.1085    4.5240 H   0  0  0  0  0  0  0  0  0  0  0  0
   -5.9475   -5.4894    5.9420 H   0  0  0  0  0  0  0  0  0  0  0  0
   -2.2315   -6.6569    2.8937 H   0  0  0  0  0  0  0  0  0  0  0  0
   -2.3941   -7.6735    4.3578 H   0  0  0  0  0  0  0  0  0  0  0  0
   -3.8727   -8.1563    1.6853 H   0  0  0  0  0  0  0  0  0  0  0  0
   -2.3850   -8.9936    2.2477 H   0  0  0  0  0  0  0  0  0  0  0  0
   -3.9176   -9.2241    3.1510 H   0  0  0  0  0  0  0  0  0  0  0  0
   -2.1142   -5.9469    5.9733 H   0  0  0  0  0  0  0  0  0  0  0  0
   -6.3211   -5.2321    0.4545 H   0  0  0  0  0  0  0  0  0  0  0  0
   -7.0012   -0.4227    0.5555 H   0  0  0  0  0  0  0  0  0  0  0  0
   -7.5100    4.8688    2.2979 H   0  0  0  0  0  0  0  0  0  0  0  0
   -5.8551    4.1683    2.2607 H   0  0  0  0  0  0  0  0  0  0  0  0
   -5.2772    5.6490    0.3057 H   0  0  0  0  0  0  0  0  0  0  0  0
   -6.9167    6.4025    0.4115 H   0  0  0  0  0  0  0  0  0  0  0  0
   -5.7499    6.5840    1.7744 H   0  0  0  0  0  0  0  0  0  0  0  0
   -4.2980   -5.7800   -7.5722 H   0  0  0  0  0  0  0  0  0  0  0  0
   -3.2388   -5.5846   -6.1352 H   0  0  0  0  0  0  0  0  0  0  0  0
   -4.3237   -7.8250   -6.1537 H   0  0  0  0  0  0  0  0  0  0  0  0
   -5.9553   -7.0575   -6.1692 H   0  0  0  0  0  0  0  0  0  0  0  0
   -4.8728   -6.8604   -4.7307 H   0  0  0  0  0  0  0  0  0  0  0  0
   -5.5357   -0.1793   -6.3436 H   0  0  0  0  0  0  0  0  0  0  0  0
   -5.4618    7.1748   -6.4532 H   0  0  0  0  0  0  0  0  0  0  0  0
   -4.6082    6.2095   -5.2177 H   0  0  0  0  0  0  0  0  0  0  0  0
   -4.3907    8.6607   -4.8670 H   0  0  0  0  0  0  0  0  0  0  0  0
   -3.3988    8.7933   -6.3589 H   0  0  0  0  0  0  0  0  0  0  0  0
   -2.8213    7.7904   -4.9797 H   0  0  0  0  0  0  0  0  0  0  0  0
   -5.2103    6.3952   -8.7740 H   0  0  0  0  0  0  0  0  0  0  0  0
   -3.5943    5.9305   -9.3957 H   0  0  0  0  0  0  0  0  0  0  0  0
   -2.7349    8.2476   -8.7662 H   0  0  0  0  0  0  0  0  0  0  0  0
   -4.0131    8.2148  -10.0311 H   0  0  0  0  0  0  0  0  0  0  0  0
   -4.4541    8.6961   -8.3648 H   0  0  0  0  0  0  0  0  0  0  0  0
   -6.0395    4.5956   -6.3172 H   0  0  0  0  0  0  0  0  0  0  0  0
    0.4511    6.4206   -6.4713 H   0  0  0  0  0  0  0  0  0  0  0  0
    1.0882    4.7882   -4.1705 H   0  0  0  0  0  0  0  0  0  0  0  0
   -1.2298    5.3115    1.3892 H   0  0  0  0  0  0  0  0  0  0  0  0
   -1.9547    4.0919    0.2899 H   0  0  0  0  0  0  0  0  0  0  0  0
   -2.2511    5.7959   -1.4838 H   0  0  0  0  0  0  0  0  0  0  0  0
   -2.9970    6.3730    0.0524 H   0  0  0  0  0  0  0  0  0  0  0  0
   -1.4094    7.0411   -0.4729 H   0  0  0  0  0  0  0  0  0  0  0  0
    8.0318   -1.9802   -7.5450 H   0  0  0  0  0  0  0  0  0  0  0  0
    6.6173   -2.8411   -6.8433 H   0  0  0  0  0  0  0  0  0  0  0  0
    6.5988   -1.1089   -9.4032 H   0  0  0  0  0  0  0  0  0  0  0  0
    5.1525   -1.9249   -8.6821 H   0  0  0  0  0  0  0  0  0  0  0  0
    6.5276   -2.9081   -9.3168 H   0  0  0  0  0  0  0  0  0  0  0  0
    6.0143   -0.1047   -2.7045 H   0  0  0  0  0  0  0  0  0  0  0  0
    3.3634   -1.4262    0.2458 H   0  0  0  0  0  0  0  0  0  0  0  0
   -1.2437   -4.1733    2.9277 H   0  0  0  0  0  0  0  0  0  0  0  0
   -1.5793   -4.8402    1.2930 H   0  0  0  0  0  0  0  0  0  0  0  0
   -1.1930   -1.8597    2.0079 H   0  0  0  0  0  0  0  0  0  0  0  0
   -1.4518   -2.5016    0.3320 H   0  0  0  0  0  0  0  0  0  0  0  0
   -2.7397   -2.6810    1.5779 H   0  0  0  0  0  0  0  0  0  0  0  0
   11.8433   -0.7007    4.3266 H   0  0  0  0  0  0  0  0  0  0  0  0
   12.9314   -1.9197    3.5838 H   0  0  0  0  0  0  0  0  0  0  0  0
   13.3104    0.3095    2.5732 H   0  0  0  0  0  0  0  0  0  0  0  0
   12.6109   -0.8006    1.3332 H   0  0  0  0  0  0  0  0  0  0  0  0
   11.5661    0.4450    2.1327 H   0  0  0  0  0  0  0  0  0  0  0  0
    8.0277   -5.1706    4.1117 H   0  0  0  0  0  0  0  0  0  0  0  0
    6.2727   -6.9072    4.9350 H   0  0  0  0  0  0  0  0  0  0  0  0
  1  2  1  0
  2  3  1  0
  3  4  1  0
  4  5  2  0
  5  6  1  0
  6  7  1  0
  7  8  1  0
  8  9  1  0
  7 10  1  0
 10 11  1  0
  7 12  1  0
 12 13  1  0
  5 14  1  0
 14 15  2  0
 15 16  1  0
 15 17  1  0
 17 18  1  0
 18 19  1  0
 19 20  1  0
 20 21  2  0
 21 22  1  0
 22 23  1  0
 23 24  1  0
 24 25  1  0
 23 26  1  0
 26 27  1  0
 23 28  1  0
 28 29  1  0
 21 30  1  0
 30 31  2  0
 31 32  1  0
 31 33  1  0
 33 34  2  0
 34 35  1  0
 35 36  2  0
 36 37  1  0
 37 38  1  0
 38 39  1  0
 39 40  1  0
 40 41  1  0
 39 42  2  0
 42 43  1  0
 42 44  1  0
 44 45  1  0
 36 46  1  0
 46 47  2  0
 47 48  1  0
 48 49  1  0
 49 50  1  0
 50 51  1  0
 51 52  1  0
 52 53  1  0
 51 54  2  0
 54 55  1  0
 55 56  1  0
 54 57  1  0
 48 58  2  0
 58 59  1  0
 47 60  1  0
 60 61  2  0
 61 62  1  0
 61 63  1  0
 63 64  1  0
 64 65  1  0
 65 66  1  0
 66 67  2  0
 67 68  1  0
 68 69  1  0
 69 70  1  0
 70 71  1  0
 69 72  1  0
 72 73  1  0
 69 74  1  0
 74 75  1  0
 67 76  1  0
 76 77  2  0
 77 78  1  0
 77 79  1  0
 79 80  2  0
 80 81  1  0
 81 82  2  0
 82 83  1  0
 83 84  1  0
 84 85  1  0
 85 86  1  0
 86 87  1  0
 85 88  2  0
 88 89  1  0
 88 90  1  0
 90 91  1  0
 82 92  1  0
 92 93  2  0
 93 94  1  0
 94 95  1  0
 95 96  1  0
 96 97  1  0
 97 98  1  0
 98 99  1  0
 97100  2  0
100101  1  0
101102  1  0
100103  1  0
 94104  2  0
104105  1  0
 93106  1  0
106107  2  0
107108  1  0
107109  1  0
109110  2  0
110111  1  0
111112  2  0
112113  1  0
113114  1  0
114115  1  0
115116  1  0
116117  1  0
115118  2  0
118119  1  0
118120  1  0
120121  1  0
112122  1  0
122123  2  0
123124  1  0
124125  1  0
125126  1  0
126127  1  0
127128  1  0
128129  1  0
127130  2  0
130131  1  0
131132  1  0
130133  1  0
124134  2  0
134135  1  0
123136  1  0
136137  2  0
137138  1  0
 13  1  2  0
 29 17  2  0
 59 33  1  0
 75 63  2  0
105 79  1  0
135109  1  0
 12  3  2  0
 28 19  2  0
 58 35  1  0
 74 65  2  0
104 81  1  0
134111  1  0
 16  4  1  0
 32 20  1  0
 44 37  2  0
 62 46  1  0
 78 66  1  0
 90 83  2  0
108 92  1  0
120113  2  0
138122  1  0
 55 49  2  0
101 95  2  0
131125  2  0
  1139  1  0
  8140  1  0
  8141  1  0
  9142  1  0
  9143  1  0
  9144  1  0
 10145  1  0
 10146  1  0
 11147  1  0
 11148  1  0
 11149  1  0
 13150  1  0
 14151  1  0
 24152  1  0
 24153  1  0
 25154  1  0
 25155  1  0
 25156  1  0
 26157  1  0
 26158  1  0
 27159  1  0
 27160  1  0
 27161  1  0
 29162  1  0
 30163  1  0
 34164  1  0
 40165  1  0
 40166  1  0
 41167  1  0
 41168  1  0
 41169  1  0
 52170  1  0
 52171  1  0
 53172  1  0
 53173  1  0
 53174  1  0
 60175  1  0
 70176  1  0
 70177  1  0
 71178  1  0
 71179  1  0
 71180  1  0
 72181  1  0
 72182  1  0
 73183  1  0
 73184  1  0
 73185  1  0
 75186  1  0
 76187  1  0
 80188  1  0
 86189  1  0
 86190  1  0
 87191  1  0
 87192  1  0
 87193  1  0
 98194  1  0
 98195  1  0
 99196  1  0
 99197  1  0
 99198  1  0
106199  1  0
110200  1  0
116201  1  0
116202  1  0
117203  1  0
117204  1  0
117205  1  0
128206  1  0
128207  1  0
129208  1  0
129209  1  0
129210  1  0
136211  1  0
137212  1  0
M  END

