
     RDKit          3D

290313  0  0  0  0  0  0  0  0999 V2000
   10.8438   -1.2660    6.2792 C   0  0  0  0  0  0  0  0  0  0  0  0
   11.3898   -1.5545    5.0234 C   0  0  0  0  0  0  0  0  0  0  0  0
   12.5787   -2.1995    4.9368 F   0  0  0  0  0  0  0  0  0  0  0  0
   10.6850   -1.2284    3.8546 C   0  0  0  0  0  0  0  0  0  0  0  0
   11.1882   -1.5779    2.6438 F   0  0  0  0  0  0  0  0  0  0  0  0
    9.4402   -0.5793    3.9418 C   0  0  0  0  0  0  0  0  0  0  0  0
    8.9034   -0.2870    5.2095 C   0  0  0  0  0  0  0  0  0  0  0  0
    7.6776    0.2810    5.3248 N   0  0  0  0  0  0  0  0  0  0  0  0
    7.0730    0.4939    6.5232 C   0  0  0  0  0  0  0  0  0  0  0  0
    5.7403    1.1523    6.4915 C   0  0  0  0  0  0  0  0  0  0  0  0
    4.8971    0.9063    5.3992 C   0  0  0  0  0  0  0  0  0  0  0  0
    3.6764    1.5683    5.2656 C   0  0  0  0  0  0  0  0  0  0  0  0
    3.2652    2.4998    6.2445 C   0  0  0  0  0  0  0  0  0  0  0  0
    2.0368    3.1795    6.1863 O   0  0  0  0  0  0  0  0  0  0  0  0
    1.0378    2.9781    5.1881 C   0  0  0  0  0  0  0  0  0  0  0  0
   -0.1812    3.8421    5.4834 C   0  0  0  0  0  0  0  0  0  0  0  0
    4.1190    2.7640    7.3276 C   0  0  0  0  0  0  0  0  0  0  0  0
    5.3532    2.1075    7.4451 C   0  0  0  0  0  0  0  0  0  0  0  0
    3.7578    3.6759    8.2650 F   0  0  0  0  0  0  0  0  0  0  0  0
    2.9362    1.3141    4.1627 F   0  0  0  0  0  0  0  0  0  0  0  0
    7.7444    0.0688    7.7001 C   0  0  0  0  0  0  0  0  0  0  0  0
    8.9980   -0.4613    7.5798 N   0  0  0  0  0  0  0  0  0  0  0  0
    9.5970   -0.6447    6.3737 C   0  0  0  0  0  0  0  0  0  0  0  0
    7.1179    0.0368    9.0415 C   0  0  0  0  0  0  0  0  0  0  0  0
    7.8534    0.4484   10.1592 C   0  0  0  0  0  0  0  0  0  0  0  0
    7.3312    0.3183   11.4499 C   0  0  0  0  0  0  0  0  0  0  0  0
    8.0891    0.7404   12.4918 F   0  0  0  0  0  0  0  0  0  0  0  0
    6.0529   -0.2589   11.6427 C   0  0  0  0  0  0  0  0  0  0  0  0
    5.4674   -0.4382   12.9085 O   0  0  0  0  0  0  0  0  0  0  0  0
    6.0443   -0.0442   14.1506 C   0  0  0  0  0  0  0  0  0  0  0  0
    5.0723   -0.3565   15.2821 C   0  0  0  0  0  0  0  0  0  0  0  0
    5.3258   -0.6804   10.5209 C   0  0  0  0  0  0  0  0  0  0  0  0
    4.0988   -1.2423   10.6837 F   0  0  0  0  0  0  0  0  0  0  0  0
    5.8524   -0.5412    9.2332 C   0  0  0  0  0  0  0  0  0  0  0  0
    8.5826   -0.4198    2.7452 C   0  0  0  0  0  0  0  0  0  0  0  0
    8.2676    0.8595    2.2665 C   0  0  0  0  0  0  0  0  0  0  0  0
    8.9246    1.9503    2.7474 F   0  0  0  0  0  0  0  0  0  0  0  0
    7.1887    1.0438    1.3950 C   0  0  0  0  0  0  0  0  0  0  0  0
    6.8018    2.3074    1.0783 F   0  0  0  0  0  0  0  0  0  0  0  0
    6.4171   -0.0534    0.9743 C   0  0  0  0  0  0  0  0  0  0  0  0
    6.8232   -1.3521    1.3355 C   0  0  0  0  0  0  0  0  0  0  0  0
    6.1601   -2.4477    0.8778 N   0  0  0  0  0  0  0  0  0  0  0  0
    6.4580   -3.7059    1.2975 C   0  0  0  0  0  0  0  0  0  0  0  0
    5.8189   -4.8481    0.6018 C   0  0  0  0  0  0  0  0  0  0  0  0
    4.4747   -4.7574    0.1922 C   0  0  0  0  0  0  0  0  0  0  0  0
    3.8856   -5.7929   -0.5411 C   0  0  0  0  0  0  0  0  0  0  0  0
    4.6374   -6.9310   -0.8811 C   0  0  0  0  0  0  0  0  0  0  0  0
    4.0837   -7.9885   -1.6105 O   0  0  0  0  0  0  0  0  0  0  0  0
    3.4819   -7.8309   -2.8937 C   0  0  0  0  0  0  0  0  0  0  0  0
    4.5471   -7.5984   -3.9575 C   0  0  0  0  0  0  0  0  0  0  0  0
    5.9697   -7.0263   -0.4694 C   0  0  0  0  0  0  0  0  0  0  0  0
    6.5622   -5.9862    0.2488 C   0  0  0  0  0  0  0  0  0  0  0  0
    6.7029   -8.1197   -0.7923 F   0  0  0  0  0  0  0  0  0  0  0  0
    2.5754   -5.6972   -0.8704 F   0  0  0  0  0  0  0  0  0  0  0  0
    7.4216   -3.8664    2.3283 C   0  0  0  0  0  0  0  0  0  0  0  0
    8.1179   -2.7761    2.7444 N   0  0  0  0  0  0  0  0  0  0  0  0
    7.8805   -1.5309    2.2486 C   0  0  0  0  0  0  0  0  0  0  0  0
    7.6441   -5.1354    3.0585 C   0  0  0  0  0  0  0  0  0  0  0  0
    6.5592   -5.9144    3.4928 C   0  0  0  0  0  0  0  0  0  0  0  0
    6.7702   -7.0557    4.2710 C   0  0  0  0  0  0  0  0  0  0  0  0
    5.6921   -7.7875    4.6451 F   0  0  0  0  0  0  0  0  0  0  0  0
    8.0781   -7.4220    4.6454 C   0  0  0  0  0  0  0  0  0  0  0  0
    8.3532   -8.5182    5.4793 O   0  0  0  0  0  0  0  0  0  0  0  0
    7.5200   -8.9707    6.5549 C   0  0  0  0  0  0  0  0  0  0  0  0
    7.3009   -7.8634    7.5814 C   0  0  0  0  0  0  0  0  0  0  0  0
    9.1598   -6.6634    4.1815 C   0  0  0  0  0  0  0  0  0  0  0  0
   10.4255   -7.0055    4.5315 F   0  0  0  0  0  0  0  0  0  0  0  0
    8.9456   -5.5193    3.4106 C   0  0  0  0  0  0  0  0  0  0  0  0
    5.0163    0.1847    0.5416 C   0  0  0  0  0  0  0  0  0  0  0  0
    3.9817   -0.1582    1.4302 C   0  0  0  0  0  0  0  0  0  0  0  0
    4.2540   -0.8092    2.5905 F   0  0  0  0  0  0  0  0  0  0  0  0
    2.6621    0.1842    1.1557 C   0  0  0  0  0  0  0  0  0  0  0  0
    1.6998   -0.1550    2.0495 F   0  0  0  0  0  0  0  0  0  0  0  0
    2.3335    0.8635   -0.0283 C   0  0  0  0  0  0  0  0  0  0  0  0
    3.3451    1.1294   -0.9714 C   0  0  0  0  0  0  0  0  0  0  0  0
    3.0451    1.6755   -2.1778 N   0  0  0  0  0  0  0  0  0  0  0  0
    3.9902    1.8938   -3.1299 C   0  0  0  0  0  0  0  0  0  0  0  0
    3.5538    2.4043   -4.4460 C   0  0  0  0  0  0  0  0  0  0  0  0
    4.2301    3.4578   -5.0776 C   0  0  0  0  0  0  0  0  0  0  0  0
    3.8719    3.8458   -6.3722 C   0  0  0  0  0  0  0  0  0  0  0  0
    2.8366    3.1887   -7.0468 C   0  0  0  0  0  0  0  0  0  0  0  0
    2.5420    3.5484   -8.3673 O   0  0  0  0  0  0  0  0  0  0  0  0
    2.5626    2.6156   -9.4415 C   0  0  0  0  0  0  0  0  0  0  0  0
    4.0004    2.2836   -9.8349 C   0  0  0  0  0  0  0  0  0  0  0  0
    2.1113    2.1798   -6.3862 C   0  0  0  0  0  0  0  0  0  0  0  0
    2.4682    1.7935   -5.0923 C   0  0  0  0  0  0  0  0  0  0  0  0
    1.0415    1.5924   -6.9789 F   0  0  0  0  0  0  0  0  0  0  0  0
    4.5620    4.8366   -6.9860 F   0  0  0  0  0  0  0  0  0  0  0  0
    5.3360    1.5434   -2.8473 C   0  0  0  0  0  0  0  0  0  0  0  0
    5.6427    1.0330   -1.6222 N   0  0  0  0  0  0  0  0  0  0  0  0
    4.6894    0.8024   -0.6821 C   0  0  0  0  0  0  0  0  0  0  0  0
    6.4090    1.5854   -3.8703 C   0  0  0  0  0  0  0  0  0  0  0  0
    7.6387    2.1977   -3.5844 C   0  0  0  0  0  0  0  0  0  0  0  0
    8.6628    2.2070   -4.5359 C   0  0  0  0  0  0  0  0  0  0  0  0
    9.8461    2.7990   -4.2421 F   0  0  0  0  0  0  0  0  0  0  0  0
    8.4864    1.5758   -5.7737 C   0  0  0  0  0  0  0  0  0  0  0  0
    9.5461    1.5864   -6.6903 O   0  0  0  0  0  0  0  0  0  0  0  0
   10.0443    0.4120   -7.3290 C   0  0  0  0  0  0  0  0  0  0  0  0
   11.1358    0.7985   -8.3145 C   0  0  0  0  0  0  0  0  0  0  0  0
    7.2518    0.9666   -6.0695 C   0  0  0  0  0  0  0  0  0  0  0  0
    7.0158    0.4241   -7.2914 F   0  0  0  0  0  0  0  0  0  0  0  0
    6.2318    0.9611   -5.1175 C   0  0  0  0  0  0  0  0  0  0  0  0
    0.9170    1.2604   -0.2332 C   0  0  0  0  0  0  0  0  0  0  0  0
    0.3056    2.1117    0.7069 C   0  0  0  0  0  0  0  0  0  0  0  0
    1.0640    2.7695    1.6239 F   0  0  0  0  0  0  0  0  0  0  0  0
   -1.0882    2.1812    0.7999 C   0  0  0  0  0  0  0  0  0  0  0  0
   -1.6424    2.8542    1.8403 F   0  0  0  0  0  0  0  0  0  0  0  0
   -1.8938    1.4299   -0.0696 C   0  0  0  0  0  0  0  0  0  0  0  0
   -1.2892    0.7664   -1.1571 C   0  0  0  0  0  0  0  0  0  0  0  0
   -2.0452    0.1637   -2.1111 N   0  0  0  0  0  0  0  0  0  0  0  0
   -1.4860   -0.5764   -3.1045 C   0  0  0  0  0  0  0  0  0  0  0  0
   -2.3704   -1.1126   -4.1472 C   0  0  0  0  0  0  0  0  0  0  0  0
   -2.9256   -0.2353   -5.0891 C   0  0  0  0  0  0  0  0  0  0  0  0
   -3.7120   -0.7279   -6.1315 C   0  0  0  0  0  0  0  0  0  0  0  0
   -3.9934   -2.0976   -6.2130 C   0  0  0  0  0  0  0  0  0  0  0  0
   -4.7583   -2.6013   -7.2676 O   0  0  0  0  0  0  0  0  0  0  0  0
   -6.1859   -2.6597   -7.2209 C   0  0  0  0  0  0  0  0  0  0  0  0
   -6.7985   -1.2927   -7.5078 C   0  0  0  0  0  0  0  0  0  0  0  0
   -3.4667   -2.9753   -5.2511 C   0  0  0  0  0  0  0  0  0  0  0  0
   -2.6511   -2.4855   -4.2261 C   0  0  0  0  0  0  0  0  0  0  0  0
   -3.7217   -4.3051   -5.3309 F   0  0  0  0  0  0  0  0  0  0  0  0
   -4.1583    0.1245   -7.0886 F   0  0  0  0  0  0  0  0  0  0  0  0
   -0.0819   -0.7797   -3.1075 C   0  0  0  0  0  0  0  0  0  0  0  0
    0.6674   -0.1634   -2.1548 N   0  0  0  0  0  0  0  0  0  0  0  0
    0.1157    0.6341   -1.2084 C   0  0  0  0  0  0  0  0  0  0  0  0
    0.6100   -1.6812   -4.0595 C   0  0  0  0  0  0  0  0  0  0  0  0
    1.5559   -2.5938   -3.5663 C   0  0  0  0  0  0  0  0  0  0  0  0
    2.1954   -3.4836   -4.4311 C   0  0  0  0  0  0  0  0  0  0  0  0
    3.0886   -4.3767   -3.9334 F   0  0  0  0  0  0  0  0  0  0  0  0
    1.8867   -3.4847   -5.7966 C   0  0  0  0  0  0  0  0  0  0  0  0
    2.4861   -4.4391   -6.6258 O   0  0  0  0  0  0  0  0  0  0  0  0
    1.7385   -5.3703   -7.4081 C   0  0  0  0  0  0  0  0  0  0  0  0
    0.9977   -6.3506   -6.5003 C   0  0  0  0  0  0  0  0  0  0  0  0
    0.9917   -2.5284   -6.3060 C   0  0  0  0  0  0  0  0  0  0  0  0
    0.7509   -2.4496   -7.6389 F   0  0  0  0  0  0  0  0  0  0  0  0
    0.3729   -1.6203   -5.4423 C   0  0  0  0  0  0  0  0  0  0  0  0
   -3.2362    1.0190    0.3983 C   0  0  0  0  0  0  0  0  0  0  0  0
   -3.4078   -0.3175    0.8101 C   0  0  0  0  0  0  0  0  0  0  0  0
   -2.4143   -1.2244    0.6390 F   0  0  0  0  0  0  0  0  0  0  0  0
   -4.5635   -0.7124    1.4809 C   0  0  0  0  0  0  0  0  0  0  0  0
   -4.6940   -2.0055    1.8743 F   0  0  0  0  0  0  0  0  0  0  0  0
   -5.5638    0.2228    1.7870 C   0  0  0  0  0  0  0  0  0  0  0  0
   -5.4218    1.5502    1.3531 C   0  0  0  0  0  0  0  0  0  0  0  0
   -6.3911    2.4654    1.6067 N   0  0  0  0  0  0  0  0  0  0  0  0
   -6.3022    3.7445    1.1652 C   0  0  0  0  0  0  0  0  0  0  0  0
   -7.4132    4.6646    1.4534 C   0  0  0  0  0  0  0  0  0  0  0  0
   -7.6970    5.0267    2.7755 C   0  0  0  0  0  0  0  0  0  0  0  0
   -8.7571    5.8959    3.0570 C   0  0  0  0  0  0  0  0  0  0  0  0
   -9.5533    6.3984    2.0103 C   0  0  0  0  0  0  0  0  0  0  0  0
  -10.6349    7.2606    2.2478 O   0  0  0  0  0  0  0  0  0  0  0  0
  -10.5468    8.4546    3.0281 C   0  0  0  0  0  0  0  0  0  0  0  0
   -9.7082    9.5039    2.3029 C   0  0  0  0  0  0  0  0  0  0  0  0
   -9.2873    6.0056    0.6918 C   0  0  0  0  0  0  0  0  0  0  0  0
   -8.2176    5.1515    0.4126 C   0  0  0  0  0  0  0  0  0  0  0  0
  -10.0588    6.4680   -0.3242 F   0  0  0  0  0  0  0  0  0  0  0  0
   -9.0315    6.1927    4.3521 F   0  0  0  0  0  0  0  0  0  0  0  0
   -5.1683    4.1379    0.4273 C   0  0  0  0  0  0  0  0  0  0  0  0
   -4.1790    3.2325    0.1921 N   0  0  0  0  0  0  0  0  0  0  0  0
   -4.2697    1.9488    0.6363 C   0  0  0  0  0  0  0  0  0  0  0  0
   -5.0327    5.5114   -0.0830 C   0  0  0  0  0  0  0  0  0  0  0  0
   -5.2705    5.7842   -1.4372 C   0  0  0  0  0  0  0  0  0  0  0  0
   -5.2565    7.1038   -1.8974 C   0  0  0  0  0  0  0  0  0  0  0  0
   -5.5144    7.3618   -3.2064 F   0  0  0  0  0  0  0  0  0  0  0  0
   -4.9741    8.1571   -1.0182 C   0  0  0  0  0  0  0  0  0  0  0  0
   -4.9728    9.4647   -1.5144 O   0  0  0  0  0  0  0  0  0  0  0  0
   -3.8810   10.3724   -1.3533 C   0  0  0  0  0  0  0  0  0  0  0  0
   -2.6923    9.9227   -2.1981 C   0  0  0  0  0  0  0  0  0  0  0  0
   -4.7289    7.8814    0.3421 C   0  0  0  0  0  0  0  0  0  0  0  0
   -4.5189    8.8829    1.2312 F   0  0  0  0  0  0  0  0  0  0  0  0
   -4.7694    6.5623    0.8029 C   0  0  0  0  0  0  0  0  0  0  0  0
   -6.7357   -0.2121    2.5731 C   0  0  0  0  0  0  0  0  0  0  0  0
   -6.7792    0.0314    3.9564 C   0  0  0  0  0  0  0  0  0  0  0  0
   -5.8098    0.7748    4.5474 F   0  0  0  0  0  0  0  0  0  0  0  0
   -7.8004   -0.5235    4.7382 C   0  0  0  0  0  0  0  0  0  0  0  0
   -7.8250   -0.3000    6.0776 F   0  0  0  0  0  0  0  0  0  0  0  0
   -8.7705   -1.3447    4.1527 C   0  0  0  0  0  0  0  0  0  0  0  0
   -8.7463   -1.5743    2.7708 C   0  0  0  0  0  0  0  0  0  0  0  0
   -9.6665   -2.3844    2.1882 N   0  0  0  0  0  0  0  0  0  0  0  0
   -9.6802   -2.6035    0.8455 C   0  0  0  0  0  0  0  0  0  0  0  0
  -10.6735   -3.5521    0.3010 C   0  0  0  0  0  0  0  0  0  0  0  0
  -11.4916   -3.2118   -0.7896 C   0  0  0  0  0  0  0  0  0  0  0  0
  -12.3147   -4.1761   -1.3808 C   0  0  0  0  0  0  0  0  0  0  0  0
  -12.3453   -5.4910   -0.8709 C   0  0  0  0  0  0  0  0  0  0  0  0
  -13.0928   -6.5271   -1.4516 O   0  0  0  0  0  0  0  0  0  0  0  0
  -13.3732   -6.6691   -2.8468 C   0  0  0  0  0  0  0  0  0  0  0  0
  -12.0819   -6.7872   -3.6560 C   0  0  0  0  0  0  0  0  0  0  0  0
  -11.6002   -5.7939    0.2783 C   0  0  0  0  0  0  0  0  0  0  0  0
  -10.7645   -4.8355    0.8531 C   0  0  0  0  0  0  0  0  0  0  0  0
  -11.6397   -7.0424    0.8029 F   0  0  0  0  0  0  0  0  0  0  0  0
  -13.0807   -3.8081   -2.4367 F   0  0  0  0  0  0  0  0  0  0  0  0
   -8.7086   -1.9619    0.0353 C   0  0  0  0  0  0  0  0  0  0  0  0
   -7.7725   -1.1792    0.6325 N   0  0  0  0  0  0  0  0  0  0  0  0
   -7.7478   -0.9822    1.9755 C   0  0  0  0  0  0  0  0  0  0  0  0
   -8.6976   -2.0545   -1.4386 C   0  0  0  0  0  0  0  0  0  0  0  0
   -8.7606   -0.8757   -2.1986 C   0  0  0  0  0  0  0  0  0  0  0  0
   -8.8878   -0.9403   -3.5863 C   0  0  0  0  0  0  0  0  0  0  0  0
   -9.0033    0.2074   -4.3035 F   0  0  0  0  0  0  0  0  0  0  0  0
   -8.9614   -2.1814   -4.2272 C   0  0  0  0  0  0  0  0  0  0  0  0
   -9.1896   -2.2100   -5.6043 O   0  0  0  0  0  0  0  0  0  0  0  0
  -10.3052   -2.8721   -6.1963 C   0  0  0  0  0  0  0  0  0  0  0  0
  -11.5943   -2.1122   -5.8874 C   0  0  0  0  0  0  0  0  0  0  0  0
   -8.8045   -3.3625   -3.4849 C   0  0  0  0  0  0  0  0  0  0  0  0
   -8.7731   -4.5690   -4.0990 F   0  0  0  0  0  0  0  0  0  0  0  0
   -8.6607   -3.2947   -2.0954 C   0  0  0  0  0  0  0  0  0  0  0  0
   11.3755   -1.5611    7.1783 H   0  0  0  0  0  0  0  0  0  0  0  0
    5.1942    0.2039    4.6327 H   0  0  0  0  0  0  0  0  0  0  0  0
    1.4358    3.2696    4.1928 H   0  0  0  0  0  0  0  0  0  0  0  0
    0.7227    1.9141    5.1727 H   0  0  0  0  0  0  0  0  0  0  0  0
   -0.5960    3.5947    6.4827 H   0  0  0  0  0  0  0  0  0  0  0  0
    0.1007    4.9127    5.4532 H   0  0  0  0  0  0  0  0  0  0  0  0
   -0.9632    3.6586    4.7165 H   0  0  0  0  0  0  0  0  0  0  0  0
    6.0079    2.3661    8.2678 H   0  0  0  0  0  0  0  0  0  0  0  0
    8.8415    0.8757   10.0329 H   0  0  0  0  0  0  0  0  0  0  0  0
    6.2456    1.0483   14.1501 H   0  0  0  0  0  0  0  0  0  0  0  0
    6.9890   -0.6037   14.3234 H   0  0  0  0  0  0  0  0  0  0  0  0
    5.5045   -0.0325   16.2540 H   0  0  0  0  0  0  0  0  0  0  0  0
    4.8801   -1.4501   15.3240 H   0  0  0  0  0  0  0  0  0  0  0  0
    4.1125    0.1772   15.1220 H   0  0  0  0  0  0  0  0  0  0  0  0
    5.2839   -0.9090    8.3881 H   0  0  0  0  0  0  0  0  0  0  0  0
    3.8847   -3.8861    0.4484 H   0  0  0  0  0  0  0  0  0  0  0  0
    2.7492   -6.9978   -2.9021 H   0  0  0  0  0  0  0  0  0  0  0  0
    2.9351   -8.7642   -3.1362 H   0  0  0  0  0  0  0  0  0  0  0  0
    5.2646   -8.4487   -3.9693 H   0  0  0  0  0  0  0  0  0  0  0  0
    5.1006   -6.6567   -3.7460 H   0  0  0  0  0  0  0  0  0  0  0  0
    4.0646   -7.5175   -4.9552 H   0  0  0  0  0  0  0  0  0  0  0  0
    7.6123   -6.0609    0.5066 H   0  0  0  0  0  0  0  0  0  0  0  0
    5.5441   -5.6195    3.2565 H   0  0  0  0  0  0  0  0  0  0  0  0
    6.5530   -9.3612    6.1772 H   0  0  0  0  0  0  0  0  0  0  0  0
    8.0322   -9.8148    7.0520 H   0  0  0  0  0  0  0  0  0  0  0  0
    6.7133   -7.0330    7.1368 H   0  0  0  0  0  0  0  0  0  0  0  0
    8.2762   -7.4674    7.9327 H   0  0  0  0  0  0  0  0  0  0  0  0
    6.7381   -8.2648    8.4524 H   0  0  0  0  0  0  0  0  0  0  0  0
    9.7968   -4.9203    3.1028 H   0  0  0  0  0  0  0  0  0  0  0  0
    5.0524    3.9607   -4.5798 H   0  0  0  0  0  0  0  0  0  0  0  0
    2.0319    1.6752   -9.1761 H   0  0  0  0  0  0  0  0  0  0  0  0
    2.0397    3.0683  -10.3115 H   0  0  0  0  0  0  0  0  0  0  0  0
    4.5370    1.8173   -8.9783 H   0  0  0  0  0  0  0  0  0  0  0  0
    4.5332    3.2165  -10.1336 H   0  0  0  0  0  0  0  0  0  0  0  0
    4.0058    1.5779  -10.6925 H   0  0  0  0  0  0  0  0  0  0  0  0
    1.9283    0.9841   -4.6140 H   0  0  0  0  0  0  0  0  0  0  0  0
    7.8012    2.6715   -2.6248 H   0  0  0  0  0  0  0  0  0  0  0  0
   10.4735   -0.2682   -6.5608 H   0  0  0  0  0  0  0  0  0  0  0  0
    9.2405   -0.1240   -7.8763 H   0  0  0  0  0  0  0  0  0  0  0  0
   11.9519    1.3429   -7.7932 H   0  0  0  0  0  0  0  0  0  0  0  0
   11.5541   -0.1171   -8.7850 H   0  0  0  0  0  0  0  0  0  0  0  0
   10.7112    1.4460   -9.1117 H   0  0  0  0  0  0  0  0  0  0  0  0
    5.2977    0.4637   -5.3544 H   0  0  0  0  0  0  0  0  0  0  0  0
   -2.7024    0.8255   -5.0443 H   0  0  0  0  0  0  0  0  0  0  0  0
   -6.5265   -3.3707   -8.0015 H   0  0  0  0  0  0  0  0  0  0  0  0
   -6.5242   -3.0455   -6.2348 H   0  0  0  0  0  0  0  0  0  0  0  0
   -6.3256   -0.8411   -8.4056 H   0  0  0  0  0  0  0  0  0  0  0  0
   -6.6589   -0.6221   -6.6296 H   0  0  0  0  0  0  0  0  0  0  0  0
   -7.8870   -1.4042   -7.7039 H   0  0  0  0  0  0  0  0  0  0  0  0
   -2.2258   -3.1709   -3.4991 H   0  0  0  0  0  0  0  0  0  0  0  0
    1.7811   -2.6308   -2.5067 H   0  0  0  0  0  0  0  0  0  0  0  0
    1.0146   -4.8473   -8.0680 H   0  0  0  0  0  0  0  0  0  0  0  0
    2.4398   -5.9396   -8.0493 H   0  0  0  0  0  0  0  0  0  0  0  0
    0.4894   -7.1244   -7.1160 H   0  0  0  0  0  0  0  0  0  0  0  0
    1.7193   -6.8500   -5.8209 H   0  0  0  0  0  0  0  0  0  0  0  0
    0.2344   -5.8160   -5.8962 H   0  0  0  0  0  0  0  0  0  0  0  0
   -0.2818   -0.8669   -5.8597 H   0  0  0  0  0  0  0  0  0  0  0  0
   -7.0945    4.6401    3.5895 H   0  0  0  0  0  0  0  0  0  0  0  0
  -10.1195    8.2568    4.0335 H   0  0  0  0  0  0  0  0  0  0  0  0
  -11.5708    8.8544    3.1703 H   0  0  0  0  0  0  0  0  0  0  0  0
   -8.6653    9.1430    2.1592 H   0  0  0  0  0  0  0  0  0  0  0  0
  -10.1545    9.7170    1.3083 H   0  0  0  0  0  0  0  0  0  0  0  0
   -9.6839   10.4455    2.8938 H   0  0  0  0  0  0  0  0  0  0  0  0
   -8.0223    4.8591   -0.6128 H   0  0  0  0  0  0  0  0  0  0  0  0
   -5.5005    4.9790   -2.1245 H   0  0  0  0  0  0  0  0  0  0  0  0
   -4.2037   11.3743   -1.7038 H   0  0  0  0  0  0  0  0  0  0  0  0
   -3.5811   10.4634   -0.2888 H   0  0  0  0  0  0  0  0  0  0  0  0
   -2.3188    8.9401   -1.8416 H   0  0  0  0  0  0  0  0  0  0  0  0
   -1.8689   10.6675   -2.1246 H   0  0  0  0  0  0  0  0  0  0  0  0
   -2.9990    9.8301   -3.2639 H   0  0  0  0  0  0  0  0  0  0  0  0
   -4.6200    6.3595    1.8576 H   0  0  0  0  0  0  0  0  0  0  0  0
   -9.5446   -1.7887    4.7691 H   0  0  0  0  0  0  0  0  0  0  0  0
  -11.4740   -2.2089   -1.1975 H   0  0  0  0  0  0  0  0  0  0  0  0
  -13.9981   -5.8285   -3.2199 H   0  0  0  0  0  0  0  0  0  0  0  0
  -13.9683   -7.5978   -2.9861 H   0  0  0  0  0  0  0  0  0  0  0  0
  -11.4521   -7.6020   -3.2450 H   0  0  0  0  0  0  0  0  0  0  0  0
  -11.5195   -5.8339   -3.6229 H   0  0  0  0  0  0  0  0  0  0  0  0
  -12.3242   -7.0217   -4.7136 H   0  0  0  0  0  0  0  0  0  0  0  0
  -10.1549   -5.1055    1.7122 H   0  0  0  0  0  0  0  0  0  0  0  0
   -8.7600    0.0901   -1.7098 H   0  0  0  0  0  0  0  0  0  0  0  0
  -10.1578   -2.8979   -7.2952 H   0  0  0  0  0  0  0  0  0  0  0  0
  -10.3846   -3.9199   -5.8391 H   0  0  0  0  0  0  0  0  0  0  0  0
  -11.7999   -2.1482   -4.7992 H   0  0  0  0  0  0  0  0  0  0  0  0
  -12.4453   -2.5814   -6.4267 H   0  0  0  0  0  0  0  0  0  0  0  0
  -11.4999   -1.0523   -6.2088 H   0  0  0  0  0  0  0  0  0  0  0  0
   -8.5543   -4.2119   -1.5274 H   0  0  0  0  0  0  0  0  0  0  0  0
  1  2  2  0
  2  3  1  0
  2  4  1  0
  4  5  1  0
  4  6  2  0
  6  7  1  0
  7  8  2  0
  8  9  1  0
  9 10  1  0
 10 11  2  0
 11 12  1  0
 12 13  2  0
 13 14  1  0
 14 15  1  0
 15 16  1  0
 13 17  1  0
 17 18  2  0
 17 19  1  0
 12 20  1  0
  9 21  2  0
 21 22  1  0
 22 23  2  0
 21 24  1  0
 24 25  2  0
 25 26  1  0
 26 27  1  0
 26 28  2  0
 28 29  1  0
 29 30  1  0
 30 31  1  0
 28 32  1  0
 32 33  1  0
 32 34  2  0
  6 35  1  0
 35 36  2  0
 36 37  1  0
 36 38  1  0
 38 39  1  0
 38 40  2  0
 40 41  1  0
 41 42  2  0
 42 43  1  0
 43 44  1  0
 44 45  2  0
 45 46  1  0
 46 47  2  0
 47 48  1  0
 48 49  1  0
 49 50  1  0
 47 51  1  0
 51 52  2  0
 51 53  1  0
 46 54  1  0
 43 55  2  0
 55 56  1  0
 56 57  2  0
 55 58  1  0
 58 59  2  0
 59 60  1  0
 60 61  1  0
 60 62  2  0
 62 63  1  0
 63 64  1  0
 64 65  1  0
 62 66  1  0
 66 67  1  0
 66 68  2  0
 40 69  1  0
 69 70  2  0
 70 71  1  0
 70 72  1  0
 72 73  1  0
 72 74  2  0
 74 75  1  0
 75 76  2  0
 76 77  1  0
 77 78  1  0
 78 79  2  0
 79 80  1  0
 80 81  2  0
 81 82  1  0
 82 83  1  0
 83 84  1  0
 81 85  1  0
 85 86  2  0
 85 87  1  0
 80 88  1  0
 77 89  2  0
 89 90  1  0
 90 91  2  0
 89 92  1  0
 92 93  2  0
 93 94  1  0
 94 95  1  0
 94 96  2  0
 96 97  1  0
 97 98  1  0
 98 99  1  0
 96100  1  0
100101  1  0
100102  2  0
 74103  1  0
103104  2  0
104105  1  0
104106  1  0
106107  1  0
106108  2  0
108109  1  0
109110  2  0
110111  1  0
111112  1  0
112113  2  0
113114  1  0
114115  2  0
115116  1  0
116117  1  0
117118  1  0
115119  1  0
119120  2  0
119121  1  0
114122  1  0
111123  2  0
123124  1  0
124125  2  0
123126  1  0
126127  2  0
127128  1  0
128129  1  0
128130  2  0
130131  1  0
131132  1  0
132133  1  0
130134  1  0
134135  1  0
134136  2  0
108137  1  0
137138  2  0
138139  1  0
138140  1  0
140141  1  0
140142  2  0
142143  1  0
143144  2  0
144145  1  0
145146  1  0
146147  2  0
147148  1  0
148149  2  0
149150  1  0
150151  1  0
151152  1  0
149153  1  0
153154  2  0
153155  1  0
148156  1  0
145157  2  0
157158  1  0
158159  2  0
157160  1  0
160161  2  0
161162  1  0
162163  1  0
162164  2  0
164165  1  0
165166  1  0
166167  1  0
164168  1  0
168169  1  0
168170  2  0
142171  1  0
171172  2  0
172173  1  0
172174  1  0
174175  1  0
174176  2  0
176177  1  0
177178  2  0
178179  1  0
179180  1  0
180181  2  0
181182  1  0
182183  2  0
183184  1  0
184185  1  0
185186  1  0
183187  1  0
187188  2  0
187189  1  0
182190  1  0
179191  2  0
191192  1  0
192193  2  0
191194  1  0
194195  2  0
195196  1  0
196197  1  0
196198  2  0
198199  1  0
199200  1  0
200201  1  0
198202  1  0
202203  1  0
202204  2  0
 23  1  1  0
 34 24  1  0
 57 35  1  0
 68 58  1  0
 91 69  1  0
102 92  1  0
125103  1  0
136126  1  0
159137  1  0
170160  1  0
193171  1  0
204194  1  0
 23  7  1  0
 57 41  1  0
 91 75  1  0
125109  1  0
159143  1  0
193177  1  0
 18 10  1  0
 52 44  1  0
 86 78  1  0
120112  1  0
154146  1  0
188180  1  0
  1205  1  0
 11206  1  0
 15207  1  0
 15208  1  0
 16209  1  0
 16210  1  0
 16211  1  0
 18212  1  0
 25213  1  0
 30214  1  0
 30215  1  0
 31216  1  0
 31217  1  0
 31218  1  0
 34219  1  0
 45220  1  0
 49221  1  0
 49222  1  0
 50223  1  0
 50224  1  0
 50225  1  0
 52226  1  0
 59227  1  0
 64228  1  0
 64229  1  0
 65230  1  0
 65231  1  0
 65232  1  0
 68233  1  0
 79234  1  0
 83235  1  0
 83236  1  0
 84237  1  0
 84238  1  0
 84239  1  0
 86240  1  0
 93241  1  0
 98242  1  0
 98243  1  0
 99244  1  0
 99245  1  0
 99246  1  0
102247  1  0
113248  1  0
117249  1  0
117250  1  0
118251  1  0
118252  1  0
118253  1  0
120254  1  0
127255  1  0
132256  1  0
132257  1  0
133258  1  0
133259  1  0
133260  1  0
136261  1  0
147262  1  0
151263  1  0
151264  1  0
152265  1  0
152266  1  0
152267  1  0
154268  1  0
161269  1  0
166270  1  0
166271  1  0
167272  1  0
167273  1  0
167274  1  0
170275  1  0
176276  1  0
181277  1  0
185278  1  0
185279  1  0
186280  1  0
186281  1  0
186282  1  0
188283  1  0
195284  1  0
200285  1  0
200286  1  0
201287  1  0
201288  1  0
201289  1  0
204290  1  0
M  END

