
     RDKit          3D

126135  0  0  0  0  0  0  0  0999 V2000
    4.8510    6.8254    1.6137 C   0  0  0  0  0  0  0  0  0  0  0  0
    5.0113    8.1527    1.2155 C   0  0  0  0  0  0  0  0  0  0  0  0
    3.9392    8.9882    1.1860 N   0  0  0  0  0  0  0  0  0  0  0  0
    2.6857    8.5788    1.5320 C   0  0  0  0  0  0  0  0  0  0  0  0
    2.4959    7.2466    1.9539 C   0  0  0  0  0  0  0  0  0  0  0  0
    3.5863    6.3741    1.9881 C   0  0  0  0  0  0  0  0  0  0  0  0
    1.5864    9.5725    1.4723 C   0  0  0  0  0  0  0  0  0  0  0  0
    0.2870    9.2553    1.4717 C   0  0  0  0  0  0  0  0  0  0  0  0
   -0.7495   10.3089    1.4063 C   0  0  0  0  0  0  0  0  0  0  0  0
   -2.0697   10.0667    1.4203 C   0  0  0  0  0  0  0  0  0  0  0  0
   -2.6722    8.7188    1.4204 C   0  0  0  0  0  0  0  0  0  0  0  0
   -3.6066    8.3732    2.4051 C   0  0  0  0  0  0  0  0  0  0  0  0
   -4.1258    7.1164    2.4426 N   0  0  0  0  0  0  0  0  0  0  0  0
   -3.7964    6.1725    1.5176 C   0  0  0  0  0  0  0  0  0  0  0  0
   -2.9065    6.4984    0.4838 C   0  0  0  0  0  0  0  0  0  0  0  0
   -2.3536    7.7776    0.4319 C   0  0  0  0  0  0  0  0  0  0  0  0
   -4.2890    4.7857    1.6411 C   0  0  0  0  0  0  0  0  0  0  0  0
   -5.0648    4.3707    2.6484 C   0  0  0  0  0  0  0  0  0  0  0  0
   -5.3333    2.9364    2.8137 C   0  0  0  0  0  0  0  0  0  0  0  0
   -6.1633    2.4623    3.7461 C   0  0  0  0  0  0  0  0  0  0  0  0
   -6.2772    1.0122    3.9197 C   0  0  0  0  0  0  0  0  0  0  0  0
   -5.0009    0.0617    4.4715 S   0  0  0  0  0  0  0  0  0  0  0  0
   -5.5985   -1.3787    3.8628 C   0  0  0  0  0  0  0  0  0  0  0  0
   -4.8370   -2.5901    3.6233 C   0  0  0  0  0  0  0  0  0  0  0  0
   -5.2079   -3.4151    2.5857 C   0  0  0  0  0  0  0  0  0  0  0  0
   -6.4315   -3.2354    1.9214 O   0  0  0  0  0  0  0  0  0  0  0  0
   -7.4291   -2.2737    2.3468 C   0  0  0  0  0  0  0  0  0  0  0  0
   -8.4320   -3.0394    3.2490 C   0  0  0  0  0  0  0  0  0  0  0  0
   -9.5840   -2.1945    3.8035 C   0  0  0  0  0  0  0  0  0  0  0  0
   -8.1323   -1.7489    1.0649 C   0  0  0  0  0  0  0  0  0  0  0  0
   -7.1535   -1.1413    0.0525 C   0  0  0  0  0  0  0  0  0  0  0  0
   -6.7711   -1.1417    3.1585 C   0  0  0  0  0  0  0  0  0  0  0  0
   -7.1716    0.2089    3.2166 C   0  0  0  0  0  0  0  0  0  0  0  0
   -4.2137   -4.3175    2.1967 C   0  0  0  0  0  0  0  0  0  0  0  0
   -3.0424   -4.1677    2.9428 C   0  0  0  0  0  0  0  0  0  0  0  0
   -3.2556   -2.9213    4.0650 S   0  0  0  0  0  0  0  0  0  0  0  0
   -1.7275   -4.7176    2.5923 C   0  0  0  0  0  0  0  0  0  0  0  0
   -1.2268   -5.0453    1.0122 S   0  0  0  0  0  0  0  0  0  0  0  0
    0.3956   -5.1903    1.4108 C   0  0  0  0  0  0  0  0  0  0  0  0
    1.5315   -5.3773    0.5308 C   0  0  0  0  0  0  0  0  0  0  0  0
    2.7885   -5.4788    1.0665 C   0  0  0  0  0  0  0  0  0  0  0  0
    2.9776   -5.4459    2.4557 O   0  0  0  0  0  0  0  0  0  0  0  0
    2.0020   -4.8806    3.3668 C   0  0  0  0  0  0  0  0  0  0  0  0
    2.0678   -5.6964    4.6848 C   0  0  0  0  0  0  0  0  0  0  0  0
    3.4451   -5.6829    5.3533 C   0  0  0  0  0  0  0  0  0  0  0  0
    2.3911   -3.3829    3.5466 C   0  0  0  0  0  0  0  0  0  0  0  0
    1.5893   -2.5916    4.5854 C   0  0  0  0  0  0  0  0  0  0  0  0
    0.5868   -4.9865    2.7690 C   0  0  0  0  0  0  0  0  0  0  0  0
   -0.6196   -4.7233    3.4372 C   0  0  0  0  0  0  0  0  0  0  0  0
    3.8050   -5.5781    0.1152 C   0  0  0  0  0  0  0  0  0  0  0  0
    3.3169   -5.5072   -1.1978 C   0  0  0  0  0  0  0  0  0  0  0  0
    1.6252   -5.3542   -1.1400 S   0  0  0  0  0  0  0  0  0  0  0  0
    4.1335   -5.4422   -2.4370 C   0  0  0  0  0  0  0  0  0  0  0  0
    3.5674   -4.9825   -3.6377 C   0  0  0  0  0  0  0  0  0  0  0  0
    4.3303   -4.8565   -4.7534 N   0  0  0  0  0  0  0  0  0  0  0  0
    5.6537   -5.1764   -4.7717 C   0  0  0  0  0  0  0  0  0  0  0  0
    6.2554   -5.6638   -3.6051 C   0  0  0  0  0  0  0  0  0  0  0  0
    5.4951   -5.7940   -2.4397 C   0  0  0  0  0  0  0  0  0  0  0  0
    6.4554   -4.9752   -5.9987 C   0  0  0  0  0  0  0  0  0  0  0  0
    5.9390   -4.3916   -7.0858 C   0  0  0  0  0  0  0  0  0  0  0  0
    6.7551   -4.1339   -8.2889 C   0  0  0  0  0  0  0  0  0  0  0  0
    6.3712   -3.3015   -9.2685 C   0  0  0  0  0  0  0  0  0  0  0  0
    5.1711   -2.4410   -9.1962 C   0  0  0  0  0  0  0  0  0  0  0  0
    4.9321   -1.6170   -8.0841 C   0  0  0  0  0  0  0  0  0  0  0  0
    3.7883   -0.8889   -8.0058 N   0  0  0  0  0  0  0  0  0  0  0  0
    2.8481   -0.9137   -8.9905 C   0  0  0  0  0  0  0  0  0  0  0  0
    3.0889   -1.6532  -10.1553 C   0  0  0  0  0  0  0  0  0  0  0  0
    4.2538   -2.4200  -10.2555 C   0  0  0  0  0  0  0  0  0  0  0  0
    1.6125   -0.1146   -8.8648 C   0  0  0  0  0  0  0  0  0  0  0  0
    0.9204    0.0559   -7.7282 C   0  0  0  0  0  0  0  0  0  0  0  0
    1.2102   -0.6418   -6.4579 C   0  0  0  0  0  0  0  0  0  0  0  0
    0.5184   -0.3704   -5.3558 C   0  0  0  0  0  0  0  0  0  0  0  0
    5.7006    6.1557    1.6378 H   0  0  0  0  0  0  0  0  0  0  0  0
    5.9889    8.5198    0.9311 H   0  0  0  0  0  0  0  0  0  0  0  0
    1.5336    6.8783    2.2771 H   0  0  0  0  0  0  0  0  0  0  0  0
    3.4505    5.3500    2.3101 H   0  0  0  0  0  0  0  0  0  0  0  0
    1.8710   10.6139    1.3847 H   0  0  0  0  0  0  0  0  0  0  0  0
   -0.0148    8.2225    1.5232 H   0  0  0  0  0  0  0  0  0  0  0  0
   -0.4297   11.3447    1.4063 H   0  0  0  0  0  0  0  0  0  0  0  0
   -2.7397   10.9136    1.4977 H   0  0  0  0  0  0  0  0  0  0  0  0
   -3.8916    9.0885    3.1668 H   0  0  0  0  0  0  0  0  0  0  0  0
   -2.6301    5.7697   -0.2671 H   0  0  0  0  0  0  0  0  0  0  0  0
   -1.6635    8.0253   -0.3669 H   0  0  0  0  0  0  0  0  0  0  0  0
   -3.9454    4.0611    0.9119 H   0  0  0  0  0  0  0  0  0  0  0  0
   -5.4460    5.0753    3.3800 H   0  0  0  0  0  0  0  0  0  0  0  0
   -4.8110    2.2351    2.1704 H   0  0  0  0  0  0  0  0  0  0  0  0
   -6.7448    3.1281    4.3737 H   0  0  0  0  0  0  0  0  0  0  0  0
   -8.8637   -3.8898    2.6773 H   0  0  0  0  0  0  0  0  0  0  0  0
   -7.8802   -3.4766    4.1098 H   0  0  0  0  0  0  0  0  0  0  0  0
  -10.2103   -2.8263    4.4682 H   0  0  0  0  0  0  0  0  0  0  0  0
  -10.2325   -1.8169    2.9862 H   0  0  0  0  0  0  0  0  0  0  0  0
   -9.2020   -1.3422    4.4031 H   0  0  0  0  0  0  0  0  0  0  0  0
   -8.6585   -2.5907    0.5653 H   0  0  0  0  0  0  0  0  0  0  0  0
   -8.9003   -0.9872    1.3097 H   0  0  0  0  0  0  0  0  0  0  0  0
   -6.5991   -0.2903    0.4979 H   0  0  0  0  0  0  0  0  0  0  0  0
   -6.4271   -1.9059   -0.2968 H   0  0  0  0  0  0  0  0  0  0  0  0
   -7.7168   -0.7687   -0.8288 H   0  0  0  0  0  0  0  0  0  0  0  0
   -8.0135    0.6154    2.6748 H   0  0  0  0  0  0  0  0  0  0  0  0
   -4.3112   -4.9836    1.3491 H   0  0  0  0  0  0  0  0  0  0  0  0
    1.3172   -5.3370    5.4181 H   0  0  0  0  0  0  0  0  0  0  0  0
    1.8097   -6.7536    4.4571 H   0  0  0  0  0  0  0  0  0  0  0  0
    3.6813   -4.6712    5.7427 H   0  0  0  0  0  0  0  0  0  0  0  0
    3.4423   -6.3876    6.2117 H   0  0  0  0  0  0  0  0  0  0  0  0
    4.2361   -5.9998    4.6417 H   0  0  0  0  0  0  0  0  0  0  0  0
    2.2878   -2.8656    2.5670 H   0  0  0  0  0  0  0  0  0  0  0  0
    3.4671   -3.3146    3.8160 H   0  0  0  0  0  0  0  0  0  0  0  0
    0.5369   -2.4627    4.2646 H   0  0  0  0  0  0  0  0  0  0  0  0
    2.0273   -1.5765    4.6783 H   0  0  0  0  0  0  0  0  0  0  0  0
    1.6313   -3.0684    5.5842 H   0  0  0  0  0  0  0  0  0  0  0  0
   -0.6809   -4.4740    4.4870 H   0  0  0  0  0  0  0  0  0  0  0  0
    4.8517   -5.6316    0.3802 H   0  0  0  0  0  0  0  0  0  0  0  0
    2.5263   -4.6967   -3.6891 H   0  0  0  0  0  0  0  0  0  0  0  0
    7.3059   -5.9264   -3.5940 H   0  0  0  0  0  0  0  0  0  0  0  0
    5.9777   -6.1701   -1.5467 H   0  0  0  0  0  0  0  0  0  0  0  0
    7.5005   -5.2672   -5.9940 H   0  0  0  0  0  0  0  0  0  0  0  0
    4.8972   -4.0946   -7.0857 H   0  0  0  0  0  0  0  0  0  0  0  0
    7.6861   -4.6744   -8.4110 H   0  0  0  0  0  0  0  0  0  0  0  0
    6.9615   -3.2667  -10.1759 H   0  0  0  0  0  0  0  0  0  0  0  0
    5.6474   -1.5657   -7.2721 H   0  0  0  0  0  0  0  0  0  0  0  0
    2.3692   -1.6605  -10.9660 H   0  0  0  0  0  0  0  0  0  0  0  0
    4.4256   -3.0168  -11.1419 H   0  0  0  0  0  0  0  0  0  0  0  0
    1.2244    0.3492   -9.7641 H   0  0  0  0  0  0  0  0  0  0  0  0
    0.0497    0.7022   -7.7660 H   0  0  0  0  0  0  0  0  0  0  0  0
    1.9616   -1.4177   -6.4056 H   0  0  0  0  0  0  0  0  0  0  0  0
    0.7316   -0.9069   -4.4400 H   0  0  0  0  0  0  0  0  0  0  0  0
   -0.2606    0.3825   -5.3509 H   0  0  0  0  0  0  0  0  0  0  0  0
  1  2  2  0
  2  3  1  0
  3  4  2  0
  4  5  1  0
  5  6  2  0
  4  7  1  0
  7  8  2  3
  8  9  1  0
  9 10  2  3
 10 11  1  0
 11 12  2  0
 12 13  1  0
 13 14  2  0
 14 15  1  0
 15 16  2  0
 14 17  1  0
 17 18  2  3
 18 19  1  0
 19 20  2  3
 20 21  1  0
 21 22  1  0
 22 23  1  0
 23 24  1  0
 24 25  2  0
 25 26  1  0
 26 27  1  0
 27 28  1  0
 28 29  1  0
 27 30  1  0
 30 31  1  0
 27 32  1  0
 32 33  1  0
 25 34  1  0
 34 35  2  0
 35 36  1  0
 35 37  1  0
 37 38  1  0
 38 39  1  0
 39 40  1  0
 40 41  2  0
 41 42  1  0
 42 43  1  0
 43 44  1  0
 44 45  1  0
 43 46  1  0
 46 47  1  0
 43 48  1  0
 48 49  1  0
 41 50  1  0
 50 51  2  0
 51 52  1  0
 51 53  1  0
 53 54  2  0
 54 55  1  0
 55 56  2  0
 56 57  1  0
 57 58  2  0
 56 59  1  0
 59 60  2  3
 60 61  1  0
 61 62  2  3
 62 63  1  0
 63 64  2  0
 64 65  1  0
 65 66  2  0
 66 67  1  0
 67 68  2  0
 66 69  1  0
 69 70  2  3
 70 71  1  0
 71 72  2  3
  6  1  1  0
 16 11  1  0
 33 21  2  0
 49 37  2  0
 58 53  1  0
 68 63  1  0
 32 23  2  0
 48 39  2  0
 36 24  1  0
 52 40  1  0
  1 73  1  0
  2 74  1  0
  5 75  1  0
  6 76  1  0
  7 77  1  0
  8 78  1  0
  9 79  1  0
 10 80  1  0
 12 81  1  0
 15 82  1  0
 16 83  1  0
 17 84  1  0
 18 85  1  0
 19 86  1  0
 20 87  1  0
 28 88  1  0
 28 89  1  0
 29 90  1  0
 29 91  1  0
 29 92  1  0
 30 93  1  0
 30 94  1  0
 31 95  1  0
 31 96  1  0
 31 97  1  0
 33 98  1  0
 34 99  1  0
 44100  1  0
 44101  1  0
 45102  1  0
 45103  1  0
 45104  1  0
 46105  1  0
 46106  1  0
 47107  1  0
 47108  1  0
 47109  1  0
 49110  1  0
 50111  1  0
 54112  1  0
 57113  1  0
 58114  1  0
 59115  1  0
 60116  1  0
 61117  1  0
 62118  1  0
 64119  1  0
 67120  1  0
 68121  1  0
 69122  1  0
 70123  1  0
 71124  1  0
 72125  1  0
 72126  1  0
M  END

