
     RDKit          3D

100112  0  0  0  0  0  0  0  0999 V2000
   -3.7168    0.3806   -6.2712 C   0  0  0  0  0  0  0  0  0  0  0  0
   -2.2958   -0.5125   -6.3892 S   0  0  0  0  0  0  0  0  0  0  0  0
   -2.7635   -1.7966   -5.4112 C   0  0  0  0  0  0  0  0  0  0  0  0
   -4.0409   -1.5145   -4.9257 C   0  0  0  0  0  0  0  0  0  0  0  0
   -4.5785   -0.3076   -5.4224 C   0  0  0  0  0  0  0  0  0  0  0  0
   -5.8548    0.1222   -5.0178 C   0  0  0  0  0  0  0  0  0  0  0  0
   -6.4342    1.3520   -5.5012 C   0  0  0  0  0  0  0  0  0  0  0  0
   -6.9148    2.3360   -5.8786 N   0  0  0  0  0  0  0  0  0  0  0  0
   -6.5790   -0.6711   -4.1170 C   0  0  0  0  0  0  0  0  0  0  0  0
   -6.0318   -1.8589   -3.6072 C   0  0  0  0  0  0  0  0  0  0  0  0
   -4.7583   -2.2813   -4.0018 C   0  0  0  0  0  0  0  0  0  0  0  0
   -1.8516   -2.8585   -4.9616 C   0  0  0  0  0  0  0  0  0  0  0  0
   -0.4213   -2.5243   -4.1423 S   0  0  0  0  0  0  0  0  0  0  0  0
   -0.0058   -4.1141   -3.7911 C   0  0  0  0  0  0  0  0  0  0  0  0
   -1.0084   -4.9434   -4.2893 C   0  0  0  0  0  0  0  0  0  0  0  0
   -2.0359   -4.2519   -4.9727 C   0  0  0  0  0  0  0  0  0  0  0  0
   -3.0698   -4.9789   -5.6025 C   0  0  0  0  0  0  0  0  0  0  0  0
   -4.0797   -4.3494   -6.4175 C   0  0  0  0  0  0  0  0  0  0  0  0
   -4.8928   -3.8465   -7.0741 N   0  0  0  0  0  0  0  0  0  0  0  0
   -3.0834   -6.3792   -5.4805 C   0  0  0  0  0  0  0  0  0  0  0  0
   -2.0798   -7.0537   -4.7681 C   0  0  0  0  0  0  0  0  0  0  0  0
   -1.0363   -6.3383   -4.1686 C   0  0  0  0  0  0  0  0  0  0  0  0
    1.0686   -4.4721   -2.8586 C   0  0  0  0  0  0  0  0  0  0  0  0
    0.7315   -4.7174   -1.2309 S   0  0  0  0  0  0  0  0  0  0  0  0
    2.2454   -4.3357   -0.6096 C   0  0  0  0  0  0  0  0  0  0  0  0
    3.0593   -4.0153   -1.6980 C   0  0  0  0  0  0  0  0  0  0  0  0
    2.4080   -4.0720   -2.9523 C   0  0  0  0  0  0  0  0  0  0  0  0
    3.0981   -3.6784   -4.1187 C   0  0  0  0  0  0  0  0  0  0  0  0
    2.4909   -3.7095   -5.4267 C   0  0  0  0  0  0  0  0  0  0  0  0
    2.0089   -3.7139   -6.4843 N   0  0  0  0  0  0  0  0  0  0  0  0
    4.4253   -3.2417   -4.0105 C   0  0  0  0  0  0  0  0  0  0  0  0
    5.0662   -3.2008   -2.7641 C   0  0  0  0  0  0  0  0  0  0  0  0
    4.3933   -3.5947   -1.6073 C   0  0  0  0  0  0  0  0  0  0  0  0
    2.4006   -3.8189    0.7620 C   0  0  0  0  0  0  0  0  0  0  0  0
    3.0046   -2.2753    1.0751 S   0  0  0  0  0  0  0  0  0  0  0  0
    2.2828   -2.1007    2.5725 C   0  0  0  0  0  0  0  0  0  0  0  0
    2.0033   -0.8396    3.2331 C   0  0  0  0  0  0  0  0  0  0  0  0
    0.8931   -0.7515    4.0449 C   0  0  0  0  0  0  0  0  0  0  0  0
    0.1774   -1.8993    4.4180 O   0  0  0  0  0  0  0  0  0  0  0  0
    0.6044   -3.2470    4.0957 C   0  0  0  0  0  0  0  0  0  0  0  0
    1.4240   -3.7697    5.3074 C   0  0  0  0  0  0  0  0  0  0  0  0
    1.9130   -5.2180    5.1824 C   0  0  0  0  0  0  0  0  0  0  0  0
   -0.6754   -4.0876    3.8260 C   0  0  0  0  0  0  0  0  0  0  0  0
   -1.6843   -4.0714    4.9797 C   0  0  0  0  0  0  0  0  0  0  0  0
    1.5124   -3.2226    2.8526 C   0  0  0  0  0  0  0  0  0  0  0  0
    1.5964   -4.1996    1.8389 C   0  0  0  0  0  0  0  0  0  0  0  0
    0.4755    0.5581    4.2962 C   0  0  0  0  0  0  0  0  0  0  0  0
    1.2492    1.4940    3.6145 C   0  0  0  0  0  0  0  0  0  0  0  0
    2.4467    0.6978    2.7274 S   0  0  0  0  0  0  0  0  0  0  0  0
    0.8750    2.8921    3.3922 C   0  0  0  0  0  0  0  0  0  0  0  0
    1.4225    4.1680    4.3459 S   0  0  0  0  0  0  0  0  0  0  0  0
    0.8129    5.4038    3.3816 C   0  0  0  0  0  0  0  0  0  0  0  0
    0.1514    4.8317    2.2971 C   0  0  0  0  0  0  0  0  0  0  0  0
    0.1851    3.4214    2.2870 C   0  0  0  0  0  0  0  0  0  0  0  0
   -0.4525    2.7148    1.2392 C   0  0  0  0  0  0  0  0  0  0  0  0
   -0.5245    1.2755    1.1903 C   0  0  0  0  0  0  0  0  0  0  0  0
   -0.5952    0.1204    1.1402 N   0  0  0  0  0  0  0  0  0  0  0  0
   -1.0825    3.4414    0.2151 C   0  0  0  0  0  0  0  0  0  0  0  0
   -1.1070    4.8413    0.2391 C   0  0  0  0  0  0  0  0  0  0  0  0
   -0.4980    5.5440    1.2814 C   0  0  0  0  0  0  0  0  0  0  0  0
    0.9289    6.8396    3.6792 C   0  0  0  0  0  0  0  0  0  0  0  0
    0.1145    7.5834    4.9509 S   0  0  0  0  0  0  0  0  0  0  0  0
    0.4713    9.1733    4.5339 C   0  0  0  0  0  0  0  0  0  0  0  0
    1.2310    9.1389    3.3708 C   0  0  0  0  0  0  0  0  0  0  0  0
    1.5110    7.8425    2.8899 C   0  0  0  0  0  0  0  0  0  0  0  0
    2.3254    7.6798    1.7457 C   0  0  0  0  0  0  0  0  0  0  0  0
    2.7669    6.3873    1.2787 C   0  0  0  0  0  0  0  0  0  0  0  0
    3.1244    5.3495    0.9064 N   0  0  0  0  0  0  0  0  0  0  0  0
    2.7947    8.8247    1.0783 C   0  0  0  0  0  0  0  0  0  0  0  0
    2.4785   10.1086    1.5478 C   0  0  0  0  0  0  0  0  0  0  0  0
    1.7019   10.2711    2.7022 C   0  0  0  0  0  0  0  0  0  0  0  0
   -3.9086    1.3312   -6.7507 H   0  0  0  0  0  0  0  0  0  0  0  0
   -7.5683   -0.3684   -3.7946 H   0  0  0  0  0  0  0  0  0  0  0  0
   -6.6029   -2.4556   -2.9091 H   0  0  0  0  0  0  0  0  0  0  0  0
   -4.3454   -3.1945   -3.5937 H   0  0  0  0  0  0  0  0  0  0  0  0
   -3.8688   -6.9565   -5.9522 H   0  0  0  0  0  0  0  0  0  0  0  0
   -2.1080   -8.1361   -4.6931 H   0  0  0  0  0  0  0  0  0  0  0  0
   -0.2567   -6.8684   -3.6335 H   0  0  0  0  0  0  0  0  0  0  0  0
    4.9743   -2.9350   -4.8927 H   0  0  0  0  0  0  0  0  0  0  0  0
    6.0884   -2.8550   -2.6993 H   0  0  0  0  0  0  0  0  0  0  0  0
    4.9068   -3.5644   -0.6545 H   0  0  0  0  0  0  0  0  0  0  0  0
    2.3150   -3.1142    5.4471 H   0  0  0  0  0  0  0  0  0  0  0  0
    0.8279   -3.6720    6.2400 H   0  0  0  0  0  0  0  0  0  0  0  0
    1.0593   -5.9238    5.1397 H   0  0  0  0  0  0  0  0  0  0  0  0
    2.5480   -5.3495    4.2800 H   0  0  0  0  0  0  0  0  0  0  0  0
    2.5226   -5.4770    6.0734 H   0  0  0  0  0  0  0  0  0  0  0  0
   -1.1802   -3.6737    2.9241 H   0  0  0  0  0  0  0  0  0  0  0  0
   -0.4254   -5.1447    3.5994 H   0  0  0  0  0  0  0  0  0  0  0  0
   -1.9573   -3.0311    5.2539 H   0  0  0  0  0  0  0  0  0  0  0  0
   -2.6082   -4.6043    4.6698 H   0  0  0  0  0  0  0  0  0  0  0  0
   -1.2710   -4.5941    5.8675 H   0  0  0  0  0  0  0  0  0  0  0  0
    1.0080   -5.1068    1.8302 H   0  0  0  0  0  0  0  0  0  0  0  0
   -0.4202    0.8012    4.8514 H   0  0  0  0  0  0  0  0  0  0  0  0
   -1.5738    2.9211   -0.6007 H   0  0  0  0  0  0  0  0  0  0  0  0
   -1.6011    5.3796   -0.5573 H   0  0  0  0  0  0  0  0  0  0  0  0
   -0.5313    6.6263    1.2856 H   0  0  0  0  0  0  0  0  0  0  0  0
    0.1509   10.0602    5.0647 H   0  0  0  0  0  0  0  0  0  0  0  0
    3.4229    8.7254    0.2010 H   0  0  0  0  0  0  0  0  0  0  0  0
    2.8480   10.9810    1.0230 H   0  0  0  0  0  0  0  0  0  0  0  0
    1.4724   11.2661    3.0645 H   0  0  0  0  0  0  0  0  0  0  0  0
  1  2  1  0
  2  3  1  0
  3  4  2  0
  4  5  1  0
  5  6  1  0
  6  7  1  0
  7  8  3  0
  6  9  2  0
  9 10  1  0
 10 11  2  0
  3 12  1  0
 12 13  1  0
 13 14  1  0
 14 15  2  0
 15 16  1  0
 16 17  1  0
 17 18  1  0
 18 19  3  0
 17 20  2  0
 20 21  1  0
 21 22  2  0
 14 23  1  0
 23 24  1  0
 24 25  1  0
 25 26  2  0
 26 27  1  0
 27 28  1  0
 28 29  1  0
 29 30  3  0
 28 31  2  0
 31 32  1  0
 32 33  2  0
 25 34  1  0
 34 35  1  0
 35 36  1  0
 36 37  1  0
 37 38  2  0
 38 39  1  0
 39 40  1  0
 40 41  1  0
 41 42  1  0
 40 43  1  0
 43 44  1  0
 40 45  1  0
 45 46  1  0
 38 47  1  0
 47 48  2  0
 48 49  1  0
 48 50  1  0
 50 51  1  0
 51 52  1  0
 52 53  2  0
 53 54  1  0
 54 55  1  0
 55 56  1  0
 56 57  3  0
 55 58  2  0
 58 59  1  0
 59 60  2  0
 52 61  1  0
 61 62  1  0
 62 63  1  0
 63 64  2  0
 64 65  1  0
 65 66  1  0
 66 67  1  0
 67 68  3  0
 66 69  2  0
 69 70  1  0
 70 71  2  0
  5  1  2  0
 16 12  2  0
 27 23  2  0
 46 34  2  0
 54 50  2  0
 65 61  2  0
 11  4  1  0
 22 15  1  0
 33 26  1  0
 45 36  2  0
 60 53  1  0
 71 64  1  0
 49 37  1  0
  1 72  1  0
  9 73  1  0
 10 74  1  0
 11 75  1  0
 20 76  1  0
 21 77  1  0
 22 78  1  0
 31 79  1  0
 32 80  1  0
 33 81  1  0
 41 82  1  0
 41 83  1  0
 42 84  1  0
 42 85  1  0
 42 86  1  0
 43 87  1  0
 43 88  1  0
 44 89  1  0
 44 90  1  0
 44 91  1  0
 46 92  1  0
 47 93  1  0
 58 94  1  0
 59 95  1  0
 60 96  1  0
 63 97  1  0
 69 98  1  0
 70 99  1  0
 71100  1  0
M  END

