
     RDKit          3D

105112  0  0  0  0  0  0  0  0999 V2000
    0.2036    0.8483    5.5056 C   0  0  0  0  0  0  0  0  0  0  0  0
    0.0455   -0.7552    6.0558 S   0  0  0  0  0  0  0  0  0  0  0  0
    1.5948   -0.6752    5.1148 C   0  0  0  0  0  0  0  0  0  0  0  0
    1.5098    0.6774    4.8173 C   0  0  0  0  0  0  0  0  0  0  0  0
    2.3951    1.5985    4.0922 C   0  0  0  0  0  0  0  0  0  0  0  0
    3.4456    1.1527    3.5561 O   0  0  0  0  0  0  0  0  0  0  0  0
    2.0917    3.0661    4.0331 C   0  0  0  0  0  0  0  0  0  0  0  0
    2.0780    3.5524    2.6120 C   0  0  0  0  0  0  0  0  0  0  0  0
    2.9326    4.4919    2.1828 C   0  0  0  0  0  0  0  0  0  0  0  0
    2.8967    4.9775    0.7577 C   0  0  0  0  0  0  0  0  0  0  0  0
    3.6613    6.4945    0.6066 S   0  0  0  0  0  0  0  0  0  0  0  0
    4.6479    5.3222   -0.3562 C   0  0  0  0  0  0  0  0  0  0  0  0
    3.8352    4.2214   -0.1170 C   0  0  0  0  0  0  0  0  0  0  0  0
    3.8734    2.8300   -0.5933 C   0  0  0  0  0  0  0  0  0  0  0  0
    2.9154    2.0578   -0.3191 O   0  0  0  0  0  0  0  0  0  0  0  0
    4.9933    2.3715   -1.4850 C   0  0  0  0  0  0  0  0  0  0  0  0
    5.3079    0.9029   -1.3393 C   0  0  0  0  0  0  0  0  0  0  0  0
    6.3784    0.3732   -1.9563 C   0  0  0  0  0  0  0  0  0  0  0  0
    6.7255   -1.0950   -1.8910 C   0  0  0  0  0  0  0  0  0  0  0  0
    6.8501   -1.6765   -0.2939 S   0  0  0  0  0  0  0  0  0  0  0  0
    5.5423   -2.6399   -1.0971 C   0  0  0  0  0  0  0  0  0  0  0  0
    5.6114   -1.9834   -2.3183 C   0  0  0  0  0  0  0  0  0  0  0  0
    4.8745   -2.1277   -3.5807 C   0  0  0  0  0  0  0  0  0  0  0  0
    5.1905   -1.4124   -4.5698 O   0  0  0  0  0  0  0  0  0  0  0  0
    3.7294   -3.0868   -3.6922 C   0  0  0  0  0  0  0  0  0  0  0  0
    2.5242   -2.5137   -3.0117 C   0  0  0  0  0  0  0  0  0  0  0  0
    1.6892   -1.6894   -3.6515 C   0  0  0  0  0  0  0  0  0  0  0  0
    0.5197   -1.0860   -2.9908 C   0  0  0  0  0  0  0  0  0  0  0  0
    0.2082   -1.0698   -1.3295 S   0  0  0  0  0  0  0  0  0  0  0  0
   -1.2549   -0.2635   -1.4686 C   0  0  0  0  0  0  0  0  0  0  0  0
   -2.2345   -0.0034   -0.4374 C   0  0  0  0  0  0  0  0  0  0  0  0
   -3.4738    0.4647   -0.7904 C   0  0  0  0  0  0  0  0  0  0  0  0
   -3.7872    0.7638   -2.1240 O   0  0  0  0  0  0  0  0  0  0  0  0
   -2.8213    0.7518   -3.2051 C   0  0  0  0  0  0  0  0  0  0  0  0
   -2.5055    2.2390   -3.5107 C   0  0  0  0  0  0  0  0  0  0  0  0
   -1.5367    2.4991   -4.6678 C   0  0  0  0  0  0  0  0  0  0  0  0
   -3.5011    0.0568   -4.4148 C   0  0  0  0  0  0  0  0  0  0  0  0
   -3.9751   -1.3643   -4.0945 C   0  0  0  0  0  0  0  0  0  0  0  0
   -1.5326    0.0158   -2.7973 C   0  0  0  0  0  0  0  0  0  0  0  0
   -0.5194   -0.4417   -3.6599 C   0  0  0  0  0  0  0  0  0  0  0  0
   -4.3686    0.5339    0.2759 C   0  0  0  0  0  0  0  0  0  0  0  0
   -3.8086    0.0982    1.4784 C   0  0  0  0  0  0  0  0  0  0  0  0
   -2.2117   -0.3990    1.1929 S   0  0  0  0  0  0  0  0  0  0  0  0
   -4.5952   -0.1126    2.7418 C   0  0  0  0  0  0  0  0  0  0  0  0
   -3.6219   -0.3164    4.1336 S   0  0  0  0  0  0  0  0  0  0  0  0
   -4.5056   -1.8815    3.8796 C   0  0  0  0  0  0  0  0  0  0  0  0
   -5.2175   -1.4642    2.7614 C   0  0  0  0  0  0  0  0  0  0  0  0
   -6.1962   -2.1197    1.8855 C   0  0  0  0  0  0  0  0  0  0  0  0
   -6.8254   -1.4324    1.0346 O   0  0  0  0  0  0  0  0  0  0  0  0
   -6.4124   -3.6037    1.9439 C   0  0  0  0  0  0  0  0  0  0  0  0
   -5.2509   -4.3485    1.3426 C   0  0  0  0  0  0  0  0  0  0  0  0
   -4.8518   -4.1406    0.0766 C   0  0  0  0  0  0  0  0  0  0  0  0
   -3.7035   -4.9115   -0.5232 C   0  0  0  0  0  0  0  0  0  0  0  0
   -3.7234   -4.7969   -2.2256 S   0  0  0  0  0  0  0  0  0  0  0  0
   -2.2409   -3.9228   -1.6661 C   0  0  0  0  0  0  0  0  0  0  0  0
   -2.3892   -4.2342   -0.3234 C   0  0  0  0  0  0  0  0  0  0  0  0
   -1.5330   -3.9875    0.8416 C   0  0  0  0  0  0  0  0  0  0  0  0
   -0.4484   -3.3661    0.6782 O   0  0  0  0  0  0  0  0  0  0  0  0
   -1.9505   -4.4435    2.2094 C   0  0  0  0  0  0  0  0  0  0  0  0
   -0.7891   -4.5200    3.1672 C   0  0  0  0  0  0  0  0  0  0  0  0
   -0.2262   -3.4191    3.6772 C   0  0  0  0  0  0  0  0  0  0  0  0
   -0.6040    1.1089    4.7860 H   0  0  0  0  0  0  0  0  0  0  0  0
    0.2788    1.5644    6.3531 H   0  0  0  0  0  0  0  0  0  0  0  0
    2.3412   -1.4276    4.8921 H   0  0  0  0  0  0  0  0  0  0  0  0
    1.0960    3.2845    4.4755 H   0  0  0  0  0  0  0  0  0  0  0  0
    2.8507    3.6033    4.6389 H   0  0  0  0  0  0  0  0  0  0  0  0
    1.3418    3.1328    1.9316 H   0  0  0  0  0  0  0  0  0  0  0  0
    3.6617    4.9129    2.8723 H   0  0  0  0  0  0  0  0  0  0  0  0
    1.8678    5.0080    0.3380 H   0  0  0  0  0  0  0  0  0  0  0  0
    5.5459    5.4495   -0.9456 H   0  0  0  0  0  0  0  0  0  0  0  0
    5.9113    2.9527   -1.2451 H   0  0  0  0  0  0  0  0  0  0  0  0
    4.7124    2.5865   -2.5378 H   0  0  0  0  0  0  0  0  0  0  0  0
    4.6536    0.2654   -0.7505 H   0  0  0  0  0  0  0  0  0  0  0  0
    7.0326    1.0213   -2.5395 H   0  0  0  0  0  0  0  0  0  0  0  0
    7.6481   -1.3187   -2.4659 H   0  0  0  0  0  0  0  0  0  0  0  0
    4.9145   -3.4406   -0.7366 H   0  0  0  0  0  0  0  0  0  0  0  0
    4.0052   -4.0488   -3.2087 H   0  0  0  0  0  0  0  0  0  0  0  0
    3.5073   -3.3126   -4.7587 H   0  0  0  0  0  0  0  0  0  0  0  0
    2.3642   -2.7608   -1.9695 H   0  0  0  0  0  0  0  0  0  0  0  0
    1.8576   -1.4679   -4.6987 H   0  0  0  0  0  0  0  0  0  0  0  0
   -3.4535    2.7715   -3.7366 H   0  0  0  0  0  0  0  0  0  0  0  0
   -2.0833    2.7128   -2.5973 H   0  0  0  0  0  0  0  0  0  0  0  0
   -1.4439    3.5956   -4.8296 H   0  0  0  0  0  0  0  0  0  0  0  0
   -1.9052    2.0480   -5.6117 H   0  0  0  0  0  0  0  0  0  0  0  0
   -0.5221    2.1172   -4.4354 H   0  0  0  0  0  0  0  0  0  0  0  0
   -4.3874    0.6501   -4.7332 H   0  0  0  0  0  0  0  0  0  0  0  0
   -2.8105   -0.0032   -5.2811 H   0  0  0  0  0  0  0  0  0  0  0  0
   -4.7200   -1.3588   -3.2700 H   0  0  0  0  0  0  0  0  0  0  0  0
   -3.1133   -2.0076   -3.8181 H   0  0  0  0  0  0  0  0  0  0  0  0
   -4.4574   -1.7993   -4.9953 H   0  0  0  0  0  0  0  0  0  0  0  0
   -0.5395   -0.3258   -4.7357 H   0  0  0  0  0  0  0  0  0  0  0  0
   -5.3996    0.8361    0.1681 H   0  0  0  0  0  0  0  0  0  0  0  0
   -5.3515    0.6864    2.8882 H   0  0  0  0  0  0  0  0  0  0  0  0
   -4.4801   -2.8177    4.4205 H   0  0  0  0  0  0  0  0  0  0  0  0
   -7.3412   -3.8715    1.3955 H   0  0  0  0  0  0  0  0  0  0  0  0
   -6.5367   -3.9179    3.0036 H   0  0  0  0  0  0  0  0  0  0  0  0
   -4.7523   -5.0919    1.9555 H   0  0  0  0  0  0  0  0  0  0  0  0
   -5.3740   -3.4039   -0.5307 H   0  0  0  0  0  0  0  0  0  0  0  0
   -3.6747   -5.9752   -0.1986 H   0  0  0  0  0  0  0  0  0  0  0  0
   -1.4701   -3.3948   -2.2107 H   0  0  0  0  0  0  0  0  0  0  0  0
   -2.7164   -3.7495    2.6014 H   0  0  0  0  0  0  0  0  0  0  0  0
   -2.3970   -5.4560    2.1348 H   0  0  0  0  0  0  0  0  0  0  0  0
   -0.4227   -5.4924    3.4714 H   0  0  0  0  0  0  0  0  0  0  0  0
   -0.5728   -2.4270    3.4016 H   0  0  0  0  0  0  0  0  0  0  0  0
    0.6032   -3.5081    4.3708 H   0  0  0  0  0  0  0  0  0  0  0  0
  1  2  1  0
  2  3  1  0
  3  4  2  0
  4  5  1  0
  5  6  2  0
  5  7  1  0
  7  8  1  0
  8  9  2  3
  9 10  1  0
 10 11  1  0
 11 12  1  0
 12 13  2  0
 13 14  1  0
 14 15  2  0
 14 16  1  0
 16 17  1  0
 17 18  2  3
 18 19  1  0
 19 20  1  0
 20 21  1  0
 21 22  2  0
 22 23  1  0
 23 24  2  0
 23 25  1  0
 25 26  1  0
 26 27  2  3
 27 28  1  0
 28 29  1  0
 29 30  1  0
 30 31  1  0
 31 32  2  0
 32 33  1  0
 33 34  1  0
 34 35  1  0
 35 36  1  0
 34 37  1  0
 37 38  1  0
 34 39  1  0
 39 40  1  0
 32 41  1  0
 41 42  2  0
 42 43  1  0
 42 44  1  0
 44 45  1  0
 45 46  1  0
 46 47  2  0
 47 48  1  0
 48 49  2  0
 48 50  1  0
 50 51  1  0
 51 52  2  3
 52 53  1  0
 53 54  1  0
 54 55  1  0
 55 56  2  0
 56 57  1  0
 57 58  2  0
 57 59  1  0
 59 60  1  0
 60 61  2  3
  4  1  1  0
 13 10  1  0
 22 19  1  0
 40 28  2  0
 47 44  1  0
 56 53  1  0
 39 30  2  0
 43 31  1  0
  1 62  1  0
  1 63  1  0
  3 64  1  0
  7 65  1  0
  7 66  1  0
  8 67  1  0
  9 68  1  0
 10 69  1  0
 12 70  1  0
 16 71  1  0
 16 72  1  0
 17 73  1  0
 18 74  1  0
 19 75  1  0
 21 76  1  0
 25 77  1  0
 25 78  1  0
 26 79  1  0
 27 80  1  0
 35 81  1  0
 35 82  1  0
 36 83  1  0
 36 84  1  0
 36 85  1  0
 37 86  1  0
 37 87  1  0
 38 88  1  0
 38 89  1  0
 38 90  1  0
 40 91  1  0
 41 92  1  0
 44 93  1  0
 46 94  1  0
 50 95  1  0
 50 96  1  0
 51 97  1  0
 52 98  1  0
 53 99  1  0
 55100  1  0
 59101  1  0
 59102  1  0
 60103  1  0
 61104  1  0
 61105  1  0
M  END

