
     RDKit          3D

102115  0  0  0  0  0  0  0  0999 V2000
    1.6607    6.3821    1.3830 C   0  0  0  0  0  0  0  0  0  0  0  0
    2.5451    7.7131    0.8124 S   0  0  0  0  0  0  0  0  0  0  0  0
    3.9336    6.8962    0.2798 C   0  0  0  0  0  0  0  0  0  0  0  0
    3.6780    5.5679    0.5610 C   0  0  0  0  0  0  0  0  0  0  0  0
    2.4754    5.2913    1.1452 C   0  0  0  0  0  0  0  0  0  0  0  0
    2.3641    3.8575    1.3976 C   0  0  0  0  0  0  0  0  0  0  0  0
    3.4975    3.2758    0.9656 C   0  0  0  0  0  0  0  0  0  0  0  0
    4.3879    4.3197    0.4156 C   0  0  0  0  0  0  0  0  0  0  0  0
    5.5353    4.1678   -0.0784 O   0  0  0  0  0  0  0  0  0  0  0  0
    3.7865    1.8313    1.0673 C   0  0  0  0  0  0  0  0  0  0  0  0
    2.7318    0.6818    1.7208 S   0  0  0  0  0  0  0  0  0  0  0  0
    3.7714   -0.6137    1.5001 C   0  0  0  0  0  0  0  0  0  0  0  0
    3.5834   -1.9994    1.8670 C   0  0  0  0  0  0  0  0  0  0  0  0
    4.6055   -2.8955    1.6840 C   0  0  0  0  0  0  0  0  0  0  0  0
    5.8269   -2.5023    1.1160 O   0  0  0  0  0  0  0  0  0  0  0  0
    6.0931   -1.1719    0.6000 C   0  0  0  0  0  0  0  0  0  0  0  0
    7.4254   -0.6732    1.2186 C   0  0  0  0  0  0  0  0  0  0  0  0
    7.3558   -0.5181    2.7407 C   0  0  0  0  0  0  0  0  0  0  0  0
    6.1966   -1.2591   -0.9447 C   0  0  0  0  0  0  0  0  0  0  0  0
    7.1991   -2.3011   -1.4509 C   0  0  0  0  0  0  0  0  0  0  0  0
    4.9578   -0.1891    0.9299 C   0  0  0  0  0  0  0  0  0  0  0  0
    4.9640    1.1919    0.6704 C   0  0  0  0  0  0  0  0  0  0  0  0
    4.3093   -4.1834    2.1355 C   0  0  0  0  0  0  0  0  0  0  0  0
    3.0238   -4.2766    2.6746 C   0  0  0  0  0  0  0  0  0  0  0  0
    2.2756   -2.7589    2.5908 S   0  0  0  0  0  0  0  0  0  0  0  0
    2.4343   -5.4910    3.2614 C   0  0  0  0  0  0  0  0  0  0  0  0
    3.2433   -6.9496    3.5831 S   0  0  0  0  0  0  0  0  0  0  0  0
    1.9365   -7.8246    4.2205 C   0  0  0  0  0  0  0  0  0  0  0  0
    0.8687   -6.9466    4.1722 C   0  0  0  0  0  0  0  0  0  0  0  0
    1.1228   -5.7031    3.6617 C   0  0  0  0  0  0  0  0  0  0  0  0
   -0.1209   -4.9333    3.6098 C   0  0  0  0  0  0  0  0  0  0  0  0
   -1.1086   -5.7142    4.0763 C   0  0  0  0  0  0  0  0  0  0  0  0
   -0.5431   -7.0174    4.4686 C   0  0  0  0  0  0  0  0  0  0  0  0
   -1.1636   -8.0074    4.9368 O   0  0  0  0  0  0  0  0  0  0  0  0
   -2.5256   -5.3224    4.1786 C   0  0  0  0  0  0  0  0  0  0  0  0
   -3.6945   -6.0195    5.1936 S   0  0  0  0  0  0  0  0  0  0  0  0
   -5.0336   -5.1026    4.6995 C   0  0  0  0  0  0  0  0  0  0  0  0
   -4.5385   -4.2505    3.7290 C   0  0  0  0  0  0  0  0  0  0  0  0
   -3.2056   -4.3612    3.4434 C   0  0  0  0  0  0  0  0  0  0  0  0
   -2.8798   -3.5005    2.3059 C   0  0  0  0  0  0  0  0  0  0  0  0
   -4.0030   -2.8695    1.9256 C   0  0  0  0  0  0  0  0  0  0  0  0
   -5.1114   -3.3045    2.7997 C   0  0  0  0  0  0  0  0  0  0  0  0
   -6.3223   -2.9672    2.7294 O   0  0  0  0  0  0  0  0  0  0  0  0
   -4.0879   -1.9451    0.7774 C   0  0  0  0  0  0  0  0  0  0  0  0
   -2.8158   -1.6147   -0.2871 S   0  0  0  0  0  0  0  0  0  0  0  0
   -3.7034   -0.5775   -1.2574 C   0  0  0  0  0  0  0  0  0  0  0  0
   -3.2617    0.1884   -2.4039 C   0  0  0  0  0  0  0  0  0  0  0  0
   -4.1024    1.1222   -2.9534 C   0  0  0  0  0  0  0  0  0  0  0  0
   -5.3905    1.3238   -2.4356 O   0  0  0  0  0  0  0  0  0  0  0  0
   -6.0428    0.3931   -1.5345 C   0  0  0  0  0  0  0  0  0  0  0  0
   -6.9218   -0.5352   -2.4211 C   0  0  0  0  0  0  0  0  0  0  0  0
   -7.8226   -1.5236   -1.6742 C   0  0  0  0  0  0  0  0  0  0  0  0
   -6.8680    1.2318   -0.5224 C   0  0  0  0  0  0  0  0  0  0  0  0
   -7.8962    2.1565   -1.1797 C   0  0  0  0  0  0  0  0  0  0  0  0
   -4.9976   -0.4495   -0.7783 C   0  0  0  0  0  0  0  0  0  0  0  0
   -5.2168   -1.2274    0.3737 C   0  0  0  0  0  0  0  0  0  0  0  0
   -3.5347    1.8419   -4.0055 C   0  0  0  0  0  0  0  0  0  0  0  0
   -2.2237    1.4392   -4.2736 C   0  0  0  0  0  0  0  0  0  0  0  0
   -1.7757    0.2239   -3.1806 S   0  0  0  0  0  0  0  0  0  0  0  0
   -1.3361    1.9921   -5.3072 C   0  0  0  0  0  0  0  0  0  0  0  0
    0.3549    1.8461   -5.3462 S   0  0  0  0  0  0  0  0  0  0  0  0
    0.6429    2.6602   -6.8045 C   0  0  0  0  0  0  0  0  0  0  0  0
   -0.6108    3.0365   -7.2495 C   0  0  0  0  0  0  0  0  0  0  0  0
   -1.6735    2.6832   -6.4629 C   0  0  0  0  0  0  0  0  0  0  0  0
   -2.9202    3.0435   -7.1452 C   0  0  0  0  0  0  0  0  0  0  0  0
   -2.5999    3.6209   -8.3113 C   0  0  0  0  0  0  0  0  0  0  0  0
   -1.1382    3.6467   -8.4457 C   0  0  0  0  0  0  0  0  0  0  0  0
   -0.4791    4.0867   -9.4234 O   0  0  0  0  0  0  0  0  0  0  0  0
    0.6800    6.3841    1.8375 H   0  0  0  0  0  0  0  0  0  0  0  0
    4.8230    7.3142   -0.1715 H   0  0  0  0  0  0  0  0  0  0  0  0
    1.5238    3.3549    1.8592 H   0  0  0  0  0  0  0  0  0  0  0  0
    8.2353   -1.4007    1.0001 H   0  0  0  0  0  0  0  0  0  0  0  0
    7.7214    0.3000    0.7710 H   0  0  0  0  0  0  0  0  0  0  0  0
    8.3506   -0.2113    3.1259 H   0  0  0  0  0  0  0  0  0  0  0  0
    7.0754   -1.4802    3.2192 H   0  0  0  0  0  0  0  0  0  0  0  0
    6.6199    0.2626    3.0247 H   0  0  0  0  0  0  0  0  0  0  0  0
    6.4736   -0.2682   -1.3664 H   0  0  0  0  0  0  0  0  0  0  0  0
    5.1972   -1.5246   -1.3559 H   0  0  0  0  0  0  0  0  0  0  0  0
    7.1153   -2.3845   -2.5549 H   0  0  0  0  0  0  0  0  0  0  0  0
    6.9909   -3.2994   -1.0136 H   0  0  0  0  0  0  0  0  0  0  0  0
    8.2392   -1.9999   -1.2122 H   0  0  0  0  0  0  0  0  0  0  0  0
    5.8036    1.6983    0.2174 H   0  0  0  0  0  0  0  0  0  0  0  0
    5.0056   -5.0093    2.0802 H   0  0  0  0  0  0  0  0  0  0  0  0
    1.9292   -8.8486    4.5682 H   0  0  0  0  0  0  0  0  0  0  0  0
   -0.2272   -3.9133    3.2751 H   0  0  0  0  0  0  0  0  0  0  0  0
   -6.0580   -5.1914    5.0342 H   0  0  0  0  0  0  0  0  0  0  0  0
   -1.9196   -3.4148    1.8184 H   0  0  0  0  0  0  0  0  0  0  0  0
   -7.5642    0.0857   -3.0813 H   0  0  0  0  0  0  0  0  0  0  0  0
   -6.2576   -1.1168   -3.0981 H   0  0  0  0  0  0  0  0  0  0  0  0
   -8.5302   -0.9976   -1.0020 H   0  0  0  0  0  0  0  0  0  0  0  0
   -7.2224   -2.2561   -1.0991 H   0  0  0  0  0  0  0  0  0  0  0  0
   -8.4230   -2.0932   -2.4145 H   0  0  0  0  0  0  0  0  0  0  0  0
   -6.1663    1.8660    0.0631 H   0  0  0  0  0  0  0  0  0  0  0  0
   -7.3950    0.5817    0.2052 H   0  0  0  0  0  0  0  0  0  0  0  0
   -7.4130    2.8159   -1.9305 H   0  0  0  0  0  0  0  0  0  0  0  0
   -8.7022    1.5690   -1.6657 H   0  0  0  0  0  0  0  0  0  0  0  0
   -8.3623    2.7967   -0.4016 H   0  0  0  0  0  0  0  0  0  0  0  0
   -6.1659   -1.2692    0.8867 H   0  0  0  0  0  0  0  0  0  0  0  0
   -4.0486    2.6409   -4.5194 H   0  0  0  0  0  0  0  0  0  0  0  0
    1.5912    2.8161   -7.3000 H   0  0  0  0  0  0  0  0  0  0  0  0
   -3.9300    2.8484   -6.8103 H   0  0  0  0  0  0  0  0  0  0  0  0
   -3.3114    3.9780   -9.0439 H   0  0  0  0  0  0  0  0  0  0  0  0
  1  2  1  0
  2  3  1  0
  3  4  2  0
  4  5  1  0
  5  6  1  0
  6  7  2  0
  7  8  1  0
  8  9  2  0
  7 10  1  0
 10 11  1  0
 11 12  1  0
 12 13  1  0
 13 14  2  0
 14 15  1  0
 15 16  1  0
 16 17  1  0
 17 18  1  0
 16 19  1  0
 19 20  1  0
 16 21  1  0
 21 22  1  0
 14 23  1  0
 23 24  2  0
 24 25  1  0
 24 26  1  0
 26 27  1  0
 27 28  1  0
 28 29  2  0
 29 30  1  0
 30 31  1  0
 31 32  2  0
 32 33  1  0
 33 34  2  0
 32 35  1  0
 35 36  1  0
 36 37  1  0
 37 38  2  0
 38 39  1  0
 39 40  1  0
 40 41  2  0
 41 42  1  0
 42 43  2  0
 41 44  1  0
 44 45  1  0
 45 46  1  0
 46 47  1  0
 47 48  2  0
 48 49  1  0
 49 50  1  0
 50 51  1  0
 51 52  1  0
 50 53  1  0
 53 54  1  0
 50 55  1  0
 55 56  1  0
 48 57  1  0
 57 58  2  0
 58 59  1  0
 58 60  1  0
 60 61  1  0
 61 62  1  0
 62 63  2  0
 63 64  1  0
 64 65  1  0
 65 66  2  0
 66 67  1  0
 67 68  2  0
  5  1  2  0
 22 10  2  0
 30 26  2  0
 39 35  2  0
 56 44  2  0
 64 60  2  0
  8  4  1  0
 21 12  2  0
 33 29  1  0
 42 38  1  0
 55 46  2  0
 67 63  1  0
 25 13  1  0
 59 47  1  0
  1 69  1  0
  3 70  1  0
  6 71  1  0
 17 72  1  0
 17 73  1  0
 18 74  1  0
 18 75  1  0
 18 76  1  0
 19 77  1  0
 19 78  1  0
 20 79  1  0
 20 80  1  0
 20 81  1  0
 22 82  1  0
 23 83  1  0
 28 84  1  0
 31 85  1  0
 37 86  1  0
 40 87  1  0
 51 88  1  0
 51 89  1  0
 52 90  1  0
 52 91  1  0
 52 92  1  0
 53 93  1  0
 53 94  1  0
 54 95  1  0
 54 96  1  0
 54 97  1  0
 56 98  1  0
 57 99  1  0
 62100  1  0
 65101  1  0
 66102  1  0
M  END

