
     RDKit          3D

198219  0  0  0  0  0  0  0  0999 V2000
   12.7762  -10.8309    6.3721 C   0  0  0  0  0  0  0  0  0  0  0  0
   11.4820  -10.4242    7.3752 S   0  0  0  0  0  0  0  0  0  0  0  0
   10.6037   -9.6485    6.1749 C   0  0  0  0  0  0  0  0  0  0  0  0
    9.3095   -9.0073    6.2614 C   0  0  0  0  0  0  0  0  0  0  0  0
    8.7739   -8.4154    5.1436 C   0  0  0  0  0  0  0  0  0  0  0  0
    9.4392   -8.4348    3.9101 O   0  0  0  0  0  0  0  0  0  0  0  0
   10.7237   -9.0691    3.6862 C   0  0  0  0  0  0  0  0  0  0  0  0
   10.5386  -10.1762    2.6168 C   0  0  0  0  0  0  0  0  0  0  0  0
    9.6041  -11.3017    3.0709 C   0  0  0  0  0  0  0  0  0  0  0  0
   11.7138   -7.9813    3.1952 C   0  0  0  0  0  0  0  0  0  0  0  0
   11.2050   -7.1619    2.0035 C   0  0  0  0  0  0  0  0  0  0  0  0
   11.2938   -9.6855    4.9749 C   0  0  0  0  0  0  0  0  0  0  0  0
   12.5213  -10.3591    5.0865 C   0  0  0  0  0  0  0  0  0  0  0  0
    7.5375   -7.8126    5.3678 C   0  0  0  0  0  0  0  0  0  0  0  0
    7.1172   -7.9578    6.6872 C   0  0  0  0  0  0  0  0  0  0  0  0
    8.2698   -8.8223    7.5733 S   0  0  0  0  0  0  0  0  0  0  0  0
    5.8833   -7.3884    7.2202 C   0  0  0  0  0  0  0  0  0  0  0  0
    5.5835   -5.7378    7.2681 S   0  0  0  0  0  0  0  0  0  0  0  0
    3.9308   -5.8840    7.4980 C   0  0  0  0  0  0  0  0  0  0  0  0
    2.9407   -4.8642    7.1935 C   0  0  0  0  0  0  0  0  0  0  0  0
    1.7148   -5.2622    6.7044 C   0  0  0  0  0  0  0  0  0  0  0  0
    1.3293   -6.6104    6.7476 O   0  0  0  0  0  0  0  0  0  0  0  0
    2.0705   -7.6130    7.4859 C   0  0  0  0  0  0  0  0  0  0  0  0
    1.5651   -7.5868    8.9562 C   0  0  0  0  0  0  0  0  0  0  0  0
    0.0426   -7.7112    9.0850 C   0  0  0  0  0  0  0  0  0  0  0  0
    1.8128   -8.9809    6.7810 C   0  0  0  0  0  0  0  0  0  0  0  0
    2.0474  -10.2385    7.6344 C   0  0  0  0  0  0  0  0  0  0  0  0
    3.5654   -7.2292    7.4834 C   0  0  0  0  0  0  0  0  0  0  0  0
    4.6808   -8.0794    7.3328 C   0  0  0  0  0  0  0  0  0  0  0  0
    1.0094   -4.2516    6.0467 C   0  0  0  0  0  0  0  0  0  0  0  0
    1.7196   -3.0488    6.0053 C   0  0  0  0  0  0  0  0  0  0  0  0
    3.2102   -3.2623    6.7760 S   0  0  0  0  0  0  0  0  0  0  0  0
    1.4321   -1.9283    5.1021 C   0  0  0  0  0  0  0  0  0  0  0  0
    2.0534   -0.6800    5.1441 C   0  0  0  0  0  0  0  0  0  0  0  0
    1.8359    0.0802    3.9823 C   0  0  0  0  0  0  0  0  0  0  0  0
    2.3861    1.3453    3.6973 C   0  0  0  0  0  0  0  0  0  0  0  0
    3.1798    2.0839    4.6939 C   0  0  0  0  0  0  0  0  0  0  0  0
    2.5654    2.7123    6.1264 S   0  0  0  0  0  0  0  0  0  0  0  0
    4.0256    3.3240    6.6958 C   0  0  0  0  0  0  0  0  0  0  0  0
    4.2070    3.9845    8.0281 C   0  0  0  0  0  0  0  0  0  0  0  0
    4.4719    2.9492    9.1158 C   0  0  0  0  0  0  0  0  0  0  0  0
    5.0269    3.0117    5.7776 C   0  0  0  0  0  0  0  0  0  0  0  0
    6.7231    3.4054    6.0179 Cl  0  0  0  0  0  0  0  0  0  0  0  0
    4.5508    2.3241    4.6506 C   0  0  0  0  0  0  0  0  0  0  0  0
    5.5922    1.7515    3.3554 Cl  0  0  0  0  0  0  0  0  0  0  0  0
    2.1585    1.8643    2.4106 C   0  0  0  0  0  0  0  0  0  0  0  0
    1.4124    1.1760    1.4458 C   0  0  0  0  0  0  0  0  0  0  0  0
    0.8303   -0.0716    1.7422 C   0  0  0  0  0  0  0  0  0  0  0  0
    0.0870   -0.8514    0.7361 C   0  0  0  0  0  0  0  0  0  0  0  0
    0.5782   -2.3425    0.1338 S   0  0  0  0  0  0  0  0  0  0  0  0
   -0.7629   -2.5918   -0.8477 C   0  0  0  0  0  0  0  0  0  0  0  0
   -0.9517   -3.7824   -1.7385 C   0  0  0  0  0  0  0  0  0  0  0  0
   -0.4286   -3.4968   -3.1412 C   0  0  0  0  0  0  0  0  0  0  0  0
   -1.6081   -1.4875   -0.7394 C   0  0  0  0  0  0  0  0  0  0  0  0
   -1.1357   -0.5172    0.1603 C   0  0  0  0  0  0  0  0  0  0  0  0
   -2.0248    0.9476    0.5555 Cl  0  0  0  0  0  0  0  0  0  0  0  0
   -3.1228   -1.3326   -1.6182 Cl  0  0  0  0  0  0  0  0  0  0  0  0
    1.0653   -0.5894    3.0254 C   0  0  0  0  0  0  0  0  0  0  0  0
    0.6175   -2.0920    3.6355 S   0  0  0  0  0  0  0  0  0  0  0  0
    1.3746    1.8324    0.2083 C   0  0  0  0  0  0  0  0  0  0  0  0
    2.0672    3.0371    0.2190 C   0  0  0  0  0  0  0  0  0  0  0  0
    2.7408    3.3008    1.7417 S   0  0  0  0  0  0  0  0  0  0  0  0
    2.2264    3.9039   -0.9468 C   0  0  0  0  0  0  0  0  0  0  0  0
    1.1227    5.0985   -1.3751 S   0  0  0  0  0  0  0  0  0  0  0  0
    1.6813    5.2614   -2.9488 C   0  0  0  0  0  0  0  0  0  0  0  0
    0.9868    5.8850   -4.0623 C   0  0  0  0  0  0  0  0  0  0  0  0
    1.2618    5.4581   -5.3434 C   0  0  0  0  0  0  0  0  0  0  0  0
    2.3393    4.6002   -5.6051 O   0  0  0  0  0  0  0  0  0  0  0  0
    3.2986    4.1930   -4.5990 C   0  0  0  0  0  0  0  0  0  0  0  0
    3.6816    2.7209   -4.9092 C   0  0  0  0  0  0  0  0  0  0  0  0
    2.4707    1.7805   -4.9368 C   0  0  0  0  0  0  0  0  0  0  0  0
    4.5255    5.1288   -4.7502 C   0  0  0  0  0  0  0  0  0  0  0  0
    5.6639    4.8845   -3.7540 C   0  0  0  0  0  0  0  0  0  0  0  0
    2.6998    4.3492   -3.1894 C   0  0  0  0  0  0  0  0  0  0  0  0
    3.0141    3.5892   -2.0492 C   0  0  0  0  0  0  0  0  0  0  0  0
    0.2812    5.8001   -6.2772 C   0  0  0  0  0  0  0  0  0  0  0  0
   -0.8049    6.4634   -5.7016 C   0  0  0  0  0  0  0  0  0  0  0  0
   -0.5099    6.6375   -4.0455 S   0  0  0  0  0  0  0  0  0  0  0  0
   -2.1642    6.4880   -6.2637 C   0  0  0  0  0  0  0  0  0  0  0  0
   -2.6670    5.4709   -7.0749 C   0  0  0  0  0  0  0  0  0  0  0  0
   -4.0636    5.3501   -7.0102 C   0  0  0  0  0  0  0  0  0  0  0  0
   -4.8095    4.2595   -7.4934 C   0  0  0  0  0  0  0  0  0  0  0  0
   -4.1685    3.1556   -8.2236 C   0  0  0  0  0  0  0  0  0  0  0  0
   -3.8415    3.1520   -9.8710 S   0  0  0  0  0  0  0  0  0  0  0  0
   -3.0991    1.6385   -9.8935 C   0  0  0  0  0  0  0  0  0  0  0  0
   -2.4589    1.0227  -11.0994 C   0  0  0  0  0  0  0  0  0  0  0  0
   -0.9859    1.4062  -11.1786 C   0  0  0  0  0  0  0  0  0  0  0  0
   -3.0762    1.1306   -8.5972 C   0  0  0  0  0  0  0  0  0  0  0  0
   -2.3452   -0.4111   -8.1698 Cl  0  0  0  0  0  0  0  0  0  0  0  0
   -3.6848    1.9787   -7.6612 C   0  0  0  0  0  0  0  0  0  0  0  0
   -3.7792    1.6184   -5.9421 Cl  0  0  0  0  0  0  0  0  0  0  0  0
   -6.1380    4.1567   -7.0556 C   0  0  0  0  0  0  0  0  0  0  0  0
   -6.7308    5.0984   -6.2077 C   0  0  0  0  0  0  0  0  0  0  0  0
   -6.0085    6.2367   -5.7935 C   0  0  0  0  0  0  0  0  0  0  0  0
   -6.5703    7.2417   -4.8728 C   0  0  0  0  0  0  0  0  0  0  0  0
   -7.0020    6.9584   -3.2735 S   0  0  0  0  0  0  0  0  0  0  0  0
   -7.3781    8.5623   -2.9000 C   0  0  0  0  0  0  0  0  0  0  0  0
   -7.9513    9.0487   -1.5956 C   0  0  0  0  0  0  0  0  0  0  0  0
   -7.3584    8.3107   -0.3961 C   0  0  0  0  0  0  0  0  0  0  0  0
   -7.1908    9.3355   -4.0445 C   0  0  0  0  0  0  0  0  0  0  0  0
   -6.7200    8.6003   -5.1409 C   0  0  0  0  0  0  0  0  0  0  0  0
   -6.3904    9.3120   -6.7133 Cl  0  0  0  0  0  0  0  0  0  0  0  0
   -7.5233   11.0615   -4.1195 Cl  0  0  0  0  0  0  0  0  0  0  0  0
   -4.6648    6.3148   -6.1971 C   0  0  0  0  0  0  0  0  0  0  0  0
   -3.4619    7.2768   -5.5234 S   0  0  0  0  0  0  0  0  0  0  0  0
   -8.0000    4.7043   -5.7511 C   0  0  0  0  0  0  0  0  0  0  0  0
   -8.3744    3.4392   -6.2127 C   0  0  0  0  0  0  0  0  0  0  0  0
   -7.1658    2.8418   -7.2274 S   0  0  0  0  0  0  0  0  0  0  0  0
   -9.4684    2.6133   -5.6757 C   0  0  0  0  0  0  0  0  0  0  0  0
   -9.8682    1.0736   -6.2427 S   0  0  0  0  0  0  0  0  0  0  0  0
  -10.9286    0.7292   -4.9918 C   0  0  0  0  0  0  0  0  0  0  0  0
  -11.5809   -0.5289   -4.6848 C   0  0  0  0  0  0  0  0  0  0  0  0
  -12.1540   -0.7072   -3.4513 C   0  0  0  0  0  0  0  0  0  0  0  0
  -12.1603    0.3242   -2.5004 O   0  0  0  0  0  0  0  0  0  0  0  0
  -11.8399    1.7005   -2.8210 C   0  0  0  0  0  0  0  0  0  0  0  0
  -13.1947    2.4119   -3.0678 C   0  0  0  0  0  0  0  0  0  0  0  0
  -13.1136    3.9056   -3.3935 C   0  0  0  0  0  0  0  0  0  0  0  0
  -11.1105    2.3017   -1.5896 C   0  0  0  0  0  0  0  0  0  0  0  0
   -9.8449    1.5287   -1.2107 C   0  0  0  0  0  0  0  0  0  0  0  0
  -10.9713    1.7795   -4.0897 C   0  0  0  0  0  0  0  0  0  0  0  0
  -10.1589    2.8557   -4.4874 C   0  0  0  0  0  0  0  0  0  0  0  0
  -12.6656   -1.9913   -3.2489 C   0  0  0  0  0  0  0  0  0  0  0  0
  -12.4767   -2.8195   -4.3548 C   0  0  0  0  0  0  0  0  0  0  0  0
  -11.6664   -1.9552   -5.5650 S   0  0  0  0  0  0  0  0  0  0  0  0
   13.6587  -11.3744    6.6761 H   0  0  0  0  0  0  0  0  0  0  0  0
   11.5231  -10.6160    2.3437 H   0  0  0  0  0  0  0  0  0  0  0  0
   10.1016   -9.7378    1.6949 H   0  0  0  0  0  0  0  0  0  0  0  0
    9.4735  -12.0306    2.2439 H   0  0  0  0  0  0  0  0  0  0  0  0
    8.6059  -10.8960    3.3432 H   0  0  0  0  0  0  0  0  0  0  0  0
   10.0305  -11.8406    3.9425 H   0  0  0  0  0  0  0  0  0  0  0  0
   11.9122   -7.2732    4.0291 H   0  0  0  0  0  0  0  0  0  0  0  0
   12.6846   -8.4422    2.9143 H   0  0  0  0  0  0  0  0  0  0  0  0
   11.9223   -6.3412    1.7908 H   0  0  0  0  0  0  0  0  0  0  0  0
   10.2180   -6.7058    2.2267 H   0  0  0  0  0  0  0  0  0  0  0  0
   11.1299   -7.7872    1.0913 H   0  0  0  0  0  0  0  0  0  0  0  0
   13.2053  -10.5048    4.2604 H   0  0  0  0  0  0  0  0  0  0  0  0
    6.9747   -7.2948    4.6025 H   0  0  0  0  0  0  0  0  0  0  0  0
    1.8549   -6.6205    9.4251 H   0  0  0  0  0  0  0  0  0  0  0  0
    2.0539   -8.3821    9.5566 H   0  0  0  0  0  0  0  0  0  0  0  0
   -0.3276   -8.6473    8.6219 H   0  0  0  0  0  0  0  0  0  0  0  0
   -0.2337   -7.7202   10.1593 H   0  0  0  0  0  0  0  0  0  0  0  0
   -0.4607   -6.8447    8.6049 H   0  0  0  0  0  0  0  0  0  0  0  0
    0.7589   -9.0154    6.4271 H   0  0  0  0  0  0  0  0  0  0  0  0
    2.4396   -9.0432    5.8640 H   0  0  0  0  0  0  0  0  0  0  0  0
    2.9839  -10.1836    8.2212 H   0  0  0  0  0  0  0  0  0  0  0  0
    2.0984  -11.1280    6.9718 H   0  0  0  0  0  0  0  0  0  0  0  0
    1.2061  -10.3948    8.3409 H   0  0  0  0  0  0  0  0  0  0  0  0
    4.6218   -9.1452    7.1800 H   0  0  0  0  0  0  0  0  0  0  0  0
    0.0716   -4.4205    5.5350 H   0  0  0  0  0  0  0  0  0  0  0  0
    2.6949   -0.3649    5.9583 H   0  0  0  0  0  0  0  0  0  0  0  0
    3.2875    4.5559    8.2818 H   0  0  0  0  0  0  0  0  0  0  0  0
    5.0522    4.7045    7.9867 H   0  0  0  0  0  0  0  0  0  0  0  0
    5.3973    2.3770    8.8865 H   0  0  0  0  0  0  0  0  0  0  0  0
    3.6153    2.2444    9.1921 H   0  0  0  0  0  0  0  0  0  0  0  0
    4.6028    3.4587   10.0925 H   0  0  0  0  0  0  0  0  0  0  0  0
   -0.4003   -4.6487   -1.3157 H   0  0  0  0  0  0  0  0  0  0  0  0
   -2.0275   -4.0548   -1.7869 H   0  0  0  0  0  0  0  0  0  0  0  0
    0.6457   -3.2185   -3.1010 H   0  0  0  0  0  0  0  0  0  0  0  0
   -1.0047   -2.6684   -3.6045 H   0  0  0  0  0  0  0  0  0  0  0  0
   -0.5379   -4.4038   -3.7728 H   0  0  0  0  0  0  0  0  0  0  0  0
    0.8759    1.4458   -0.6718 H   0  0  0  0  0  0  0  0  0  0  0  0
    4.4113    2.3287   -4.1726 H   0  0  0  0  0  0  0  0  0  0  0  0
    4.1713    2.6741   -5.9064 H   0  0  0  0  0  0  0  0  0  0  0  0
    1.9582    1.7638   -3.9542 H   0  0  0  0  0  0  0  0  0  0  0  0
    1.7480    2.0921   -5.7203 H   0  0  0  0  0  0  0  0  0  0  0  0
    2.8104    0.7486   -5.1697 H   0  0  0  0  0  0  0  0  0  0  0  0
    4.1890    6.1830   -4.6330 H   0  0  0  0  0  0  0  0  0  0  0  0
    4.9322    5.0337   -5.7817 H   0  0  0  0  0  0  0  0  0  0  0  0
    6.4835    5.6059   -3.9580 H   0  0  0  0  0  0  0  0  0  0  0  0
    6.0800    3.8627   -3.8615 H   0  0  0  0  0  0  0  0  0  0  0  0
    5.3232    5.0467   -2.7120 H   0  0  0  0  0  0  0  0  0  0  0  0
    3.7300    2.7798   -2.0368 H   0  0  0  0  0  0  0  0  0  0  0  0
    0.2963    5.4426   -7.2966 H   0  0  0  0  0  0  0  0  0  0  0  0
   -2.0345    4.7345   -7.5537 H   0  0  0  0  0  0  0  0  0  0  0  0
   -2.9772    1.3774  -12.0152 H   0  0  0  0  0  0  0  0  0  0  0  0
   -2.5540   -0.0831  -11.0578 H   0  0  0  0  0  0  0  0  0  0  0  0
   -0.5116    0.8785  -12.0316 H   0  0  0  0  0  0  0  0  0  0  0  0
   -0.8843    2.4992  -11.3367 H   0  0  0  0  0  0  0  0  0  0  0  0
   -0.4563    1.1225  -10.2461 H   0  0  0  0  0  0  0  0  0  0  0  0
   -9.0532    8.9114   -1.6083 H   0  0  0  0  0  0  0  0  0  0  0  0
   -7.7357   10.1295   -1.4705 H   0  0  0  0  0  0  0  0  0  0  0  0
   -6.2502    8.3652   -0.4213 H   0  0  0  0  0  0  0  0  0  0  0  0
   -7.6777    7.2481   -0.4003 H   0  0  0  0  0  0  0  0  0  0  0  0
   -7.7174    8.7789    0.5458 H   0  0  0  0  0  0  0  0  0  0  0  0
   -8.5895    5.2806   -5.0489 H   0  0  0  0  0  0  0  0  0  0  0  0
  -13.8363    2.2855   -2.1683 H   0  0  0  0  0  0  0  0  0  0  0  0
  -13.7173    1.9036   -3.9071 H   0  0  0  0  0  0  0  0  0  0  0  0
  -12.6396    4.4731   -2.5690 H   0  0  0  0  0  0  0  0  0  0  0  0
  -14.1420    4.3032   -3.5285 H   0  0  0  0  0  0  0  0  0  0  0  0
  -12.5612    4.0759   -4.3391 H   0  0  0  0  0  0  0  0  0  0  0  0
  -11.7974    2.2882   -0.7154 H   0  0  0  0  0  0  0  0  0  0  0  0
  -10.8264    3.3591   -1.7669 H   0  0  0  0  0  0  0  0  0  0  0  0
   -9.1188    1.5183   -2.0520 H   0  0  0  0  0  0  0  0  0  0  0  0
  -10.0947    0.4834   -0.9316 H   0  0  0  0  0  0  0  0  0  0  0  0
   -9.3604    2.0150   -0.3380 H   0  0  0  0  0  0  0  0  0  0  0  0
  -10.0347    3.7558   -3.9040 H   0  0  0  0  0  0  0  0  0  0  0  0
  -13.1453   -2.3106   -2.3338 H   0  0  0  0  0  0  0  0  0  0  0  0
  -12.7898   -3.8538   -4.4230 H   0  0  0  0  0  0  0  0  0  0  0  0
  1  2  1  0
  2  3  1  0
  3  4  1  0
  4  5  2  0
  5  6  1  0
  6  7  1  0
  7  8  1  0
  8  9  1  0
  7 10  1  0
 10 11  1  0
  7 12  1  0
 12 13  1  0
  5 14  1  0
 14 15  2  0
 15 16  1  0
 15 17  1  0
 17 18  1  0
 18 19  1  0
 19 20  1  0
 20 21  2  0
 21 22  1  0
 22 23  1  0
 23 24  1  0
 24 25  1  0
 23 26  1  0
 26 27  1  0
 23 28  1  0
 28 29  1  0
 21 30  1  0
 30 31  2  0
 31 32  1  0
 31 33  1  0
 33 34  2  0
 34 35  1  0
 35 36  2  0
 36 37  1  0
 37 38  1  0
 38 39  1  0
 39 40  1  0
 40 41  1  0
 39 42  2  0
 42 43  1  0
 42 44  1  0
 44 45  1  0
 36 46  1  0
 46 47  2  0
 47 48  1  0
 48 49  1  0
 49 50  1  0
 50 51  1  0
 51 52  1  0
 52 53  1  0
 51 54  2  0
 54 55  1  0
 55 56  1  0
 54 57  1  0
 48 58  2  0
 58 59  1  0
 47 60  1  0
 60 61  2  0
 61 62  1  0
 61 63  1  0
 63 64  1  0
 64 65  1  0
 65 66  1  0
 66 67  2  0
 67 68  1  0
 68 69  1  0
 69 70  1  0
 70 71  1  0
 69 72  1  0
 72 73  1  0
 69 74  1  0
 74 75  1  0
 67 76  1  0
 76 77  2  0
 77 78  1  0
 77 79  1  0
 79 80  2  0
 80 81  1  0
 81 82  2  0
 82 83  1  0
 83 84  1  0
 84 85  1  0
 85 86  1  0
 86 87  1  0
 85 88  2  0
 88 89  1  0
 88 90  1  0
 90 91  1  0
 82 92  1  0
 92 93  2  0
 93 94  1  0
 94 95  1  0
 95 96  1  0
 96 97  1  0
 97 98  1  0
 98 99  1  0
 97100  2  0
100101  1  0
101102  1  0
100103  1  0
 94104  2  0
104105  1  0
 93106  1  0
106107  2  0
107108  1  0
107109  1  0
109110  1  0
110111  1  0
111112  1  0
112113  2  0
113114  1  0
114115  1  0
115116  1  0
116117  1  0
115118  1  0
118119  1  0
115120  1  0
120121  1  0
113122  1  0
122123  2  0
123124  1  0
 13  1  2  0
 29 17  2  0
 59 33  1  0
 75 63  2  0
105 79  1  0
121109  2  0
 12  3  2  0
 28 19  2  0
 58 35  1  0
 74 65  2  0
104 81  1  0
120111  2  0
 16  4  1  0
 32 20  1  0
 44 37  2  0
 62 46  1  0
 78 66  1  0
 90 83  2  0
108 92  1  0
124112  1  0
 55 49  2  0
101 95  2  0
  1125  1  0
  8126  1  0
  8127  1  0
  9128  1  0
  9129  1  0
  9130  1  0
 10131  1  0
 10132  1  0
 11133  1  0
 11134  1  0
 11135  1  0
 13136  1  0
 14137  1  0
 24138  1  0
 24139  1  0
 25140  1  0
 25141  1  0
 25142  1  0
 26143  1  0
 26144  1  0
 27145  1  0
 27146  1  0
 27147  1  0
 29148  1  0
 30149  1  0
 34150  1  0
 40151  1  0
 40152  1  0
 41153  1  0
 41154  1  0
 41155  1  0
 52156  1  0
 52157  1  0
 53158  1  0
 53159  1  0
 53160  1  0
 60161  1  0
 70162  1  0
 70163  1  0
 71164  1  0
 71165  1  0
 71166  1  0
 72167  1  0
 72168  1  0
 73169  1  0
 73170  1  0
 73171  1  0
 75172  1  0
 76173  1  0
 80174  1  0
 86175  1  0
 86176  1  0
 87177  1  0
 87178  1  0
 87179  1  0
 98180  1  0
 98181  1  0
 99182  1  0
 99183  1  0
 99184  1  0
106185  1  0
116186  1  0
116187  1  0
117188  1  0
117189  1  0
117190  1  0
118191  1  0
118192  1  0
119193  1  0
119194  1  0
119195  1  0
121196  1  0
122197  1  0
123198  1  0
M  END

