
     RDKit          3D

212235  0  0  0  0  0  0  0  0999 V2000
    5.0116   -4.1686   12.7117 C   0  0  0  0  0  0  0  0  0  0  0  0
    4.0100   -5.1980   11.8268 S   0  0  0  0  0  0  0  0  0  0  0  0
    3.4893   -4.0118   10.7609 C   0  0  0  0  0  0  0  0  0  0  0  0
    2.5606   -4.1256    9.6599 C   0  0  0  0  0  0  0  0  0  0  0  0
    2.2684   -3.0189    8.9020 C   0  0  0  0  0  0  0  0  0  0  0  0
    2.8642   -1.7762    9.1609 O   0  0  0  0  0  0  0  0  0  0  0  0
    3.7840   -1.5245   10.2535 C   0  0  0  0  0  0  0  0  0  0  0  0
    5.1038   -0.9666    9.6564 C   0  0  0  0  0  0  0  0  0  0  0  0
    5.8112   -1.9616    8.7307 C   0  0  0  0  0  0  0  0  0  0  0  0
    3.1236   -0.4936   11.2061 C   0  0  0  0  0  0  0  0  0  0  0  0
    2.6741    0.7989   10.5160 C   0  0  0  0  0  0  0  0  0  0  0  0
    4.0775   -2.7961   11.0651 C   0  0  0  0  0  0  0  0  0  0  0  0
    4.9380   -2.8855   12.1736 C   0  0  0  0  0  0  0  0  0  0  0  0
    1.3559   -3.2657    7.8787 C   0  0  0  0  0  0  0  0  0  0  0  0
    0.9406   -4.5988    7.8468 C   0  0  0  0  0  0  0  0  0  0  0  0
    1.7119   -5.4561    9.0894 S   0  0  0  0  0  0  0  0  0  0  0  0
   -0.0077   -5.1707    6.8772 C   0  0  0  0  0  0  0  0  0  0  0  0
   -0.9242   -4.2678    5.7805 S   0  0  0  0  0  0  0  0  0  0  0  0
   -1.6564   -5.6049    5.0855 C   0  0  0  0  0  0  0  0  0  0  0  0
   -2.5580   -5.6505    3.9566 C   0  0  0  0  0  0  0  0  0  0  0  0
   -2.8459   -6.8565    3.3675 C   0  0  0  0  0  0  0  0  0  0  0  0
   -2.3649   -8.0588    3.9138 O   0  0  0  0  0  0  0  0  0  0  0  0
   -1.7050   -8.1471    5.2078 C   0  0  0  0  0  0  0  0  0  0  0  0
   -2.7499   -8.5826    6.2730 C   0  0  0  0  0  0  0  0  0  0  0  0
   -3.3702   -9.9565    6.0419 C   0  0  0  0  0  0  0  0  0  0  0  0
   -0.5033   -9.1373    5.1120 C   0  0  0  0  0  0  0  0  0  0  0  0
   -0.6486  -10.2196    4.0351 C   0  0  0  0  0  0  0  0  0  0  0  0
   -1.1804   -6.7724    5.6513 C   0  0  0  0  0  0  0  0  0  0  0  0
   -0.2685   -6.5281    6.6939 C   0  0  0  0  0  0  0  0  0  0  0  0
   -3.5822   -6.7373    2.1819 C   0  0  0  0  0  0  0  0  0  0  0  0
   -3.8749   -5.4044    1.8758 C   0  0  0  0  0  0  0  0  0  0  0  0
   -3.1991   -4.3950    3.0560 S   0  0  0  0  0  0  0  0  0  0  0  0
   -4.4860   -4.9022    0.6385 C   0  0  0  0  0  0  0  0  0  0  0  0
   -4.9534   -3.6024    0.4727 C   0  0  0  0  0  0  0  0  0  0  0  0
   -5.1951   -3.2685   -0.8658 C   0  0  0  0  0  0  0  0  0  0  0  0
   -5.5886   -2.0033   -1.3485 C   0  0  0  0  0  0  0  0  0  0  0  0
   -5.7755   -0.8490   -0.4497 C   0  0  0  0  0  0  0  0  0  0  0  0
   -7.2056    0.0237   -0.2929 S   0  0  0  0  0  0  0  0  0  0  0  0
   -6.6405    1.0931    0.8764 C   0  0  0  0  0  0  0  0  0  0  0  0
   -7.4313    2.2394    1.4357 C   0  0  0  0  0  0  0  0  0  0  0  0
   -7.1711    3.5170    0.6434 C   0  0  0  0  0  0  0  0  0  0  0  0
   -5.3071    0.7954    1.1493 C   0  0  0  0  0  0  0  0  0  0  0  0
   -4.3205    1.7022    2.2896 Cl  0  0  0  0  0  0  0  0  0  0  0  0
   -4.8176   -0.2862    0.3985 C   0  0  0  0  0  0  0  0  0  0  0  0
   -3.1334   -0.7996    0.4445 Cl  0  0  0  0  0  0  0  0  0  0  0  0
   -5.6987   -1.8651   -2.7425 C   0  0  0  0  0  0  0  0  0  0  0  0
   -5.4016   -2.9029   -3.6332 C   0  0  0  0  0  0  0  0  0  0  0  0
   -5.0502   -4.1800   -3.1471 C   0  0  0  0  0  0  0  0  0  0  0  0
   -4.7528   -5.3033   -4.0569 C   0  0  0  0  0  0  0  0  0  0  0  0
   -3.3013   -6.1544   -4.1021 S   0  0  0  0  0  0  0  0  0  0  0  0
   -3.7564   -7.2169   -5.3247 C   0  0  0  0  0  0  0  0  0  0  0  0
   -2.9206   -8.3613   -5.8132 C   0  0  0  0  0  0  0  0  0  0  0  0
   -3.1685   -9.6060   -4.9669 C   0  0  0  0  0  0  0  0  0  0  0  0
   -5.0710   -6.9335   -5.6963 C   0  0  0  0  0  0  0  0  0  0  0  0
   -5.6277   -5.8540   -4.9937 C   0  0  0  0  0  0  0  0  0  0  0  0
   -7.2874   -5.3144   -5.2146 Cl  0  0  0  0  0  0  0  0  0  0  0  0
   -5.9591   -7.8547   -6.9012 Cl  0  0  0  0  0  0  0  0  0  0  0  0
   -4.9474   -4.3252   -1.7496 C   0  0  0  0  0  0  0  0  0  0  0  0
   -4.4195   -5.6641   -0.8693 S   0  0  0  0  0  0  0  0  0  0  0  0
   -5.3471   -2.4783   -4.9751 C   0  0  0  0  0  0  0  0  0  0  0  0
   -5.6312   -1.1196   -5.1329 C   0  0  0  0  0  0  0  0  0  0  0  0
   -5.9315   -0.4508   -3.6126 S   0  0  0  0  0  0  0  0  0  0  0  0
   -5.2630   -0.3000   -6.2991 C   0  0  0  0  0  0  0  0  0  0  0  0
   -4.1011   -0.5118   -7.0403 C   0  0  0  0  0  0  0  0  0  0  0  0
   -3.5760    0.6679   -7.6039 C   0  0  0  0  0  0  0  0  0  0  0  0
   -2.2627    0.8128   -8.1082 C   0  0  0  0  0  0  0  0  0  0  0  0
   -1.4361   -0.3660   -8.4544 C   0  0  0  0  0  0  0  0  0  0  0  0
    0.0909   -0.7287   -7.8418 S   0  0  0  0  0  0  0  0  0  0  0  0
    0.3251   -2.1322   -8.7369 C   0  0  0  0  0  0  0  0  0  0  0  0
    1.5871   -2.9427   -8.7381 C   0  0  0  0  0  0  0  0  0  0  0  0
    2.5241   -2.4910   -9.8538 C   0  0  0  0  0  0  0  0  0  0  0  0
   -0.7893   -2.3335   -9.5494 C   0  0  0  0  0  0  0  0  0  0  0  0
   -0.9362   -3.6677  -10.6876 Cl  0  0  0  0  0  0  0  0  0  0  0  0
   -1.7785   -1.3513   -9.3854 C   0  0  0  0  0  0  0  0  0  0  0  0
   -3.2656   -1.3210  -10.3263 Cl  0  0  0  0  0  0  0  0  0  0  0  0
   -1.7490    2.1246   -8.1444 C   0  0  0  0  0  0  0  0  0  0  0  0
   -2.5292    3.2432   -7.8345 C   0  0  0  0  0  0  0  0  0  0  0  0
   -3.8911    3.1004   -7.5179 C   0  0  0  0  0  0  0  0  0  0  0  0
   -4.6955    4.2620   -7.1026 C   0  0  0  0  0  0  0  0  0  0  0  0
   -5.3817    5.3723   -8.1575 S   0  0  0  0  0  0  0  0  0  0  0  0
   -5.9305    6.4343   -6.9702 C   0  0  0  0  0  0  0  0  0  0  0  0
   -6.6323    7.7329   -7.2467 C   0  0  0  0  0  0  0  0  0  0  0  0
   -7.8983    7.5098   -8.0667 C   0  0  0  0  0  0  0  0  0  0  0  0
   -5.5495    5.9368   -5.7219 C   0  0  0  0  0  0  0  0  0  0  0  0
   -4.8547    4.7195   -5.7998 C   0  0  0  0  0  0  0  0  0  0  0  0
   -4.1707    3.9012   -4.4087 Cl  0  0  0  0  0  0  0  0  0  0  0  0
   -5.8563    6.7621   -4.1994 Cl  0  0  0  0  0  0  0  0  0  0  0  0
   -4.3661    1.7920   -7.3478 C   0  0  0  0  0  0  0  0  0  0  0  0
   -5.6895    1.3252   -6.4289 S   0  0  0  0  0  0  0  0  0  0  0  0
   -1.7723    4.4004   -7.5901 C   0  0  0  0  0  0  0  0  0  0  0  0
   -0.3940    4.1820   -7.6010 C   0  0  0  0  0  0  0  0  0  0  0  0
   -0.1323    2.5866   -8.0815 S   0  0  0  0  0  0  0  0  0  0  0  0
    0.4702    4.7874   -6.5734 C   0  0  0  0  0  0  0  0  0  0  0  0
    0.0312    4.9399   -5.2565 C   0  0  0  0  0  0  0  0  0  0  0  0
    1.0676    4.9573   -4.3169 C   0  0  0  0  0  0  0  0  0  0  0  0
    0.8993    4.8422   -2.9233 C   0  0  0  0  0  0  0  0  0  0  0  0
   -0.4363    4.8265   -2.3092 C   0  0  0  0  0  0  0  0  0  0  0  0
   -1.3564    6.1942   -1.9844 S   0  0  0  0  0  0  0  0  0  0  0  0
   -2.7168    5.3679   -1.4345 C   0  0  0  0  0  0  0  0  0  0  0  0
   -3.9667    6.0220   -0.9259 C   0  0  0  0  0  0  0  0  0  0  0  0
   -3.9974    6.0232    0.5989 C   0  0  0  0  0  0  0  0  0  0  0  0
   -2.4615    3.9982   -1.5012 C   0  0  0  0  0  0  0  0  0  0  0  0
   -3.6394    2.7682   -1.0695 Cl  0  0  0  0  0  0  0  0  0  0  0  0
   -1.1843    3.6946   -1.9954 C   0  0  0  0  0  0  0  0  0  0  0  0
   -0.6038    2.0533   -2.2438 Cl  0  0  0  0  0  0  0  0  0  0  0  0
    2.0536    4.6267   -2.1607 C   0  0  0  0  0  0  0  0  0  0  0  0
    3.3340    4.5895   -2.7275 C   0  0  0  0  0  0  0  0  0  0  0  0
    3.5063    4.7482   -4.1213 C   0  0  0  0  0  0  0  0  0  0  0  0
    4.8352    4.7221   -4.7594 C   0  0  0  0  0  0  0  0  0  0  0  0
    5.9456    3.4621   -4.6517 S   0  0  0  0  0  0  0  0  0  0  0  0
    7.1640    4.2214   -5.5290 C   0  0  0  0  0  0  0  0  0  0  0  0
    8.5479    3.6794   -5.7050 C   0  0  0  0  0  0  0  0  0  0  0  0
    9.4463    4.1153   -4.5515 C   0  0  0  0  0  0  0  0  0  0  0  0
    6.7181    5.4884   -5.9093 C   0  0  0  0  0  0  0  0  0  0  0  0
    5.4115    5.7629   -5.4829 C   0  0  0  0  0  0  0  0  0  0  0  0
    4.6137    7.3075   -5.7606 Cl  0  0  0  0  0  0  0  0  0  0  0  0
    7.7117    6.6466   -6.7804 Cl  0  0  0  0  0  0  0  0  0  0  0  0
    2.3373    4.8879   -4.8928 C   0  0  0  0  0  0  0  0  0  0  0  0
    2.1612    4.7173   -6.5625 S   0  0  0  0  0  0  0  0  0  0  0  0
    4.3373    4.3084   -1.7835 C   0  0  0  0  0  0  0  0  0  0  0  0
    3.8334    4.0609   -0.5064 C   0  0  0  0  0  0  0  0  0  0  0  0
    2.1556    4.2506   -0.5256 S   0  0  0  0  0  0  0  0  0  0  0  0
    4.6108    3.5315    0.6248 C   0  0  0  0  0  0  0  0  0  0  0  0
    6.2955    3.5296    0.7224 S   0  0  0  0  0  0  0  0  0  0  0  0
    6.3521    2.6305    2.1359 C   0  0  0  0  0  0  0  0  0  0  0  0
    7.5106    2.2311    2.9103 C   0  0  0  0  0  0  0  0  0  0  0  0
    7.3295    1.6075    4.1207 C   0  0  0  0  0  0  0  0  0  0  0  0
    6.0414    1.3130    4.5929 O   0  0  0  0  0  0  0  0  0  0  0  0
    4.8623    1.3444    3.7485 C   0  0  0  0  0  0  0  0  0  0  0  0
    4.6579   -0.1039    3.2187 C   0  0  0  0  0  0  0  0  0  0  0  0
    3.3932   -0.3438    2.3866 C   0  0  0  0  0  0  0  0  0  0  0  0
    3.6810    1.8408    4.6290 C   0  0  0  0  0  0  0  0  0  0  0  0
    3.4275    0.9751    5.8690 C   0  0  0  0  0  0  0  0  0  0  0  0
    5.0756    2.3042    2.5625 C   0  0  0  0  0  0  0  0  0  0  0  0
    4.0847    2.8224    1.7060 C   0  0  0  0  0  0  0  0  0  0  0  0
    8.5171    1.3625    4.8104 C   0  0  0  0  0  0  0  0  0  0  0  0
    9.6417    1.8065    4.1125 C   0  0  0  0  0  0  0  0  0  0  0  0
    9.1463    2.5098    2.6541 S   0  0  0  0  0  0  0  0  0  0  0  0
    5.6149   -4.4562   13.5636 H   0  0  0  0  0  0  0  0  0  0  0  0
    5.8038   -0.6765   10.4712 H   0  0  0  0  0  0  0  0  0  0  0  0
    4.8862   -0.0559    9.0594 H   0  0  0  0  0  0  0  0  0  0  0  0
    5.1439   -2.2579    7.8962 H   0  0  0  0  0  0  0  0  0  0  0  0
    6.7150   -1.4807    8.3009 H   0  0  0  0  0  0  0  0  0  0  0  0
    6.1309   -2.8648    9.2905 H   0  0  0  0  0  0  0  0  0  0  0  0
    2.2277   -0.9634   11.6684 H   0  0  0  0  0  0  0  0  0  0  0  0
    3.8229   -0.2277   12.0288 H   0  0  0  0  0  0  0  0  0  0  0  0
    3.5474    1.4105   10.2096 H   0  0  0  0  0  0  0  0  0  0  0  0
    2.0677    1.4010   11.2254 H   0  0  0  0  0  0  0  0  0  0  0  0
    2.0468    0.5785    9.6287 H   0  0  0  0  0  0  0  0  0  0  0  0
    5.4865   -2.0475   12.5797 H   0  0  0  0  0  0  0  0  0  0  0  0
    1.0225   -2.5063    7.1831 H   0  0  0  0  0  0  0  0  0  0  0  0
   -3.5736   -7.8369    6.2878 H   0  0  0  0  0  0  0  0  0  0  0  0
   -2.2862   -8.5766    7.2837 H   0  0  0  0  0  0  0  0  0  0  0  0
   -2.6267  -10.7560    6.2386 H   0  0  0  0  0  0  0  0  0  0  0  0
   -3.7646  -10.0441    5.0075 H   0  0  0  0  0  0  0  0  0  0  0  0
   -4.2148  -10.0988    6.7502 H   0  0  0  0  0  0  0  0  0  0  0  0
    0.4282   -8.5808    4.8660 H   0  0  0  0  0  0  0  0  0  0  0  0
   -0.3304   -9.6289    6.0929 H   0  0  0  0  0  0  0  0  0  0  0  0
   -1.5905  -10.7918    4.1488 H   0  0  0  0  0  0  0  0  0  0  0  0
   -0.6225   -9.7609    3.0248 H   0  0  0  0  0  0  0  0  0  0  0  0
    0.2013  -10.9299    4.1106 H   0  0  0  0  0  0  0  0  0  0  0  0
    0.1978   -7.3113    7.2735 H   0  0  0  0  0  0  0  0  0  0  0  0
   -3.8606   -7.5809    1.5612 H   0  0  0  0  0  0  0  0  0  0  0  0
   -5.0597   -2.9063    1.2955 H   0  0  0  0  0  0  0  0  0  0  0  0
   -8.5144    1.9957    1.3892 H   0  0  0  0  0  0  0  0  0  0  0  0
   -7.1636    2.4027    2.5017 H   0  0  0  0  0  0  0  0  0  0  0  0
   -7.7926    4.3405    1.0524 H   0  0  0  0  0  0  0  0  0  0  0  0
   -7.4326    3.3695   -0.4250 H   0  0  0  0  0  0  0  0  0  0  0  0
   -6.1044    3.8054    0.7205 H   0  0  0  0  0  0  0  0  0  0  0  0
   -3.1596   -8.5756   -6.8764 H   0  0  0  0  0  0  0  0  0  0  0  0
   -1.8454   -8.0852   -5.7559 H   0  0  0  0  0  0  0  0  0  0  0  0
   -2.6146  -10.4625   -5.4038 H   0  0  0  0  0  0  0  0  0  0  0  0
   -4.2492   -9.8545   -4.9480 H   0  0  0  0  0  0  0  0  0  0  0  0
   -2.8067   -9.4371   -3.9329 H   0  0  0  0  0  0  0  0  0  0  0  0
   -5.0228   -3.1110   -5.7907 H   0  0  0  0  0  0  0  0  0  0  0  0
   -3.5452   -1.4388   -7.0019 H   0  0  0  0  0  0  0  0  0  0  0  0
    1.3420   -4.0180   -8.8754 H   0  0  0  0  0  0  0  0  0  0  0  0
    2.1034   -2.8306   -7.7594 H   0  0  0  0  0  0  0  0  0  0  0  0
    3.4134   -3.1588   -9.8836 H   0  0  0  0  0  0  0  0  0  0  0  0
    2.8738   -1.4550   -9.6617 H   0  0  0  0  0  0  0  0  0  0  0  0
    2.0116   -2.5354  -10.8410 H   0  0  0  0  0  0  0  0  0  0  0  0
   -5.9423    8.4027   -7.8017 H   0  0  0  0  0  0  0  0  0  0  0  0
   -6.9094    8.2384   -6.2977 H   0  0  0  0  0  0  0  0  0  0  0  0
   -8.4250    8.4764   -8.2026 H   0  0  0  0  0  0  0  0  0  0  0  0
   -7.6410    7.1048   -9.0669 H   0  0  0  0  0  0  0  0  0  0  0  0
   -8.5753    6.8008   -7.5446 H   0  0  0  0  0  0  0  0  0  0  0  0
   -2.2036    5.3033   -7.1783 H   0  0  0  0  0  0  0  0  0  0  0  0
   -1.0131    4.8650   -4.9755 H   0  0  0  0  0  0  0  0  0  0  0  0
   -4.0049    7.0716   -1.2859 H   0  0  0  0  0  0  0  0  0  0  0  0
   -4.8584    5.4938   -1.3203 H   0  0  0  0  0  0  0  0  0  0  0  0
   -3.9577    4.9858    0.9902 H   0  0  0  0  0  0  0  0  0  0  0  0
   -4.9357    6.4957    0.9528 H   0  0  0  0  0  0  0  0  0  0  0  0
   -3.1347    6.5971    0.9967 H   0  0  0  0  0  0  0  0  0  0  0  0
    8.5074    2.5702   -5.7369 H   0  0  0  0  0  0  0  0  0  0  0  0
    8.9739    4.0361   -6.6664 H   0  0  0  0  0  0  0  0  0  0  0  0
   10.4780    3.7437   -4.7217 H   0  0  0  0  0  0  0  0  0  0  0  0
    9.4746    5.2227   -4.4777 H   0  0  0  0  0  0  0  0  0  0  0  0
    9.0708    3.6947   -3.5954 H   0  0  0  0  0  0  0  0  0  0  0  0
    5.3868    4.2193   -2.0236 H   0  0  0  0  0  0  0  0  0  0  0  0
    5.5352   -0.3832    2.5944 H   0  0  0  0  0  0  0  0  0  0  0  0
    4.6542   -0.8121    4.0739 H   0  0  0  0  0  0  0  0  0  0  0  0
    3.4192    0.2346    1.4412 H   0  0  0  0  0  0  0  0  0  0  0  0
    2.4788   -0.0919    2.9618 H   0  0  0  0  0  0  0  0  0  0  0  0
    3.3343   -1.4194    2.1215 H   0  0  0  0  0  0  0  0  0  0  0  0
    3.9078    2.8740    4.9742 H   0  0  0  0  0  0  0  0  0  0  0  0
    2.7404    1.9031    4.0437 H   0  0  0  0  0  0  0  0  0  0  0  0
    2.6426    1.4503    6.4991 H   0  0  0  0  0  0  0  0  0  0  0  0
    4.3489    0.8766    6.4798 H   0  0  0  0  0  0  0  0  0  0  0  0
    3.0644   -0.0332    5.5802 H   0  0  0  0  0  0  0  0  0  0  0  0
    3.0291    2.6390    1.8331 H   0  0  0  0  0  0  0  0  0  0  0  0
    8.5621    0.8898    5.7816 H   0  0  0  0  0  0  0  0  0  0  0  0
   10.6636    1.7286    4.4605 H   0  0  0  0  0  0  0  0  0  0  0  0
  1  2  1  0
  2  3  1  0
  3  4  1  0
  4  5  2  0
  5  6  1  0
  6  7  1  0
  7  8  1  0
  8  9  1  0
  7 10  1  0
 10 11  1  0
  7 12  1  0
 12 13  1  0
  5 14  1  0
 14 15  2  0
 15 16  1  0
 15 17  1  0
 17 18  1  0
 18 19  1  0
 19 20  1  0
 20 21  2  0
 21 22  1  0
 22 23  1  0
 23 24  1  0
 24 25  1  0
 23 26  1  0
 26 27  1  0
 23 28  1  0
 28 29  1  0
 21 30  1  0
 30 31  2  0
 31 32  1  0
 31 33  1  0
 33 34  2  0
 34 35  1  0
 35 36  2  0
 36 37  1  0
 37 38  1  0
 38 39  1  0
 39 40  1  0
 40 41  1  0
 39 42  2  0
 42 43  1  0
 42 44  1  0
 44 45  1  0
 36 46  1  0
 46 47  2  0
 47 48  1  0
 48 49  1  0
 49 50  1  0
 50 51  1  0
 51 52  1  0
 52 53  1  0
 51 54  2  0
 54 55  1  0
 55 56  1  0
 54 57  1  0
 48 58  2  0
 58 59  1  0
 47 60  1  0
 60 61  2  0
 61 62  1  0
 61 63  1  0
 63 64  2  0
 64 65  1  0
 65 66  2  0
 66 67  1  0
 67 68  1  0
 68 69  1  0
 69 70  1  0
 70 71  1  0
 69 72  2  0
 72 73  1  0
 72 74  1  0
 74 75  1  0
 66 76  1  0
 76 77  2  0
 77 78  1  0
 78 79  1  0
 79 80  1  0
 80 81  1  0
 81 82  1  0
 82 83  1  0
 81 84  2  0
 84 85  1  0
 85 86  1  0
 84 87  1  0
 78 88  2  0
 88 89  1  0
 77 90  1  0
 90 91  2  0
 91 92  1  0
 91 93  1  0
 93 94  2  0
 94 95  1  0
 95 96  2  0
 96 97  1  0
 97 98  1  0
 98 99  1  0
 99100  1  0
100101  1  0
 99102  2  0
102103  1  0
102104  1  0
104105  1  0
 96106  1  0
106107  2  0
107108  1  0
108109  1  0
109110  1  0
110111  1  0
111112  1  0
112113  1  0
111114  2  0
114115  1  0
115116  1  0
114117  1  0
108118  2  0
118119  1  0
107120  1  0
120121  2  0
121122  1  0
121123  1  0
123124  1  0
124125  1  0
125126  1  0
126127  2  0
127128  1  0
128129  1  0
129130  1  0
130131  1  0
129132  1  0
132133  1  0
129134  1  0
134135  1  0
127136  1  0
136137  2  0
137138  1  0
 13  1  2  0
 29 17  2  0
 59 33  1  0
 89 63  1  0
119 93  1  0
135123  2  0
 12  3  2  0
 28 19  2  0
 58 35  1  0
 88 65  1  0
118 95  1  0
134125  2  0
 16  4  1  0
 32 20  1  0
 44 37  2  0
 62 46  1  0
 74 67  2  0
 92 76  1  0
104 97  2  0
122106  1  0
138126  1  0
 55 49  2  0
 85 79  2  0
115109  2  0
  1139  1  0
  8140  1  0
  8141  1  0
  9142  1  0
  9143  1  0
  9144  1  0
 10145  1  0
 10146  1  0
 11147  1  0
 11148  1  0
 11149  1  0
 13150  1  0
 14151  1  0
 24152  1  0
 24153  1  0
 25154  1  0
 25155  1  0
 25156  1  0
 26157  1  0
 26158  1  0
 27159  1  0
 27160  1  0
 27161  1  0
 29162  1  0
 30163  1  0
 34164  1  0
 40165  1  0
 40166  1  0
 41167  1  0
 41168  1  0
 41169  1  0
 52170  1  0
 52171  1  0
 53172  1  0
 53173  1  0
 53174  1  0
 60175  1  0
 64176  1  0
 70177  1  0
 70178  1  0
 71179  1  0
 71180  1  0
 71181  1  0
 82182  1  0
 82183  1  0
 83184  1  0
 83185  1  0
 83186  1  0
 90187  1  0
 94188  1  0
100189  1  0
100190  1  0
101191  1  0
101192  1  0
101193  1  0
112194  1  0
112195  1  0
113196  1  0
113197  1  0
113198  1  0
120199  1  0
130200  1  0
130201  1  0
131202  1  0
131203  1  0
131204  1  0
132205  1  0
132206  1  0
133207  1  0
133208  1  0
133209  1  0
135210  1  0
136211  1  0
137212  1  0
M  END

