
     RDKit          3D

100112  0  0  0  0  0  0  0  0999 V2000
    5.1594    6.6756    8.3649 C   0  0  0  0  0  0  0  0  0  0  0  0
    5.4023    6.7291    6.6924 S   0  0  0  0  0  0  0  0  0  0  0  0
    4.3383    5.4815    6.2674 C   0  0  0  0  0  0  0  0  0  0  0  0
    3.7902    5.0239    7.4606 C   0  0  0  0  0  0  0  0  0  0  0  0
    4.2350    5.6666    8.5788 C   0  0  0  0  0  0  0  0  0  0  0  0
    3.6356    5.1458    9.8221 C   0  0  0  0  0  0  0  0  0  0  0  0
    2.7162    4.0071    9.3189 C   0  0  0  0  0  0  0  0  0  0  0  0
    2.8137    3.9590    7.7745 C   0  0  0  0  0  0  0  0  0  0  0  0
    4.0738    5.0020    4.9000 C   0  0  0  0  0  0  0  0  0  0  0  0
    2.9633    3.8024    4.4693 S   0  0  0  0  0  0  0  0  0  0  0  0
    3.2874    3.8900    2.8262 C   0  0  0  0  0  0  0  0  0  0  0  0
    2.6965    3.1366    1.7420 C   0  0  0  0  0  0  0  0  0  0  0  0
    3.1170    3.3543    0.4552 C   0  0  0  0  0  0  0  0  0  0  0  0
    4.1058    4.3045    0.1604 O   0  0  0  0  0  0  0  0  0  0  0  0
    4.7431    5.1528    1.1501 C   0  0  0  0  0  0  0  0  0  0  0  0
    4.4236    6.6296    0.8015 C   0  0  0  0  0  0  0  0  0  0  0  0
    2.9305    6.9581    0.8967 C   0  0  0  0  0  0  0  0  0  0  0  0
    6.2709    4.8903    1.0995 C   0  0  0  0  0  0  0  0  0  0  0  0
    6.8842    5.0184   -0.2980 C   0  0  0  0  0  0  0  0  0  0  0  0
    4.2589    4.8428    2.5754 C   0  0  0  0  0  0  0  0  0  0  0  0
    4.7014    5.4773    3.7477 C   0  0  0  0  0  0  0  0  0  0  0  0
    2.4742    2.5544   -0.4905 C   0  0  0  0  0  0  0  0  0  0  0  0
    1.5290    1.6989    0.0862 C   0  0  0  0  0  0  0  0  0  0  0  0
    1.5099    1.9523    1.7628 S   0  0  0  0  0  0  0  0  0  0  0  0
    0.6752    0.7180   -0.6114 C   0  0  0  0  0  0  0  0  0  0  0  0
   -0.5318   -0.2152    0.1223 S   0  0  0  0  0  0  0  0  0  0  0  0
   -1.0142   -1.0857   -1.2463 C   0  0  0  0  0  0  0  0  0  0  0  0
   -0.2123   -0.6311   -2.2898 C   0  0  0  0  0  0  0  0  0  0  0  0
    0.6925    0.3376   -1.9521 C   0  0  0  0  0  0  0  0  0  0  0  0
    1.5173    0.7639   -3.1034 C   0  0  0  0  0  0  0  0  0  0  0  0
    1.0056   -0.1208   -4.2630 C   0  0  0  0  0  0  0  0  0  0  0  0
   -0.1332   -1.0107   -3.7169 C   0  0  0  0  0  0  0  0  0  0  0  0
   -2.0702   -2.1165   -1.3040 C   0  0  0  0  0  0  0  0  0  0  0  0
   -2.5019   -3.0302   -2.6580 S   0  0  0  0  0  0  0  0  0  0  0  0
   -3.7010   -3.9782   -1.9342 C   0  0  0  0  0  0  0  0  0  0  0  0
   -3.7552   -3.5718   -0.6020 C   0  0  0  0  0  0  0  0  0  0  0  0
   -2.8710   -2.5803   -0.2645 C   0  0  0  0  0  0  0  0  0  0  0  0
   -2.8746   -2.2847    1.1849 C   0  0  0  0  0  0  0  0  0  0  0  0
   -3.8309   -3.3506    1.7618 C   0  0  0  0  0  0  0  0  0  0  0  0
   -4.4968   -4.0782    0.5732 C   0  0  0  0  0  0  0  0  0  0  0  0
   -4.3804   -5.1026   -2.6050 C   0  0  0  0  0  0  0  0  0  0  0  0
   -3.7328   -5.9521   -3.9163 S   0  0  0  0  0  0  0  0  0  0  0  0
   -5.0634   -6.9444   -4.2341 C   0  0  0  0  0  0  0  0  0  0  0  0
   -6.0349   -6.5862   -3.3054 C   0  0  0  0  0  0  0  0  0  0  0  0
   -5.6681   -5.6051   -2.4222 C   0  0  0  0  0  0  0  0  0  0  0  0
   -6.7847   -5.2118   -1.5356 C   0  0  0  0  0  0  0  0  0  0  0  0
   -7.9905   -5.9883   -2.1100 C   0  0  0  0  0  0  0  0  0  0  0  0
   -7.4496   -6.9892   -3.1534 C   0  0  0  0  0  0  0  0  0  0  0  0
   -5.1644   -7.9549   -5.3045 C   0  0  0  0  0  0  0  0  0  0  0  0
   -6.4635   -9.0073   -5.5816 S   0  0  0  0  0  0  0  0  0  0  0  0
   -5.8191   -9.8251   -6.9133 C   0  0  0  0  0  0  0  0  0  0  0  0
   -4.5728   -9.2631   -7.1312 C   0  0  0  0  0  0  0  0  0  0  0  0
   -4.2158   -8.2635   -6.2740 C   0  0  0  0  0  0  0  0  0  0  0  0
   -2.8742   -7.7184   -6.5731 C   0  0  0  0  0  0  0  0  0  0  0  0
   -2.4166   -8.5464   -7.7988 C   0  0  0  0  0  0  0  0  0  0  0  0
   -3.5407   -9.5520   -8.1446 C   0  0  0  0  0  0  0  0  0  0  0  0
    5.6272    7.2975    9.1160 H   0  0  0  0  0  0  0  0  0  0  0  0
    3.0470    5.9414   10.3275 H   0  0  0  0  0  0  0  0  0  0  0  0
    4.4265    4.7548   10.4981 H   0  0  0  0  0  0  0  0  0  0  0  0
    1.6662    4.1953    9.6320 H   0  0  0  0  0  0  0  0  0  0  0  0
    3.0442    3.0364    9.7506 H   0  0  0  0  0  0  0  0  0  0  0  0
    1.8322    4.1888    7.3079 H   0  0  0  0  0  0  0  0  0  0  0  0
    3.1915    2.9729    7.4301 H   0  0  0  0  0  0  0  0  0  0  0  0
    4.7431    6.8460   -0.2398 H   0  0  0  0  0  0  0  0  0  0  0  0
    4.9836    7.3145    1.4746 H   0  0  0  0  0  0  0  0  0  0  0  0
    2.5715    6.8658    1.9435 H   0  0  0  0  0  0  0  0  0  0  0  0
    2.3392    6.2817    0.2447 H   0  0  0  0  0  0  0  0  0  0  0  0
    2.7601    8.0031    0.5635 H   0  0  0  0  0  0  0  0  0  0  0  0
    6.8059    5.5861    1.7826 H   0  0  0  0  0  0  0  0  0  0  0  0
    6.4675    3.8559    1.4589 H   0  0  0  0  0  0  0  0  0  0  0  0
    6.3567    4.3677   -1.0264 H   0  0  0  0  0  0  0  0  0  0  0  0
    6.8568    6.0700   -0.6486 H   0  0  0  0  0  0  0  0  0  0  0  0
    7.9483    4.7036   -0.2607 H   0  0  0  0  0  0  0  0  0  0  0  0
    5.4516    6.2574    3.7543 H   0  0  0  0  0  0  0  0  0  0  0  0
    2.6958    2.6138   -1.5442 H   0  0  0  0  0  0  0  0  0  0  0  0
    2.5926    0.5701   -2.9027 H   0  0  0  0  0  0  0  0  0  0  0  0
    1.3405    1.8375   -3.3256 H   0  0  0  0  0  0  0  0  0  0  0  0
    0.6297    0.5147   -5.0942 H   0  0  0  0  0  0  0  0  0  0  0  0
    1.8325   -0.7555   -4.6501 H   0  0  0  0  0  0  0  0  0  0  0  0
    0.1262   -2.0863   -3.8168 H   0  0  0  0  0  0  0  0  0  0  0  0
   -1.0937   -0.7875   -4.2285 H   0  0  0  0  0  0  0  0  0  0  0  0
   -3.2648   -1.2600    1.3641 H   0  0  0  0  0  0  0  0  0  0  0  0
   -1.8557   -2.3993    1.6127 H   0  0  0  0  0  0  0  0  0  0  0  0
   -4.5975   -2.8764    2.4127 H   0  0  0  0  0  0  0  0  0  0  0  0
   -3.2534   -4.0812    2.3700 H   0  0  0  0  0  0  0  0  0  0  0  0
   -5.5602   -3.7711    0.5062 H   0  0  0  0  0  0  0  0  0  0  0  0
   -4.3955   -5.1809    0.6639 H   0  0  0  0  0  0  0  0  0  0  0  0
   -6.5834   -5.5625   -0.5028 H   0  0  0  0  0  0  0  0  0  0  0  0
   -6.9552   -4.1140   -1.5687 H   0  0  0  0  0  0  0  0  0  0  0  0
   -8.6902   -5.2779   -2.6034 H   0  0  0  0  0  0  0  0  0  0  0  0
   -8.5379   -6.5218   -1.3026 H   0  0  0  0  0  0  0  0  0  0  0  0
   -7.5074   -8.0317   -2.7728 H   0  0  0  0  0  0  0  0  0  0  0  0
   -7.9946   -6.8894   -4.1165 H   0  0  0  0  0  0  0  0  0  0  0  0
   -6.2787  -10.6247   -7.4779 H   0  0  0  0  0  0  0  0  0  0  0  0
   -2.9449   -6.6383   -6.8246 H   0  0  0  0  0  0  0  0  0  0  0  0
   -2.1927   -7.8777   -5.7100 H   0  0  0  0  0  0  0  0  0  0  0  0
   -2.2270   -7.8744   -8.6638 H   0  0  0  0  0  0  0  0  0  0  0  0
   -1.4769   -9.0907   -7.5615 H   0  0  0  0  0  0  0  0  0  0  0  0
   -3.9412   -9.3706   -9.1654 H   0  0  0  0  0  0  0  0  0  0  0  0
   -3.1860  -10.5996   -8.0427 H   0  0  0  0  0  0  0  0  0  0  0  0
  1  2  1  0
  2  3  1  0
  3  4  2  0
  4  5  1  0
  5  6  1  0
  6  7  1  0
  7  8  1  0
  3  9  1  0
  9 10  1  0
 10 11  1  0
 11 12  1  0
 12 13  2  0
 13 14  1  0
 14 15  1  0
 15 16  1  0
 16 17  1  0
 15 18  1  0
 18 19  1  0
 15 20  1  0
 20 21  1  0
 13 22  1  0
 22 23  2  0
 23 24  1  0
 23 25  1  0
 25 26  1  0
 26 27  1  0
 27 28  2  0
 28 29  1  0
 29 30  1  0
 30 31  1  0
 31 32  1  0
 27 33  1  0
 33 34  1  0
 34 35  1  0
 35 36  2  0
 36 37  1  0
 37 38  1  0
 38 39  1  0
 39 40  1  0
 35 41  1  0
 41 42  1  0
 42 43  1  0
 43 44  2  0
 44 45  1  0
 45 46  1  0
 46 47  1  0
 47 48  1  0
 43 49  1  0
 49 50  1  0
 50 51  1  0
 51 52  2  0
 52 53  1  0
 53 54  1  0
 54 55  1  0
 55 56  1  0
  5  1  2  0
 21  9  2  0
 29 25  2  0
 37 33  2  0
 45 41  2  0
 53 49  2  0
  8  4  1  0
 20 11  2  0
 32 28  1  0
 40 36  1  0
 48 44  1  0
 56 52  1  0
 24 12  1  0
  1 57  1  0
  6 58  1  0
  6 59  1  0
  7 60  1  0
  7 61  1  0
  8 62  1  0
  8 63  1  0
 16 64  1  0
 16 65  1  0
 17 66  1  0
 17 67  1  0
 17 68  1  0
 18 69  1  0
 18 70  1  0
 19 71  1  0
 19 72  1  0
 19 73  1  0
 21 74  1  0
 22 75  1  0
 30 76  1  0
 30 77  1  0
 31 78  1  0
 31 79  1  0
 32 80  1  0
 32 81  1  0
 38 82  1  0
 38 83  1  0
 39 84  1  0
 39 85  1  0
 40 86  1  0
 40 87  1  0
 46 88  1  0
 46 89  1  0
 47 90  1  0
 47 91  1  0
 48 92  1  0
 48 93  1  0
 51 94  1  0
 54 95  1  0
 54 96  1  0
 55 97  1  0
 55 98  1  0
 56 99  1  0
 56100  1  0
M  END

