
     RDKit          3D

105117  0  0  0  0  0  0  0  0999 V2000
    5.6924   -0.8401    2.0306 C   0  0  0  0  0  0  0  0  0  0  0  0
    4.8263   -0.7276    0.5725 S   0  0  0  0  0  0  0  0  0  0  0  0
    4.8535    0.9599    0.3795 C   0  0  0  0  0  0  0  0  0  0  0  0
    5.5336    1.4257    1.4994 C   0  0  0  0  0  0  0  0  0  0  0  0
    5.9774    0.4734    2.3631 C   0  0  0  0  0  0  0  0  0  0  0  0
    6.5630    1.1072    3.4332 C   0  0  0  0  0  0  0  0  0  0  0  0
    6.4194    2.4686    3.1491 C   0  0  0  0  0  0  0  0  0  0  0  0
    5.7786    2.6615    1.9674 N   0  0  0  0  0  0  0  0  0  0  0  0
    4.1988    1.7015   -0.7114 C   0  0  0  0  0  0  0  0  0  0  0  0
    4.6212    2.9019   -1.1261 C   0  0  0  0  0  0  0  0  0  0  0  0
    3.9151    3.6663   -2.1650 C   0  0  0  0  0  0  0  0  0  0  0  0
    2.5839    3.1713   -3.0981 S   0  0  0  0  0  0  0  0  0  0  0  0
    2.2579    4.6561   -3.8705 C   0  0  0  0  0  0  0  0  0  0  0  0
    3.2558    5.5047   -3.4179 C   0  0  0  0  0  0  0  0  0  0  0  0
    4.1267    4.9887   -2.5143 C   0  0  0  0  0  0  0  0  0  0  0  0
    5.0180    5.9787   -2.1731 C   0  0  0  0  0  0  0  0  0  0  0  0
    4.6202    7.0816   -2.9349 C   0  0  0  0  0  0  0  0  0  0  0  0
    3.5367    6.7870   -3.6970 N   0  0  0  0  0  0  0  0  0  0  0  0
    1.2352    4.9812   -4.8876 C   0  0  0  0  0  0  0  0  0  0  0  0
    0.0608    4.3569   -5.0674 C   0  0  0  0  0  0  0  0  0  0  0  0
   -0.5290    3.3405   -4.1778 C   0  0  0  0  0  0  0  0  0  0  0  0
   -0.5576    3.3761   -2.4854 S   0  0  0  0  0  0  0  0  0  0  0  0
   -1.4144    1.9444   -2.3357 C   0  0  0  0  0  0  0  0  0  0  0  0
   -1.7991    1.2427   -1.1300 C   0  0  0  0  0  0  0  0  0  0  0  0
   -2.6456    0.1687   -1.2208 C   0  0  0  0  0  0  0  0  0  0  0  0
   -3.1586   -0.2360   -2.4622 O   0  0  0  0  0  0  0  0  0  0  0  0
   -2.5272    0.1122   -3.7189 C   0  0  0  0  0  0  0  0  0  0  0  0
   -3.6446    0.2549   -4.7854 C   0  0  0  0  0  0  0  0  0  0  0  0
   -4.5458   -0.9764   -4.9104 C   0  0  0  0  0  0  0  0  0  0  0  0
   -1.5233   -1.0307   -4.0283 C   0  0  0  0  0  0  0  0  0  0  0  0
   -0.8713   -1.0073   -5.4130 C   0  0  0  0  0  0  0  0  0  0  0  0
   -1.7675    1.4484   -3.5830 C   0  0  0  0  0  0  0  0  0  0  0  0
   -1.2716    2.2488   -4.6288 C   0  0  0  0  0  0  0  0  0  0  0  0
   -2.9119   -0.4420    0.0032 C   0  0  0  0  0  0  0  0  0  0  0  0
   -2.2197    0.1615    1.0561 C   0  0  0  0  0  0  0  0  0  0  0  0
   -1.3170    1.4676    0.4602 S   0  0  0  0  0  0  0  0  0  0  0  0
   -2.2587   -0.2825    2.4567 C   0  0  0  0  0  0  0  0  0  0  0  0
   -3.3848   -1.3550    3.1433 S   0  0  0  0  0  0  0  0  0  0  0  0
   -2.7770   -1.3605    4.7316 C   0  0  0  0  0  0  0  0  0  0  0  0
   -1.7094   -0.4858    4.7053 C   0  0  0  0  0  0  0  0  0  0  0  0
   -1.4189    0.0748    3.5015 C   0  0  0  0  0  0  0  0  0  0  0  0
   -0.2955    0.8475    3.6667 C   0  0  0  0  0  0  0  0  0  0  0  0
    0.0321    0.7044    5.0202 C   0  0  0  0  0  0  0  0  0  0  0  0
   -0.8431   -0.1120    5.6547 N   0  0  0  0  0  0  0  0  0  0  0  0
   -3.3726   -2.0086    5.9096 C   0  0  0  0  0  0  0  0  0  0  0  0
   -3.9393   -3.2202    5.8915 C   0  0  0  0  0  0  0  0  0  0  0  0
   -3.7915   -4.1843    4.7892 C   0  0  0  0  0  0  0  0  0  0  0  0
   -2.3656   -4.5421    3.9302 S   0  0  0  0  0  0  0  0  0  0  0  0
   -2.9196   -5.9016    3.0702 C   0  0  0  0  0  0  0  0  0  0  0  0
   -4.2094   -6.0975    3.5440 C   0  0  0  0  0  0  0  0  0  0  0  0
   -4.6727   -5.1919    4.4445 C   0  0  0  0  0  0  0  0  0  0  0  0
   -5.9239   -5.5991    4.8508 C   0  0  0  0  0  0  0  0  0  0  0  0
   -6.1505   -6.7829    4.1386 C   0  0  0  0  0  0  0  0  0  0  0  0
   -5.0904   -7.0927    3.3505 N   0  0  0  0  0  0  0  0  0  0  0  0
   -2.1222   -6.8899    2.3261 C   0  0  0  0  0  0  0  0  0  0  0  0
   -1.2465   -6.6330    1.3488 C   0  0  0  0  0  0  0  0  0  0  0  0
   -0.9533   -5.3106    0.7632 C   0  0  0  0  0  0  0  0  0  0  0  0
   -0.2583   -3.9499    1.5208 S   0  0  0  0  0  0  0  0  0  0  0  0
    0.1157   -3.0470    0.1266 C   0  0  0  0  0  0  0  0  0  0  0  0
   -0.2635   -3.8634   -0.9235 C   0  0  0  0  0  0  0  0  0  0  0  0
   -0.8199   -5.0553   -0.5889 C   0  0  0  0  0  0  0  0  0  0  0  0
   -1.0221   -5.7650   -1.7487 C   0  0  0  0  0  0  0  0  0  0  0  0
   -0.5584   -4.9195   -2.7599 C   0  0  0  0  0  0  0  0  0  0  0  0
   -0.0852   -3.7559   -2.2451 N   0  0  0  0  0  0  0  0  0  0  0  0
    0.7527   -1.7246    0.0364 C   0  0  0  0  0  0  0  0  0  0  0  0
    1.1615   -1.0580    1.1167 C   0  0  0  0  0  0  0  0  0  0  0  0
    5.9261   -1.7329    2.5940 H   0  0  0  0  0  0  0  0  0  0  0  0
    7.0028    0.6579    4.3119 H   0  0  0  0  0  0  0  0  0  0  0  0
    6.7484    3.2752    3.7953 H   0  0  0  0  0  0  0  0  0  0  0  0
    5.5057    3.5817    1.5571 H   0  0  0  0  0  0  0  0  0  0  0  0
    3.3644    1.2210   -1.2049 H   0  0  0  0  0  0  0  0  0  0  0  0
    5.4933    3.3557   -0.6774 H   0  0  0  0  0  0  0  0  0  0  0  0
    5.8430    5.9140   -1.4789 H   0  0  0  0  0  0  0  0  0  0  0  0
    5.1087    8.0485   -2.9313 H   0  0  0  0  0  0  0  0  0  0  0  0
    3.0385    7.4242   -4.3546 H   0  0  0  0  0  0  0  0  0  0  0  0
    1.4775    5.7801   -5.5784 H   0  0  0  0  0  0  0  0  0  0  0  0
   -0.5206    4.6211   -5.9433 H   0  0  0  0  0  0  0  0  0  0  0  0
   -3.2170    0.4879   -5.7803 H   0  0  0  0  0  0  0  0  0  0  0  0
   -4.2874    1.1158   -4.5032 H   0  0  0  0  0  0  0  0  0  0  0  0
   -3.9721   -1.8567   -5.2682 H   0  0  0  0  0  0  0  0  0  0  0  0
   -5.0183   -1.2122   -3.9349 H   0  0  0  0  0  0  0  0  0  0  0  0
   -5.3554   -0.7692   -5.6429 H   0  0  0  0  0  0  0  0  0  0  0  0
   -0.7143   -0.9905   -3.2646 H   0  0  0  0  0  0  0  0  0  0  0  0
   -2.0317   -2.0122   -3.8986 H   0  0  0  0  0  0  0  0  0  0  0  0
   -1.6258   -1.1147   -6.2196 H   0  0  0  0  0  0  0  0  0  0  0  0
   -0.2807   -0.0804   -5.5651 H   0  0  0  0  0  0  0  0  0  0  0  0
   -0.1713   -1.8665   -5.4891 H   0  0  0  0  0  0  0  0  0  0  0  0
   -1.4270    2.0332   -5.6787 H   0  0  0  0  0  0  0  0  0  0  0  0
   -3.5492   -1.3071    0.1096 H   0  0  0  0  0  0  0  0  0  0  0  0
    0.2344    1.4187    2.9211 H   0  0  0  0  0  0  0  0  0  0  0  0
    0.8771    1.1665    5.5085 H   0  0  0  0  0  0  0  0  0  0  0  0
   -0.8275   -0.4080    6.6562 H   0  0  0  0  0  0  0  0  0  0  0  0
   -3.4033   -1.4345    6.8268 H   0  0  0  0  0  0  0  0  0  0  0  0
   -4.4872   -3.5396    6.7664 H   0  0  0  0  0  0  0  0  0  0  0  0
   -6.5822   -5.1282    5.5703 H   0  0  0  0  0  0  0  0  0  0  0  0
   -7.0371   -7.3974    4.2229 H   0  0  0  0  0  0  0  0  0  0  0  0
   -4.9791   -7.9328    2.7410 H   0  0  0  0  0  0  0  0  0  0  0  0
   -2.3459   -7.9295    2.5248 H   0  0  0  0  0  0  0  0  0  0  0  0
   -0.8275   -7.4883    0.8304 H   0  0  0  0  0  0  0  0  0  0  0  0
   -1.4207   -6.7629   -1.8527 H   0  0  0  0  0  0  0  0  0  0  0  0
   -0.5327   -5.1648   -3.8116 H   0  0  0  0  0  0  0  0  0  0  0  0
    0.3799   -2.9808   -2.7656 H   0  0  0  0  0  0  0  0  0  0  0  0
    0.8893   -1.2740   -0.9381 H   0  0  0  0  0  0  0  0  0  0  0  0
    1.6180   -0.0829    0.9998 H   0  0  0  0  0  0  0  0  0  0  0  0
    1.0508   -1.4635    2.1146 H   0  0  0  0  0  0  0  0  0  0  0  0
  1  2  1  0
  2  3  1  0
  3  4  2  0
  4  5  1  0
  5  6  1  0
  6  7  2  0
  7  8  1  0
  3  9  1  0
  9 10  2  3
 10 11  1  0
 11 12  1  0
 12 13  1  0
 13 14  2  0
 14 15  1  0
 15 16  1  0
 16 17  2  0
 17 18  1  0
 13 19  1  0
 19 20  2  3
 20 21  1  0
 21 22  1  0
 22 23  1  0
 23 24  1  0
 24 25  2  0
 25 26  1  0
 26 27  1  0
 27 28  1  0
 28 29  1  0
 27 30  1  0
 30 31  1  0
 27 32  1  0
 32 33  1  0
 25 34  1  0
 34 35  2  0
 35 36  1  0
 35 37  1  0
 37 38  1  0
 38 39  1  0
 39 40  2  0
 40 41  1  0
 41 42  1  0
 42 43  2  0
 43 44  1  0
 39 45  1  0
 45 46  2  3
 46 47  1  0
 47 48  1  0
 48 49  1  0
 49 50  2  0
 50 51  1  0
 51 52  1  0
 52 53  2  0
 53 54  1  0
 49 55  1  0
 55 56  2  3
 56 57  1  0
 57 58  1  0
 58 59  1  0
 59 60  2  0
 60 61  1  0
 61 62  1  0
 62 63  2  0
 63 64  1  0
 59 65  1  0
 65 66  2  3
  5  1  2  0
 15 11  2  0
 33 21  2  0
 41 37  2  0
 51 47  2  0
 61 57  2  0
  8  4  1  0
 18 14  1  0
 32 23  2  0
 44 40  1  0
 54 50  1  0
 64 60  1  0
 36 24  1  0
  1 67  1  0
  6 68  1  0
  7 69  1  0
  8 70  1  0
  9 71  1  0
 10 72  1  0
 16 73  1  0
 17 74  1  0
 18 75  1  0
 19 76  1  0
 20 77  1  0
 28 78  1  0
 28 79  1  0
 29 80  1  0
 29 81  1  0
 29 82  1  0
 30 83  1  0
 30 84  1  0
 31 85  1  0
 31 86  1  0
 31 87  1  0
 33 88  1  0
 34 89  1  0
 42 90  1  0
 43 91  1  0
 44 92  1  0
 45 93  1  0
 46 94  1  0
 52 95  1  0
 53 96  1  0
 54 97  1  0
 55 98  1  0
 56 99  1  0
 62100  1  0
 63101  1  0
 64102  1  0
 65103  1  0
 66104  1  0
 66105  1  0
M  END

