
     RDKit          3D

240267  0  0  0  0  0  0  0  0999 V2000
    2.9770   -3.8539   10.9659 C   0  0  0  0  0  0  0  0  0  0  0  0
    3.6447   -2.6509   10.7603 C   0  0  0  0  0  0  0  0  0  0  0  0
    2.8391   -1.6625   10.1717 C   0  0  0  0  0  0  0  0  0  0  0  0
    3.2379   -0.3575    9.8189 C   0  0  0  0  0  0  0  0  0  0  0  0
    4.6191    0.1149   10.0115 C   0  0  0  0  0  0  0  0  0  0  0  0
    5.9594   -0.4746    9.1826 S   0  0  0  0  0  0  0  0  0  0  0  0
    7.0810    0.5578    9.8970 C   0  0  0  0  0  0  0  0  0  0  0  0
    8.5344    0.6143    9.5342 C   0  0  0  0  0  0  0  0  0  0  0  0
    8.7919    1.7025    8.4984 C   0  0  0  0  0  0  0  0  0  0  0  0
    6.4096    1.3969   10.7888 C   0  0  0  0  0  0  0  0  0  0  0  0
    7.2074    2.6455   11.7347 Cl  0  0  0  0  0  0  0  0  0  0  0  0
    5.0308    1.1457   10.8552 C   0  0  0  0  0  0  0  0  0  0  0  0
    3.9361    2.0141   11.9214 Cl  0  0  0  0  0  0  0  0  0  0  0  0
    2.2660    0.4679    9.2307 C   0  0  0  0  0  0  0  0  0  0  0  0
    0.9531    0.0414    9.0057 C   0  0  0  0  0  0  0  0  0  0  0  0
    0.5527   -1.2663    9.3536 C   0  0  0  0  0  0  0  0  0  0  0  0
   -0.7985   -1.7747    9.0452 C   0  0  0  0  0  0  0  0  0  0  0  0
   -1.4356   -1.9115    7.4939 S   0  0  0  0  0  0  0  0  0  0  0  0
   -2.9337   -2.5109    7.9676 C   0  0  0  0  0  0  0  0  0  0  0  0
   -4.0339   -2.8906    7.0223 C   0  0  0  0  0  0  0  0  0  0  0  0
   -4.0053   -4.3852    6.7295 C   0  0  0  0  0  0  0  0  0  0  0  0
   -2.9479   -2.6338    9.3577 C   0  0  0  0  0  0  0  0  0  0  0  0
   -1.7533   -2.2081    9.9613 C   0  0  0  0  0  0  0  0  0  0  0  0
   -1.5229   -2.1519   11.7042 Cl  0  0  0  0  0  0  0  0  0  0  0  0
   -4.3246   -3.2377   10.2638 Cl  0  0  0  0  0  0  0  0  0  0  0  0
    1.5284   -2.0911    9.9413 C   0  0  0  0  0  0  0  0  0  0  0  0
    1.3854   -3.6957   10.4274 S   0  0  0  0  0  0  0  0  0  0  0  0
    0.1567    1.0166    8.3830 C   0  0  0  0  0  0  0  0  0  0  0  0
    0.8595    2.1804    8.0804 C   0  0  0  0  0  0  0  0  0  0  0  0
    2.4533    2.0190    8.6057 S   0  0  0  0  0  0  0  0  0  0  0  0
    0.3436    3.2818    7.2549 C   0  0  0  0  0  0  0  0  0  0  0  0
    1.1216    4.1772    6.5224 C   0  0  0  0  0  0  0  0  0  0  0  0
    0.3752    4.9235    5.5951 C   0  0  0  0  0  0  0  0  0  0  0  0
    0.8917    5.7861    4.6042 C   0  0  0  0  0  0  0  0  0  0  0  0
    2.3368    6.0418    4.4610 C   0  0  0  0  0  0  0  0  0  0  0  0
    3.0616    7.5520    4.6355 S   0  0  0  0  0  0  0  0  0  0  0  0
    4.6339    7.0349    4.3333 C   0  0  0  0  0  0  0  0  0  0  0  0
    5.8471    7.9122    4.4061 C   0  0  0  0  0  0  0  0  0  0  0  0
    6.4067    7.9380    5.8238 C   0  0  0  0  0  0  0  0  0  0  0  0
    4.6142    5.6613    4.0978 C   0  0  0  0  0  0  0  0  0  0  0  0
    6.0536    4.7090    3.7723 Cl  0  0  0  0  0  0  0  0  0  0  0  0
    3.3243    5.1065    4.1538 C   0  0  0  0  0  0  0  0  0  0  0  0
    2.9873    3.4140    3.8135 Cl  0  0  0  0  0  0  0  0  0  0  0  0
   -0.0301    6.3245    3.6893 C   0  0  0  0  0  0  0  0  0  0  0  0
   -1.4034    6.0651    3.7615 C   0  0  0  0  0  0  0  0  0  0  0  0
   -1.9224    5.2314    4.7712 C   0  0  0  0  0  0  0  0  0  0  0  0
   -3.3444    4.8474    4.7987 C   0  0  0  0  0  0  0  0  0  0  0  0
   -3.9187    3.2969    4.4964 S   0  0  0  0  0  0  0  0  0  0  0  0
   -5.5511    3.6905    4.5717 C   0  0  0  0  0  0  0  0  0  0  0  0
   -6.6679    2.7333    4.2855 C   0  0  0  0  0  0  0  0  0  0  0  0
   -6.9547    2.6770    2.7888 C   0  0  0  0  0  0  0  0  0  0  0  0
   -5.6698    5.0582    4.8121 C   0  0  0  0  0  0  0  0  0  0  0  0
   -4.4317    5.7054    4.9464 C   0  0  0  0  0  0  0  0  0  0  0  0
   -4.2736    7.4257    5.2707 Cl  0  0  0  0  0  0  0  0  0  0  0  0
   -7.2086    5.9013    4.8988 Cl  0  0  0  0  0  0  0  0  0  0  0  0
   -0.9974    4.6554    5.6565 C   0  0  0  0  0  0  0  0  0  0  0  0
   -1.2717    3.4632    6.8076 S   0  0  0  0  0  0  0  0  0  0  0  0
   -2.1145    6.5438    2.6514 C   0  0  0  0  0  0  0  0  0  0  0  0
   -1.2989    7.1380    1.6924 C   0  0  0  0  0  0  0  0  0  0  0  0
    0.3034    7.0981    2.2297 S   0  0  0  0  0  0  0  0  0  0  0  0
   -1.7083    7.3263    0.2943 C   0  0  0  0  0  0  0  0  0  0  0  0
   -0.9608    6.8785   -0.7926 C   0  0  0  0  0  0  0  0  0  0  0  0
   -1.7263    6.7181   -1.9602 C   0  0  0  0  0  0  0  0  0  0  0  0
   -1.3061    6.0610   -3.1343 C   0  0  0  0  0  0  0  0  0  0  0  0
    0.0340    5.4540   -3.2399 C   0  0  0  0  0  0  0  0  0  0  0  0
    0.3264    3.7962   -3.1772 S   0  0  0  0  0  0  0  0  0  0  0  0
    2.0019    3.9024   -3.2352 C   0  0  0  0  0  0  0  0  0  0  0  0
    2.9297    2.7308   -3.1244 C   0  0  0  0  0  0  0  0  0  0  0  0
    3.3230    2.4935   -1.6715 C   0  0  0  0  0  0  0  0  0  0  0  0
    2.3601    5.2505   -3.2813 C   0  0  0  0  0  0  0  0  0  0  0  0
    4.0280    5.8067   -3.2958 Cl  0  0  0  0  0  0  0  0  0  0  0  0
    1.2557    6.1197   -3.2813 C   0  0  0  0  0  0  0  0  0  0  0  0
    1.4030    7.8687   -3.3274 Cl  0  0  0  0  0  0  0  0  0  0  0  0
   -2.2953    5.7756   -4.0897 C   0  0  0  0  0  0  0  0  0  0  0  0
   -3.6430    6.0964   -3.9053 C   0  0  0  0  0  0  0  0  0  0  0  0
   -4.0544    6.7935   -2.7525 C   0  0  0  0  0  0  0  0  0  0  0  0
   -5.4682    7.1196   -2.5058 C   0  0  0  0  0  0  0  0  0  0  0  0
   -6.0995    8.6755   -2.5662 S   0  0  0  0  0  0  0  0  0  0  0  0
   -7.6974    8.2303   -2.2884 C   0  0  0  0  0  0  0  0  0  0  0  0
   -8.8531    9.1812   -2.3185 C   0  0  0  0  0  0  0  0  0  0  0  0
   -9.3584    9.3727   -3.7458 C   0  0  0  0  0  0  0  0  0  0  0  0
   -7.7607    6.8416   -2.1614 C   0  0  0  0  0  0  0  0  0  0  0  0
   -6.5066    6.2186   -2.2732 C   0  0  0  0  0  0  0  0  0  0  0  0
   -6.2711    4.4827   -2.1172 Cl  0  0  0  0  0  0  0  0  0  0  0  0
   -9.2548    5.9559   -1.9005 Cl  0  0  0  0  0  0  0  0  0  0  0  0
   -3.0681    7.0823   -1.7953 C   0  0  0  0  0  0  0  0  0  0  0  0
   -3.3077    7.5655   -0.2017 S   0  0  0  0  0  0  0  0  0  0  0  0
   -4.4877    5.5286   -4.8786 C   0  0  0  0  0  0  0  0  0  0  0  0
   -3.8013    4.7556   -5.8128 C   0  0  0  0  0  0  0  0  0  0  0  0
   -2.1541    4.7992   -5.4454 S   0  0  0  0  0  0  0  0  0  0  0  0
   -4.3782    3.6105   -6.5194 C   0  0  0  0  0  0  0  0  0  0  0  0
   -4.9434    2.5430   -5.8187 C   0  0  0  0  0  0  0  0  0  0  0  0
   -4.7883    1.3054   -6.4629 C   0  0  0  0  0  0  0  0  0  0  0  0
   -5.0194    0.0429   -5.8755 C   0  0  0  0  0  0  0  0  0  0  0  0
   -5.7102   -0.0803   -4.5753 C   0  0  0  0  0  0  0  0  0  0  0  0
   -5.0223   -0.6554   -3.1506 S   0  0  0  0  0  0  0  0  0  0  0  0
   -6.3578   -0.3568   -2.1676 C   0  0  0  0  0  0  0  0  0  0  0  0
   -6.4393   -0.6920   -0.7064 C   0  0  0  0  0  0  0  0  0  0  0  0
   -7.0055   -2.0925   -0.5032 C   0  0  0  0  0  0  0  0  0  0  0  0
   -7.3720    0.1868   -2.9517 C   0  0  0  0  0  0  0  0  0  0  0  0
   -8.9600    0.6143   -2.3281 Cl  0  0  0  0  0  0  0  0  0  0  0  0
   -7.0055    0.3537   -4.2971 C   0  0  0  0  0  0  0  0  0  0  0  0
   -8.0904    1.0084   -5.5167 Cl  0  0  0  0  0  0  0  0  0  0  0  0
   -4.4683   -1.0698   -6.5379 C   0  0  0  0  0  0  0  0  0  0  0  0
   -3.8252   -0.9612   -7.7753 C   0  0  0  0  0  0  0  0  0  0  0  0
   -3.6951    0.2861   -8.4146 C   0  0  0  0  0  0  0  0  0  0  0  0
   -2.9940    0.4189   -9.7042 C   0  0  0  0  0  0  0  0  0  0  0  0
   -1.5706    1.2815   -9.9544 S   0  0  0  0  0  0  0  0  0  0  0  0
   -1.4243    0.9194  -11.5891 C   0  0  0  0  0  0  0  0  0  0  0  0
   -0.3778    1.5016  -12.4874 C   0  0  0  0  0  0  0  0  0  0  0  0
   -0.8520    2.8331  -13.0616 C   0  0  0  0  0  0  0  0  0  0  0  0
   -2.5036    0.1233  -11.9699 C   0  0  0  0  0  0  0  0  0  0  0  0
   -3.3772   -0.1658  -10.9099 C   0  0  0  0  0  0  0  0  0  0  0  0
   -4.8350   -1.1314  -11.1011 Cl  0  0  0  0  0  0  0  0  0  0  0  0
   -2.7646   -0.4301  -13.6160 Cl  0  0  0  0  0  0  0  0  0  0  0  0
   -4.1406    1.4086   -7.6997 C   0  0  0  0  0  0  0  0  0  0  0  0
   -3.7379    3.0184   -7.9641 S   0  0  0  0  0  0  0  0  0  0  0  0
   -3.1715   -2.1371   -8.1655 C   0  0  0  0  0  0  0  0  0  0  0  0
   -3.2564   -3.1602   -7.2190 C   0  0  0  0  0  0  0  0  0  0  0  0
   -4.2081   -2.6197   -5.9321 S   0  0  0  0  0  0  0  0  0  0  0  0
   -2.3266   -4.3048   -7.1523 C   0  0  0  0  0  0  0  0  0  0  0  0
   -2.0640   -5.2497   -5.7770 S   0  0  0  0  0  0  0  0  0  0  0  0
   -0.6379   -5.9422   -6.3229 C   0  0  0  0  0  0  0  0  0  0  0  0
    0.3661   -6.6389   -5.5400 C   0  0  0  0  0  0  0  0  0  0  0  0
    1.6671   -6.6542   -5.9832 C   0  0  0  0  0  0  0  0  0  0  0  0
    2.0064   -6.1449   -7.2441 O   0  0  0  0  0  0  0  0  0  0  0  0
    1.0261   -5.7992   -8.2543 C   0  0  0  0  0  0  0  0  0  0  0  0
    0.8435   -7.0774   -9.1262 C   0  0  0  0  0  0  0  0  0  0  0  0
   -0.4573   -7.1623   -9.9397 C   0  0  0  0  0  0  0  0  0  0  0  0
    1.6597   -4.5974   -9.0290 C   0  0  0  0  0  0  0  0  0  0  0  0
    1.2771   -4.3918  -10.4996 C   0  0  0  0  0  0  0  0  0  0  0  0
   -0.3055   -5.4222   -7.5696 C   0  0  0  0  0  0  0  0  0  0  0  0
   -1.2789   -4.5314   -8.0480 C   0  0  0  0  0  0  0  0  0  0  0  0
    2.5814   -7.1361   -5.0466 C   0  0  0  0  0  0  0  0  0  0  0  0
    1.9596   -7.5161   -3.8572 C   0  0  0  0  0  0  0  0  0  0  0  0
    0.2947   -7.2182   -3.9631 S   0  0  0  0  0  0  0  0  0  0  0  0
    2.6541   -7.9607   -2.6506 C   0  0  0  0  0  0  0  0  0  0  0  0
    3.5597   -7.1950   -1.9180 C   0  0  0  0  0  0  0  0  0  0  0  0
    4.0596   -7.8768   -0.7964 C   0  0  0  0  0  0  0  0  0  0  0  0
    4.9386   -7.3563    0.1762 C   0  0  0  0  0  0  0  0  0  0  0  0
    5.4637   -5.9805    0.1042 C   0  0  0  0  0  0  0  0  0  0  0  0
    6.4512   -5.3933   -1.1256 S   0  0  0  0  0  0  0  0  0  0  0  0
    6.6412   -3.8498   -0.4825 C   0  0  0  0  0  0  0  0  0  0  0  0
    7.4117   -2.7443   -1.1401 C   0  0  0  0  0  0  0  0  0  0  0  0
    6.5207   -1.9500   -2.0868 C   0  0  0  0  0  0  0  0  0  0  0  0
    5.9138   -3.7661    0.7046 C   0  0  0  0  0  0  0  0  0  0  0  0
    5.8118   -2.3073    1.6775 Cl  0  0  0  0  0  0  0  0  0  0  0  0
    5.2603   -4.9640    1.0374 C   0  0  0  0  0  0  0  0  0  0  0  0
    4.2358   -5.1393    2.4579 Cl  0  0  0  0  0  0  0  0  0  0  0  0
    5.3009   -8.2206    1.2257 C   0  0  0  0  0  0  0  0  0  0  0  0
    4.8197   -9.5297    1.3283 C   0  0  0  0  0  0  0  0  0  0  0  0
    3.9326  -10.0416    0.3602 C   0  0  0  0  0  0  0  0  0  0  0  0
    3.4562  -11.4334    0.4040 C   0  0  0  0  0  0  0  0  0  0  0  0
    2.3911  -12.0517    1.5474 S   0  0  0  0  0  0  0  0  0  0  0  0
    2.4041  -13.6316    0.9622 C   0  0  0  0  0  0  0  0  0  0  0  0
    1.6963  -14.7823    1.6147 C   0  0  0  0  0  0  0  0  0  0  0  0
    2.6126  -15.4813    2.6123 C   0  0  0  0  0  0  0  0  0  0  0  0
    3.2782  -13.7000   -0.1213 C   0  0  0  0  0  0  0  0  0  0  0  0
    3.8600  -12.4616   -0.4408 C   0  0  0  0  0  0  0  0  0  0  0  0
    5.0259  -12.2471   -1.7368 Cl  0  0  0  0  0  0  0  0  0  0  0  0
    3.6598  -15.1888   -0.9733 Cl  0  0  0  0  0  0  0  0  0  0  0  0
    3.5607   -9.1806   -0.6819 C   0  0  0  0  0  0  0  0  0  0  0  0
    2.4734   -9.4749   -1.9343 S   0  0  0  0  0  0  0  0  0  0  0  0
    5.3421  -10.2242    2.4328 C   0  0  0  0  0  0  0  0  0  0  0  0
    6.2332   -9.4639    3.1867 C   0  0  0  0  0  0  0  0  0  0  0  0
    6.3761   -7.9372    2.4880 S   0  0  0  0  0  0  0  0  0  0  0  0
    3.4116   -4.7452   11.3990 H   0  0  0  0  0  0  0  0  0  0  0  0
    4.6853   -2.5072   11.0241 H   0  0  0  0  0  0  0  0  0  0  0  0
    9.1437    0.8126   10.4435 H   0  0  0  0  0  0  0  0  0  0  0  0
    8.8495   -0.3644    9.1148 H   0  0  0  0  0  0  0  0  0  0  0  0
    8.2202    1.4886    7.5686 H   0  0  0  0  0  0  0  0  0  0  0  0
    9.8761    1.7316    8.2514 H   0  0  0  0  0  0  0  0  0  0  0  0
    8.4874    2.6957    8.8863 H   0  0  0  0  0  0  0  0  0  0  0  0
   -5.0167   -2.6136    7.4602 H   0  0  0  0  0  0  0  0  0  0  0  0
   -3.9147   -2.3309    6.0708 H   0  0  0  0  0  0  0  0  0  0  0  0
   -4.1674   -4.9656    7.6599 H   0  0  0  0  0  0  0  0  0  0  0  0
   -4.8056   -4.6374    6.0013 H   0  0  0  0  0  0  0  0  0  0  0  0
   -3.0237   -4.6697    6.2913 H   0  0  0  0  0  0  0  0  0  0  0  0
   -0.8802    0.8663    8.1159 H   0  0  0  0  0  0  0  0  0  0  0  0
    2.2008    4.2154    6.6002 H   0  0  0  0  0  0  0  0  0  0  0  0
    6.6267    7.5424    3.7073 H   0  0  0  0  0  0  0  0  0  0  0  0
    5.5790    8.9443    4.0979 H   0  0  0  0  0  0  0  0  0  0  0  0
    6.6991    6.9146    6.1449 H   0  0  0  0  0  0  0  0  0  0  0  0
    5.6507    8.3426    6.5320 H   0  0  0  0  0  0  0  0  0  0  0  0
    7.3084    8.5865    5.8567 H   0  0  0  0  0  0  0  0  0  0  0  0
   -7.5850    3.0449    4.8305 H   0  0  0  0  0  0  0  0  0  0  0  0
   -6.3874    1.7210    4.6435 H   0  0  0  0  0  0  0  0  0  0  0  0
   -7.2398    3.6816    2.4093 H   0  0  0  0  0  0  0  0  0  0  0  0
   -6.0582    2.3172    2.2368 H   0  0  0  0  0  0  0  0  0  0  0  0
   -7.7926    1.9718    2.6001 H   0  0  0  0  0  0  0  0  0  0  0  0
   -3.1661    6.3442    2.4845 H   0  0  0  0  0  0  0  0  0  0  0  0
    0.0640    6.5410   -0.6997 H   0  0  0  0  0  0  0  0  0  0  0  0
    2.4238    1.8232   -3.5159 H   0  0  0  0  0  0  0  0  0  0  0  0
    3.8371    2.9075   -3.7352 H   0  0  0  0  0  0  0  0  0  0  0  0
    3.8387    3.3849   -1.2552 H   0  0  0  0  0  0  0  0  0  0  0  0
    4.0100    1.6241   -1.6095 H   0  0  0  0  0  0  0  0  0  0  0  0
    2.4198    2.2792   -1.0596 H   0  0  0  0  0  0  0  0  0  0  0  0
   -8.5293   10.1638   -1.9143 H   0  0  0  0  0  0  0  0  0  0  0  0
   -9.6806    8.8065   -1.6796 H   0  0  0  0  0  0  0  0  0  0  0  0
   -8.5354    9.7380   -4.4009 H   0  0  0  0  0  0  0  0  0  0  0  0
   -9.7459    8.4129   -4.1513 H   0  0  0  0  0  0  0  0  0  0  0  0
  -10.1802   10.1227   -3.7556 H   0  0  0  0  0  0  0  0  0  0  0  0
   -5.5658    5.5724   -4.8369 H   0  0  0  0  0  0  0  0  0  0  0  0
   -5.2765    2.6368   -4.7930 H   0  0  0  0  0  0  0  0  0  0  0  0
   -5.4245   -0.6363   -0.2606 H   0  0  0  0  0  0  0  0  0  0  0  0
   -7.0811    0.0483   -0.1828 H   0  0  0  0  0  0  0  0  0  0  0  0
   -8.0290   -2.1670   -0.9325 H   0  0  0  0  0  0  0  0  0  0  0  0
   -7.0614   -2.3141    0.5828 H   0  0  0  0  0  0  0  0  0  0  0  0
   -6.3496   -2.8469   -0.9897 H   0  0  0  0  0  0  0  0  0  0  0  0
   -0.1517    0.7996  -13.3191 H   0  0  0  0  0  0  0  0  0  0  0  0
    0.5551    1.6616  -11.9083 H   0  0  0  0  0  0  0  0  0  0  0  0
   -1.1110    3.5397  -12.2401 H   0  0  0  0  0  0  0  0  0  0  0  0
   -0.0445    3.2845  -13.6729 H   0  0  0  0  0  0  0  0  0  0  0  0
   -1.7473    2.6785  -13.7018 H   0  0  0  0  0  0  0  0  0  0  0  0
   -2.5407   -2.1934   -9.0416 H   0  0  0  0  0  0  0  0  0  0  0  0
    0.8536   -7.9696   -8.4572 H   0  0  0  0  0  0  0  0  0  0  0  0
    1.7167   -7.1969   -9.8037 H   0  0  0  0  0  0  0  0  0  0  0  0
   -1.3140   -7.3977   -9.2726 H   0  0  0  0  0  0  0  0  0  0  0  0
   -0.6792   -6.2206  -10.4741 H   0  0  0  0  0  0  0  0  0  0  0  0
   -0.3665   -7.9703  -10.6939 H   0  0  0  0  0  0  0  0  0  0  0  0
    2.7678   -4.7234   -9.0193 H   0  0  0  0  0  0  0  0  0  0  0  0
    1.4648   -3.6544   -8.4736 H   0  0  0  0  0  0  0  0  0  0  0  0
    0.2172   -4.1088  -10.6208 H   0  0  0  0  0  0  0  0  0  0  0  0
    1.5026   -5.2869  -11.1082 H   0  0  0  0  0  0  0  0  0  0  0  0
    1.8840   -3.5592  -10.9104 H   0  0  0  0  0  0  0  0  0  0  0  0
   -1.1813   -3.9939   -8.9743 H   0  0  0  0  0  0  0  0  0  0  0  0
    3.6486   -7.1869   -5.2182 H   0  0  0  0  0  0  0  0  0  0  0  0
    3.8176   -6.1736   -2.1745 H   0  0  0  0  0  0  0  0  0  0  0  0
    8.2611   -3.1784   -1.7064 H   0  0  0  0  0  0  0  0  0  0  0  0
    7.8387   -2.0641   -0.3740 H   0  0  0  0  0  0  0  0  0  0  0  0
    7.1280   -1.1760   -2.5982 H   0  0  0  0  0  0  0  0  0  0  0  0
    6.0762   -2.6199   -2.8578 H   0  0  0  0  0  0  0  0  0  0  0  0
    5.7056   -1.4481   -1.5230 H   0  0  0  0  0  0  0  0  0  0  0  0
    0.7957  -14.4089    2.1471 H   0  0  0  0  0  0  0  0  0  0  0  0
    1.3582  -15.5063    0.8435 H   0  0  0  0  0  0  0  0  0  0  0  0
    2.9798  -14.7574    3.3722 H   0  0  0  0  0  0  0  0  0  0  0  0
    2.0567  -16.2951    3.1258 H   0  0  0  0  0  0  0  0  0  0  0  0
    3.4867  -15.9220    2.0893 H   0  0  0  0  0  0  0  0  0  0  0  0
    5.0944  -11.2497    2.6764 H   0  0  0  0  0  0  0  0  0  0  0  0
    6.7488   -9.8009    4.0754 H   0  0  0  0  0  0  0  0  0  0  0  0
  1  2  2  0
  2  3  1  0
  3  4  2  0
  4  5  1  0
  5  6  1  0
  6  7  1  0
  7  8  1  0
  8  9  1  0
  7 10  2  0
 10 11  1  0
 10 12  1  0
 12 13  1  0
  4 14  1  0
 14 15  2  0
 15 16  1  0
 16 17  1  0
 17 18  1  0
 18 19  1  0
 19 20  1  0
 20 21  1  0
 19 22  2  0
 22 23  1  0
 23 24  1  0
 22 25  1  0
 16 26  2  0
 26 27  1  0
 15 28  1  0
 28 29  2  0
 29 30  1  0
 29 31  1  0
 31 32  2  0
 32 33  1  0
 33 34  2  0
 34 35  1  0
 35 36  1  0
 36 37  1  0
 37 38  1  0
 38 39  1  0
 37 40  2  0
 40 41  1  0
 40 42  1  0
 42 43  1  0
 34 44  1  0
 44 45  2  0
 45 46  1  0
 46 47  1  0
 47 48  1  0
 48 49  1  0
 49 50  1  0
 50 51  1  0
 49 52  2  0
 52 53  1  0
 53 54  1  0
 52 55  1  0
 46 56  2  0
 56 57  1  0
 45 58  1  0
 58 59  2  0
 59 60  1  0
 59 61  1  0
 61 62  2  0
 62 63  1  0
 63 64  2  0
 64 65  1  0
 65 66  1  0
 66 67  1  0
 67 68  1  0
 68 69  1  0
 67 70  2  0
 70 71  1  0
 70 72  1  0
 72 73  1  0
 64 74  1  0
 74 75  2  0
 75 76  1  0
 76 77  1  0
 77 78  1  0
 78 79  1  0
 79 80  1  0
 80 81  1  0
 79 82  2  0
 82 83  1  0
 83 84  1  0
 82 85  1  0
 76 86  2  0
 86 87  1  0
 75 88  1  0
 88 89  2  0
 89 90  1  0
 89 91  1  0
 91 92  2  0
 92 93  1  0
 93 94  2  0
 94 95  1  0
 95 96  1  0
 96 97  1  0
 97 98  1  0
 98 99  1  0
 97100  2  0
100101  1  0
100102  1  0
102103  1  0
 94104  1  0
104105  2  0
105106  1  0
106107  1  0
107108  1  0
108109  1  0
109110  1  0
110111  1  0
109112  2  0
112113  1  0
113114  1  0
112115  1  0
106116  2  0
116117  1  0
105118  1  0
118119  2  0
119120  1  0
119121  1  0
121122  1  0
122123  1  0
123124  1  0
124125  2  0
125126  1  0
126127  1  0
127128  1  0
128129  1  0
127130  1  0
130131  1  0
127132  1  0
132133  1  0
125134  1  0
134135  2  0
135136  1  0
135137  1  0
137138  2  0
138139  1  0
139140  2  0
140141  1  0
141142  1  0
142143  1  0
143144  1  0
144145  1  0
143146  2  0
146147  1  0
146148  1  0
148149  1  0
140150  1  0
150151  2  0
151152  1  0
152153  1  0
153154  1  0
154155  1  0
155156  1  0
156157  1  0
155158  2  0
158159  1  0
159160  1  0
158161  1  0
152162  2  0
162163  1  0
151164  1  0
164165  2  0
165166  1  0
 27  1  1  0
 57 31  1  0
 87 61  1  0
117 91  1  0
133121  2  0
163137  1  0
 26  3  1  0
 56 33  1  0
 86 63  1  0
116 93  1  0
132123  2  0
162139  1  0
 12  5  2  0
 30 14  1  0
 42 35  2  0
 60 44  1  0
 72 65  2  0
 90 74  1  0
102 95  2  0
120104  1  0
136124  1  0
148141  2  0
166150  1  0
 23 17  2  0
 53 47  2  0
 83 77  2  0
113107  2  0
159153  2  0
  1167  1  0
  2168  1  0
  8169  1  0
  8170  1  0
  9171  1  0
  9172  1  0
  9173  1  0
 20174  1  0
 20175  1  0
 21176  1  0
 21177  1  0
 21178  1  0
 28179  1  0
 32180  1  0
 38181  1  0
 38182  1  0
 39183  1  0
 39184  1  0
 39185  1  0
 50186  1  0
 50187  1  0
 51188  1  0
 51189  1  0
 51190  1  0
 58191  1  0
 62192  1  0
 68193  1  0
 68194  1  0
 69195  1  0
 69196  1  0
 69197  1  0
 80198  1  0
 80199  1  0
 81200  1  0
 81201  1  0
 81202  1  0
 88203  1  0
 92204  1  0
 98205  1  0
 98206  1  0
 99207  1  0
 99208  1  0
 99209  1  0
110210  1  0
110211  1  0
111212  1  0
111213  1  0
111214  1  0
118215  1  0
128216  1  0
128217  1  0
129218  1  0
129219  1  0
129220  1  0
130221  1  0
130222  1  0
131223  1  0
131224  1  0
131225  1  0
133226  1  0
134227  1  0
138228  1  0
144229  1  0
144230  1  0
145231  1  0
145232  1  0
145233  1  0
156234  1  0
156235  1  0
157236  1  0
157237  1  0
157238  1  0
164239  1  0
165240  1  0
M  END

