
     RDKit          3D

212235  0  0  0  0  0  0  0  0999 V2000
    3.8988  -12.7165    0.7094 C   0  0  0  0  0  0  0  0  0  0  0  0
    3.7666  -11.3442    0.5112 C   0  0  0  0  0  0  0  0  0  0  0  0
    2.6928  -10.7833    1.2215 C   0  0  0  0  0  0  0  0  0  0  0  0
    2.3018   -9.4292    1.2149 C   0  0  0  0  0  0  0  0  0  0  0  0
    3.0699   -8.3924    0.5024 C   0  0  0  0  0  0  0  0  0  0  0  0
    2.4566   -7.4025   -0.7108 S   0  0  0  0  0  0  0  0  0  0  0  0
    3.8453   -6.4738   -0.9107 C   0  0  0  0  0  0  0  0  0  0  0  0
    3.9521   -5.2858   -1.8175 C   0  0  0  0  0  0  0  0  0  0  0  0
    3.4166   -4.0338   -1.1288 C   0  0  0  0  0  0  0  0  0  0  0  0
    4.8056   -6.9109    0.0024 C   0  0  0  0  0  0  0  0  0  0  0  0
    6.3834   -6.1576    0.1859 Cl  0  0  0  0  0  0  0  0  0  0  0  0
    4.3731   -7.9902    0.7888 C   0  0  0  0  0  0  0  0  0  0  0  0
    5.3464   -8.6930    2.0749 Cl  0  0  0  0  0  0  0  0  0  0  0  0
    1.1604   -9.0968    1.9651 C   0  0  0  0  0  0  0  0  0  0  0  0
    0.4466  -10.0365    2.7159 C   0  0  0  0  0  0  0  0  0  0  0  0
    0.8488  -11.3881    2.7349 C   0  0  0  0  0  0  0  0  0  0  0  0
    0.1457  -12.4002    3.5424 C   0  0  0  0  0  0  0  0  0  0  0  0
    0.8302  -13.2400    4.8295 S   0  0  0  0  0  0  0  0  0  0  0  0
   -0.5512  -14.1093    5.2311 C   0  0  0  0  0  0  0  0  0  0  0  0
   -0.6198  -15.1482    6.3111 C   0  0  0  0  0  0  0  0  0  0  0  0
   -0.2794  -16.5262    5.7537 C   0  0  0  0  0  0  0  0  0  0  0  0
   -1.5693  -13.7660    4.3416 C   0  0  0  0  0  0  0  0  0  0  0  0
   -1.1810  -12.8012    3.4000 C   0  0  0  0  0  0  0  0  0  0  0  0
   -2.2443  -12.2081    2.1303 Cl  0  0  0  0  0  0  0  0  0  0  0  0
   -3.1756  -14.4803    4.3835 Cl  0  0  0  0  0  0  0  0  0  0  0  0
    1.9807  -11.7257    1.9709 C   0  0  0  0  0  0  0  0  0  0  0  0
    2.6836  -13.2392    1.7554 S   0  0  0  0  0  0  0  0  0  0  0  0
   -0.6102   -9.4718    3.4520 C   0  0  0  0  0  0  0  0  0  0  0  0
   -0.7251   -8.0943    3.2686 C   0  0  0  0  0  0  0  0  0  0  0  0
    0.4897   -7.5773    2.2171 S   0  0  0  0  0  0  0  0  0  0  0  0
   -1.6724   -7.2013    3.9557 C   0  0  0  0  0  0  0  0  0  0  0  0
   -1.6115   -5.5217    3.8864 S   0  0  0  0  0  0  0  0  0  0  0  0
   -2.8870   -5.2949    4.9492 C   0  0  0  0  0  0  0  0  0  0  0  0
   -3.4006   -4.0405    5.4423 C   0  0  0  0  0  0  0  0  0  0  0  0
   -4.3022   -4.0360    6.4693 C   0  0  0  0  0  0  0  0  0  0  0  0
   -4.8364   -5.2358    6.9571 O   0  0  0  0  0  0  0  0  0  0  0  0
   -4.6074   -6.5475    6.3695 C   0  0  0  0  0  0  0  0  0  0  0  0
   -5.8976   -6.8512    5.5528 C   0  0  0  0  0  0  0  0  0  0  0  0
   -6.0677   -8.2801    5.0403 C   0  0  0  0  0  0  0  0  0  0  0  0
   -4.4428   -7.4834    7.6119 C   0  0  0  0  0  0  0  0  0  0  0  0
   -3.7324   -8.8295    7.4554 C   0  0  0  0  0  0  0  0  0  0  0  0
   -3.3784   -6.5074    5.4183 C   0  0  0  0  0  0  0  0  0  0  0  0
   -2.7093   -7.5902    4.8066 C   0  0  0  0  0  0  0  0  0  0  0  0
   -4.5576   -2.7628    6.9930 C   0  0  0  0  0  0  0  0  0  0  0  0
   -3.8373   -1.7689    6.3258 C   0  0  0  0  0  0  0  0  0  0  0  0
   -2.8847   -2.4822    5.1218 S   0  0  0  0  0  0  0  0  0  0  0  0
   -3.7271   -0.3569    6.7077 C   0  0  0  0  0  0  0  0  0  0  0  0
   -3.1358    0.8342    5.6753 S   0  0  0  0  0  0  0  0  0  0  0  0
   -2.9221    1.9833    6.8702 C   0  0  0  0  0  0  0  0  0  0  0  0
   -2.1141    3.1804    6.7771 C   0  0  0  0  0  0  0  0  0  0  0  0
   -1.5156    3.6737    7.9134 C   0  0  0  0  0  0  0  0  0  0  0  0
   -1.8797    3.1857    9.1805 O   0  0  0  0  0  0  0  0  0  0  0  0
   -2.9908    2.2687    9.3870 C   0  0  0  0  0  0  0  0  0  0  0  0
   -4.2844    3.0906    9.6442 C   0  0  0  0  0  0  0  0  0  0  0  0
   -4.2205    4.0252   10.8500 C   0  0  0  0  0  0  0  0  0  0  0  0
   -2.6585    1.3110   10.5743 C   0  0  0  0  0  0  0  0  0  0  0  0
   -1.7146    1.9024   11.6294 C   0  0  0  0  0  0  0  0  0  0  0  0
   -3.2454    1.4523    8.1079 C   0  0  0  0  0  0  0  0  0  0  0  0
   -3.7550    0.1405    8.0131 C   0  0  0  0  0  0  0  0  0  0  0  0
   -0.4616    4.5630    7.6555 C   0  0  0  0  0  0  0  0  0  0  0  0
   -0.2617    4.7529    6.2855 C   0  0  0  0  0  0  0  0  0  0  0  0
   -1.3523    3.7953    5.4241 S   0  0  0  0  0  0  0  0  0  0  0  0
    0.9490    5.2616    5.6440 C   0  0  0  0  0  0  0  0  0  0  0  0
    1.9840    4.3879    5.3101 C   0  0  0  0  0  0  0  0  0  0  0  0
    2.6295    4.7101    4.1056 C   0  0  0  0  0  0  0  0  0  0  0  0
    3.5158    3.8751    3.3934 C   0  0  0  0  0  0  0  0  0  0  0  0
    4.0113    2.6020    3.9433 C   0  0  0  0  0  0  0  0  0  0  0  0
    3.0669    1.2497    4.2764 S   0  0  0  0  0  0  0  0  0  0  0  0
    4.3355    0.2689    4.7881 C   0  0  0  0  0  0  0  0  0  0  0  0
    4.1731   -1.1154    5.3388 C   0  0  0  0  0  0  0  0  0  0  0  0
    3.9651   -1.0706    6.8494 C   0  0  0  0  0  0  0  0  0  0  0  0
    5.5206    0.9988    4.7126 C   0  0  0  0  0  0  0  0  0  0  0  0
    7.0870    0.3623    5.2003 Cl  0  0  0  0  0  0  0  0  0  0  0  0
    5.3400    2.3002    4.2224 C   0  0  0  0  0  0  0  0  0  0  0  0
    6.6554    3.4496    4.0177 Cl  0  0  0  0  0  0  0  0  0  0  0  0
    3.8257    4.2540    2.0772 C   0  0  0  0  0  0  0  0  0  0  0  0
    3.3525    5.4371    1.5018 C   0  0  0  0  0  0  0  0  0  0  0  0
    2.5041    6.2960    2.2297 C   0  0  0  0  0  0  0  0  0  0  0  0
    1.8854    7.4844    1.6198 C   0  0  0  0  0  0  0  0  0  0  0  0
    2.1980    9.0662    2.0923 S   0  0  0  0  0  0  0  0  0  0  0  0
    1.1441    9.7872    0.9988 C   0  0  0  0  0  0  0  0  0  0  0  0
    0.9702   11.2666    0.8368 C   0  0  0  0  0  0  0  0  0  0  0  0
    1.8696   11.7947   -0.2756 C   0  0  0  0  0  0  0  0  0  0  0  0
    0.5365    8.7896    0.2370 C   0  0  0  0  0  0  0  0  0  0  0  0
    0.9433    7.4963    0.5943 C   0  0  0  0  0  0  0  0  0  0  0  0
    0.2897    6.0404   -0.1465 Cl  0  0  0  0  0  0  0  0  0  0  0  0
   -0.6212    9.1186   -1.0448 Cl  0  0  0  0  0  0  0  0  0  0  0  0
    2.1461    5.8875    3.5262 C   0  0  0  0  0  0  0  0  0  0  0  0
    0.8802    6.4696    4.4670 S   0  0  0  0  0  0  0  0  0  0  0  0
    3.6625    5.5490    0.1377 C   0  0  0  0  0  0  0  0  0  0  0  0
    4.2909    4.4154   -0.3755 C   0  0  0  0  0  0  0  0  0  0  0  0
    4.5298    3.3064    0.8768 S   0  0  0  0  0  0  0  0  0  0  0  0
    4.2863    4.0699   -1.8006 C   0  0  0  0  0  0  0  0  0  0  0  0
    4.4017    4.9913   -2.8385 C   0  0  0  0  0  0  0  0  0  0  0  0
    3.9502    4.4878   -4.0684 C   0  0  0  0  0  0  0  0  0  0  0  0
    3.8649    5.2076   -5.2751 C   0  0  0  0  0  0  0  0  0  0  0  0
    4.4363    6.5593   -5.4186 C   0  0  0  0  0  0  0  0  0  0  0  0
    3.5656    7.9394   -5.8312 S   0  0  0  0  0  0  0  0  0  0  0  0
    4.8891    8.9751   -5.8906 C   0  0  0  0  0  0  0  0  0  0  0  0
    4.8269   10.4029   -6.3447 C   0  0  0  0  0  0  0  0  0  0  0  0
    4.9571   10.4869   -7.8608 C   0  0  0  0  0  0  0  0  0  0  0  0
    6.0413    8.2430   -5.6120 C   0  0  0  0  0  0  0  0  0  0  0  0
    7.6624    8.9260   -5.6589 Cl  0  0  0  0  0  0  0  0  0  0  0  0
    5.7863    6.8909   -5.3404 C   0  0  0  0  0  0  0  0  0  0  0  0
    7.0571    5.7149   -5.0312 Cl  0  0  0  0  0  0  0  0  0  0  0  0
    3.2139    4.5731   -6.3465 C   0  0  0  0  0  0  0  0  0  0  0  0
    2.6984    3.2754   -6.2564 C   0  0  0  0  0  0  0  0  0  0  0  0
    2.8194    2.5405   -5.0606 C   0  0  0  0  0  0  0  0  0  0  0  0
    2.2336    1.1967   -4.9229 C   0  0  0  0  0  0  0  0  0  0  0  0
    2.7307   -0.1554   -5.7921 S   0  0  0  0  0  0  0  0  0  0  0  0
    1.5366   -1.1892   -5.2163 C   0  0  0  0  0  0  0  0  0  0  0  0
    1.4161   -2.6394   -5.5800 C   0  0  0  0  0  0  0  0  0  0  0  0
    2.0226   -3.5150   -4.4920 C   0  0  0  0  0  0  0  0  0  0  0  0
    0.7307   -0.4870   -4.3198 C   0  0  0  0  0  0  0  0  0  0  0  0
    1.1168    0.8532   -4.1627 C   0  0  0  0  0  0  0  0  0  0  0  0
    0.2263    1.9945   -3.1624 Cl  0  0  0  0  0  0  0  0  0  0  0  0
   -0.6344   -1.2058   -3.4692 Cl  0  0  0  0  0  0  0  0  0  0  0  0
    3.4568    3.1813   -3.9831 C   0  0  0  0  0  0  0  0  0  0  0  0
    3.6253    2.6367   -2.4025 S   0  0  0  0  0  0  0  0  0  0  0  0
    2.0193    2.8677   -7.4175 C   0  0  0  0  0  0  0  0  0  0  0  0
    2.0008    3.8509   -8.4067 C   0  0  0  0  0  0  0  0  0  0  0  0
    2.8412    5.2093   -7.8563 S   0  0  0  0  0  0  0  0  0  0  0  0
    1.2375    3.7901   -9.6624 C   0  0  0  0  0  0  0  0  0  0  0  0
    0.4610    2.4191  -10.2702 S   0  0  0  0  0  0  0  0  0  0  0  0
   -0.2671    3.2314  -11.5448 C   0  0  0  0  0  0  0  0  0  0  0  0
   -1.2057    2.7268  -12.5233 C   0  0  0  0  0  0  0  0  0  0  0  0
   -1.7165    3.5747  -13.4739 C   0  0  0  0  0  0  0  0  0  0  0  0
   -1.3530    4.9292  -13.5087 O   0  0  0  0  0  0  0  0  0  0  0  0
   -0.6164    5.5938  -12.4487 C   0  0  0  0  0  0  0  0  0  0  0  0
   -1.5979    6.4452  -11.5788 C   0  0  0  0  0  0  0  0  0  0  0  0
   -2.9006    6.8366  -12.2854 C   0  0  0  0  0  0  0  0  0  0  0  0
    0.4853    6.4701  -13.1076 C   0  0  0  0  0  0  0  0  0  0  0  0
   -0.0461    7.5538  -14.0467 C   0  0  0  0  0  0  0  0  0  0  0  0
    0.0681    4.5745  -11.5233 C   0  0  0  0  0  0  0  0  0  0  0  0
    0.9187    4.8909  -10.4541 C   0  0  0  0  0  0  0  0  0  0  0  0
   -2.5877    2.9527  -14.3710 C   0  0  0  0  0  0  0  0  0  0  0  0
   -2.7563    1.5959  -14.0949 C   0  0  0  0  0  0  0  0  0  0  0  0
   -1.8156    1.1814  -12.7508 S   0  0  0  0  0  0  0  0  0  0  0  0
    4.6524  -13.3433    0.2534 H   0  0  0  0  0  0  0  0  0  0  0  0
    4.4253  -10.7801   -0.1370 H   0  0  0  0  0  0  0  0  0  0  0  0
    5.0088   -5.1216   -2.1111 H   0  0  0  0  0  0  0  0  0  0  0  0
    3.3685   -5.4793   -2.7410 H   0  0  0  0  0  0  0  0  0  0  0  0
    3.5416   -3.1577   -1.7995 H   0  0  0  0  0  0  0  0  0  0  0  0
    3.9738   -3.8415   -0.1872 H   0  0  0  0  0  0  0  0  0  0  0  0
    2.3366   -4.1555   -0.8981 H   0  0  0  0  0  0  0  0  0  0  0  0
   -1.6378  -15.1672    6.7572 H   0  0  0  0  0  0  0  0  0  0  0  0
    0.1009  -14.8889    7.1153 H   0  0  0  0  0  0  0  0  0  0  0  0
    0.7464  -16.5268    5.3248 H   0  0  0  0  0  0  0  0  0  0  0  0
   -1.0067  -16.8135    4.9647 H   0  0  0  0  0  0  0  0  0  0  0  0
   -0.3249  -17.2771    6.5720 H   0  0  0  0  0  0  0  0  0  0  0  0
   -1.2424  -10.0379    4.1208 H   0  0  0  0  0  0  0  0  0  0  0  0
   -6.7850   -6.6115    6.1791 H   0  0  0  0  0  0  0  0  0  0  0  0
   -5.9389   -6.1617    4.6798 H   0  0  0  0  0  0  0  0  0  0  0  0
   -6.9617   -8.3215    4.3822 H   0  0  0  0  0  0  0  0  0  0  0  0
   -5.1998   -8.6038    4.4359 H   0  0  0  0  0  0  0  0  0  0  0  0
   -6.2470   -8.9777    5.8823 H   0  0  0  0  0  0  0  0  0  0  0  0
   -5.4473   -7.6731    8.0529 H   0  0  0  0  0  0  0  0  0  0  0  0
   -3.8721   -6.9283    8.3878 H   0  0  0  0  0  0  0  0  0  0  0  0
   -3.8269   -9.3947    8.4063 H   0  0  0  0  0  0  0  0  0  0  0  0
   -2.6461   -8.6837    7.2717 H   0  0  0  0  0  0  0  0  0  0  0  0
   -4.1781   -9.4561    6.6633 H   0  0  0  0  0  0  0  0  0  0  0  0
   -2.9602   -8.6271    4.9528 H   0  0  0  0  0  0  0  0  0  0  0  0
   -5.2071   -2.5830    7.8385 H   0  0  0  0  0  0  0  0  0  0  0  0
   -5.1469    2.4028    9.7752 H   0  0  0  0  0  0  0  0  0  0  0  0
   -4.4962    3.7137    8.7482 H   0  0  0  0  0  0  0  0  0  0  0  0
   -4.3010    3.4471   11.7941 H   0  0  0  0  0  0  0  0  0  0  0  0
   -3.2866    4.6248   10.8422 H   0  0  0  0  0  0  0  0  0  0  0  0
   -5.0786    4.7328   10.8094 H   0  0  0  0  0  0  0  0  0  0  0  0
   -3.5952    0.9751   11.0712 H   0  0  0  0  0  0  0  0  0  0  0  0
   -2.1482    0.3990   10.1929 H   0  0  0  0  0  0  0  0  0  0  0  0
   -1.6189    1.1877   12.4746 H   0  0  0  0  0  0  0  0  0  0  0  0
   -0.7056    2.0549   11.1949 H   0  0  0  0  0  0  0  0  0  0  0  0
   -2.0773    2.8658   12.0301 H   0  0  0  0  0  0  0  0  0  0  0  0
   -4.0271   -0.4633    8.8697 H   0  0  0  0  0  0  0  0  0  0  0  0
    0.1878    4.9653    8.4229 H   0  0  0  0  0  0  0  0  0  0  0  0
    2.1342    3.4542    5.8330 H   0  0  0  0  0  0  0  0  0  0  0  0
    5.0723   -1.7238    5.1020 H   0  0  0  0  0  0  0  0  0  0  0  0
    3.2933   -1.6014    4.8641 H   0  0  0  0  0  0  0  0  0  0  0  0
    3.0258   -0.5315    7.0899 H   0  0  0  0  0  0  0  0  0  0  0  0
    4.8237   -0.5629    7.3403 H   0  0  0  0  0  0  0  0  0  0  0  0
    3.8947   -2.1071    7.2455 H   0  0  0  0  0  0  0  0  0  0  0  0
    1.2295   11.7766    1.7885 H   0  0  0  0  0  0  0  0  0  0  0  0
   -0.0895   11.4961    0.6021 H   0  0  0  0  0  0  0  0  0  0  0  0
    1.7551   12.8967   -0.3542 H   0  0  0  0  0  0  0  0  0  0  0  0
    2.9329   11.5593   -0.0564 H   0  0  0  0  0  0  0  0  0  0  0  0
    1.5875   11.3379   -1.2484 H   0  0  0  0  0  0  0  0  0  0  0  0
    3.3116    6.3575   -0.4886 H   0  0  0  0  0  0  0  0  0  0  0  0
    4.7173    6.0173   -2.6845 H   0  0  0  0  0  0  0  0  0  0  0  0
    5.6418   10.9868   -5.8698 H   0  0  0  0  0  0  0  0  0  0  0  0
    3.8575   10.8457   -6.0329 H   0  0  0  0  0  0  0  0  0  0  0  0
    4.1254    9.9375   -8.3515 H   0  0  0  0  0  0  0  0  0  0  0  0
    4.9150   11.5511   -8.1786 H   0  0  0  0  0  0  0  0  0  0  0  0
    5.9282   10.0564   -8.1894 H   0  0  0  0  0  0  0  0  0  0  0  0
    1.9431   -2.8289   -6.5378 H   0  0  0  0  0  0  0  0  0  0  0  0
    0.3468   -2.9040   -5.7206 H   0  0  0  0  0  0  0  0  0  0  0  0
    1.9493   -4.5822   -4.7862 H   0  0  0  0  0  0  0  0  0  0  0  0
    3.0923   -3.2563   -4.3446 H   0  0  0  0  0  0  0  0  0  0  0  0
    1.4765   -3.3769   -3.5356 H   0  0  0  0  0  0  0  0  0  0  0  0
    1.5079    1.9197   -7.5179 H   0  0  0  0  0  0  0  0  0  0  0  0
   -1.8971    5.8766  -10.6689 H   0  0  0  0  0  0  0  0  0  0  0  0
   -1.0899    7.3632  -11.2111 H   0  0  0  0  0  0  0  0  0  0  0  0
   -2.7048    7.3613  -13.2401 H   0  0  0  0  0  0  0  0  0  0  0  0
   -3.4887    7.5119  -11.6279 H   0  0  0  0  0  0  0  0  0  0  0  0
   -3.5150    5.9340  -12.4820 H   0  0  0  0  0  0  0  0  0  0  0  0
    1.1600    5.8085  -13.6951 H   0  0  0  0  0  0  0  0  0  0  0  0
    1.1060    6.9650  -12.3298 H   0  0  0  0  0  0  0  0  0  0  0  0
   -0.5749    8.3415  -13.4722 H   0  0  0  0  0  0  0  0  0  0  0  0
    0.8045    8.0336  -14.5741 H   0  0  0  0  0  0  0  0  0  0  0  0
   -0.7283    7.1217  -14.8071 H   0  0  0  0  0  0  0  0  0  0  0  0
    1.2303    5.9006  -10.2242 H   0  0  0  0  0  0  0  0  0  0  0  0
   -3.0817    3.4665  -15.1833 H   0  0  0  0  0  0  0  0  0  0  0  0
   -3.3882    0.9187  -14.6541 H   0  0  0  0  0  0  0  0  0  0  0  0
  1  2  2  0
  2  3  1  0
  3  4  2  0
  4  5  1  0
  5  6  1  0
  6  7  1  0
  7  8  1  0
  8  9  1  0
  7 10  2  0
 10 11  1  0
 10 12  1  0
 12 13  1  0
  4 14  1  0
 14 15  2  0
 15 16  1  0
 16 17  1  0
 17 18  1  0
 18 19  1  0
 19 20  1  0
 20 21  1  0
 19 22  2  0
 22 23  1  0
 23 24  1  0
 22 25  1  0
 16 26  2  0
 26 27  1  0
 15 28  1  0
 28 29  2  0
 29 30  1  0
 29 31  1  0
 31 32  1  0
 32 33  1  0
 33 34  1  0
 34 35  2  0
 35 36  1  0
 36 37  1  0
 37 38  1  0
 38 39  1  0
 37 40  1  0
 40 41  1  0
 37 42  1  0
 42 43  1  0
 35 44  1  0
 44 45  2  0
 45 46  1  0
 45 47  1  0
 47 48  1  0
 48 49  1  0
 49 50  1  0
 50 51  2  0
 51 52  1  0
 52 53  1  0
 53 54  1  0
 54 55  1  0
 53 56  1  0
 56 57  1  0
 53 58  1  0
 58 59  1  0
 51 60  1  0
 60 61  2  0
 61 62  1  0
 61 63  1  0
 63 64  2  0
 64 65  1  0
 65 66  2  0
 66 67  1  0
 67 68  1  0
 68 69  1  0
 69 70  1  0
 70 71  1  0
 69 72  2  0
 72 73  1  0
 72 74  1  0
 74 75  1  0
 66 76  1  0
 76 77  2  0
 77 78  1  0
 78 79  1  0
 79 80  1  0
 80 81  1  0
 81 82  1  0
 82 83  1  0
 81 84  2  0
 84 85  1  0
 85 86  1  0
 84 87  1  0
 78 88  2  0
 88 89  1  0
 77 90  1  0
 90 91  2  0
 91 92  1  0
 91 93  1  0
 93 94  2  0
 94 95  1  0
 95 96  2  0
 96 97  1  0
 97 98  1  0
 98 99  1  0
 99100  1  0
100101  1  0
 99102  2  0
102103  1  0
102104  1  0
104105  1  0
 96106  1  0
106107  2  0
107108  1  0
108109  1  0
109110  1  0
110111  1  0
111112  1  0
112113  1  0
111114  2  0
114115  1  0
115116  1  0
114117  1  0
108118  2  0
118119  1  0
107120  1  0
120121  2  0
121122  1  0
121123  1  0
123124  1  0
124125  1  0
125126  1  0
126127  2  0
127128  1  0
128129  1  0
129130  1  0
130131  1  0
129132  1  0
132133  1  0
129134  1  0
134135  1  0
127136  1  0
136137  2  0
137138  1  0
 27  1  1  0
 43 31  2  0
 59 47  2  0
 89 63  1  0
119 93  1  0
135123  2  0
 26  3  1  0
 42 33  2  0
 58 49  2  0
 88 65  1  0
118 95  1  0
134125  2  0
 12  5  2  0
 30 14  1  0
 46 34  1  0
 62 50  1  0
 74 67  2  0
 92 76  1  0
104 97  2  0
122106  1  0
138126  1  0
 23 17  2  0
 85 79  2  0
115109  2  0
  1139  1  0
  2140  1  0
  8141  1  0
  8142  1  0
  9143  1  0
  9144  1  0
  9145  1  0
 20146  1  0
 20147  1  0
 21148  1  0
 21149  1  0
 21150  1  0
 28151  1  0
 38152  1  0
 38153  1  0
 39154  1  0
 39155  1  0
 39156  1  0
 40157  1  0
 40158  1  0
 41159  1  0
 41160  1  0
 41161  1  0
 43162  1  0
 44163  1  0
 54164  1  0
 54165  1  0
 55166  1  0
 55167  1  0
 55168  1  0
 56169  1  0
 56170  1  0
 57171  1  0
 57172  1  0
 57173  1  0
 59174  1  0
 60175  1  0
 64176  1  0
 70177  1  0
 70178  1  0
 71179  1  0
 71180  1  0
 71181  1  0
 82182  1  0
 82183  1  0
 83184  1  0
 83185  1  0
 83186  1  0
 90187  1  0
 94188  1  0
100189  1  0
100190  1  0
101191  1  0
101192  1  0
101193  1  0
112194  1  0
112195  1  0
113196  1  0
113197  1  0
113198  1  0
120199  1  0
130200  1  0
130201  1  0
131202  1  0
131203  1  0
131204  1  0
132205  1  0
132206  1  0
133207  1  0
133208  1  0
133209  1  0
135210  1  0
136211  1  0
137212  1  0
M  END

