
     RDKit          3D

198219  0  0  0  0  0  0  0  0999 V2000
   13.8859   -4.4834    9.7800 C   0  0  0  0  0  0  0  0  0  0  0  0
   13.4079   -3.2400    9.3731 C   0  0  0  0  0  0  0  0  0  0  0  0
   12.0055   -3.1812    9.3139 C   0  0  0  0  0  0  0  0  0  0  0  0
   11.2328   -2.0692    8.9296 C   0  0  0  0  0  0  0  0  0  0  0  0
   11.8467   -0.8234    8.4327 C   0  0  0  0  0  0  0  0  0  0  0  0
   12.6640   -0.6920    6.9686 S   0  0  0  0  0  0  0  0  0  0  0  0
   12.8587    0.9771    7.0214 C   0  0  0  0  0  0  0  0  0  0  0  0
   13.4487    1.7962    5.9120 C   0  0  0  0  0  0  0  0  0  0  0  0
   12.3821    2.1689    4.8886 C   0  0  0  0  0  0  0  0  0  0  0  0
   12.2591    1.4611    8.1837 C   0  0  0  0  0  0  0  0  0  0  0  0
   12.1831    3.1678    8.5984 Cl  0  0  0  0  0  0  0  0  0  0  0  0
   11.6946    0.4498    8.9766 C   0  0  0  0  0  0  0  0  0  0  0  0
   10.8853    0.7616   10.5096 Cl  0  0  0  0  0  0  0  0  0  0  0  0
    9.8374   -2.2347    8.9321 C   0  0  0  0  0  0  0  0  0  0  0  0
    9.2177   -3.4435    9.2690 C   0  0  0  0  0  0  0  0  0  0  0  0
    9.9921   -4.5514    9.6715 C   0  0  0  0  0  0  0  0  0  0  0  0
    9.3791   -5.8402   10.0363 C   0  0  0  0  0  0  0  0  0  0  0  0
    8.5371   -6.8417    8.9760 S   0  0  0  0  0  0  0  0  0  0  0  0
    8.1658   -8.0308   10.1079 C   0  0  0  0  0  0  0  0  0  0  0  0
    7.4184   -9.2949    9.8052 C   0  0  0  0  0  0  0  0  0  0  0  0
    8.3700  -10.4797    9.6911 C   0  0  0  0  0  0  0  0  0  0  0  0
    8.7082   -7.6601   11.3381 C   0  0  0  0  0  0  0  0  0  0  0  0
    9.3875   -6.4312   11.2983 C   0  0  0  0  0  0  0  0  0  0  0  0
   10.1340   -5.6937   12.7102 Cl  0  0  0  0  0  0  0  0  0  0  0  0
    8.5423   -8.6223   12.8020 Cl  0  0  0  0  0  0  0  0  0  0  0  0
   11.3884   -4.3808    9.6849 C   0  0  0  0  0  0  0  0  0  0  0  0
   12.5763   -5.5100   10.0662 S   0  0  0  0  0  0  0  0  0  0  0  0
    7.8185   -3.4037    9.1254 C   0  0  0  0  0  0  0  0  0  0  0  0
    7.3572   -2.1652    8.6776 C   0  0  0  0  0  0  0  0  0  0  0  0
    8.6671   -1.1271    8.4540 S   0  0  0  0  0  0  0  0  0  0  0  0
    5.9765   -1.8401    8.3029 C   0  0  0  0  0  0  0  0  0  0  0  0
    4.8393   -2.9581    7.7553 S   0  0  0  0  0  0  0  0  0  0  0  0
    3.7148   -1.8017    7.2867 C   0  0  0  0  0  0  0  0  0  0  0  0
    2.5650   -1.9877    6.4229 C   0  0  0  0  0  0  0  0  0  0  0  0
    2.0152   -0.8919    5.7994 C   0  0  0  0  0  0  0  0  0  0  0  0
    2.4229    0.4121    6.1151 O   0  0  0  0  0  0  0  0  0  0  0  0
    3.4098    0.7267    7.1267 C   0  0  0  0  0  0  0  0  0  0  0  0
    4.3270    1.8294    6.5315 C   0  0  0  0  0  0  0  0  0  0  0  0
    4.9692    1.4169    5.2031 C   0  0  0  0  0  0  0  0  0  0  0  0
    2.6220    1.2613    8.3518 C   0  0  0  0  0  0  0  0  0  0  0  0
    3.4761    1.7561    9.5227 C   0  0  0  0  0  0  0  0  0  0  0  0
    4.2083   -0.5273    7.5274 C   0  0  0  0  0  0  0  0  0  0  0  0
    5.4864   -0.5518    8.1107 C   0  0  0  0  0  0  0  0  0  0  0  0
    1.1535   -1.2107    4.7521 C   0  0  0  0  0  0  0  0  0  0  0  0
    1.0727   -2.5853    4.5229 C   0  0  0  0  0  0  0  0  0  0  0  0
    2.0578   -3.3869    5.6408 S   0  0  0  0  0  0  0  0  0  0  0  0
    0.5641   -3.1868    3.2825 C   0  0  0  0  0  0  0  0  0  0  0  0
    0.4832   -2.3588    1.8178 S   0  0  0  0  0  0  0  0  0  0  0  0
    0.1638   -3.7227    0.9069 C   0  0  0  0  0  0  0  0  0  0  0  0
    0.0685   -3.8163   -0.5263 C   0  0  0  0  0  0  0  0  0  0  0  0
   -0.1554   -5.0312   -1.1210 C   0  0  0  0  0  0  0  0  0  0  0  0
   -0.3235   -6.1930   -0.3503 O   0  0  0  0  0  0  0  0  0  0  0  0
   -0.1237   -6.2537    1.0903 C   0  0  0  0  0  0  0  0  0  0  0  0
    1.1411   -7.1434    1.3041 C   0  0  0  0  0  0  0  0  0  0  0  0
    1.2157   -7.9425    2.6111 C   0  0  0  0  0  0  0  0  0  0  0  0
   -1.4019   -6.8878    1.7001 C   0  0  0  0  0  0  0  0  0  0  0  0
   -2.6800   -6.1283    1.3318 C   0  0  0  0  0  0  0  0  0  0  0  0
    0.1070   -4.8540    1.7042 C   0  0  0  0  0  0  0  0  0  0  0  0
    0.3365   -4.5466    3.0606 C   0  0  0  0  0  0  0  0  0  0  0  0
   -0.1702   -4.9752   -2.5185 C   0  0  0  0  0  0  0  0  0  0  0  0
    0.0921   -3.6851   -2.9840 C   0  0  0  0  0  0  0  0  0  0  0  0
    0.3077   -2.6302   -1.6821 S   0  0  0  0  0  0  0  0  0  0  0  0
    0.2023   -3.2574   -4.3769 C   0  0  0  0  0  0  0  0  0  0  0  0
   -1.1292   -2.9440   -5.3640 S   0  0  0  0  0  0  0  0  0  0  0  0
   -0.2854   -1.9736   -6.4485 C   0  0  0  0  0  0  0  0  0  0  0  0
   -0.8389   -1.0575   -7.4265 C   0  0  0  0  0  0  0  0  0  0  0  0
   -0.0863    0.0240   -7.8315 C   0  0  0  0  0  0  0  0  0  0  0  0
    1.2741    0.1275   -7.4983 O   0  0  0  0  0  0  0  0  0  0  0  0
    2.0022   -0.8996   -6.7777 C   0  0  0  0  0  0  0  0  0  0  0  0
    2.9719   -0.2180   -5.7584 C   0  0  0  0  0  0  0  0  0  0  0  0
    3.4382    1.1873   -6.1596 C   0  0  0  0  0  0  0  0  0  0  0  0
    2.7588   -1.7929   -7.7954 C   0  0  0  0  0  0  0  0  0  0  0  0
    3.7597   -1.0486   -8.6807 C   0  0  0  0  0  0  0  0  0  0  0  0
    1.0286   -1.8270   -6.0307 C   0  0  0  0  0  0  0  0  0  0  0  0
    1.3113   -2.5759   -4.8772 C   0  0  0  0  0  0  0  0  0  0  0  0
   -0.8271    1.0317   -8.4543 C   0  0  0  0  0  0  0  0  0  0  0  0
   -2.1857    0.7191   -8.5233 C   0  0  0  0  0  0  0  0  0  0  0  0
   -2.4506   -0.7810   -7.7920 S   0  0  0  0  0  0  0  0  0  0  0  0
   -3.2634    1.6852   -8.7203 C   0  0  0  0  0  0  0  0  0  0  0  0
   -4.4969    1.3645   -9.2793 C   0  0  0  0  0  0  0  0  0  0  0  0
   -5.5218    2.2399   -8.8873 C   0  0  0  0  0  0  0  0  0  0  0  0
   -6.8876    2.1107   -9.2039 C   0  0  0  0  0  0  0  0  0  0  0  0
   -7.3781    1.0502  -10.1001 C   0  0  0  0  0  0  0  0  0  0  0  0
   -7.3143   -0.5977   -9.7690 S   0  0  0  0  0  0  0  0  0  0  0  0
   -7.9499   -1.0968  -11.2431 C   0  0  0  0  0  0  0  0  0  0  0  0
   -8.0629   -2.5281  -11.6731 C   0  0  0  0  0  0  0  0  0  0  0  0
   -6.7363   -3.0254  -12.2364 C   0  0  0  0  0  0  0  0  0  0  0  0
   -8.2040    0.0297  -12.0265 C   0  0  0  0  0  0  0  0  0  0  0  0
   -8.8100   -0.0510  -13.6746 Cl  0  0  0  0  0  0  0  0  0  0  0  0
   -7.8958    1.2358  -11.3795 C   0  0  0  0  0  0  0  0  0  0  0  0
   -8.0868    2.8167  -12.1264 Cl  0  0  0  0  0  0  0  0  0  0  0  0
   -7.7775    2.9733   -8.5489 C   0  0  0  0  0  0  0  0  0  0  0  0
   -7.3497    3.9348   -7.6264 C   0  0  0  0  0  0  0  0  0  0  0  0
   -5.9742    4.1223   -7.3705 C   0  0  0  0  0  0  0  0  0  0  0  0
   -5.4971    5.1001   -6.3728 C   0  0  0  0  0  0  0  0  0  0  0  0
   -4.6928    4.7048   -4.9493 S   0  0  0  0  0  0  0  0  0  0  0  0
   -4.5743    6.2778   -4.3663 C   0  0  0  0  0  0  0  0  0  0  0  0
   -3.8717    6.6619   -3.0978 C   0  0  0  0  0  0  0  0  0  0  0  0
   -2.4053    6.9742   -3.3695 C   0  0  0  0  0  0  0  0  0  0  0  0
   -5.1535    7.1420   -5.2950 C   0  0  0  0  0  0  0  0  0  0  0  0
   -5.6817    6.4814   -6.4149 C   0  0  0  0  0  0  0  0  0  0  0  0
   -6.4647    7.3172   -7.7507 Cl  0  0  0  0  0  0  0  0  0  0  0  0
   -5.2076    8.8885   -5.0910 Cl  0  0  0  0  0  0  0  0  0  0  0  0
   -5.0864    3.2433   -8.0163 C   0  0  0  0  0  0  0  0  0  0  0  0
   -3.4373    3.0547   -7.7509 S   0  0  0  0  0  0  0  0  0  0  0  0
   -8.4090    4.5251   -6.9162 C   0  0  0  0  0  0  0  0  0  0  0  0
   -9.6588    4.0277   -7.2879 C   0  0  0  0  0  0  0  0  0  0  0  0
   -9.4574    2.8713   -8.5007 S   0  0  0  0  0  0  0  0  0  0  0  0
  -10.9033    4.2188   -6.5345 C   0  0  0  0  0  0  0  0  0  0  0  0
  -12.4447    3.8133   -7.0913 S   0  0  0  0  0  0  0  0  0  0  0  0
  -13.1936    4.0337   -5.6060 C   0  0  0  0  0  0  0  0  0  0  0  0
  -14.5898    3.8790   -5.2567 C   0  0  0  0  0  0  0  0  0  0  0  0
  -15.0048    4.1968   -3.9875 C   0  0  0  0  0  0  0  0  0  0  0  0
  -14.0892    4.6324   -3.0172 O   0  0  0  0  0  0  0  0  0  0  0  0
  -12.6559    4.4556   -3.1542 C   0  0  0  0  0  0  0  0  0  0  0  0
  -11.9686    5.6659   -2.4639 C   0  0  0  0  0  0  0  0  0  0  0  0
  -12.3110    5.8113   -0.9773 C   0  0  0  0  0  0  0  0  0  0  0  0
  -12.3107    3.0950   -2.4796 C   0  0  0  0  0  0  0  0  0  0  0  0
  -10.8238    2.7293   -2.4235 C   0  0  0  0  0  0  0  0  0  0  0  0
  -12.2677    4.4070   -4.6443 C   0  0  0  0  0  0  0  0  0  0  0  0
  -10.9707    4.5254   -5.1748 C   0  0  0  0  0  0  0  0  0  0  0  0
  -16.3821    4.0747   -3.8007 C   0  0  0  0  0  0  0  0  0  0  0  0
  -17.0408    3.6498   -4.9548 C   0  0  0  0  0  0  0  0  0  0  0  0
  -15.9081    3.4406   -6.1975 S   0  0  0  0  0  0  0  0  0  0  0  0
   14.9277   -4.7461    9.8912 H   0  0  0  0  0  0  0  0  0  0  0  0
   14.0617   -2.4126    9.1314 H   0  0  0  0  0  0  0  0  0  0  0  0
   13.9102    2.7191    6.3205 H   0  0  0  0  0  0  0  0  0  0  0  0
   14.2460    1.2112    5.4085 H   0  0  0  0  0  0  0  0  0  0  0  0
   12.8531    2.7316    4.0516 H   0  0  0  0  0  0  0  0  0  0  0  0
   11.9105    1.2521    4.4707 H   0  0  0  0  0  0  0  0  0  0  0  0
   11.6012    2.8113    5.3535 H   0  0  0  0  0  0  0  0  0  0  0  0
    6.6733   -9.4887   10.6053 H   0  0  0  0  0  0  0  0  0  0  0  0
    6.8702   -9.1814    8.8472 H   0  0  0  0  0  0  0  0  0  0  0  0
    8.8983  -10.6548   10.6520 H   0  0  0  0  0  0  0  0  0  0  0  0
    9.1170  -10.2973    8.8883 H   0  0  0  0  0  0  0  0  0  0  0  0
    7.7935  -11.3938    9.4360 H   0  0  0  0  0  0  0  0  0  0  0  0
    7.1673   -4.2439    9.3203 H   0  0  0  0  0  0  0  0  0  0  0  0
    3.7252    2.7483    6.3504 H   0  0  0  0  0  0  0  0  0  0  0  0
    5.1367    2.1059    7.2367 H   0  0  0  0  0  0  0  0  0  0  0  0
    4.1915    1.2412    4.4303 H   0  0  0  0  0  0  0  0  0  0  0  0
    5.5779    0.4969    5.3291 H   0  0  0  0  0  0  0  0  0  0  0  0
    5.6337    2.2304    4.8437 H   0  0  0  0  0  0  0  0  0  0  0  0
    1.9666    2.1003    8.0254 H   0  0  0  0  0  0  0  0  0  0  0  0
    1.9529    0.4559    8.7258 H   0  0  0  0  0  0  0  0  0  0  0  0
    2.8077    2.0976   10.3403 H   0  0  0  0  0  0  0  0  0  0  0  0
    4.1123    0.9419    9.9264 H   0  0  0  0  0  0  0  0  0  0  0  0
    4.1090    2.6180    9.2242 H   0  0  0  0  0  0  0  0  0  0  0  0
    6.0574    0.3351    8.3487 H   0  0  0  0  0  0  0  0  0  0  0  0
    0.6971   -0.4637    4.1169 H   0  0  0  0  0  0  0  0  0  0  0  0
    2.0587   -6.5178    1.2200 H   0  0  0  0  0  0  0  0  0  0  0  0
    1.1988   -7.8887    0.4788 H   0  0  0  0  0  0  0  0  0  0  0  0
    1.1331   -7.2919    3.4995 H   0  0  0  0  0  0  0  0  0  0  0  0
    0.4185   -8.7144    2.6463 H   0  0  0  0  0  0  0  0  0  0  0  0
    2.1945   -8.4654    2.6677 H   0  0  0  0  0  0  0  0  0  0  0  0
   -1.5061   -7.9307    1.3309 H   0  0  0  0  0  0  0  0  0  0  0  0
   -1.3289   -6.9260    2.8085 H   0  0  0  0  0  0  0  0  0  0  0  0
   -2.8331   -6.1362    0.2299 H   0  0  0  0  0  0  0  0  0  0  0  0
   -2.6296   -5.0769    1.6864 H   0  0  0  0  0  0  0  0  0  0  0  0
   -3.5578   -6.6164    1.8098 H   0  0  0  0  0  0  0  0  0  0  0  0
    0.3576   -5.2750    3.8563 H   0  0  0  0  0  0  0  0  0  0  0  0
   -0.3265   -5.8339   -3.1587 H   0  0  0  0  0  0  0  0  0  0  0  0
    3.8618   -0.8620   -5.5837 H   0  0  0  0  0  0  0  0  0  0  0  0
    2.4648   -0.0968   -4.7749 H   0  0  0  0  0  0  0  0  0  0  0  0
    2.6000    1.9124   -6.0672 H   0  0  0  0  0  0  0  0  0  0  0  0
    4.2540    1.5122   -5.4806 H   0  0  0  0  0  0  0  0  0  0  0  0
    3.8186    1.2273   -7.1973 H   0  0  0  0  0  0  0  0  0  0  0  0
    2.0138   -2.2831   -8.4643 H   0  0  0  0  0  0  0  0  0  0  0  0
    3.2980   -2.6063   -7.2607 H   0  0  0  0  0  0  0  0  0  0  0  0
    3.2827   -0.1678   -9.1574 H   0  0  0  0  0  0  0  0  0  0  0  0
    4.1190   -1.7285   -9.4828 H   0  0  0  0  0  0  0  0  0  0  0  0
    4.6420   -0.7339   -8.0859 H   0  0  0  0  0  0  0  0  0  0  0  0
    2.2671   -2.5515   -4.3673 H   0  0  0  0  0  0  0  0  0  0  0  0
   -0.4091    1.9859   -8.7467 H   0  0  0  0  0  0  0  0  0  0  0  0
   -4.6537    0.4710   -9.8711 H   0  0  0  0  0  0  0  0  0  0  0  0
   -8.8593   -2.6377  -12.4400 H   0  0  0  0  0  0  0  0  0  0  0  0
   -8.3457   -3.1528  -10.7973 H   0  0  0  0  0  0  0  0  0  0  0  0
   -5.9504   -2.9896  -11.4529 H   0  0  0  0  0  0  0  0  0  0  0  0
   -6.8487   -4.0736  -12.5805 H   0  0  0  0  0  0  0  0  0  0  0  0
   -6.4238   -2.4002  -13.0992 H   0  0  0  0  0  0  0  0  0  0  0  0
   -4.3633    7.5468   -2.6419 H   0  0  0  0  0  0  0  0  0  0  0  0
   -3.9393    5.8239   -2.3722 H   0  0  0  0  0  0  0  0  0  0  0  0
   -1.8946    6.0876   -3.8046 H   0  0  0  0  0  0  0  0  0  0  0  0
   -2.3183    7.8293   -4.0751 H   0  0  0  0  0  0  0  0  0  0  0  0
   -1.8978    7.2431   -2.4188 H   0  0  0  0  0  0  0  0  0  0  0  0
   -8.2703    5.2282   -6.1046 H   0  0  0  0  0  0  0  0  0  0  0  0
  -10.8658    5.6140   -2.5624 H   0  0  0  0  0  0  0  0  0  0  0  0
  -12.2951    6.5961   -2.9809 H   0  0  0  0  0  0  0  0  0  0  0  0
  -11.9164    6.7784   -0.6034 H   0  0  0  0  0  0  0  0  0  0  0  0
  -11.8361    4.9991   -0.3889 H   0  0  0  0  0  0  0  0  0  0  0  0
  -13.4097    5.7966   -0.8169 H   0  0  0  0  0  0  0  0  0  0  0  0
  -12.8421    2.2840   -3.0244 H   0  0  0  0  0  0  0  0  0  0  0  0
  -12.7158    3.0816   -1.4456 H   0  0  0  0  0  0  0  0  0  0  0  0
  -10.4140    2.5715   -3.4418 H   0  0  0  0  0  0  0  0  0  0  0  0
  -10.2372    3.5046   -1.8903 H   0  0  0  0  0  0  0  0  0  0  0  0
  -10.7087    1.7729   -1.8696 H   0  0  0  0  0  0  0  0  0  0  0  0
  -10.0969    4.7351   -4.5694 H   0  0  0  0  0  0  0  0  0  0  0  0
  -16.8830    4.2900   -2.8653 H   0  0  0  0  0  0  0  0  0  0  0  0
  -18.1053    3.4893   -5.0425 H   0  0  0  0  0  0  0  0  0  0  0  0
  1  2  2  0
  2  3  1  0
  3  4  2  0
  4  5  1  0
  5  6  1  0
  6  7  1  0
  7  8  1  0
  8  9  1  0
  7 10  2  0
 10 11  1  0
 10 12  1  0
 12 13  1  0
  4 14  1  0
 14 15  2  0
 15 16  1  0
 16 17  1  0
 17 18  1  0
 18 19  1  0
 19 20  1  0
 20 21  1  0
 19 22  2  0
 22 23  1  0
 23 24  1  0
 22 25  1  0
 16 26  2  0
 26 27  1  0
 15 28  1  0
 28 29  2  0
 29 30  1  0
 29 31  1  0
 31 32  1  0
 32 33  1  0
 33 34  1  0
 34 35  2  0
 35 36  1  0
 36 37  1  0
 37 38  1  0
 38 39  1  0
 37 40  1  0
 40 41  1  0
 37 42  1  0
 42 43  1  0
 35 44  1  0
 44 45  2  0
 45 46  1  0
 45 47  1  0
 47 48  1  0
 48 49  1  0
 49 50  1  0
 50 51  2  0
 51 52  1  0
 52 53  1  0
 53 54  1  0
 54 55  1  0
 53 56  1  0
 56 57  1  0
 53 58  1  0
 58 59  1  0
 51 60  1  0
 60 61  2  0
 61 62  1  0
 61 63  1  0
 63 64  1  0
 64 65  1  0
 65 66  1  0
 66 67  2  0
 67 68  1  0
 68 69  1  0
 69 70  1  0
 70 71  1  0
 69 72  1  0
 72 73  1  0
 69 74  1  0
 74 75  1  0
 67 76  1  0
 76 77  2  0
 77 78  1  0
 77 79  1  0
 79 80  2  0
 80 81  1  0
 81 82  2  0
 82 83  1  0
 83 84  1  0
 84 85  1  0
 85 86  1  0
 86 87  1  0
 85 88  2  0
 88 89  1  0
 88 90  1  0
 90 91  1  0
 82 92  1  0
 92 93  2  0
 93 94  1  0
 94 95  1  0
 95 96  1  0
 96 97  1  0
 97 98  1  0
 98 99  1  0
 97100  2  0
100101  1  0
101102  1  0
100103  1  0
 94104  2  0
104105  1  0
 93106  1  0
106107  2  0
107108  1  0
107109  1  0
109110  1  0
110111  1  0
111112  1  0
112113  2  0
113114  1  0
114115  1  0
115116  1  0
116117  1  0
115118  1  0
118119  1  0
115120  1  0
120121  1  0
113122  1  0
122123  2  0
123124  1  0
 27  1  1  0
 43 31  2  0
 59 47  2  0
 75 63  2  0
105 79  1  0
121109  2  0
 26  3  1  0
 42 33  2  0
 58 49  2  0
 74 65  2  0
104 81  1  0
120111  2  0
 12  5  2  0
 30 14  1  0
 46 34  1  0
 62 50  1  0
 78 66  1  0
 90 83  2  0
108 92  1  0
124112  1  0
 23 17  2  0
101 95  2  0
  1125  1  0
  2126  1  0
  8127  1  0
  8128  1  0
  9129  1  0
  9130  1  0
  9131  1  0
 20132  1  0
 20133  1  0
 21134  1  0
 21135  1  0
 21136  1  0
 28137  1  0
 38138  1  0
 38139  1  0
 39140  1  0
 39141  1  0
 39142  1  0
 40143  1  0
 40144  1  0
 41145  1  0
 41146  1  0
 41147  1  0
 43148  1  0
 44149  1  0
 54150  1  0
 54151  1  0
 55152  1  0
 55153  1  0
 55154  1  0
 56155  1  0
 56156  1  0
 57157  1  0
 57158  1  0
 57159  1  0
 59160  1  0
 60161  1  0
 70162  1  0
 70163  1  0
 71164  1  0
 71165  1  0
 71166  1  0
 72167  1  0
 72168  1  0
 73169  1  0
 73170  1  0
 73171  1  0
 75172  1  0
 76173  1  0
 80174  1  0
 86175  1  0
 86176  1  0
 87177  1  0
 87178  1  0
 87179  1  0
 98180  1  0
 98181  1  0
 99182  1  0
 99183  1  0
 99184  1  0
106185  1  0
116186  1  0
116187  1  0
117188  1  0
117189  1  0
117190  1  0
118191  1  0
118192  1  0
119193  1  0
119194  1  0
119195  1  0
121196  1  0
122197  1  0
123198  1  0
M  END

