
     RDKit          3D

105117  0  0  0  0  0  0  0  0999 V2000
    8.6606    1.4917    1.9924 C   0  0  0  0  0  0  0  0  0  0  0  0
    8.5056    2.1512    3.2104 C   0  0  0  0  0  0  0  0  0  0  0  0
    9.5515    2.6922    3.8840 N   0  0  0  0  0  0  0  0  0  0  0  0
    8.7739    3.2766    5.2196 S   0  0  0  0  0  0  0  0  0  0  0  0
    7.1780    2.8950    5.0160 N   0  0  0  0  0  0  0  0  0  0  0  0
    7.2186    2.2684    3.8123 C   0  0  0  0  0  0  0  0  0  0  0  0
    6.0846    1.7200    3.1772 C   0  0  0  0  0  0  0  0  0  0  0  0
    6.2698    1.0290    1.9640 C   0  0  0  0  0  0  0  0  0  0  0  0
    7.5399    0.9263    1.3751 C   0  0  0  0  0  0  0  0  0  0  0  0
    4.7176    1.7883    3.7453 C   0  0  0  0  0  0  0  0  0  0  0  0
    4.2318    2.8698    4.3724 C   0  0  0  0  0  0  0  0  0  0  0  0
    2.8389    2.9418    4.8816 C   0  0  0  0  0  0  0  0  0  0  0  0
    2.5279    3.7382    5.9936 C   0  0  0  0  0  0  0  0  0  0  0  0
    3.4578    4.4640    6.6649 N   0  0  0  0  0  0  0  0  0  0  0  0
    2.5187    5.1516    7.8372 S   0  0  0  0  0  0  0  0  0  0  0  0
    0.9842    4.5988    7.5720 N   0  0  0  0  0  0  0  0  0  0  0  0
    1.1909    3.8116    6.4838 C   0  0  0  0  0  0  0  0  0  0  0  0
    0.1656    3.0817    5.8664 C   0  0  0  0  0  0  0  0  0  0  0  0
    0.4767    2.3261    4.7210 C   0  0  0  0  0  0  0  0  0  0  0  0
    1.7901    2.2586    4.2401 C   0  0  0  0  0  0  0  0  0  0  0  0
   -1.2263    3.1762    6.3665 C   0  0  0  0  0  0  0  0  0  0  0  0
   -2.0805    2.1464    6.4858 C   0  0  0  0  0  0  0  0  0  0  0  0
   -1.7277    0.7196    6.2969 C   0  0  0  0  0  0  0  0  0  0  0  0
   -2.6066   -0.1459    5.6266 C   0  0  0  0  0  0  0  0  0  0  0  0
   -3.7886    0.2657    5.0999 N   0  0  0  0  0  0  0  0  0  0  0  0
   -4.3513   -1.1566    4.4761 S   0  0  0  0  0  0  0  0  0  0  0  0
   -3.2013   -2.2913    4.8197 N   0  0  0  0  0  0  0  0  0  0  0  0
   -2.2865   -1.5264    5.4711 C   0  0  0  0  0  0  0  0  0  0  0  0
   -1.0717   -2.0324    5.9661 C   0  0  0  0  0  0  0  0  0  0  0  0
   -0.2305   -1.1724    6.6891 C   0  0  0  0  0  0  0  0  0  0  0  0
   -0.5511    0.1815    6.8525 C   0  0  0  0  0  0  0  0  0  0  0  0
   -0.6712   -3.4442    5.7870 C   0  0  0  0  0  0  0  0  0  0  0  0
   -0.6084   -4.0918    4.6108 C   0  0  0  0  0  0  0  0  0  0  0  0
   -0.8142   -3.4885    3.2773 C   0  0  0  0  0  0  0  0  0  0  0  0
   -1.3038   -4.3688    1.9218 S   0  0  0  0  0  0  0  0  0  0  0  0
   -1.2672   -3.0602    0.8730 C   0  0  0  0  0  0  0  0  0  0  0  0
   -1.5528   -3.0163   -0.5450 C   0  0  0  0  0  0  0  0  0  0  0  0
   -1.4031   -1.8380   -1.2339 C   0  0  0  0  0  0  0  0  0  0  0  0
   -1.0041   -0.6581   -0.5860 O   0  0  0  0  0  0  0  0  0  0  0  0
   -0.7718   -0.5578    0.8425 C   0  0  0  0  0  0  0  0  0  0  0  0
    0.6302    0.0559    1.0642 C   0  0  0  0  0  0  0  0  0  0  0  0
    1.7669   -0.8305    0.5452 C   0  0  0  0  0  0  0  0  0  0  0  0
   -1.8740    0.3431    1.4561 C   0  0  0  0  0  0  0  0  0  0  0  0
   -1.9681    1.7374    0.8299 C   0  0  0  0  0  0  0  0  0  0  0  0
   -0.8571   -1.9224    1.5415 C   0  0  0  0  0  0  0  0  0  0  0  0
   -0.5843   -2.1632    2.8964 C   0  0  0  0  0  0  0  0  0  0  0  0
   -1.6497   -1.9540   -2.6022 C   0  0  0  0  0  0  0  0  0  0  0  0
   -1.9983   -3.2570   -2.9789 C   0  0  0  0  0  0  0  0  0  0  0  0
   -1.9777   -4.2470   -1.5998 S   0  0  0  0  0  0  0  0  0  0  0  0
   -2.2336   -3.7215   -4.3699 C   0  0  0  0  0  0  0  0  0  0  0  0
   -3.0662   -4.8200   -4.6604 C   0  0  0  0  0  0  0  0  0  0  0  0
   -3.7632   -5.4975   -3.7126 N   0  0  0  0  0  0  0  0  0  0  0  0
   -4.5216   -6.6356   -4.6376 S   0  0  0  0  0  0  0  0  0  0  0  0
   -4.0306   -6.3542   -6.1890 N   0  0  0  0  0  0  0  0  0  0  0  0
   -3.2181   -5.2814   -6.0030 C   0  0  0  0  0  0  0  0  0  0  0  0
   -2.5582   -4.6370   -7.0583 C   0  0  0  0  0  0  0  0  0  0  0  0
   -1.7307   -3.5400   -6.7595 C   0  0  0  0  0  0  0  0  0  0  0  0
   -1.5787   -3.0863   -5.4423 C   0  0  0  0  0  0  0  0  0  0  0  0
   -2.6626   -5.1714   -8.4358 C   0  0  0  0  0  0  0  0  0  0  0  0
   -2.7955   -4.4304   -9.5456 C   0  0  0  0  0  0  0  0  0  0  0  0
   -3.0286   -2.9701   -9.5687 C   0  0  0  0  0  0  0  0  0  0  0  0
   -2.3296   -2.1547  -10.4676 C   0  0  0  0  0  0  0  0  0  0  0  0
   -1.3799   -2.6329  -11.3132 N   0  0  0  0  0  0  0  0  0  0  0  0
   -0.9250   -1.2396  -12.0760 S   0  0  0  0  0  0  0  0  0  0  0  0
   -1.8480   -0.0402  -11.4140 N   0  0  0  0  0  0  0  0  0  0  0  0
   -2.5824   -0.7533  -10.5208 C   0  0  0  0  0  0  0  0  0  0  0  0
   -3.5536   -0.1685   -9.6912 C   0  0  0  0  0  0  0  0  0  0  0  0
   -4.2561   -1.0041   -8.7969 C   0  0  0  0  0  0  0  0  0  0  0  0
   -4.0067   -2.3827   -8.7479 C   0  0  0  0  0  0  0  0  0  0  0  0
   -3.7976    1.2940   -9.7538 C   0  0  0  0  0  0  0  0  0  0  0  0
   -4.9510    1.8650   -9.4021 C   0  0  0  0  0  0  0  0  0  0  0  0
    9.6389    1.4111    1.5340 H   0  0  0  0  0  0  0  0  0  0  0  0
    5.4239    0.5754    1.4609 H   0  0  0  0  0  0  0  0  0  0  0  0
    7.6553    0.3976    0.4377 H   0  0  0  0  0  0  0  0  0  0  0  0
    4.0777    0.9301    3.5780 H   0  0  0  0  0  0  0  0  0  0  0  0
    4.8672    3.7335    4.5183 H   0  0  0  0  0  0  0  0  0  0  0  0
   -0.3046    1.8055    4.1806 H   0  0  0  0  0  0  0  0  0  0  0  0
    1.9822    1.6933    3.3440 H   0  0  0  0  0  0  0  0  0  0  0  0
   -1.5880    4.1596    6.6416 H   0  0  0  0  0  0  0  0  0  0  0  0
   -3.1081    2.3719    6.7525 H   0  0  0  0  0  0  0  0  0  0  0  0
    0.6896   -1.5484    7.1203 H   0  0  0  0  0  0  0  0  0  0  0  0
    0.1226    0.8071    7.4256 H   0  0  0  0  0  0  0  0  0  0  0  0
   -0.3938   -3.9897    6.6806 H   0  0  0  0  0  0  0  0  0  0  0  0
   -0.3839   -5.1506    4.6351 H   0  0  0  0  0  0  0  0  0  0  0  0
    0.7030    1.0325    0.5408 H   0  0  0  0  0  0  0  0  0  0  0  0
    0.7898    0.2356    2.1455 H   0  0  0  0  0  0  0  0  0  0  0  0
    1.8195   -1.7813    1.1173 H   0  0  0  0  0  0  0  0  0  0  0  0
    1.6257   -1.0569   -0.5325 H   0  0  0  0  0  0  0  0  0  0  0  0
    2.7349   -0.2992    0.6668 H   0  0  0  0  0  0  0  0  0  0  0  0
   -2.8578   -0.1581    1.3242 H   0  0  0  0  0  0  0  0  0  0  0  0
   -1.7089    0.4613    2.5499 H   0  0  0  0  0  0  0  0  0  0  0  0
   -2.8734    2.2513    1.2185 H   0  0  0  0  0  0  0  0  0  0  0  0
   -1.0873    2.3538    1.1065 H   0  0  0  0  0  0  0  0  0  0  0  0
   -2.0484    1.6732   -0.2765 H   0  0  0  0  0  0  0  0  0  0  0  0
   -0.2128   -1.3964    3.5620 H   0  0  0  0  0  0  0  0  0  0  0  0
   -1.5726   -1.1206   -3.2891 H   0  0  0  0  0  0  0  0  0  0  0  0
   -1.1677   -3.0507   -7.5446 H   0  0  0  0  0  0  0  0  0  0  0  0
   -0.9073   -2.2567   -5.2645 H   0  0  0  0  0  0  0  0  0  0  0  0
   -2.6108   -6.2480   -8.5516 H   0  0  0  0  0  0  0  0  0  0  0  0
   -2.7520   -4.9400  -10.5009 H   0  0  0  0  0  0  0  0  0  0  0  0
   -4.9989   -0.5984   -8.1232 H   0  0  0  0  0  0  0  0  0  0  0  0
   -4.5811   -2.9889   -8.0596 H   0  0  0  0  0  0  0  0  0  0  0  0
   -3.0166    1.9349  -10.1447 H   0  0  0  0  0  0  0  0  0  0  0  0
   -5.7990    1.2834   -9.0684 H   0  0  0  0  0  0  0  0  0  0  0  0
   -5.0674    2.9385   -9.4874 H   0  0  0  0  0  0  0  0  0  0  0  0
  1  2  1  0
  2  3  2  0
  3  4  1  0
  4  5  1  0
  5  6  2  0
  6  7  1  0
  7  8  2  0
  8  9  1  0
  7 10  1  0
 10 11  2  3
 11 12  1  0
 12 13  1  0
 13 14  2  0
 14 15  1  0
 15 16  1  0
 16 17  2  0
 17 18  1  0
 18 19  2  0
 19 20  1  0
 18 21  1  0
 21 22  2  3
 22 23  1  0
 23 24  1  0
 24 25  2  0
 25 26  1  0
 26 27  1  0
 27 28  2  0
 28 29  1  0
 29 30  2  0
 30 31  1  0
 29 32  1  0
 32 33  2  3
 33 34  1  0
 34 35  1  0
 35 36  1  0
 36 37  1  0
 37 38  2  0
 38 39  1  0
 39 40  1  0
 40 41  1  0
 41 42  1  0
 40 43  1  0
 43 44  1  0
 40 45  1  0
 45 46  1  0
 38 47  1  0
 47 48  2  0
 48 49  1  0
 48 50  1  0
 50 51  1  0
 51 52  2  0
 52 53  1  0
 53 54  1  0
 54 55  2  0
 55 56  1  0
 56 57  2  0
 57 58  1  0
 56 59  1  0
 59 60  2  3
 60 61  1  0
 61 62  1  0
 62 63  2  0
 63 64  1  0
 64 65  1  0
 65 66  2  0
 66 67  1  0
 67 68  2  0
 68 69  1  0
 67 70  1  0
 70 71  2  3
  9  1  2  0
 20 12  2  0
 31 23  2  0
 46 34  2  0
 58 50  2  0
 69 61  2  0
  6  2  1  0
 17 13  1  0
 28 24  1  0
 45 36  2  0
 55 51  1  0
 66 62  1  0
 49 37  1  0
  1 72  1  0
  8 73  1  0
  9 74  1  0
 10 75  1  0
 11 76  1  0
 19 77  1  0
 20 78  1  0
 21 79  1  0
 22 80  1  0
 30 81  1  0
 31 82  1  0
 32 83  1  0
 33 84  1  0
 41 85  1  0
 41 86  1  0
 42 87  1  0
 42 88  1  0
 42 89  1  0
 43 90  1  0
 43 91  1  0
 44 92  1  0
 44 93  1  0
 44 94  1  0
 46 95  1  0
 47 96  1  0
 57 97  1  0
 58 98  1  0
 59 99  1  0
 60100  1  0
 68101  1  0
 69102  1  0
 70103  1  0
 71104  1  0
 71105  1  0
M  END

