
     RDKit          3D

226251  0  0  0  0  0  0  0  0999 V2000
   -1.0763   -8.9350    9.3543 C   0  0  0  0  0  0  0  0  0  0  0  0
   -1.1957   -7.6027    8.9675 C   0  0  0  0  0  0  0  0  0  0  0  0
   -1.8161   -7.4479    7.7185 C   0  0  0  0  0  0  0  0  0  0  0  0
   -2.0706   -6.2329    7.0575 C   0  0  0  0  0  0  0  0  0  0  0  0
   -1.6725   -4.9343    7.6214 C   0  0  0  0  0  0  0  0  0  0  0  0
   -0.0887   -4.3862    7.7220 S   0  0  0  0  0  0  0  0  0  0  0  0
   -0.4712   -2.8497    8.2942 C   0  0  0  0  0  0  0  0  0  0  0  0
    0.5398   -1.8087    8.6777 C   0  0  0  0  0  0  0  0  0  0  0  0
    0.9716   -1.9897   10.1271 C   0  0  0  0  0  0  0  0  0  0  0  0
   -1.8547   -2.7541    8.4293 C   0  0  0  0  0  0  0  0  0  0  0  0
   -2.6770   -1.3158    9.0213 Cl  0  0  0  0  0  0  0  0  0  0  0  0
   -2.5297   -3.9216    8.0410 C   0  0  0  0  0  0  0  0  0  0  0  0
   -4.2775   -4.0944    8.0978 Cl  0  0  0  0  0  0  0  0  0  0  0  0
   -2.6821   -6.3112    5.7967 C   0  0  0  0  0  0  0  0  0  0  0  0
   -3.0296   -7.5242    5.1959 C   0  0  0  0  0  0  0  0  0  0  0  0
   -2.7983   -8.7376    5.8700 C   0  0  0  0  0  0  0  0  0  0  0  0
   -3.1439  -10.0347    5.2750 C   0  0  0  0  0  0  0  0  0  0  0  0
   -2.2356  -10.8136    4.0951 S   0  0  0  0  0  0  0  0  0  0  0  0
   -3.1857  -12.2030    4.0391 C   0  0  0  0  0  0  0  0  0  0  0  0
   -2.9437  -13.3560    3.1136 C   0  0  0  0  0  0  0  0  0  0  0  0
   -3.6275  -13.1235    1.7731 C   0  0  0  0  0  0  0  0  0  0  0  0
   -4.2464  -12.0588    4.9338 C   0  0  0  0  0  0  0  0  0  0  0  0
   -4.2145  -10.8461    5.6358 C   0  0  0  0  0  0  0  0  0  0  0  0
   -5.4093  -10.3904    6.8427 Cl  0  0  0  0  0  0  0  0  0  0  0  0
   -5.5007  -13.2696    5.1572 Cl  0  0  0  0  0  0  0  0  0  0  0  0
   -2.1859   -8.6616    7.1330 C   0  0  0  0  0  0  0  0  0  0  0  0
   -1.7419   -9.9195    8.1547 S   0  0  0  0  0  0  0  0  0  0  0  0
   -3.5754   -7.3701    3.9094 C   0  0  0  0  0  0  0  0  0  0  0  0
   -3.6492   -6.0334    3.5163 C   0  0  0  0  0  0  0  0  0  0  0  0
   -3.0415   -5.0531    4.7477 S   0  0  0  0  0  0  0  0  0  0  0  0
   -4.0925   -5.5269    2.2098 C   0  0  0  0  0  0  0  0  0  0  0  0
   -4.1511   -4.1805    1.8674 C   0  0  0  0  0  0  0  0  0  0  0  0
   -4.5347   -3.9677    0.5387 C   0  0  0  0  0  0  0  0  0  0  0  0
   -4.6566   -2.7181   -0.0943 C   0  0  0  0  0  0  0  0  0  0  0  0
   -4.4559   -1.4480    0.6307 C   0  0  0  0  0  0  0  0  0  0  0  0
   -3.3292   -0.2787    0.2048 S   0  0  0  0  0  0  0  0  0  0  0  0
   -3.6990    0.7944    1.4422 C   0  0  0  0  0  0  0  0  0  0  0  0
   -3.0900    2.1551    1.5741 C   0  0  0  0  0  0  0  0  0  0  0  0
   -3.8491    3.1581    0.7171 C   0  0  0  0  0  0  0  0  0  0  0  0
   -4.7507    0.2663    2.1888 C   0  0  0  0  0  0  0  0  0  0  0  0
   -5.5098    1.1141    3.5278 Cl  0  0  0  0  0  0  0  0  0  0  0  0
   -5.1723   -0.9946    1.7382 C   0  0  0  0  0  0  0  0  0  0  0  0
   -6.5311   -1.8595    2.4389 Cl  0  0  0  0  0  0  0  0  0  0  0  0
   -4.9609   -2.7325   -1.4621 C   0  0  0  0  0  0  0  0  0  0  0  0
   -5.1870   -3.9124   -2.1821 C   0  0  0  0  0  0  0  0  0  0  0  0
   -5.1116   -5.1652   -1.5336 C   0  0  0  0  0  0  0  0  0  0  0  0
   -5.3932   -6.4271   -2.2384 C   0  0  0  0  0  0  0  0  0  0  0  0
   -4.3080   -7.7033   -2.3974 S   0  0  0  0  0  0  0  0  0  0  0  0
   -5.3661   -8.7377   -3.1985 C   0  0  0  0  0  0  0  0  0  0  0  0
   -5.0522  -10.1578   -3.5626 C   0  0  0  0  0  0  0  0  0  0  0  0
   -5.2560  -11.0758   -2.3633 C   0  0  0  0  0  0  0  0  0  0  0  0
   -6.6010   -8.1010   -3.3289 C   0  0  0  0  0  0  0  0  0  0  0  0
   -6.6123   -6.8032   -2.7974 C   0  0  0  0  0  0  0  0  0  0  0  0
   -8.0500   -5.7923   -2.7586 Cl  0  0  0  0  0  0  0  0  0  0  0  0
   -8.0174   -8.8632   -4.0392 Cl  0  0  0  0  0  0  0  0  0  0  0  0
   -4.7604   -5.1540   -0.1687 C   0  0  0  0  0  0  0  0  0  0  0  0
   -4.5144   -6.4610    0.8676 S   0  0  0  0  0  0  0  0  0  0  0  0
   -5.4505   -3.6804   -3.5486 C   0  0  0  0  0  0  0  0  0  0  0  0
   -5.4272   -2.3246   -3.8696 C   0  0  0  0  0  0  0  0  0  0  0  0
   -5.0954   -1.4179   -2.4942 S   0  0  0  0  0  0  0  0  0  0  0  0
   -5.6182   -1.7142   -5.1830 C   0  0  0  0  0  0  0  0  0  0  0  0
   -4.4180   -0.7690   -5.8870 S   0  0  0  0  0  0  0  0  0  0  0  0
   -5.4474    0.1982   -6.7848 C   0  0  0  0  0  0  0  0  0  0  0  0
   -5.1441    1.5507   -7.2326 C   0  0  0  0  0  0  0  0  0  0  0  0
   -6.1431    2.5003   -7.1674 C   0  0  0  0  0  0  0  0  0  0  0  0
   -7.4831    2.1246   -6.9908 O   0  0  0  0  0  0  0  0  0  0  0  0
   -7.9156    0.7409   -6.9999 C   0  0  0  0  0  0  0  0  0  0  0  0
   -9.1456    0.6359   -6.0583 C   0  0  0  0  0  0  0  0  0  0  0  0
  -10.2806    1.6001   -6.4106 C   0  0  0  0  0  0  0  0  0  0  0  0
   -8.2510    0.3626   -8.4685 C   0  0  0  0  0  0  0  0  0  0  0  0
   -8.8265   -1.0469   -8.6533 C   0  0  0  0  0  0  0  0  0  0  0  0
   -6.7633   -0.1538   -6.5074 C   0  0  0  0  0  0  0  0  0  0  0  0
   -6.8552   -1.2487   -5.6233 C   0  0  0  0  0  0  0  0  0  0  0  0
   -5.6769    3.8201   -7.1115 C   0  0  0  0  0  0  0  0  0  0  0  0
   -4.2847    3.8963   -7.1107 C   0  0  0  0  0  0  0  0  0  0  0  0
   -3.6592    2.3274   -7.1720 S   0  0  0  0  0  0  0  0  0  0  0  0
   -3.4995    5.0179   -6.5877 C   0  0  0  0  0  0  0  0  0  0  0  0
   -2.1400    5.1840   -6.8441 C   0  0  0  0  0  0  0  0  0  0  0  0
   -1.4730    5.9025   -5.8402 C   0  0  0  0  0  0  0  0  0  0  0  0
   -0.0785    6.0654   -5.7429 C   0  0  0  0  0  0  0  0  0  0  0  0
    0.8222    5.6393   -6.8272 C   0  0  0  0  0  0  0  0  0  0  0  0
    0.9499    6.4194   -8.3105 S   0  0  0  0  0  0  0  0  0  0  0  0
    2.1245    5.3951   -8.9458 C   0  0  0  0  0  0  0  0  0  0  0  0
    2.7820    5.5875  -10.2789 C   0  0  0  0  0  0  0  0  0  0  0  0
    3.8973    6.6214  -10.1820 C   0  0  0  0  0  0  0  0  0  0  0  0
    2.4390    4.4265   -7.9918 C   0  0  0  0  0  0  0  0  0  0  0  0
    3.6505    3.1763   -8.2313 Cl  0  0  0  0  0  0  0  0  0  0  0  0
    1.6948    4.5524   -6.8101 C   0  0  0  0  0  0  0  0  0  0  0  0
    1.8091    3.4152   -5.4734 Cl  0  0  0  0  0  0  0  0  0  0  0  0
    0.4215    6.5470   -4.5224 C   0  0  0  0  0  0  0  0  0  0  0  0
   -0.4082    6.8693   -3.4457 C   0  0  0  0  0  0  0  0  0  0  0  0
   -1.8094    6.8108   -3.5800 C   0  0  0  0  0  0  0  0  0  0  0  0
   -2.7011    7.1640   -2.4610 C   0  0  0  0  0  0  0  0  0  0  0  0
   -3.6431    6.0750   -1.5954 S   0  0  0  0  0  0  0  0  0  0  0  0
   -4.2127    7.1865   -0.4648 C   0  0  0  0  0  0  0  0  0  0  0  0
   -5.1117    6.8473    0.6870 C   0  0  0  0  0  0  0  0  0  0  0  0
   -4.3288    6.7803    1.9964 C   0  0  0  0  0  0  0  0  0  0  0  0
   -3.6536    8.4319   -0.7472 C   0  0  0  0  0  0  0  0  0  0  0  0
   -2.8026    8.4180   -1.8628 C   0  0  0  0  0  0  0  0  0  0  0  0
   -1.9563    9.8430   -2.4500 Cl  0  0  0  0  0  0  0  0  0  0  0  0
   -3.9757    9.8788    0.1984 Cl  0  0  0  0  0  0  0  0  0  0  0  0
   -2.3097    6.2970   -4.7917 C   0  0  0  0  0  0  0  0  0  0  0  0
   -3.8758    5.7812   -5.1247 S   0  0  0  0  0  0  0  0  0  0  0  0
    0.2913    7.0257   -2.2383 C   0  0  0  0  0  0  0  0  0  0  0  0
    1.6669    6.8381   -2.3674 C   0  0  0  0  0  0  0  0  0  0  0  0
    2.0119    6.5145   -3.9848 S   0  0  0  0  0  0  0  0  0  0  0  0
    2.4725    6.2273   -1.3126 C   0  0  0  0  0  0  0  0  0  0  0  0
    2.1935    4.9552   -0.8235 C   0  0  0  0  0  0  0  0  0  0  0  0
    3.2754    4.3701   -0.1565 C   0  0  0  0  0  0  0  0  0  0  0  0
    3.3239    3.0544    0.3458 C   0  0  0  0  0  0  0  0  0  0  0  0
    2.2202    2.0944    0.1349 C   0  0  0  0  0  0  0  0  0  0  0  0
    1.6919    1.5740   -1.3775 S   0  0  0  0  0  0  0  0  0  0  0  0
    0.6433    0.3844   -0.8140 C   0  0  0  0  0  0  0  0  0  0  0  0
   -0.1350   -0.5477   -1.6962 C   0  0  0  0  0  0  0  0  0  0  0  0
    0.7775   -1.5844   -2.3407 C   0  0  0  0  0  0  0  0  0  0  0  0
    0.7087    0.3663    0.5799 C   0  0  0  0  0  0  0  0  0  0  0  0
   -0.1574   -0.7852    1.5873 Cl  0  0  0  0  0  0  0  0  0  0  0  0
    1.5799    1.3322    1.1101 C   0  0  0  0  0  0  0  0  0  0  0  0
    1.8109    1.5682    2.8381 Cl  0  0  0  0  0  0  0  0  0  0  0  0
    4.5384    2.6464    0.9224 C   0  0  0  0  0  0  0  0  0  0  0  0
    5.6575    3.4828    1.0062 C   0  0  0  0  0  0  0  0  0  0  0  0
    5.6026    4.7985    0.5041 C   0  0  0  0  0  0  0  0  0  0  0  0
    6.7613    5.7011    0.5762 C   0  0  0  0  0  0  0  0  0  0  0  0
    7.3371    6.3858    1.9976 S   0  0  0  0  0  0  0  0  0  0  0  0
    8.6352    7.1918    1.2935 C   0  0  0  0  0  0  0  0  0  0  0  0
    9.6679    7.9630    2.0616 C   0  0  0  0  0  0  0  0  0  0  0  0
   10.6834    7.0152    2.6890 C   0  0  0  0  0  0  0  0  0  0  0  0
    8.6485    6.9076   -0.0726 C   0  0  0  0  0  0  0  0  0  0  0  0
    7.5908    6.0766   -0.4755 C   0  0  0  0  0  0  0  0  0  0  0  0
    7.3706    5.5143   -2.1273 Cl  0  0  0  0  0  0  0  0  0  0  0  0
    9.8820    7.4997   -1.1784 Cl  0  0  0  0  0  0  0  0  0  0  0  0
    4.3959    5.2056   -0.0907 C   0  0  0  0  0  0  0  0  0  0  0  0
    4.0628    6.6401   -0.9169 S   0  0  0  0  0  0  0  0  0  0  0  0
    6.7900    2.8415    1.5409 C   0  0  0  0  0  0  0  0  0  0  0  0
    6.5522    1.5057    1.8661 C   0  0  0  0  0  0  0  0  0  0  0  0
    4.9543    1.1204    1.4896 S   0  0  0  0  0  0  0  0  0  0  0  0
    7.5296    0.5434    2.3945 C   0  0  0  0  0  0  0  0  0  0  0  0
    7.1328   -0.9710    3.0207 S   0  0  0  0  0  0  0  0  0  0  0  0
    8.7153   -1.4226    3.3153 C   0  0  0  0  0  0  0  0  0  0  0  0
    9.2034   -2.6502    3.9063 C   0  0  0  0  0  0  0  0  0  0  0  0
   10.5368   -2.7705    4.1950 C   0  0  0  0  0  0  0  0  0  0  0  0
   11.4310   -1.7360    3.8874 O   0  0  0  0  0  0  0  0  0  0  0  0
   11.1202   -0.6736    2.9476 C   0  0  0  0  0  0  0  0  0  0  0  0
   11.5311   -1.1749    1.5336 C   0  0  0  0  0  0  0  0  0  0  0  0
   12.9435   -1.7697    1.4845 C   0  0  0  0  0  0  0  0  0  0  0  0
   11.9073    0.5915    3.4184 C   0  0  0  0  0  0  0  0  0  0  0  0
   12.3529    1.5876    2.3356 C   0  0  0  0  0  0  0  0  0  0  0  0
    9.5956   -0.4165    2.9351 C   0  0  0  0  0  0  0  0  0  0  0  0
    8.9169    0.6971    2.4036 C   0  0  0  0  0  0  0  0  0  0  0  0
   10.8710   -3.9721    4.8231 C   0  0  0  0  0  0  0  0  0  0  0  0
    9.7661   -4.8008    5.0075 C   0  0  0  0  0  0  0  0  0  0  0  0
    8.3856   -4.0236    4.4091 S   0  0  0  0  0  0  0  0  0  0  0  0
   -0.6245   -9.2777   10.2757 H   0  0  0  0  0  0  0  0  0  0  0  0
   -0.8346   -6.7806    9.5718 H   0  0  0  0  0  0  0  0  0  0  0  0
    1.4255   -1.8998    8.0142 H   0  0  0  0  0  0  0  0  0  0  0  0
    0.1119   -0.7952    8.5383 H   0  0  0  0  0  0  0  0  0  0  0  0
    1.7386   -1.2285   10.3830 H   0  0  0  0  0  0  0  0  0  0  0  0
    1.4097   -3.0000   10.2751 H   0  0  0  0  0  0  0  0  0  0  0  0
    0.1024   -1.8599   10.8065 H   0  0  0  0  0  0  0  0  0  0  0  0
   -1.8505  -13.4666    2.9526 H   0  0  0  0  0  0  0  0  0  0  0  0
   -3.3169  -14.2960    3.5694 H   0  0  0  0  0  0  0  0  0  0  0  0
   -4.7271  -13.0605    1.9064 H   0  0  0  0  0  0  0  0  0  0  0  0
   -3.3933  -13.9678    1.0938 H   0  0  0  0  0  0  0  0  0  0  0  0
   -3.2622  -12.1842    1.3094 H   0  0  0  0  0  0  0  0  0  0  0  0
   -3.8881   -8.1936    3.2804 H   0  0  0  0  0  0  0  0  0  0  0  0
   -3.9069   -3.3852    2.5567 H   0  0  0  0  0  0  0  0  0  0  0  0
   -3.0923    2.4843    2.6362 H   0  0  0  0  0  0  0  0  0  0  0  0
   -2.0316    2.1126    1.2352 H   0  0  0  0  0  0  0  0  0  0  0  0
   -3.2894    4.1130    0.6997 H   0  0  0  0  0  0  0  0  0  0  0  0
   -4.8634    3.3339    1.1376 H   0  0  0  0  0  0  0  0  0  0  0  0
   -3.9422    2.7903   -0.3269 H   0  0  0  0  0  0  0  0  0  0  0  0
   -3.9955  -10.2239   -3.9043 H   0  0  0  0  0  0  0  0  0  0  0  0
   -5.6997  -10.4891   -4.4021 H   0  0  0  0  0  0  0  0  0  0  0  0
   -4.5181  -10.8324   -1.5700 H   0  0  0  0  0  0  0  0  0  0  0  0
   -6.2818  -10.9639   -1.9530 H   0  0  0  0  0  0  0  0  0  0  0  0
   -5.1065  -12.1304   -2.6750 H   0  0  0  0  0  0  0  0  0  0  0  0
   -5.6273   -4.4627   -4.2761 H   0  0  0  0  0  0  0  0  0  0  0  0
   -8.8146    0.8689   -5.0225 H   0  0  0  0  0  0  0  0  0  0  0  0
   -9.5570   -0.3946   -6.0480 H   0  0  0  0  0  0  0  0  0  0  0  0
  -10.7430    1.3263   -7.3813 H   0  0  0  0  0  0  0  0  0  0  0  0
  -11.0657    1.5437   -5.6271 H   0  0  0  0  0  0  0  0  0  0  0  0
   -9.9139    2.6480   -6.4566 H   0  0  0  0  0  0  0  0  0  0  0  0
   -7.3250    0.4370   -9.0773 H   0  0  0  0  0  0  0  0  0  0  0  0
   -8.9629    1.0963   -8.8984 H   0  0  0  0  0  0  0  0  0  0  0  0
   -8.8238   -1.3043   -9.7324 H   0  0  0  0  0  0  0  0  0  0  0  0
   -9.8751   -1.0885   -8.2931 H   0  0  0  0  0  0  0  0  0  0  0  0
   -8.2191   -1.8029   -8.1154 H   0  0  0  0  0  0  0  0  0  0  0  0
   -7.7838   -1.6017   -5.1970 H   0  0  0  0  0  0  0  0  0  0  0  0
   -6.3235    4.6700   -6.9398 H   0  0  0  0  0  0  0  0  0  0  0  0
   -1.6303    4.6820   -7.6556 H   0  0  0  0  0  0  0  0  0  0  0  0
    3.1995    4.6257  -10.6458 H   0  0  0  0  0  0  0  0  0  0  0  0
    2.0242    5.9274  -11.0168 H   0  0  0  0  0  0  0  0  0  0  0  0
    4.6383    6.3183   -9.4123 H   0  0  0  0  0  0  0  0  0  0  0  0
    4.4156    6.7027  -11.1584 H   0  0  0  0  0  0  0  0  0  0  0  0
    3.4802    7.6137   -9.9135 H   0  0  0  0  0  0  0  0  0  0  0  0
   -5.6001    5.8659    0.4990 H   0  0  0  0  0  0  0  0  0  0  0  0
   -5.9093    7.6157    0.7686 H   0  0  0  0  0  0  0  0  0  0  0  0
   -3.9596    7.7881    2.2794 H   0  0  0  0  0  0  0  0  0  0  0  0
   -3.4604    6.0976    1.8999 H   0  0  0  0  0  0  0  0  0  0  0  0
   -4.9904    6.4044    2.8031 H   0  0  0  0  0  0  0  0  0  0  0  0
   -0.1967    7.0975   -1.2752 H   0  0  0  0  0  0  0  0  0  0  0  0
    1.2613    4.4441   -1.0284 H   0  0  0  0  0  0  0  0  0  0  0  0
   -0.9166   -1.0750   -1.1144 H   0  0  0  0  0  0  0  0  0  0  0  0
   -0.6427    0.0392   -2.4900 H   0  0  0  0  0  0  0  0  0  0  0  0
    1.3013   -2.1772   -1.5604 H   0  0  0  0  0  0  0  0  0  0  0  0
    0.1751   -2.2768   -2.9655 H   0  0  0  0  0  0  0  0  0  0  0  0
    1.5306   -1.0892   -2.9887 H   0  0  0  0  0  0  0  0  0  0  0  0
    9.1656    8.5485    2.8615 H   0  0  0  0  0  0  0  0  0  0  0  0
   10.1894    8.6822    1.3952 H   0  0  0  0  0  0  0  0  0  0  0  0
   11.1939    6.4197    1.9034 H   0  0  0  0  0  0  0  0  0  0  0  0
   10.1763    6.3262    3.3963 H   0  0  0  0  0  0  0  0  0  0  0  0
   11.4426    7.6007    3.2501 H   0  0  0  0  0  0  0  0  0  0  0  0
    7.7520    3.3214    1.6644 H   0  0  0  0  0  0  0  0  0  0  0  0
   10.8293   -1.9791    1.2143 H   0  0  0  0  0  0  0  0  0  0  0  0
   11.4353   -0.3647    0.7803 H   0  0  0  0  0  0  0  0  0  0  0  0
   13.6847   -1.0989    1.9618 H   0  0  0  0  0  0  0  0  0  0  0  0
   13.2389   -1.9316    0.4270 H   0  0  0  0  0  0  0  0  0  0  0  0
   12.9650   -2.7492    2.0036 H   0  0  0  0  0  0  0  0  0  0  0  0
   12.8334    0.2597    3.9398 H   0  0  0  0  0  0  0  0  0  0  0  0
   11.3080    1.1367    4.1797 H   0  0  0  0  0  0  0  0  0  0  0  0
   13.1041    1.1334    1.6612 H   0  0  0  0  0  0  0  0  0  0  0  0
   12.8343    2.4598    2.8245 H   0  0  0  0  0  0  0  0  0  0  0  0
   11.5079    1.9546    1.7270 H   0  0  0  0  0  0  0  0  0  0  0  0
    9.4047    1.5701    2.0039 H   0  0  0  0  0  0  0  0  0  0  0  0
   11.8793   -4.2339    5.1247 H   0  0  0  0  0  0  0  0  0  0  0  0
    9.7887   -5.7819    5.4693 H   0  0  0  0  0  0  0  0  0  0  0  0
  1  2  2  0
  2  3  1  0
  3  4  2  0
  4  5  1  0
  5  6  1  0
  6  7  1  0
  7  8  1  0
  8  9  1  0
  7 10  2  0
 10 11  1  0
 10 12  1  0
 12 13  1  0
  4 14  1  0
 14 15  2  0
 15 16  1  0
 16 17  1  0
 17 18  1  0
 18 19  1  0
 19 20  1  0
 20 21  1  0
 19 22  2  0
 22 23  1  0
 23 24  1  0
 22 25  1  0
 16 26  2  0
 26 27  1  0
 15 28  1  0
 28 29  2  0
 29 30  1  0
 29 31  1  0
 31 32  2  0
 32 33  1  0
 33 34  2  0
 34 35  1  0
 35 36  1  0
 36 37  1  0
 37 38  1  0
 38 39  1  0
 37 40  2  0
 40 41  1  0
 40 42  1  0
 42 43  1  0
 34 44  1  0
 44 45  2  0
 45 46  1  0
 46 47  1  0
 47 48  1  0
 48 49  1  0
 49 50  1  0
 50 51  1  0
 49 52  2  0
 52 53  1  0
 53 54  1  0
 52 55  1  0
 46 56  2  0
 56 57  1  0
 45 58  1  0
 58 59  2  0
 59 60  1  0
 59 61  1  0
 61 62  1  0
 62 63  1  0
 63 64  1  0
 64 65  2  0
 65 66  1  0
 66 67  1  0
 67 68  1  0
 68 69  1  0
 67 70  1  0
 70 71  1  0
 67 72  1  0
 72 73  1  0
 65 74  1  0
 74 75  2  0
 75 76  1  0
 75 77  1  0
 77 78  2  0
 78 79  1  0
 79 80  2  0
 80 81  1  0
 81 82  1  0
 82 83  1  0
 83 84  1  0
 84 85  1  0
 83 86  2  0
 86 87  1  0
 86 88  1  0
 88 89  1  0
 80 90  1  0
 90 91  2  0
 91 92  1  0
 92 93  1  0
 93 94  1  0
 94 95  1  0
 95 96  1  0
 96 97  1  0
 95 98  2  0
 98 99  1  0
 99100  1  0
 98101  1  0
 92102  2  0
102103  1  0
 91104  1  0
104105  2  0
105106  1  0
105107  1  0
107108  2  0
108109  1  0
109110  2  0
110111  1  0
111112  1  0
112113  1  0
113114  1  0
114115  1  0
113116  2  0
116117  1  0
116118  1  0
118119  1  0
110120  1  0
120121  2  0
121122  1  0
122123  1  0
123124  1  0
124125  1  0
125126  1  0
126127  1  0
125128  2  0
128129  1  0
129130  1  0
128131  1  0
122132  2  0
132133  1  0
121134  1  0
134135  2  0
135136  1  0
135137  1  0
137138  1  0
138139  1  0
139140  1  0
140141  2  0
141142  1  0
142143  1  0
143144  1  0
144145  1  0
143146  1  0
146147  1  0
143148  1  0
148149  1  0
141150  1  0
150151  2  0
151152  1  0
 27  1  1  0
 57 31  1  0
 73 61  2  0
103 77  1  0
133107  1  0
149137  2  0
 26  3  1  0
 56 33  1  0
 72 63  2  0
102 79  1  0
132109  1  0
148139  2  0
 12  5  2  0
 30 14  1  0
 42 35  2  0
 60 44  1  0
 76 64  1  0
 88 81  2  0
106 90  1  0
118111  2  0
136120  1  0
152140  1  0
 23 17  2  0
 53 47  2  0
 99 93  2  0
129123  2  0
  1153  1  0
  2154  1  0
  8155  1  0
  8156  1  0
  9157  1  0
  9158  1  0
  9159  1  0
 20160  1  0
 20161  1  0
 21162  1  0
 21163  1  0
 21164  1  0
 28165  1  0
 32166  1  0
 38167  1  0
 38168  1  0
 39169  1  0
 39170  1  0
 39171  1  0
 50172  1  0
 50173  1  0
 51174  1  0
 51175  1  0
 51176  1  0
 58177  1  0
 68178  1  0
 68179  1  0
 69180  1  0
 69181  1  0
 69182  1  0
 70183  1  0
 70184  1  0
 71185  1  0
 71186  1  0
 71187  1  0
 73188  1  0
 74189  1  0
 78190  1  0
 84191  1  0
 84192  1  0
 85193  1  0
 85194  1  0
 85195  1  0
 96196  1  0
 96197  1  0
 97198  1  0
 97199  1  0
 97200  1  0
104201  1  0
108202  1  0
114203  1  0
114204  1  0
115205  1  0
115206  1  0
115207  1  0
126208  1  0
126209  1  0
127210  1  0
127211  1  0
127212  1  0
134213  1  0
144214  1  0
144215  1  0
145216  1  0
145217  1  0
145218  1  0
146219  1  0
146220  1  0
147221  1  0
147222  1  0
147223  1  0
149224  1  0
150225  1  0
151226  1  0
M  END

