
     RDKit          3D

 70 82  0  0  0  0  0  0  0  0999 V2000
   17.0754    4.4416   -2.2381 C   0  0  0  0  0  0  0  0  0  0  0  0
   16.7384    3.3005   -1.0038 S   0  0  0  0  0  0  0  0  0  0  0  0
   15.1329    3.2462   -1.4642 C   0  0  0  0  0  0  0  0  0  0  0  0
   14.0786    2.5437   -0.9965 N   0  0  0  0  0  0  0  0  0  0  0  0
   12.9835    2.8631   -1.7428 C   0  0  0  0  0  0  0  0  0  0  0  0
   13.3168    4.0086   -2.9771 S   0  0  0  0  0  0  0  0  0  0  0  0
   14.9184    4.0698   -2.5059 C   0  0  0  0  0  0  0  0  0  0  0  0
   15.9771    4.7636   -2.9784 N   0  0  0  0  0  0  0  0  0  0  0  0
   11.6625    2.2736   -1.5078 C   0  0  0  0  0  0  0  0  0  0  0  0
   11.3246    1.1401   -0.2630 S   0  0  0  0  0  0  0  0  0  0  0  0
    9.7264    1.0648   -0.7501 C   0  0  0  0  0  0  0  0  0  0  0  0
    8.6674    0.3716   -0.2785 N   0  0  0  0  0  0  0  0  0  0  0  0
    7.5773    0.6809   -1.0368 C   0  0  0  0  0  0  0  0  0  0  0  0
    7.9184    1.8099   -2.2841 S   0  0  0  0  0  0  0  0  0  0  0  0
    9.5173    1.8753   -1.8045 C   0  0  0  0  0  0  0  0  0  0  0  0
   10.5726    2.5780   -2.2683 N   0  0  0  0  0  0  0  0  0  0  0  0
    6.2487    0.1129   -0.7898 C   0  0  0  0  0  0  0  0  0  0  0  0
    5.9011   -1.0174    0.4541 S   0  0  0  0  0  0  0  0  0  0  0  0
    4.2900   -1.0352    0.0064 C   0  0  0  0  0  0  0  0  0  0  0  0
    3.2110   -1.6525    0.5331 N   0  0  0  0  0  0  0  0  0  0  0  0
    2.1062   -1.2706   -0.1704 C   0  0  0  0  0  0  0  0  0  0  0  0
    2.4613   -0.1585   -1.4292 S   0  0  0  0  0  0  0  0  0  0  0  0
    4.0835   -0.2073   -1.0345 C   0  0  0  0  0  0  0  0  0  0  0  0
    5.1504    0.4649   -1.5167 N   0  0  0  0  0  0  0  0  0  0  0  0
    0.7493   -1.7095    0.1795 C   0  0  0  0  0  0  0  0  0  0  0  0
   -0.6667   -1.1696   -0.5669 S   0  0  0  0  0  0  0  0  0  0  0  0
   -1.6925   -2.0229    0.4494 C   0  0  0  0  0  0  0  0  0  0  0  0
   -3.1385   -2.0081    0.4942 C   0  0  0  0  0  0  0  0  0  0  0  0
   -3.7953   -2.6702    1.5019 C   0  0  0  0  0  0  0  0  0  0  0  0
   -3.0946   -3.4047    2.4700 O   0  0  0  0  0  0  0  0  0  0  0  0
   -1.6540   -3.5781    2.4751 C   0  0  0  0  0  0  0  0  0  0  0  0
   -1.1285   -3.1774    3.8789 C   0  0  0  0  0  0  0  0  0  0  0  0
   -1.3571   -1.6978    4.2024 C   0  0  0  0  0  0  0  0  0  0  0  0
   -1.3397   -5.0653    2.1692 C   0  0  0  0  0  0  0  0  0  0  0  0
   -2.0823   -6.0606    3.0659 C   0  0  0  0  0  0  0  0  0  0  0  0
   -0.9660   -2.7279    1.3932 C   0  0  0  0  0  0  0  0  0  0  0  0
    0.4204   -2.5645    1.2318 C   0  0  0  0  0  0  0  0  0  0  0  0
   -5.1811   -2.5009    1.4750 C   0  0  0  0  0  0  0  0  0  0  0  0
   -5.5924   -1.6811    0.4217 C   0  0  0  0  0  0  0  0  0  0  0  0
   -4.2372   -1.1750   -0.4608 S   0  0  0  0  0  0  0  0  0  0  0  0
   -6.9753   -1.2655    0.1541 C   0  0  0  0  0  0  0  0  0  0  0  0
   -7.4429   -0.2812   -1.1733 S   0  0  0  0  0  0  0  0  0  0  0  0
   -9.0296   -0.3068   -0.6514 C   0  0  0  0  0  0  0  0  0  0  0  0
  -10.1451    0.2927   -1.1208 N   0  0  0  0  0  0  0  0  0  0  0  0
  -11.1817   -0.0063   -0.2881 C   0  0  0  0  0  0  0  0  0  0  0  0
  -10.7192   -1.0033    1.0324 S   0  0  0  0  0  0  0  0  0  0  0  0
   -9.1427   -1.0336    0.4757 C   0  0  0  0  0  0  0  0  0  0  0  0
   -8.0171   -1.5915    0.9720 N   0  0  0  0  0  0  0  0  0  0  0  0
  -12.5400    0.5012   -0.5093 C   0  0  0  0  0  0  0  0  0  0  0  0
  -13.8579    0.2474    0.5613 S   0  0  0  0  0  0  0  0  0  0  0  0
  -14.8644    1.1204   -0.4471 C   0  0  0  0  0  0  0  0  0  0  0  0
  -16.1732    1.4438   -0.3648 N   0  0  0  0  0  0  0  0  0  0  0  0
  -16.5120    2.1775   -1.4617 C   0  0  0  0  0  0  0  0  0  0  0  0
  -15.1954    2.4283   -2.5297 S   0  0  0  0  0  0  0  0  0  0  0  0
  -14.1864    1.5559   -1.5231 C   0  0  0  0  0  0  0  0  0  0  0  0
  -12.8772    1.2359   -1.6062 N   0  0  0  0  0  0  0  0  0  0  0  0
   18.0527    4.8681   -2.4213 H   0  0  0  0  0  0  0  0  0  0  0  0
   -0.0435   -3.4015    3.9667 H   0  0  0  0  0  0  0  0  0  0  0  0
   -1.6529   -3.7685    4.6591 H   0  0  0  0  0  0  0  0  0  0  0  0
   -2.4362   -1.4433    4.1313 H   0  0  0  0  0  0  0  0  0  0  0  0
   -1.0138   -1.4899    5.2389 H   0  0  0  0  0  0  0  0  0  0  0  0
   -0.7809   -1.0468    3.5099 H   0  0  0  0  0  0  0  0  0  0  0  0
   -0.2469   -5.2525    2.2613 H   0  0  0  0  0  0  0  0  0  0  0  0
   -1.6268   -5.2836    1.1162 H   0  0  0  0  0  0  0  0  0  0  0  0
   -1.7406   -5.9806    4.1190 H   0  0  0  0  0  0  0  0  0  0  0  0
   -1.8670   -7.0950    2.7195 H   0  0  0  0  0  0  0  0  0  0  0  0
   -3.1795   -5.8967    3.0144 H   0  0  0  0  0  0  0  0  0  0  0  0
    1.1562   -3.0331    1.8730 H   0  0  0  0  0  0  0  0  0  0  0  0
   -5.8516   -2.9374    2.2038 H   0  0  0  0  0  0  0  0  0  0  0  0
  -17.5113    2.5576   -1.6275 H   0  0  0  0  0  0  0  0  0  0  0  0
  1  2  1  0
  2  3  1  0
  3  4  1  0
  4  5  2  0
  5  6  1  0
  6  7  1  0
  7  8  1  0
  5  9  1  0
  9 10  1  0
 10 11  1  0
 11 12  1  0
 12 13  2  0
 13 14  1  0
 14 15  1  0
 15 16  1  0
 13 17  1  0
 17 18  1  0
 18 19  1  0
 19 20  1  0
 20 21  2  0
 21 22  1  0
 22 23  1  0
 23 24  1  0
 21 25  1  0
 25 26  1  0
 26 27  1  0
 27 28  1  0
 28 29  2  0
 29 30  1  0
 30 31  1  0
 31 32  1  0
 32 33  1  0
 31 34  1  0
 34 35  1  0
 31 36  1  0
 36 37  1  0
 29 38  1  0
 38 39  2  0
 39 40  1  0
 39 41  1  0
 41 42  1  0
 42 43  1  0
 43 44  1  0
 44 45  2  0
 45 46  1  0
 46 47  1  0
 47 48  1  0
 45 49  1  0
 49 50  1  0
 50 51  1  0
 51 52  1  0
 52 53  2  0
 53 54  1  0
 54 55  1  0
 55 56  1  0
  8  1  2  0
 16  9  2  0
 24 17  2  0
 37 25  2  0
 48 41  2  0
 56 49  2  0
  7  3  2  0
 15 11  2  0
 23 19  2  0
 36 27  2  0
 47 43  2  0
 55 51  2  0
 40 28  1  0
  1 57  1  0
 32 58  1  0
 32 59  1  0
 33 60  1  0
 33 61  1  0
 33 62  1  0
 34 63  1  0
 34 64  1  0
 35 65  1  0
 35 66  1  0
 35 67  1  0
 37 68  1  0
 38 69  1  0
 53 70  1  0
M  END

