
     RDKit          3D

 95112  0  0  0  0  0  0  0  0999 V2000
   11.1843    0.4682    0.1709 C   0  0  0  0  0  0  0  0  0  0  0  0
   12.3774    1.6298    0.5103 S   0  0  0  0  0  0  0  0  0  0  0  0
   11.3743    2.9689    0.7838 C   0  0  0  0  0  0  0  0  0  0  0  0
   10.0864    2.4920    0.6128 C   0  0  0  0  0  0  0  0  0  0  0  0
    9.9840    1.1497    0.2860 C   0  0  0  0  0  0  0  0  0  0  0  0
    8.3612    0.6723    0.1303 S   0  0  0  0  0  0  0  0  0  0  0  0
    7.7971    2.2340    0.4846 C   0  0  0  0  0  0  0  0  0  0  0  0
    8.8504    3.1040    0.7267 C   0  0  0  0  0  0  0  0  0  0  0  0
    8.4958    4.3985    1.0619 C   0  0  0  0  0  0  0  0  0  0  0  0
    6.8022    4.4114    1.0383 S   0  0  0  0  0  0  0  0  0  0  0  0
    6.5355    2.7912    0.6117 C   0  0  0  0  0  0  0  0  0  0  0  0
    5.2282    2.1285    0.5075 C   0  0  0  0  0  0  0  0  0  0  0  0
    4.9815    0.4998    0.1493 S   0  0  0  0  0  0  0  0  0  0  0  0
    3.3183    0.5651    0.3229 C   0  0  0  0  0  0  0  0  0  0  0  0
    2.3779   -0.5333    0.3343 C   0  0  0  0  0  0  0  0  0  0  0  0
    1.1054   -0.3238    0.7928 C   0  0  0  0  0  0  0  0  0  0  0  0
    0.6787    0.9579    1.1755 O   0  0  0  0  0  0  0  0  0  0  0  0
    1.4293    2.1708    0.8979 C   0  0  0  0  0  0  0  0  0  0  0  0
    0.8415    2.7780   -0.4064 C   0  0  0  0  0  0  0  0  0  0  0  0
    1.4487    4.1137   -0.8527 C   0  0  0  0  0  0  0  0  0  0  0  0
    1.2668    3.1008    2.1299 C   0  0  0  0  0  0  0  0  0  0  0  0
   -0.1866    3.4470    2.4618 C   0  0  0  0  0  0  0  0  0  0  0  0
    2.9152    1.8424    0.6819 C   0  0  0  0  0  0  0  0  0  0  0  0
    3.9975    2.7353    0.7574 C   0  0  0  0  0  0  0  0  0  0  0  0
    0.3363   -1.4889    0.8688 C   0  0  0  0  0  0  0  0  0  0  0  0
    1.0489   -2.6259    0.4655 C   0  0  0  0  0  0  0  0  0  0  0  0
    2.6197   -2.1635    0.0353 S   0  0  0  0  0  0  0  0  0  0  0  0
    0.5942   -4.0292    0.5121 C   0  0  0  0  0  0  0  0  0  0  0  0
    1.5458   -5.3764    0.1089 S   0  0  0  0  0  0  0  0  0  0  0  0
    0.5022   -6.6066    0.6223 C   0  0  0  0  0  0  0  0  0  0  0  0
   -0.6079   -5.9517    1.1237 C   0  0  0  0  0  0  0  0  0  0  0  0
   -0.5713   -4.5618    1.0512 C   0  0  0  0  0  0  0  0  0  0  0  0
   -1.9479   -3.8844    1.7805 S   0  0  0  0  0  0  0  0  0  0  0  0
   -2.5789   -5.4077    2.1830 C   0  0  0  0  0  0  0  0  0  0  0  0
   -1.7339   -6.4275    1.7790 C   0  0  0  0  0  0  0  0  0  0  0  0
   -2.1018   -7.7009    2.1886 C   0  0  0  0  0  0  0  0  0  0  0  0
   -3.5214   -7.4918    3.0973 S   0  0  0  0  0  0  0  0  0  0  0  0
   -3.6599   -5.8105    2.9454 C   0  0  0  0  0  0  0  0  0  0  0  0
   -4.6961   -4.9605    3.5334 C   0  0  0  0  0  0  0  0  0  0  0  0
   -5.2948   -5.0446    5.1145 S   0  0  0  0  0  0  0  0  0  0  0  0
   -6.5475   -3.9051    4.9613 C   0  0  0  0  0  0  0  0  0  0  0  0
   -6.5075   -3.4821    3.6388 C   0  0  0  0  0  0  0  0  0  0  0  0
   -5.5024   -4.0486    2.8702 C   0  0  0  0  0  0  0  0  0  0  0  0
   -5.6884   -3.6672    1.2286 S   0  0  0  0  0  0  0  0  0  0  0  0
   -7.0611   -2.7128    1.5319 C   0  0  0  0  0  0  0  0  0  0  0  0
   -7.3862   -2.7206    2.8830 C   0  0  0  0  0  0  0  0  0  0  0  0
   -8.5916   -2.1239    3.2089 C   0  0  0  0  0  0  0  0  0  0  0  0
   -9.2599   -1.6345    1.7351 S   0  0  0  0  0  0  0  0  0  0  0  0
   -8.0074   -2.1345    0.7074 C   0  0  0  0  0  0  0  0  0  0  0  0
   -8.0645   -2.1600   -0.7597 C   0  0  0  0  0  0  0  0  0  0  0  0
   -9.4716   -2.3547   -1.6949 S   0  0  0  0  0  0  0  0  0  0  0  0
   -8.7717   -2.2382   -3.2330 C   0  0  0  0  0  0  0  0  0  0  0  0
   -7.4176   -2.0320   -3.0065 C   0  0  0  0  0  0  0  0  0  0  0  0
   -7.0329   -1.9839   -1.6712 C   0  0  0  0  0  0  0  0  0  0  0  0
   -5.3856   -1.5822   -1.5206 S   0  0  0  0  0  0  0  0  0  0  0  0
   -5.1828   -1.5034   -3.2085 C   0  0  0  0  0  0  0  0  0  0  0  0
   -6.3725   -1.7670   -3.8759 C   0  0  0  0  0  0  0  0  0  0  0  0
   -6.3217   -1.6590   -5.2569 C   0  0  0  0  0  0  0  0  0  0  0  0
   -4.7296   -1.2031   -5.6107 S   0  0  0  0  0  0  0  0  0  0  0  0
   -4.1196   -1.1551   -4.0259 C   0  0  0  0  0  0  0  0  0  0  0  0
   -2.7540   -0.7848   -3.6247 C   0  0  0  0  0  0  0  0  0  0  0  0
   -1.9934   -1.1543   -2.1519 S   0  0  0  0  0  0  0  0  0  0  0  0
   -0.4981   -0.4159   -2.4546 C   0  0  0  0  0  0  0  0  0  0  0  0
   -0.6016    0.1317   -3.7196 C   0  0  0  0  0  0  0  0  0  0  0  0
   -1.8153   -0.0748   -4.3595 C   0  0  0  0  0  0  0  0  0  0  0  0
   -1.8377    0.6657   -5.8894 S   0  0  0  0  0  0  0  0  0  0  0  0
   -0.2564    1.2473   -5.7017 C   0  0  0  0  0  0  0  0  0  0  0  0
    0.2819    0.8806   -4.4797 C   0  0  0  0  0  0  0  0  0  0  0  0
    1.5628    1.3381   -4.2340 C   0  0  0  0  0  0  0  0  0  0  0  0
    1.9878    2.2118   -5.6248 S   0  0  0  0  0  0  0  0  0  0  0  0
    0.5596    2.0075   -6.5136 C   0  0  0  0  0  0  0  0  0  0  0  0
   11.3292   -0.5775   -0.0646 H   0  0  0  0  0  0  0  0  0  0  0  0
   11.6707    3.9754    1.0446 H   0  0  0  0  0  0  0  0  0  0  0  0
    9.1625    5.2176    1.2967 H   0  0  0  0  0  0  0  0  0  0  0  0
    0.9795    2.0472   -1.2305 H   0  0  0  0  0  0  0  0  0  0  0  0
   -0.2571    2.9050   -0.2935 H   0  0  0  0  0  0  0  0  0  0  0  0
    1.3664    4.8791   -0.0579 H   0  0  0  0  0  0  0  0  0  0  0  0
    0.8918    4.4908   -1.7379 H   0  0  0  0  0  0  0  0  0  0  0  0
    2.5084    3.9855   -1.1568 H   0  0  0  0  0  0  0  0  0  0  0  0
    1.8267    4.0493    1.9988 H   0  0  0  0  0  0  0  0  0  0  0  0
    1.6994    2.5878    3.0160 H   0  0  0  0  0  0  0  0  0  0  0  0
   -0.6104    4.1183    1.6878 H   0  0  0  0  0  0  0  0  0  0  0  0
   -0.2162    3.9740    3.4402 H   0  0  0  0  0  0  0  0  0  0  0  0
   -0.8081    2.5322    2.5324 H   0  0  0  0  0  0  0  0  0  0  0  0
    3.8943    3.7824    0.9938 H   0  0  0  0  0  0  0  0  0  0  0  0
   -0.6864   -1.4890    1.2041 H   0  0  0  0  0  0  0  0  0  0  0  0
    0.6752   -7.6748    0.5965 H   0  0  0  0  0  0  0  0  0  0  0  0
   -1.5656   -8.6243    2.0133 H   0  0  0  0  0  0  0  0  0  0  0  0
   -7.2685   -3.6304    5.7200 H   0  0  0  0  0  0  0  0  0  0  0  0
   -9.0453   -2.0624    4.1891 H   0  0  0  0  0  0  0  0  0  0  0  0
   -9.2719   -2.2893   -4.1901 H   0  0  0  0  0  0  0  0  0  0  0  0
   -7.1351   -1.8074   -5.9564 H   0  0  0  0  0  0  0  0  0  0  0  0
    0.3593   -0.3771   -1.8008 H   0  0  0  0  0  0  0  0  0  0  0  0
    2.1515    1.1744   -3.3424 H   0  0  0  0  0  0  0  0  0  0  0  0
    0.3271    2.3903   -7.4942 H   0  0  0  0  0  0  0  0  0  0  0  0
  1  2  1  0
  2  3  1  0
  3  4  2  0
  4  5  1  0
  5  6  1  0
  6  7  1  0
  7  8  1  0
  8  9  2  0
  9 10  1  0
 10 11  1  0
 11 12  1  0
 12 13  1  0
 13 14  1  0
 14 15  1  0
 15 16  2  0
 16 17  1  0
 17 18  1  0
 18 19  1  0
 19 20  1  0
 18 21  1  0
 21 22  1  0
 18 23  1  0
 23 24  1  0
 16 25  1  0
 25 26  2  0
 26 27  1  0
 26 28  1  0
 28 29  1  0
 29 30  1  0
 30 31  2  0
 31 32  1  0
 32 33  1  0
 33 34  1  0
 34 35  1  0
 35 36  2  0
 36 37  1  0
 37 38  1  0
 38 39  1  0
 39 40  1  0
 40 41  1  0
 41 42  2  0
 42 43  1  0
 43 44  1  0
 44 45  1  0
 45 46  1  0
 46 47  2  0
 47 48  1  0
 48 49  1  0
 49 50  1  0
 50 51  1  0
 51 52  1  0
 52 53  2  0
 53 54  1  0
 54 55  1  0
 55 56  1  0
 56 57  1  0
 57 58  2  0
 58 59  1  0
 59 60  1  0
 60 61  1  0
 61 62  1  0
 62 63  1  0
 63 64  2  0
 64 65  1  0
 65 66  1  0
 66 67  1  0
 67 68  1  0
 68 69  2  0
 69 70  1  0
 70 71  1  0
  5  1  2  0
 11  7  2  0
 24 12  2  0
 32 28  2  0
 38 34  2  0
 43 39  2  0
 49 45  2  0
 54 50  2  0
 60 56  2  0
 65 61  2  0
 71 67  2  0
  8  4  1  0
 23 14  2  0
 35 31  1  0
 46 42  1  0
 57 53  1  0
 68 64  1  0
 27 15  1  0
  1 72  1  0
  3 73  1  0
  9 74  1  0
 19 75  1  0
 19 76  1  0
 20 77  1  0
 20 78  1  0
 20 79  1  0
 21 80  1  0
 21 81  1  0
 22 82  1  0
 22 83  1  0
 22 84  1  0
 24 85  1  0
 25 86  1  0
 30 87  1  0
 36 88  1  0
 41 89  1  0
 47 90  1  0
 52 91  1  0
 58 92  1  0
 63 93  1  0
 69 94  1  0
 71 95  1  0
M  END

