
     RDKit          3D

212235  0  0  0  0  0  0  0  0999 V2000
   -1.3164   -3.8274  -11.9727 C   0  0  0  0  0  0  0  0  0  0  0  0
   -1.5709   -4.3064  -10.3753 S   0  0  0  0  0  0  0  0  0  0  0  0
   -3.0838   -4.9712  -10.6632 C   0  0  0  0  0  0  0  0  0  0  0  0
   -4.0219   -5.5381   -9.7156 C   0  0  0  0  0  0  0  0  0  0  0  0
   -5.2993   -5.8318  -10.1215 C   0  0  0  0  0  0  0  0  0  0  0  0
   -5.6955   -5.6367  -11.4545 O   0  0  0  0  0  0  0  0  0  0  0  0
   -4.7592   -5.3887  -12.5354 C   0  0  0  0  0  0  0  0  0  0  0  0
   -4.5178   -6.7623  -13.2199 C   0  0  0  0  0  0  0  0  0  0  0  0
   -3.5381   -6.7652  -14.3973 C   0  0  0  0  0  0  0  0  0  0  0  0
   -5.4334   -4.3933  -13.5155 C   0  0  0  0  0  0  0  0  0  0  0  0
   -5.8487   -3.0869  -12.8361 C   0  0  0  0  0  0  0  0  0  0  0  0
   -3.4312   -4.8255  -11.9960 C   0  0  0  0  0  0  0  0  0  0  0  0
   -2.4242   -4.1822  -12.7376 C   0  0  0  0  0  0  0  0  0  0  0  0
   -6.1249   -6.2937   -9.0935 C   0  0  0  0  0  0  0  0  0  0  0  0
   -5.4542   -6.3669   -7.8681 C   0  0  0  0  0  0  0  0  0  0  0  0
   -3.8575   -5.8382   -8.0736 S   0  0  0  0  0  0  0  0  0  0  0  0
   -6.0230   -6.8232   -6.5888 C   0  0  0  0  0  0  0  0  0  0  0  0
   -5.1205   -7.0873   -5.1877 S   0  0  0  0  0  0  0  0  0  0  0  0
   -6.4347   -7.5519   -4.2565 C   0  0  0  0  0  0  0  0  0  0  0  0
   -6.4800   -7.8175   -2.8353 C   0  0  0  0  0  0  0  0  0  0  0  0
   -7.6927   -7.8610   -2.1939 C   0  0  0  0  0  0  0  0  0  0  0  0
   -8.8902   -7.7667   -2.9218 O   0  0  0  0  0  0  0  0  0  0  0  0
   -8.9504   -7.8959   -4.3677 C   0  0  0  0  0  0  0  0  0  0  0  0
   -9.2265   -9.3949   -4.6754 C   0  0  0  0  0  0  0  0  0  0  0  0
   -9.4109   -9.7486   -6.1548 C   0  0  0  0  0  0  0  0  0  0  0  0
  -10.0796   -6.9551   -4.8720 C   0  0  0  0  0  0  0  0  0  0  0  0
  -11.4403   -7.2219   -4.2225 C   0  0  0  0  0  0  0  0  0  0  0  0
   -7.6037   -7.4881   -4.9959 C   0  0  0  0  0  0  0  0  0  0  0  0
   -7.3699   -7.0902   -6.3274 C   0  0  0  0  0  0  0  0  0  0  0  0
   -7.5921   -7.9398   -0.7992 C   0  0  0  0  0  0  0  0  0  0  0  0
   -6.2607   -7.9689   -0.3702 C   0  0  0  0  0  0  0  0  0  0  0  0
   -5.2370   -7.8718   -1.7176 S   0  0  0  0  0  0  0  0  0  0  0  0
   -5.7788   -7.9358    1.0189 C   0  0  0  0  0  0  0  0  0  0  0  0
   -4.1671   -8.1810    1.4379 S   0  0  0  0  0  0  0  0  0  0  0  0
   -4.3467   -7.6959    3.0285 C   0  0  0  0  0  0  0  0  0  0  0  0
   -3.2879   -7.3581    3.9517 C   0  0  0  0  0  0  0  0  0  0  0  0
   -3.5614   -6.5256    5.0102 C   0  0  0  0  0  0  0  0  0  0  0  0
   -4.8809   -6.1673    5.3281 O   0  0  0  0  0  0  0  0  0  0  0  0
   -6.0499   -6.6437    4.6063 C   0  0  0  0  0  0  0  0  0  0  0  0
   -7.0156   -5.4415    4.3435 C   0  0  0  0  0  0  0  0  0  0  0  0
   -6.8472   -4.2647    5.3142 C   0  0  0  0  0  0  0  0  0  0  0  0
   -6.7250   -7.7563    5.4496 C   0  0  0  0  0  0  0  0  0  0  0  0
   -7.1883   -7.3025    6.8359 C   0  0  0  0  0  0  0  0  0  0  0  0
   -5.6490   -7.2843    3.2629 C   0  0  0  0  0  0  0  0  0  0  0  0
   -6.4759   -7.4607    2.1333 C   0  0  0  0  0  0  0  0  0  0  0  0
   -2.4203   -5.9697    5.6008 C   0  0  0  0  0  0  0  0  0  0  0  0
   -1.2495   -6.3246    4.9266 C   0  0  0  0  0  0  0  0  0  0  0  0
   -1.6447   -7.3553    3.6483 S   0  0  0  0  0  0  0  0  0  0  0  0
   -0.0034   -5.5511    4.9562 C   0  0  0  0  0  0  0  0  0  0  0  0
    0.6658   -5.1605    3.8005 C   0  0  0  0  0  0  0  0  0  0  0  0
    1.6487   -4.1936    4.0321 C   0  0  0  0  0  0  0  0  0  0  0  0
    2.3906   -3.5268    3.0415 C   0  0  0  0  0  0  0  0  0  0  0  0
    2.1497   -3.7600    1.6049 C   0  0  0  0  0  0  0  0  0  0  0  0
    1.4311   -2.6452    0.5701 S   0  0  0  0  0  0  0  0  0  0  0  0
    1.4099   -3.6376   -0.7859 C   0  0  0  0  0  0  0  0  0  0  0  0
    0.7955   -3.2617   -2.0992 C   0  0  0  0  0  0  0  0  0  0  0  0
   -0.6893   -3.6070   -2.1202 C   0  0  0  0  0  0  0  0  0  0  0  0
    1.9423   -4.8785   -0.4363 C   0  0  0  0  0  0  0  0  0  0  0  0
    2.0490   -6.2344   -1.5497 Cl  0  0  0  0  0  0  0  0  0  0  0  0
    2.3659   -4.9435    0.9022 C   0  0  0  0  0  0  0  0  0  0  0  0
    3.0928   -6.3768    1.6162 Cl  0  0  0  0  0  0  0  0  0  0  0  0
    3.2336   -2.4960    3.4742 C   0  0  0  0  0  0  0  0  0  0  0  0
    3.3559   -2.1233    4.8163 C   0  0  0  0  0  0  0  0  0  0  0  0
    2.6308   -2.8100    5.8121 C   0  0  0  0  0  0  0  0  0  0  0  0
    2.8047   -2.5032    7.2408 C   0  0  0  0  0  0  0  0  0  0  0  0
    4.2174   -2.8133    8.0988 S   0  0  0  0  0  0  0  0  0  0  0  0
    3.6261   -2.3364    9.6002 C   0  0  0  0  0  0  0  0  0  0  0  0
    4.3775   -2.4811   10.8871 C   0  0  0  0  0  0  0  0  0  0  0  0
    4.2670   -3.9086   11.4141 C   0  0  0  0  0  0  0  0  0  0  0  0
    2.2976   -1.9379    9.4496 C   0  0  0  0  0  0  0  0  0  0  0  0
    1.8405   -2.0209    8.1240 C   0  0  0  0  0  0  0  0  0  0  0  0
    0.2281   -1.5247    7.6264 Cl  0  0  0  0  0  0  0  0  0  0  0  0
    1.2822   -1.4134   10.7851 Cl  0  0  0  0  0  0  0  0  0  0  0  0
    1.7672   -3.8358    5.3800 C   0  0  0  0  0  0  0  0  0  0  0  0
    0.6313   -4.7093    6.2769 S   0  0  0  0  0  0  0  0  0  0  0  0
    4.1385   -0.9666    4.9967 C   0  0  0  0  0  0  0  0  0  0  0  0
    4.6183   -0.4456    3.7922 C   0  0  0  0  0  0  0  0  0  0  0  0
    4.0989   -1.4271    2.5227 S   0  0  0  0  0  0  0  0  0  0  0  0
    5.1656    0.9020    3.5853 C   0  0  0  0  0  0  0  0  0  0  0  0
    5.3966    1.4515    2.3264 C   0  0  0  0  0  0  0  0  0  0  0  0
    5.5296    2.8442    2.3483 C   0  0  0  0  0  0  0  0  0  0  0  0
    5.5905    3.6819    1.2185 C   0  0  0  0  0  0  0  0  0  0  0  0
    5.5146    3.1438   -0.1506 C   0  0  0  0  0  0  0  0  0  0  0  0
    6.7784    3.1436   -1.2587 S   0  0  0  0  0  0  0  0  0  0  0  0
    5.9495    2.3284   -2.4759 C   0  0  0  0  0  0  0  0  0  0  0  0
    6.5642    1.8747   -3.7638 C   0  0  0  0  0  0  0  0  0  0  0  0
    7.0915    0.4502   -3.6382 C   0  0  0  0  0  0  0  0  0  0  0  0
    4.6667    2.0270   -2.0184 C   0  0  0  0  0  0  0  0  0  0  0  0
    3.4822    1.1308   -2.9616 Cl  0  0  0  0  0  0  0  0  0  0  0  0
    4.4200    2.4915   -0.7178 C   0  0  0  0  0  0  0  0  0  0  0  0
    2.8821    2.2739    0.1107 Cl  0  0  0  0  0  0  0  0  0  0  0  0
    5.5979    5.0638    1.4530 C   0  0  0  0  0  0  0  0  0  0  0  0
    5.5247    5.6100    2.7384 C   0  0  0  0  0  0  0  0  0  0  0  0
    5.4604    4.7702    3.8690 C   0  0  0  0  0  0  0  0  0  0  0  0
    5.2870    5.3052    5.2288 C   0  0  0  0  0  0  0  0  0  0  0  0
    6.4467    5.2327    6.4441 S   0  0  0  0  0  0  0  0  0  0  0  0
    5.5140    5.9942    7.6199 C   0  0  0  0  0  0  0  0  0  0  0  0
    6.0013    6.3520    8.9911 C   0  0  0  0  0  0  0  0  0  0  0  0
    6.5621    7.7697    9.0089 C   0  0  0  0  0  0  0  0  0  0  0  0
    4.2772    6.3263    7.0677 C   0  0  0  0  0  0  0  0  0  0  0  0
    4.1483    5.9354    5.7268 C   0  0  0  0  0  0  0  0  0  0  0  0
    2.6847    6.1843    4.7822 Cl  0  0  0  0  0  0  0  0  0  0  0  0
    3.0024    7.1430    7.9618 Cl  0  0  0  0  0  0  0  0  0  0  0  0
    5.4650    3.3855    3.6353 C   0  0  0  0  0  0  0  0  0  0  0  0
    5.1830    2.1420    4.7377 S   0  0  0  0  0  0  0  0  0  0  0  0
    5.4453    7.0125    2.7371 C   0  0  0  0  0  0  0  0  0  0  0  0
    5.4252    7.5514    1.4495 C   0  0  0  0  0  0  0  0  0  0  0  0
    5.5317    6.3005    0.3194 S   0  0  0  0  0  0  0  0  0  0  0  0
    5.2166    8.9646    1.1018 C   0  0  0  0  0  0  0  0  0  0  0  0
    5.0281   10.0152    2.0001 C   0  0  0  0  0  0  0  0  0  0  0  0
    4.7617   11.2377    1.3610 C   0  0  0  0  0  0  0  0  0  0  0  0
    4.5025   12.4727    1.9888 C   0  0  0  0  0  0  0  0  0  0  0  0
    4.4593   12.6025    3.4546 C   0  0  0  0  0  0  0  0  0  0  0  0
    3.3099   11.8804    4.4457 S   0  0  0  0  0  0  0  0  0  0  0  0
    3.9429   12.4473    5.8967 C   0  0  0  0  0  0  0  0  0  0  0  0
    3.4203   12.0767    7.2531 C   0  0  0  0  0  0  0  0  0  0  0  0
    4.0058   10.7448    7.7018 C   0  0  0  0  0  0  0  0  0  0  0  0
    5.0857   13.1972    5.6225 C   0  0  0  0  0  0  0  0  0  0  0  0
    6.0904   13.9302    6.8665 Cl  0  0  0  0  0  0  0  0  0  0  0  0
    5.3695   13.2910    4.2517 C   0  0  0  0  0  0  0  0  0  0  0  0
    6.7733   14.1388    3.6080 Cl  0  0  0  0  0  0  0  0  0  0  0  0
    4.2521   13.5731    1.1489 C   0  0  0  0  0  0  0  0  0  0  0  0
    4.2406   13.4694   -0.2450 C   0  0  0  0  0  0  0  0  0  0  0  0
    4.4938   12.2344   -0.8700 C   0  0  0  0  0  0  0  0  0  0  0  0
    4.4307   12.0665   -2.3298 C   0  0  0  0  0  0  0  0  0  0  0  0
    3.0077   11.9009   -3.2042 S   0  0  0  0  0  0  0  0  0  0  0  0
    3.7413   11.5745   -4.6835 C   0  0  0  0  0  0  0  0  0  0  0  0
    3.0022   11.2047   -5.9336 C   0  0  0  0  0  0  0  0  0  0  0  0
    2.7956    9.6961   -6.0078 C   0  0  0  0  0  0  0  0  0  0  0  0
    5.1239   11.5639   -4.5011 C   0  0  0  0  0  0  0  0  0  0  0  0
    5.5093   11.8373   -3.1786 C   0  0  0  0  0  0  0  0  0  0  0  0
    7.1837   11.8636   -2.6407 Cl  0  0  0  0  0  0  0  0  0  0  0  0
    6.2709   11.1876   -5.7800 Cl  0  0  0  0  0  0  0  0  0  0  0  0
    4.7574   11.1394   -0.0329 C   0  0  0  0  0  0  0  0  0  0  0  0
    5.0592    9.5477   -0.4755 S   0  0  0  0  0  0  0  0  0  0  0  0
    3.9522   14.6830   -0.8876 C   0  0  0  0  0  0  0  0  0  0  0  0
    3.7326   15.7326    0.0009 C   0  0  0  0  0  0  0  0  0  0  0  0
    3.8910   15.1573    1.5791 S   0  0  0  0  0  0  0  0  0  0  0  0
   -0.4337   -3.3270  -12.3448 H   0  0  0  0  0  0  0  0  0  0  0  0
   -5.4918   -7.1619  -13.5797 H   0  0  0  0  0  0  0  0  0  0  0  0
   -4.1395   -7.4801  -12.4593 H   0  0  0  0  0  0  0  0  0  0  0  0
   -2.5092   -6.5325  -14.0585 H   0  0  0  0  0  0  0  0  0  0  0  0
   -3.5179   -7.7780  -14.8506 H   0  0  0  0  0  0  0  0  0  0  0  0
   -3.8462   -6.0494  -15.1855 H   0  0  0  0  0  0  0  0  0  0  0  0
   -6.3435   -4.8608  -13.9493 H   0  0  0  0  0  0  0  0  0  0  0  0
   -4.7597   -4.1431  -14.3616 H   0  0  0  0  0  0  0  0  0  0  0  0
   -6.3027   -2.4070  -13.5874 H   0  0  0  0  0  0  0  0  0  0  0  0
   -4.9699   -2.5768  -12.3928 H   0  0  0  0  0  0  0  0  0  0  0  0
   -6.6013   -3.2794  -12.0437 H   0  0  0  0  0  0  0  0  0  0  0  0
   -2.4858   -3.9844  -13.7984 H   0  0  0  0  0  0  0  0  0  0  0  0
   -7.1609   -6.5679   -9.2412 H   0  0  0  0  0  0  0  0  0  0  0  0
   -8.3809  -10.0018   -4.2811 H   0  0  0  0  0  0  0  0  0  0  0  0
  -10.1256   -9.7289   -4.1213 H   0  0  0  0  0  0  0  0  0  0  0  0
  -10.2785   -9.2175   -6.5915 H   0  0  0  0  0  0  0  0  0  0  0  0
   -8.4953   -9.5209   -6.7339 H   0  0  0  0  0  0  0  0  0  0  0  0
   -9.5982  -10.8397   -6.2463 H   0  0  0  0  0  0  0  0  0  0  0  0
   -9.7937   -5.9049   -4.6395 H   0  0  0  0  0  0  0  0  0  0  0  0
  -10.2001   -7.0217   -5.9726 H   0  0  0  0  0  0  0  0  0  0  0  0
  -12.1637   -6.4477   -4.5558 H   0  0  0  0  0  0  0  0  0  0  0  0
  -11.8365   -8.2123   -4.5257 H   0  0  0  0  0  0  0  0  0  0  0  0
  -11.3675   -7.1750   -3.1170 H   0  0  0  0  0  0  0  0  0  0  0  0
   -8.1473   -6.9947   -7.0721 H   0  0  0  0  0  0  0  0  0  0  0  0
   -8.4451   -7.9502   -0.1338 H   0  0  0  0  0  0  0  0  0  0  0  0
   -6.8491   -5.0278    3.3259 H   0  0  0  0  0  0  0  0  0  0  0  0
   -8.0727   -5.7835    4.3727 H   0  0  0  0  0  0  0  0  0  0  0  0
   -5.8882   -3.7426    5.1084 H   0  0  0  0  0  0  0  0  0  0  0  0
   -7.6718   -3.5354    5.1598 H   0  0  0  0  0  0  0  0  0  0  0  0
   -6.8548   -4.5918    6.3705 H   0  0  0  0  0  0  0  0  0  0  0  0
   -5.9971   -8.5831    5.5945 H   0  0  0  0  0  0  0  0  0  0  0  0
   -7.5984   -8.1739    4.9046 H   0  0  0  0  0  0  0  0  0  0  0  0
   -7.5232   -8.1868    7.4187 H   0  0  0  0  0  0  0  0  0  0  0  0
   -8.0473   -6.6044    6.7526 H   0  0  0  0  0  0  0  0  0  0  0  0
   -6.3593   -6.8150    7.3893 H   0  0  0  0  0  0  0  0  0  0  0  0
   -7.5167   -7.1680    2.1032 H   0  0  0  0  0  0  0  0  0  0  0  0
   -2.4610   -5.2155    6.3745 H   0  0  0  0  0  0  0  0  0  0  0  0
    0.3836   -5.4965    2.8109 H   0  0  0  0  0  0  0  0  0  0  0  0
    0.9192   -2.1700   -2.2609 H   0  0  0  0  0  0  0  0  0  0  0  0
    1.3142   -3.7900   -2.9267 H   0  0  0  0  0  0  0  0  0  0  0  0
   -1.2215   -3.0751   -1.3029 H   0  0  0  0  0  0  0  0  0  0  0  0
   -1.1279   -3.2964   -3.0914 H   0  0  0  0  0  0  0  0  0  0  0  0
   -0.8349   -4.7021   -1.9998 H   0  0  0  0  0  0  0  0  0  0  0  0
    3.9860   -1.7730   11.6497 H   0  0  0  0  0  0  0  0  0  0  0  0
    5.4481   -2.2364   10.7139 H   0  0  0  0  0  0  0  0  0  0  0  0
    3.2065   -4.1599   11.6373 H   0  0  0  0  0  0  0  0  0  0  0  0
    4.8629   -4.0105   12.3437 H   0  0  0  0  0  0  0  0  0  0  0  0
    4.6610   -4.6278   10.6618 H   0  0  0  0  0  0  0  0  0  0  0  0
    4.2664   -0.4760    5.9522 H   0  0  0  0  0  0  0  0  0  0  0  0
    5.3718    0.8722    1.4139 H   0  0  0  0  0  0  0  0  0  0  0  0
    7.4032    2.5535   -4.0298 H   0  0  0  0  0  0  0  0  0  0  0  0
    5.8122    1.9235   -4.5802 H   0  0  0  0  0  0  0  0  0  0  0  0
    6.2592   -0.2530   -3.4176 H   0  0  0  0  0  0  0  0  0  0  0  0
    7.8460    0.3893   -2.8250 H   0  0  0  0  0  0  0  0  0  0  0  0
    7.5696    0.1445   -4.5919 H   0  0  0  0  0  0  0  0  0  0  0  0
    6.7972    5.6385    9.2988 H   0  0  0  0  0  0  0  0  0  0  0  0
    5.1683    6.2709    9.7224 H   0  0  0  0  0  0  0  0  0  0  0  0
    6.8790    8.0331   10.0391 H   0  0  0  0  0  0  0  0  0  0  0  0
    5.7879    8.4954    8.6781 H   0  0  0  0  0  0  0  0  0  0  0  0
    7.4440    7.8405    8.3352 H   0  0  0  0  0  0  0  0  0  0  0  0
    5.3567    7.6097    3.6350 H   0  0  0  0  0  0  0  0  0  0  0  0
    5.0673    9.8976    3.0745 H   0  0  0  0  0  0  0  0  0  0  0  0
    3.6773   12.8651    7.9913 H   0  0  0  0  0  0  0  0  0  0  0  0
    2.3140   11.9963    7.2105 H   0  0  0  0  0  0  0  0  0  0  0  0
    3.6062   10.4804    8.7063 H   0  0  0  0  0  0  0  0  0  0  0  0
    5.1135   10.8131    7.7642 H   0  0  0  0  0  0  0  0  0  0  0  0
    3.7295    9.9420    6.9860 H   0  0  0  0  0  0  0  0  0  0  0  0
    2.0126   11.7099   -5.9397 H   0  0  0  0  0  0  0  0  0  0  0  0
    3.5657   11.5500   -6.8262 H   0  0  0  0  0  0  0  0  0  0  0  0
    2.2028    9.3453   -5.1370 H   0  0  0  0  0  0  0  0  0  0  0  0
    3.7742    9.1695   -6.0221 H   0  0  0  0  0  0  0  0  0  0  0  0
    2.2429    9.4433   -6.9382 H   0  0  0  0  0  0  0  0  0  0  0  0
    3.9055   14.8019   -1.9633 H   0  0  0  0  0  0  0  0  0  0  0  0
    3.4967   16.7494   -0.2788 H   0  0  0  0  0  0  0  0  0  0  0  0
  1  2  1  0
  2  3  1  0
  3  4  1  0
  4  5  2  0
  5  6  1  0
  6  7  1  0
  7  8  1  0
  8  9  1  0
  7 10  1  0
 10 11  1  0
  7 12  1  0
 12 13  1  0
  5 14  1  0
 14 15  2  0
 15 16  1  0
 15 17  1  0
 17 18  1  0
 18 19  1  0
 19 20  1  0
 20 21  2  0
 21 22  1  0
 22 23  1  0
 23 24  1  0
 24 25  1  0
 23 26  1  0
 26 27  1  0
 23 28  1  0
 28 29  1  0
 21 30  1  0
 30 31  2  0
 31 32  1  0
 31 33  1  0
 33 34  1  0
 34 35  1  0
 35 36  1  0
 36 37  2  0
 37 38  1  0
 38 39  1  0
 39 40  1  0
 40 41  1  0
 39 42  1  0
 42 43  1  0
 39 44  1  0
 44 45  1  0
 37 46  1  0
 46 47  2  0
 47 48  1  0
 47 49  1  0
 49 50  2  0
 50 51  1  0
 51 52  2  0
 52 53  1  0
 53 54  1  0
 54 55  1  0
 55 56  1  0
 56 57  1  0
 55 58  2  0
 58 59  1  0
 58 60  1  0
 60 61  1  0
 52 62  1  0
 62 63  2  0
 63 64  1  0
 64 65  1  0
 65 66  1  0
 66 67  1  0
 67 68  1  0
 68 69  1  0
 67 70  2  0
 70 71  1  0
 71 72  1  0
 70 73  1  0
 64 74  2  0
 74 75  1  0
 63 76  1  0
 76 77  2  0
 77 78  1  0
 77 79  1  0
 79 80  2  0
 80 81  1  0
 81 82  2  0
 82 83  1  0
 83 84  1  0
 84 85  1  0
 85 86  1  0
 86 87  1  0
 85 88  2  0
 88 89  1  0
 88 90  1  0
 90 91  1  0
 82 92  1  0
 92 93  2  0
 93 94  1  0
 94 95  1  0
 95 96  1  0
 96 97  1  0
 97 98  1  0
 98 99  1  0
 97100  2  0
100101  1  0
101102  1  0
100103  1  0
 94104  2  0
104105  1  0
 93106  1  0
106107  2  0
107108  1  0
107109  1  0
109110  2  0
110111  1  0
111112  2  0
112113  1  0
113114  1  0
114115  1  0
115116  1  0
116117  1  0
115118  2  0
118119  1  0
118120  1  0
120121  1  0
112122  1  0
122123  2  0
123124  1  0
124125  1  0
125126  1  0
126127  1  0
127128  1  0
128129  1  0
127130  2  0
130131  1  0
131132  1  0
130133  1  0
124134  2  0
134135  1  0
123136  1  0
136137  2  0
137138  1  0
 13  1  2  0
 29 17  2  0
 45 33  2  0
 75 49  1  0
105 79  1  0
135109  1  0
 12  3  2  0
 28 19  2  0
 44 35  2  0
 74 51  1  0
104 81  1  0
134111  1  0
 16  4  1  0
 32 20  1  0
 48 36  1  0
 60 53  2  0
 78 62  1  0
 90 83  2  0
108 92  1  0
120113  2  0
138122  1  0
 71 65  2  0
101 95  2  0
131125  2  0
  1139  1  0
  8140  1  0
  8141  1  0
  9142  1  0
  9143  1  0
  9144  1  0
 10145  1  0
 10146  1  0
 11147  1  0
 11148  1  0
 11149  1  0
 13150  1  0
 14151  1  0
 24152  1  0
 24153  1  0
 25154  1  0
 25155  1  0
 25156  1  0
 26157  1  0
 26158  1  0
 27159  1  0
 27160  1  0
 27161  1  0
 29162  1  0
 30163  1  0
 40164  1  0
 40165  1  0
 41166  1  0
 41167  1  0
 41168  1  0
 42169  1  0
 42170  1  0
 43171  1  0
 43172  1  0
 43173  1  0
 45174  1  0
 46175  1  0
 50176  1  0
 56177  1  0
 56178  1  0
 57179  1  0
 57180  1  0
 57181  1  0
 68182  1  0
 68183  1  0
 69184  1  0
 69185  1  0
 69186  1  0
 76187  1  0
 80188  1  0
 86189  1  0
 86190  1  0
 87191  1  0
 87192  1  0
 87193  1  0
 98194  1  0
 98195  1  0
 99196  1  0
 99197  1  0
 99198  1  0
106199  1  0
110200  1  0
116201  1  0
116202  1  0
117203  1  0
117204  1  0
117205  1  0
128206  1  0
128207  1  0
129208  1  0
129209  1  0
129210  1  0
136211  1  0
137212  1  0
M  END

