
     RDKit          3D

105117  0  0  0  0  0  0  0  0999 V2000
    6.4016   -2.3009    4.3797 C   0  0  0  0  0  0  0  0  0  0  0  0
    5.4536   -1.3739    4.2756 C   0  0  0  0  0  0  0  0  0  0  0  0
    4.9739   -1.2668    2.9308 C   0  0  0  0  0  0  0  0  0  0  0  0
    5.7237   -2.2796    2.2047 C   0  0  0  0  0  0  0  0  0  0  0  0
    5.7017   -2.5001    0.9634 O   0  0  0  0  0  0  0  0  0  0  0  0
    6.5541   -2.9834    3.1254 N   0  0  0  0  0  0  0  0  0  0  0  0
    4.6738    0.0104    2.6680 C   0  0  0  0  0  0  0  0  0  0  0  0
    4.8721    0.7909    3.8223 O   0  0  0  0  0  0  0  0  0  0  0  0
    5.3645   -0.0411    4.8161 C   0  0  0  0  0  0  0  0  0  0  0  0
    5.7722    0.3426    5.9430 O   0  0  0  0  0  0  0  0  0  0  0  0
    4.2959    0.6282    1.3816 C   0  0  0  0  0  0  0  0  0  0  0  0
    3.6645    0.0526    0.3534 C   0  0  0  0  0  0  0  0  0  0  0  0
    3.1460   -1.3264    0.2728 C   0  0  0  0  0  0  0  0  0  0  0  0
    2.4384   -1.9825    1.2033 C   0  0  0  0  0  0  0  0  0  0  0  0
    1.7190   -3.0672    0.6019 C   0  0  0  0  0  0  0  0  0  0  0  0
    2.1230   -3.0752   -0.7852 C   0  0  0  0  0  0  0  0  0  0  0  0
    1.6856   -3.8293   -1.6943 O   0  0  0  0  0  0  0  0  0  0  0  0
    3.0251   -1.9973   -0.9927 N   0  0  0  0  0  0  0  0  0  0  0  0
    0.5277   -3.2070    1.1864 C   0  0  0  0  0  0  0  0  0  0  0  0
    0.4339   -2.3559    2.2973 O   0  0  0  0  0  0  0  0  0  0  0  0
    1.5757   -1.5536    2.2935 C   0  0  0  0  0  0  0  0  0  0  0  0
    1.7977   -0.6305    3.1123 O   0  0  0  0  0  0  0  0  0  0  0  0
   -0.6147   -3.9447    0.6319 C   0  0  0  0  0  0  0  0  0  0  0  0
   -1.6047   -4.3865    1.4099 C   0  0  0  0  0  0  0  0  0  0  0  0
   -2.8512   -4.9113    0.8219 C   0  0  0  0  0  0  0  0  0  0  0  0
   -3.5901   -4.2580   -0.0791 C   0  0  0  0  0  0  0  0  0  0  0  0
   -4.9259   -4.7731   -0.1106 C   0  0  0  0  0  0  0  0  0  0  0  0
   -4.9180   -5.8750    0.8303 C   0  0  0  0  0  0  0  0  0  0  0  0
   -5.9077   -6.5791    1.1686 O   0  0  0  0  0  0  0  0  0  0  0  0
   -3.6099   -5.9886    1.3952 N   0  0  0  0  0  0  0  0  0  0  0  0
   -5.7927   -3.7747   -0.3028 C   0  0  0  0  0  0  0  0  0  0  0  0
   -5.0887   -2.5772   -0.5122 O   0  0  0  0  0  0  0  0  0  0  0  0
   -3.7381   -2.8424   -0.3398 C   0  0  0  0  0  0  0  0  0  0  0  0
   -2.8292   -1.9722   -0.3522 O   0  0  0  0  0  0  0  0  0  0  0  0
   -7.2705   -3.8882   -0.2309 C   0  0  0  0  0  0  0  0  0  0  0  0
   -8.1189   -2.8481   -0.3138 C   0  0  0  0  0  0  0  0  0  0  0  0
   -7.6735   -1.4543   -0.4186 C   0  0  0  0  0  0  0  0  0  0  0  0
   -7.0298   -0.7769   -1.8219 S   0  0  0  0  0  0  0  0  0  0  0  0
   -6.2427    0.4811   -1.0360 C   0  0  0  0  0  0  0  0  0  0  0  0
   -5.0612    1.1726   -1.5258 C   0  0  0  0  0  0  0  0  0  0  0  0
   -4.1388    1.6479   -0.6227 C   0  0  0  0  0  0  0  0  0  0  0  0
   -4.4084    1.6477    0.7551 O   0  0  0  0  0  0  0  0  0  0  0  0
   -5.7195    1.3550    1.2946 C   0  0  0  0  0  0  0  0  0  0  0  0
   -5.4960    0.7112    2.6987 C   0  0  0  0  0  0  0  0  0  0  0  0
   -6.6967    0.7622    3.6652 C   0  0  0  0  0  0  0  0  0  0  0  0
   -6.5088    2.6943    1.3580 C   0  0  0  0  0  0  0  0  0  0  0  0
   -5.7805    3.8057    2.1217 C   0  0  0  0  0  0  0  0  0  0  0  0
   -6.4636    0.3998    0.3376 C   0  0  0  0  0  0  0  0  0  0  0  0
   -7.2780   -0.6945    0.6808 C   0  0  0  0  0  0  0  0  0  0  0  0
   -2.9161    2.0060   -1.1959 C   0  0  0  0  0  0  0  0  0  0  0  0
   -2.8784    1.7508   -2.5687 C   0  0  0  0  0  0  0  0  0  0  0  0
   -4.3675    1.1138   -3.0539 S   0  0  0  0  0  0  0  0  0  0  0  0
   -1.7354    1.9552   -3.4707 C   0  0  0  0  0  0  0  0  0  0  0  0
   -0.4389    1.8845   -3.1437 C   0  0  0  0  0  0  0  0  0  0  0  0
    0.3606    1.7880   -4.3161 C   0  0  0  0  0  0  0  0  0  0  0  0
   -0.5593    1.8691   -5.4275 C   0  0  0  0  0  0  0  0  0  0  0  0
   -0.2861    1.7455   -6.6521 O   0  0  0  0  0  0  0  0  0  0  0  0
   -1.8763    2.0219   -4.9012 N   0  0  0  0  0  0  0  0  0  0  0  0
    1.4624    1.0822   -4.0740 C   0  0  0  0  0  0  0  0  0  0  0  0
    1.5267    0.7591   -2.7110 O   0  0  0  0  0  0  0  0  0  0  0  0
    0.3374    1.2004   -2.1224 C   0  0  0  0  0  0  0  0  0  0  0  0
   -0.0105    0.9417   -0.9419 O   0  0  0  0  0  0  0  0  0  0  0  0
    2.3885    0.5676   -5.0948 C   0  0  0  0  0  0  0  0  0  0  0  0
    3.6731    0.2734   -4.8480 C   0  0  0  0  0  0  0  0  0  0  0  0
    4.3668    0.6457   -3.6021 C   0  0  0  0  0  0  0  0  0  0  0  0
    5.4051   -0.0067   -3.0830 C   0  0  0  0  0  0  0  0  0  0  0  0
    6.0997    0.7930   -2.1504 C   0  0  0  0  0  0  0  0  0  0  0  0
    5.3793    2.0456   -2.1021 C   0  0  0  0  0  0  0  0  0  0  0  0
    5.7185    3.0906   -1.4872 O   0  0  0  0  0  0  0  0  0  0  0  0
    4.2528    1.9425   -2.9783 N   0  0  0  0  0  0  0  0  0  0  0  0
    7.3575    0.3916   -2.0356 C   0  0  0  0  0  0  0  0  0  0  0  0
    7.5534   -0.7653   -2.8099 O   0  0  0  0  0  0  0  0  0  0  0  0
    6.3605   -1.0091   -3.5000 C   0  0  0  0  0  0  0  0  0  0  0  0
    6.1908   -1.9085   -4.3635 O   0  0  0  0  0  0  0  0  0  0  0  0
    8.4152    1.0920   -1.2931 C   0  0  0  0  0  0  0  0  0  0  0  0
    9.6614    0.6295   -1.2695 C   0  0  0  0  0  0  0  0  0  0  0  0
    7.1276   -2.3526    5.1808 H   0  0  0  0  0  0  0  0  0  0  0  0
    7.3132   -3.6569    2.8795 H   0  0  0  0  0  0  0  0  0  0  0  0
    4.5030    1.6911    1.2888 H   0  0  0  0  0  0  0  0  0  0  0  0
    3.5340    0.6520   -0.5340 H   0  0  0  0  0  0  0  0  0  0  0  0
    3.5118   -1.7535   -1.8841 H   0  0  0  0  0  0  0  0  0  0  0  0
   -0.6906   -4.0493   -0.4407 H   0  0  0  0  0  0  0  0  0  0  0  0
   -1.4991   -4.3718    2.4875 H   0  0  0  0  0  0  0  0  0  0  0  0
   -3.3158   -6.6186    2.1773 H   0  0  0  0  0  0  0  0  0  0  0  0
   -7.6963   -4.8779   -0.1102 H   0  0  0  0  0  0  0  0  0  0  0  0
   -9.1821   -3.0362   -0.2431 H   0  0  0  0  0  0  0  0  0  0  0  0
   -4.6376    1.2111    3.2031 H   0  0  0  0  0  0  0  0  0  0  0  0
   -5.1882   -0.3522    2.5648 H   0  0  0  0  0  0  0  0  0  0  0  0
   -7.6672    0.6755    3.1438 H   0  0  0  0  0  0  0  0  0  0  0  0
   -6.6247   -0.0629    4.4034 H   0  0  0  0  0  0  0  0  0  0  0  0
   -6.6888    1.7221    4.2235 H   0  0  0  0  0  0  0  0  0  0  0  0
   -6.6790    3.0649    0.3217 H   0  0  0  0  0  0  0  0  0  0  0  0
   -7.5161    2.5434    1.8049 H   0  0  0  0  0  0  0  0  0  0  0  0
   -4.8435    4.0835    1.5982 H   0  0  0  0  0  0  0  0  0  0  0  0
   -6.4300    4.7038    2.1667 H   0  0  0  0  0  0  0  0  0  0  0  0
   -5.5403    3.5004    3.1574 H   0  0  0  0  0  0  0  0  0  0  0  0
   -7.4654   -1.0168    1.6930 H   0  0  0  0  0  0  0  0  0  0  0  0
   -2.0848    2.4039   -0.6244 H   0  0  0  0  0  0  0  0  0  0  0  0
   -2.7668    2.0262   -5.4469 H   0  0  0  0  0  0  0  0  0  0  0  0
    2.0065    0.3742   -6.0871 H   0  0  0  0  0  0  0  0  0  0  0  0
    4.2517   -0.2144   -5.6274 H   0  0  0  0  0  0  0  0  0  0  0  0
    3.6494    2.7315   -3.2937 H   0  0  0  0  0  0  0  0  0  0  0  0
    8.1736    1.9955   -0.7437 H   0  0  0  0  0  0  0  0  0  0  0  0
    9.9396   -0.2730   -1.7996 H   0  0  0  0  0  0  0  0  0  0  0  0
   10.4227    1.1577   -0.7143 H   0  0  0  0  0  0  0  0  0  0  0  0
  1  2  2  0
  2  3  1  0
  3  4  1  0
  4  5  2  0
  4  6  1  0
  3  7  2  0
  7  8  1  0
  8  9  1  0
  9 10  2  0
  7 11  1  0
 11 12  2  3
 12 13  1  0
 13 14  2  0
 14 15  1  0
 15 16  1  0
 16 17  2  0
 16 18  1  0
 15 19  2  0
 19 20  1  0
 20 21  1  0
 21 22  2  0
 19 23  1  0
 23 24  2  3
 24 25  1  0
 25 26  2  0
 26 27  1  0
 27 28  1  0
 28 29  2  0
 28 30  1  0
 27 31  2  0
 31 32  1  0
 32 33  1  0
 33 34  2  0
 31 35  1  0
 35 36  2  3
 36 37  1  0
 37 38  1  0
 38 39  1  0
 39 40  1  0
 40 41  2  0
 41 42  1  0
 42 43  1  0
 43 44  1  0
 44 45  1  0
 43 46  1  0
 46 47  1  0
 43 48  1  0
 48 49  1  0
 41 50  1  0
 50 51  2  0
 51 52  1  0
 51 53  1  0
 53 54  2  0
 54 55  1  0
 55 56  1  0
 56 57  2  0
 56 58  1  0
 55 59  2  0
 59 60  1  0
 60 61  1  0
 61 62  2  0
 59 63  1  0
 63 64  2  3
 64 65  1  0
 65 66  2  0
 66 67  1  0
 67 68  1  0
 68 69  2  0
 68 70  1  0
 67 71  2  0
 71 72  1  0
 72 73  1  0
 73 74  2  0
 71 75  1  0
 75 76  2  3
  6  1  1  0
 18 13  1  0
 30 25  1  0
 49 37  2  0
 58 53  1  0
 70 65  1  0
  9  2  1  0
 21 14  1  0
 33 26  1  0
 48 39  2  0
 61 54  1  0
 73 66  1  0
 52 40  1  0
  1 77  1  0
  6 78  1  0
 11 79  1  0
 12 80  1  0
 18 81  1  0
 23 82  1  0
 24 83  1  0
 30 84  1  0
 35 85  1  0
 36 86  1  0
 44 87  1  0
 44 88  1  0
 45 89  1  0
 45 90  1  0
 45 91  1  0
 46 92  1  0
 46 93  1  0
 47 94  1  0
 47 95  1  0
 47 96  1  0
 49 97  1  0
 50 98  1  0
 58 99  1  0
 63100  1  0
 64101  1  0
 70102  1  0
 75103  1  0
 76104  1  0
 76105  1  0
M  END

