
     RDKit          3D

226251  0  0  0  0  0  0  0  0999 V2000
    5.6690   -8.1310   -4.9779 C   0  0  0  0  0  0  0  0  0  0  0  0
    4.7664   -7.1075   -3.9856 S   0  0  0  0  0  0  0  0  0  0  0  0
    6.0704   -6.6366   -3.0398 C   0  0  0  0  0  0  0  0  0  0  0  0
    6.1032   -5.7155   -1.9260 C   0  0  0  0  0  0  0  0  0  0  0  0
    7.2975   -5.4297   -1.3136 C   0  0  0  0  0  0  0  0  0  0  0  0
    8.4950   -6.0219   -1.7378 O   0  0  0  0  0  0  0  0  0  0  0  0
    8.5810   -7.0310   -2.7769 C   0  0  0  0  0  0  0  0  0  0  0  0
    8.9960   -8.3726   -2.1151 C   0  0  0  0  0  0  0  0  0  0  0  0
   10.2769   -8.2898   -1.2783 C   0  0  0  0  0  0  0  0  0  0  0  0
    9.6431   -6.5754   -3.8130 C   0  0  0  0  0  0  0  0  0  0  0  0
    9.2629   -5.2814   -4.5352 C   0  0  0  0  0  0  0  0  0  0  0  0
    7.2283   -7.2537   -3.4762 C   0  0  0  0  0  0  0  0  0  0  0  0
    7.0004   -8.1036   -4.5722 C   0  0  0  0  0  0  0  0  0  0  0  0
    7.1926   -4.4941   -0.2831 C   0  0  0  0  0  0  0  0  0  0  0  0
    5.8840   -4.0401   -0.1129 C   0  0  0  0  0  0  0  0  0  0  0  0
    4.8723   -4.8089   -1.2336 S   0  0  0  0  0  0  0  0  0  0  0  0
    5.4522   -2.9869    0.8210 C   0  0  0  0  0  0  0  0  0  0  0  0
    6.2762   -2.2906    1.7070 C   0  0  0  0  0  0  0  0  0  0  0  0
    5.6146   -1.2366    2.3609 C   0  0  0  0  0  0  0  0  0  0  0  0
    6.2096   -0.2913    3.2264 C   0  0  0  0  0  0  0  0  0  0  0  0
    7.6195   -0.4007    3.6493 C   0  0  0  0  0  0  0  0  0  0  0  0
    8.8273    0.7182    3.2996 S   0  0  0  0  0  0  0  0  0  0  0  0
   10.0675   -0.1043    4.0895 C   0  0  0  0  0  0  0  0  0  0  0  0
   11.4991    0.3383    4.1213 C   0  0  0  0  0  0  0  0  0  0  0  0
   12.2994   -0.3363    3.0129 C   0  0  0  0  0  0  0  0  0  0  0  0
    9.5508   -1.2845    4.6212 C   0  0  0  0  0  0  0  0  0  0  0  0
   10.5183   -2.4483    5.5158 Cl  0  0  0  0  0  0  0  0  0  0  0  0
    8.1785   -1.4467    4.3803 C   0  0  0  0  0  0  0  0  0  0  0  0
    7.2536   -2.8143    4.9865 Cl  0  0  0  0  0  0  0  0  0  0  0  0
    5.3953    0.7735    3.6569 C   0  0  0  0  0  0  0  0  0  0  0  0
    4.0455    0.8675    3.3037 C   0  0  0  0  0  0  0  0  0  0  0  0
    3.4586   -0.0588    2.4197 C   0  0  0  0  0  0  0  0  0  0  0  0
    2.0982    0.1419    1.8742 C   0  0  0  0  0  0  0  0  0  0  0  0
    0.8181   -0.9304    2.0668 S   0  0  0  0  0  0  0  0  0  0  0  0
   -0.3457    0.0230    1.3153 C   0  0  0  0  0  0  0  0  0  0  0  0
   -1.7867   -0.3571    1.1492 C   0  0  0  0  0  0  0  0  0  0  0  0
   -2.5835   -0.0162    2.4026 C   0  0  0  0  0  0  0  0  0  0  0  0
    0.2514    1.2184    0.9124 C   0  0  0  0  0  0  0  0  0  0  0  0
    1.6262    1.2737    1.2001 C   0  0  0  0  0  0  0  0  0  0  0  0
    2.6521    2.6170    0.7002 Cl  0  0  0  0  0  0  0  0  0  0  0  0
   -0.6163    2.5193    0.1010 Cl  0  0  0  0  0  0  0  0  0  0  0  0
    4.2704   -1.1156    1.9854 C   0  0  0  0  0  0  0  0  0  0  0  0
    3.9081   -2.3009    0.8528 S   0  0  0  0  0  0  0  0  0  0  0  0
    3.4201    2.0034    3.8251 C   0  0  0  0  0  0  0  0  0  0  0  0
    4.2887    2.8679    4.4841 C   0  0  0  0  0  0  0  0  0  0  0  0
    5.8317    2.1735    4.4971 S   0  0  0  0  0  0  0  0  0  0  0  0
    3.9943    4.3036    4.5664 C   0  0  0  0  0  0  0  0  0  0  0  0
    4.5993    5.1964    3.6816 C   0  0  0  0  0  0  0  0  0  0  0  0
    3.7262    6.1964    3.2130 C   0  0  0  0  0  0  0  0  0  0  0  0
    3.9527    7.0172    2.0897 C   0  0  0  0  0  0  0  0  0  0  0  0
    5.2527    7.0579    1.4020 C   0  0  0  0  0  0  0  0  0  0  0  0
    5.8901    5.8182    0.4583 S   0  0  0  0  0  0  0  0  0  0  0  0
    7.3308    6.6037    0.0861 C   0  0  0  0  0  0  0  0  0  0  0  0
    8.3918    6.0503   -0.8163 C   0  0  0  0  0  0  0  0  0  0  0  0
    8.2604    6.6226   -2.2248 C   0  0  0  0  0  0  0  0  0  0  0  0
    7.3198    7.8639    0.6803 C   0  0  0  0  0  0  0  0  0  0  0  0
    8.6352    9.0196    0.5334 Cl  0  0  0  0  0  0  0  0  0  0  0  0
    6.1524    8.1198    1.4161 C   0  0  0  0  0  0  0  0  0  0  0  0
    5.8561    9.6208    2.2832 Cl  0  0  0  0  0  0  0  0  0  0  0  0
    2.8338    7.6670    1.5398 C   0  0  0  0  0  0  0  0  0  0  0  0
    1.5571    7.5752    2.1056 C   0  0  0  0  0  0  0  0  0  0  0  0
    1.3557    6.8427    3.2927 C   0  0  0  0  0  0  0  0  0  0  0  0
    0.0066    6.5767    3.8252 C   0  0  0  0  0  0  0  0  0  0  0  0
   -1.1157    5.5448    3.1114 S   0  0  0  0  0  0  0  0  0  0  0  0
   -2.2458    5.6264    4.3568 C   0  0  0  0  0  0  0  0  0  0  0  0
   -3.5689    4.9214    4.3540 C   0  0  0  0  0  0  0  0  0  0  0  0
   -4.6649    5.8373    3.8217 C   0  0  0  0  0  0  0  0  0  0  0  0
   -1.7590    6.4749    5.3495 C   0  0  0  0  0  0  0  0  0  0  0  0
   -0.4875    6.9938    5.0591 C   0  0  0  0  0  0  0  0  0  0  0  0
    0.3993    8.0580    6.1434 Cl  0  0  0  0  0  0  0  0  0  0  0  0
   -2.6406    6.8558    6.8217 Cl  0  0  0  0  0  0  0  0  0  0  0  0
    2.4630    6.1487    3.8075 C   0  0  0  0  0  0  0  0  0  0  0  0
    2.4233    4.8456    4.8624 S   0  0  0  0  0  0  0  0  0  0  0  0
    0.5427    8.0606    1.2618 C   0  0  0  0  0  0  0  0  0  0  0  0
    1.0080    8.4625    0.0087 C   0  0  0  0  0  0  0  0  0  0  0  0
    2.6870    8.2768   -0.0203 S   0  0  0  0  0  0  0  0  0  0  0  0
    0.1862    8.2862   -1.1924 C   0  0  0  0  0  0  0  0  0  0  0  0
    0.2967    6.8809   -2.1140 S   0  0  0  0  0  0  0  0  0  0  0  0
   -1.2106    7.0206   -2.8218 C   0  0  0  0  0  0  0  0  0  0  0  0
   -1.9965    5.9211   -3.3514 C   0  0  0  0  0  0  0  0  0  0  0  0
   -3.3718    5.9995   -3.2861 C   0  0  0  0  0  0  0  0  0  0  0  0
   -4.0088    7.1930   -2.9136 O   0  0  0  0  0  0  0  0  0  0  0  0
   -3.3051    8.4543   -2.7831 C   0  0  0  0  0  0  0  0  0  0  0  0
   -3.3426    9.1127   -4.2031 C   0  0  0  0  0  0  0  0  0  0  0  0
   -2.2122   10.1005   -4.5220 C   0  0  0  0  0  0  0  0  0  0  0  0
   -4.0999    9.2711   -1.7136 C   0  0  0  0  0  0  0  0  0  0  0  0
   -3.9546   10.7969   -1.7439 C   0  0  0  0  0  0  0  0  0  0  0  0
   -1.8506    8.1643   -2.3500 C   0  0  0  0  0  0  0  0  0  0  0  0
   -1.0651    8.8670   -1.4092 C   0  0  0  0  0  0  0  0  0  0  0  0
   -4.0199    4.7733   -3.4510 C   0  0  0  0  0  0  0  0  0  0  0  0
   -3.1254    3.7072   -3.5766 C   0  0  0  0  0  0  0  0  0  0  0  0
   -1.5463    4.3130   -3.5082 S   0  0  0  0  0  0  0  0  0  0  0  0
   -3.4797    2.2867   -3.4232 C   0  0  0  0  0  0  0  0  0  0  0  0
   -2.5742    1.2330   -3.2737 C   0  0  0  0  0  0  0  0  0  0  0  0
   -3.1803    0.0458   -2.8236 C   0  0  0  0  0  0  0  0  0  0  0  0
   -2.5277   -1.1636   -2.4896 C   0  0  0  0  0  0  0  0  0  0  0  0
   -1.0729   -1.3601   -2.6768 C   0  0  0  0  0  0  0  0  0  0  0  0
    0.1279   -0.4081   -1.9886 S   0  0  0  0  0  0  0  0  0  0  0  0
    1.4365   -1.2892   -2.5619 C   0  0  0  0  0  0  0  0  0  0  0  0
    2.8728   -0.9286   -2.3310 C   0  0  0  0  0  0  0  0  0  0  0  0
    3.3947   -0.0409   -3.4523 C   0  0  0  0  0  0  0  0  0  0  0  0
    0.9515   -2.3396   -3.3363 C   0  0  0  0  0  0  0  0  0  0  0  0
    1.9882   -3.5006   -4.1519 Cl  0  0  0  0  0  0  0  0  0  0  0  0
   -0.4533   -2.3847   -3.3976 C   0  0  0  0  0  0  0  0  0  0  0  0
   -1.3302   -3.5669   -4.3606 Cl  0  0  0  0  0  0  0  0  0  0  0  0
   -3.3274   -2.1771   -1.9295 C   0  0  0  0  0  0  0  0  0  0  0  0
   -4.7138   -2.0487   -1.7733 C   0  0  0  0  0  0  0  0  0  0  0  0
   -5.3652   -0.8575   -2.1389 C   0  0  0  0  0  0  0  0  0  0  0  0
   -6.8014   -0.6442   -1.8978 C   0  0  0  0  0  0  0  0  0  0  0  0
   -8.0331   -1.3263   -2.8173 S   0  0  0  0  0  0  0  0  0  0  0  0
   -9.2959   -0.5321   -2.0337 C   0  0  0  0  0  0  0  0  0  0  0  0
  -10.7431   -0.6682   -2.3976 C   0  0  0  0  0  0  0  0  0  0  0  0
  -11.3393   -1.9438   -1.8135 C   0  0  0  0  0  0  0  0  0  0  0  0
   -8.7627    0.2710   -1.0241 C   0  0  0  0  0  0  0  0  0  0  0  0
   -7.3624    0.2122   -0.9540 C   0  0  0  0  0  0  0  0  0  0  0  0
   -6.4110    1.1153    0.2195 Cl  0  0  0  0  0  0  0  0  0  0  0  0
   -9.7352    1.2829    0.0364 Cl  0  0  0  0  0  0  0  0  0  0  0  0
   -4.5636    0.1735   -2.6529 C   0  0  0  0  0  0  0  0  0  0  0  0
   -5.0287    1.7376   -3.0476 S   0  0  0  0  0  0  0  0  0  0  0  0
   -5.3103   -3.1530   -1.1416 C   0  0  0  0  0  0  0  0  0  0  0  0
   -4.3803   -4.1132   -0.7550 C   0  0  0  0  0  0  0  0  0  0  0  0
   -2.8331   -3.6175   -1.2095 S   0  0  0  0  0  0  0  0  0  0  0  0
   -4.6757   -5.2941    0.0548 C   0  0  0  0  0  0  0  0  0  0  0  0
   -3.9831   -5.6555    1.2024 C   0  0  0  0  0  0  0  0  0  0  0  0
   -4.5116   -6.7977    1.8208 C   0  0  0  0  0  0  0  0  0  0  0  0
   -4.0746   -7.3683    3.0337 C   0  0  0  0  0  0  0  0  0  0  0  0
   -2.9941   -6.7633    3.8369 C   0  0  0  0  0  0  0  0  0  0  0  0
   -1.4200   -6.5040    3.3014 S   0  0  0  0  0  0  0  0  0  0  0  0
   -0.8888   -5.6980    4.6800 C   0  0  0  0  0  0  0  0  0  0  0  0
    0.4454   -5.0314    4.8113 C   0  0  0  0  0  0  0  0  0  0  0  0
    0.3531   -3.5656    4.4002 C   0  0  0  0  0  0  0  0  0  0  0  0
   -1.9522   -5.6001    5.5761 C   0  0  0  0  0  0  0  0  0  0  0  0
   -1.8481   -4.7631    7.1189 Cl  0  0  0  0  0  0  0  0  0  0  0  0
   -3.1302   -6.1989    5.1062 C   0  0  0  0  0  0  0  0  0  0  0  0
   -4.6533   -6.1332    5.9838 Cl  0  0  0  0  0  0  0  0  0  0  0  0
   -4.7554   -8.5156    3.4773 C   0  0  0  0  0  0  0  0  0  0  0  0
   -5.8339   -9.0700    2.7809 C   0  0  0  0  0  0  0  0  0  0  0  0
   -6.3018   -8.4693    1.5929 C   0  0  0  0  0  0  0  0  0  0  0  0
   -7.4541   -9.0080    0.8489 C   0  0  0  0  0  0  0  0  0  0  0  0
   -7.3950   -9.5754   -0.7349 S   0  0  0  0  0  0  0  0  0  0  0  0
   -9.0190  -10.0051   -0.8321 C   0  0  0  0  0  0  0  0  0  0  0  0
   -9.6889  -10.5314   -2.0677 C   0  0  0  0  0  0  0  0  0  0  0  0
  -10.3224   -9.3961   -2.8623 C   0  0  0  0  0  0  0  0  0  0  0  0
   -9.6384   -9.6861    0.3758 C   0  0  0  0  0  0  0  0  0  0  0  0
   -8.7608   -9.1293    1.3186 C   0  0  0  0  0  0  0  0  0  0  0  0
   -9.2765   -8.5730    2.9038 Cl  0  0  0  0  0  0  0  0  0  0  0  0
  -11.3544   -9.9244    0.6749 Cl  0  0  0  0  0  0  0  0  0  0  0  0
   -5.6085   -7.3340    1.1370 C   0  0  0  0  0  0  0  0  0  0  0  0
   -5.9504   -6.3683   -0.2040 S   0  0  0  0  0  0  0  0  0  0  0  0
   -6.3283  -10.2407    3.3760 C   0  0  0  0  0  0  0  0  0  0  0  0
   -5.6476  -10.5987    4.5373 C   0  0  0  0  0  0  0  0  0  0  0  0
   -4.4240   -9.4712    4.8218 S   0  0  0  0  0  0  0  0  0  0  0  0
    5.2770   -8.7174   -5.7976 H   0  0  0  0  0  0  0  0  0  0  0  0
    8.1764   -8.7089   -1.4420 H   0  0  0  0  0  0  0  0  0  0  0  0
    9.1288   -9.1584   -2.8905 H   0  0  0  0  0  0  0  0  0  0  0  0
   10.2206   -7.4628   -0.5399 H   0  0  0  0  0  0  0  0  0  0  0  0
   11.1675   -8.1514   -1.9274 H   0  0  0  0  0  0  0  0  0  0  0  0
   10.4139   -9.2413   -0.7199 H   0  0  0  0  0  0  0  0  0  0  0  0
   10.6109   -6.3954   -3.3005 H   0  0  0  0  0  0  0  0  0  0  0  0
    9.8086   -7.3730   -4.5710 H   0  0  0  0  0  0  0  0  0  0  0  0
   10.0858   -4.9891   -5.2204 H   0  0  0  0  0  0  0  0  0  0  0  0
    9.1022   -4.4581   -3.8063 H   0  0  0  0  0  0  0  0  0  0  0  0
    8.3447   -5.4213   -5.1433 H   0  0  0  0  0  0  0  0  0  0  0  0
    7.7734   -8.6852   -5.0538 H   0  0  0  0  0  0  0  0  0  0  0  0
    8.0425   -4.1417    0.2833 H   0  0  0  0  0  0  0  0  0  0  0  0
    7.3296   -2.5055    1.8399 H   0  0  0  0  0  0  0  0  0  0  0  0
   11.9466    0.0938    5.1107 H   0  0  0  0  0  0  0  0  0  0  0  0
   11.5479    1.4404    3.9889 H   0  0  0  0  0  0  0  0  0  0  0  0
   13.3518    0.0219    3.0492 H   0  0  0  0  0  0  0  0  0  0  0  0
   11.8669   -0.0905    2.0198 H   0  0  0  0  0  0  0  0  0  0  0  0
   12.2932   -1.4384    3.1507 H   0  0  0  0  0  0  0  0  0  0  0  0
   -2.2240    0.1694    0.2742 H   0  0  0  0  0  0  0  0  0  0  0  0
   -1.8561   -1.4481    0.9523 H   0  0  0  0  0  0  0  0  0  0  0  0
   -3.6589   -0.2225    2.2210 H   0  0  0  0  0  0  0  0  0  0  0  0
   -2.2351   -0.6391    3.2522 H   0  0  0  0  0  0  0  0  0  0  0  0
   -2.4649    1.0592    2.6550 H   0  0  0  0  0  0  0  0  0  0  0  0
    2.3922    2.2646    3.6112 H   0  0  0  0  0  0  0  0  0  0  0  0
    5.5592    4.9906    3.2241 H   0  0  0  0  0  0  0  0  0  0  0  0
    8.3013    4.9439   -0.8606 H   0  0  0  0  0  0  0  0  0  0  0  0
    9.3950    6.2904   -0.4089 H   0  0  0  0  0  0  0  0  0  0  0  0
    9.0312    6.1699   -2.8837 H   0  0  0  0  0  0  0  0  0  0  0  0
    8.4101    7.7233   -2.2086 H   0  0  0  0  0  0  0  0  0  0  0  0
    7.2561    6.3986   -2.6413 H   0  0  0  0  0  0  0  0  0  0  0  0
   -3.8243    4.5958    5.3848 H   0  0  0  0  0  0  0  0  0  0  0  0
   -3.5024    4.0142    3.7173 H   0  0  0  0  0  0  0  0  0  0  0  0
   -5.6302    5.2867    3.7940 H   0  0  0  0  0  0  0  0  0  0  0  0
   -4.7822    6.7231    4.4844 H   0  0  0  0  0  0  0  0  0  0  0  0
   -4.4180    6.1801    2.7929 H   0  0  0  0  0  0  0  0  0  0  0  0
   -0.5120    7.9428    1.4777 H   0  0  0  0  0  0  0  0  0  0  0  0
   -3.2885    8.3123   -4.9746 H   0  0  0  0  0  0  0  0  0  0  0  0
   -4.3250    9.6071   -4.3645 H   0  0  0  0  0  0  0  0  0  0  0  0
   -2.0757   10.8465   -3.7196 H   0  0  0  0  0  0  0  0  0  0  0  0
   -2.4531   10.6371   -5.4628 H   0  0  0  0  0  0  0  0  0  0  0  0
   -1.2579    9.5535   -4.6756 H   0  0  0  0  0  0  0  0  0  0  0  0
   -3.8322    8.9029   -0.6997 H   0  0  0  0  0  0  0  0  0  0  0  0
   -5.1826    9.0526   -1.8361 H   0  0  0  0  0  0  0  0  0  0  0  0
   -4.3679   11.2170   -2.6843 H   0  0  0  0  0  0  0  0  0  0  0  0
   -4.5418   11.2263   -0.9031 H   0  0  0  0  0  0  0  0  0  0  0  0
   -2.9090   11.1244   -1.6216 H   0  0  0  0  0  0  0  0  0  0  0  0
   -1.4116    9.7097   -0.8292 H   0  0  0  0  0  0  0  0  0  0  0  0
   -5.0919    4.6591   -3.3645 H   0  0  0  0  0  0  0  0  0  0  0  0
   -1.5109    1.3517   -3.4199 H   0  0  0  0  0  0  0  0  0  0  0  0
    2.9585   -0.3870   -1.3639 H   0  0  0  0  0  0  0  0  0  0  0  0
    3.4870   -1.8517   -2.2658 H   0  0  0  0  0  0  0  0  0  0  0  0
    4.4460    0.2504   -3.2346 H   0  0  0  0  0  0  0  0  0  0  0  0
    2.7780    0.8801   -3.5337 H   0  0  0  0  0  0  0  0  0  0  0  0
    3.3722   -0.5878   -4.4208 H   0  0  0  0  0  0  0  0  0  0  0  0
  -10.8403   -0.6828   -3.5052 H   0  0  0  0  0  0  0  0  0  0  0  0
  -11.3186    0.2065   -2.0281 H   0  0  0  0  0  0  0  0  0  0  0  0
  -12.4132   -2.0056   -2.0860 H   0  0  0  0  0  0  0  0  0  0  0  0
  -11.2496   -1.9413   -0.7067 H   0  0  0  0  0  0  0  0  0  0  0  0
  -10.8172   -2.8347   -2.2233 H   0  0  0  0  0  0  0  0  0  0  0  0
   -6.3654   -3.2230   -0.9044 H   0  0  0  0  0  0  0  0  0  0  0  0
   -3.1545   -5.0794    1.5888 H   0  0  0  0  0  0  0  0  0  0  0  0
    0.8018   -5.1043    5.8616 H   0  0  0  0  0  0  0  0  0  0  0  0
    1.1844   -5.5505    4.1624 H   0  0  0  0  0  0  0  0  0  0  0  0
   -0.3441   -3.0188    5.0701 H   0  0  0  0  0  0  0  0  0  0  0  0
    1.3560   -3.0955    4.4682 H   0  0  0  0  0  0  0  0  0  0  0  0
   -0.0168   -3.4843    3.3540 H   0  0  0  0  0  0  0  0  0  0  0  0
   -8.9367  -11.0487   -2.7047 H   0  0  0  0  0  0  0  0  0  0  0  0
  -10.4670  -11.2738   -1.7880 H   0  0  0  0  0  0  0  0  0  0  0  0
   -9.5477   -8.6546   -3.1586 H   0  0  0  0  0  0  0  0  0  0  0  0
  -11.1053   -8.8913   -2.2541 H   0  0  0  0  0  0  0  0  0  0  0  0
  -10.7903   -9.8031   -3.7827 H   0  0  0  0  0  0  0  0  0  0  0  0
   -7.1464  -10.8246    2.9807 H   0  0  0  0  0  0  0  0  0  0  0  0
   -5.8644  -11.4593    5.1524 H   0  0  0  0  0  0  0  0  0  0  0  0
  1  2  1  0
  2  3  1  0
  3  4  1  0
  4  5  2  0
  5  6  1  0
  6  7  1  0
  7  8  1  0
  8  9  1  0
  7 10  1  0
 10 11  1  0
  7 12  1  0
 12 13  1  0
  5 14  1  0
 14 15  2  0
 15 16  1  0
 15 17  1  0
 17 18  2  0
 18 19  1  0
 19 20  2  0
 20 21  1  0
 21 22  1  0
 22 23  1  0
 23 24  1  0
 24 25  1  0
 23 26  2  0
 26 27  1  0
 26 28  1  0
 28 29  1  0
 20 30  1  0
 30 31  2  0
 31 32  1  0
 32 33  1  0
 33 34  1  0
 34 35  1  0
 35 36  1  0
 36 37  1  0
 35 38  2  0
 38 39  1  0
 39 40  1  0
 38 41  1  0
 32 42  2  0
 42 43  1  0
 31 44  1  0
 44 45  2  0
 45 46  1  0
 45 47  1  0
 47 48  2  0
 48 49  1  0
 49 50  2  0
 50 51  1  0
 51 52  1  0
 52 53  1  0
 53 54  1  0
 54 55  1  0
 53 56  2  0
 56 57  1  0
 56 58  1  0
 58 59  1  0
 50 60  1  0
 60 61  2  0
 61 62  1  0
 62 63  1  0
 63 64  1  0
 64 65  1  0
 65 66  1  0
 66 67  1  0
 65 68  2  0
 68 69  1  0
 69 70  1  0
 68 71  1  0
 62 72  2  0
 72 73  1  0
 61 74  1  0
 74 75  2  0
 75 76  1  0
 75 77  1  0
 77 78  1  0
 78 79  1  0
 79 80  1  0
 80 81  2  0
 81 82  1  0
 82 83  1  0
 83 84  1  0
 84 85  1  0
 83 86  1  0
 86 87  1  0
 83 88  1  0
 88 89  1  0
 81 90  1  0
 90 91  2  0
 91 92  1  0
 91 93  1  0
 93 94  2  0
 94 95  1  0
 95 96  2  0
 96 97  1  0
 97 98  1  0
 98 99  1  0
 99100  1  0
100101  1  0
 99102  2  0
102103  1  0
102104  1  0
104105  1  0
 96106  1  0
106107  2  0
107108  1  0
108109  1  0
109110  1  0
110111  1  0
111112  1  0
112113  1  0
111114  2  0
114115  1  0
115116  1  0
114117  1  0
108118  2  0
118119  1  0
107120  1  0
120121  2  0
121122  1  0
121123  1  0
123124  2  0
124125  1  0
125126  2  0
126127  1  0
127128  1  0
128129  1  0
129130  1  0
130131  1  0
129132  2  0
132133  1  0
132134  1  0
134135  1  0
126136  1  0
136137  2  0
137138  1  0
138139  1  0
139140  1  0
140141  1  0
141142  1  0
142143  1  0
141144  2  0
144145  1  0
145146  1  0
144147  1  0
138148  2  0
148149  1  0
137150  1  0
150151  2  0
151152  1  0
 13  1  2  0
 43 17  1  0
 73 47  1  0
 89 77  2  0
119 93  1  0
149123  1  0
 12  3  2  0
 42 19  1  0
 72 49  1  0
 88 79  2  0
118 95  1  0
148125  1  0
 16  4  1  0
 28 21  2  0
 46 30  1  0
 58 51  2  0
 76 60  1  0
 92 80  1  0
104 97  2  0
122106  1  0
134127  2  0
152136  1  0
 39 33  2  0
 69 63  2  0
115109  2  0
145139  2  0
  1153  1  0
  8154  1  0
  8155  1  0
  9156  1  0
  9157  1  0
  9158  1  0
 10159  1  0
 10160  1  0
 11161  1  0
 11162  1  0
 11163  1  0
 13164  1  0
 14165  1  0
 18166  1  0
 24167  1  0
 24168  1  0
 25169  1  0
 25170  1  0
 25171  1  0
 36172  1  0
 36173  1  0
 37174  1  0
 37175  1  0
 37176  1  0
 44177  1  0
 48178  1  0
 54179  1  0
 54180  1  0
 55181  1  0
 55182  1  0
 55183  1  0
 66184  1  0
 66185  1  0
 67186  1  0
 67187  1  0
 67188  1  0
 74189  1  0
 84190  1  0
 84191  1  0
 85192  1  0
 85193  1  0
 85194  1  0
 86195  1  0
 86196  1  0
 87197  1  0
 87198  1  0
 87199  1  0
 89200  1  0
 90201  1  0
 94202  1  0
100203  1  0
100204  1  0
101205  1  0
101206  1  0
101207  1  0
112208  1  0
112209  1  0
113210  1  0
113211  1  0
113212  1  0
120213  1  0
124214  1  0
130215  1  0
130216  1  0
131217  1  0
131218  1  0
131219  1  0
142220  1  0
142221  1  0
143222  1  0
143223  1  0
143224  1  0
150225  1  0
151226  1  0
M  END

