
     RDKit          3D

 85 92  0  0  0  0  0  0  0  0999 V2000
   -8.2313   -4.4433   -6.0235 C   0  0  0  0  0  0  0  0  0  0  0  0
   -7.7087   -3.8020   -5.0011 O   0  0  0  0  0  0  0  0  0  0  0  0
   -6.4752   -4.2129   -4.8141 C   0  0  0  0  0  0  0  0  0  0  0  0
   -6.1427   -5.1591   -5.7816 C   0  0  0  0  0  0  0  0  0  0  0  0
   -7.2938   -5.3044   -6.5399 C   0  0  0  0  0  0  0  0  0  0  0  0
   -7.4948   -6.1632   -7.6815 C   0  0  0  0  0  0  0  0  0  0  0  0
   -7.6576   -6.8470   -8.6034 N   0  0  0  0  0  0  0  0  0  0  0  0
   -4.8243   -5.8553   -5.9890 C   0  0  0  0  0  0  0  0  0  0  0  0
   -4.7133   -6.3254   -7.2866 F   0  0  0  0  0  0  0  0  0  0  0  0
   -4.7226   -6.9254   -5.1157 F   0  0  0  0  0  0  0  0  0  0  0  0
   -3.7816   -4.9674   -5.7566 F   0  0  0  0  0  0  0  0  0  0  0  0
   -5.6291   -3.6902   -3.7244 C   0  0  0  0  0  0  0  0  0  0  0  0
   -5.7500   -2.1261   -3.0996 S   0  0  0  0  0  0  0  0  0  0  0  0
   -4.5534   -2.3370   -1.9411 C   0  0  0  0  0  0  0  0  0  0  0  0
   -3.9688   -1.3517   -1.0529 C   0  0  0  0  0  0  0  0  0  0  0  0
   -2.9292   -1.7128   -0.2310 C   0  0  0  0  0  0  0  0  0  0  0  0
   -2.4549   -3.0299   -0.1958 O   0  0  0  0  0  0  0  0  0  0  0  0
   -2.8925   -4.0844   -1.0947 C   0  0  0  0  0  0  0  0  0  0  0  0
   -1.6809   -4.5203   -1.9593 C   0  0  0  0  0  0  0  0  0  0  0  0
   -1.1767   -3.4105   -2.8838 C   0  0  0  0  0  0  0  0  0  0  0  0
   -3.4122   -5.2640   -0.2361 C   0  0  0  0  0  0  0  0  0  0  0  0
   -2.4004   -5.8087    0.7805 C   0  0  0  0  0  0  0  0  0  0  0  0
   -4.0456   -3.6226   -2.0021 C   0  0  0  0  0  0  0  0  0  0  0  0
   -4.6599   -4.3915   -3.0063 C   0  0  0  0  0  0  0  0  0  0  0  0
   -2.3826   -0.6495    0.4956 C   0  0  0  0  0  0  0  0  0  0  0  0
   -3.0111    0.5651    0.2058 C   0  0  0  0  0  0  0  0  0  0  0  0
   -4.2291    0.3041   -0.9485 S   0  0  0  0  0  0  0  0  0  0  0  0
   -2.5426    1.8727    0.6934 C   0  0  0  0  0  0  0  0  0  0  0  0
   -1.4192    2.0158    1.3577 O   0  0  0  0  0  0  0  0  0  0  0  0
   -1.2159    3.2869    1.6121 C   0  0  0  0  0  0  0  0  0  0  0  0
   -2.2577    4.0391    1.0722 C   0  0  0  0  0  0  0  0  0  0  0  0
   -3.1221    3.1143    0.5045 C   0  0  0  0  0  0  0  0  0  0  0  0
   -4.3739    3.3997   -0.1608 C   0  0  0  0  0  0  0  0  0  0  0  0
   -5.3732    3.6299   -0.6937 N   0  0  0  0  0  0  0  0  0  0  0  0
   -2.3998    5.5351    0.9977 C   0  0  0  0  0  0  0  0  0  0  0  0
   -1.1738    6.1595    1.0950 F   0  0  0  0  0  0  0  0  0  0  0  0
   -2.9608    5.8871   -0.2124 F   0  0  0  0  0  0  0  0  0  0  0  0
   -3.2184    5.9732    2.0141 F   0  0  0  0  0  0  0  0  0  0  0  0
    0.0015    3.7443    2.2985 C   0  0  0  0  0  0  0  0  0  0  0  0
    1.1672    3.1815    2.0796 O   0  0  0  0  0  0  0  0  0  0  0  0
    2.0686    3.7309    2.8555 C   0  0  0  0  0  0  0  0  0  0  0  0
    1.4796    4.7429    3.6127 C   0  0  0  0  0  0  0  0  0  0  0  0
    0.1344    4.7208    3.2733 C   0  0  0  0  0  0  0  0  0  0  0  0
   -0.9193    5.4523    3.9309 C   0  0  0  0  0  0  0  0  0  0  0  0
   -1.7587    6.0397    4.4720 N   0  0  0  0  0  0  0  0  0  0  0  0
    2.1343    5.6729    4.5951 C   0  0  0  0  0  0  0  0  0  0  0  0
    1.8839    5.2260    5.8792 F   0  0  0  0  0  0  0  0  0  0  0  0
    1.6231    6.9551    4.4517 F   0  0  0  0  0  0  0  0  0  0  0  0
    3.5010    5.7198    4.3815 F   0  0  0  0  0  0  0  0  0  0  0  0
    3.4511    3.2254    2.8906 C   0  0  0  0  0  0  0  0  0  0  0  0
    4.1346    2.9609    1.8022 O   0  0  0  0  0  0  0  0  0  0  0  0
    5.2593    2.3534    2.1155 C   0  0  0  0  0  0  0  0  0  0  0  0
    5.3106    2.1760    3.5022 C   0  0  0  0  0  0  0  0  0  0  0  0
    4.1595    2.7890    3.9946 C   0  0  0  0  0  0  0  0  0  0  0  0
    3.7092    2.7973    5.3637 C   0  0  0  0  0  0  0  0  0  0  0  0
    3.3607    2.7957    6.4667 N   0  0  0  0  0  0  0  0  0  0  0  0
    6.2734    1.3411    4.3138 C   0  0  0  0  0  0  0  0  0  0  0  0
    6.7792    0.2933    3.5573 F   0  0  0  0  0  0  0  0  0  0  0  0
    5.6355    0.7903    5.4162 F   0  0  0  0  0  0  0  0  0  0  0  0
    7.3100    2.1381    4.7637 F   0  0  0  0  0  0  0  0  0  0  0  0
    6.1681    1.8876    1.0454 C   0  0  0  0  0  0  0  0  0  0  0  0
    5.6952    1.5785   -0.1483 O   0  0  0  0  0  0  0  0  0  0  0  0
    6.6849    1.2100   -0.9321 C   0  0  0  0  0  0  0  0  0  0  0  0
    7.8779    1.2941   -0.2367 C   0  0  0  0  0  0  0  0  0  0  0  0
    7.5517    1.7270    1.0378 C   0  0  0  0  0  0  0  0  0  0  0  0
    8.5087    2.0346    2.0670 C   0  0  0  0  0  0  0  0  0  0  0  0
    9.3094    2.2626    2.8794 N   0  0  0  0  0  0  0  0  0  0  0  0
    9.2373    0.9104   -0.7497 C   0  0  0  0  0  0  0  0  0  0  0  0
    9.2162    0.8123   -2.1286 F   0  0  0  0  0  0  0  0  0  0  0  0
   10.1669    1.8682   -0.3833 F   0  0  0  0  0  0  0  0  0  0  0  0
    9.6004   -0.3127   -0.2180 F   0  0  0  0  0  0  0  0  0  0  0  0
   -9.2396   -4.3007   -6.3927 H   0  0  0  0  0  0  0  0  0  0  0  0
   -1.9255   -5.4158   -2.5724 H   0  0  0  0  0  0  0  0  0  0  0  0
   -0.8424   -4.8026   -1.2943 H   0  0  0  0  0  0  0  0  0  0  0  0
   -0.9671   -2.4778   -2.3144 H   0  0  0  0  0  0  0  0  0  0  0  0
   -0.2380   -3.7357   -3.3667 H   0  0  0  0  0  0  0  0  0  0  0  0
   -1.8977   -3.1935   -3.6980 H   0  0  0  0  0  0  0  0  0  0  0  0
   -3.7369   -6.1069   -0.8949 H   0  0  0  0  0  0  0  0  0  0  0  0
   -4.3095   -4.9108    0.3384 H   0  0  0  0  0  0  0  0  0  0  0  0
   -1.5722   -6.3250    0.2609 H   0  0  0  0  0  0  0  0  0  0  0  0
   -1.9943   -4.9897    1.4136 H   0  0  0  0  0  0  0  0  0  0  0  0
   -2.9097   -6.5512    1.4319 H   0  0  0  0  0  0  0  0  0  0  0  0
   -4.4068   -5.4259   -3.1918 H   0  0  0  0  0  0  0  0  0  0  0  0
   -1.5336   -0.7541    1.1677 H   0  0  0  0  0  0  0  0  0  0  0  0
    6.5664    0.8961   -1.9630 H   0  0  0  0  0  0  0  0  0  0  0  0
  1  2  1  0
  2  3  1  0
  3  4  2  0
  4  5  1  0
  5  6  1  0
  6  7  3  0
  4  8  1  0
  8  9  1  0
  8 10  1  0
  8 11  1  0
  3 12  1  0
 12 13  1  0
 13 14  1  0
 14 15  1  0
 15 16  2  0
 16 17  1  0
 17 18  1  0
 18 19  1  0
 19 20  1  0
 18 21  1  0
 21 22  1  0
 18 23  1  0
 23 24  1  0
 16 25  1  0
 25 26  2  0
 26 27  1  0
 26 28  1  0
 28 29  1  0
 29 30  1  0
 30 31  2  0
 31 32  1  0
 32 33  1  0
 33 34  3  0
 31 35  1  0
 35 36  1  0
 35 37  1  0
 35 38  1  0
 30 39  1  0
 39 40  1  0
 40 41  1  0
 41 42  2  0
 42 43  1  0
 43 44  1  0
 44 45  3  0
 42 46  1  0
 46 47  1  0
 46 48  1  0
 46 49  1  0
 41 50  1  0
 50 51  1  0
 51 52  1  0
 52 53  2  0
 53 54  1  0
 54 55  1  0
 55 56  3  0
 53 57  1  0
 57 58  1  0
 57 59  1  0
 57 60  1  0
 52 61  1  0
 61 62  1  0
 62 63  1  0
 63 64  2  0
 64 65  1  0
 65 66  1  0
 66 67  3  0
 64 68  1  0
 68 69  1  0
 68 70  1  0
 68 71  1  0
  5  1  2  0
 24 12  2  0
 32 28  2  0
 43 39  2  0
 54 50  2  0
 65 61  2  0
 23 14  2  0
 27 15  1  0
  1 72  1  0
 19 73  1  0
 19 74  1  0
 20 75  1  0
 20 76  1  0
 20 77  1  0
 21 78  1  0
 21 79  1  0
 22 80  1  0
 22 81  1  0
 22 82  1  0
 24 83  1  0
 25 84  1  0
 63 85  1  0
M  END

