
     RDKit          3D

226251  0  0  0  0  0  0  0  0999 V2000
   10.9027   -9.0738   -3.9116 C   0  0  0  0  0  0  0  0  0  0  0  0
   11.1899   -8.2560   -2.8229 C   0  0  0  0  0  0  0  0  0  0  0  0
   10.7358   -6.9372   -2.9879 C   0  0  0  0  0  0  0  0  0  0  0  0
   10.8685   -5.8873   -2.0592 C   0  0  0  0  0  0  0  0  0  0  0  0
   11.4898   -6.0885   -0.7395 C   0  0  0  0  0  0  0  0  0  0  0  0
   12.9468   -5.4090   -0.2441 S   0  0  0  0  0  0  0  0  0  0  0  0
   12.9385   -6.0828    1.2999 C   0  0  0  0  0  0  0  0  0  0  0  0
   13.9852   -5.8341    2.3436 C   0  0  0  0  0  0  0  0  0  0  0  0
   13.6552   -4.5867    3.1527 C   0  0  0  0  0  0  0  0  0  0  0  0
   11.7697   -6.8277    1.4549 C   0  0  0  0  0  0  0  0  0  0  0  0
   11.3339   -7.6533    2.9470 Cl  0  0  0  0  0  0  0  0  0  0  0  0
   10.9624   -6.8394    0.3081 C   0  0  0  0  0  0  0  0  0  0  0  0
    9.4117   -7.6644    0.2238 Cl  0  0  0  0  0  0  0  0  0  0  0  0
   10.3431   -4.6398   -2.4303 C   0  0  0  0  0  0  0  0  0  0  0  0
    9.6919   -4.4282   -3.6503 C   0  0  0  0  0  0  0  0  0  0  0  0
    9.5660   -5.4783   -4.5822 C   0  0  0  0  0  0  0  0  0  0  0  0
    8.8781   -5.3020   -5.8714 C   0  0  0  0  0  0  0  0  0  0  0  0
    7.2123   -5.1576   -6.0503 S   0  0  0  0  0  0  0  0  0  0  0  0
    7.2154   -5.1449   -7.7344 C   0  0  0  0  0  0  0  0  0  0  0  0
    5.9813   -5.1659   -8.5842 C   0  0  0  0  0  0  0  0  0  0  0  0
    5.5719   -6.6016   -8.8943 C   0  0  0  0  0  0  0  0  0  0  0  0
    8.5312   -5.2775   -8.1782 C   0  0  0  0  0  0  0  0  0  0  0  0
    9.4638   -5.3619   -7.1336 C   0  0  0  0  0  0  0  0  0  0  0  0
   11.1957   -5.5214   -7.3888 Cl  0  0  0  0  0  0  0  0  0  0  0  0
    8.9770   -5.3678   -9.8766 Cl  0  0  0  0  0  0  0  0  0  0  0  0
   10.1042   -6.7226   -4.2151 C   0  0  0  0  0  0  0  0  0  0  0  0
   10.0891   -8.1659   -5.0804 S   0  0  0  0  0  0  0  0  0  0  0  0
    9.2190   -3.1135   -3.8055 C   0  0  0  0  0  0  0  0  0  0  0  0
    9.4978   -2.3054   -2.7028 C   0  0  0  0  0  0  0  0  0  0  0  0
   10.3259   -3.2122   -1.5434 S   0  0  0  0  0  0  0  0  0  0  0  0
    9.1134   -0.8917   -2.5425 C   0  0  0  0  0  0  0  0  0  0  0  0
    8.1034   -0.0158   -3.5808 S   0  0  0  0  0  0  0  0  0  0  0  0
    8.1494    1.3951   -2.6671 C   0  0  0  0  0  0  0  0  0  0  0  0
    7.4220    2.6374   -2.8567 C   0  0  0  0  0  0  0  0  0  0  0  0
    7.4526    3.5910   -1.8680 C   0  0  0  0  0  0  0  0  0  0  0  0
    8.2410    3.4280   -0.7214 O   0  0  0  0  0  0  0  0  0  0  0  0
    9.1774    2.3364   -0.5270 C   0  0  0  0  0  0  0  0  0  0  0  0
   10.6120    2.8659   -0.7922 C   0  0  0  0  0  0  0  0  0  0  0  0
   11.0377    4.0271    0.1047 C   0  0  0  0  0  0  0  0  0  0  0  0
    9.0135    1.7665    0.9171 C   0  0  0  0  0  0  0  0  0  0  0  0
    8.4824    2.7698    1.9484 C   0  0  0  0  0  0  0  0  0  0  0  0
    8.9284    1.2075   -1.5368 C   0  0  0  0  0  0  0  0  0  0  0  0
    9.4877   -0.0769   -1.4747 C   0  0  0  0  0  0  0  0  0  0  0  0
    6.5967    4.6675   -2.0952 C   0  0  0  0  0  0  0  0  0  0  0  0
    5.8847    4.5379   -3.2882 C   0  0  0  0  0  0  0  0  0  0  0  0
    6.3212    3.0831   -4.0453 S   0  0  0  0  0  0  0  0  0  0  0  0
    4.7949    5.4255   -3.7197 C   0  0  0  0  0  0  0  0  0  0  0  0
    3.9138    6.4213   -2.6787 S   0  0  0  0  0  0  0  0  0  0  0  0
    2.8035    6.9003   -3.8387 C   0  0  0  0  0  0  0  0  0  0  0  0
    1.5459    7.5897   -3.6310 C   0  0  0  0  0  0  0  0  0  0  0  0
    0.5906    7.5528   -4.6181 C   0  0  0  0  0  0  0  0  0  0  0  0
    0.8822    7.0305   -5.8881 O   0  0  0  0  0  0  0  0  0  0  0  0
    2.1865    6.5220   -6.2782 C   0  0  0  0  0  0  0  0  0  0  0  0
    2.9092    7.6029   -7.1270 C   0  0  0  0  0  0  0  0  0  0  0  0
    2.1867    7.9944   -8.4136 C   0  0  0  0  0  0  0  0  0  0  0  0
    2.0024    5.1808   -7.0566 C   0  0  0  0  0  0  0  0  0  0  0  0
    0.6565    5.0363   -7.7762 C   0  0  0  0  0  0  0  0  0  0  0  0
    3.0706    6.2771   -5.0449 C   0  0  0  0  0  0  0  0  0  0  0  0
    4.2126    5.4585   -4.9869 C   0  0  0  0  0  0  0  0  0  0  0  0
   -0.6862    7.9295   -4.1872 C   0  0  0  0  0  0  0  0  0  0  0  0
   -0.7274    8.2131   -2.8179 C   0  0  0  0  0  0  0  0  0  0  0  0
    0.8292    8.0215   -2.1816 S   0  0  0  0  0  0  0  0  0  0  0  0
   -1.9406    8.2108   -1.9809 C   0  0  0  0  0  0  0  0  0  0  0  0
   -3.2035    7.7975   -2.4076 C   0  0  0  0  0  0  0  0  0  0  0  0
   -4.0437    7.4060   -1.3490 C   0  0  0  0  0  0  0  0  0  0  0  0
   -5.2847    6.7481   -1.4731 C   0  0  0  0  0  0  0  0  0  0  0  0
   -5.9240    6.5298   -2.7811 C   0  0  0  0  0  0  0  0  0  0  0  0
   -5.3463    5.5114   -3.9907 S   0  0  0  0  0  0  0  0  0  0  0  0
   -6.5667    5.8562   -5.1007 C   0  0  0  0  0  0  0  0  0  0  0  0
   -6.6927    5.2291   -6.4573 C   0  0  0  0  0  0  0  0  0  0  0  0
   -7.6678    4.0604   -6.4216 C   0  0  0  0  0  0  0  0  0  0  0  0
   -7.4544    6.7619   -4.5237 C   0  0  0  0  0  0  0  0  0  0  0  0
   -8.8805    7.3832   -5.3414 Cl  0  0  0  0  0  0  0  0  0  0  0  0
   -7.0918    7.1393   -3.2219 C   0  0  0  0  0  0  0  0  0  0  0  0
   -8.0038    8.2903   -2.2558 Cl  0  0  0  0  0  0  0  0  0  0  0  0
   -5.8270    6.1857   -0.3061 C   0  0  0  0  0  0  0  0  0  0  0  0
   -5.2151    6.3220    0.9427 C   0  0  0  0  0  0  0  0  0  0  0  0
   -4.0303    7.0680    1.0877 C   0  0  0  0  0  0  0  0  0  0  0  0
   -3.3315    7.1511    2.3846 C   0  0  0  0  0  0  0  0  0  0  0  0
   -1.8558    6.4228    2.7338 S   0  0  0  0  0  0  0  0  0  0  0  0
   -1.8281    6.8447    4.3624 C   0  0  0  0  0  0  0  0  0  0  0  0
   -0.7118    6.5276    5.3103 C   0  0  0  0  0  0  0  0  0  0  0  0
    0.3432    7.6272    5.2862 C   0  0  0  0  0  0  0  0  0  0  0  0
   -2.9775    7.5781    4.6514 C   0  0  0  0  0  0  0  0  0  0  0  0
   -3.8290    7.7342    3.5467 C   0  0  0  0  0  0  0  0  0  0  0  0
   -5.3618    8.5931    3.6214 Cl  0  0  0  0  0  0  0  0  0  0  0  0
   -3.3324    8.2400    6.2425 Cl  0  0  0  0  0  0  0  0  0  0  0  0
   -3.4539    7.5682   -0.0905 C   0  0  0  0  0  0  0  0  0  0  0  0
   -1.9017    8.1724   -0.2911 S   0  0  0  0  0  0  0  0  0  0  0  0
   -5.7312    5.4440    1.9043 C   0  0  0  0  0  0  0  0  0  0  0  0
   -6.7051    4.5752    1.4117 C   0  0  0  0  0  0  0  0  0  0  0  0
   -6.9732    4.9560   -0.2114 S   0  0  0  0  0  0  0  0  0  0  0  0
   -6.7553    3.1911    1.8850 C   0  0  0  0  0  0  0  0  0  0  0  0
   -5.6264    2.3865    1.9587 C   0  0  0  0  0  0  0  0  0  0  0  0
   -5.8963    1.1087    2.4490 C   0  0  0  0  0  0  0  0  0  0  0  0
   -4.9421    0.1032    2.6760 C   0  0  0  0  0  0  0  0  0  0  0  0
   -3.5260    0.2781    2.3025 C   0  0  0  0  0  0  0  0  0  0  0  0
   -2.9730    0.4855    0.7269 S   0  0  0  0  0  0  0  0  0  0  0  0
   -1.3487    0.6587    1.1250 C   0  0  0  0  0  0  0  0  0  0  0  0
   -0.2420    0.8353    0.1290 C   0  0  0  0  0  0  0  0  0  0  0  0
    0.3465   -0.5127   -0.2695 C   0  0  0  0  0  0  0  0  0  0  0  0
   -1.2142    0.5389    2.5085 C   0  0  0  0  0  0  0  0  0  0  0  0
    0.3281    0.6317    3.3466 Cl  0  0  0  0  0  0  0  0  0  0  0  0
   -2.4366    0.3359    3.1699 C   0  0  0  0  0  0  0  0  0  0  0  0
   -2.5809    0.2284    4.9190 Cl  0  0  0  0  0  0  0  0  0  0  0  0
   -5.4052   -1.0855    3.2521 C   0  0  0  0  0  0  0  0  0  0  0  0
   -6.7496   -1.2968    3.5762 C   0  0  0  0  0  0  0  0  0  0  0  0
   -7.7075   -0.2827    3.3502 C   0  0  0  0  0  0  0  0  0  0  0  0
   -9.1157   -0.4343    3.7557 C   0  0  0  0  0  0  0  0  0  0  0  0
  -10.4251   -0.4512    2.7010 S   0  0  0  0  0  0  0  0  0  0  0  0
  -11.6077   -0.5982    3.8903 C   0  0  0  0  0  0  0  0  0  0  0  0
  -13.0770   -0.7171    3.6217 C   0  0  0  0  0  0  0  0  0  0  0  0
  -13.5266   -2.1726    3.6923 C   0  0  0  0  0  0  0  0  0  0  0  0
  -10.9863   -0.6406    5.1371 C   0  0  0  0  0  0  0  0  0  0  0  0
   -9.5885   -0.5446    5.0618 C   0  0  0  0  0  0  0  0  0  0  0  0
   -8.5458   -0.5147    6.4761 Cl  0  0  0  0  0  0  0  0  0  0  0  0
  -11.8620   -0.7823    6.6567 Cl  0  0  0  0  0  0  0  0  0  0  0  0
   -7.2438    0.9126    2.7694 C   0  0  0  0  0  0  0  0  0  0  0  0
   -8.1035    2.3303    2.4298 S   0  0  0  0  0  0  0  0  0  0  0  0
   -6.9863   -2.5677    4.1286 C   0  0  0  0  0  0  0  0  0  0  0  0
   -5.8178   -3.3187    4.2622 C   0  0  0  0  0  0  0  0  0  0  0  0
   -4.5074   -2.4391    3.6738 S   0  0  0  0  0  0  0  0  0  0  0  0
   -5.6989   -4.6294    4.9047 C   0  0  0  0  0  0  0  0  0  0  0  0
   -4.5864   -5.0545    5.6206 C   0  0  0  0  0  0  0  0  0  0  0  0
   -4.7292   -6.3490    6.1351 C   0  0  0  0  0  0  0  0  0  0  0  0
   -3.7728   -7.0471    6.8954 C   0  0  0  0  0  0  0  0  0  0  0  0
   -2.5008   -6.4240    7.2981 C   0  0  0  0  0  0  0  0  0  0  0  0
   -0.9929   -6.8360    6.6779 S   0  0  0  0  0  0  0  0  0  0  0  0
   -0.1339   -5.6379    7.4916 C   0  0  0  0  0  0  0  0  0  0  0  0
    1.3273   -5.3606    7.3042 C   0  0  0  0  0  0  0  0  0  0  0  0
    1.5416   -4.3020    6.2277 C   0  0  0  0  0  0  0  0  0  0  0  0
   -1.0294   -4.8828    8.2501 C   0  0  0  0  0  0  0  0  0  0  0  0
   -0.5527   -3.4963    9.2196 Cl  0  0  0  0  0  0  0  0  0  0  0  0
   -2.3557   -5.3250    8.1432 C   0  0  0  0  0  0  0  0  0  0  0  0
   -3.7004   -4.5647    8.9831 Cl  0  0  0  0  0  0  0  0  0  0  0  0
   -4.0887   -8.3663    7.2543 C   0  0  0  0  0  0  0  0  0  0  0  0
   -5.2973   -8.9740    6.9018 C   0  0  0  0  0  0  0  0  0  0  0  0
   -6.2626   -8.2687    6.1534 C   0  0  0  0  0  0  0  0  0  0  0  0
   -7.5061   -8.9089    5.6878 C   0  0  0  0  0  0  0  0  0  0  0  0
   -7.5555  -10.2204    4.6349 S   0  0  0  0  0  0  0  0  0  0  0  0
   -9.2309  -10.3149    4.5408 C   0  0  0  0  0  0  0  0  0  0  0  0
   -9.9772  -11.2790    3.6689 C   0  0  0  0  0  0  0  0  0  0  0  0
  -10.2282  -10.6739    2.2921 C   0  0  0  0  0  0  0  0  0  0  0  0
   -9.7802   -9.2993    5.3215 C   0  0  0  0  0  0  0  0  0  0  0  0
   -8.8123   -8.5145    5.9712 C   0  0  0  0  0  0  0  0  0  0  0  0
   -9.2136   -7.1989    7.0676 Cl  0  0  0  0  0  0  0  0  0  0  0  0
  -11.5082   -9.0099    5.4639 Cl  0  0  0  0  0  0  0  0  0  0  0  0
   -5.9483   -6.9460    5.7953 C   0  0  0  0  0  0  0  0  0  0  0  0
   -6.8575   -5.8565    4.8814 S   0  0  0  0  0  0  0  0  0  0  0  0
   -5.4157  -10.2843    7.3940 C   0  0  0  0  0  0  0  0  0  0  0  0
   -4.3064  -10.6967    8.1267 C   0  0  0  0  0  0  0  0  0  0  0  0
   -3.1796   -9.4414    8.1730 S   0  0  0  0  0  0  0  0  0  0  0  0
   11.1619  -10.1218   -3.9933 H   0  0  0  0  0  0  0  0  0  0  0  0
   11.7095   -8.6130   -1.9449 H   0  0  0  0  0  0  0  0  0  0  0  0
   14.0594   -6.7099    3.0229 H   0  0  0  0  0  0  0  0  0  0  0  0
   14.9717   -5.7051    1.8498 H   0  0  0  0  0  0  0  0  0  0  0  0
   13.6312   -3.6959    2.4907 H   0  0  0  0  0  0  0  0  0  0  0  0
   12.6723   -4.6983    3.6591 H   0  0  0  0  0  0  0  0  0  0  0  0
   14.4342   -4.4296    3.9278 H   0  0  0  0  0  0  0  0  0  0  0  0
    6.1649   -4.6161   -9.5324 H   0  0  0  0  0  0  0  0  0  0  0  0
    5.1535   -4.6551   -8.0470 H   0  0  0  0  0  0  0  0  0  0  0  0
    6.3785   -7.1252   -9.4518 H   0  0  0  0  0  0  0  0  0  0  0  0
    5.3640   -7.1545   -7.9528 H   0  0  0  0  0  0  0  0  0  0  0  0
    4.6507   -6.6008   -9.5146 H   0  0  0  0  0  0  0  0  0  0  0  0
    8.6959   -2.7606   -4.6842 H   0  0  0  0  0  0  0  0  0  0  0  0
   11.3502    2.0416   -0.6777 H   0  0  0  0  0  0  0  0  0  0  0  0
   10.6693    3.2154   -1.8457 H   0  0  0  0  0  0  0  0  0  0  0  0
   10.2544    4.8153    0.1394 H   0  0  0  0  0  0  0  0  0  0  0  0
   11.2536    3.6634    1.1306 H   0  0  0  0  0  0  0  0  0  0  0  0
   11.9678    4.4793   -0.2983 H   0  0  0  0  0  0  0  0  0  0  0  0
    9.9779    1.3495    1.2797 H   0  0  0  0  0  0  0  0  0  0  0  0
    8.2889    0.9221    0.9060 H   0  0  0  0  0  0  0  0  0  0  0  0
    8.4278    2.2787    2.9422 H   0  0  0  0  0  0  0  0  0  0  0  0
    9.1413    3.6543    2.0396 H   0  0  0  0  0  0  0  0  0  0  0  0
    7.4607    3.1051    1.6759 H   0  0  0  0  0  0  0  0  0  0  0  0
   10.1394   -0.4029   -0.6749 H   0  0  0  0  0  0  0  0  0  0  0  0
    6.4744    5.4860   -1.4002 H   0  0  0  0  0  0  0  0  0  0  0  0
    3.0221    8.5240   -6.5120 H   0  0  0  0  0  0  0  0  0  0  0  0
    3.9329    7.2555   -7.3908 H   0  0  0  0  0  0  0  0  0  0  0  0
    2.6860    8.8831   -8.8556 H   0  0  0  0  0  0  0  0  0  0  0  0
    2.2392    7.1732   -9.1593 H   0  0  0  0  0  0  0  0  0  0  0  0
    1.1282    8.2623   -8.2086 H   0  0  0  0  0  0  0  0  0  0  0  0
    2.0649    4.3209   -6.3525 H   0  0  0  0  0  0  0  0  0  0  0  0
    2.8232    5.0473   -7.7936 H   0  0  0  0  0  0  0  0  0  0  0  0
    0.4537    5.8905   -8.4494 H   0  0  0  0  0  0  0  0  0  0  0  0
   -0.1657    4.9570   -7.0335 H   0  0  0  0  0  0  0  0  0  0  0  0
    0.6598    4.1047   -8.3812 H   0  0  0  0  0  0  0  0  0  0  0  0
    4.5817    4.8859   -5.8269 H   0  0  0  0  0  0  0  0  0  0  0  0
   -1.5592    7.8711   -4.8213 H   0  0  0  0  0  0  0  0  0  0  0  0
   -3.4596    7.6574   -3.4482 H   0  0  0  0  0  0  0  0  0  0  0  0
   -5.6976    4.8678   -6.7929 H   0  0  0  0  0  0  0  0  0  0  0  0
   -7.0454    5.9871   -7.1900 H   0  0  0  0  0  0  0  0  0  0  0  0
   -7.2938    3.2658   -5.7411 H   0  0  0  0  0  0  0  0  0  0  0  0
   -7.7746    3.6320   -7.4402 H   0  0  0  0  0  0  0  0  0  0  0  0
   -8.6675    4.3965   -6.0725 H   0  0  0  0  0  0  0  0  0  0  0  0
   -1.1101    6.4216    6.3413 H   0  0  0  0  0  0  0  0  0  0  0  0
   -0.2476    5.5601    5.0244 H   0  0  0  0  0  0  0  0  0  0  0  0
    0.7926    7.7049    4.2746 H   0  0  0  0  0  0  0  0  0  0  0  0
    1.1461    7.3877    6.0133 H   0  0  0  0  0  0  0  0  0  0  0  0
   -0.1081    8.6033    5.5670 H   0  0  0  0  0  0  0  0  0  0  0  0
   -5.2668    5.2936    2.8701 H   0  0  0  0  0  0  0  0  0  0  0  0
   -4.6377    2.7343    1.6831 H   0  0  0  0  0  0  0  0  0  0  0  0
   -0.6376    1.3473   -0.7748 H   0  0  0  0  0  0  0  0  0  0  0  0
    0.5546    1.4795    0.5602 H   0  0  0  0  0  0  0  0  0  0  0  0
    0.7728   -1.0271    0.6185 H   0  0  0  0  0  0  0  0  0  0  0  0
    1.1563   -0.3580   -1.0140 H   0  0  0  0  0  0  0  0  0  0  0  0
   -0.4369   -1.1557   -0.7245 H   0  0  0  0  0  0  0  0  0  0  0  0
  -13.3000   -0.3149    2.6108 H   0  0  0  0  0  0  0  0  0  0  0  0
  -13.6436   -0.1161    4.3657 H   0  0  0  0  0  0  0  0  0  0  0  0
  -14.6014   -2.2443    3.4257 H   0  0  0  0  0  0  0  0  0  0  0  0
  -13.3922   -2.5665    4.7219 H   0  0  0  0  0  0  0  0  0  0  0  0
  -12.9408   -2.7941    2.9834 H   0  0  0  0  0  0  0  0  0  0  0  0
   -7.9580   -2.9191    4.4560 H   0  0  0  0  0  0  0  0  0  0  0  0
   -3.7067   -4.4414    5.7653 H   0  0  0  0  0  0  0  0  0  0  0  0
    1.8434   -6.2969    7.0022 H   0  0  0  0  0  0  0  0  0  0  0  0
    1.7737   -5.0174    8.2615 H   0  0  0  0  0  0  0  0  0  0  0  0
    1.1095   -4.6395    5.2622 H   0  0  0  0  0  0  0  0  0  0  0  0
    2.6280   -4.1261    6.0882 H   0  0  0  0  0  0  0  0  0  0  0  0
    1.0627   -3.3447    6.5261 H   0  0  0  0  0  0  0  0  0  0  0  0
   -9.3793  -12.2066    3.5537 H   0  0  0  0  0  0  0  0  0  0  0  0
  -10.9437  -11.5551    4.1411 H   0  0  0  0  0  0  0  0  0  0  0  0
  -10.7296  -11.4243    1.6445 H   0  0  0  0  0  0  0  0  0  0  0  0
   -9.2668  -10.3850    1.8151 H   0  0  0  0  0  0  0  0  0  0  0  0
  -10.8840   -9.7799    2.3760 H   0  0  0  0  0  0  0  0  0  0  0  0
   -6.2813  -10.9157    7.2414 H   0  0  0  0  0  0  0  0  0  0  0  0
   -4.1945  -11.6613    8.6015 H   0  0  0  0  0  0  0  0  0  0  0  0
  1  2  2  0
  2  3  1  0
  3  4  2  0
  4  5  1  0
  5  6  1  0
  6  7  1  0
  7  8  1  0
  8  9  1  0
  7 10  2  0
 10 11  1  0
 10 12  1  0
 12 13  1  0
  4 14  1  0
 14 15  2  0
 15 16  1  0
 16 17  1  0
 17 18  1  0
 18 19  1  0
 19 20  1  0
 20 21  1  0
 19 22  2  0
 22 23  1  0
 23 24  1  0
 22 25  1  0
 16 26  2  0
 26 27  1  0
 15 28  1  0
 28 29  2  0
 29 30  1  0
 29 31  1  0
 31 32  1  0
 32 33  1  0
 33 34  1  0
 34 35  2  0
 35 36  1  0
 36 37  1  0
 37 38  1  0
 38 39  1  0
 37 40  1  0
 40 41  1  0
 37 42  1  0
 42 43  1  0
 35 44  1  0
 44 45  2  0
 45 46  1  0
 45 47  1  0
 47 48  1  0
 48 49  1  0
 49 50  1  0
 50 51  2  0
 51 52  1  0
 52 53  1  0
 53 54  1  0
 54 55  1  0
 53 56  1  0
 56 57  1  0
 53 58  1  0
 58 59  1  0
 51 60  1  0
 60 61  2  0
 61 62  1  0
 61 63  1  0
 63 64  2  0
 64 65  1  0
 65 66  2  0
 66 67  1  0
 67 68  1  0
 68 69  1  0
 69 70  1  0
 70 71  1  0
 69 72  2  0
 72 73  1  0
 72 74  1  0
 74 75  1  0
 66 76  1  0
 76 77  2  0
 77 78  1  0
 78 79  1  0
 79 80  1  0
 80 81  1  0
 81 82  1  0
 82 83  1  0
 81 84  2  0
 84 85  1  0
 85 86  1  0
 84 87  1  0
 78 88  2  0
 88 89  1  0
 77 90  1  0
 90 91  2  0
 91 92  1  0
 91 93  1  0
 93 94  2  0
 94 95  1  0
 95 96  2  0
 96 97  1  0
 97 98  1  0
 98 99  1  0
 99100  1  0
100101  1  0
 99102  2  0
102103  1  0
102104  1  0
104105  1  0
 96106  1  0
106107  2  0
107108  1  0
108109  1  0
109110  1  0
110111  1  0
111112  1  0
112113  1  0
111114  2  0
114115  1  0
115116  1  0
114117  1  0
108118  2  0
118119  1  0
107120  1  0
120121  2  0
121122  1  0
121123  1  0
123124  2  0
124125  1  0
125126  2  0
126127  1  0
127128  1  0
128129  1  0
129130  1  0
130131  1  0
129132  2  0
132133  1  0
132134  1  0
134135  1  0
126136  1  0
136137  2  0
137138  1  0
138139  1  0
139140  1  0
140141  1  0
141142  1  0
142143  1  0
141144  2  0
144145  1  0
145146  1  0
144147  1  0
138148  2  0
148149  1  0
137150  1  0
150151  2  0
151152  1  0
 27  1  1  0
 43 31  2  0
 59 47  2  0
 89 63  1  0
119 93  1  0
149123  1  0
 26  3  1  0
 42 33  2  0
 58 49  2  0
 88 65  1  0
118 95  1  0
148125  1  0
 12  5  2  0
 30 14  1  0
 46 34  1  0
 62 50  1  0
 74 67  2  0
 92 76  1  0
104 97  2  0
122106  1  0
134127  2  0
152136  1  0
 23 17  2  0
 85 79  2  0
115109  2  0
145139  2  0
  1153  1  0
  2154  1  0
  8155  1  0
  8156  1  0
  9157  1  0
  9158  1  0
  9159  1  0
 20160  1  0
 20161  1  0
 21162  1  0
 21163  1  0
 21164  1  0
 28165  1  0
 38166  1  0
 38167  1  0
 39168  1  0
 39169  1  0
 39170  1  0
 40171  1  0
 40172  1  0
 41173  1  0
 41174  1  0
 41175  1  0
 43176  1  0
 44177  1  0
 54178  1  0
 54179  1  0
 55180  1  0
 55181  1  0
 55182  1  0
 56183  1  0
 56184  1  0
 57185  1  0
 57186  1  0
 57187  1  0
 59188  1  0
 60189  1  0
 64190  1  0
 70191  1  0
 70192  1  0
 71193  1  0
 71194  1  0
 71195  1  0
 82196  1  0
 82197  1  0
 83198  1  0
 83199  1  0
 83200  1  0
 90201  1  0
 94202  1  0
100203  1  0
100204  1  0
101205  1  0
101206  1  0
101207  1  0
112208  1  0
112209  1  0
113210  1  0
113211  1  0
113212  1  0
120213  1  0
124214  1  0
130215  1  0
130216  1  0
131217  1  0
131218  1  0
131219  1  0
142220  1  0
142221  1  0
143222  1  0
143223  1  0
143224  1  0
150225  1  0
151226  1  0
M  END

