
     RDKit          3D

125137  0  0  0  0  0  0  0  0999 V2000
    6.8582   -4.3238    9.0333 C   0  0  0  0  0  0  0  0  0  0  0  0
    5.2109   -4.6659    8.8258 S   0  0  0  0  0  0  0  0  0  0  0  0
    4.9177   -3.7207    7.4484 C   0  0  0  0  0  0  0  0  0  0  0  0
    6.1388   -3.1154    7.1753 C   0  0  0  0  0  0  0  0  0  0  0  0
    6.6632   -2.0081    6.0240 S   0  0  0  0  0  0  0  0  0  0  0  0
    8.2560   -1.9404    6.6162 C   0  0  0  0  0  0  0  0  0  0  0  0
    9.3128   -1.0899    6.0520 C   0  0  0  0  0  0  0  0  0  0  0  0
   10.4888   -1.1574    6.5030 O   0  0  0  0  0  0  0  0  0  0  0  0
    8.9968   -0.2004    5.0189 O   0  0  0  0  0  0  0  0  0  0  0  0
    9.9679    0.6391    4.4012 C   0  0  0  0  0  0  0  0  0  0  0  0
    9.2855    1.5523    3.3937 C   0  0  0  0  0  0  0  0  0  0  0  0
    8.3807   -2.7934    7.7217 C   0  0  0  0  0  0  0  0  0  0  0  0
    7.1816   -3.4389    8.0186 C   0  0  0  0  0  0  0  0  0  0  0  0
    9.5192   -2.9547    8.4402 F   0  0  0  0  0  0  0  0  0  0  0  0
    3.6268   -3.4833    6.7678 C   0  0  0  0  0  0  0  0  0  0  0  0
    3.3114   -2.1660    5.7491 S   0  0  0  0  0  0  0  0  0  0  0  0
    1.6907   -2.4813    5.3993 C   0  0  0  0  0  0  0  0  0  0  0  0
    1.4036   -3.6583    6.0747 C   0  0  0  0  0  0  0  0  0  0  0  0
    0.0319   -4.6223    6.1539 S   0  0  0  0  0  0  0  0  0  0  0  0
    0.7523   -5.7905    7.1534 C   0  0  0  0  0  0  0  0  0  0  0  0
    0.0804   -7.0098    7.6230 C   0  0  0  0  0  0  0  0  0  0  0  0
   -1.0949   -7.2622    7.2403 O   0  0  0  0  0  0  0  0  0  0  0  0
    0.7424   -7.8751    8.5013 O   0  0  0  0  0  0  0  0  0  0  0  0
    0.1989   -9.1198    8.9375 C   0  0  0  0  0  0  0  0  0  0  0  0
    0.3173  -10.1679    7.8384 C   0  0  0  0  0  0  0  0  0  0  0  0
    2.0790   -5.4296    7.4244 C   0  0  0  0  0  0  0  0  0  0  0  0
    2.4328   -4.2137    6.8199 C   0  0  0  0  0  0  0  0  0  0  0  0
    2.9273   -6.2191    8.1232 F   0  0  0  0  0  0  0  0  0  0  0  0
    0.8494   -1.7767    4.4144 C   0  0  0  0  0  0  0  0  0  0  0  0
   -0.3736   -2.5039    3.4905 S   0  0  0  0  0  0  0  0  0  0  0  0
   -0.7216   -1.1962    2.4797 C   0  0  0  0  0  0  0  0  0  0  0  0
    0.1323   -0.1796    2.8763 C   0  0  0  0  0  0  0  0  0  0  0  0
    0.3268    1.4166    2.3913 S   0  0  0  0  0  0  0  0  0  0  0  0
    1.5142    1.7587    3.5582 C   0  0  0  0  0  0  0  0  0  0  0  0
    2.1388    3.0731    3.7531 C   0  0  0  0  0  0  0  0  0  0  0  0
    1.8296    4.0306    2.9928 O   0  0  0  0  0  0  0  0  0  0  0  0
    3.0721    3.2531    4.7804 O   0  0  0  0  0  0  0  0  0  0  0  0
    3.6457    4.5157    5.1106 C   0  0  0  0  0  0  0  0  0  0  0  0
    2.6394    5.3826    5.8579 C   0  0  0  0  0  0  0  0  0  0  0  0
    1.7589    0.6183    4.3342 C   0  0  0  0  0  0  0  0  0  0  0  0
    0.9777   -0.4721    3.9304 C   0  0  0  0  0  0  0  0  0  0  0  0
    2.5871    0.6139    5.4064 F   0  0  0  0  0  0  0  0  0  0  0  0
   -1.6972   -1.1937    1.3818 C   0  0  0  0  0  0  0  0  0  0  0  0
   -1.6262   -0.2136    0.0123 S   0  0  0  0  0  0  0  0  0  0  0  0
   -2.9923   -0.8797   -0.6954 C   0  0  0  0  0  0  0  0  0  0  0  0
   -3.5951   -0.5414   -1.9628 C   0  0  0  0  0  0  0  0  0  0  0  0
   -4.6700   -1.2570   -2.4122 C   0  0  0  0  0  0  0  0  0  0  0  0
   -5.2143   -2.2988   -1.6515 O   0  0  0  0  0  0  0  0  0  0  0  0
   -4.8655   -2.5672   -0.2680 C   0  0  0  0  0  0  0  0  0  0  0  0
   -4.7492   -4.1228   -0.1444 C   0  0  0  0  0  0  0  0  0  0  0  0
   -5.0742   -4.7572    1.2176 C   0  0  0  0  0  0  0  0  0  0  0  0
   -5.9847   -1.9500    0.6162 C   0  0  0  0  0  0  0  0  0  0  0  0
   -7.4020   -2.3185    0.1594 C   0  0  0  0  0  0  0  0  0  0  0  0
   -3.5311   -1.8809    0.1010 C   0  0  0  0  0  0  0  0  0  0  0  0
   -2.7973   -2.0454    1.2891 C   0  0  0  0  0  0  0  0  0  0  0  0
   -5.1091   -0.8780   -3.6817 C   0  0  0  0  0  0  0  0  0  0  0  0
   -4.3534    0.1686   -4.2213 C   0  0  0  0  0  0  0  0  0  0  0  0
   -3.1269    0.5717   -3.1237 S   0  0  0  0  0  0  0  0  0  0  0  0
   -4.5409    0.7262   -5.5754 C   0  0  0  0  0  0  0  0  0  0  0  0
   -5.4404   -0.0323   -6.7993 S   0  0  0  0  0  0  0  0  0  0  0  0
   -5.2046    1.1109   -8.0187 C   0  0  0  0  0  0  0  0  0  0  0  0
   -4.4427    2.1163   -7.4458 C   0  0  0  0  0  0  0  0  0  0  0  0
   -3.9677    3.6366   -7.9810 S   0  0  0  0  0  0  0  0  0  0  0  0
   -3.2352    4.0646   -6.5097 C   0  0  0  0  0  0  0  0  0  0  0  0
   -2.5640    5.3441   -6.2476 C   0  0  0  0  0  0  0  0  0  0  0  0
   -2.5646    6.2461   -7.1297 O   0  0  0  0  0  0  0  0  0  0  0  0
   -1.9182    5.5466   -5.0245 O   0  0  0  0  0  0  0  0  0  0  0  0
   -1.2459    6.7567   -4.6938 C   0  0  0  0  0  0  0  0  0  0  0  0
   -0.5998    6.6183   -3.3239 C   0  0  0  0  0  0  0  0  0  0  0  0
   -3.3924    3.0274   -5.5822 C   0  0  0  0  0  0  0  0  0  0  0  0
   -4.0752    1.9279   -6.1243 C   0  0  0  0  0  0  0  0  0  0  0  0
   -3.0013    3.1377   -4.2920 F   0  0  0  0  0  0  0  0  0  0  0  0
   -5.8441    1.1011   -9.3402 C   0  0  0  0  0  0  0  0  0  0  0  0
   -7.4650    0.7033   -9.6411 S   0  0  0  0  0  0  0  0  0  0  0  0
   -7.4783    0.9891  -11.3108 C   0  0  0  0  0  0  0  0  0  0  0  0
   -6.1898    1.3908  -11.6148 C   0  0  0  0  0  0  0  0  0  0  0  0
   -5.4333    1.7807  -13.0591 S   0  0  0  0  0  0  0  0  0  0  0  0
   -3.9061    2.0020  -12.3405 C   0  0  0  0  0  0  0  0  0  0  0  0
   -2.6912    2.3765  -13.0760 C   0  0  0  0  0  0  0  0  0  0  0  0
   -1.5836    2.4380  -12.4769 O   0  0  0  0  0  0  0  0  0  0  0  0
   -2.7787    2.6656  -14.4429 O   0  0  0  0  0  0  0  0  0  0  0  0
   -1.6777    3.1380  -15.2188 C   0  0  0  0  0  0  0  0  0  0  0  0
   -1.3792    4.5980  -14.8950 C   0  0  0  0  0  0  0  0  0  0  0  0
   -3.9913    1.7626  -10.9619 C   0  0  0  0  0  0  0  0  0  0  0  0
   -5.2933    1.4424  -10.5692 C   0  0  0  0  0  0  0  0  0  0  0  0
   -2.9241    1.7667  -10.1259 F   0  0  0  0  0  0  0  0  0  0  0  0
    7.5146   -4.7010    9.8056 H   0  0  0  0  0  0  0  0  0  0  0  0
   10.4767    1.2612    5.1718 H   0  0  0  0  0  0  0  0  0  0  0  0
   10.7252    0.0129    3.8803 H   0  0  0  0  0  0  0  0  0  0  0  0
    8.5544    2.2075    3.9117 H   0  0  0  0  0  0  0  0  0  0  0  0
    8.7559    0.9454    2.6298 H   0  0  0  0  0  0  0  0  0  0  0  0
   10.0450    2.1878    2.8896 H   0  0  0  0  0  0  0  0  0  0  0  0
    0.7715   -9.4650    9.8236 H   0  0  0  0  0  0  0  0  0  0  0  0
   -0.8640   -8.9971    9.2405 H   0  0  0  0  0  0  0  0  0  0  0  0
   -0.2943   -9.8764    6.9578 H   0  0  0  0  0  0  0  0  0  0  0  0
   -0.0441  -11.1493    8.2160 H   0  0  0  0  0  0  0  0  0  0  0  0
    1.3784  -10.2726    7.5276 H   0  0  0  0  0  0  0  0  0  0  0  0
    3.9970    5.0343    4.1937 H   0  0  0  0  0  0  0  0  0  0  0  0
    4.5233    4.3414    5.7679 H   0  0  0  0  0  0  0  0  0  0  0  0
    2.2722    4.8453    6.7585 H   0  0  0  0  0  0  0  0  0  0  0  0
    1.7767    5.6244    5.2026 H   0  0  0  0  0  0  0  0  0  0  0  0
    3.1241    6.3298    6.1756 H   0  0  0  0  0  0  0  0  0  0  0  0
   -3.7271   -4.4396   -0.4474 H   0  0  0  0  0  0  0  0  0  0  0  0
   -5.4407   -4.5908   -0.8789 H   0  0  0  0  0  0  0  0  0  0  0  0
   -4.8912   -5.8504    1.1584 H   0  0  0  0  0  0  0  0  0  0  0  0
   -4.4471   -4.3594    2.0332 H   0  0  0  0  0  0  0  0  0  0  0  0
   -6.1418   -4.6172    1.4827 H   0  0  0  0  0  0  0  0  0  0  0  0
   -5.9056   -0.8402    0.5756 H   0  0  0  0  0  0  0  0  0  0  0  0
   -5.8488   -2.2329    1.6821 H   0  0  0  0  0  0  0  0  0  0  0  0
   -7.6264   -1.8493   -0.8225 H   0  0  0  0  0  0  0  0  0  0  0  0
   -7.5287   -3.4163    0.0672 H   0  0  0  0  0  0  0  0  0  0  0  0
   -8.1390   -1.9397    0.8995 H   0  0  0  0  0  0  0  0  0  0  0  0
   -3.0546   -2.7325    2.0769 H   0  0  0  0  0  0  0  0  0  0  0  0
   -5.9377   -1.3557   -4.1895 H   0  0  0  0  0  0  0  0  0  0  0  0
   -0.4592    6.9721   -5.4496 H   0  0  0  0  0  0  0  0  0  0  0  0
   -1.9760    7.5972   -4.6759 H   0  0  0  0  0  0  0  0  0  0  0  0
   -0.1378    7.5830   -3.0267 H   0  0  0  0  0  0  0  0  0  0  0  0
   -1.3624    6.3330   -2.5695 H   0  0  0  0  0  0  0  0  0  0  0  0
    0.1905    5.8379   -3.3588 H   0  0  0  0  0  0  0  0  0  0  0  0
   -8.3076    0.8673  -11.9950 H   0  0  0  0  0  0  0  0  0  0  0  0
   -1.9430    3.0598  -16.2938 H   0  0  0  0  0  0  0  0  0  0  0  0
   -0.7782    2.5108  -15.0372 H   0  0  0  0  0  0  0  0  0  0  0  0
   -0.5613    4.9670  -15.5505 H   0  0  0  0  0  0  0  0  0  0  0  0
   -2.2856    5.2173  -15.0686 H   0  0  0  0  0  0  0  0  0  0  0  0
   -1.0629    4.7053  -13.8364 H   0  0  0  0  0  0  0  0  0  0  0  0
  1  2  1  0
  2  3  1  0
  3  4  2  0
  4  5  1  0
  5  6  1  0
  6  7  1  0
  7  8  2  0
  7  9  1  0
  9 10  1  0
 10 11  1  0
  6 12  2  0
 12 13  1  0
 12 14  1  0
  3 15  1  0
 15 16  1  0
 16 17  1  0
 17 18  2  0
 18 19  1  0
 19 20  1  0
 20 21  1  0
 21 22  2  0
 21 23  1  0
 23 24  1  0
 24 25  1  0
 20 26  2  0
 26 27  1  0
 26 28  1  0
 17 29  1  0
 29 30  1  0
 30 31  1  0
 31 32  2  0
 32 33  1  0
 33 34  1  0
 34 35  1  0
 35 36  2  0
 35 37  1  0
 37 38  1  0
 38 39  1  0
 34 40  2  0
 40 41  1  0
 40 42  1  0
 31 43  1  0
 43 44  1  0
 44 45  1  0
 45 46  1  0
 46 47  2  0
 47 48  1  0
 48 49  1  0
 49 50  1  0
 50 51  1  0
 49 52  1  0
 52 53  1  0
 49 54  1  0
 54 55  1  0
 47 56  1  0
 56 57  2  0
 57 58  1  0
 57 59  1  0
 59 60  1  0
 60 61  1  0
 61 62  2  0
 62 63  1  0
 63 64  1  0
 64 65  1  0
 65 66  2  0
 65 67  1  0
 67 68  1  0
 68 69  1  0
 64 70  2  0
 70 71  1  0
 70 72  1  0
 61 73  1  0
 73 74  1  0
 74 75  1  0
 75 76  2  0
 76 77  1  0
 77 78  1  0
 78 79  1  0
 79 80  2  0
 79 81  1  0
 81 82  1  0
 82 83  1  0
 78 84  2  0
 84 85  1  0
 84 86  1  0
 13  1  2  0
 27 15  2  0
 41 29  2  0
 55 43  2  0
 71 59  2  0
 85 73  2  0
 13  4  1  0
 27 18  1  0
 41 32  1  0
 54 45  2  0
 71 62  1  0
 85 76  1  0
 58 46  1  0
  1 87  1  0
 10 88  1  0
 10 89  1  0
 11 90  1  0
 11 91  1  0
 11 92  1  0
 24 93  1  0
 24 94  1  0
 25 95  1  0
 25 96  1  0
 25 97  1  0
 38 98  1  0
 38 99  1  0
 39100  1  0
 39101  1  0
 39102  1  0
 50103  1  0
 50104  1  0
 51105  1  0
 51106  1  0
 51107  1  0
 52108  1  0
 52109  1  0
 53110  1  0
 53111  1  0
 53112  1  0
 55113  1  0
 56114  1  0
 68115  1  0
 68116  1  0
 69117  1  0
 69118  1  0
 69119  1  0
 75120  1  0
 82121  1  0
 82122  1  0
 83123  1  0
 83124  1  0
 83125  1  0
M  END

