
     RDKit          3D

105112  0  0  0  0  0  0  0  0999 V2000
   -6.7034    5.4182   -2.0491 C   0  0  0  0  0  0  0  0  0  0  0  0
   -5.5009    5.4373   -2.1129 C   0  0  0  0  0  0  0  0  0  0  0  0
   -4.0660    5.4605   -2.1873 C   0  0  0  0  0  0  0  0  0  0  0  0
   -3.1454    6.8080   -2.5868 S   0  0  0  0  0  0  0  0  0  0  0  0
   -1.6661    6.0170   -2.4805 C   0  0  0  0  0  0  0  0  0  0  0  0
   -1.8753    4.6851   -2.1461 C   0  0  0  0  0  0  0  0  0  0  0  0
   -3.2280    4.3729   -1.9730 C   0  0  0  0  0  0  0  0  0  0  0  0
   -0.3899    6.6105   -2.7614 C   0  0  0  0  0  0  0  0  0  0  0  0
    0.6907    7.0782   -3.0190 C   0  0  0  0  0  0  0  0  0  0  0  0
    2.0002    7.5862   -3.3551 C   0  0  0  0  0  0  0  0  0  0  0  0
    2.8927    6.8548   -4.0303 C   0  0  0  0  0  0  0  0  0  0  0  0
    2.5983    5.5120   -4.4586 C   0  0  0  0  0  0  0  0  0  0  0  0
    2.2856    4.3945   -4.7804 C   0  0  0  0  0  0  0  0  0  0  0  0
    1.8524    3.0721   -5.1233 C   0  0  0  0  0  0  0  0  0  0  0  0
    0.3546    2.4340   -4.7111 S   0  0  0  0  0  0  0  0  0  0  0  0
    0.6554    0.9155   -5.3644 C   0  0  0  0  0  0  0  0  0  0  0  0
    1.9240    0.8932   -5.9301 C   0  0  0  0  0  0  0  0  0  0  0  0
    2.6020    2.1123   -5.7916 C   0  0  0  0  0  0  0  0  0  0  0  0
   -0.2823   -0.1712   -5.3463 C   0  0  0  0  0  0  0  0  0  0  0  0
   -1.1014   -1.0549   -5.3300 C   0  0  0  0  0  0  0  0  0  0  0  0
   -2.1101   -2.0852   -5.3198 C   0  0  0  0  0  0  0  0  0  0  0  0
   -2.0676   -3.1373   -4.4994 C   0  0  0  0  0  0  0  0  0  0  0  0
   -0.9920   -3.3723   -3.5708 C   0  0  0  0  0  0  0  0  0  0  0  0
   -0.1079   -3.6042   -2.7855 C   0  0  0  0  0  0  0  0  0  0  0  0
    0.9293   -3.9099   -1.8426 C   0  0  0  0  0  0  0  0  0  0  0  0
    0.7363   -4.8531   -0.4677 S   0  0  0  0  0  0  0  0  0  0  0  0
    2.3602   -4.8589   -0.0432 C   0  0  0  0  0  0  0  0  0  0  0  0
    3.0796   -4.1362   -0.9834 C   0  0  0  0  0  0  0  0  0  0  0  0
    2.2753   -3.6128   -2.0044 C   0  0  0  0  0  0  0  0  0  0  0  0
    2.9200   -5.6131    1.0430 C   0  0  0  0  0  0  0  0  0  0  0  0
    3.3760   -6.2619    1.9498 C   0  0  0  0  0  0  0  0  0  0  0  0
    3.9081   -7.0550    3.0356 C   0  0  0  0  0  0  0  0  0  0  0  0
    3.5630   -6.8569    4.3064 C   0  0  0  0  0  0  0  0  0  0  0  0
    2.6679   -5.7961    4.7010 C   0  0  0  0  0  0  0  0  0  0  0  0
    1.9255   -4.8896    4.9904 C   0  0  0  0  0  0  0  0  0  0  0  0
    1.0574   -3.7918    5.3026 C   0  0  0  0  0  0  0  0  0  0  0  0
   -0.1954   -3.8302    6.4241 S   0  0  0  0  0  0  0  0  0  0  0  0
   -0.6925   -2.2503    6.1333 C   0  0  0  0  0  0  0  0  0  0  0  0
    0.1040   -1.6836    5.1497 C   0  0  0  0  0  0  0  0  0  0  0  0
    1.0926   -2.5520    4.6823 C   0  0  0  0  0  0  0  0  0  0  0  0
   -1.8695   -1.6355    6.6765 C   0  0  0  0  0  0  0  0  0  0  0  0
   -2.8768   -1.0903    7.0529 C   0  0  0  0  0  0  0  0  0  0  0  0
   -4.1125   -0.4176    7.3772 C   0  0  0  0  0  0  0  0  0  0  0  0
   -4.9656   -0.0389    6.4155 C   0  0  0  0  0  0  0  0  0  0  0  0
   -4.7190   -0.3481    4.9998 C   0  0  0  0  0  0  0  0  0  0  0  0
   -3.9515    0.7134    3.9364 S   0  0  0  0  0  0  0  0  0  0  0  0
   -3.6523   -0.4587    2.7734 C   0  0  0  0  0  0  0  0  0  0  0  0
   -2.8291   -0.3512    1.5851 C   0  0  0  0  0  0  0  0  0  0  0  0
   -2.5856   -1.4727    0.8276 C   0  0  0  0  0  0  0  0  0  0  0  0
   -3.1811   -2.7027    1.1443 O   0  0  0  0  0  0  0  0  0  0  0  0
   -3.7510   -2.9871    2.4470 C   0  0  0  0  0  0  0  0  0  0  0  0
   -2.6797   -3.7282    3.2922 C   0  0  0  0  0  0  0  0  0  0  0  0
   -2.0327   -4.9267    2.5882 C   0  0  0  0  0  0  0  0  0  0  0  0
   -5.0115   -3.8637    2.2537 C   0  0  0  0  0  0  0  0  0  0  0  0
   -6.1113   -3.1656    1.4519 C   0  0  0  0  0  0  0  0  0  0  0  0
   -4.1149   -1.6968    3.1968 C   0  0  0  0  0  0  0  0  0  0  0  0
   -4.7113   -1.6355    4.4648 C   0  0  0  0  0  0  0  0  0  0  0  0
   -1.6584   -1.2720   -0.1944 C   0  0  0  0  0  0  0  0  0  0  0  0
   -1.1533    0.0255   -0.1917 C   0  0  0  0  0  0  0  0  0  0  0  0
   -1.8602    0.9158    1.0591 S   0  0  0  0  0  0  0  0  0  0  0  0
    0.0163    0.4460   -0.9041 C   0  0  0  0  0  0  0  0  0  0  0  0
    1.0461    0.7774   -1.4306 C   0  0  0  0  0  0  0  0  0  0  0  0
    2.3070    1.1698   -1.9897 C   0  0  0  0  0  0  0  0  0  0  0  0
    3.0939    2.6172   -1.6450 S   0  0  0  0  0  0  0  0  0  0  0  0
    4.4896    2.2263   -2.5031 C   0  0  0  0  0  0  0  0  0  0  0  0
    4.3646    0.9583   -3.0503 C   0  0  0  0  0  0  0  0  0  0  0  0
    3.1346    0.3589   -2.7540 C   0  0  0  0  0  0  0  0  0  0  0  0
    5.6660    3.0448   -2.5771 C   0  0  0  0  0  0  0  0  0  0  0  0
    6.6579    3.7265   -2.6235 C   0  0  0  0  0  0  0  0  0  0  0  0
    7.8500    4.5278   -2.6657 C   0  0  0  0  0  0  0  0  0  0  0  0
    8.6299    4.6372   -1.5948 C   0  0  0  0  0  0  0  0  0  0  0  0
   -7.7595    5.4032   -1.9915 H   0  0  0  0  0  0  0  0  0  0  0  0
   -1.0747    3.9630   -2.0362 H   0  0  0  0  0  0  0  0  0  0  0  0
   -3.5795    3.3822   -1.7122 H   0  0  0  0  0  0  0  0  0  0  0  0
    2.2591    8.5904   -3.0505 H   0  0  0  0  0  0  0  0  0  0  0  0
    3.8597    7.2756   -4.2676 H   0  0  0  0  0  0  0  0  0  0  0  0
    2.3431    0.0285   -6.4225 H   0  0  0  0  0  0  0  0  0  0  0  0
    3.6081    2.2834   -6.1470 H   0  0  0  0  0  0  0  0  0  0  0  0
   -2.9436   -1.9823   -6.0047 H   0  0  0  0  0  0  0  0  0  0  0  0
   -2.8692   -3.8614   -4.5302 H   0  0  0  0  0  0  0  0  0  0  0  0
    4.1591   -4.0344   -0.9578 H   0  0  0  0  0  0  0  0  0  0  0  0
    2.6646   -3.0488   -2.8447 H   0  0  0  0  0  0  0  0  0  0  0  0
    4.5960   -7.8558    2.7951 H   0  0  0  0  0  0  0  0  0  0  0  0
    3.9834   -7.4954    5.0737 H   0  0  0  0  0  0  0  0  0  0  0  0
   -0.0569   -0.6883    4.7569 H   0  0  0  0  0  0  0  0  0  0  0  0
    1.7883   -2.2890    3.9031 H   0  0  0  0  0  0  0  0  0  0  0  0
   -4.3195   -0.1681    8.4089 H   0  0  0  0  0  0  0  0  0  0  0  0
   -5.8497    0.5330    6.6708 H   0  0  0  0  0  0  0  0  0  0  0  0
   -1.8575   -3.0162    3.5391 H   0  0  0  0  0  0  0  0  0  0  0  0
   -3.1216   -4.0747    4.2537 H   0  0  0  0  0  0  0  0  0  0  0  0
   -1.2565   -5.3617    3.2464 H   0  0  0  0  0  0  0  0  0  0  0  0
   -1.5457   -4.6120    1.6423 H   0  0  0  0  0  0  0  0  0  0  0  0
   -2.7802   -5.7134    2.3770 H   0  0  0  0  0  0  0  0  0  0  0  0
   -4.7401   -4.7913    1.7109 H   0  0  0  0  0  0  0  0  0  0  0  0
   -5.4206   -4.1636    3.2400 H   0  0  0  0  0  0  0  0  0  0  0  0
   -6.9730   -3.8599    1.3308 H   0  0  0  0  0  0  0  0  0  0  0  0
   -5.7373   -2.8913    0.4435 H   0  0  0  0  0  0  0  0  0  0  0  0
   -6.4679   -2.2491    1.9694 H   0  0  0  0  0  0  0  0  0  0  0  0
   -5.0261   -2.5080    5.0208 H   0  0  0  0  0  0  0  0  0  0  0  0
   -1.3068   -2.0598   -0.8432 H   0  0  0  0  0  0  0  0  0  0  0  0
    5.1459    0.4691   -3.6174 H   0  0  0  0  0  0  0  0  0  0  0  0
    2.8732   -0.6382   -3.0744 H   0  0  0  0  0  0  0  0  0  0  0  0
    8.1178    5.0388   -3.5827 H   0  0  0  0  0  0  0  0  0  0  0  0
    9.5307    5.2321   -1.6424 H   0  0  0  0  0  0  0  0  0  0  0  0
    8.3877    4.1358   -0.6646 H   0  0  0  0  0  0  0  0  0  0  0  0
  1  2  3  0
  2  3  1  0
  3  4  1  0
  4  5  1  0
  5  6  2  0
  6  7  1  0
  5  8  1  0
  8  9  3  0
  9 10  1  0
 10 11  2  3
 11 12  1  0
 12 13  3  0
 13 14  1  0
 14 15  1  0
 15 16  1  0
 16 17  2  0
 17 18  1  0
 16 19  1  0
 19 20  3  0
 20 21  1  0
 21 22  2  3
 22 23  1  0
 23 24  3  0
 24 25  1  0
 25 26  1  0
 26 27  1  0
 27 28  2  0
 28 29  1  0
 27 30  1  0
 30 31  3  0
 31 32  1  0
 32 33  2  3
 33 34  1  0
 34 35  3  0
 35 36  1  0
 36 37  1  0
 37 38  1  0
 38 39  2  0
 39 40  1  0
 38 41  1  0
 41 42  3  0
 42 43  1  0
 43 44  2  3
 44 45  1  0
 45 46  1  0
 46 47  1  0
 47 48  1  0
 48 49  2  0
 49 50  1  0
 50 51  1  0
 51 52  1  0
 52 53  1  0
 51 54  1  0
 54 55  1  0
 51 56  1  0
 56 57  1  0
 49 58  1  0
 58 59  2  0
 59 60  1  0
 59 61  1  0
 61 62  3  0
 62 63  1  0
 63 64  1  0
 64 65  1  0
 65 66  2  0
 66 67  1  0
 65 68  1  0
 68 69  3  0
 69 70  1  0
 70 71  2  3
  7  3  2  0
 18 14  2  0
 29 25  2  0
 40 36  2  0
 57 45  2  0
 67 63  2  0
 56 47  2  0
 60 48  1  0
  1 72  1  0
  6 73  1  0
  7 74  1  0
 10 75  1  0
 11 76  1  0
 17 77  1  0
 18 78  1  0
 21 79  1  0
 22 80  1  0
 28 81  1  0
 29 82  1  0
 32 83  1  0
 33 84  1  0
 39 85  1  0
 40 86  1  0
 43 87  1  0
 44 88  1  0
 52 89  1  0
 52 90  1  0
 53 91  1  0
 53 92  1  0
 53 93  1  0
 54 94  1  0
 54 95  1  0
 55 96  1  0
 55 97  1  0
 55 98  1  0
 57 99  1  0
 58100  1  0
 66101  1  0
 67102  1  0
 70103  1  0
 71104  1  0
 71105  1  0
M  END

