
     RDKit          3D

170183  0  0  0  0  0  0  0  0999 V2000
   -0.5574    1.6594   14.9131 C   0  0  0  0  0  0  0  0  0  0  0  0
   -1.1368    2.0650   13.7018 C   0  0  0  0  0  0  0  0  0  0  0  0
   -1.5883    3.4366   13.4226 C   0  0  0  0  0  0  0  0  0  0  0  0
   -2.1614    3.7033   12.3285 O   0  0  0  0  0  0  0  0  0  0  0  0
   -1.3993    4.4337   14.3828 O   0  0  0  0  0  0  0  0  0  0  0  0
   -1.8337    5.7764   14.1888 C   0  0  0  0  0  0  0  0  0  0  0  0
   -1.4993    6.6054   15.4174 C   0  0  0  0  0  0  0  0  0  0  0  0
   -1.2293    0.9896   12.8179 C   0  0  0  0  0  0  0  0  0  0  0  0
   -0.7730   -0.1997   13.2853 C   0  0  0  0  0  0  0  0  0  0  0  0
   -0.1906   -0.0041   14.8452 S   0  0  0  0  0  0  0  0  0  0  0  0
   -0.8484   -1.2720   12.3982 C   0  0  0  0  0  0  0  0  0  0  0  0
   -0.3052   -2.5932   12.7183 C   0  0  0  0  0  0  0  0  0  0  0  0
   -0.9691   -3.3865   13.4430 O   0  0  0  0  0  0  0  0  0  0  0  0
    0.9639   -2.9394   12.2430 O   0  0  0  0  0  0  0  0  0  0  0  0
    1.5647   -4.2049   12.5040 C   0  0  0  0  0  0  0  0  0  0  0  0
    2.9328   -4.2571   11.8396 C   0  0  0  0  0  0  0  0  0  0  0  0
   -1.4207   -0.8800   11.1650 C   0  0  0  0  0  0  0  0  0  0  0  0
   -1.7538    0.7959   11.2395 S   0  0  0  0  0  0  0  0  0  0  0  0
   -1.6417   -1.7351    9.9660 C   0  0  0  0  0  0  0  0  0  0  0  0
   -2.4506   -1.4371    8.8400 C   0  0  0  0  0  0  0  0  0  0  0  0
   -3.4407   -0.3535    8.7432 C   0  0  0  0  0  0  0  0  0  0  0  0
   -3.6087    0.2477    7.6470 O   0  0  0  0  0  0  0  0  0  0  0  0
   -4.2273   -0.0351    9.8545 O   0  0  0  0  0  0  0  0  0  0  0  0
   -5.1489    1.0511    9.8583 C   0  0  0  0  0  0  0  0  0  0  0  0
   -5.7853    1.1683   11.2358 C   0  0  0  0  0  0  0  0  0  0  0  0
   -2.2879   -2.4040    7.8431 C   0  0  0  0  0  0  0  0  0  0  0  0
   -1.4548   -3.4292    8.1397 C   0  0  0  0  0  0  0  0  0  0  0  0
   -0.8213   -3.2029    9.6692 S   0  0  0  0  0  0  0  0  0  0  0  0
   -1.3470   -4.4348    7.1788 C   0  0  0  0  0  0  0  0  0  0  0  0
   -0.5988   -5.6738    7.4291 C   0  0  0  0  0  0  0  0  0  0  0  0
    0.5441   -5.6155    7.9637 O   0  0  0  0  0  0  0  0  0  0  0  0
   -1.1835   -6.9117    7.1436 O   0  0  0  0  0  0  0  0  0  0  0  0
   -0.5106   -8.1468    7.3831 C   0  0  0  0  0  0  0  0  0  0  0  0
   -1.3565   -9.2958    6.8638 C   0  0  0  0  0  0  0  0  0  0  0  0
   -2.1259   -4.1246    6.0370 C   0  0  0  0  0  0  0  0  0  0  0  0
   -2.9438   -2.6502    6.3221 S   0  0  0  0  0  0  0  0  0  0  0  0
   -2.1271   -4.7908    4.7116 C   0  0  0  0  0  0  0  0  0  0  0  0
   -3.0349   -4.2542    3.3914 S   0  0  0  0  0  0  0  0  0  0  0  0
   -2.3512   -5.3123    2.2848 C   0  0  0  0  0  0  0  0  0  0  0  0
   -2.5125   -5.3327    0.8450 C   0  0  0  0  0  0  0  0  0  0  0  0
   -1.6288   -6.0597    0.0870 C   0  0  0  0  0  0  0  0  0  0  0  0
   -0.6880   -6.9064    0.6830 O   0  0  0  0  0  0  0  0  0  0  0  0
   -0.6035   -7.1598    2.1080 C   0  0  0  0  0  0  0  0  0  0  0  0
    0.9241   -7.1541    2.4332 C   0  0  0  0  0  0  0  0  0  0  0  0
    1.3824   -7.7086    3.7917 C   0  0  0  0  0  0  0  0  0  0  0  0
   -1.3000   -8.5211    2.3766 C   0  0  0  0  0  0  0  0  0  0  0  0
   -0.6241   -9.7103    1.6914 C   0  0  0  0  0  0  0  0  0  0  0  0
   -1.3705   -6.0779    2.8946 C   0  0  0  0  0  0  0  0  0  0  0  0
   -1.2664   -5.7994    4.2686 C   0  0  0  0  0  0  0  0  0  0  0  0
   -1.6934   -5.7880   -1.2803 C   0  0  0  0  0  0  0  0  0  0  0  0
   -2.6442   -4.8126   -1.5793 C   0  0  0  0  0  0  0  0  0  0  0  0
   -3.3880   -4.2952   -0.1476 S   0  0  0  0  0  0  0  0  0  0  0  0
   -2.7631   -4.1196   -2.8656 C   0  0  0  0  0  0  0  0  0  0  0  0
   -1.4512   -3.7325   -3.8587 S   0  0  0  0  0  0  0  0  0  0  0  0
   -2.3388   -2.7443   -4.8830 C   0  0  0  0  0  0  0  0  0  0  0  0
   -1.8558   -1.8667   -5.9291 C   0  0  0  0  0  0  0  0  0  0  0  0
   -2.7358   -1.0281   -6.5640 C   0  0  0  0  0  0  0  0  0  0  0  0
   -4.1109   -1.0716   -6.2944 O   0  0  0  0  0  0  0  0  0  0  0  0
   -4.6911   -1.7857   -5.1757 C   0  0  0  0  0  0  0  0  0  0  0  0
   -5.8665   -2.6432   -5.7074 C   0  0  0  0  0  0  0  0  0  0  0  0
   -5.4268   -3.6908   -6.7350 C   0  0  0  0  0  0  0  0  0  0  0  0
   -5.1828   -0.7401   -4.1396 C   0  0  0  0  0  0  0  0  0  0  0  0
   -6.0768    0.3557   -4.7278 C   0  0  0  0  0  0  0  0  0  0  0  0
   -3.6649   -2.6938   -4.4785 C   0  0  0  0  0  0  0  0  0  0  0  0
   -3.9032   -3.4644   -3.3280 C   0  0  0  0  0  0  0  0  0  0  0  0
   -2.1303   -0.1286   -7.4393 C   0  0  0  0  0  0  0  0  0  0  0  0
   -0.7376   -0.2400   -7.4533 C   0  0  0  0  0  0  0  0  0  0  0  0
   -0.2901   -1.4864   -6.3916 S   0  0  0  0  0  0  0  0  0  0  0  0
    0.2280    0.6516   -8.1388 C   0  0  0  0  0  0  0  0  0  0  0  0
   -0.0183    1.9102   -8.7355 C   0  0  0  0  0  0  0  0  0  0  0  0
   -1.3068    2.5900   -8.8694 C   0  0  0  0  0  0  0  0  0  0  0  0
   -1.5553    3.5911   -8.1433 O   0  0  0  0  0  0  0  0  0  0  0  0
   -2.2085    2.1796   -9.8581 O   0  0  0  0  0  0  0  0  0  0  0  0
   -3.4198    2.8766  -10.1475 C   0  0  0  0  0  0  0  0  0  0  0  0
   -4.4823    2.5875   -9.0929 C   0  0  0  0  0  0  0  0  0  0  0  0
    1.1727    2.5195   -9.1178 C   0  0  0  0  0  0  0  0  0  0  0  0
    2.3088    1.8302   -8.8698 C   0  0  0  0  0  0  0  0  0  0  0  0
    1.9199    0.3778   -8.1272 S   0  0  0  0  0  0  0  0  0  0  0  0
    3.4996    2.4883   -9.1839 C   0  0  0  0  0  0  0  0  0  0  0  0
    4.8144    1.8798   -8.9517 C   0  0  0  0  0  0  0  0  0  0  0  0
    5.1516    0.8617   -9.6169 O   0  0  0  0  0  0  0  0  0  0  0  0
    5.6632    2.4121   -7.9784 O   0  0  0  0  0  0  0  0  0  0  0  0
    6.9889    1.9324   -7.7719 C   0  0  0  0  0  0  0  0  0  0  0  0
    7.6539    2.7396   -6.6683 C   0  0  0  0  0  0  0  0  0  0  0  0
    3.2442    3.7746   -9.7322 C   0  0  0  0  0  0  0  0  0  0  0  0
    1.5559    4.0025   -9.7743 S   0  0  0  0  0  0  0  0  0  0  0  0
    4.2366    4.7781  -10.2127 C   0  0  0  0  0  0  0  0  0  0  0  0
    3.9848    5.9361  -10.9938 C   0  0  0  0  0  0  0  0  0  0  0  0
    2.6805    6.4345  -11.4549 C   0  0  0  0  0  0  0  0  0  0  0  0
    2.4549    6.5169  -12.6919 O   0  0  0  0  0  0  0  0  0  0  0  0
    1.7511    6.9157  -10.5252 O   0  0  0  0  0  0  0  0  0  0  0  0
    0.5239    7.5420  -10.8948 C   0  0  0  0  0  0  0  0  0  0  0  0
   -0.5121    6.5087  -11.3283 C   0  0  0  0  0  0  0  0  0  0  0  0
    5.1689    6.6184  -11.2781 C   0  0  0  0  0  0  0  0  0  0  0  0
    6.3033    6.0875  -10.7616 C   0  0  0  0  0  0  0  0  0  0  0  0
    5.9176    4.6958   -9.9178 S   0  0  0  0  0  0  0  0  0  0  0  0
    7.4718    6.8188  -10.9845 C   0  0  0  0  0  0  0  0  0  0  0  0
    8.7998    6.4660  -10.4577 C   0  0  0  0  0  0  0  0  0  0  0  0
    9.7621    7.2660  -10.5961 O   0  0  0  0  0  0  0  0  0  0  0  0
    8.9835    5.2480   -9.7941 O   0  0  0  0  0  0  0  0  0  0  0  0
   10.1975    4.8786   -9.1404 C   0  0  0  0  0  0  0  0  0  0  0  0
   10.3386    5.6265   -7.8185 C   0  0  0  0  0  0  0  0  0  0  0  0
    7.1986    7.9762  -11.7262 C   0  0  0  0  0  0  0  0  0  0  0  0
    5.5297    8.0543  -12.0696 S   0  0  0  0  0  0  0  0  0  0  0  0
   -0.3707    2.3013   15.7656 H   0  0  0  0  0  0  0  0  0  0  0  0
   -1.3246    6.2120   13.3011 H   0  0  0  0  0  0  0  0  0  0  0  0
   -2.9326    5.7951   14.0234 H   0  0  0  0  0  0  0  0  0  0  0  0
   -2.0047    6.1786   16.3084 H   0  0  0  0  0  0  0  0  0  0  0  0
   -1.8460    7.6496   15.2729 H   0  0  0  0  0  0  0  0  0  0  0  0
   -0.4028    6.6092   15.5857 H   0  0  0  0  0  0  0  0  0  0  0  0
    1.6829   -4.3465   13.6015 H   0  0  0  0  0  0  0  0  0  0  0  0
    0.9260   -5.0181   12.0937 H   0  0  0  0  0  0  0  0  0  0  0  0
    3.3853   -5.2574   11.9910 H   0  0  0  0  0  0  0  0  0  0  0  0
    2.8314   -4.0693   10.7509 H   0  0  0  0  0  0  0  0  0  0  0  0
    3.5984   -3.4843   12.2807 H   0  0  0  0  0  0  0  0  0  0  0  0
   -4.6122    1.9968    9.6251 H   0  0  0  0  0  0  0  0  0  0  0  0
   -5.9385    0.8794    9.0956 H   0  0  0  0  0  0  0  0  0  0  0  0
   -6.4944    2.0201   11.2491 H   0  0  0  0  0  0  0  0  0  0  0  0
   -4.9983    1.3426   12.0003 H   0  0  0  0  0  0  0  0  0  0  0  0
   -6.3334    0.2352   11.4805 H   0  0  0  0  0  0  0  0  0  0  0  0
   -0.3428   -8.2725    8.4727 H   0  0  0  0  0  0  0  0  0  0  0  0
    0.4691   -8.1495    6.8599 H   0  0  0  0  0  0  0  0  0  0  0  0
   -2.3425   -9.3058    7.3714 H   0  0  0  0  0  0  0  0  0  0  0  0
   -1.5095   -9.1876    5.7721 H   0  0  0  0  0  0  0  0  0  0  0  0
   -0.8382  -10.2572    7.0614 H   0  0  0  0  0  0  0  0  0  0  0  0
    1.4417   -7.7432    1.6459 H   0  0  0  0  0  0  0  0  0  0  0  0
    1.3072   -6.1146    2.3286 H   0  0  0  0  0  0  0  0  0  0  0  0
    0.7093   -8.4897    4.1938 H   0  0  0  0  0  0  0  0  0  0  0  0
    1.4905   -6.8927    4.5339 H   0  0  0  0  0  0  0  0  0  0  0  0
    2.3918   -8.1593    3.6793 H   0  0  0  0  0  0  0  0  0  0  0  0
   -2.3459   -8.4613    1.9979 H   0  0  0  0  0  0  0  0  0  0  0  0
   -1.3762   -8.7207    3.4639 H   0  0  0  0  0  0  0  0  0  0  0  0
   -1.2312  -10.6241    1.8631 H   0  0  0  0  0  0  0  0  0  0  0  0
   -0.5458   -9.5415    0.5962 H   0  0  0  0  0  0  0  0  0  0  0  0
    0.3859   -9.8887    2.1115 H   0  0  0  0  0  0  0  0  0  0  0  0
   -0.5619   -6.2886    4.9020 H   0  0  0  0  0  0  0  0  0  0  0  0
   -1.0282   -6.2315   -2.0097 H   0  0  0  0  0  0  0  0  0  0  0  0
   -6.6141   -1.9886   -6.2014 H   0  0  0  0  0  0  0  0  0  0  0  0
   -6.3782   -3.1600   -4.8628 H   0  0  0  0  0  0  0  0  0  0  0  0
   -4.9725   -3.1952   -7.6227 H   0  0  0  0  0  0  0  0  0  0  0  0
   -6.3105   -4.2714   -7.0753 H   0  0  0  0  0  0  0  0  0  0  0  0
   -4.6955   -4.4004   -6.2943 H   0  0  0  0  0  0  0  0  0  0  0  0
   -4.2970   -0.2453   -3.6860 H   0  0  0  0  0  0  0  0  0  0  0  0
   -5.7396   -1.2470   -3.3191 H   0  0  0  0  0  0  0  0  0  0  0  0
   -6.2889    1.1115   -3.9433 H   0  0  0  0  0  0  0  0  0  0  0  0
   -5.5722    0.8726   -5.5724 H   0  0  0  0  0  0  0  0  0  0  0  0
   -7.0486   -0.0587   -5.0675 H   0  0  0  0  0  0  0  0  0  0  0  0
   -4.8591   -3.5101   -2.8245 H   0  0  0  0  0  0  0  0  0  0  0  0
   -2.7012    0.5916   -7.9935 H   0  0  0  0  0  0  0  0  0  0  0  0
   -3.7950    2.5367  -11.1357 H   0  0  0  0  0  0  0  0  0  0  0  0
   -3.2290    3.9698  -10.2092 H   0  0  0  0  0  0  0  0  0  0  0  0
   -4.1358    2.9102   -8.0882 H   0  0  0  0  0  0  0  0  0  0  0  0
   -5.4121    3.1376   -9.3408 H   0  0  0  0  0  0  0  0  0  0  0  0
   -4.7096    1.5000   -9.0678 H   0  0  0  0  0  0  0  0  0  0  0  0
    7.5774    2.0484   -8.7099 H   0  0  0  0  0  0  0  0  0  0  0  0
    6.9642    0.8558   -7.4874 H   0  0  0  0  0  0  0  0  0  0  0  0
    7.1456    2.5471   -5.7002 H   0  0  0  0  0  0  0  0  0  0  0  0
    7.5917    3.8212   -6.9059 H   0  0  0  0  0  0  0  0  0  0  0  0
    8.7213    2.4514   -6.5826 H   0  0  0  0  0  0  0  0  0  0  0  0
    0.1285    8.0959  -10.0180 H   0  0  0  0  0  0  0  0  0  0  0  0
    0.6980    8.2751  -11.7130 H   0  0  0  0  0  0  0  0  0  0  0  0
   -0.1424    5.9281  -12.1994 H   0  0  0  0  0  0  0  0  0  0  0  0
   -1.4522    7.0254  -11.6157 H   0  0  0  0  0  0  0  0  0  0  0  0
   -0.7310    5.8152  -10.4882 H   0  0  0  0  0  0  0  0  0  0  0  0
   10.1701    3.7872   -8.9332 H   0  0  0  0  0  0  0  0  0  0  0  0
   11.0714    5.0850   -9.7935 H   0  0  0  0  0  0  0  0  0  0  0  0
   10.4447    6.7176   -8.0019 H   0  0  0  0  0  0  0  0  0  0  0  0
   11.2388    5.2666   -7.2765 H   0  0  0  0  0  0  0  0  0  0  0  0
    9.4434    5.4513   -7.1831 H   0  0  0  0  0  0  0  0  0  0  0  0
    7.9248    8.7204  -12.0235 H   0  0  0  0  0  0  0  0  0  0  0  0
  1  2  2  0
  2  3  1  0
  3  4  2  0
  3  5  1  0
  5  6  1  0
  6  7  1  0
  2  8  1  0
  8  9  2  0
  9 10  1  0
  9 11  1  0
 11 12  1  0
 12 13  2  0
 12 14  1  0
 14 15  1  0
 15 16  1  0
 11 17  2  0
 17 18  1  0
 17 19  1  0
 19 20  2  0
 20 21  1  0
 21 22  2  0
 21 23  1  0
 23 24  1  0
 24 25  1  0
 20 26  1  0
 26 27  2  0
 27 28  1  0
 27 29  1  0
 29 30  1  0
 30 31  2  0
 30 32  1  0
 32 33  1  0
 33 34  1  0
 29 35  2  0
 35 36  1  0
 35 37  1  0
 37 38  1  0
 38 39  1  0
 39 40  1  0
 40 41  2  0
 41 42  1  0
 42 43  1  0
 43 44  1  0
 44 45  1  0
 43 46  1  0
 46 47  1  0
 43 48  1  0
 48 49  1  0
 41 50  1  0
 50 51  2  0
 51 52  1  0
 51 53  1  0
 53 54  1  0
 54 55  1  0
 55 56  1  0
 56 57  2  0
 57 58  1  0
 58 59  1  0
 59 60  1  0
 60 61  1  0
 59 62  1  0
 62 63  1  0
 59 64  1  0
 64 65  1  0
 57 66  1  0
 66 67  2  0
 67 68  1  0
 67 69  1  0
 69 70  2  0
 70 71  1  0
 71 72  2  0
 71 73  1  0
 73 74  1  0
 74 75  1  0
 70 76  1  0
 76 77  2  0
 77 78  1  0
 77 79  1  0
 79 80  1  0
 80 81  2  0
 80 82  1  0
 82 83  1  0
 83 84  1  0
 79 85  2  0
 85 86  1  0
 85 87  1  0
 87 88  2  0
 88 89  1  0
 89 90  2  0
 89 91  1  0
 91 92  1  0
 92 93  1  0
 88 94  1  0
 94 95  2  0
 95 96  1  0
 95 97  1  0
 97 98  1  0
 98 99  2  0
 98100  1  0
100101  1  0
101102  1  0
 97103  2  0
103104  1  0
 10  1  1  0
 28 19  1  0
 49 37  2  0
 65 53  2  0
 78 69  1  0
 96 87  1  0
 18  8  1  0
 36 26  1  0
 48 39  2  0
 64 55  2  0
 86 76  1  0
104 94  1  0
 52 40  1  0
 68 56  1  0
  1105  1  0
  6106  1  0
  6107  1  0
  7108  1  0
  7109  1  0
  7110  1  0
 15111  1  0
 15112  1  0
 16113  1  0
 16114  1  0
 16115  1  0
 24116  1  0
 24117  1  0
 25118  1  0
 25119  1  0
 25120  1  0
 33121  1  0
 33122  1  0
 34123  1  0
 34124  1  0
 34125  1  0
 44126  1  0
 44127  1  0
 45128  1  0
 45129  1  0
 45130  1  0
 46131  1  0
 46132  1  0
 47133  1  0
 47134  1  0
 47135  1  0
 49136  1  0
 50137  1  0
 60138  1  0
 60139  1  0
 61140  1  0
 61141  1  0
 61142  1  0
 62143  1  0
 62144  1  0
 63145  1  0
 63146  1  0
 63147  1  0
 65148  1  0
 66149  1  0
 74150  1  0
 74151  1  0
 75152  1  0
 75153  1  0
 75154  1  0
 83155  1  0
 83156  1  0
 84157  1  0
 84158  1  0
 84159  1  0
 92160  1  0
 92161  1  0
 93162  1  0
 93163  1  0
 93164  1  0
101165  1  0
101166  1  0
102167  1  0
102168  1  0
102169  1  0
103170  1  0
M  END

