
     RDKit          3D

105112  0  0  0  0  0  0  0  0999 V2000
    5.8318    9.0435    1.7122 C   0  0  0  0  0  0  0  0  0  0  0  0
    4.5328    8.9572    1.5297 O   0  0  0  0  0  0  0  0  0  0  0  0
    4.2235    7.7178    1.2142 C   0  0  0  0  0  0  0  0  0  0  0  0
    5.3632    6.9425    1.1980 C   0  0  0  0  0  0  0  0  0  0  0  0
    6.3991    7.7975    1.5166 C   0  0  0  0  0  0  0  0  0  0  0  0
    7.7514    7.4603    1.6086 O   0  0  0  0  0  0  0  0  0  0  0  0
    8.7638    8.4144    1.8997 C   0  0  0  0  0  0  0  0  0  0  0  0
    5.4135    5.5783    0.8933 O   0  0  0  0  0  0  0  0  0  0  0  0
    6.6251    4.8584    0.7237 C   0  0  0  0  0  0  0  0  0  0  0  0
    2.8602    7.2502    0.9334 C   0  0  0  0  0  0  0  0  0  0  0  0
    2.5147    5.9822    0.9549 O   0  0  0  0  0  0  0  0  0  0  0  0
    1.2278    5.8783    0.7049 C   0  0  0  0  0  0  0  0  0  0  0  0
    0.6939    7.1417    0.5028 C   0  0  0  0  0  0  0  0  0  0  0  0
    1.7508    8.0249    0.6383 C   0  0  0  0  0  0  0  0  0  0  0  0
    1.7037    9.4119    0.4821 O   0  0  0  0  0  0  0  0  0  0  0  0
    2.3732   10.0690   -0.5878 C   0  0  0  0  0  0  0  0  0  0  0  0
   -0.6389    7.4240    0.1757 O   0  0  0  0  0  0  0  0  0  0  0  0
   -1.1325    8.7281   -0.0882 C   0  0  0  0  0  0  0  0  0  0  0  0
    0.5307    4.5826    0.6398 C   0  0  0  0  0  0  0  0  0  0  0  0
    1.3157    3.0863    0.6930 S   0  0  0  0  0  0  0  0  0  0  0  0
   -0.0895    2.1809    0.5602 C   0  0  0  0  0  0  0  0  0  0  0  0
   -0.2383    0.7449    0.4899 C   0  0  0  0  0  0  0  0  0  0  0  0
   -1.4932    0.1983    0.3840 C   0  0  0  0  0  0  0  0  0  0  0  0
   -2.6377    1.0053    0.3405 O   0  0  0  0  0  0  0  0  0  0  0  0
   -2.6174    2.4576    0.3039 C   0  0  0  0  0  0  0  0  0  0  0  0
   -3.1447    2.9579   -1.0800 C   0  0  0  0  0  0  0  0  0  0  0  0
   -4.0918    1.9912   -1.7958 C   0  0  0  0  0  0  0  0  0  0  0  0
   -3.4763    2.9765    1.4899 C   0  0  0  0  0  0  0  0  0  0  0  0
   -4.9384    2.5393    1.4534 C   0  0  0  0  0  0  0  0  0  0  0  0
   -1.1946    3.0102    0.4854 C   0  0  0  0  0  0  0  0  0  0  0  0
   -0.8438    4.3729    0.5116 C   0  0  0  0  0  0  0  0  0  0  0  0
   -1.4921   -1.1957    0.3002 C   0  0  0  0  0  0  0  0  0  0  0  0
   -0.1992   -1.7289    0.3406 C   0  0  0  0  0  0  0  0  0  0  0  0
    0.9263   -0.4638    0.4665 S   0  0  0  0  0  0  0  0  0  0  0  0
    0.1154   -3.1591    0.1982 C   0  0  0  0  0  0  0  0  0  0  0  0
   -0.7997   -4.0688   -0.0545 O   0  0  0  0  0  0  0  0  0  0  0  0
   -0.2253   -5.2480   -0.1719 C   0  0  0  0  0  0  0  0  0  0  0  0
    1.1448   -5.1117   -0.0001 C   0  0  0  0  0  0  0  0  0  0  0  0
    1.3593   -3.7681    0.2609 C   0  0  0  0  0  0  0  0  0  0  0  0
    2.5827   -3.1553    0.5339 O   0  0  0  0  0  0  0  0  0  0  0  0
    2.9802   -2.8875    1.8756 C   0  0  0  0  0  0  0  0  0  0  0  0
    2.0925   -6.1344   -0.1160 O   0  0  0  0  0  0  0  0  0  0  0  0
    3.5000   -5.9229   -0.0636 C   0  0  0  0  0  0  0  0  0  0  0  0
   -0.9947   -6.4682   -0.4737 C   0  0  0  0  0  0  0  0  0  0  0  0
   -2.2058   -6.4257   -0.9860 O   0  0  0  0  0  0  0  0  0  0  0  0
   -2.6444   -7.6518   -1.1683 C   0  0  0  0  0  0  0  0  0  0  0  0
   -1.6919   -8.5524   -0.7209 C   0  0  0  0  0  0  0  0  0  0  0  0
   -0.6275   -7.7908   -0.2785 C   0  0  0  0  0  0  0  0  0  0  0  0
    0.5591   -8.2336    0.3145 O   0  0  0  0  0  0  0  0  0  0  0  0
    0.8927   -9.6033    0.5023 C   0  0  0  0  0  0  0  0  0  0  0  0
   -1.7918   -9.9444   -0.6584 O   0  0  0  0  0  0  0  0  0  0  0  0
   -2.7951  -10.5989    0.1101 C   0  0  0  0  0  0  0  0  0  0  0  0
   -3.9512   -7.9418   -1.7727 C   0  0  0  0  0  0  0  0  0  0  0  0
   -4.9942   -7.1529   -1.6369 O   0  0  0  0  0  0  0  0  0  0  0  0
   -6.0148   -7.6651   -2.2914 C   0  0  0  0  0  0  0  0  0  0  0  0
   -5.6178   -8.8436   -2.8966 C   0  0  0  0  0  0  0  0  0  0  0  0
   -4.2872   -9.0167   -2.5754 C   0  0  0  0  0  0  0  0  0  0  0  0
   -3.4182  -10.0333   -2.9982 O   0  0  0  0  0  0  0  0  0  0  0  0
   -3.8477  -11.1946   -3.6981 C   0  0  0  0  0  0  0  0  0  0  0  0
   -6.3962   -9.6885   -3.6954 O   0  0  0  0  0  0  0  0  0  0  0  0
   -7.7763   -9.4582   -3.9463 C   0  0  0  0  0  0  0  0  0  0  0  0
    6.3481    9.9587    1.9651 H   0  0  0  0  0  0  0  0  0  0  0  0
    8.7825    9.2042    1.1182 H   0  0  0  0  0  0  0  0  0  0  0  0
    9.7502    7.9036    1.9262 H   0  0  0  0  0  0  0  0  0  0  0  0
    8.5753    8.8769    2.8941 H   0  0  0  0  0  0  0  0  0  0  0  0
    7.1971    4.8481    1.6786 H   0  0  0  0  0  0  0  0  0  0  0  0
    7.2330    5.3166   -0.0902 H   0  0  0  0  0  0  0  0  0  0  0  0
    6.3851    3.8148    0.4545 H   0  0  0  0  0  0  0  0  0  0  0  0
    2.2732   11.1655   -0.4678 H   0  0  0  0  0  0  0  0  0  0  0  0
    3.4501    9.8114   -0.6071 H   0  0  0  0  0  0  0  0  0  0  0  0
    1.9083    9.7731   -1.5521 H   0  0  0  0  0  0  0  0  0  0  0  0
   -2.2094    8.6616   -0.3554 H   0  0  0  0  0  0  0  0  0  0  0  0
   -0.5795    9.1849   -0.9436 H   0  0  0  0  0  0  0  0  0  0  0  0
   -1.0294    9.3640    0.8145 H   0  0  0  0  0  0  0  0  0  0  0  0
   -3.6442    3.9399   -0.9627 H   0  0  0  0  0  0  0  0  0  0  0  0
   -2.2915    3.1212   -1.7720 H   0  0  0  0  0  0  0  0  0  0  0  0
   -3.5662    1.0425   -2.0328 H   0  0  0  0  0  0  0  0  0  0  0  0
   -4.4330    2.4489   -2.7498 H   0  0  0  0  0  0  0  0  0  0  0  0
   -4.9858    1.7537   -1.1815 H   0  0  0  0  0  0  0  0  0  0  0  0
   -3.0345    2.5971    2.4351 H   0  0  0  0  0  0  0  0  0  0  0  0
   -3.4472    4.0862    1.5322 H   0  0  0  0  0  0  0  0  0  0  0  0
   -5.4329    2.8035    2.4143 H   0  0  0  0  0  0  0  0  0  0  0  0
   -5.0253    1.4421    1.3071 H   0  0  0  0  0  0  0  0  0  0  0  0
   -5.4763    3.0732    0.6478 H   0  0  0  0  0  0  0  0  0  0  0  0
   -1.5711    5.1696    0.4463 H   0  0  0  0  0  0  0  0  0  0  0  0
   -2.3898   -1.7921    0.1820 H   0  0  0  0  0  0  0  0  0  0  0  0
    3.9672   -2.3789    1.8764 H   0  0  0  0  0  0  0  0  0  0  0  0
    3.0616   -3.8382    2.4489 H   0  0  0  0  0  0  0  0  0  0  0  0
    2.2357   -2.2297    2.3741 H   0  0  0  0  0  0  0  0  0  0  0  0
    4.0186   -6.8802   -0.2797 H   0  0  0  0  0  0  0  0  0  0  0  0
    3.7971   -5.5826    0.9501 H   0  0  0  0  0  0  0  0  0  0  0  0
    3.8034   -5.1780   -0.8297 H   0  0  0  0  0  0  0  0  0  0  0  0
    0.9264  -10.1207   -0.4778 H   0  0  0  0  0  0  0  0  0  0  0  0
    0.1442  -10.0873    1.1681 H   0  0  0  0  0  0  0  0  0  0  0  0
    1.8944   -9.6721    0.9769 H   0  0  0  0  0  0  0  0  0  0  0  0
   -2.6710  -10.3390    1.1816 H   0  0  0  0  0  0  0  0  0  0  0  0
   -3.8115  -10.3071   -0.2201 H   0  0  0  0  0  0  0  0  0  0  0  0
   -2.6846  -11.6950   -0.0081 H   0  0  0  0  0  0  0  0  0  0  0  0
   -7.0010   -7.2158   -2.3341 H   0  0  0  0  0  0  0  0  0  0  0  0
   -4.5641  -11.7734   -3.0763 H   0  0  0  0  0  0  0  0  0  0  0  0
   -4.3173  -10.9134   -4.6617 H   0  0  0  0  0  0  0  0  0  0  0  0
   -2.9644  -11.8340   -3.9069 H   0  0  0  0  0  0  0  0  0  0  0  0
   -8.1510  -10.2341   -4.6441 H   0  0  0  0  0  0  0  0  0  0  0  0
   -8.3487   -9.5155   -2.9970 H   0  0  0  0  0  0  0  0  0  0  0  0
   -7.9171   -8.4627   -4.4177 H   0  0  0  0  0  0  0  0  0  0  0  0
  1  2  1  0
  2  3  1  0
  3  4  2  0
  4  5  1  0
  5  6  1  0
  6  7  1  0
  4  8  1  0
  8  9  1  0
  3 10  1  0
 10 11  1  0
 11 12  1  0
 12 13  2  0
 13 14  1  0
 14 15  1  0
 15 16  1  0
 13 17  1  0
 17 18  1  0
 12 19  1  0
 19 20  1  0
 20 21  1  0
 21 22  1  0
 22 23  2  0
 23 24  1  0
 24 25  1  0
 25 26  1  0
 26 27  1  0
 25 28  1  0
 28 29  1  0
 25 30  1  0
 30 31  1  0
 23 32  1  0
 32 33  2  0
 33 34  1  0
 33 35  1  0
 35 36  1  0
 36 37  1  0
 37 38  2  0
 38 39  1  0
 39 40  1  0
 40 41  1  0
 38 42  1  0
 42 43  1  0
 37 44  1  0
 44 45  1  0
 45 46  1  0
 46 47  2  0
 47 48  1  0
 48 49  1  0
 49 50  1  0
 47 51  1  0
 51 52  1  0
 46 53  1  0
 53 54  1  0
 54 55  1  0
 55 56  2  0
 56 57  1  0
 57 58  1  0
 58 59  1  0
 56 60  1  0
 60 61  1  0
  5  1  2  0
 14 10  2  0
 31 19  2  0
 39 35  2  0
 48 44  2  0
 57 53  2  0
 30 21  2  0
 34 22  1  0
  1 62  1  0
  7 63  1  0
  7 64  1  0
  7 65  1  0
  9 66  1  0
  9 67  1  0
  9 68  1  0
 16 69  1  0
 16 70  1  0
 16 71  1  0
 18 72  1  0
 18 73  1  0
 18 74  1  0
 26 75  1  0
 26 76  1  0
 27 77  1  0
 27 78  1  0
 27 79  1  0
 28 80  1  0
 28 81  1  0
 29 82  1  0
 29 83  1  0
 29 84  1  0
 31 85  1  0
 32 86  1  0
 41 87  1  0
 41 88  1  0
 41 89  1  0
 43 90  1  0
 43 91  1  0
 43 92  1  0
 50 93  1  0
 50 94  1  0
 50 95  1  0
 52 96  1  0
 52 97  1  0
 52 98  1  0
 55 99  1  0
 59100  1  0
 59101  1  0
 59102  1  0
 61103  1  0
 61104  1  0
 61105  1  0
M  END

