
     RDKit          3D

298315  0  0  0  0  0  0  0  0999 V2000
    1.3399   -5.7785   10.0539 C   0  0  0  0  0  0  0  0  0  0  0  0
   -0.0560   -4.8460    9.8971 S   0  0  0  0  0  0  0  0  0  0  0  0
    1.6296   -6.3793    8.8309 C   0  0  0  0  0  0  0  0  0  0  0  0
    0.7244   -6.0283    7.8203 C   0  0  0  0  0  0  0  0  0  0  0  0
    0.7299   -6.4865    6.4853 C   0  0  0  0  0  0  0  0  0  0  0  0
    1.7489   -7.2843    5.9522 O   0  0  0  0  0  0  0  0  0  0  0  0
    3.1170   -6.8746    5.8556 C   0  0  0  0  0  0  0  0  0  0  0  0
    3.2838   -5.8569    4.7003 C   0  0  0  0  0  0  0  0  0  0  0  0
    2.9813   -4.4136    5.1370 C   0  0  0  0  0  0  0  0  0  0  0  0
    3.1608   -3.4379    3.9761 C   0  0  0  0  0  0  0  0  0  0  0  0
    3.9664   -8.1389    5.6110 C   0  0  0  0  0  0  0  0  0  0  0  0
    5.4203   -7.9696    6.0793 C   0  0  0  0  0  0  0  0  0  0  0  0
    6.2629   -9.1906    5.7248 C   0  0  0  0  0  0  0  0  0  0  0  0
   -0.2936   -5.1750    8.2670 C   0  0  0  0  0  0  0  0  0  0  0  0
   -1.3611   -4.7805    7.4431 C   0  0  0  0  0  0  0  0  0  0  0  0
   -2.4153   -3.9889    7.9137 O   0  0  0  0  0  0  0  0  0  0  0  0
   -2.2523   -2.6395    8.3475 C   0  0  0  0  0  0  0  0  0  0  0  0
   -2.7956   -1.6957    7.2547 C   0  0  0  0  0  0  0  0  0  0  0  0
   -2.5840   -0.2089    7.5780 C   0  0  0  0  0  0  0  0  0  0  0  0
   -3.0288    0.6735    6.4148 C   0  0  0  0  0  0  0  0  0  0  0  0
   -2.9098   -2.4597    9.7376 C   0  0  0  0  0  0  0  0  0  0  0  0
   -4.4493   -2.5302    9.7805 C   0  0  0  0  0  0  0  0  0  0  0  0
   -5.0064   -3.8922    9.3685 C   0  0  0  0  0  0  0  0  0  0  0  0
   -1.3652   -5.2644    6.1273 C   0  0  0  0  0  0  0  0  0  0  0  0
   -2.3114   -4.9570    5.1446 C   0  0  0  0  0  0  0  0  0  0  0  0
   -0.3472   -6.1077    5.6775 C   0  0  0  0  0  0  0  0  0  0  0  0
   -0.6131   -6.4851    4.0638 S   0  0  0  0  0  0  0  0  0  0  0  0
   -2.0316   -5.5689    3.9233 C   0  0  0  0  0  0  0  0  0  0  0  0
   -2.7839   -5.3725    2.6769 C   0  0  0  0  0  0  0  0  0  0  0  0
   -2.6941   -6.3744    1.3200 S   0  0  0  0  0  0  0  0  0  0  0  0
   -3.5761   -4.2673    2.3803 C   0  0  0  0  0  0  0  0  0  0  0  0
   -4.0682   -4.2919    1.0716 C   0  0  0  0  0  0  0  0  0  0  0  0
   -4.7586   -3.2437    0.4450 C   0  0  0  0  0  0  0  0  0  0  0  0
   -5.0141   -2.0426    1.1082 O   0  0  0  0  0  0  0  0  0  0  0  0
   -6.1892   -1.7994    1.8804 C   0  0  0  0  0  0  0  0  0  0  0  0
   -5.8107   -0.9986    3.1497 C   0  0  0  0  0  0  0  0  0  0  0  0
   -5.2066    0.4003    2.9083 C   0  0  0  0  0  0  0  0  0  0  0  0
   -3.7596    0.3596    2.4072 C   0  0  0  0  0  0  0  0  0  0  0  0
   -7.2467   -1.1175    0.9830 C   0  0  0  0  0  0  0  0  0  0  0  0
   -8.5035   -0.6434    1.7279 C   0  0  0  0  0  0  0  0  0  0  0  0
   -9.5764   -0.1795    0.7446 C   0  0  0  0  0  0  0  0  0  0  0  0
   -3.6943   -5.4314    0.3482 C   0  0  0  0  0  0  0  0  0  0  0  0
   -4.0142   -5.5972   -1.0150 C   0  0  0  0  0  0  0  0  0  0  0  0
   -3.6477   -6.7292   -1.7564 O   0  0  0  0  0  0  0  0  0  0  0  0
   -3.9000   -8.0811   -1.3559 C   0  0  0  0  0  0  0  0  0  0  0  0
   -2.7559   -8.9774   -1.8617 C   0  0  0  0  0  0  0  0  0  0  0  0
   -2.5660   -8.9343   -3.3885 C   0  0  0  0  0  0  0  0  0  0  0  0
   -1.3513   -9.7596   -3.8099 C   0  0  0  0  0  0  0  0  0  0  0  0
   -5.2790   -8.5542   -1.8681 C   0  0  0  0  0  0  0  0  0  0  0  0
   -6.4790   -7.8717   -1.1886 C   0  0  0  0  0  0  0  0  0  0  0  0
   -6.5760   -8.1647    0.3085 C   0  0  0  0  0  0  0  0  0  0  0  0
   -4.6921   -4.5369   -1.6395 C   0  0  0  0  0  0  0  0  0  0  0  0
   -5.0111   -4.4598   -3.0035 C   0  0  0  0  0  0  0  0  0  0  0  0
   -5.0747   -3.4065   -0.9114 C   0  0  0  0  0  0  0  0  0  0  0  0
   -5.8068   -2.3106   -1.9492 S   0  0  0  0  0  0  0  0  0  0  0  0
   -5.6591   -3.2708   -3.3305 C   0  0  0  0  0  0  0  0  0  0  0  0
   -6.0014   -2.8136   -4.6796 C   0  0  0  0  0  0  0  0  0  0  0  0
   -4.9421   -2.8439   -5.9895 S   0  0  0  0  0  0  0  0  0  0  0  0
   -5.8715   -1.8288   -6.9572 C   0  0  0  0  0  0  0  0  0  0  0  0
   -5.4579   -1.1124   -8.1522 C   0  0  0  0  0  0  0  0  0  0  0  0
   -6.1316    0.0380   -8.5012 C   0  0  0  0  0  0  0  0  0  0  0  0
   -7.3278    0.3983   -7.8652 O   0  0  0  0  0  0  0  0  0  0  0  0
   -8.0035   -0.4407   -6.8986 C   0  0  0  0  0  0  0  0  0  0  0  0
   -9.0633   -1.3090   -7.6289 C   0  0  0  0  0  0  0  0  0  0  0  0
  -10.0800   -0.5316   -8.4658 C   0  0  0  0  0  0  0  0  0  0  0  0
   -8.6269    0.4576   -5.7871 C   0  0  0  0  0  0  0  0  0  0  0  0
   -9.1571    1.8153   -6.2597 C   0  0  0  0  0  0  0  0  0  0  0  0
   -7.0013   -1.4208   -6.2656 C   0  0  0  0  0  0  0  0  0  0  0  0
   -7.0872   -1.9956   -4.9863 C   0  0  0  0  0  0  0  0  0  0  0  0
   -5.4380    0.8526   -9.3963 C   0  0  0  0  0  0  0  0  0  0  0  0
   -4.1902    0.3271   -9.7343 C   0  0  0  0  0  0  0  0  0  0  0  0
   -3.9592   -1.1305   -8.9071 S   0  0  0  0  0  0  0  0  0  0  0  0
   -3.0737    1.1213  -10.2493 C   0  0  0  0  0  0  0  0  0  0  0  0
   -2.5686    2.5501   -9.5072 S   0  0  0  0  0  0  0  0  0  0  0  0
   -1.0445    2.5526  -10.2012 C   0  0  0  0  0  0  0  0  0  0  0  0
    0.1211    3.2745   -9.7222 C   0  0  0  0  0  0  0  0  0  0  0  0
    1.3709    2.7637   -9.9956 C   0  0  0  0  0  0  0  0  0  0  0  0
    1.5443    1.7214  -10.9202 O   0  0  0  0  0  0  0  0  0  0  0  0
    0.4629    1.1323  -11.6830 C   0  0  0  0  0  0  0  0  0  0  0  0
    0.3960    1.7822  -13.0963 C   0  0  0  0  0  0  0  0  0  0  0  0
    1.7458    2.0442  -13.7704 C   0  0  0  0  0  0  0  0  0  0  0  0
    0.6857   -0.4071  -11.7456 C   0  0  0  0  0  0  0  0  0  0  0  0
    2.0983   -0.8588  -12.1275 C   0  0  0  0  0  0  0  0  0  0  0  0
   -0.8824    1.4210  -10.9926 C   0  0  0  0  0  0  0  0  0  0  0  0
   -2.0368    0.6195  -11.0306 C   0  0  0  0  0  0  0  0  0  0  0  0
    2.3764    3.2427   -9.1546 C   0  0  0  0  0  0  0  0  0  0  0  0
    1.8868    4.1145   -8.1789 C   0  0  0  0  0  0  0  0  0  0  0  0
    0.2173    4.2828   -8.3810 S   0  0  0  0  0  0  0  0  0  0  0  0
    2.5577    4.3757   -6.8993 C   0  0  0  0  0  0  0  0  0  0  0  0
    2.2642    5.6967   -5.8869 S   0  0  0  0  0  0  0  0  0  0  0  0
    3.2335    3.3945   -6.1799 C   0  0  0  0  0  0  0  0  0  0  0  0
    3.4470    3.7475   -4.8451 C   0  0  0  0  0  0  0  0  0  0  0  0
    3.9852    2.9055   -3.8604 C   0  0  0  0  0  0  0  0  0  0  0  0
    4.2974    1.5652   -4.1298 O   0  0  0  0  0  0  0  0  0  0  0  0
    3.4061    0.4987   -3.7811 C   0  0  0  0  0  0  0  0  0  0  0  0
    4.2157   -0.8175   -3.6902 C   0  0  0  0  0  0  0  0  0  0  0  0
    3.8003   -1.6628   -2.4723 C   0  0  0  0  0  0  0  0  0  0  0  0
    4.2785   -3.1058   -2.6027 C   0  0  0  0  0  0  0  0  0  0  0  0
    2.2760    0.4230   -4.8362 C   0  0  0  0  0  0  0  0  0  0  0  0
    1.2132   -0.6496   -4.5470 C   0  0  0  0  0  0  0  0  0  0  0  0
    0.1030   -0.6177   -5.6004 C   0  0  0  0  0  0  0  0  0  0  0  0
    2.9833    5.0262   -4.5162 C   0  0  0  0  0  0  0  0  0  0  0  0
    3.1059    5.5548   -3.2121 C   0  0  0  0  0  0  0  0  0  0  0  0
    2.7042    6.8514   -2.8692 O   0  0  0  0  0  0  0  0  0  0  0  0
    1.3924    7.3855   -3.0583 C   0  0  0  0  0  0  0  0  0  0  0  0
    1.5081    8.8539   -3.5152 C   0  0  0  0  0  0  0  0  0  0  0  0
    2.3224    9.7330   -2.5495 C   0  0  0  0  0  0  0  0  0  0  0  0
    2.5188   11.1378   -3.1136 C   0  0  0  0  0  0  0  0  0  0  0  0
    0.5758    7.2456   -1.7585 C   0  0  0  0  0  0  0  0  0  0  0  0
    0.1022    5.8024   -1.5306 C   0  0  0  0  0  0  0  0  0  0  0  0
   -0.7245    5.6875   -0.2512 C   0  0  0  0  0  0  0  0  0  0  0  0
    3.7070    4.7307   -2.2460 C   0  0  0  0  0  0  0  0  0  0  0  0
    3.9096    5.0545   -0.8954 C   0  0  0  0  0  0  0  0  0  0  0  0
    4.1403    3.4448   -2.5784 C   0  0  0  0  0  0  0  0  0  0  0  0
    4.8111    2.7164   -1.2233 S   0  0  0  0  0  0  0  0  0  0  0  0
    4.5326    4.0264   -0.1941 C   0  0  0  0  0  0  0  0  0  0  0  0
    4.8855    4.0523    1.2237 C   0  0  0  0  0  0  0  0  0  0  0  0
    3.8063    4.3073    2.4938 S   0  0  0  0  0  0  0  0  0  0  0  0
    6.1143    3.6693    1.7405 C   0  0  0  0  0  0  0  0  0  0  0  0
    6.1198    3.6190    3.1399 C   0  0  0  0  0  0  0  0  0  0  0  0
    7.1975    3.1647    3.9129 C   0  0  0  0  0  0  0  0  0  0  0  0
    8.4219    2.8588    3.3028 O   0  0  0  0  0  0  0  0  0  0  0  0
    9.0124    1.5562    3.2863 C   0  0  0  0  0  0  0  0  0  0  0  0
   10.4651    1.7319    2.7984 C   0  0  0  0  0  0  0  0  0  0  0  0
   11.3097    0.4592    2.9251 C   0  0  0  0  0  0  0  0  0  0  0  0
   12.7983    0.7604    2.7530 C   0  0  0  0  0  0  0  0  0  0  0  0
    8.1763    0.6171    2.3757 C   0  0  0  0  0  0  0  0  0  0  0  0
    8.0889   -0.8203    2.9171 C   0  0  0  0  0  0  0  0  0  0  0  0
    7.1365   -1.6678    2.0754 C   0  0  0  0  0  0  0  0  0  0  0  0
    4.8969    3.9564    3.7350 C   0  0  0  0  0  0  0  0  0  0  0  0
    4.6780    3.8247    5.1277 C   0  0  0  0  0  0  0  0  0  0  0  0
    3.4524    4.0902    5.7629 O   0  0  0  0  0  0  0  0  0  0  0  0
    2.6191    5.2309    5.5353 C   0  0  0  0  0  0  0  0  0  0  0  0
    3.1943    6.4799    6.2417 C   0  0  0  0  0  0  0  0  0  0  0  0
    3.5135    6.2547    7.7291 C   0  0  0  0  0  0  0  0  0  0  0  0
    3.9846    7.5430    8.3987 C   0  0  0  0  0  0  0  0  0  0  0  0
    1.1828    4.8705    5.9642 C   0  0  0  0  0  0  0  0  0  0  0  0
    0.1561    5.9769    5.6605 C   0  0  0  0  0  0  0  0  0  0  0  0
   -1.2607    5.4138    5.6098 C   0  0  0  0  0  0  0  0  0  0  0  0
    5.7575    3.3346    5.8894 C   0  0  0  0  0  0  0  0  0  0  0  0
    5.7420    3.0865    7.2690 C   0  0  0  0  0  0  0  0  0  0  0  0
    6.9847    3.0387    5.2928 C   0  0  0  0  0  0  0  0  0  0  0  0
    8.0605    2.5326    6.4824 S   0  0  0  0  0  0  0  0  0  0  0  0
    6.9676    2.6479    7.7600 C   0  0  0  0  0  0  0  0  0  0  0  0
    1.9009   -5.9170   10.9681 H   0  0  0  0  0  0  0  0  0  0  0  0
    2.4477   -7.0768    8.7072 H   0  0  0  0  0  0  0  0  0  0  0  0
    3.4474   -6.4089    6.8091 H   0  0  0  0  0  0  0  0  0  0  0  0
    4.3260   -5.8777    4.3181 H   0  0  0  0  0  0  0  0  0  0  0  0
    2.6160   -6.1428    3.8574 H   0  0  0  0  0  0  0  0  0  0  0  0
    3.6700   -4.1219    5.9597 H   0  0  0  0  0  0  0  0  0  0  0  0
    1.9391   -4.3285    5.5063 H   0  0  0  0  0  0  0  0  0  0  0  0
    2.4558   -3.6844    3.1531 H   0  0  0  0  0  0  0  0  0  0  0  0
    4.2048   -3.4770    3.5946 H   0  0  0  0  0  0  0  0  0  0  0  0
    2.9461   -2.4040    4.3266 H   0  0  0  0  0  0  0  0  0  0  0  0
    3.5249   -8.9878    6.1775 H   0  0  0  0  0  0  0  0  0  0  0  0
    3.9396   -8.4121    4.5327 H   0  0  0  0  0  0  0  0  0  0  0  0
    5.8822   -7.0740    5.6156 H   0  0  0  0  0  0  0  0  0  0  0  0
    5.4340   -7.8360    7.1804 H   0  0  0  0  0  0  0  0  0  0  0  0
    5.8191  -10.1100    6.1627 H   0  0  0  0  0  0  0  0  0  0  0  0
    6.3293   -9.3033    4.6222 H   0  0  0  0  0  0  0  0  0  0  0  0
    7.2889   -9.0644    6.1306 H   0  0  0  0  0  0  0  0  0  0  0  0
   -1.1681   -2.4230    8.4721 H   0  0  0  0  0  0  0  0  0  0  0  0
   -3.8734   -1.8959    7.0746 H   0  0  0  0  0  0  0  0  0  0  0  0
   -2.2617   -1.9302    6.3082 H   0  0  0  0  0  0  0  0  0  0  0  0
   -3.1762    0.0740    8.4741 H   0  0  0  0  0  0  0  0  0  0  0  0
   -1.5090   -0.0187    7.7854 H   0  0  0  0  0  0  0  0  0  0  0  0
   -2.4289    0.4493    5.5063 H   0  0  0  0  0  0  0  0  0  0  0  0
   -2.8845    1.7418    6.6817 H   0  0  0  0  0  0  0  0  0  0  0  0
   -4.1052    0.5057    6.1946 H   0  0  0  0  0  0  0  0  0  0  0  0
   -2.5023   -3.2296   10.4284 H   0  0  0  0  0  0  0  0  0  0  0  0
   -2.5939   -1.4826   10.1630 H   0  0  0  0  0  0  0  0  0  0  0  0
   -4.7689   -2.3297   10.8281 H   0  0  0  0  0  0  0  0  0  0  0  0
   -4.8970   -1.7321    9.1534 H   0  0  0  0  0  0  0  0  0  0  0  0
   -6.0828   -3.9483    9.6361 H   0  0  0  0  0  0  0  0  0  0  0  0
   -4.9201   -4.0320    8.2730 H   0  0  0  0  0  0  0  0  0  0  0  0
   -4.4687   -4.7093    9.8960 H   0  0  0  0  0  0  0  0  0  0  0  0
   -3.1582   -4.3054    5.3077 H   0  0  0  0  0  0  0  0  0  0  0  0
   -3.7311   -3.4469    3.0656 H   0  0  0  0  0  0  0  0  0  0  0  0
   -6.6075   -2.7731    2.2243 H   0  0  0  0  0  0  0  0  0  0  0  0
   -6.7141   -0.8868    3.7858 H   0  0  0  0  0  0  0  0  0  0  0  0
   -5.1004   -1.6026    3.7545 H   0  0  0  0  0  0  0  0  0  0  0  0
   -5.2160    0.9395    3.8776 H   0  0  0  0  0  0  0  0  0  0  0  0
   -5.8297    0.9866    2.2029 H   0  0  0  0  0  0  0  0  0  0  0  0
   -3.1505   -0.3499    3.0116 H   0  0  0  0  0  0  0  0  0  0  0  0
   -3.3049    1.3704    2.4994 H   0  0  0  0  0  0  0  0  0  0  0  0
   -3.7174    0.0673    1.3376 H   0  0  0  0  0  0  0  0  0  0  0  0
   -7.5624   -1.8546    0.2149 H   0  0  0  0  0  0  0  0  0  0  0  0
   -6.7867   -0.2571    0.4457 H   0  0  0  0  0  0  0  0  0  0  0  0
   -8.2521    0.2110    2.3911 H   0  0  0  0  0  0  0  0  0  0  0  0
   -8.9121   -1.4714    2.3471 H   0  0  0  0  0  0  0  0  0  0  0  0
  -10.4448    0.2288    1.3041 H   0  0  0  0  0  0  0  0  0  0  0  0
   -9.9258   -1.0313    0.1230 H   0  0  0  0  0  0  0  0  0  0  0  0
   -9.1740    0.6177    0.0802 H   0  0  0  0  0  0  0  0  0  0  0  0
   -3.8881   -8.1758   -0.2534 H   0  0  0  0  0  0  0  0  0  0  0  0
   -1.8160   -8.6372   -1.3726 H   0  0  0  0  0  0  0  0  0  0  0  0
   -2.9364  -10.0250   -1.5395 H   0  0  0  0  0  0  0  0  0  0  0  0
   -3.4639   -9.3487   -3.8964 H   0  0  0  0  0  0  0  0  0  0  0  0
   -2.4188   -7.8832   -3.7255 H   0  0  0  0  0  0  0  0  0  0  0  0
   -0.4411   -9.3988   -3.2876 H   0  0  0  0  0  0  0  0  0  0  0  0
   -1.5089  -10.8323   -3.5656 H   0  0  0  0  0  0  0  0  0  0  0  0
   -1.1936   -9.6620   -4.9032 H   0  0  0  0  0  0  0  0  0  0  0  0
   -5.3724   -9.6532   -1.7301 H   0  0  0  0  0  0  0  0  0  0  0  0
   -5.3510   -8.3474   -2.9572 H   0  0  0  0  0  0  0  0  0  0  0  0
   -6.4516   -6.7786   -1.3569 H   0  0  0  0  0  0  0  0  0  0  0  0
   -7.4045   -8.2509   -1.6737 H   0  0  0  0  0  0  0  0  0  0  0  0
   -6.4311   -9.2506    0.5062 H   0  0  0  0  0  0  0  0  0  0  0  0
   -7.5819   -7.8715    0.6811 H   0  0  0  0  0  0  0  0  0  0  0  0
   -5.8216   -7.5786    0.8754 H   0  0  0  0  0  0  0  0  0  0  0  0
   -4.7631   -5.2247   -3.7279 H   0  0  0  0  0  0  0  0  0  0  0  0
   -8.5339   -2.0051   -8.3194 H   0  0  0  0  0  0  0  0  0  0  0  0
   -9.6102   -1.9424   -6.8932 H   0  0  0  0  0  0  0  0  0  0  0  0
  -10.5311   -1.2107   -9.2181 H   0  0  0  0  0  0  0  0  0  0  0  0
  -10.9006   -0.1597   -7.8215 H   0  0  0  0  0  0  0  0  0  0  0  0
   -9.6027    0.3136   -9.0021 H   0  0  0  0  0  0  0  0  0  0  0  0
   -9.4469   -0.0836   -5.2671 H   0  0  0  0  0  0  0  0  0  0  0  0
   -7.8488    0.6852   -5.0236 H   0  0  0  0  0  0  0  0  0  0  0  0
   -8.3646    2.3941   -6.7806 H   0  0  0  0  0  0  0  0  0  0  0  0
  -10.0334    1.7134   -6.9261 H   0  0  0  0  0  0  0  0  0  0  0  0
   -9.4809    2.4047   -5.3751 H   0  0  0  0  0  0  0  0  0  0  0  0
   -7.8746   -1.7708   -4.2765 H   0  0  0  0  0  0  0  0  0  0  0  0
   -5.7751    1.8386   -9.6901 H   0  0  0  0  0  0  0  0  0  0  0  0
   -0.2372    1.1654  -13.7699 H   0  0  0  0  0  0  0  0  0  0  0  0
   -0.1064    2.7733  -13.0129 H   0  0  0  0  0  0  0  0  0  0  0  0
    1.5879    2.6928  -14.6554 H   0  0  0  0  0  0  0  0  0  0  0  0
    2.2046    1.1094  -14.1335 H   0  0  0  0  0  0  0  0  0  0  0  0
    2.4465    2.5635  -13.0855 H   0  0  0  0  0  0  0  0  0  0  0  0
    0.4725   -0.8312  -10.7375 H   0  0  0  0  0  0  0  0  0  0  0  0
   -0.0278   -0.8737  -12.4588 H   0  0  0  0  0  0  0  0  0  0  0  0
    2.8813   -0.2215  -11.6662 H   0  0  0  0  0  0  0  0  0  0  0  0
    2.2554   -1.9006  -11.7751 H   0  0  0  0  0  0  0  0  0  0  0  0
    2.2207   -0.8770  -13.2282 H   0  0  0  0  0  0  0  0  0  0  0  0
   -2.0979   -0.3362  -11.5292 H   0  0  0  0  0  0  0  0  0  0  0  0
    3.3902    2.8605   -9.1682 H   0  0  0  0  0  0  0  0  0  0  0  0
    3.4822    2.4251   -6.5877 H   0  0  0  0  0  0  0  0  0  0  0  0
    2.9547    0.7270   -2.7885 H   0  0  0  0  0  0  0  0  0  0  0  0
    5.2994   -0.5904   -3.5877 H   0  0  0  0  0  0  0  0  0  0  0  0
    4.1084   -1.4049   -4.6309 H   0  0  0  0  0  0  0  0  0  0  0  0
    2.6934   -1.6628   -2.3421 H   0  0  0  0  0  0  0  0  0  0  0  0
    4.2486   -1.2199   -1.5536 H   0  0  0  0  0  0  0  0  0  0  0  0
    4.0059   -3.6755   -1.6897 H   0  0  0  0  0  0  0  0  0  0  0  0
    5.3816   -3.1385   -2.7262 H   0  0  0  0  0  0  0  0  0  0  0  0
    3.7972   -3.5881   -3.4798 H   0  0  0  0  0  0  0  0  0  0  0  0
    1.7601    1.4073   -4.8737 H   0  0  0  0  0  0  0  0  0  0  0  0
    2.7234    0.2309   -5.8383 H   0  0  0  0  0  0  0  0  0  0  0  0
    0.7647   -0.4754   -3.5456 H   0  0  0  0  0  0  0  0  0  0  0  0
    1.6734   -1.6598   -4.5611 H   0  0  0  0  0  0  0  0  0  0  0  0
   -0.6492   -1.4048   -5.3742 H   0  0  0  0  0  0  0  0  0  0  0  0
    0.5210   -0.8062   -6.6131 H   0  0  0  0  0  0  0  0  0  0  0  0
   -0.4087    0.3700   -5.5920 H   0  0  0  0  0  0  0  0  0  0  0  0
    0.8584    6.8397   -3.8638 H   0  0  0  0  0  0  0  0  0  0  0  0
    1.9974    8.8653   -4.5135 H   0  0  0  0  0  0  0  0  0  0  0  0
    0.4902    9.2873   -3.6415 H   0  0  0  0  0  0  0  0  0  0  0  0
    3.3245    9.2850   -2.3758 H   0  0  0  0  0  0  0  0  0  0  0  0
    1.7968    9.8121   -1.5750 H   0  0  0  0  0  0  0  0  0  0  0  0
    1.5381   11.6292   -3.2818 H   0  0  0  0  0  0  0  0  0  0  0  0
    3.1043   11.7494   -2.3972 H   0  0  0  0  0  0  0  0  0  0  0  0
    3.0758   11.0967   -4.0728 H   0  0  0  0  0  0  0  0  0  0  0  0
   -0.3186    7.9024   -1.8108 H   0  0  0  0  0  0  0  0  0  0  0  0
    1.1944    7.5704   -0.8923 H   0  0  0  0  0  0  0  0  0  0  0  0
   -0.5210    5.4730   -2.3907 H   0  0  0  0  0  0  0  0  0  0  0  0
    0.9734    5.1195   -1.4502 H   0  0  0  0  0  0  0  0  0  0  0  0
   -0.1048    5.9635    0.6298 H   0  0  0  0  0  0  0  0  0  0  0  0
   -1.6122    6.3522   -0.3049 H   0  0  0  0  0  0  0  0  0  0  0  0
   -1.0756    4.6393   -0.1301 H   0  0  0  0  0  0  0  0  0  0  0  0
    3.6231    6.0015   -0.4540 H   0  0  0  0  0  0  0  0  0  0  0  0
    6.9630    3.3941    1.1228 H   0  0  0  0  0  0  0  0  0  0  0  0
    9.0458    1.1625    4.3218 H   0  0  0  0  0  0  0  0  0  0  0  0
   10.4743    2.0845    1.7433 H   0  0  0  0  0  0  0  0  0  0  0  0
   10.9354    2.5309    3.4158 H   0  0  0  0  0  0  0  0  0  0  0  0
   11.1556   -0.0008    3.9233 H   0  0  0  0  0  0  0  0  0  0  0  0
   11.0114   -0.2657    2.1400 H   0  0  0  0  0  0  0  0  0  0  0  0
   13.3794   -0.1840    2.8223 H   0  0  0  0  0  0  0  0  0  0  0  0
   13.1454    1.4461    3.5559 H   0  0  0  0  0  0  0  0  0  0  0  0
   12.9898    1.2276    1.7635 H   0  0  0  0  0  0  0  0  0  0  0  0
    8.5836    0.6086    1.3403 H   0  0  0  0  0  0  0  0  0  0  0  0
    7.1371    1.0027    2.3046 H   0  0  0  0  0  0  0  0  0  0  0  0
    9.0878   -1.3002    2.9057 H   0  0  0  0  0  0  0  0  0  0  0  0
    7.7216   -0.8116    3.9674 H   0  0  0  0  0  0  0  0  0  0  0  0
    7.4069   -1.6136    0.9964 H   0  0  0  0  0  0  0  0  0  0  0  0
    6.0918   -1.3074    2.2037 H   0  0  0  0  0  0  0  0  0  0  0  0
    7.1871   -2.7301    2.4048 H   0  0  0  0  0  0  0  0  0  0  0  0
    2.5728    5.4668    4.4557 H   0  0  0  0  0  0  0  0  0  0  0  0
    2.4881    7.3297    6.1369 H   0  0  0  0  0  0  0  0  0  0  0  0
    4.1337    6.7738    5.7202 H   0  0  0  0  0  0  0  0  0  0  0  0
    2.6188    5.8858    8.2763 H   0  0  0  0  0  0  0  0  0  0  0  0
    4.3248    5.5045    7.8276 H   0  0  0  0  0  0  0  0  0  0  0  0
    4.8274    8.0005    7.8335 H   0  0  0  0  0  0  0  0  0  0  0  0
    3.1522    8.2778    8.4524 H   0  0  0  0  0  0  0  0  0  0  0  0
    4.3305    7.3227    9.4295 H   0  0  0  0  0  0  0  0  0  0  0  0
    1.1557    4.6215    7.0475 H   0  0  0  0  0  0  0  0  0  0  0  0
    0.8976    3.9451    5.4174 H   0  0  0  0  0  0  0  0  0  0  0  0
    0.3803    6.4559    4.6829 H   0  0  0  0  0  0  0  0  0  0  0  0
    0.2009    6.7536    6.4487 H   0  0  0  0  0  0  0  0  0  0  0  0
   -1.5059    4.8858    6.5557 H   0  0  0  0  0  0  0  0  0  0  0  0
   -1.3604    4.7097    4.7568 H   0  0  0  0  0  0  0  0  0  0  0  0
   -1.9838    6.2442    5.4645 H   0  0  0  0  0  0  0  0  0  0  0  0
    4.8740    3.2216    7.9009 H   0  0  0  0  0  0  0  0  0  0  0  0
    7.1811    2.3974    8.7894 H   0  0  0  0  0  0  0  0  0  0  0  0
  1  2  1  0
  1  3  2  0
  3  4  1  0
  4  5  1  0
  5  6  1  0
  6  7  1  0
  7  8  1  0
  8  9  1  0
  9 10  1  0
  7 11  1  0
 11 12  1  0
 12 13  1  0
  4 14  2  0
 14 15  1  0
 15 16  1  0
 16 17  1  0
 17 18  1  0
 18 19  1  0
 19 20  1  0
 17 21  1  0
 21 22  1  0
 22 23  1  0
 15 24  2  0
 24 25  1  0
 24 26  1  0
 26 27  1  0
 27 28  1  0
 28 29  1  0
 29 30  1  0
 29 31  2  0
 31 32  1  0
 32 33  1  0
 33 34  1  0
 34 35  1  0
 35 36  1  0
 36 37  1  0
 37 38  1  0
 35 39  1  0
 39 40  1  0
 40 41  1  0
 32 42  2  0
 42 43  1  0
 43 44  1  0
 44 45  1  0
 45 46  1  0
 46 47  1  0
 47 48  1  0
 45 49  1  0
 49 50  1  0
 50 51  1  0
 43 52  2  0
 52 53  1  0
 52 54  1  0
 54 55  1  0
 55 56  1  0
 56 57  1  0
 57 58  1  0
 58 59  1  0
 59 60  1  0
 60 61  2  0
 61 62  1  0
 62 63  1  0
 63 64  1  0
 64 65  1  0
 63 66  1  0
 66 67  1  0
 63 68  1  0
 68 69  1  0
 61 70  1  0
 70 71  2  0
 71 72  1  0
 71 73  1  0
 73 74  1  0
 74 75  1  0
 75 76  1  0
 76 77  2  0
 77 78  1  0
 78 79  1  0
 79 80  1  0
 80 81  1  0
 79 82  1  0
 82 83  1  0
 79 84  1  0
 84 85  1  0
 77 86  1  0
 86 87  2  0
 87 88  1  0
 87 89  1  0
 89 90  1  0
 89 91  2  0
 91 92  1  0
 92 93  1  0
 93 94  1  0
 94 95  1  0
 95 96  1  0
 96 97  1  0
 97 98  1  0
 95 99  1  0
 99100  1  0
100101  1  0
 92102  2  0
102103  1  0
103104  1  0
104105  1  0
105106  1  0
106107  1  0
107108  1  0
105109  1  0
109110  1  0
110111  1  0
103112  2  0
112113  1  0
112114  1  0
114115  1  0
115116  1  0
116117  1  0
117118  1  0
117119  2  0
119120  1  0
120121  1  0
121122  1  0
122123  1  0
123124  1  0
124125  1  0
125126  1  0
123127  1  0
127128  1  0
128129  1  0
120130  2  0
130131  1  0
131132  1  0
132133  1  0
133134  1  0
134135  1  0
135136  1  0
133137  1  0
137138  1  0
138139  1  0
131140  2  0
140141  1  0
140142  1  0
142143  1  0
143144  1  0
 14  2  1  0
 42 30  1  0
 69 57  2  0
 85 73  2  0
102 90  1  0
130118  1  0
 26  5  2  0
 54 33  2  0
 68 59  2  0
 84 75  2  0
114 93  2  0
142121  2  0
 28 25  2  0
 56 53  2  0
 72 60  1  0
 88 76  1  0
116113  2  0
144141  2  0
  1145  1  0
  3146  1  0
  7147  1  0
  8148  1  0
  8149  1  0
  9150  1  0
  9151  1  0
 10152  1  0
 10153  1  0
 10154  1  0
 11155  1  0
 11156  1  0
 12157  1  0
 12158  1  0
 13159  1  0
 13160  1  0
 13161  1  0
 17162  1  0
 18163  1  0
 18164  1  0
 19165  1  0
 19166  1  0
 20167  1  0
 20168  1  0
 20169  1  0
 21170  1  0
 21171  1  0
 22172  1  0
 22173  1  0
 23174  1  0
 23175  1  0
 23176  1  0
 25177  1  0
 31178  1  0
 35179  1  0
 36180  1  0
 36181  1  0
 37182  1  0
 37183  1  0
 38184  1  0
 38185  1  0
 38186  1  0
 39187  1  0
 39188  1  0
 40189  1  0
 40190  1  0
 41191  1  0
 41192  1  0
 41193  1  0
 45194  1  0
 46195  1  0
 46196  1  0
 47197  1  0
 47198  1  0
 48199  1  0
 48200  1  0
 48201  1  0
 49202  1  0
 49203  1  0
 50204  1  0
 50205  1  0
 51206  1  0
 51207  1  0
 51208  1  0
 53209  1  0
 64210  1  0
 64211  1  0
 65212  1  0
 65213  1  0
 65214  1  0
 66215  1  0
 66216  1  0
 67217  1  0
 67218  1  0
 67219  1  0
 69220  1  0
 70221  1  0
 80222  1  0
 80223  1  0
 81224  1  0
 81225  1  0
 81226  1  0
 82227  1  0
 82228  1  0
 83229  1  0
 83230  1  0
 83231  1  0
 85232  1  0
 86233  1  0
 91234  1  0
 95235  1  0
 96236  1  0
 96237  1  0
 97238  1  0
 97239  1  0
 98240  1  0
 98241  1  0
 98242  1  0
 99243  1  0
 99244  1  0
100245  1  0
100246  1  0
101247  1  0
101248  1  0
101249  1  0
105250  1  0
106251  1  0
106252  1  0
107253  1  0
107254  1  0
108255  1  0
108256  1  0
108257  1  0
109258  1  0
109259  1  0
110260  1  0
110261  1  0
111262  1  0
111263  1  0
111264  1  0
113265  1  0
119266  1  0
123267  1  0
124268  1  0
124269  1  0
125270  1  0
125271  1  0
126272  1  0
126273  1  0
126274  1  0
127275  1  0
127276  1  0
128277  1  0
128278  1  0
129279  1  0
129280  1  0
129281  1  0
133282  1  0
134283  1  0
134284  1  0
135285  1  0
135286  1  0
136287  1  0
136288  1  0
136289  1  0
137290  1  0
137291  1  0
138292  1  0
138293  1  0
139294  1  0
139295  1  0
139296  1  0
141297  1  0
144298  1  0
M  END

