
     RDKit          3D

110123  0  0  0  0  0  0  0  0999 V2000
   11.4749    1.9575    7.1197 C   0  0  0  0  0  0  0  0  0  0  0  0
    9.9230    2.6120    7.0162 S   0  0  0  0  0  0  0  0  0  0  0  0
    9.3482    1.6206    5.7763 C   0  0  0  0  0  0  0  0  0  0  0  0
   10.3880    0.7673    5.4260 C   0  0  0  0  0  0  0  0  0  0  0  0
   11.5451    0.9436    6.1775 C   0  0  0  0  0  0  0  0  0  0  0  0
   12.6533    0.1236    5.9634 O   0  0  0  0  0  0  0  0  0  0  0  0
   12.5230   -1.0636    5.1703 C   0  0  0  0  0  0  0  0  0  0  0  0
   11.5582   -0.8342    3.9866 C   0  0  0  0  0  0  0  0  0  0  0  0
   10.3474   -0.2057    4.4270 O   0  0  0  0  0  0  0  0  0  0  0  0
    7.9991    1.6736    5.1891 C   0  0  0  0  0  0  0  0  0  0  0  0
    7.4518    0.7237    3.9044 S   0  0  0  0  0  0  0  0  0  0  0  0
    5.9097    1.3803    3.8874 C   0  0  0  0  0  0  0  0  0  0  0  0
    4.8003    1.0658    3.0148 C   0  0  0  0  0  0  0  0  0  0  0  0
    3.5944    1.6949    3.1931 C   0  0  0  0  0  0  0  0  0  0  0  0
    3.4159    2.6561    4.1992 O   0  0  0  0  0  0  0  0  0  0  0  0
    4.4785    3.1359    5.0649 C   0  0  0  0  0  0  0  0  0  0  0  0
    4.7366    4.6310    4.7404 C   0  0  0  0  0  0  0  0  0  0  0  0
    5.2459    4.8641    3.3138 C   0  0  0  0  0  0  0  0  0  0  0  0
    4.0184    2.9605    6.5371 C   0  0  0  0  0  0  0  0  0  0  0  0
    2.6612    3.5947    6.8561 C   0  0  0  0  0  0  0  0  0  0  0  0
    5.7804    2.3398    4.8750 C   0  0  0  0  0  0  0  0  0  0  0  0
    6.9667    2.5143    5.6075 C   0  0  0  0  0  0  0  0  0  0  0  0
    2.6065    1.2819    2.2967 C   0  0  0  0  0  0  0  0  0  0  0  0
    3.0772    0.3205    1.3981 C   0  0  0  0  0  0  0  0  0  0  0  0
    4.7040   -0.0143    1.7360 S   0  0  0  0  0  0  0  0  0  0  0  0
    2.2957   -0.3070    0.3212 C   0  0  0  0  0  0  0  0  0  0  0  0
    0.6484   -0.0609    0.0378 S   0  0  0  0  0  0  0  0  0  0  0  0
    0.5821   -1.0796   -1.2945 C   0  0  0  0  0  0  0  0  0  0  0  0
   -0.5687   -1.4729   -2.0830 C   0  0  0  0  0  0  0  0  0  0  0  0
   -0.4365   -2.4592   -3.0280 C   0  0  0  0  0  0  0  0  0  0  0  0
    0.8012   -3.0772   -3.2600 O   0  0  0  0  0  0  0  0  0  0  0  0
    2.0573   -2.5569   -2.7577 C   0  0  0  0  0  0  0  0  0  0  0  0
    2.9418   -3.7733   -2.3796 C   0  0  0  0  0  0  0  0  0  0  0  0
    2.2825   -4.6865   -1.3419 C   0  0  0  0  0  0  0  0  0  0  0  0
    2.6850   -1.7537   -3.9303 C   0  0  0  0  0  0  0  0  0  0  0  0
    4.0286   -1.0765   -3.6372 C   0  0  0  0  0  0  0  0  0  0  0  0
    1.8274   -1.6341   -1.5456 C   0  0  0  0  0  0  0  0  0  0  0  0
    2.7981   -1.1975   -0.6277 C   0  0  0  0  0  0  0  0  0  0  0  0
   -1.6326   -2.7968   -3.6629 C   0  0  0  0  0  0  0  0  0  0  0  0
   -2.7145   -2.0481   -3.1893 C   0  0  0  0  0  0  0  0  0  0  0  0
   -2.1725   -0.9949   -1.9764 S   0  0  0  0  0  0  0  0  0  0  0  0
   -4.1159   -2.1615   -3.6288 C   0  0  0  0  0  0  0  0  0  0  0  0
   -5.4379   -1.4716   -2.8418 S   0  0  0  0  0  0  0  0  0  0  0  0
   -6.6368   -2.0094   -3.9038 C   0  0  0  0  0  0  0  0  0  0  0  0
   -5.9926   -2.7329   -4.9066 C   0  0  0  0  0  0  0  0  0  0  0  0
   -4.6073   -2.8048   -4.7605 C   0  0  0  0  0  0  0  0  0  0  0  0
   -3.8362   -3.4544   -5.7258 O   0  0  0  0  0  0  0  0  0  0  0  0
   -4.4103   -3.8078   -6.9892 C   0  0  0  0  0  0  0  0  0  0  0  0
   -5.8740   -4.2616   -6.8194 C   0  0  0  0  0  0  0  0  0  0  0  0
   -6.6033   -3.3350   -6.0064 O   0  0  0  0  0  0  0  0  0  0  0  0
   -8.0779   -1.7289   -3.7417 C   0  0  0  0  0  0  0  0  0  0  0  0
   -8.7033   -0.5575   -2.6987 S   0  0  0  0  0  0  0  0  0  0  0  0
  -10.3378   -0.8154   -3.0252 C   0  0  0  0  0  0  0  0  0  0  0  0
  -10.4076   -1.8506   -3.9510 C   0  0  0  0  0  0  0  0  0  0  0  0
   -9.1684   -2.3460   -4.3549 C   0  0  0  0  0  0  0  0  0  0  0  0
   -9.1113   -3.3869   -5.2818 O   0  0  0  0  0  0  0  0  0  0  0  0
  -10.2733   -3.7453   -6.0376 C   0  0  0  0  0  0  0  0  0  0  0  0
  -11.5425   -3.6512   -5.1676 C   0  0  0  0  0  0  0  0  0  0  0  0
  -11.5831   -2.4074   -4.4579 O   0  0  0  0  0  0  0  0  0  0  0  0
  -11.4671   -0.0944   -2.4099 C   0  0  0  0  0  0  0  0  0  0  0  0
  -13.1016   -0.2943   -2.7898 S   0  0  0  0  0  0  0  0  0  0  0  0
  -13.7189    0.8556   -1.7213 C   0  0  0  0  0  0  0  0  0  0  0  0
  -12.6358    1.4034   -1.0516 C   0  0  0  0  0  0  0  0  0  0  0  0
  -11.3982    0.8977   -1.4378 C   0  0  0  0  0  0  0  0  0  0  0  0
  -10.2301    1.3924   -0.8549 O   0  0  0  0  0  0  0  0  0  0  0  0
  -10.2712    2.5930   -0.0737 C   0  0  0  0  0  0  0  0  0  0  0  0
  -11.5722    2.6695    0.7552 C   0  0  0  0  0  0  0  0  0  0  0  0
  -12.7169    2.3791   -0.0577 O   0  0  0  0  0  0  0  0  0  0  0  0
   12.2609    2.2570    7.8002 H   0  0  0  0  0  0  0  0  0  0  0  0
   13.5226   -1.3705    4.7966 H   0  0  0  0  0  0  0  0  0  0  0  0
   12.1215   -1.8785    5.8102 H   0  0  0  0  0  0  0  0  0  0  0  0
   11.3177   -1.8015    3.4979 H   0  0  0  0  0  0  0  0  0  0  0  0
   12.0541   -0.1756    3.2418 H   0  0  0  0  0  0  0  0  0  0  0  0
    3.7930    5.2063    4.8495 H   0  0  0  0  0  0  0  0  0  0  0  0
    5.4754    5.0566    5.4538 H   0  0  0  0  0  0  0  0  0  0  0  0
    5.3364    5.9556    3.1299 H   0  0  0  0  0  0  0  0  0  0  0  0
    4.5365    4.4448    2.5687 H   0  0  0  0  0  0  0  0  0  0  0  0
    6.2480    4.4058    3.1684 H   0  0  0  0  0  0  0  0  0  0  0  0
    4.7738    3.3892    7.2318 H   0  0  0  0  0  0  0  0  0  0  0  0
    3.9423    1.8737    6.7610 H   0  0  0  0  0  0  0  0  0  0  0  0
    1.8778    3.2301    6.1605 H   0  0  0  0  0  0  0  0  0  0  0  0
    2.3619    3.3167    7.8895 H   0  0  0  0  0  0  0  0  0  0  0  0
    2.7186    4.7015    6.8069 H   0  0  0  0  0  0  0  0  0  0  0  0
    7.0698    3.2308    6.4110 H   0  0  0  0  0  0  0  0  0  0  0  0
    1.5982    1.6750    2.2980 H   0  0  0  0  0  0  0  0  0  0  0  0
    3.9211   -3.4465   -1.9766 H   0  0  0  0  0  0  0  0  0  0  0  0
    3.1468   -4.3776   -3.2909 H   0  0  0  0  0  0  0  0  0  0  0  0
    1.3222   -5.0880   -1.7269 H   0  0  0  0  0  0  0  0  0  0  0  0
    2.9538   -5.5428   -1.1240 H   0  0  0  0  0  0  0  0  0  0  0  0
    2.0973   -4.1361   -0.3955 H   0  0  0  0  0  0  0  0  0  0  0  0
    1.9676   -0.9644   -4.2490 H   0  0  0  0  0  0  0  0  0  0  0  0
    2.8205   -2.4316   -4.8017 H   0  0  0  0  0  0  0  0  0  0  0  0
    4.7841   -1.8078   -3.2857 H   0  0  0  0  0  0  0  0  0  0  0  0
    4.4113   -0.6137   -4.5705 H   0  0  0  0  0  0  0  0  0  0  0  0
    3.9070   -0.2659   -2.8913 H   0  0  0  0  0  0  0  0  0  0  0  0
    3.8344   -1.5032   -0.6623 H   0  0  0  0  0  0  0  0  0  0  0  0
   -1.6989   -3.5676   -4.4167 H   0  0  0  0  0  0  0  0  0  0  0  0
   -3.8104   -4.6180   -7.4542 H   0  0  0  0  0  0  0  0  0  0  0  0
   -4.3813   -2.9193   -7.6549 H   0  0  0  0  0  0  0  0  0  0  0  0
   -6.3642   -4.3486   -7.8110 H   0  0  0  0  0  0  0  0  0  0  0  0
   -5.8897   -5.2591   -6.3311 H   0  0  0  0  0  0  0  0  0  0  0  0
  -10.3701   -3.0468   -6.8958 H   0  0  0  0  0  0  0  0  0  0  0  0
  -10.1543   -4.7759   -6.4324 H   0  0  0  0  0  0  0  0  0  0  0  0
  -11.5370   -4.4836   -4.4326 H   0  0  0  0  0  0  0  0  0  0  0  0
  -12.4488   -3.7451   -5.8004 H   0  0  0  0  0  0  0  0  0  0  0  0
  -14.7602    1.1094   -1.5740 H   0  0  0  0  0  0  0  0  0  0  0  0
   -9.3880    2.6296    0.5980 H   0  0  0  0  0  0  0  0  0  0  0  0
  -10.2267    3.4660   -0.7605 H   0  0  0  0  0  0  0  0  0  0  0  0
  -11.5193    1.9251    1.5785 H   0  0  0  0  0  0  0  0  0  0  0  0
  -11.6813    3.6801    1.2009 H   0  0  0  0  0  0  0  0  0  0  0  0
  1  2  1  0
  2  3  1  0
  3  4  2  0
  4  5  1  0
  5  6  1  0
  6  7  1  0
  7  8  1  0
  8  9  1  0
  3 10  1  0
 10 11  1  0
 11 12  1  0
 12 13  1  0
 13 14  2  0
 14 15  1  0
 15 16  1  0
 16 17  1  0
 17 18  1  0
 16 19  1  0
 19 20  1  0
 16 21  1  0
 21 22  1  0
 14 23  1  0
 23 24  2  0
 24 25  1  0
 24 26  1  0
 26 27  1  0
 27 28  1  0
 28 29  1  0
 29 30  2  0
 30 31  1  0
 31 32  1  0
 32 33  1  0
 33 34  1  0
 32 35  1  0
 35 36  1  0
 32 37  1  0
 37 38  1  0
 30 39  1  0
 39 40  2  0
 40 41  1  0
 40 42  1  0
 42 43  1  0
 43 44  1  0
 44 45  2  0
 45 46  1  0
 46 47  1  0
 47 48  1  0
 48 49  1  0
 49 50  1  0
 44 51  1  0
 51 52  1  0
 52 53  1  0
 53 54  2  0
 54 55  1  0
 55 56  1  0
 56 57  1  0
 57 58  1  0
 58 59  1  0
 53 60  1  0
 60 61  1  0
 61 62  1  0
 62 63  2  0
 63 64  1  0
 64 65  1  0
 65 66  1  0
 66 67  1  0
 67 68  1  0
  5  1  2  0
 22 10  2  0
 38 26  2  0
 46 42  2  0
 55 51  2  0
 64 60  2  0
  9  4  1  0
 21 12  2  0
 37 28  2  0
 50 45  1  0
 59 54  1  0
 68 63  1  0
 25 13  1  0
 41 29  1  0
  1 69  1  0
  7 70  1  0
  7 71  1  0
  8 72  1  0
  8 73  1  0
 17 74  1  0
 17 75  1  0
 18 76  1  0
 18 77  1  0
 18 78  1  0
 19 79  1  0
 19 80  1  0
 20 81  1  0
 20 82  1  0
 20 83  1  0
 22 84  1  0
 23 85  1  0
 33 86  1  0
 33 87  1  0
 34 88  1  0
 34 89  1  0
 34 90  1  0
 35 91  1  0
 35 92  1  0
 36 93  1  0
 36 94  1  0
 36 95  1  0
 38 96  1  0
 39 97  1  0
 48 98  1  0
 48 99  1  0
 49100  1  0
 49101  1  0
 57102  1  0
 57103  1  0
 58104  1  0
 58105  1  0
 62106  1  0
 66107  1  0
 66108  1  0
 67109  1  0
 67110  1  0
M  END

