
     RDKit          3D

152166  0  0  0  0  0  0  0  0999 V2000
   -1.5819    7.7908    3.7686 C   0  0  0  0  0  0  0  0  0  0  0  0
   -1.4307    8.1634    5.4046 S   0  0  0  0  0  0  0  0  0  0  0  0
   -0.4759    6.8444    5.8295 C   0  0  0  0  0  0  0  0  0  0  0  0
   -0.2552    6.0868    4.6794 C   0  0  0  0  0  0  0  0  0  0  0  0
   -0.8670    6.6216    3.5446 C   0  0  0  0  0  0  0  0  0  0  0  0
   -0.6894    5.9523    2.2139 C   0  0  0  0  0  0  0  0  0  0  0  0
   -0.8210    4.4214    2.3775 C   0  0  2  0  0  0  0  0  0  0  0  0
   -2.5936    3.9958    2.5198 S   0  0  0  0  0  0  0  0  0  0  0  0
   -0.0108    3.8349    3.5825 C   0  0  0  0  0  0  0  0  0  0  0  0
    0.6138    4.8729    4.5488 C   0  0  0  0  0  0  0  0  0  0  0  0
    0.0516    6.5979    7.1791 C   0  0  0  0  0  0  0  0  0  0  0  0
   -0.2999    5.5743    7.9688 C   0  0  0  0  0  0  0  0  0  0  0  0
   -1.3617    4.5812    7.6950 C   0  0  0  0  0  0  0  0  0  0  0  0
   -2.5846    4.6795    6.5300 S   0  0  0  0  0  0  0  0  0  0  0  0
   -3.2973    3.2206    6.9262 C   0  0  0  0  0  0  0  0  0  0  0  0
   -4.3594    2.5271    6.2425 C   0  0  0  0  0  0  0  0  0  0  0  0
   -4.6721    1.2390    6.5939 C   0  0  0  0  0  0  0  0  0  0  0  0
   -4.0626    0.6240    7.6959 O   0  0  0  0  0  0  0  0  0  0  0  0
   -3.0447    1.2529    8.5276 C   0  0  0  0  0  0  0  0  0  0  0  0
   -1.7892    0.3266    8.5865 C   0  0  0  0  0  0  0  0  0  0  0  0
   -2.0866   -1.1624    8.3523 C   0  0  0  0  0  0  0  0  0  0  0  0
   -3.6434    1.5129    9.9371 C   0  0  0  0  0  0  0  0  0  0  0  0
   -4.2289    0.2694   10.6184 C   0  0  0  0  0  0  0  0  0  0  0  0
   -2.6163    2.6210    7.9679 C   0  0  0  0  0  0  0  0  0  0  0  0
   -1.5330    3.4002    8.4214 C   0  0  0  0  0  0  0  0  0  0  0  0
   -5.5502    0.6062    5.7039 C   0  0  0  0  0  0  0  0  0  0  0  0
   -5.9167    1.4338    4.6359 C   0  0  0  0  0  0  0  0  0  0  0  0
   -5.1113    2.9162    4.8100 S   0  0  0  0  0  0  0  0  0  0  0  0
   -6.5298    0.9768    3.3758 C   0  0  0  0  0  0  0  0  0  0  0  0
   -6.1421   -0.4885    2.6599 S   0  0  0  0  0  0  0  0  0  0  0  0
   -6.8221   -0.1808    1.1464 C   0  0  0  0  0  0  0  0  0  0  0  0
   -7.3671    1.1125    1.1823 C   0  0  0  0  0  0  0  0  0  0  0  0
   -7.2183    1.7534    2.4306 C   0  0  0  0  0  0  0  0  0  0  0  0
   -7.7404    3.1518    2.6975 C   0  0  0  0  0  0  0  0  0  0  0  0
   -8.3332    3.8796    1.4616 C   0  0  2  0  0  0  0  0  0  0  0  0
  -10.1672    3.8789    1.5002 S   0  0  0  0  0  0  0  0  0  0  0  0
   -7.8061    3.3195    0.1272 C   0  0  0  0  0  0  0  0  0  0  0  0
   -8.0226    1.8103    0.0196 C   0  0  0  0  0  0  0  0  0  0  0  0
   -6.5958   -0.9997   -0.0710 C   0  0  0  0  0  0  0  0  0  0  0  0
   -5.8467   -2.1097   -0.0506 C   0  0  0  0  0  0  0  0  0  0  0  0
   -5.2230   -2.6786   -1.2588 C   0  0  0  0  0  0  0  0  0  0  0  0
   -3.8881   -3.7079   -1.1947 S   0  0  0  0  0  0  0  0  0  0  0  0
   -3.5154   -3.6009   -2.8251 C   0  0  0  0  0  0  0  0  0  0  0  0
   -2.3144   -4.0418   -3.5012 C   0  0  0  0  0  0  0  0  0  0  0  0
   -2.0191   -3.5493   -4.7499 C   0  0  0  0  0  0  0  0  0  0  0  0
   -2.9284   -2.7390   -5.4494 O   0  0  0  0  0  0  0  0  0  0  0  0
   -4.2196   -2.3367   -4.9243 C   0  0  0  0  0  0  0  0  0  0  0  0
   -5.3239   -3.0123   -5.7725 C   0  0  0  0  0  0  0  0  0  0  0  0
   -5.2376   -4.5410   -5.7802 C   0  0  0  0  0  0  0  0  0  0  0  0
   -4.3348   -0.8013   -5.0964 C   0  0  0  0  0  0  0  0  0  0  0  0
   -3.2473   -0.0256   -4.3445 C   0  0  0  0  0  0  0  0  0  0  0  0
   -4.3945   -2.7321   -3.4495 C   0  0  0  0  0  0  0  0  0  0  0  0
   -5.3804   -2.2384   -2.5759 C   0  0  0  0  0  0  0  0  0  0  0  0
   -0.7315   -3.8671   -5.1945 C   0  0  0  0  0  0  0  0  0  0  0  0
   -0.0173   -4.6168   -4.2583 C   0  0  0  0  0  0  0  0  0  0  0  0
   -0.9873   -4.8726   -2.8945 S   0  0  0  0  0  0  0  0  0  0  0  0
    1.4157   -4.9304   -4.3317 C   0  0  0  0  0  0  0  0  0  0  0  0
    2.5539   -3.9885   -5.1449 S   0  0  0  0  0  0  0  0  0  0  0  0
    3.8808   -4.8482   -4.5775 C   0  0  0  0  0  0  0  0  0  0  0  0
    5.2844   -4.4813   -4.6490 C   0  0  0  0  0  0  0  0  0  0  0  0
    6.1798   -5.0738   -3.7938 C   0  0  0  0  0  0  0  0  0  0  0  0
    5.7822   -6.1290   -2.9563 O   0  0  0  0  0  0  0  0  0  0  0  0
    4.5055   -6.8084   -3.0860 C   0  0  0  0  0  0  0  0  0  0  0  0
    4.0471   -7.2210   -1.6640 C   0  0  0  0  0  0  0  0  0  0  0  0
    5.0449   -8.1235   -0.9300 C   0  0  0  0  0  0  0  0  0  0  0  0
    4.7370   -8.0269   -4.0261 C   0  0  0  0  0  0  0  0  0  0  0  0
    3.5113   -8.9114   -4.2644 C   0  0  0  0  0  0  0  0  0  0  0  0
    3.4719   -5.8642   -3.7284 C   0  0  0  0  0  0  0  0  0  0  0  0
    2.0718   -5.9109   -3.5917 C   0  0  0  0  0  0  0  0  0  0  0  0
    7.4435   -4.4759   -3.7891 C   0  0  0  0  0  0  0  0  0  0  0  0
    7.5191   -3.3760   -4.6548 C   0  0  0  0  0  0  0  0  0  0  0  0
    6.0086   -3.1749   -5.4018 S   0  0  0  0  0  0  0  0  0  0  0  0
    8.7033   -2.4976   -4.8030 C   0  0  0  0  0  0  0  0  0  0  0  0
   10.0952   -2.6598   -3.8701 S   0  0  0  0  0  0  0  0  0  0  0  0
   10.9745   -1.4038   -4.5647 C   0  0  0  0  0  0  0  0  0  0  0  0
   10.1883   -0.8386   -5.5695 C   0  0  0  0  0  0  0  0  0  0  0  0
    8.8990   -1.4124   -5.6758 C   0  0  0  0  0  0  0  0  0  0  0  0
    7.8934   -0.9305   -6.6957 C   0  0  0  0  0  0  0  0  0  0  0  0
    8.2852    0.4181   -7.3323 C   0  0  2  0  0  0  0  0  0  0  0  0
    7.2840    0.7093   -8.8326 S   0  0  0  0  0  0  0  0  0  0  0  0
    9.7740    0.4489   -7.6901 C   0  0  0  0  0  0  0  0  0  0  0  0
   10.6359    0.3142   -6.4295 C   0  0  0  0  0  0  0  0  0  0  0  0
   12.3160   -0.9471   -4.1536 C   0  0  0  0  0  0  0  0  0  0  0  0
   13.0263   -1.5641   -3.2011 C   0  0  0  0  0  0  0  0  0  0  0  0
   -2.1370    8.3481    3.0317 H   0  0  0  0  0  0  0  0  0  0  0  0
    0.3310    6.1951    1.8292 H   0  0  0  0  0  0  0  0  0  0  0  0
   -1.4322    6.3356    1.4792 H   0  0  0  0  0  0  0  0  0  0  0  0
   -0.4516    3.9464    1.4432 H   0  0  0  0  0  0  0  0  0  0  0  0
   -2.3513    2.6191    2.3978 H   0  0  0  0  0  0  0  0  0  0  0  0
   -0.6547    3.1534    4.1837 H   0  0  0  0  0  0  0  0  0  0  0  0
    0.8164    3.2029    3.1885 H   0  0  0  0  0  0  0  0  0  0  0  0
    0.8075    4.4076    5.5341 H   0  0  0  0  0  0  0  0  0  0  0  0
    1.5898    5.2039    4.1345 H   0  0  0  0  0  0  0  0  0  0  0  0
    0.7928    7.2940    7.5469 H   0  0  0  0  0  0  0  0  0  0  0  0
    0.2233    5.4773    8.9128 H   0  0  0  0  0  0  0  0  0  0  0  0
   -1.0623    0.6242    7.7970 H   0  0  0  0  0  0  0  0  0  0  0  0
   -1.2639    0.4549    9.5634 H   0  0  0  0  0  0  0  0  0  0  0  0
   -1.1803   -1.7551    8.5924 H   0  0  0  0  0  0  0  0  0  0  0  0
   -2.9252   -1.5224    8.9754 H   0  0  0  0  0  0  0  0  0  0  0  0
   -2.3434   -1.3306    7.2850 H   0  0  0  0  0  0  0  0  0  0  0  0
   -4.4608    2.2616    9.8487 H   0  0  0  0  0  0  0  0  0  0  0  0
   -2.8686    1.9473   10.6099 H   0  0  0  0  0  0  0  0  0  0  0  0
   -4.7520    0.5680   11.5484 H   0  0  0  0  0  0  0  0  0  0  0  0
   -4.9617   -0.2392    9.9562 H   0  0  0  0  0  0  0  0  0  0  0  0
   -3.4220   -0.4350   10.9037 H   0  0  0  0  0  0  0  0  0  0  0  0
   -0.8889    3.1019    9.2411 H   0  0  0  0  0  0  0  0  0  0  0  0
   -5.8456   -0.4355    5.7954 H   0  0  0  0  0  0  0  0  0  0  0  0
   -6.9112    3.7861    3.0789 H   0  0  0  0  0  0  0  0  0  0  0  0
   -8.5004    3.0914    3.5138 H   0  0  0  0  0  0  0  0  0  0  0  0
   -8.0189    4.9522    1.5146 H   0  0  0  0  0  0  0  0  0  0  0  0
  -10.2618    4.9288    0.5645 H   0  0  0  0  0  0  0  0  0  0  0  0
   -8.2998    3.8339   -0.7240 H   0  0  0  0  0  0  0  0  0  0  0  0
   -6.7182    3.5339    0.0664 H   0  0  0  0  0  0  0  0  0  0  0  0
   -7.5903    1.4816   -0.9479 H   0  0  0  0  0  0  0  0  0  0  0  0
   -9.1098    1.5705    0.0156 H   0  0  0  0  0  0  0  0  0  0  0  0
   -6.9261   -0.6063   -1.0226 H   0  0  0  0  0  0  0  0  0  0  0  0
   -5.5329   -2.5280    0.8906 H   0  0  0  0  0  0  0  0  0  0  0  0
   -5.2487   -2.6678   -6.8278 H   0  0  0  0  0  0  0  0  0  0  0  0
   -6.3262   -2.7125   -5.3942 H   0  0  0  0  0  0  0  0  0  0  0  0
   -6.0708   -4.9549   -6.3874 H   0  0  0  0  0  0  0  0  0  0  0  0
   -5.3137   -4.9513   -4.7471 H   0  0  0  0  0  0  0  0  0  0  0  0
   -4.2789   -4.8697   -6.2363 H   0  0  0  0  0  0  0  0  0  0  0  0
   -5.3315   -0.4431   -4.7578 H   0  0  0  0  0  0  0  0  0  0  0  0
   -4.2510   -0.5429   -6.1745 H   0  0  0  0  0  0  0  0  0  0  0  0
   -2.2388   -0.2928   -4.7311 H   0  0  0  0  0  0  0  0  0  0  0  0
   -3.4038    1.0630   -4.5035 H   0  0  0  0  0  0  0  0  0  0  0  0
   -3.2947   -0.2316   -3.2499 H   0  0  0  0  0  0  0  0  0  0  0  0
   -6.1360   -1.5318   -2.8934 H   0  0  0  0  0  0  0  0  0  0  0  0
   -0.3257   -3.5246   -6.1415 H   0  0  0  0  0  0  0  0  0  0  0  0
    3.9117   -6.2988   -1.0577 H   0  0  0  0  0  0  0  0  0  0  0  0
    3.0661   -7.7436   -1.6868 H   0  0  0  0  0  0  0  0  0  0  0  0
    4.7317   -8.2300    0.1308 H   0  0  0  0  0  0  0  0  0  0  0  0
    5.0593   -9.1347   -1.3831 H   0  0  0  0  0  0  0  0  0  0  0  0
    6.0688   -7.6946   -0.9474 H   0  0  0  0  0  0  0  0  0  0  0  0
    5.0885   -7.6548   -5.0095 H   0  0  0  0  0  0  0  0  0  0  0  0
    5.5587   -8.6574   -3.6207 H   0  0  0  0  0  0  0  0  0  0  0  0
    2.6917   -8.3397   -4.7485 H   0  0  0  0  0  0  0  0  0  0  0  0
    3.1466   -9.3595   -3.3193 H   0  0  0  0  0  0  0  0  0  0  0  0
    3.7938   -9.7409   -4.9505 H   0  0  0  0  0  0  0  0  0  0  0  0
    1.5469   -6.6202   -2.9669 H   0  0  0  0  0  0  0  0  0  0  0  0
    8.2499   -4.8104   -3.1511 H   0  0  0  0  0  0  0  0  0  0  0  0
    6.9143   -0.7769   -6.2033 H   0  0  0  0  0  0  0  0  0  0  0  0
    7.7935   -1.7078   -7.4831 H   0  0  0  0  0  0  0  0  0  0  0  0
    8.0752    1.2375   -6.6066 H   0  0  0  0  0  0  0  0  0  0  0  0
    6.0794    0.7691   -8.1093 H   0  0  0  0  0  0  0  0  0  0  0  0
   10.0097    1.4102   -8.1869 H   0  0  0  0  0  0  0  0  0  0  0  0
   10.0123   -0.3785   -8.3979 H   0  0  0  0  0  0  0  0  0  0  0  0
   10.5690    1.2499   -5.8324 H   0  0  0  0  0  0  0  0  0  0  0  0
   11.6887    0.1713   -6.7418 H   0  0  0  0  0  0  0  0  0  0  0  0
   12.7496   -0.0752   -4.6248 H   0  0  0  0  0  0  0  0  0  0  0  0
   14.0045   -1.1849   -2.9317 H   0  0  0  0  0  0  0  0  0  0  0  0
   12.6471   -2.4416   -2.6911 H   0  0  0  0  0  0  0  0  0  0  0  0
  1  2  1  0
  2  3  1  0
  3  4  2  0
  4  5  1  0
  5  6  1  0
  6  7  1  0
  7  8  1  0
  7  9  1  0
  9 10  1  0
  3 11  1  0
 11 12  2  3
 12 13  1  0
 13 14  1  0
 14 15  1  0
 15 16  1  0
 16 17  2  0
 17 18  1  0
 18 19  1  0
 19 20  1  0
 20 21  1  0
 19 22  1  0
 22 23  1  0
 19 24  1  0
 24 25  1  0
 17 26  1  0
 26 27  2  0
 27 28  1  0
 27 29  1  0
 29 30  1  0
 30 31  1  0
 31 32  2  0
 32 33  1  0
 33 34  1  0
 34 35  1  0
 35 36  1  0
 35 37  1  0
 37 38  1  0
 31 39  1  0
 39 40  2  3
 40 41  1  0
 41 42  1  0
 42 43  1  0
 43 44  1  0
 44 45  2  0
 45 46  1  0
 46 47  1  0
 47 48  1  0
 48 49  1  0
 47 50  1  0
 50 51  1  0
 47 52  1  0
 52 53  1  0
 45 54  1  0
 54 55  2  0
 55 56  1  0
 55 57  1  0
 57 58  1  0
 58 59  1  0
 59 60  1  0
 60 61  2  0
 61 62  1  0
 62 63  1  0
 63 64  1  0
 64 65  1  0
 63 66  1  0
 66 67  1  0
 63 68  1  0
 68 69  1  0
 61 70  1  0
 70 71  2  0
 71 72  1  0
 71 73  1  0
 73 74  1  0
 74 75  1  0
 75 76  2  0
 76 77  1  0
 77 78  1  0
 78 79  1  0
 79 80  1  0
 79 81  1  0
 81 82  1  0
 75 83  1  0
 83 84  2  3
  5  1  2  0
 25 13  2  0
 33 29  2  0
 53 41  2  0
 69 57  2  0
 77 73  2  0
 10  4  1  0
 24 15  2  0
 38 32  1  0
 52 43  2  0
 68 59  2  0
 82 76  1  0
 28 16  1  0
 56 44  1  0
 72 60  1  0
  1 85  1  0
  6 86  1  0
  6 87  1  0
  7 88  1  6
  8 89  1  0
  9 90  1  0
  9 91  1  0
 10 92  1  0
 10 93  1  0
 11 94  1  0
 12 95  1  0
 20 96  1  0
 20 97  1  0
 21 98  1  0
 21 99  1  0
 21100  1  0
 22101  1  0
 22102  1  0
 23103  1  0
 23104  1  0
 23105  1  0
 25106  1  0
 26107  1  0
 34108  1  0
 34109  1  0
 35110  1  1
 36111  1  0
 37112  1  0
 37113  1  0
 38114  1  0
 38115  1  0
 39116  1  0
 40117  1  0
 48118  1  0
 48119  1  0
 49120  1  0
 49121  1  0
 49122  1  0
 50123  1  0
 50124  1  0
 51125  1  0
 51126  1  0
 51127  1  0
 53128  1  0
 54129  1  0
 64130  1  0
 64131  1  0
 65132  1  0
 65133  1  0
 65134  1  0
 66135  1  0
 66136  1  0
 67137  1  0
 67138  1  0
 67139  1  0
 69140  1  0
 70141  1  0
 78142  1  0
 78143  1  0
 79144  1  1
 80145  1  0
 81146  1  0
 81147  1  0
 82148  1  0
 82149  1  0
 83150  1  0
 84151  1  0
 84152  1  0
M  END

