
     RDKit          3D

 90102  0  0  0  0  0  0  0  0999 V2000
   -8.6211    0.7604   -6.7138 C   0  0  0  0  0  0  0  0  0  0  0  0
   -7.3692    1.8737   -6.5773 S   0  0  0  0  0  0  0  0  0  0  0  0
   -6.0878    0.7890   -6.7360 C   0  0  0  0  0  0  0  0  0  0  0  0
   -6.6371   -0.4874   -6.9266 C   0  0  0  0  0  0  0  0  0  0  0  0
   -8.0410   -0.4836   -6.9024 C   0  0  0  0  0  0  0  0  0  0  0  0
   -8.7500   -1.6272   -7.0647 N   0  0  0  0  0  0  0  0  0  0  0  0
   -8.1007   -2.8032   -7.2735 C   0  0  0  0  0  0  0  0  0  0  0  0
   -6.7395   -2.8320   -7.3365 N   0  0  0  0  0  0  0  0  0  0  0  0
   -5.9845   -1.7083   -7.1743 C   0  0  0  0  0  0  0  0  0  0  0  0
   -4.5620   -1.8112   -7.3629 C   0  0  0  0  0  0  0  0  0  0  0  0
   -3.4209   -1.9077   -7.5251 N   0  0  0  0  0  0  0  0  0  0  0  0
   -4.6762    1.1675   -6.5678 C   0  0  0  0  0  0  0  0  0  0  0  0
   -3.6515    0.5893   -5.3650 S   0  0  0  0  0  0  0  0  0  0  0  0
   -2.3467    1.6102   -5.6812 C   0  0  0  0  0  0  0  0  0  0  0  0
   -2.7095    2.4477   -6.7507 C   0  0  0  0  0  0  0  0  0  0  0  0
   -4.0173    2.2081   -7.2085 C   0  0  0  0  0  0  0  0  0  0  0  0
   -4.5584    2.9499   -8.2068 N   0  0  0  0  0  0  0  0  0  0  0  0
   -3.8235    3.9340   -8.7939 C   0  0  0  0  0  0  0  0  0  0  0  0
   -2.5337    4.1477   -8.4105 N   0  0  0  0  0  0  0  0  0  0  0  0
   -1.9488    3.4304   -7.4097 C   0  0  0  0  0  0  0  0  0  0  0  0
   -0.5487    3.6468   -7.1461 C   0  0  0  0  0  0  0  0  0  0  0  0
    0.5778    3.8219   -6.9469 N   0  0  0  0  0  0  0  0  0  0  0  0
   -1.1730    1.6880   -4.7975 C   0  0  0  0  0  0  0  0  0  0  0  0
   -0.4308    0.3471   -4.0853 S   0  0  0  0  0  0  0  0  0  0  0  0
    0.5361    1.2446   -3.0521 C   0  0  0  0  0  0  0  0  0  0  0  0
    1.3813    0.7750   -1.9776 C   0  0  0  0  0  0  0  0  0  0  0  0
    1.9359    1.6737   -1.1027 C   0  0  0  0  0  0  0  0  0  0  0  0
    1.7878    3.0555   -1.2918 O   0  0  0  0  0  0  0  0  0  0  0  0
    0.9343    3.6529   -2.3039 C   0  0  0  0  0  0  0  0  0  0  0  0
    1.8080    4.5616   -3.2087 C   0  0  0  0  0  0  0  0  0  0  0  0
    2.6369    5.5982   -2.4454 C   0  0  0  0  0  0  0  0  0  0  0  0
   -0.1564    4.4846   -1.5750 C   0  0  0  0  0  0  0  0  0  0  0  0
   -1.1229    3.6248   -0.7528 C   0  0  0  0  0  0  0  0  0  0  0  0
    0.2778    2.5955   -3.2056 C   0  0  0  0  0  0  0  0  0  0  0  0
   -0.6958    2.8475   -4.1875 C   0  0  0  0  0  0  0  0  0  0  0  0
    2.5832    1.0771   -0.0152 C   0  0  0  0  0  0  0  0  0  0  0  0
    2.5115   -0.3185   -0.0547 C   0  0  0  0  0  0  0  0  0  0  0  0
    1.6455   -0.7861   -1.4335 S   0  0  0  0  0  0  0  0  0  0  0  0
    2.9260   -1.2276    1.0286 C   0  0  0  0  0  0  0  0  0  0  0  0
    3.1343   -0.7741    2.6418 S   0  0  0  0  0  0  0  0  0  0  0  0
    3.3333   -2.3270    3.2662 C   0  0  0  0  0  0  0  0  0  0  0  0
    3.2244   -3.2384    2.2116 C   0  0  0  0  0  0  0  0  0  0  0  0
    3.0028   -2.6185    0.9742 C   0  0  0  0  0  0  0  0  0  0  0  0
    2.8685   -3.3557   -0.1568 N   0  0  0  0  0  0  0  0  0  0  0  0
    2.9488   -4.7115   -0.0978 C   0  0  0  0  0  0  0  0  0  0  0  0
    3.1768   -5.3402    1.0888 N   0  0  0  0  0  0  0  0  0  0  0  0
    3.3153   -4.6429    2.2496 C   0  0  0  0  0  0  0  0  0  0  0  0
    3.6033   -5.3698    3.4610 C   0  0  0  0  0  0  0  0  0  0  0  0
    3.8406   -5.9553    4.4313 N   0  0  0  0  0  0  0  0  0  0  0  0
    3.2981   -2.6292    4.6974 C   0  0  0  0  0  0  0  0  0  0  0  0
    1.9346   -3.1204    5.5447 S   0  0  0  0  0  0  0  0  0  0  0  0
    2.6488   -3.1862    7.0771 C   0  0  0  0  0  0  0  0  0  0  0  0
    4.0020   -2.8250    6.9279 C   0  0  0  0  0  0  0  0  0  0  0  0
    4.3348   -2.4836    5.6050 C   0  0  0  0  0  0  0  0  0  0  0  0
    5.5789   -2.0587    5.2797 N   0  0  0  0  0  0  0  0  0  0  0  0
    6.5394   -1.9888    6.2399 C   0  0  0  0  0  0  0  0  0  0  0  0
    6.2678   -2.3771    7.5161 N   0  0  0  0  0  0  0  0  0  0  0  0
    5.0313   -2.8071    7.8887 C   0  0  0  0  0  0  0  0  0  0  0  0
    4.8713   -3.3537    9.2112 C   0  0  0  0  0  0  0  0  0  0  0  0
    4.7528   -3.8020   10.2724 N   0  0  0  0  0  0  0  0  0  0  0  0
    1.8607   -3.3257    8.3151 C   0  0  0  0  0  0  0  0  0  0  0  0
    1.9095   -2.2717    9.6360 S   0  0  0  0  0  0  0  0  0  0  0  0
    0.5669   -2.8782   10.4567 C   0  0  0  0  0  0  0  0  0  0  0  0
    0.0381   -3.9034    9.6733 C   0  0  0  0  0  0  0  0  0  0  0  0
    0.7432   -4.1366    8.4839 C   0  0  0  0  0  0  0  0  0  0  0  0
    0.3135   -5.0645    7.5883 N   0  0  0  0  0  0  0  0  0  0  0  0
   -0.8087   -5.7874    7.8595 C   0  0  0  0  0  0  0  0  0  0  0  0
   -1.5104   -5.5761    9.0101 N   0  0  0  0  0  0  0  0  0  0  0  0
   -1.1159   -4.6511    9.9263 C   0  0  0  0  0  0  0  0  0  0  0  0
   -1.9095   -4.4419   11.1133 C   0  0  0  0  0  0  0  0  0  0  0  0
   -2.5450   -4.2719   12.0673 N   0  0  0  0  0  0  0  0  0  0  0  0
   -9.6802    0.9775   -6.6786 H   0  0  0  0  0  0  0  0  0  0  0  0
   -8.6705   -3.7166   -7.4022 H   0  0  0  0  0  0  0  0  0  0  0  0
   -4.2534    4.5296   -9.5903 H   0  0  0  0  0  0  0  0  0  0  0  0
    2.5108    3.9243   -3.7880 H   0  0  0  0  0  0  0  0  0  0  0  0
    1.1704    5.0970   -3.9476 H   0  0  0  0  0  0  0  0  0  0  0  0
    3.2945    6.1378   -3.1622 H   0  0  0  0  0  0  0  0  0  0  0  0
    1.9828    6.3488   -1.9536 H   0  0  0  0  0  0  0  0  0  0  0  0
    3.2809    5.1072   -1.6831 H   0  0  0  0  0  0  0  0  0  0  0  0
   -0.7425    5.0880   -2.3018 H   0  0  0  0  0  0  0  0  0  0  0  0
    0.3289    5.1959   -0.8693 H   0  0  0  0  0  0  0  0  0  0  0  0
   -1.7436    2.9930   -1.4187 H   0  0  0  0  0  0  0  0  0  0  0  0
   -0.5694    2.9786   -0.0408 H   0  0  0  0  0  0  0  0  0  0  0  0
   -1.8002    4.2846   -0.1683 H   0  0  0  0  0  0  0  0  0  0  0  0
   -1.0859    3.8371   -4.3970 H   0  0  0  0  0  0  0  0  0  0  0  0
    3.0379    1.6426    0.7872 H   0  0  0  0  0  0  0  0  0  0  0  0
    2.8471   -5.2920   -1.0008 H   0  0  0  0  0  0  0  0  0  0  0  0
    7.5337   -1.6375    5.9852 H   0  0  0  0  0  0  0  0  0  0  0  0
    0.1760   -2.5133   11.3992 H   0  0  0  0  0  0  0  0  0  0  0  0
   -1.1558   -6.5267    7.1496 H   0  0  0  0  0  0  0  0  0  0  0  0
  1  2  1  0
  2  3  1  0
  3  4  2  0
  4  5  1  0
  5  6  1  0
  6  7  2  0
  7  8  1  0
  8  9  2  0
  9 10  1  0
 10 11  3  0
  3 12  1  0
 12 13  1  0
 13 14  1  0
 14 15  2  0
 15 16  1  0
 16 17  1  0
 17 18  2  0
 18 19  1  0
 19 20  2  0
 20 21  1  0
 21 22  3  0
 14 23  1  0
 23 24  1  0
 24 25  1  0
 25 26  1  0
 26 27  2  0
 27 28  1  0
 28 29  1  0
 29 30  1  0
 30 31  1  0
 29 32  1  0
 32 33  1  0
 29 34  1  0
 34 35  1  0
 27 36  1  0
 36 37  2  0
 37 38  1  0
 37 39  1  0
 39 40  1  0
 40 41  1  0
 41 42  2  0
 42 43  1  0
 43 44  1  0
 44 45  2  0
 45 46  1  0
 46 47  2  0
 47 48  1  0
 48 49  3  0
 41 50  1  0
 50 51  1  0
 51 52  1  0
 52 53  2  0
 53 54  1  0
 54 55  1  0
 55 56  2  0
 56 57  1  0
 57 58  2  0
 58 59  1  0
 59 60  3  0
 52 61  1  0
 61 62  1  0
 62 63  1  0
 63 64  2  0
 64 65  1  0
 65 66  1  0
 66 67  2  0
 67 68  1  0
 68 69  2  0
 69 70  1  0
 70 71  3  0
  5  1  2  0
 16 12  2  0
 35 23  2  0
 43 39  2  0
 54 50  2  0
 65 61  2  0
  9  4  1  0
 20 15  1  0
 34 25  2  0
 47 42  1  0
 58 53  1  0
 69 64  1  0
 38 26  1  0
  1 72  1  0
  7 73  1  0
 18 74  1  0
 30 75  1  0
 30 76  1  0
 31 77  1  0
 31 78  1  0
 31 79  1  0
 32 80  1  0
 32 81  1  0
 33 82  1  0
 33 83  1  0
 33 84  1  0
 35 85  1  0
 36 86  1  0
 45 87  1  0
 56 88  1  0
 63 89  1  0
 67 90  1  0
M  END

