
     RDKit          3D

226251  0  0  0  0  0  0  0  0999 V2000
    4.0522   -1.8923   11.4216 C   0  0  0  0  0  0  0  0  0  0  0  0
    3.2701   -3.0893   10.5277 S   0  0  0  0  0  0  0  0  0  0  0  0
    2.2906   -2.0214    9.6835 C   0  0  0  0  0  0  0  0  0  0  0  0
    1.2239   -2.3132    8.7454 C   0  0  0  0  0  0  0  0  0  0  0  0
    0.3909   -1.2989    8.3431 C   0  0  0  0  0  0  0  0  0  0  0  0
    0.5908    0.0174    8.7849 O   0  0  0  0  0  0  0  0  0  0  0  0
    1.8133    0.4676    9.4183 C   0  0  0  0  0  0  0  0  0  0  0  0
    1.4156    1.5177   10.4908 C   0  0  0  0  0  0  0  0  0  0  0  0
    0.6300    2.7068    9.9309 C   0  0  0  0  0  0  0  0  0  0  0  0
    2.7080    1.0540    8.2889 C   0  0  0  0  0  0  0  0  0  0  0  0
    4.0076    1.7211    8.7472 C   0  0  0  0  0  0  0  0  0  0  0  0
    2.5367   -0.7167   10.0847 C   0  0  0  0  0  0  0  0  0  0  0  0
    3.5403   -0.6477   11.0660 C   0  0  0  0  0  0  0  0  0  0  0  0
   -0.6473   -1.7180    7.5143 C   0  0  0  0  0  0  0  0  0  0  0  0
   -0.6048   -3.0916    7.2660 C   0  0  0  0  0  0  0  0  0  0  0  0
    0.7104   -3.7734    8.0930 S   0  0  0  0  0  0  0  0  0  0  0  0
   -1.5351   -3.8211    6.3898 C   0  0  0  0  0  0  0  0  0  0  0  0
   -2.8538   -3.1193    5.6044 S   0  0  0  0  0  0  0  0  0  0  0  0
   -3.2871   -4.5137    4.7813 C   0  0  0  0  0  0  0  0  0  0  0  0
   -4.2809   -4.6645    3.7425 C   0  0  0  0  0  0  0  0  0  0  0  0
   -4.2685   -5.7904    2.9582 C   0  0  0  0  0  0  0  0  0  0  0  0
   -3.4059   -6.8610    3.2420 O   0  0  0  0  0  0  0  0  0  0  0  0
   -2.5590   -6.9280    4.4202 C   0  0  0  0  0  0  0  0  0  0  0  0
   -3.2472   -7.8307    5.4784 C   0  0  0  0  0  0  0  0  0  0  0  0
   -3.5343   -9.2560    5.0087 C   0  0  0  0  0  0  0  0  0  0  0  0
   -1.1506   -7.4671    4.0147 C   0  0  0  0  0  0  0  0  0  0  0  0
   -1.1392   -8.3459    2.7590 C   0  0  0  0  0  0  0  0  0  0  0  0
   -2.4025   -5.5396    5.0634 C   0  0  0  0  0  0  0  0  0  0  0  0
   -1.4276   -5.1590    6.0035 C   0  0  0  0  0  0  0  0  0  0  0  0
   -5.0989   -5.7028    1.8364 C   0  0  0  0  0  0  0  0  0  0  0  0
   -5.7522   -4.4685    1.7572 C   0  0  0  0  0  0  0  0  0  0  0  0
   -5.2857   -3.5052    3.0697 S   0  0  0  0  0  0  0  0  0  0  0  0
   -6.4708   -3.9453    0.5862 C   0  0  0  0  0  0  0  0  0  0  0  0
   -7.0921   -2.6993    0.5412 C   0  0  0  0  0  0  0  0  0  0  0  0
   -7.3677   -2.2683   -0.7634 C   0  0  0  0  0  0  0  0  0  0  0  0
   -7.8724   -1.0048   -1.1273 C   0  0  0  0  0  0  0  0  0  0  0  0
   -8.2228    0.0209   -0.1262 C   0  0  0  0  0  0  0  0  0  0  0  0
   -9.7614    0.6691    0.0751 S   0  0  0  0  0  0  0  0  0  0  0  0
   -9.3447    1.7456    1.2985 C   0  0  0  0  0  0  0  0  0  0  0  0
  -10.2843    2.7293    1.9275 C   0  0  0  0  0  0  0  0  0  0  0  0
  -10.2655    4.0526    1.1728 C   0  0  0  0  0  0  0  0  0  0  0  0
   -7.9767    1.6343    1.5436 C   0  0  0  0  0  0  0  0  0  0  0  0
   -7.1107    2.6308    2.7049 Cl  0  0  0  0  0  0  0  0  0  0  0  0
   -7.3495    0.6650    0.7474 C   0  0  0  0  0  0  0  0  0  0  0  0
   -5.6233    0.3509    0.8066 Cl  0  0  0  0  0  0  0  0  0  0  0  0
   -7.9178   -0.7132   -2.4998 C   0  0  0  0  0  0  0  0  0  0  0  0
   -7.4988   -1.6183   -3.4792 C   0  0  0  0  0  0  0  0  0  0  0  0
   -7.0533   -2.9075   -3.1179 C   0  0  0  0  0  0  0  0  0  0  0  0
   -6.6250   -3.8881   -4.1361 C   0  0  0  0  0  0  0  0  0  0  0  0
   -7.6473   -4.5559   -5.2918 S   0  0  0  0  0  0  0  0  0  0  0  0
   -6.4814   -5.5088   -6.0407 C   0  0  0  0  0  0  0  0  0  0  0  0
   -6.7556   -6.4686   -7.1574 C   0  0  0  0  0  0  0  0  0  0  0  0
   -7.0485   -7.8604   -6.6093 C   0  0  0  0  0  0  0  0  0  0  0  0
   -5.2694   -5.3283   -5.3803 C   0  0  0  0  0  0  0  0  0  0  0  0
   -5.3430   -4.4058   -4.3257 C   0  0  0  0  0  0  0  0  0  0  0  0
   -3.9396   -3.9222   -3.3876 Cl  0  0  0  0  0  0  0  0  0  0  0  0
   -3.7952   -6.1870   -5.8090 Cl  0  0  0  0  0  0  0  0  0  0  0  0
   -6.9863   -3.1949   -1.7414 C   0  0  0  0  0  0  0  0  0  0  0  0
   -6.3149   -4.5441   -0.9847 S   0  0  0  0  0  0  0  0  0  0  0  0
   -7.3802   -1.0380   -4.7534 C   0  0  0  0  0  0  0  0  0  0  0  0
   -7.6429    0.3379   -4.7661 C   0  0  0  0  0  0  0  0  0  0  0  0
   -8.1151    0.7954   -3.2080 S   0  0  0  0  0  0  0  0  0  0  0  0
   -7.0196    1.2875   -5.7124 C   0  0  0  0  0  0  0  0  0  0  0  0
   -6.0527    0.9094   -6.6485 C   0  0  0  0  0  0  0  0  0  0  0  0
   -5.0810    1.8975   -6.8817 C   0  0  0  0  0  0  0  0  0  0  0  0
   -3.8235    1.6842   -7.4871 C   0  0  0  0  0  0  0  0  0  0  0  0
   -3.4351    0.3656   -8.0210 C   0  0  0  0  0  0  0  0  0  0  0  0
   -3.3068   -1.0408   -7.1026 S   0  0  0  0  0  0  0  0  0  0  0  0
   -2.7195   -2.0124   -8.3423 C   0  0  0  0  0  0  0  0  0  0  0  0
   -2.3087   -3.4410   -8.1681 C   0  0  0  0  0  0  0  0  0  0  0  0
   -0.8466   -3.5343   -7.7490 C   0  0  0  0  0  0  0  0  0  0  0  0
   -2.5726   -1.2332   -9.4901 C   0  0  0  0  0  0  0  0  0  0  0  0
   -1.9224   -1.8510  -11.0023 Cl  0  0  0  0  0  0  0  0  0  0  0  0
   -2.9749    0.1004   -9.3080 C   0  0  0  0  0  0  0  0  0  0  0  0
   -2.9059    1.3104  -10.5813 Cl  0  0  0  0  0  0  0  0  0  0  0  0
   -2.8496    2.6789   -7.2878 C   0  0  0  0  0  0  0  0  0  0  0  0
   -3.1048    3.8464   -6.5634 C   0  0  0  0  0  0  0  0  0  0  0  0
   -4.3962    4.1125   -6.0747 C   0  0  0  0  0  0  0  0  0  0  0  0
   -4.6715    5.2895   -5.2330 C   0  0  0  0  0  0  0  0  0  0  0  0
   -5.0498    6.8155   -5.8223 S   0  0  0  0  0  0  0  0  0  0  0  0
   -5.1637    7.5655   -4.3174 C   0  0  0  0  0  0  0  0  0  0  0  0
   -5.4674    9.0215   -4.1088 C   0  0  0  0  0  0  0  0  0  0  0  0
   -6.7376    9.4332   -4.8473 C   0  0  0  0  0  0  0  0  0  0  0  0
   -4.8577    6.6248   -3.3300 C   0  0  0  0  0  0  0  0  0  0  0  0
   -4.5842    5.3479   -3.8473 C   0  0  0  0  0  0  0  0  0  0  0  0
   -4.1220    3.9700   -2.8550 Cl  0  0  0  0  0  0  0  0  0  0  0  0
   -4.7701    6.9988   -1.6160 Cl  0  0  0  0  0  0  0  0  0  0  0  0
   -5.3537    3.0986   -6.2215 C   0  0  0  0  0  0  0  0  0  0  0  0
   -6.7544    2.9103   -5.3145 S   0  0  0  0  0  0  0  0  0  0  0  0
   -1.9353    4.5028   -6.1377 C   0  0  0  0  0  0  0  0  0  0  0  0
   -0.7584    3.8294   -6.4690 C   0  0  0  0  0  0  0  0  0  0  0  0
   -1.1863    2.4688   -7.3704 S   0  0  0  0  0  0  0  0  0  0  0  0
    0.3132    3.7053   -5.4807 C   0  0  0  0  0  0  0  0  0  0  0  0
    0.1975    2.8794   -4.3681 C   0  0  0  0  0  0  0  0  0  0  0  0
    1.4007    2.7139   -3.6797 C   0  0  0  0  0  0  0  0  0  0  0  0
    1.5977    1.8890   -2.5580 C   0  0  0  0  0  0  0  0  0  0  0  0
    0.4811    1.1772   -1.9075 C   0  0  0  0  0  0  0  0  0  0  0  0
   -0.4511   -0.0329   -2.6158 S   0  0  0  0  0  0  0  0  0  0  0  0
   -1.5645   -0.1605   -1.3591 C   0  0  0  0  0  0  0  0  0  0  0  0
   -2.7679   -1.0531   -1.3763 C   0  0  0  0  0  0  0  0  0  0  0  0
   -2.6079   -2.2243   -0.4109 C   0  0  0  0  0  0  0  0  0  0  0  0
   -1.2156    0.7492   -0.3610 C   0  0  0  0  0  0  0  0  0  0  0  0
   -2.1461    0.9879    1.1107 Cl  0  0  0  0  0  0  0  0  0  0  0  0
   -0.0712    1.4986   -0.6709 C   0  0  0  0  0  0  0  0  0  0  0  0
    0.5557    2.7738    0.3650 Cl  0  0  0  0  0  0  0  0  0  0  0  0
    2.9030    1.8058   -2.0571 C   0  0  0  0  0  0  0  0  0  0  0  0
    3.9625    2.5546   -2.5804 C   0  0  0  0  0  0  0  0  0  0  0  0
    3.7529    3.4274   -3.6729 C   0  0  0  0  0  0  0  0  0  0  0  0
    4.8296    4.2904   -4.1945 C   0  0  0  0  0  0  0  0  0  0  0  0
    5.3652    4.3155   -5.7889 S   0  0  0  0  0  0  0  0  0  0  0  0
    6.5200    5.5207   -5.5735 C   0  0  0  0  0  0  0  0  0  0  0  0
    7.3373    6.1246   -6.6745 C   0  0  0  0  0  0  0  0  0  0  0  0
    6.6607    7.3764   -7.2239 C   0  0  0  0  0  0  0  0  0  0  0  0
    6.4887    5.9368   -4.2435 C   0  0  0  0  0  0  0  0  0  0  0  0
    5.5431    5.2469   -3.4703 C   0  0  0  0  0  0  0  0  0  0  0  0
    5.2269    5.6284   -1.7812 Cl  0  0  0  0  0  0  0  0  0  0  0  0
    7.5044    7.2236   -3.6063 Cl  0  0  0  0  0  0  0  0  0  0  0  0
    2.4594    3.4464   -4.2302 C   0  0  0  0  0  0  0  0  0  0  0  0
    1.9003    4.2683   -5.6022 S   0  0  0  0  0  0  0  0  0  0  0  0
    5.1921    2.2660   -1.9606 C   0  0  0  0  0  0  0  0  0  0  0  0
    5.0838    1.2727   -0.9893 C   0  0  0  0  0  0  0  0  0  0  0  0
    3.4813    0.7657   -0.8706 S   0  0  0  0  0  0  0  0  0  0  0  0
    6.1997    0.6506   -0.2746 C   0  0  0  0  0  0  0  0  0  0  0  0
    6.3223   -0.7130   -0.0283 C   0  0  0  0  0  0  0  0  0  0  0  0
    7.4958   -1.0364    0.6689 C   0  0  0  0  0  0  0  0  0  0  0  0
    7.9222   -2.3312    1.0293 C   0  0  0  0  0  0  0  0  0  0  0  0
    7.1919   -3.5383    0.5945 C   0  0  0  0  0  0  0  0  0  0  0  0
    6.4816   -4.6612    1.6262 S   0  0  0  0  0  0  0  0  0  0  0  0
    5.8800   -5.6635    0.4178 C   0  0  0  0  0  0  0  0  0  0  0  0
    5.1549   -6.9537    0.6619 C   0  0  0  0  0  0  0  0  0  0  0  0
    6.1311   -8.1248    0.6896 C   0  0  0  0  0  0  0  0  0  0  0  0
    6.2493   -5.1409   -0.8204 C   0  0  0  0  0  0  0  0  0  0  0  0
    5.8670   -5.9146   -2.3533 Cl  0  0  0  0  0  0  0  0  0  0  0  0
    6.9794   -3.9463   -0.7212 C   0  0  0  0  0  0  0  0  0  0  0  0
    7.6227   -3.0930   -2.1200 Cl  0  0  0  0  0  0  0  0  0  0  0  0
    9.0959   -2.4187    1.7954 C   0  0  0  0  0  0  0  0  0  0  0  0
    9.8409   -1.2946    2.1670 C   0  0  0  0  0  0  0  0  0  0  0  0
    9.4355   -0.0039    1.7695 C   0  0  0  0  0  0  0  0  0  0  0  0
   10.1773    1.2044    2.1666 C   0  0  0  0  0  0  0  0  0  0  0  0
    9.5797    2.3950    3.1926 S   0  0  0  0  0  0  0  0  0  0  0  0
   10.9474    3.3718    3.1514 C   0  0  0  0  0  0  0  0  0  0  0  0
   11.0602    4.6984    3.8398 C   0  0  0  0  0  0  0  0  0  0  0  0
   10.5123    5.8125    2.9555 C   0  0  0  0  0  0  0  0  0  0  0  0
   11.8889    2.7839    2.3073 C   0  0  0  0  0  0  0  0  0  0  0  0
   11.4614    1.5619    1.7635 C   0  0  0  0  0  0  0  0  0  0  0  0
   12.4242    0.6113    0.6406 Cl  0  0  0  0  0  0  0  0  0  0  0  0
   13.4499    3.5070    1.9417 Cl  0  0  0  0  0  0  0  0  0  0  0  0
    8.2543    0.0873    1.0147 C   0  0  0  0  0  0  0  0  0  0  0  0
    7.5190    1.4686    0.3890 S   0  0  0  0  0  0  0  0  0  0  0  0
   10.9680   -1.6124    2.9451 C   0  0  0  0  0  0  0  0  0  0  0  0
   11.1149   -2.9785    3.1629 C   0  0  0  0  0  0  0  0  0  0  0  0
    9.8481   -3.7944    2.4012 S   0  0  0  0  0  0  0  0  0  0  0  0
    4.8265   -2.0600   12.1575 H   0  0  0  0  0  0  0  0  0  0  0  0
    2.3063    1.9076   11.0243 H   0  0  0  0  0  0  0  0  0  0  0  0
    0.7770    1.0199   11.2546 H   0  0  0  0  0  0  0  0  0  0  0  0
    0.2861    3.3504   10.7672 H   0  0  0  0  0  0  0  0  0  0  0  0
    1.2703    3.3244    9.2679 H   0  0  0  0  0  0  0  0  0  0  0  0
   -0.2634    2.3612    9.3675 H   0  0  0  0  0  0  0  0  0  0  0  0
    2.9706    0.2383    7.5804 H   0  0  0  0  0  0  0  0  0  0  0  0
    2.1254    1.7951    7.6990 H   0  0  0  0  0  0  0  0  0  0  0  0
    3.8052    2.5828    9.4148 H   0  0  0  0  0  0  0  0  0  0  0  0
    4.6690    0.9934    9.2567 H   0  0  0  0  0  0  0  0  0  0  0  0
    4.5532    2.1024    7.8585 H   0  0  0  0  0  0  0  0  0  0  0  0
    3.8964    0.2733   11.5060 H   0  0  0  0  0  0  0  0  0  0  0  0
   -1.3888   -1.0441    7.1060 H   0  0  0  0  0  0  0  0  0  0  0  0
   -2.6263   -7.8835    6.3988 H   0  0  0  0  0  0  0  0  0  0  0  0
   -4.2183   -7.3690    5.7639 H   0  0  0  0  0  0  0  0  0  0  0  0
   -4.1840   -9.7639    5.7522 H   0  0  0  0  0  0  0  0  0  0  0  0
   -2.5909   -9.8376    4.9343 H   0  0  0  0  0  0  0  0  0  0  0  0
   -4.0597   -9.2550    4.0312 H   0  0  0  0  0  0  0  0  0  0  0  0
   -0.6944   -8.0299    4.8577 H   0  0  0  0  0  0  0  0  0  0  0  0
   -0.4658   -6.6168    3.8007 H   0  0  0  0  0  0  0  0  0  0  0  0
   -0.1209   -8.7647    2.6106 H   0  0  0  0  0  0  0  0  0  0  0  0
   -1.8513   -9.1892    2.8408 H   0  0  0  0  0  0  0  0  0  0  0  0
   -1.3978   -7.7403    1.8642 H   0  0  0  0  0  0  0  0  0  0  0  0
   -0.6529   -5.8243    6.3619 H   0  0  0  0  0  0  0  0  0  0  0  0
   -5.1636   -6.4732    1.0786 H   0  0  0  0  0  0  0  0  0  0  0  0
   -7.2616   -2.0925    1.4204 H   0  0  0  0  0  0  0  0  0  0  0  0
  -11.3145    2.3144    1.9144 H   0  0  0  0  0  0  0  0  0  0  0  0
  -10.0012    2.9012    2.9881 H   0  0  0  0  0  0  0  0  0  0  0  0
  -10.9980    4.7519    1.6303 H   0  0  0  0  0  0  0  0  0  0  0  0
   -9.2548    4.5135    1.2274 H   0  0  0  0  0  0  0  0  0  0  0  0
  -10.5418    3.8944    0.1084 H   0  0  0  0  0  0  0  0  0  0  0  0
   -7.6305   -6.1120   -7.7422 H   0  0  0  0  0  0  0  0  0  0  0  0
   -5.8818   -6.5125   -7.8431 H   0  0  0  0  0  0  0  0  0  0  0  0
   -6.1697   -8.2494   -6.0526 H   0  0  0  0  0  0  0  0  0  0  0  0
   -7.9276   -7.8284   -5.9291 H   0  0  0  0  0  0  0  0  0  0  0  0
   -7.2709   -8.5517   -7.4494 H   0  0  0  0  0  0  0  0  0  0  0  0
   -6.9586   -1.5670   -5.5938 H   0  0  0  0  0  0  0  0  0  0  0  0
   -5.9534   -0.1024   -7.0098 H   0  0  0  0  0  0  0  0  0  0  0  0
   -2.9438   -3.9044   -7.3849 H   0  0  0  0  0  0  0  0  0  0  0  0
   -2.4682   -4.0035   -9.1117 H   0  0  0  0  0  0  0  0  0  0  0  0
   -0.6855   -2.9962   -6.7910 H   0  0  0  0  0  0  0  0  0  0  0  0
   -0.5696   -4.6007   -7.6076 H   0  0  0  0  0  0  0  0  0  0  0  0
   -0.1930   -3.0964   -8.5323 H   0  0  0  0  0  0  0  0  0  0  0  0
   -4.6136    9.6260   -4.4832 H   0  0  0  0  0  0  0  0  0  0  0  0
   -5.5997    9.2430   -3.0286 H   0  0  0  0  0  0  0  0  0  0  0  0
   -7.5947    8.8051   -4.5203 H   0  0  0  0  0  0  0  0  0  0  0  0
   -6.6015    9.3267   -5.9462 H   0  0  0  0  0  0  0  0  0  0  0  0
   -6.9702   10.4953   -4.6253 H   0  0  0  0  0  0  0  0  0  0  0  0
   -1.9506    5.3063   -5.4109 H   0  0  0  0  0  0  0  0  0  0  0  0
   -0.7247    2.3821   -4.1065 H   0  0  0  0  0  0  0  0  0  0  0  0
   -2.9183   -1.4406   -2.4050 H   0  0  0  0  0  0  0  0  0  0  0  0
   -3.6682   -0.4664   -1.1066 H   0  0  0  0  0  0  0  0  0  0  0  0
   -2.5068   -1.8630    0.6336 H   0  0  0  0  0  0  0  0  0  0  0  0
   -1.7121   -2.8257   -0.6810 H   0  0  0  0  0  0  0  0  0  0  0  0
   -3.5042   -2.8760   -0.4644 H   0  0  0  0  0  0  0  0  0  0  0  0
    8.3466    6.3854   -6.2932 H   0  0  0  0  0  0  0  0  0  0  0  0
    7.4644    5.3858   -7.4933 H   0  0  0  0  0  0  0  0  0  0  0  0
    7.2923    7.8233   -8.0187 H   0  0  0  0  0  0  0  0  0  0  0  0
    6.5192    8.1269   -6.4156 H   0  0  0  0  0  0  0  0  0  0  0  0
    5.6701    7.1203   -7.6565 H   0  0  0  0  0  0  0  0  0  0  0  0
    6.1354    2.7086   -2.2497 H   0  0  0  0  0  0  0  0  0  0  0  0
    5.5932   -1.4422   -0.3554 H   0  0  0  0  0  0  0  0  0  0  0  0
    4.6214   -6.8975    1.6330 H   0  0  0  0  0  0  0  0  0  0  0  0
    4.3996   -7.1209   -0.1334 H   0  0  0  0  0  0  0  0  0  0  0  0
    6.6688   -8.2046   -0.2809 H   0  0  0  0  0  0  0  0  0  0  0  0
    6.8719   -7.9904    1.5090 H   0  0  0  0  0  0  0  0  0  0  0  0
    5.5735   -9.0689    0.8640 H   0  0  0  0  0  0  0  0  0  0  0  0
   10.4867    4.6663    4.7894 H   0  0  0  0  0  0  0  0  0  0  0  0
   12.1209    4.9103    4.0911 H   0  0  0  0  0  0  0  0  0  0  0  0
   10.5380    6.7740    3.5083 H   0  0  0  0  0  0  0  0  0  0  0  0
   11.1330    5.9105    2.0379 H   0  0  0  0  0  0  0  0  0  0  0  0
    9.4603    5.5941    2.6650 H   0  0  0  0  0  0  0  0  0  0  0  0
   11.6619   -0.8806    3.3352 H   0  0  0  0  0  0  0  0  0  0  0  0
   11.9143   -3.4385    3.7285 H   0  0  0  0  0  0  0  0  0  0  0  0
  1  2  1  0
  2  3  1  0
  3  4  1  0
  4  5  2  0
  5  6  1  0
  6  7  1  0
  7  8  1  0
  8  9  1  0
  7 10  1  0
 10 11  1  0
  7 12  1  0
 12 13  1  0
  5 14  1  0
 14 15  2  0
 15 16  1  0
 15 17  1  0
 17 18  1  0
 18 19  1  0
 19 20  1  0
 20 21  2  0
 21 22  1  0
 22 23  1  0
 23 24  1  0
 24 25  1  0
 23 26  1  0
 26 27  1  0
 23 28  1  0
 28 29  1  0
 21 30  1  0
 30 31  2  0
 31 32  1  0
 31 33  1  0
 33 34  2  0
 34 35  1  0
 35 36  2  0
 36 37  1  0
 37 38  1  0
 38 39  1  0
 39 40  1  0
 40 41  1  0
 39 42  2  0
 42 43  1  0
 42 44  1  0
 44 45  1  0
 36 46  1  0
 46 47  2  0
 47 48  1  0
 48 49  1  0
 49 50  1  0
 50 51  1  0
 51 52  1  0
 52 53  1  0
 51 54  2  0
 54 55  1  0
 55 56  1  0
 54 57  1  0
 48 58  2  0
 58 59  1  0
 47 60  1  0
 60 61  2  0
 61 62  1  0
 61 63  1  0
 63 64  2  0
 64 65  1  0
 65 66  2  0
 66 67  1  0
 67 68  1  0
 68 69  1  0
 69 70  1  0
 70 71  1  0
 69 72  2  0
 72 73  1  0
 72 74  1  0
 74 75  1  0
 66 76  1  0
 76 77  2  0
 77 78  1  0
 78 79  1  0
 79 80  1  0
 80 81  1  0
 81 82  1  0
 82 83  1  0
 81 84  2  0
 84 85  1  0
 85 86  1  0
 84 87  1  0
 78 88  2  0
 88 89  1  0
 77 90  1  0
 90 91  2  0
 91 92  1  0
 91 93  1  0
 93 94  2  0
 94 95  1  0
 95 96  2  0
 96 97  1  0
 97 98  1  0
 98 99  1  0
 99100  1  0
100101  1  0
 99102  2  0
102103  1  0
102104  1  0
104105  1  0
 96106  1  0
106107  2  0
107108  1  0
108109  1  0
109110  1  0
110111  1  0
111112  1  0
112113  1  0
111114  2  0
114115  1  0
115116  1  0
114117  1  0
108118  2  0
118119  1  0
107120  1  0
120121  2  0
121122  1  0
121123  1  0
123124  2  0
124125  1  0
125126  2  0
126127  1  0
127128  1  0
128129  1  0
129130  1  0
130131  1  0
129132  2  0
132133  1  0
132134  1  0
134135  1  0
126136  1  0
136137  2  0
137138  1  0
138139  1  0
139140  1  0
140141  1  0
141142  1  0
142143  1  0
141144  2  0
144145  1  0
145146  1  0
144147  1  0
138148  2  0
148149  1  0
137150  1  0
150151  2  0
151152  1  0
 13  1  2  0
 29 17  2  0
 59 33  1  0
 89 63  1  0
119 93  1  0
149123  1  0
 12  3  2  0
 28 19  2  0
 58 35  1  0
 88 65  1  0
118 95  1  0
148125  1  0
 16  4  1  0
 32 20  1  0
 44 37  2  0
 62 46  1  0
 74 67  2  0
 92 76  1  0
104 97  2  0
122106  1  0
134127  2  0
152136  1  0
 55 49  2  0
 85 79  2  0
115109  2  0
145139  2  0
  1153  1  0
  8154  1  0
  8155  1  0
  9156  1  0
  9157  1  0
  9158  1  0
 10159  1  0
 10160  1  0
 11161  1  0
 11162  1  0
 11163  1  0
 13164  1  0
 14165  1  0
 24166  1  0
 24167  1  0
 25168  1  0
 25169  1  0
 25170  1  0
 26171  1  0
 26172  1  0
 27173  1  0
 27174  1  0
 27175  1  0
 29176  1  0
 30177  1  0
 34178  1  0
 40179  1  0
 40180  1  0
 41181  1  0
 41182  1  0
 41183  1  0
 52184  1  0
 52185  1  0
 53186  1  0
 53187  1  0
 53188  1  0
 60189  1  0
 64190  1  0
 70191  1  0
 70192  1  0
 71193  1  0
 71194  1  0
 71195  1  0
 82196  1  0
 82197  1  0
 83198  1  0
 83199  1  0
 83200  1  0
 90201  1  0
 94202  1  0
100203  1  0
100204  1  0
101205  1  0
101206  1  0
101207  1  0
112208  1  0
112209  1  0
113210  1  0
113211  1  0
113212  1  0
120213  1  0
124214  1  0
130215  1  0
130216  1  0
131217  1  0
131218  1  0
131219  1  0
142220  1  0
142221  1  0
143222  1  0
143223  1  0
143224  1  0
150225  1  0
151226  1  0
M  END

