
     RDKit          3D

135152  0  0  0  0  0  0  0  0999 V2000
   12.0460    6.7727   -4.2340 C   0  0  0  0  0  0  0  0  0  0  0  0
   12.0169    6.6350   -2.8348 C   0  0  0  0  0  0  0  0  0  0  0  0
   11.0455    5.8099   -2.2656 C   0  0  0  0  0  0  0  0  0  0  0  0
   10.1344    5.1405   -3.0614 C   0  0  0  0  0  0  0  0  0  0  0  0
   10.1429    5.2604   -4.4509 C   0  0  0  0  0  0  0  0  0  0  0  0
   11.1115    6.0895   -5.0388 C   0  0  0  0  0  0  0  0  0  0  0  0
    9.2712    4.3647   -2.2003 C   0  0  0  0  0  0  0  0  0  0  0  0
    9.6608    4.5716   -0.8916 C   0  0  0  0  0  0  0  0  0  0  0  0
   10.8305    5.5110   -0.8090 C   0  0  0  0  0  0  0  0  0  0  0  0
    8.9991    3.9349    0.1609 C   0  0  0  0  0  0  0  0  0  0  0  0
    7.9300    3.0612   -0.1346 C   0  0  0  0  0  0  0  0  0  0  0  0
    7.5436    2.8635   -1.4846 C   0  0  0  0  0  0  0  0  0  0  0  0
    8.2149    3.5189   -2.5262 C   0  0  0  0  0  0  0  0  0  0  0  0
    7.2037    2.3588    0.9490 C   0  0  0  0  0  0  0  0  0  0  0  0
    6.7817    3.0587    2.1025 C   0  0  0  0  0  0  0  0  0  0  0  0
    5.9949    2.3926    3.0462 C   0  0  0  0  0  0  0  0  0  0  0  0
    5.6368    1.0720    2.8589 C   0  0  0  0  0  0  0  0  0  0  0  0
    6.0605    0.3464    1.7494 C   0  0  0  0  0  0  0  0  0  0  0  0
    6.8562    0.9952    0.7961 C   0  0  0  0  0  0  0  0  0  0  0  0
    4.6759    0.7131    3.8771 C   0  0  0  0  0  0  0  0  0  0  0  0
    4.4599    1.8136    4.6799 C   0  0  0  0  0  0  0  0  0  0  0  0
    5.3103    2.9773    4.2500 C   0  0  0  0  0  0  0  0  0  0  0  0
    3.4404    1.8120    5.6356 C   0  0  0  0  0  0  0  0  0  0  0  0
    2.6017    0.6751    5.7495 C   0  0  0  0  0  0  0  0  0  0  0  0
    2.8615   -0.4513    4.9227 C   0  0  0  0  0  0  0  0  0  0  0  0
    3.9007   -0.4359    3.9850 C   0  0  0  0  0  0  0  0  0  0  0  0
    1.3671    0.7124    6.5886 C   0  0  0  0  0  0  0  0  0  0  0  0
    0.8020   -0.4856    7.0870 C   0  0  0  0  0  0  0  0  0  0  0  0
   -0.5017   -0.4726    7.5857 C   0  0  0  0  0  0  0  0  0  0  0  0
   -1.2253    0.7040    7.6488 C   0  0  0  0  0  0  0  0  0  0  0  0
   -0.6695    1.9163    7.2455 C   0  0  0  0  0  0  0  0  0  0  0  0
    0.6310    1.9185    6.7208 C   0  0  0  0  0  0  0  0  0  0  0  0
   -2.6323    0.3617    7.7569 C   0  0  0  0  0  0  0  0  0  0  0  0
   -2.7386   -1.0170    7.7292 C   0  0  0  0  0  0  0  0  0  0  0  0
   -1.3892   -1.6699    7.7488 C   0  0  0  0  0  0  0  0  0  0  0  0
   -3.9297   -1.6277    7.3364 C   0  0  0  0  0  0  0  0  0  0  0  0
   -5.0269   -0.8221    6.9616 C   0  0  0  0  0  0  0  0  0  0  0  0
   -4.9446    0.5813    7.1317 C   0  0  0  0  0  0  0  0  0  0  0  0
   -3.7342    1.1806    7.5090 C   0  0  0  0  0  0  0  0  0  0  0  0
   -6.0770   -1.3993    6.0908 C   0  0  0  0  0  0  0  0  0  0  0  0
   -5.7441   -2.6041    4.9556 S   0  0  0  0  0  0  0  0  0  0  0  0
   -7.1255   -2.3699    4.0467 C   0  0  0  0  0  0  0  0  0  0  0  0
   -7.3565   -2.8250    2.6922 C   0  0  0  0  0  0  0  0  0  0  0  0
   -8.2756   -2.1674    1.9138 C   0  0  0  0  0  0  0  0  0  0  0  0
   -9.1283   -1.1977    2.4638 O   0  0  0  0  0  0  0  0  0  0  0  0
   -9.1562   -0.8481    3.8737 C   0  0  0  0  0  0  0  0  0  0  0  0
  -10.3611   -1.5500    4.5735 C   0  0  0  0  0  0  0  0  0  0  0  0
  -11.5618   -1.8337    3.6632 C   0  0  0  0  0  0  0  0  0  0  0  0
   -9.2401    0.7022    3.9765 C   0  0  0  0  0  0  0  0  0  0  0  0
  -10.3935    1.3341    3.1936 C   0  0  0  0  0  0  0  0  0  0  0  0
   -7.8707   -1.3288    4.5761 C   0  0  0  0  0  0  0  0  0  0  0  0
   -7.2970   -0.8010    5.7526 C   0  0  0  0  0  0  0  0  0  0  0  0
   -8.1639   -2.4424    0.5474 C   0  0  0  0  0  0  0  0  0  0  0  0
   -7.0863   -3.2884    0.2513 C   0  0  0  0  0  0  0  0  0  0  0  0
   -6.3205   -3.6958    1.7071 S   0  0  0  0  0  0  0  0  0  0  0  0
   -6.5209   -3.5356   -1.0998 C   0  0  0  0  0  0  0  0  0  0  0  0
   -5.1603   -3.9016   -1.2386 C   0  0  0  0  0  0  0  0  0  0  0  0
   -4.6016   -3.9715   -2.5129 C   0  0  0  0  0  0  0  0  0  0  0  0
   -5.3603   -3.6970   -3.6326 C   0  0  0  0  0  0  0  0  0  0  0  0
   -6.7122   -3.3736   -3.5399 C   0  0  0  0  0  0  0  0  0  0  0  0
   -7.2947   -3.3010   -2.2650 C   0  0  0  0  0  0  0  0  0  0  0  0
   -4.4809   -3.7067   -4.7832 C   0  0  0  0  0  0  0  0  0  0  0  0
   -3.2012   -3.9904   -4.3481 C   0  0  0  0  0  0  0  0  0  0  0  0
   -3.1612   -4.2083   -2.8644 C   0  0  0  0  0  0  0  0  0  0  0  0
   -2.1230   -3.9738   -5.2335 C   0  0  0  0  0  0  0  0  0  0  0  0
   -2.3554   -3.6583   -6.5922 C   0  0  0  0  0  0  0  0  0  0  0  0
   -3.6771   -3.3784   -7.0217 C   0  0  0  0  0  0  0  0  0  0  0  0
   -4.7479   -3.3965   -6.1142 C   0  0  0  0  0  0  0  0  0  0  0  0
   -1.2234   -3.5905   -7.5501 C   0  0  0  0  0  0  0  0  0  0  0  0
   -0.1849   -4.5487   -7.4985 C   0  0  0  0  0  0  0  0  0  0  0  0
    0.8685   -4.4531   -8.4077 C   0  0  0  0  0  0  0  0  0  0  0  0
    0.9054   -3.4386   -9.3445 C   0  0  0  0  0  0  0  0  0  0  0  0
   -0.0963   -2.4742   -9.4206 C   0  0  0  0  0  0  0  0  0  0  0  0
   -1.1645   -2.5527   -8.5150 C   0  0  0  0  0  0  0  0  0  0  0  0
    2.1059   -3.5969  -10.1368 C   0  0  0  0  0  0  0  0  0  0  0  0
    2.7850   -4.7077   -9.6715 C   0  0  0  0  0  0  0  0  0  0  0  0
    2.0591   -5.3600   -8.5291 C   0  0  0  0  0  0  0  0  0  0  0  0
    3.9924   -5.0996  -10.2515 C   0  0  0  0  0  0  0  0  0  0  0  0
    4.5029   -4.3413  -11.3190 C   0  0  0  0  0  0  0  0  0  0  0  0
    3.8050   -3.2108  -11.7895 C   0  0  0  0  0  0  0  0  0  0  0  0
    2.5905   -2.8292  -11.1964 C   0  0  0  0  0  0  0  0  0  0  0  0
   12.7899    7.4087   -4.6964 H   0  0  0  0  0  0  0  0  0  0  0  0
   12.7335    7.1575   -2.2135 H   0  0  0  0  0  0  0  0  0  0  0  0
    9.4256    4.7300   -5.0634 H   0  0  0  0  0  0  0  0  0  0  0  0
   11.1433    6.2006   -6.1140 H   0  0  0  0  0  0  0  0  0  0  0  0
   10.5611    6.4323   -0.2496 H   0  0  0  0  0  0  0  0  0  0  0  0
   11.7161    5.0046   -0.3715 H   0  0  0  0  0  0  0  0  0  0  0  0
    9.3212    4.0996    1.1823 H   0  0  0  0  0  0  0  0  0  0  0  0
    6.7116    2.2145   -1.7294 H   0  0  0  0  0  0  0  0  0  0  0  0
    7.9158    3.3678   -3.5560 H   0  0  0  0  0  0  0  0  0  0  0  0
    7.0011    4.1116    2.2310 H   0  0  0  0  0  0  0  0  0  0  0  0
    5.7556   -0.6815    1.6023 H   0  0  0  0  0  0  0  0  0  0  0  0
    7.1792    0.4417   -0.0761 H   0  0  0  0  0  0  0  0  0  0  0  0
    4.6760    3.8428    3.9625 H   0  0  0  0  0  0  0  0  0  0  0  0
    6.0450    3.2471    5.0359 H   0  0  0  0  0  0  0  0  0  0  0  0
    3.2741    2.6996    6.2310 H   0  0  0  0  0  0  0  0  0  0  0  0
    2.2142   -1.3175    4.9386 H   0  0  0  0  0  0  0  0  0  0  0  0
    4.0493   -1.2767    3.3193 H   0  0  0  0  0  0  0  0  0  0  0  0
    1.3140   -1.4335    6.9918 H   0  0  0  0  0  0  0  0  0  0  0  0
   -1.2609    2.8223    7.2316 H   0  0  0  0  0  0  0  0  0  0  0  0
    1.0064    2.8470    6.3149 H   0  0  0  0  0  0  0  0  0  0  0  0
   -1.2036   -2.1766    8.7205 H   0  0  0  0  0  0  0  0  0  0  0  0
   -1.2730   -2.3689    6.8927 H   0  0  0  0  0  0  0  0  0  0  0  0
   -3.9496   -2.6988    7.1782 H   0  0  0  0  0  0  0  0  0  0  0  0
   -5.7610    1.2254    6.8305 H   0  0  0  0  0  0  0  0  0  0  0  0
   -3.6348    2.2581    7.4882 H   0  0  0  0  0  0  0  0  0  0  0  0
  -10.0411   -2.5375    4.9746 H   0  0  0  0  0  0  0  0  0  0  0  0
  -10.6998   -0.9520    5.4454 H   0  0  0  0  0  0  0  0  0  0  0  0
  -12.3350   -2.3832    4.2420 H   0  0  0  0  0  0  0  0  0  0  0  0
  -12.0234   -0.9014    3.2844 H   0  0  0  0  0  0  0  0  0  0  0  0
  -11.2656   -2.4724    2.8028 H   0  0  0  0  0  0  0  0  0  0  0  0
   -8.2919    1.1319    3.5825 H   0  0  0  0  0  0  0  0  0  0  0  0
   -9.3353    1.0224    5.0343 H   0  0  0  0  0  0  0  0  0  0  0  0
  -10.4683    0.9179    2.1678 H   0  0  0  0  0  0  0  0  0  0  0  0
  -10.2213    2.4290    3.1078 H   0  0  0  0  0  0  0  0  0  0  0  0
  -11.3502    1.1938    3.7372 H   0  0  0  0  0  0  0  0  0  0  0  0
   -7.7115    0.0360    6.2961 H   0  0  0  0  0  0  0  0  0  0  0  0
   -8.7681   -1.9416   -0.1950 H   0  0  0  0  0  0  0  0  0  0  0  0
   -4.5260   -4.0666   -0.3771 H   0  0  0  0  0  0  0  0  0  0  0  0
   -7.2918   -3.1490   -4.4246 H   0  0  0  0  0  0  0  0  0  0  0  0
   -8.3398   -3.0341   -2.1911 H   0  0  0  0  0  0  0  0  0  0  0  0
   -2.8582   -5.2482   -2.6221 H   0  0  0  0  0  0  0  0  0  0  0  0
   -2.5044   -3.4599   -2.3708 H   0  0  0  0  0  0  0  0  0  0  0  0
   -1.1239   -4.1625   -4.8624 H   0  0  0  0  0  0  0  0  0  0  0  0
   -3.8795   -3.1437   -8.0587 H   0  0  0  0  0  0  0  0  0  0  0  0
   -5.7520   -3.1589   -6.4418 H   0  0  0  0  0  0  0  0  0  0  0  0
   -0.2012   -5.3576   -6.7790 H   0  0  0  0  0  0  0  0  0  0  0  0
   -0.0516   -1.6788  -10.1513 H   0  0  0  0  0  0  0  0  0  0  0  0
   -1.9352   -1.7942   -8.5526 H   0  0  0  0  0  0  0  0  0  0  0  0
    1.7477   -6.3918   -8.7947 H   0  0  0  0  0  0  0  0  0  0  0  0
    2.6738   -5.3354   -7.6048 H   0  0  0  0  0  0  0  0  0  0  0  0
    4.5267   -5.9679   -9.8857 H   0  0  0  0  0  0  0  0  0  0  0  0
    5.4370   -4.6276  -11.7838 H   0  0  0  0  0  0  0  0  0  0  0  0
    4.2068   -2.6329  -12.6111 H   0  0  0  0  0  0  0  0  0  0  0  0
    2.0501   -1.9617  -11.5536 H   0  0  0  0  0  0  0  0  0  0  0  0
  1  2  2  0
  2  3  1  0
  3  4  2  0
  4  5  1  0
  5  6  2  0
  4  7  1  0
  7  8  2  0
  8  9  1  0
  8 10  1  0
 10 11  2  0
 11 12  1  0
 12 13  2  0
 11 14  1  0
 14 15  2  0
 15 16  1  0
 16 17  2  0
 17 18  1  0
 18 19  2  0
 17 20  1  0
 20 21  2  0
 21 22  1  0
 21 23  1  0
 23 24  2  0
 24 25  1  0
 25 26  2  0
 24 27  1  0
 27 28  2  0
 28 29  1  0
 29 30  2  0
 30 31  1  0
 31 32  2  0
 30 33  1  0
 33 34  2  0
 34 35  1  0
 34 36  1  0
 36 37  2  0
 37 38  1  0
 38 39  2  0
 37 40  1  0
 40 41  1  0
 41 42  1  0
 42 43  1  0
 43 44  2  0
 44 45  1  0
 45 46  1  0
 46 47  1  0
 47 48  1  0
 46 49  1  0
 49 50  1  0
 46 51  1  0
 51 52  1  0
 44 53  1  0
 53 54  2  0
 54 55  1  0
 54 56  1  0
 56 57  2  0
 57 58  1  0
 58 59  2  0
 59 60  1  0
 60 61  2  0
 59 62  1  0
 62 63  2  0
 63 64  1  0
 63 65  1  0
 65 66  2  0
 66 67  1  0
 67 68  2  0
 66 69  1  0
 69 70  2  0
 70 71  1  0
 71 72  2  0
 72 73  1  0
 73 74  2  0
 72 75  1  0
 75 76  2  0
 76 77  1  0
 76 78  1  0
 78 79  2  0
 79 80  1  0
 80 81  2  0
  6  1  1  0
 13  7  1  0
 19 14  1  0
 26 20  1  0
 32 27  1  0
 39 33  1  0
 52 40  2  0
 61 56  1  0
 68 62  1  0
 74 69  1  0
 81 75  1  0
  9  3  1  0
 22 16  1  0
 35 29  1  0
 51 42  2  0
 64 58  1  0
 77 71  1  0
 55 43  1  0
  1 82  1  0
  2 83  1  0
  5 84  1  0
  6 85  1  0
  9 86  1  0
  9 87  1  0
 10 88  1  0
 12 89  1  0
 13 90  1  0
 15 91  1  0
 18 92  1  0
 19 93  1  0
 22 94  1  0
 22 95  1  0
 23 96  1  0
 25 97  1  0
 26 98  1  0
 28 99  1  0
 31100  1  0
 32101  1  0
 35102  1  0
 35103  1  0
 36104  1  0
 38105  1  0
 39106  1  0
 47107  1  0
 47108  1  0
 48109  1  0
 48110  1  0
 48111  1  0
 49112  1  0
 49113  1  0
 50114  1  0
 50115  1  0
 50116  1  0
 52117  1  0
 53118  1  0
 57119  1  0
 60120  1  0
 61121  1  0
 64122  1  0
 64123  1  0
 65124  1  0
 67125  1  0
 68126  1  0
 70127  1  0
 73128  1  0
 74129  1  0
 77130  1  0
 77131  1  0
 78132  1  0
 79133  1  0
 80134  1  0
 81135  1  0
M  END

