
     RDKit          3D

235261  0  0  0  0  0  0  0  0999 V2000
    1.5027  -10.4463   10.0545 C   0  0  0  0  0  0  0  0  0  0  0  0
    1.9408   -9.3185    9.3672 C   0  0  0  0  0  0  0  0  0  0  0  0
    1.1898   -9.0467    8.2117 C   0  0  0  0  0  0  0  0  0  0  0  0
    1.3915   -7.9784    7.3136 C   0  0  0  0  0  0  0  0  0  0  0  0
    2.4361   -6.9553    7.5241 C   0  0  0  0  0  0  0  0  0  0  0  0
    3.6676   -6.6057    6.4296 S   0  0  0  0  0  0  0  0  0  0  0  0
    4.3220   -5.3232    7.2975 C   0  0  0  0  0  0  0  0  0  0  0  0
    5.5119   -4.5185    6.8668 C   0  0  0  0  0  0  0  0  0  0  0  0
    6.7917   -5.0517    7.5008 C   0  0  0  0  0  0  0  0  0  0  0  0
    3.5887   -5.1561    8.4709 C   0  0  0  0  0  0  0  0  0  0  0  0
    3.9417   -3.9155    9.6649 Cl  0  0  0  0  0  0  0  0  0  0  0  0
    2.5238   -6.0632    8.5916 C   0  0  0  0  0  0  0  0  0  0  0  0
    1.3720   -6.0139    9.9195 Cl  0  0  0  0  0  0  0  0  0  0  0  0
    0.5380   -7.9226    6.1991 C   0  0  0  0  0  0  0  0  0  0  0  0
   -0.4747   -8.8589    5.9678 C   0  0  0  0  0  0  0  0  0  0  0  0
   -0.6789   -9.9238    6.8692 C   0  0  0  0  0  0  0  0  0  0  0  0
   -1.7437  -10.9220    6.6716 C   0  0  0  0  0  0  0  0  0  0  0  0
   -3.0545  -11.1429    7.7039 S   0  0  0  0  0  0  0  0  0  0  0  0
   -3.7590  -12.3937    6.8282 C   0  0  0  0  0  0  0  0  0  0  0  0
   -5.0595  -13.0504    7.1838 C   0  0  0  0  0  0  0  0  0  0  0  0
   -6.2196  -12.3747    6.4617 C   0  0  0  0  0  0  0  0  0  0  0  0
   -2.9786  -12.6487    5.7011 C   0  0  0  0  0  0  0  0  0  0  0  0
   -1.8423  -11.8283    5.6167 C   0  0  0  0  0  0  0  0  0  0  0  0
   -0.6422  -11.9696    4.3393 Cl  0  0  0  0  0  0  0  0  0  0  0  0
   -3.3718  -13.8760    4.5065 Cl  0  0  0  0  0  0  0  0  0  0  0  0
    0.1716   -9.9803    7.9889 C   0  0  0  0  0  0  0  0  0  0  0  0
    0.2020  -11.1256    9.2199 S   0  0  0  0  0  0  0  0  0  0  0  0
   -1.2343   -8.5792    4.8178 C   0  0  0  0  0  0  0  0  0  0  0  0
   -0.8143   -7.4236    4.1645 C   0  0  0  0  0  0  0  0  0  0  0  0
    0.4811   -6.7465    5.0018 S   0  0  0  0  0  0  0  0  0  0  0  0
   -1.3885   -6.8568    2.9373 C   0  0  0  0  0  0  0  0  0  0  0  0
   -1.0284   -5.6272    2.3987 C   0  0  0  0  0  0  0  0  0  0  0  0
   -1.6866   -5.3380    1.1979 C   0  0  0  0  0  0  0  0  0  0  0  0
   -1.5216   -4.1711    0.4324 C   0  0  0  0  0  0  0  0  0  0  0  0
   -0.7698   -3.0040    0.9443 C   0  0  0  0  0  0  0  0  0  0  0  0
    0.5843   -2.3164    0.2145 S   0  0  0  0  0  0  0  0  0  0  0  0
    0.7898   -1.0870    1.3480 C   0  0  0  0  0  0  0  0  0  0  0  0
    1.8979   -0.0781    1.3213 C   0  0  0  0  0  0  0  0  0  0  0  0
    3.1179   -0.5856    2.0793 C   0  0  0  0  0  0  0  0  0  0  0  0
   -0.2034   -1.2045    2.3218 C   0  0  0  0  0  0  0  0  0  0  0  0
   -0.3501   -0.1120    3.6919 Cl  0  0  0  0  0  0  0  0  0  0  0  0
   -1.0825   -2.2704    2.0887 C   0  0  0  0  0  0  0  0  0  0  0  0
   -2.4834   -2.6011    3.1065 Cl  0  0  0  0  0  0  0  0  0  0  0  0
   -2.1995   -4.1244   -0.7957 C   0  0  0  0  0  0  0  0  0  0  0  0
   -3.0890   -5.1215   -1.2115 C   0  0  0  0  0  0  0  0  0  0  0  0
   -3.3057   -6.2627   -0.4062 C   0  0  0  0  0  0  0  0  0  0  0  0
   -4.2650   -7.3156   -0.7864 C   0  0  0  0  0  0  0  0  0  0  0  0
   -3.8637   -8.9302   -1.0446 S   0  0  0  0  0  0  0  0  0  0  0  0
   -5.4221   -9.4440   -1.4189 C   0  0  0  0  0  0  0  0  0  0  0  0
   -5.8003  -10.8654   -1.7069 C   0  0  0  0  0  0  0  0  0  0  0  0
   -6.2235  -11.5771   -0.4278 C   0  0  0  0  0  0  0  0  0  0  0  0
   -6.2879   -8.3558   -1.3132 C   0  0  0  0  0  0  0  0  0  0  0  0
   -5.6403   -7.1613   -0.9641 C   0  0  0  0  0  0  0  0  0  0  0  0
   -6.4926   -5.6440   -0.7024 Cl  0  0  0  0  0  0  0  0  0  0  0  0
   -8.0245   -8.4715   -1.5614 Cl  0  0  0  0  0  0  0  0  0  0  0  0
   -2.5563   -6.3523    0.7828 C   0  0  0  0  0  0  0  0  0  0  0  0
   -2.5331   -7.5903    1.9305 S   0  0  0  0  0  0  0  0  0  0  0  0
   -3.6958   -4.8343   -2.4506 C   0  0  0  0  0  0  0  0  0  0  0  0
   -3.2489   -3.6335   -2.9977 C   0  0  0  0  0  0  0  0  0  0  0  0
   -2.1559   -2.9038   -1.9416 S   0  0  0  0  0  0  0  0  0  0  0  0
   -3.8175   -2.9235   -4.1442 C   0  0  0  0  0  0  0  0  0  0  0  0
   -5.0858   -2.3474   -4.0964 C   0  0  0  0  0  0  0  0  0  0  0  0
   -5.1905   -1.1700   -4.8589 C   0  0  0  0  0  0  0  0  0  0  0  0
   -6.2306   -0.2223   -4.7669 C   0  0  0  0  0  0  0  0  0  0  0  0
   -7.4272   -0.4528   -3.9401 C   0  0  0  0  0  0  0  0  0  0  0  0
   -7.4383   -0.5782   -2.2628 S   0  0  0  0  0  0  0  0  0  0  0  0
   -9.0983   -0.8031   -2.1134 C   0  0  0  0  0  0  0  0  0  0  0  0
   -9.8259   -0.9447   -0.8096 C   0  0  0  0  0  0  0  0  0  0  0  0
  -10.4248    0.3878   -0.3730 C   0  0  0  0  0  0  0  0  0  0  0  0
   -9.6722   -0.7548   -3.3837 C   0  0  0  0  0  0  0  0  0  0  0  0
  -11.3965   -0.9399   -3.6764 Cl  0  0  0  0  0  0  0  0  0  0  0  0
   -8.7359   -0.5510   -4.4076 C   0  0  0  0  0  0  0  0  0  0  0  0
   -9.1612   -0.4489   -6.1093 Cl  0  0  0  0  0  0  0  0  0  0  0  0
   -5.9946    1.0386   -5.3421 C   0  0  0  0  0  0  0  0  0  0  0  0
   -4.8180    1.3401   -6.0356 C   0  0  0  0  0  0  0  0  0  0  0  0
   -3.8099    0.3677   -6.1949 C   0  0  0  0  0  0  0  0  0  0  0  0
   -2.4810    0.6996   -6.7413 C   0  0  0  0  0  0  0  0  0  0  0  0
   -1.3600    1.7146   -6.0024 S   0  0  0  0  0  0  0  0  0  0  0  0
   -0.1270    1.4657   -7.1199 C   0  0  0  0  0  0  0  0  0  0  0  0
    1.1994    2.1633   -7.0920 C   0  0  0  0  0  0  0  0  0  0  0  0
    1.0957    3.5352   -7.7447 C   0  0  0  0  0  0  0  0  0  0  0  0
   -0.5837    0.5828   -8.0985 C   0  0  0  0  0  0  0  0  0  0  0  0
   -1.8977    0.1404   -7.8758 C   0  0  0  0  0  0  0  0  0  0  0  0
   -2.7361   -0.9966   -8.9224 Cl  0  0  0  0  0  0  0  0  0  0  0  0
    0.3833    0.0774   -9.4776 Cl  0  0  0  0  0  0  0  0  0  0  0  0
   -4.0239   -0.8712   -5.5706 C   0  0  0  0  0  0  0  0  0  0  0  0
   -2.8550   -2.0148   -5.1907 S   0  0  0  0  0  0  0  0  0  0  0  0
   -4.6706    2.7107   -6.2998 C   0  0  0  0  0  0  0  0  0  0  0  0
   -5.6599    3.5035   -5.7120 C   0  0  0  0  0  0  0  0  0  0  0  0
   -6.7852    2.4774   -4.9794 S   0  0  0  0  0  0  0  0  0  0  0  0
   -5.3407    4.8449   -5.1995 C   0  0  0  0  0  0  0  0  0  0  0  0
   -5.2755    5.0874   -3.8216 C   0  0  0  0  0  0  0  0  0  0  0  0
   -4.2648    5.9916   -3.4566 C   0  0  0  0  0  0  0  0  0  0  0  0
   -3.7552    6.1710   -2.1528 C   0  0  0  0  0  0  0  0  0  0  0  0
   -4.3443    5.5127   -0.9716 C   0  0  0  0  0  0  0  0  0  0  0  0
   -4.3787    3.8479   -0.7120 S   0  0  0  0  0  0  0  0  0  0  0  0
   -4.9925    3.9182    0.8531 C   0  0  0  0  0  0  0  0  0  0  0  0
   -5.1917    2.7276    1.7414 C   0  0  0  0  0  0  0  0  0  0  0  0
   -3.9905    2.5185    2.6582 C   0  0  0  0  0  0  0  0  0  0  0  0
   -5.1472    5.2587    1.2092 C   0  0  0  0  0  0  0  0  0  0  0  0
   -5.6962    5.7857    2.7950 Cl  0  0  0  0  0  0  0  0  0  0  0  0
   -4.7844    6.1506    0.1862 C   0  0  0  0  0  0  0  0  0  0  0  0
   -4.8478    7.9012    0.3581 Cl  0  0  0  0  0  0  0  0  0  0  0  0
   -2.5238    6.8401   -2.0397 C   0  0  0  0  0  0  0  0  0  0  0  0
   -1.8490    7.3668   -3.1447 C   0  0  0  0  0  0  0  0  0  0  0  0
   -2.4077    7.2694   -4.4359 C   0  0  0  0  0  0  0  0  0  0  0  0
   -1.6658    7.6977   -5.6362 C   0  0  0  0  0  0  0  0  0  0  0  0
   -0.2304    7.0093   -6.1839 S   0  0  0  0  0  0  0  0  0  0  0  0
   -0.0555    8.0066   -7.5262 C   0  0  0  0  0  0  0  0  0  0  0  0
    1.1196    7.9800   -8.4564 C   0  0  0  0  0  0  0  0  0  0  0  0
    2.2214    8.9109   -7.9633 C   0  0  0  0  0  0  0  0  0  0  0  0
   -1.1238    8.9048   -7.5562 C   0  0  0  0  0  0  0  0  0  0  0  0
   -2.0351    8.7216   -6.5055 C   0  0  0  0  0  0  0  0  0  0  0  0
   -3.4679    9.7113   -6.2749 Cl  0  0  0  0  0  0  0  0  0  0  0  0
   -1.2934   10.1645   -8.7711 Cl  0  0  0  0  0  0  0  0  0  0  0  0
   -3.6084    6.5503   -4.5582 C   0  0  0  0  0  0  0  0  0  0  0  0
   -4.2270    5.8623   -5.9619 S   0  0  0  0  0  0  0  0  0  0  0  0
   -0.5357    7.7738   -2.8495 C   0  0  0  0  0  0  0  0  0  0  0  0
   -0.1445    7.4779   -1.5421 C   0  0  0  0  0  0  0  0  0  0  0  0
   -1.4692    6.8151   -0.7294 S   0  0  0  0  0  0  0  0  0  0  0  0
    1.2532    7.2832   -1.1129 C   0  0  0  0  0  0  0  0  0  0  0  0
    2.3561    7.3599   -1.9600 C   0  0  0  0  0  0  0  0  0  0  0  0
    3.4955    6.6961   -1.4713 C   0  0  0  0  0  0  0  0  0  0  0  0
    4.7118    6.4847   -2.2903 C   0  0  0  0  0  0  0  0  0  0  0  0
    5.9856    6.5482   -1.7003 C   0  0  0  0  0  0  0  0  0  0  0  0
    7.1274    6.2772   -2.4554 C   0  0  0  0  0  0  0  0  0  0  0  0
    7.0161    5.9499   -3.8137 C   0  0  0  0  0  0  0  0  0  0  0  0
    8.2430    5.6032   -4.6132 C   0  0  0  0  0  0  0  0  0  0  0  0
    8.5523    4.1134   -4.5083 C   0  0  0  0  0  0  0  0  0  0  0  0
    5.7451    5.8828   -4.4062 C   0  0  0  0  0  0  0  0  0  0  0  0
    4.6019    6.1584   -3.6520 C   0  0  0  0  0  0  0  0  0  0  0  0
    3.3019    6.1216   -0.2106 C   0  0  0  0  0  0  0  0  0  0  0  0
    1.7103    6.4063    0.2504 S   0  0  0  0  0  0  0  0  0  0  0  0
    4.0995    5.0185    0.3319 C   0  0  0  0  0  0  0  0  0  0  0  0
    4.3980    3.8560   -0.3694 C   0  0  0  0  0  0  0  0  0  0  0  0
    5.1929    2.9650    0.3612 C   0  0  0  0  0  0  0  0  0  0  0  0
    5.6659    1.7174   -0.0893 C   0  0  0  0  0  0  0  0  0  0  0  0
    5.2972    1.1769   -1.4124 C   0  0  0  0  0  0  0  0  0  0  0  0
    3.7209    0.8905   -1.9196 S   0  0  0  0  0  0  0  0  0  0  0  0
    4.1100    0.3367   -3.4547 C   0  0  0  0  0  0  0  0  0  0  0  0
    3.1013   -0.1359   -4.4578 C   0  0  0  0  0  0  0  0  0  0  0  0
    2.5711   -1.5162   -4.0819 C   0  0  0  0  0  0  0  0  0  0  0  0
    5.4984    0.3664   -3.5975 C   0  0  0  0  0  0  0  0  0  0  0  0
    6.3372   -0.1190   -5.0619 Cl  0  0  0  0  0  0  0  0  0  0  0  0
    6.1634    0.8493   -2.4541 C   0  0  0  0  0  0  0  0  0  0  0  0
    7.9023    1.0918   -2.3802 Cl  0  0  0  0  0  0  0  0  0  0  0  0
    6.4700    0.9887    0.8046 C   0  0  0  0  0  0  0  0  0  0  0  0
    6.8203    1.4704    2.0713 C   0  0  0  0  0  0  0  0  0  0  0  0
    6.3751    2.7373    2.5062 C   0  0  0  0  0  0  0  0  0  0  0  0
    6.8128    3.3184    3.7917 C   0  0  0  0  0  0  0  0  0  0  0  0
    5.7881    3.8367    5.0243 S   0  0  0  0  0  0  0  0  0  0  0  0
    7.0049    4.3520    6.0667 C   0  0  0  0  0  0  0  0  0  0  0  0
    6.7712    5.0388    7.3800 C   0  0  0  0  0  0  0  0  0  0  0  0
    6.7956    6.5542    7.2113 C   0  0  0  0  0  0  0  0  0  0  0  0
    8.2379    4.1480    5.4499 C   0  0  0  0  0  0  0  0  0  0  0  0
    8.1318    3.5701    4.1752 C   0  0  0  0  0  0  0  0  0  0  0  0
    9.5218    3.2802    3.1361 Cl  0  0  0  0  0  0  0  0  0  0  0  0
    9.7747    4.5948    6.1790 Cl  0  0  0  0  0  0  0  0  0  0  0  0
    5.5299    3.4460    1.6319 C   0  0  0  0  0  0  0  0  0  0  0  0
    4.8248    4.9651    1.8530 S   0  0  0  0  0  0  0  0  0  0  0  0
    7.5774    0.5520    2.8179 C   0  0  0  0  0  0  0  0  0  0  0  0
    7.8247   -0.6374    2.1386 C   0  0  0  0  0  0  0  0  0  0  0  0
    7.0946   -0.5623    0.6199 S   0  0  0  0  0  0  0  0  0  0  0  0
    1.9326  -10.8261   10.9709 H   0  0  0  0  0  0  0  0  0  0  0  0
    2.7786   -8.7218    9.7024 H   0  0  0  0  0  0  0  0  0  0  0  0
    5.3705   -3.4528    7.1542 H   0  0  0  0  0  0  0  0  0  0  0  0
    5.6072   -4.5609    5.7600 H   0  0  0  0  0  0  0  0  0  0  0  0
    6.7196   -5.0093    8.6075 H   0  0  0  0  0  0  0  0  0  0  0  0
    7.6539   -4.4312    7.1774 H   0  0  0  0  0  0  0  0  0  0  0  0
    6.9679   -6.1032    7.1864 H   0  0  0  0  0  0  0  0  0  0  0  0
   -5.0272  -14.1272    6.9118 H   0  0  0  0  0  0  0  0  0  0  0  0
   -5.2191  -12.9798    8.2808 H   0  0  0  0  0  0  0  0  0  0  0  0
   -7.1735  -12.8587    6.7544 H   0  0  0  0  0  0  0  0  0  0  0  0
   -6.0965  -12.4704    5.3619 H   0  0  0  0  0  0  0  0  0  0  0  0
   -6.2695  -11.2983    6.7328 H   0  0  0  0  0  0  0  0  0  0  0  0
   -2.0666   -9.1801    4.4806 H   0  0  0  0  0  0  0  0  0  0  0  0
   -0.2971   -4.9715    2.8504 H   0  0  0  0  0  0  0  0  0  0  0  0
    2.1734    0.1185    0.2668 H   0  0  0  0  0  0  0  0  0  0  0  0
    1.5576    0.8824    1.7620 H   0  0  0  0  0  0  0  0  0  0  0  0
    3.9266    0.1739    2.0295 H   0  0  0  0  0  0  0  0  0  0  0  0
    3.4852   -1.5313    1.6315 H   0  0  0  0  0  0  0  0  0  0  0  0
    2.8622   -0.7591    3.1460 H   0  0  0  0  0  0  0  0  0  0  0  0
   -4.9311  -11.3922   -2.1507 H   0  0  0  0  0  0  0  0  0  0  0  0
   -6.6298  -10.8967   -2.4460 H   0  0  0  0  0  0  0  0  0  0  0  0
   -5.3965  -11.5549    0.3148 H   0  0  0  0  0  0  0  0  0  0  0  0
   -7.1221  -11.0892    0.0058 H   0  0  0  0  0  0  0  0  0  0  0  0
   -6.4676  -12.6338   -0.6567 H   0  0  0  0  0  0  0  0  0  0  0  0
   -4.4418   -5.4588   -2.9243 H   0  0  0  0  0  0  0  0  0  0  0  0
   -5.8393   -2.6668   -3.3865 H   0  0  0  0  0  0  0  0  0  0  0  0
  -10.6353   -1.6988   -0.9162 H   0  0  0  0  0  0  0  0  0  0  0  0
   -9.1217   -1.3028   -0.0271 H   0  0  0  0  0  0  0  0  0  0  0  0
  -10.9535    0.2586    0.5994 H   0  0  0  0  0  0  0  0  0  0  0  0
   -9.6238    1.1452   -0.2425 H   0  0  0  0  0  0  0  0  0  0  0  0
  -11.1536    0.7518   -1.1263 H   0  0  0  0  0  0  0  0  0  0  0  0
    1.5293    2.2852   -6.0400 H   0  0  0  0  0  0  0  0  0  0  0  0
    1.9664    1.5566   -7.6194 H   0  0  0  0  0  0  0  0  0  0  0  0
    0.3887    4.1765   -7.1772 H   0  0  0  0  0  0  0  0  0  0  0  0
    0.7471    3.4372   -8.7959 H   0  0  0  0  0  0  0  0  0  0  0  0
    2.0945    4.0262   -7.7394 H   0  0  0  0  0  0  0  0  0  0  0  0
   -3.7687    3.1291   -6.7271 H   0  0  0  0  0  0  0  0  0  0  0  0
   -5.7997    4.4738   -3.1020 H   0  0  0  0  0  0  0  0  0  0  0  0
   -5.3287    1.8211    1.1156 H   0  0  0  0  0  0  0  0  0  0  0  0
   -6.1087    2.8583    2.3563 H   0  0  0  0  0  0  0  0  0  0  0  0
   -3.0726    2.3427    2.0548 H   0  0  0  0  0  0  0  0  0  0  0  0
   -3.8361    3.4059    3.3104 H   0  0  0  0  0  0  0  0  0  0  0  0
   -4.1733    1.6313    3.3049 H   0  0  0  0  0  0  0  0  0  0  0  0
    1.5160    6.9436   -8.5148 H   0  0  0  0  0  0  0  0  0  0  0  0
    0.8086    8.2821   -9.4795 H   0  0  0  0  0  0  0  0  0  0  0  0
    3.0958    8.8377   -8.6406 H   0  0  0  0  0  0  0  0  0  0  0  0
    1.8620    9.9608   -7.9545 H   0  0  0  0  0  0  0  0  0  0  0  0
    2.5426    8.6230   -6.9389 H   0  0  0  0  0  0  0  0  0  0  0  0
    0.1523    8.1377   -3.5998 H   0  0  0  0  0  0  0  0  0  0  0  0
    2.3191    7.7903   -2.9504 H   0  0  0  0  0  0  0  0  0  0  0  0
    6.0948    6.7967   -0.6526 H   0  0  0  0  0  0  0  0  0  0  0  0
    8.1003    6.3148   -1.9781 H   0  0  0  0  0  0  0  0  0  0  0  0
    9.1141    6.1887   -4.2454 H   0  0  0  0  0  0  0  0  0  0  0  0
    8.0917    5.8714   -5.6823 H   0  0  0  0  0  0  0  0  0  0  0  0
    9.4627    3.8815   -5.0994 H   0  0  0  0  0  0  0  0  0  0  0  0
    8.7335    3.8331   -3.4494 H   0  0  0  0  0  0  0  0  0  0  0  0
    7.7078    3.5148   -4.9091 H   0  0  0  0  0  0  0  0  0  0  0  0
    5.6414    5.6046   -5.4476 H   0  0  0  0  0  0  0  0  0  0  0  0
    3.6301    6.0785   -4.1283 H   0  0  0  0  0  0  0  0  0  0  0  0
    4.0541    3.6791   -1.3819 H   0  0  0  0  0  0  0  0  0  0  0  0
    3.5418   -0.1742   -5.4770 H   0  0  0  0  0  0  0  0  0  0  0  0
    2.2566    0.5843   -4.4789 H   0  0  0  0  0  0  0  0  0  0  0  0
    3.3989   -2.2576   -4.0840 H   0  0  0  0  0  0  0  0  0  0  0  0
    2.1010   -1.4893   -3.0760 H   0  0  0  0  0  0  0  0  0  0  0  0
    1.8047   -1.8317   -4.8213 H   0  0  0  0  0  0  0  0  0  0  0  0
    5.7868    4.7298    7.7878 H   0  0  0  0  0  0  0  0  0  0  0  0
    7.5508    4.7302    8.1066 H   0  0  0  0  0  0  0  0  0  0  0  0
    6.0132    6.8743    6.4902 H   0  0  0  0  0  0  0  0  0  0  0  0
    7.7898    6.8881    6.8440 H   0  0  0  0  0  0  0  0  0  0  0  0
    6.5933    7.0369    8.1879 H   0  0  0  0  0  0  0  0  0  0  0  0
    7.9274    0.7277    3.8275 H   0  0  0  0  0  0  0  0  0  0  0  0
    8.3788   -1.4813    2.5279 H   0  0  0  0  0  0  0  0  0  0  0  0
  1  2  2  0
  2  3  1  0
  3  4  2  0
  4  5  1  0
  5  6  1  0
  6  7  1  0
  7  8  1  0
  8  9  1  0
  7 10  2  0
 10 11  1  0
 10 12  1  0
 12 13  1  0
  4 14  1  0
 14 15  2  0
 15 16  1  0
 16 17  1  0
 17 18  1  0
 18 19  1  0
 19 20  1  0
 20 21  1  0
 19 22  2  0
 22 23  1  0
 23 24  1  0
 22 25  1  0
 16 26  2  0
 26 27  1  0
 15 28  1  0
 28 29  2  0
 29 30  1  0
 29 31  1  0
 31 32  2  0
 32 33  1  0
 33 34  2  0
 34 35  1  0
 35 36  1  0
 36 37  1  0
 37 38  1  0
 38 39  1  0
 37 40  2  0
 40 41  1  0
 40 42  1  0
 42 43  1  0
 34 44  1  0
 44 45  2  0
 45 46  1  0
 46 47  1  0
 47 48  1  0
 48 49  1  0
 49 50  1  0
 50 51  1  0
 49 52  2  0
 52 53  1  0
 53 54  1  0
 52 55  1  0
 46 56  2  0
 56 57  1  0
 45 58  1  0
 58 59  2  0
 59 60  1  0
 59 61  1  0
 61 62  2  0
 62 63  1  0
 63 64  2  0
 64 65  1  0
 65 66  1  0
 66 67  1  0
 67 68  1  0
 68 69  1  0
 67 70  2  0
 70 71  1  0
 70 72  1  0
 72 73  1  0
 64 74  1  0
 74 75  2  0
 75 76  1  0
 76 77  1  0
 77 78  1  0
 78 79  1  0
 79 80  1  0
 80 81  1  0
 79 82  2  0
 82 83  1  0
 83 84  1  0
 82 85  1  0
 76 86  2  0
 86 87  1  0
 75 88  1  0
 88 89  2  0
 89 90  1  0
 89 91  1  0
 91 92  2  0
 92 93  1  0
 93 94  2  0
 94 95  1  0
 95 96  1  0
 96 97  1  0
 97 98  1  0
 98 99  1  0
 97100  2  0
100101  1  0
100102  1  0
102103  1  0
 94104  1  0
104105  2  0
105106  1  0
106107  1  0
107108  1  0
108109  1  0
109110  1  0
110111  1  0
109112  2  0
112113  1  0
113114  1  0
112115  1  0
106116  2  0
116117  1  0
105118  1  0
118119  2  0
119120  1  0
119121  1  0
121122  2  0
122123  1  0
123124  1  0
124125  2  0
125126  1  0
126127  2  0
127128  1  0
128129  1  0
127130  1  0
130131  2  0
123132  2  0
132133  1  0
132134  1  0
134135  2  0
135136  1  0
136137  2  0
137138  1  0
138139  1  0
139140  1  0
140141  1  0
141142  1  0
140143  2  0
143144  1  0
143145  1  0
145146  1  0
137147  1  0
147148  2  0
148149  1  0
149150  1  0
150151  1  0
151152  1  0
152153  1  0
153154  1  0
152155  2  0
155156  1  0
156157  1  0
155158  1  0
149159  2  0
159160  1  0
148161  1  0
161162  2  0
162163  1  0
 27  1  1  0
 57 31  1  0
 87 61  1  0
117 91  1  0
133121  1  0
160134  1  0
 26  3  1  0
 56 33  1  0
 86 63  1  0
116 93  1  0
131124  1  0
159136  1  0
 12  5  2  0
 30 14  1  0
 42 35  2  0
 60 44  1  0
 72 65  2  0
 90 74  1  0
102 95  2  0
120104  1  0
145138  2  0
163147  1  0
 23 17  2  0
 53 47  2  0
 83 77  2  0
113107  2  0
156150  2  0
  1164  1  0
  2165  1  0
  8166  1  0
  8167  1  0
  9168  1  0
  9169  1  0
  9170  1  0
 20171  1  0
 20172  1  0
 21173  1  0
 21174  1  0
 21175  1  0
 28176  1  0
 32177  1  0
 38178  1  0
 38179  1  0
 39180  1  0
 39181  1  0
 39182  1  0
 50183  1  0
 50184  1  0
 51185  1  0
 51186  1  0
 51187  1  0
 58188  1  0
 62189  1  0
 68190  1  0
 68191  1  0
 69192  1  0
 69193  1  0
 69194  1  0
 80195  1  0
 80196  1  0
 81197  1  0
 81198  1  0
 81199  1  0
 88200  1  0
 92201  1  0
 98202  1  0
 98203  1  0
 99204  1  0
 99205  1  0
 99206  1  0
110207  1  0
110208  1  0
111209  1  0
111210  1  0
111211  1  0
118212  1  0
122213  1  0
125214  1  0
126215  1  0
128216  1  0
128217  1  0
129218  1  0
129219  1  0
129220  1  0
130221  1  0
131222  1  0
135223  1  0
141224  1  0
141225  1  0
142226  1  0
142227  1  0
142228  1  0
153229  1  0
153230  1  0
154231  1  0
154232  1  0
154233  1  0
161234  1  0
162235  1  0
M  END

