
     RDKit          3D

222243  0  0  0  0  0  0  0  0999 V2000
   10.1577   -4.4057   10.5836 C   0  0  0  0  0  0  0  0  0  0  0  0
    9.3013   -3.4932   11.2033 C   0  0  0  0  0  0  0  0  0  0  0  0
    9.1815   -3.4899   12.5550 F   0  0  0  0  0  0  0  0  0  0  0  0
    8.5719   -2.5838   10.4366 C   0  0  0  0  0  0  0  0  0  0  0  0
    8.6873   -2.5703    9.0327 C   0  0  0  0  0  0  0  0  0  0  0  0
    9.5688   -3.4862    8.4162 C   0  0  0  0  0  0  0  0  0  0  0  0
    9.7006   -3.5384    7.0678 F   0  0  0  0  0  0  0  0  0  0  0  0
   10.2944   -4.3968    9.1933 C   0  0  0  0  0  0  0  0  0  0  0  0
    7.8721   -1.6219    8.2344 C   0  0  0  0  0  0  0  0  0  0  0  0
    6.6309   -1.1028    8.6153 C   0  0  0  0  0  0  0  0  0  0  0  0
    6.0585   -0.2670    7.6446 C   0  0  0  0  0  0  0  0  0  0  0  0
    4.7955    0.3484    7.7233 C   0  0  0  0  0  0  0  0  0  0  0  0
    3.9174    0.2094    8.8992 C   0  0  0  0  0  0  0  0  0  0  0  0
    3.2411   -0.9948    9.1432 C   0  0  0  0  0  0  0  0  0  0  0  0
    2.3324   -1.0864   10.2013 C   0  0  0  0  0  0  0  0  0  0  0  0
    2.0978    0.0226   11.0247 C   0  0  0  0  0  0  0  0  0  0  0  0
    0.9029   -0.0867   12.3618 S   0  0  0  0  0  0  0  0  0  0  0  0
   -0.4818    0.5186   11.3370 C   0  0  0  0  0  0  0  0  0  0  0  0
   -1.7029    0.7663   12.2087 C   0  0  0  0  0  0  0  0  0  0  0  0
    2.7905    1.2184   10.7978 C   0  0  0  0  0  0  0  0  0  0  0  0
    2.5748    2.2987   11.5886 F   0  0  0  0  0  0  0  0  0  0  0  0
    3.6913    1.3121    9.7359 C   0  0  0  0  0  0  0  0  0  0  0  0
    4.3872    1.0982    6.6131 C   0  0  0  0  0  0  0  0  0  0  0  0
    5.1806    1.2718    5.4740 C   0  0  0  0  0  0  0  0  0  0  0  0
    6.4535    0.6641    5.3978 C   0  0  0  0  0  0  0  0  0  0  0  0
    7.3064    0.7725    4.1960 C   0  0  0  0  0  0  0  0  0  0  0  0
    6.8614    0.2628    2.9661 C   0  0  0  0  0  0  0  0  0  0  0  0
    7.6829    0.3319    1.8382 C   0  0  0  0  0  0  0  0  0  0  0  0
    8.9556    0.9109    1.9252 C   0  0  0  0  0  0  0  0  0  0  0  0
   10.0287    0.9459    0.4827 S   0  0  0  0  0  0  0  0  0  0  0  0
    9.4541    2.5692   -0.1287 C   0  0  0  0  0  0  0  0  0  0  0  0
    8.3201    2.3910   -1.1275 C   0  0  0  0  0  0  0  0  0  0  0  0
    9.4019    1.4218    3.1532 C   0  0  0  0  0  0  0  0  0  0  0  0
    8.5796    1.3528    4.2819 C   0  0  0  0  0  0  0  0  0  0  0  0
   10.6362    1.9736    3.2575 F   0  0  0  0  0  0  0  0  0  0  0  0
    6.8578   -0.1043    6.5095 C   0  0  0  0  0  0  0  0  0  0  0  0
    8.2573   -1.0199    6.6993 S   0  0  0  0  0  0  0  0  0  0  0  0
    4.5508    2.0456    4.4777 C   0  0  0  0  0  0  0  0  0  0  0  0
    3.2559    2.4175    4.8334 C   0  0  0  0  0  0  0  0  0  0  0  0
    2.8987    1.8324    6.3734 S   0  0  0  0  0  0  0  0  0  0  0  0
    2.2747    3.0895    3.9729 C   0  0  0  0  0  0  0  0  0  0  0  0
    0.9023    2.9142    4.0846 C   0  0  0  0  0  0  0  0  0  0  0  0
    0.1756    3.6333    3.1269 C   0  0  0  0  0  0  0  0  0  0  0  0
   -1.2231    3.5948    2.9532 C   0  0  0  0  0  0  0  0  0  0  0  0
   -2.0875    2.6835    3.7465 C   0  0  0  0  0  0  0  0  0  0  0  0
   -2.1434    2.7791    5.1474 C   0  0  0  0  0  0  0  0  0  0  0  0
   -2.9388    1.8949    5.8834 C   0  0  0  0  0  0  0  0  0  0  0  0
   -3.6962    0.9175    5.2292 C   0  0  0  0  0  0  0  0  0  0  0  0
   -4.7437   -0.1869    6.1795 S   0  0  0  0  0  0  0  0  0  0  0  0
   -3.4952   -1.5151    6.2548 C   0  0  0  0  0  0  0  0  0  0  0  0
   -4.0859   -2.7409    6.9350 C   0  0  0  0  0  0  0  0  0  0  0  0
   -3.6521    0.8234    3.8316 C   0  0  0  0  0  0  0  0  0  0  0  0
   -4.3798   -0.1180    3.1840 F   0  0  0  0  0  0  0  0  0  0  0  0
   -2.8410    1.6931    3.0971 C   0  0  0  0  0  0  0  0  0  0  0  0
   -1.7446    4.3562    1.8935 C   0  0  0  0  0  0  0  0  0  0  0  0
   -0.9423    5.0783    1.0049 C   0  0  0  0  0  0  0  0  0  0  0  0
    0.4616    5.1109    1.1762 C   0  0  0  0  0  0  0  0  0  0  0  0
    1.3423    5.8560    0.2483 C   0  0  0  0  0  0  0  0  0  0  0  0
    1.1507    7.2315    0.0462 C   0  0  0  0  0  0  0  0  0  0  0  0
    1.9638    7.9368   -0.8449 C   0  0  0  0  0  0  0  0  0  0  0  0
    2.9824    7.2752   -1.5392 C   0  0  0  0  0  0  0  0  0  0  0  0
    4.0200    8.1920   -2.6837 S   0  0  0  0  0  0  0  0  0  0  0  0
    2.9956    7.7753   -4.1348 C   0  0  0  0  0  0  0  0  0  0  0  0
    3.5625    8.4304   -5.3856 C   0  0  0  0  0  0  0  0  0  0  0  0
    3.1916    5.9058   -1.3297 C   0  0  0  0  0  0  0  0  0  0  0  0
    2.3672    5.1961   -0.4499 C   0  0  0  0  0  0  0  0  0  0  0  0
    4.1804    5.2536   -1.9923 F   0  0  0  0  0  0  0  0  0  0  0  0
    0.9873    4.3687    2.2539 C   0  0  0  0  0  0  0  0  0  0  0  0
    2.6052    4.1307    2.6846 S   0  0  0  0  0  0  0  0  0  0  0  0
   -1.6682    5.6133   -0.0795 C   0  0  0  0  0  0  0  0  0  0  0  0
   -3.0391    5.3331   -0.0224 C   0  0  0  0  0  0  0  0  0  0  0  0
   -3.3332    4.4224    1.3679 S   0  0  0  0  0  0  0  0  0  0  0  0
   -3.9866    5.3514   -1.1595 C   0  0  0  0  0  0  0  0  0  0  0  0
   -5.3731    5.2827   -0.9243 C   0  0  0  0  0  0  0  0  0  0  0  0
   -5.8812    5.5956    0.2944 F   0  0  0  0  0  0  0  0  0  0  0  0
   -6.2236    4.7400   -1.8893 C   0  0  0  0  0  0  0  0  0  0  0  0
   -5.7029    4.2606   -3.1023 C   0  0  0  0  0  0  0  0  0  0  0  0
   -4.3600    4.5511   -3.4238 C   0  0  0  0  0  0  0  0  0  0  0  0
   -3.8037    4.1242   -4.5868 F   0  0  0  0  0  0  0  0  0  0  0  0
   -3.5120    5.0970   -2.4558 C   0  0  0  0  0  0  0  0  0  0  0  0
   -6.3846    3.1140   -3.7442 C   0  0  0  0  0  0  0  0  0  0  0  0
   -6.1394    2.6570   -5.0441 C   0  0  0  0  0  0  0  0  0  0  0  0
   -6.2381    1.2583   -5.1719 C   0  0  0  0  0  0  0  0  0  0  0  0
   -5.7693    0.5086   -6.2680 C   0  0  0  0  0  0  0  0  0  0  0  0
   -5.2910    1.1688   -7.5072 C   0  0  0  0  0  0  0  0  0  0  0  0
   -3.9257    1.1674   -7.8310 C   0  0  0  0  0  0  0  0  0  0  0  0
   -3.4775    1.8030   -8.9913 C   0  0  0  0  0  0  0  0  0  0  0  0
   -4.3875    2.4521   -9.8340 C   0  0  0  0  0  0  0  0  0  0  0  0
   -3.7969    3.3075  -11.3027 S   0  0  0  0  0  0  0  0  0  0  0  0
   -4.0031    1.8813  -12.4277 C   0  0  0  0  0  0  0  0  0  0  0  0
   -2.7228    1.0608  -12.4896 C   0  0  0  0  0  0  0  0  0  0  0  0
   -5.7502    2.4682   -9.5077 C   0  0  0  0  0  0  0  0  0  0  0  0
   -6.6413    3.0952  -10.3169 F   0  0  0  0  0  0  0  0  0  0  0  0
   -6.2018    1.8294   -8.3493 C   0  0  0  0  0  0  0  0  0  0  0  0
   -5.6079   -0.8737   -6.0647 C   0  0  0  0  0  0  0  0  0  0  0  0
   -5.9215   -1.5054   -4.8533 C   0  0  0  0  0  0  0  0  0  0  0  0
   -6.4677   -0.7658   -3.7832 C   0  0  0  0  0  0  0  0  0  0  0  0
   -6.6416   -1.3650   -2.4390 C   0  0  0  0  0  0  0  0  0  0  0  0
   -5.7661   -1.0175   -1.3981 C   0  0  0  0  0  0  0  0  0  0  0  0
   -5.9036   -1.6036   -0.1370 C   0  0  0  0  0  0  0  0  0  0  0  0
   -6.9145   -2.5400    0.0983 C   0  0  0  0  0  0  0  0  0  0  0  0
   -7.0436   -3.3322    1.7084 S   0  0  0  0  0  0  0  0  0  0  0  0
   -8.2442   -2.1400    2.3973 C   0  0  0  0  0  0  0  0  0  0  0  0
   -7.5301   -0.9501    3.0234 C   0  0  0  0  0  0  0  0  0  0  0  0
   -7.7910   -2.8937   -0.9395 C   0  0  0  0  0  0  0  0  0  0  0  0
   -7.6497   -2.3095   -2.2028 C   0  0  0  0  0  0  0  0  0  0  0  0
   -8.7702   -3.8095   -0.7297 F   0  0  0  0  0  0  0  0  0  0  0  0
   -6.6051    0.6206   -3.9830 C   0  0  0  0  0  0  0  0  0  0  0  0
   -6.8304    1.7844   -2.8028 S   0  0  0  0  0  0  0  0  0  0  0  0
   -5.4422   -2.8260   -4.7777 C   0  0  0  0  0  0  0  0  0  0  0  0
   -4.7197   -3.2068   -5.9093 C   0  0  0  0  0  0  0  0  0  0  0  0
   -4.7386   -1.9421   -7.0247 S   0  0  0  0  0  0  0  0  0  0  0  0
   -3.7575   -4.3129   -5.9554 C   0  0  0  0  0  0  0  0  0  0  0  0
   -2.5377   -4.2494   -6.6237 C   0  0  0  0  0  0  0  0  0  0  0  0
   -1.6961   -5.3345   -6.3368 C   0  0  0  0  0  0  0  0  0  0  0  0
   -0.3727   -5.5005   -6.7954 C   0  0  0  0  0  0  0  0  0  0  0  0
    0.2900   -4.4823   -7.6401 C   0  0  0  0  0  0  0  0  0  0  0  0
    1.3915   -3.7656   -7.1474 C   0  0  0  0  0  0  0  0  0  0  0  0
    1.9796   -2.7583   -7.9189 C   0  0  0  0  0  0  0  0  0  0  0  0
    1.4698   -2.4554   -9.1875 C   0  0  0  0  0  0  0  0  0  0  0  0
    2.2270   -1.1605  -10.1784 S   0  0  0  0  0  0  0  0  0  0  0  0
    1.2457    0.2084   -9.4663 C   0  0  0  0  0  0  0  0  0  0  0  0
    2.0748    0.9682   -8.4416 C   0  0  0  0  0  0  0  0  0  0  0  0
    0.3774   -3.1755   -9.6884 C   0  0  0  0  0  0  0  0  0  0  0  0
   -0.1219   -2.8970  -10.9160 F   0  0  0  0  0  0  0  0  0  0  0  0
   -0.2080   -4.1871   -8.9199 C   0  0  0  0  0  0  0  0  0  0  0  0
    0.3109   -6.6440   -6.3515 C   0  0  0  0  0  0  0  0  0  0  0  0
   -0.2585   -7.5751   -5.4769 C   0  0  0  0  0  0  0  0  0  0  0  0
   -1.5699   -7.3873   -4.9853 C   0  0  0  0  0  0  0  0  0  0  0  0
   -2.1632   -8.2976   -3.9805 C   0  0  0  0  0  0  0  0  0  0  0  0
   -2.3713   -9.6514   -4.2788 C   0  0  0  0  0  0  0  0  0  0  0  0
   -2.8753  -10.5174   -3.3036 C   0  0  0  0  0  0  0  0  0  0  0  0
   -3.1751  -10.0356   -2.0224 C   0  0  0  0  0  0  0  0  0  0  0  0
   -3.7918  -11.1597   -0.7668 S   0  0  0  0  0  0  0  0  0  0  0  0
   -2.1247  -11.5704   -0.1522 C   0  0  0  0  0  0  0  0  0  0  0  0
   -2.2213  -12.6017    0.9663 C   0  0  0  0  0  0  0  0  0  0  0  0
   -2.9862   -8.6804   -1.7267 C   0  0  0  0  0  0  0  0  0  0  0  0
   -2.4817   -7.8152   -2.7001 C   0  0  0  0  0  0  0  0  0  0  0  0
   -3.2738   -8.2010   -0.4905 F   0  0  0  0  0  0  0  0  0  0  0  0
   -2.2629   -6.2511   -5.4424 C   0  0  0  0  0  0  0  0  0  0  0  0
   -3.7958   -5.7049   -4.9961 S   0  0  0  0  0  0  0  0  0  0  0  0
    0.6171   -8.6253   -5.1486 C   0  0  0  0  0  0  0  0  0  0  0  0
    1.8574   -8.5223   -5.7731 C   0  0  0  0  0  0  0  0  0  0  0  0
    1.8765   -7.1295   -6.7251 S   0  0  0  0  0  0  0  0  0  0  0  0
   10.7165   -5.1160   11.1784 H   0  0  0  0  0  0  0  0  0  0  0  0
    7.9211   -1.8853   10.9456 H   0  0  0  0  0  0  0  0  0  0  0  0
   10.9607   -5.1042    8.7179 H   0  0  0  0  0  0  0  0  0  0  0  0
    6.1369   -1.3546    9.5442 H   0  0  0  0  0  0  0  0  0  0  0  0
    3.4018   -1.8500    8.4976 H   0  0  0  0  0  0  0  0  0  0  0  0
    1.8009   -2.0138   10.3708 H   0  0  0  0  0  0  0  0  0  0  0  0
   -0.1987    1.4721   10.8400 H   0  0  0  0  0  0  0  0  0  0  0  0
   -0.7263   -0.2381   10.5608 H   0  0  0  0  0  0  0  0  0  0  0  0
   -2.5411    1.1356   11.5796 H   0  0  0  0  0  0  0  0  0  0  0  0
   -1.4707    1.5315   12.9783 H   0  0  0  0  0  0  0  0  0  0  0  0
   -2.0168   -0.1762   12.7077 H   0  0  0  0  0  0  0  0  0  0  0  0
    4.2080    2.2473    9.5536 H   0  0  0  0  0  0  0  0  0  0  0  0
    5.8835   -0.1975    2.8866 H   0  0  0  0  0  0  0  0  0  0  0  0
    7.3365   -0.0814    0.8995 H   0  0  0  0  0  0  0  0  0  0  0  0
   10.3023    3.0715   -0.6396 H   0  0  0  0  0  0  0  0  0  0  0  0
    9.1269    3.2240    0.7088 H   0  0  0  0  0  0  0  0  0  0  0  0
    8.0373    3.3783   -1.5526 H   0  0  0  0  0  0  0  0  0  0  0  0
    7.4324    1.9490   -0.6314 H   0  0  0  0  0  0  0  0  0  0  0  0
    8.6418    1.7252   -1.9565 H   0  0  0  0  0  0  0  0  0  0  0  0
    8.9354    1.7507    5.2262 H   0  0  0  0  0  0  0  0  0  0  0  0
    4.9945    2.2839    3.5216 H   0  0  0  0  0  0  0  0  0  0  0  0
    0.4576    2.2490    4.8076 H   0  0  0  0  0  0  0  0  0  0  0  0
   -1.5754    3.5392    5.6678 H   0  0  0  0  0  0  0  0  0  0  0  0
   -2.9702    1.9739    6.9624 H   0  0  0  0  0  0  0  0  0  0  0  0
   -2.6073   -1.1638    6.8264 H   0  0  0  0  0  0  0  0  0  0  0  0
   -3.1852   -1.7882    5.2224 H   0  0  0  0  0  0  0  0  0  0  0  0
   -4.3964   -2.4922    7.9713 H   0  0  0  0  0  0  0  0  0  0  0  0
   -3.3292   -3.5522    6.9714 H   0  0  0  0  0  0  0  0  0  0  0  0
   -4.9704   -3.1009    6.3646 H   0  0  0  0  0  0  0  0  0  0  0  0
   -2.8013    1.5907    2.0158 H   0  0  0  0  0  0  0  0  0  0  0  0
    0.3709    7.7592    0.5818 H   0  0  0  0  0  0  0  0  0  0  0  0
    1.8004    8.9955   -0.9977 H   0  0  0  0  0  0  0  0  0  0  0  0
    1.9540    8.1317   -3.9750 H   0  0  0  0  0  0  0  0  0  0  0  0
    2.9875    6.6732   -4.2725 H   0  0  0  0  0  0  0  0  0  0  0  0
    2.9196    8.1825   -6.2547 H   0  0  0  0  0  0  0  0  0  0  0  0
    3.5937    9.5325   -5.2651 H   0  0  0  0  0  0  0  0  0  0  0  0
    4.5892    8.0549   -5.5839 H   0  0  0  0  0  0  0  0  0  0  0  0
    2.5209    4.1323   -0.3156 H   0  0  0  0  0  0  0  0  0  0  0  0
   -1.2037    6.1081   -0.9209 H   0  0  0  0  0  0  0  0  0  0  0  0
   -7.2552    4.5477   -1.6277 H   0  0  0  0  0  0  0  0  0  0  0  0
   -2.4560    5.1484   -2.6772 H   0  0  0  0  0  0  0  0  0  0  0  0
   -5.7432    3.2915   -5.8260 H   0  0  0  0  0  0  0  0  0  0  0  0
   -3.2109    0.6741   -7.1848 H   0  0  0  0  0  0  0  0  0  0  0  0
   -2.4256    1.7893   -9.2340 H   0  0  0  0  0  0  0  0  0  0  0  0
   -4.2276    2.2688  -13.4434 H   0  0  0  0  0  0  0  0  0  0  0  0
   -4.8508    1.2385  -12.1081 H   0  0  0  0  0  0  0  0  0  0  0  0
   -1.8721    1.7052  -12.7950 H   0  0  0  0  0  0  0  0  0  0  0  0
   -2.8362    0.2438  -13.2352 H   0  0  0  0  0  0  0  0  0  0  0  0
   -2.5014    0.6122  -11.4997 H   0  0  0  0  0  0  0  0  0  0  0  0
   -7.2565    1.8473   -8.1069 H   0  0  0  0  0  0  0  0  0  0  0  0
   -4.9670   -0.3056   -1.5666 H   0  0  0  0  0  0  0  0  0  0  0  0
   -5.2101   -1.3424    0.6533 H   0  0  0  0  0  0  0  0  0  0  0  0
   -8.8296   -2.6589    3.1845 H   0  0  0  0  0  0  0  0  0  0  0  0
   -8.9539   -1.7921    1.6144 H   0  0  0  0  0  0  0  0  0  0  0  0
   -6.7895   -1.2995    3.7740 H   0  0  0  0  0  0  0  0  0  0  0  0
   -7.0122   -0.3537    2.2430 H   0  0  0  0  0  0  0  0  0  0  0  0
   -8.2725   -0.2995    3.5342 H   0  0  0  0  0  0  0  0  0  0  0  0
   -8.3246   -2.5963   -2.9995 H   0  0  0  0  0  0  0  0  0  0  0  0
   -5.4865   -3.4288   -3.8810 H   0  0  0  0  0  0  0  0  0  0  0  0
   -2.2416   -3.4077   -7.2342 H   0  0  0  0  0  0  0  0  0  0  0  0
    1.7818   -3.9697   -6.1573 H   0  0  0  0  0  0  0  0  0  0  0  0
    2.8320   -2.2174   -7.5291 H   0  0  0  0  0  0  0  0  0  0  0  0
    0.3095   -0.1568   -8.9951 H   0  0  0  0  0  0  0  0  0  0  0  0
    0.9651    0.9033  -10.2867 H   0  0  0  0  0  0  0  0  0  0  0  0
    1.4816    1.8102   -8.0233 H   0  0  0  0  0  0  0  0  0  0  0  0
    2.3681    0.2903   -7.6126 H   0  0  0  0  0  0  0  0  0  0  0  0
    2.9905    1.3726   -8.9194 H   0  0  0  0  0  0  0  0  0  0  0  0
   -1.0545   -4.7346   -9.3146 H   0  0  0  0  0  0  0  0  0  0  0  0
   -2.1330  -10.0382   -5.2617 H   0  0  0  0  0  0  0  0  0  0  0  0
   -3.0213  -11.5636   -3.5393 H   0  0  0  0  0  0  0  0  0  0  0  0
   -1.6354  -10.6523    0.2373 H   0  0  0  0  0  0  0  0  0  0  0  0
   -1.5091  -11.9847   -0.9799 H   0  0  0  0  0  0  0  0  0  0  0  0
   -2.8053  -12.1886    1.8152 H   0  0  0  0  0  0  0  0  0  0  0  0
   -1.2012  -12.8557    1.3228 H   0  0  0  0  0  0  0  0  0  0  0  0
   -2.7153  -13.5246    0.5968 H   0  0  0  0  0  0  0  0  0  0  0  0
   -2.3213   -6.7729   -2.4542 H   0  0  0  0  0  0  0  0  0  0  0  0
    0.3777   -9.4297   -4.4695 H   0  0  0  0  0  0  0  0  0  0  0  0
    2.6747   -9.2219   -5.6579 H   0  0  0  0  0  0  0  0  0  0  0  0
  1  2  2  0
  2  3  1  0
  2  4  1  0
  4  5  2  0
  5  6  1  0
  6  7  1  0
  6  8  2  0
  5  9  1  0
  9 10  2  0
 10 11  1  0
 11 12  2  0
 12 13  1  0
 13 14  2  0
 14 15  1  0
 15 16  2  0
 16 17  1  0
 17 18  1  0
 18 19  1  0
 16 20  1  0
 20 21  1  0
 20 22  2  0
 12 23  1  0
 23 24  2  0
 24 25  1  0
 25 26  1  0
 26 27  2  0
 27 28  1  0
 28 29  2  0
 29 30  1  0
 30 31  1  0
 31 32  1  0
 29 33  1  0
 33 34  2  0
 33 35  1  0
 25 36  2  0
 36 37  1  0
 24 38  1  0
 38 39  2  0
 39 40  1  0
 39 41  1  0
 41 42  2  0
 42 43  1  0
 43 44  2  0
 44 45  1  0
 45 46  2  0
 46 47  1  0
 47 48  2  0
 48 49  1  0
 49 50  1  0
 50 51  1  0
 48 52  1  0
 52 53  1  0
 52 54  2  0
 44 55  1  0
 55 56  2  0
 56 57  1  0
 57 58  1  0
 58 59  2  0
 59 60  1  0
 60 61  2  0
 61 62  1  0
 62 63  1  0
 63 64  1  0
 61 65  1  0
 65 66  2  0
 65 67  1  0
 57 68  2  0
 68 69  1  0
 56 70  1  0
 70 71  2  0
 71 72  1  0
 71 73  1  0
 73 74  2  0
 74 75  1  0
 74 76  1  0
 76 77  2  0
 77 78  1  0
 78 79  1  0
 78 80  2  0
 77 81  1  0
 81 82  2  0
 82 83  1  0
 83 84  2  0
 84 85  1  0
 85 86  2  0
 86 87  1  0
 87 88  2  0
 88 89  1  0
 89 90  1  0
 90 91  1  0
 88 92  1  0
 92 93  1  0
 92 94  2  0
 84 95  1  0
 95 96  2  0
 96 97  1  0
 97 98  1  0
 98 99  2  0
 99100  1  0
100101  2  0
101102  1  0
102103  1  0
103104  1  0
101105  1  0
105106  2  0
105107  1  0
 97108  2  0
108109  1  0
 96110  1  0
110111  2  0
111112  1  0
111113  1  0
113114  2  0
114115  1  0
115116  2  0
116117  1  0
117118  2  0
118119  1  0
119120  2  0
120121  1  0
121122  1  0
122123  1  0
120124  1  0
124125  1  0
124126  2  0
116127  1  0
127128  2  0
128129  1  0
129130  1  0
130131  2  0
131132  1  0
132133  2  0
133134  1  0
134135  1  0
135136  1  0
133137  1  0
137138  2  0
137139  1  0
129140  2  0
140141  1  0
128142  1  0
142143  2  0
143144  1  0
  8  1  1  0
 37  9  1  0
 69 41  1  0
 80 73  1  0
109 81  1  0
141113  1  0
 36 11  1  0
 68 43  1  0
108 83  1  0
140115  1  0
 22 13  1  0
 40 23  1  0
 54 45  1  0
 72 55  1  0
 94 85  1  0
112 95  1  0
126117  1  0
144127  1  0
 34 26  1  0
 66 58  1  0
106 98  1  0
138130  1  0
  1145  1  0
  4146  1  0
  8147  1  0
 10148  1  0
 14149  1  0
 15150  1  0
 18151  1  0
 18152  1  0
 19153  1  0
 19154  1  0
 19155  1  0
 22156  1  0
 27157  1  0
 28158  1  0
 31159  1  0
 31160  1  0
 32161  1  0
 32162  1  0
 32163  1  0
 34164  1  0
 38165  1  0
 42166  1  0
 46167  1  0
 47168  1  0
 50169  1  0
 50170  1  0
 51171  1  0
 51172  1  0
 51173  1  0
 54174  1  0
 59175  1  0
 60176  1  0
 63177  1  0
 63178  1  0
 64179  1  0
 64180  1  0
 64181  1  0
 66182  1  0
 70183  1  0
 76184  1  0
 80185  1  0
 82186  1  0
 86187  1  0
 87188  1  0
 90189  1  0
 90190  1  0
 91191  1  0
 91192  1  0
 91193  1  0
 94194  1  0
 99195  1  0
100196  1  0
103197  1  0
103198  1  0
104199  1  0
104200  1  0
104201  1  0
106202  1  0
110203  1  0
114204  1  0
118205  1  0
119206  1  0
122207  1  0
122208  1  0
123209  1  0
123210  1  0
123211  1  0
126212  1  0
131213  1  0
132214  1  0
135215  1  0
135216  1  0
136217  1  0
136218  1  0
136219  1  0
138220  1  0
142221  1  0
143222  1  0
M  END

