
     RDKit          3D

188211  0  0  0  0  0  0  0  0999 V2000
    7.7623   -5.5072    9.7291 C   0  0  0  0  0  0  0  0  0  0  0  0
    6.6091   -4.7277    9.6730 C   0  0  0  0  0  0  0  0  0  0  0  0
    5.6069   -5.2846    8.8555 C   0  0  0  0  0  0  0  0  0  0  0  0
    4.3485   -4.7207    8.5866 C   0  0  0  0  0  0  0  0  0  0  0  0
    3.9565   -3.3997    9.1151 C   0  0  0  0  0  0  0  0  0  0  0  0
    3.4258   -3.2775   10.4036 C   0  0  0  0  0  0  0  0  0  0  0  0
    3.0392   -2.0195   10.8922 C   0  0  0  0  0  0  0  0  0  0  0  0
    3.1914   -0.8837   10.0948 C   0  0  0  0  0  0  0  0  0  0  0  0
    2.6452    0.7144   10.7015 S   0  0  0  0  0  0  0  0  0  0  0  0
    4.1763    1.0971   11.6319 C   0  0  0  0  0  0  0  0  0  0  0  0
    5.3061    1.5384   10.7108 C   0  0  0  0  0  0  0  0  0  0  0  0
    3.7190   -1.0035    8.7993 C   0  0  0  0  0  0  0  0  0  0  0  0
    3.8545    0.0904    8.0102 F   0  0  0  0  0  0  0  0  0  0  0  0
    4.1044   -2.2551    8.3137 C   0  0  0  0  0  0  0  0  0  0  0  0
    3.4954   -5.4401    7.7294 C   0  0  0  0  0  0  0  0  0  0  0  0
    3.8748   -6.6486    7.1295 C   0  0  0  0  0  0  0  0  0  0  0  0
    5.1516   -7.2000    7.3738 C   0  0  0  0  0  0  0  0  0  0  0  0
    5.6318   -8.4011    6.6521 C   0  0  0  0  0  0  0  0  0  0  0  0
    4.9270   -9.6144    6.7282 C   0  0  0  0  0  0  0  0  0  0  0  0
    5.3414  -10.7209    5.9796 C   0  0  0  0  0  0  0  0  0  0  0  0
    6.4862  -10.6419    5.1803 C   0  0  0  0  0  0  0  0  0  0  0  0
    7.0447  -12.0730    4.2518 S   0  0  0  0  0  0  0  0  0  0  0  0
    6.0366  -11.6983    2.7739 C   0  0  0  0  0  0  0  0  0  0  0  0
    6.6687  -12.3521    1.5565 C   0  0  0  0  0  0  0  0  0  0  0  0
    7.2088   -9.4439    5.1241 C   0  0  0  0  0  0  0  0  0  0  0  0
    6.7714   -8.3211    5.8343 C   0  0  0  0  0  0  0  0  0  0  0  0
    8.3332   -9.3587    4.3763 F   0  0  0  0  0  0  0  0  0  0  0  0
    5.9902   -6.4913    8.2557 C   0  0  0  0  0  0  0  0  0  0  0  0
    7.5503   -6.8693    8.7614 S   0  0  0  0  0  0  0  0  0  0  0  0
    2.9057   -7.1448    6.2354 C   0  0  0  0  0  0  0  0  0  0  0  0
    1.7789   -6.3262    6.1484 C   0  0  0  0  0  0  0  0  0  0  0  0
    1.9898   -4.9797    7.1475 S   0  0  0  0  0  0  0  0  0  0  0  0
    0.7297   -6.4662    5.1322 C   0  0  0  0  0  0  0  0  0  0  0  0
   -0.1031   -7.5960    5.0837 C   0  0  0  0  0  0  0  0  0  0  0  0
   -1.0707   -7.7503    4.0575 C   0  0  0  0  0  0  0  0  0  0  0  0
   -1.8752   -8.9358    4.1727 N   0  0  0  0  0  0  0  0  0  0  0  0
   -1.2535   -9.5799    5.4941 S   0  0  0  0  0  4  0  0  0  0  0  0
   -0.0865   -8.6473    6.0584 N   0  0  0  0  0  0  0  0  0  0  0  0
   -1.2093   -6.7921    3.0346 C   0  0  0  0  0  0  0  0  0  0  0  0
   -0.3479   -5.6758    3.0666 C   0  0  0  0  0  0  0  0  0  0  0  0
   -0.3467   -4.7188    2.1005 N   0  0  0  0  0  0  0  0  0  0  0  0
    0.8412   -3.7166    2.6463 S   0  0  0  0  0  0  0  0  0  0  0  0
    1.3958   -4.4049    4.0402 N   0  0  0  0  0  0  0  0  0  0  0  0
    0.6008   -5.5063    4.1197 C   0  0  0  0  0  0  0  0  0  0  0  0
   -2.1774   -6.9515    1.9245 C   0  0  0  0  0  0  0  0  0  0  0  0
   -2.0827   -8.0304    1.0275 C   0  0  0  0  0  0  0  0  0  0  0  0
   -2.7569   -8.0104   -0.2188 C   0  0  0  0  0  0  0  0  0  0  0  0
   -2.5082   -9.1541   -1.0496 N   0  0  0  0  0  0  0  0  0  0  0  0
   -1.4945   -9.9710   -0.1269 S   0  0  0  0  0  4  0  0  0  0  0  0
   -1.2396   -9.1713    1.2312 N   0  0  0  0  0  0  0  0  0  0  0  0
   -3.5012   -6.8858   -0.6328 C   0  0  0  0  0  0  0  0  0  0  0  0
   -3.6847   -5.8507    0.3136 C   0  0  0  0  0  0  0  0  0  0  0  0
   -4.4001   -4.7220    0.0576 N   0  0  0  0  0  0  0  0  0  0  0  0
   -4.2095   -3.8828    1.4630 S   0  0  0  0  0  0  0  0  0  0  0  0
   -3.2536   -4.8295    2.4119 N   0  0  0  0  0  0  0  0  0  0  0  0
   -3.0475   -5.8995    1.5949 C   0  0  0  0  0  0  0  0  0  0  0  0
   -3.7859   -6.6238   -2.0718 C   0  0  0  0  0  0  0  0  0  0  0  0
   -4.9976   -6.0166   -2.4593 C   0  0  0  0  0  0  0  0  0  0  0  0
   -5.0333   -5.0719   -3.5189 C   0  0  0  0  0  0  0  0  0  0  0  0
   -6.2701   -4.3601   -3.6357 N   0  0  0  0  0  0  0  0  0  0  0  0
   -7.1045   -5.0186   -2.4481 S   0  0  0  0  0  4  0  0  0  0  0  0
   -6.2085   -6.1040   -1.6969 N   0  0  0  0  0  0  0  0  0  0  0  0
   -3.8639   -4.7585   -4.2405 C   0  0  0  0  0  0  0  0  0  0  0  0
   -2.7646   -5.6234   -4.0829 C   0  0  0  0  0  0  0  0  0  0  0  0
   -1.6457   -5.5418   -4.8533 N   0  0  0  0  0  0  0  0  0  0  0  0
   -0.6581   -6.6099   -4.0815 S   0  0  0  0  0  0  0  0  0  0  0  0
   -1.5250   -7.1729   -2.7989 N   0  0  0  0  0  0  0  0  0  0  0  0
   -2.7068   -6.5276   -2.9767 C   0  0  0  0  0  0  0  0  0  0  0  0
   -3.6193   -3.3846   -4.7428 C   0  0  0  0  0  0  0  0  0  0  0  0
   -2.4387   -2.6892   -4.4581 C   0  0  0  0  0  0  0  0  0  0  0  0
   -2.5150   -1.3116   -4.6934 C   0  0  0  0  0  0  0  0  0  0  0  0
   -1.5085   -0.3738   -4.3944 C   0  0  0  0  0  0  0  0  0  0  0  0
   -0.1313   -0.7699   -3.9828 C   0  0  0  0  0  0  0  0  0  0  0  0
    0.6007   -1.6976   -4.7440 C   0  0  0  0  0  0  0  0  0  0  0  0
    1.9488   -1.9448   -4.4567 C   0  0  0  0  0  0  0  0  0  0  0  0
    2.5927   -1.2158   -3.4614 C   0  0  0  0  0  0  0  0  0  0  0  0
    4.3638   -1.4149   -3.2293 S   0  0  0  0  0  0  0  0  0  0  0  0
    4.1983   -2.5514   -1.8122 C   0  0  0  0  0  0  0  0  0  0  0  0
    5.5175   -3.2711   -1.5798 C   0  0  0  0  0  0  0  0  0  0  0  0
    1.8690   -0.3151   -2.6686 C   0  0  0  0  0  0  0  0  0  0  0  0
    2.4898    0.4264   -1.7266 F   0  0  0  0  0  0  0  0  0  0  0  0
    0.5067   -0.1279   -2.9053 C   0  0  0  0  0  0  0  0  0  0  0  0
   -1.8608    0.9797   -4.5485 C   0  0  0  0  0  0  0  0  0  0  0  0
   -3.1335    1.4015   -4.9527 C   0  0  0  0  0  0  0  0  0  0  0  0
   -4.1197    0.4498   -5.2958 C   0  0  0  0  0  0  0  0  0  0  0  0
   -5.4672    0.8507   -5.7461 C   0  0  0  0  0  0  0  0  0  0  0  0
   -5.8817    0.5415   -7.0474 C   0  0  0  0  0  0  0  0  0  0  0  0
   -7.1491    0.9296   -7.4916 C   0  0  0  0  0  0  0  0  0  0  0  0
   -8.0149    1.6252   -6.6338 C   0  0  0  0  0  0  0  0  0  0  0  0
   -9.6389    2.1190   -7.2149 S   0  0  0  0  0  0  0  0  0  0  0  0
   -9.0957    3.7072   -7.9420 C   0  0  0  0  0  0  0  0  0  0  0  0
   -9.0833    4.8172   -6.8979 C   0  0  0  0  0  0  0  0  0  0  0  0
   -7.6112    1.9079   -5.3213 C   0  0  0  0  0  0  0  0  0  0  0  0
   -6.3394    1.5237   -4.8781 C   0  0  0  0  0  0  0  0  0  0  0  0
   -8.4464    2.5438   -4.4643 F   0  0  0  0  0  0  0  0  0  0  0  0
   -3.7718   -0.9037   -5.1533 C   0  0  0  0  0  0  0  0  0  0  0  0
   -4.7719   -2.2605   -5.2710 S   0  0  0  0  0  0  0  0  0  0  0  0
   -3.2740    2.8099   -4.9610 C   0  0  0  0  0  0  0  0  0  0  0  0
   -2.1099    3.4643   -4.5465 C   0  0  0  0  0  0  0  0  0  0  0  0
   -0.9197    2.3297   -4.2295 S   0  0  0  0  0  0  0  0  0  0  0  0
   -1.9099    4.9036   -4.3239 C   0  0  0  0  0  0  0  0  0  0  0  0
   -2.7150    5.9447   -4.7833 C   0  0  0  0  0  0  0  0  0  0  0  0
   -2.1996    7.2120   -4.4432 C   0  0  0  0  0  0  0  0  0  0  0  0
   -2.7243    8.4631   -4.8230 C   0  0  0  0  0  0  0  0  0  0  0  0
   -3.9667    8.5789   -5.6101 C   0  0  0  0  0  0  0  0  0  0  0  0
   -3.9410    9.1649   -6.8852 C   0  0  0  0  0  0  0  0  0  0  0  0
   -5.1232    9.3355   -7.6064 C   0  0  0  0  0  0  0  0  0  0  0  0
   -6.3428    8.9221   -7.0614 C   0  0  0  0  0  0  0  0  0  0  0  0
   -7.8644    9.2295   -7.9597 S   0  0  0  0  0  0  0  0  0  0  0  0
   -8.0520   10.9555   -7.3757 C   0  0  0  0  0  0  0  0  0  0  0  0
   -8.7706   11.0003   -6.0355 C   0  0  0  0  0  0  0  0  0  0  0  0
   -6.3664    8.2892   -5.8117 C   0  0  0  0  0  0  0  0  0  0  0  0
   -7.5366    7.8481   -5.2882 F   0  0  0  0  0  0  0  0  0  0  0  0
   -5.1843    8.1237   -5.0873 C   0  0  0  0  0  0  0  0  0  0  0  0
   -1.9821    9.6038   -4.4547 C   0  0  0  0  0  0  0  0  0  0  0  0
   -0.7923    9.5284   -3.7256 C   0  0  0  0  0  0  0  0  0  0  0  0
   -0.2817    8.2830   -3.3211 C   0  0  0  0  0  0  0  0  0  0  0  0
    0.9601    8.1612   -2.5300 C   0  0  0  0  0  0  0  0  0  0  0  0
    0.9060    7.7716   -1.1847 C   0  0  0  0  0  0  0  0  0  0  0  0
    2.0793    7.6515   -0.4346 C   0  0  0  0  0  0  0  0  0  0  0  0
    3.3209    7.9045   -1.0269 C   0  0  0  0  0  0  0  0  0  0  0  0
    4.8214    7.8056   -0.0357 S   0  0  0  0  0  0  0  0  0  0  0  0
    5.1834    6.0515   -0.4034 C   0  0  0  0  0  0  0  0  0  0  0  0
    4.4277    5.1314    0.5458 C   0  0  0  0  0  0  0  0  0  0  0  0
    3.3823    8.2926   -2.3690 C   0  0  0  0  0  0  0  0  0  0  0  0
    2.2079    8.4237   -3.1222 C   0  0  0  0  0  0  0  0  0  0  0  0
    4.5764    8.5533   -2.9530 F   0  0  0  0  0  0  0  0  0  0  0  0
   -1.0062    7.1460   -3.7104 C   0  0  0  0  0  0  0  0  0  0  0  0
   -0.5942    5.5388   -3.4885 S   0  0  0  0  0  0  0  0  0  0  0  0
   -0.2177   10.7862   -3.4690 C   0  0  0  0  0  0  0  0  0  0  0  0
   -0.9556   11.8418   -3.9934 C   0  0  0  0  0  0  0  0  0  0  0  0
   -2.3162   11.2227   -4.7718 S   0  0  0  0  0  0  0  0  0  0  0  0
    8.6555   -5.2584   10.2928 H   0  0  0  0  0  0  0  0  0  0  0  0
    6.5089   -3.7920   10.2026 H   0  0  0  0  0  0  0  0  0  0  0  0
    3.3057   -4.1530   11.0246 H   0  0  0  0  0  0  0  0  0  0  0  0
    2.6244   -1.9366   11.8843 H   0  0  0  0  0  0  0  0  0  0  0  0
    3.9478    1.9240   12.3335 H   0  0  0  0  0  0  0  0  0  0  0  0
    4.4954    0.2212   12.2334 H   0  0  0  0  0  0  0  0  0  0  0  0
    6.1673    1.8855   11.3219 H   0  0  0  0  0  0  0  0  0  0  0  0
    4.9710    2.3737   10.0658 H   0  0  0  0  0  0  0  0  0  0  0  0
    5.6416    0.6938   10.0799 H   0  0  0  0  0  0  0  0  0  0  0  0
    4.5155   -2.3392    7.3168 H   0  0  0  0  0  0  0  0  0  0  0  0
    4.0349   -9.6933    7.3415 H   0  0  0  0  0  0  0  0  0  0  0  0
    4.7658  -11.6360    6.0186 H   0  0  0  0  0  0  0  0  0  0  0  0
    5.9833  -10.6008    2.5961 H   0  0  0  0  0  0  0  0  0  0  0  0
    5.0144  -12.0985    2.9125 H   0  0  0  0  0  0  0  0  0  0  0  0
    7.6490  -11.8626    1.3533 H   0  0  0  0  0  0  0  0  0  0  0  0
    6.0042  -12.2220    0.6729 H   0  0  0  0  0  0  0  0  0  0  0  0
    6.8377  -13.4359    1.7436 H   0  0  0  0  0  0  0  0  0  0  0  0
    7.3244   -7.3896    5.7509 H   0  0  0  0  0  0  0  0  0  0  0  0
    3.0501   -8.0166    5.6124 H   0  0  0  0  0  0  0  0  0  0  0  0
   -1.5917   -3.1457   -3.9721 H   0  0  0  0  0  0  0  0  0  0  0  0
    0.1440   -2.2041   -5.5850 H   0  0  0  0  0  0  0  0  0  0  0  0
    2.5053   -2.6485   -5.0585 H   0  0  0  0  0  0  0  0  0  0  0  0
    3.4036   -3.3049   -2.0004 H   0  0  0  0  0  0  0  0  0  0  0  0
    3.9369   -1.9618   -0.9092 H   0  0  0  0  0  0  0  0  0  0  0  0
    5.6577   -4.0598   -2.3503 H   0  0  0  0  0  0  0  0  0  0  0  0
    6.3715   -2.5581   -1.6276 H   0  0  0  0  0  0  0  0  0  0  0  0
    5.5112   -3.7540   -0.5762 H   0  0  0  0  0  0  0  0  0  0  0  0
   -0.0362    0.5688   -2.2810 H   0  0  0  0  0  0  0  0  0  0  0  0
   -5.2181    0.0145   -7.7237 H   0  0  0  0  0  0  0  0  0  0  0  0
   -7.4517    0.6967   -8.5022 H   0  0  0  0  0  0  0  0  0  0  0  0
   -9.8150    3.9777   -8.7415 H   0  0  0  0  0  0  0  0  0  0  0  0
   -8.0925    3.6090   -8.4100 H   0  0  0  0  0  0  0  0  0  0  0  0
  -10.0688    4.8789   -6.3884 H   0  0  0  0  0  0  0  0  0  0  0  0
   -8.2856    4.6283   -6.1511 H   0  0  0  0  0  0  0  0  0  0  0  0
   -8.8780    5.7870   -7.3952 H   0  0  0  0  0  0  0  0  0  0  0  0
   -6.0349    1.7579   -3.8634 H   0  0  0  0  0  0  0  0  0  0  0  0
   -4.1844    3.3227   -5.2210 H   0  0  0  0  0  0  0  0  0  0  0  0
   -3.6079    5.7950   -5.3728 H   0  0  0  0  0  0  0  0  0  0  0  0
   -3.0044    9.5019   -7.3066 H   0  0  0  0  0  0  0  0  0  0  0  0
   -5.0933    9.8091   -8.5775 H   0  0  0  0  0  0  0  0  0  0  0  0
   -8.6579   11.5106   -8.1229 H   0  0  0  0  0  0  0  0  0  0  0  0
   -7.0676   11.4610   -7.2932 H   0  0  0  0  0  0  0  0  0  0  0  0
   -8.1992   10.4481   -5.2613 H   0  0  0  0  0  0  0  0  0  0  0  0
   -8.8790   12.0568   -5.7069 H   0  0  0  0  0  0  0  0  0  0  0  0
   -9.7788   10.5510   -6.1352 H   0  0  0  0  0  0  0  0  0  0  0  0
   -5.2149    7.6547   -4.1111 H   0  0  0  0  0  0  0  0  0  0  0  0
   -0.0467    7.5682   -0.7162 H   0  0  0  0  0  0  0  0  0  0  0  0
    2.0222    7.3706    0.6079 H   0  0  0  0  0  0  0  0  0  0  0  0
    6.2731    5.8905   -0.2531 H   0  0  0  0  0  0  0  0  0  0  0  0
    4.9451    5.8028   -1.4582 H   0  0  0  0  0  0  0  0  0  0  0  0
    4.6993    5.3580    1.5994 H   0  0  0  0  0  0  0  0  0  0  0  0
    4.6997    4.0774    0.3338 H   0  0  0  0  0  0  0  0  0  0  0  0
    3.3333    5.2460    0.4159 H   0  0  0  0  0  0  0  0  0  0  0  0
    2.2633    8.7236   -4.1593 H   0  0  0  0  0  0  0  0  0  0  0  0
    0.7000   10.9329   -2.9188 H   0  0  0  0  0  0  0  0  0  0  0  0
   -0.6897   12.8875   -3.9156 H   0  0  0  0  0  0  0  0  0  0  0  0
  1  2  2  0
  2  3  1  0
  3  4  2  0
  4  5  1  0
  5  6  2  0
  6  7  1  0
  7  8  2  0
  8  9  1  0
  9 10  1  0
 10 11  1  0
  8 12  1  0
 12 13  1  0
 12 14  2  0
  4 15  1  0
 15 16  2  0
 16 17  1  0
 17 18  1  0
 18 19  2  0
 19 20  1  0
 20 21  2  0
 21 22  1  0
 22 23  1  0
 23 24  1  0
 21 25  1  0
 25 26  2  0
 25 27  1  0
 17 28  2  0
 28 29  1  0
 16 30  1  0
 30 31  2  0
 31 32  1  0
 31 33  1  0
 33 34  2  0
 34 35  1  0
 35 36  1  0
 36 37  2  0
 37 38  2  0
 35 39  2  0
 39 40  1  0
 40 41  2  0
 41 42  1  0
 42 43  1  0
 43 44  2  0
 39 45  1  0
 45 46  2  0
 46 47  1  0
 47 48  1  0
 48 49  2  0
 49 50  2  0
 47 51  2  0
 51 52  1  0
 52 53  2  0
 53 54  1  0
 54 55  1  0
 55 56  2  0
 51 57  1  0
 57 58  2  0
 58 59  1  0
 59 60  1  0
 60 61  2  0
 61 62  2  0
 59 63  2  0
 63 64  1  0
 64 65  2  0
 65 66  1  0
 66 67  1  0
 67 68  2  0
 63 69  1  0
 69 70  2  0
 70 71  1  0
 71 72  2  0
 72 73  1  0
 73 74  2  0
 74 75  1  0
 75 76  2  0
 76 77  1  0
 77 78  1  0
 78 79  1  0
 76 80  1  0
 80 81  1  0
 80 82  2  0
 72 83  1  0
 83 84  2  0
 84 85  1  0
 85 86  1  0
 86 87  2  0
 87 88  1  0
 88 89  2  0
 89 90  1  0
 90 91  1  0
 91 92  1  0
 89 93  1  0
 93 94  2  0
 93 95  1  0
 85 96  2  0
 96 97  1  0
 84 98  1  0
 98 99  2  0
 99100  1  0
 99101  1  0
101102  2  0
102103  1  0
103104  2  0
104105  1  0
105106  2  0
106107  1  0
107108  2  0
108109  1  0
109110  1  0
110111  1  0
108112  1  0
112113  1  0
112114  2  0
104115  1  0
115116  2  0
116117  1  0
117118  1  0
118119  2  0
119120  1  0
120121  2  0
121122  1  0
122123  1  0
123124  1  0
121125  1  0
125126  2  0
125127  1  0
117128  2  0
128129  1  0
116130  1  0
130131  2  0
131132  1  0
 29  1  1  0
 44 33  1  0
 56 45  1  0
 68 57  1  0
 97 69  1  0
129101  1  0
 28  3  1  0
 38 34  1  0
 44 40  1  0
 50 46  1  0
 56 52  1  0
 62 58  1  0
 68 64  1  0
 96 71  1  0
128103  1  0
 14  5  1  0
 32 15  1  0
 82 73  1  0
100 83  1  0
114105  1  0
132115  1  0
 26 18  1  0
 94 86  1  0
126118  1  0
  1133  1  0
  2134  1  0
  6135  1  0
  7136  1  0
 10137  1  0
 10138  1  0
 11139  1  0
 11140  1  0
 11141  1  0
 14142  1  0
 19143  1  0
 20144  1  0
 23145  1  0
 23146  1  0
 24147  1  0
 24148  1  0
 24149  1  0
 26150  1  0
 30151  1  0
 70152  1  0
 74153  1  0
 75154  1  0
 78155  1  0
 78156  1  0
 79157  1  0
 79158  1  0
 79159  1  0
 82160  1  0
 87161  1  0
 88162  1  0
 91163  1  0
 91164  1  0
 92165  1  0
 92166  1  0
 92167  1  0
 94168  1  0
 98169  1  0
102170  1  0
106171  1  0
107172  1  0
110173  1  0
110174  1  0
111175  1  0
111176  1  0
111177  1  0
114178  1  0
119179  1  0
120180  1  0
123181  1  0
123182  1  0
124183  1  0
124184  1  0
124185  1  0
126186  1  0
130187  1  0
131188  1  0
M  END

