
     RDKit          3D

134151  0  0  0  0  0  0  0  0999 V2000
    8.9872   -5.5566   10.4732 C   0  0  0  0  0  0  0  0  0  0  0  0
    7.6037   -6.4593   10.0173 S   0  0  0  0  0  0  0  0  0  0  0  0
    6.5557   -5.2675   10.5402 C   0  0  0  0  0  0  0  0  0  0  0  0
    5.2658   -4.8671   10.3468 C   0  0  0  0  0  0  0  0  0  0  0  0
    5.2062   -3.5603   10.7050 C   0  0  0  0  0  0  0  0  0  0  0  0
    6.4155   -3.0870   11.1114 N   0  0  0  0  0  0  0  0  0  0  0  0
    6.8378   -1.6908   11.1865 C   0  0  0  0  0  0  0  0  0  0  0  0
    7.1094   -1.1455    9.7870 C   0  0  0  0  0  0  0  0  0  0  0  0
    7.2249   -4.1752   10.9913 C   0  0  0  0  0  0  0  0  0  0  0  0
    8.6116   -4.2920   10.9585 C   0  0  0  0  0  0  0  0  0  0  0  0
    4.0419   -2.8953   10.3227 C   0  0  0  0  0  0  0  0  0  0  0  0
    3.1807   -3.7488    9.5842 C   0  0  0  0  0  0  0  0  0  0  0  0
    3.9436   -5.2858    9.4263 S   0  0  0  0  0  0  0  0  0  0  0  0
    1.8541   -3.3967    8.9714 C   0  0  0  0  0  0  0  0  0  0  0  0
    0.9447   -4.4101    8.5685 C   0  0  0  0  0  0  0  0  0  0  0  0
    1.1704   -5.7425    8.7173 N   0  0  0  0  0  0  0  0  0  0  0  0
    0.1569   -6.4940    8.2320 C   0  0  0  0  0  0  0  0  0  0  0  0
    0.2330   -7.9816    8.1189 C   0  0  0  0  0  0  0  0  0  0  0  0
    1.1120   -8.3756    6.9366 C   0  0  0  0  0  0  0  0  0  0  0  0
   -1.0709   -5.5402    7.5807 S   0  0  0  0  0  0  0  0  0  0  0  0
   -0.2712   -4.0990    7.9402 C   0  0  0  0  0  0  0  0  0  0  0  0
   -0.6783   -2.7783    7.6756 C   0  0  0  0  0  0  0  0  0  0  0  0
    0.2067   -1.7621    8.0870 C   0  0  0  0  0  0  0  0  0  0  0  0
    1.4320   -2.0645    8.7111 C   0  0  0  0  0  0  0  0  0  0  0  0
    2.2226   -0.5941    8.9864 S   0  0  0  0  0  0  0  0  0  0  0  0
    0.9915    0.3335    8.3103 C   0  0  0  0  0  0  0  0  0  0  0  0
    0.9581    1.8299    8.2729 C   0  0  0  0  0  0  0  0  0  0  0  0
   -0.0718    2.3650    9.2629 C   0  0  0  0  0  0  0  0  0  0  0  0
   -0.0238   -0.4380    7.8687 N   0  0  0  0  0  0  0  0  0  0  0  0
   -1.9191   -2.4701    6.9159 C   0  0  0  0  0  0  0  0  0  0  0  0
   -2.4120   -3.3325    5.5152 S   0  0  0  0  0  0  0  0  0  0  0  0
   -3.6725   -2.2841    5.2017 C   0  0  0  0  0  0  0  0  0  0  0  0
   -4.3834   -1.8828    4.1098 C   0  0  0  0  0  0  0  0  0  0  0  0
   -4.7835   -0.6105    4.3570 C   0  0  0  0  0  0  0  0  0  0  0  0
   -4.3684   -0.1758    5.5769 N   0  0  0  0  0  0  0  0  0  0  0  0
   -4.4877    1.1711    6.1398 C   0  0  0  0  0  0  0  0  0  0  0  0
   -5.7671    1.2836    6.9581 C   0  0  0  0  0  0  0  0  0  0  0  0
   -3.6830   -1.2407    6.0719 C   0  0  0  0  0  0  0  0  0  0  0  0
   -2.7224   -1.3157    7.0780 C   0  0  0  0  0  0  0  0  0  0  0  0
   -5.2443    0.0818    3.2372 C   0  0  0  0  0  0  0  0  0  0  0  0
   -5.1978   -0.7463    2.1006 C   0  0  0  0  0  0  0  0  0  0  0  0
   -4.5200   -2.2715    2.4938 S   0  0  0  0  0  0  0  0  0  0  0  0
   -5.5531   -0.3535    0.7310 C   0  0  0  0  0  0  0  0  0  0  0  0
   -5.3773    1.2224    0.0741 S   0  0  0  0  0  0  0  0  0  0  0  0
   -5.8231    0.7161   -1.4618 C   0  0  0  0  0  0  0  0  0  0  0  0
   -5.6645    1.1103   -2.7666 C   0  0  0  0  0  0  0  0  0  0  0  0
   -5.8096   -0.0158   -3.5180 C   0  0  0  0  0  0  0  0  0  0  0  0
   -6.0465   -1.1166   -2.7589 N   0  0  0  0  0  0  0  0  0  0  0  0
   -5.9949   -2.5145   -3.1827 C   0  0  0  0  0  0  0  0  0  0  0  0
   -7.3564   -2.9598   -3.6960 C   0  0  0  0  0  0  0  0  0  0  0  0
   -6.0482   -0.6264   -1.4925 C   0  0  0  0  0  0  0  0  0  0  0  0
   -5.8961   -1.2734   -0.2725 C   0  0  0  0  0  0  0  0  0  0  0  0
   -5.3310    0.0830   -4.8183 C   0  0  0  0  0  0  0  0  0  0  0  0
   -4.7854    1.3549   -5.0525 C   0  0  0  0  0  0  0  0  0  0  0  0
   -4.8629    2.3100   -3.6264 S   0  0  0  0  0  0  0  0  0  0  0  0
   -4.0679    1.7162   -6.2877 C   0  0  0  0  0  0  0  0  0  0  0  0
   -3.5901    0.5687   -7.4731 S   0  0  0  0  0  0  0  0  0  0  0  0
   -2.8058    1.7216   -8.3858 C   0  0  0  0  0  0  0  0  0  0  0  0
   -1.8921    1.8056   -9.3924 C   0  0  0  0  0  0  0  0  0  0  0  0
   -1.4483    3.0827   -9.3990 C   0  0  0  0  0  0  0  0  0  0  0  0
   -2.0355    3.8346   -8.4305 N   0  0  0  0  0  0  0  0  0  0  0  0
   -1.6336    5.1626   -7.9650 C   0  0  0  0  0  0  0  0  0  0  0  0
   -0.4213    5.0562   -7.0447 C   0  0  0  0  0  0  0  0  0  0  0  0
   -2.8619    2.9467   -7.8135 C   0  0  0  0  0  0  0  0  0  0  0  0
   -3.5606    2.9947   -6.6054 C   0  0  0  0  0  0  0  0  0  0  0  0
   -0.3491    3.3187  -10.2193 C   0  0  0  0  0  0  0  0  0  0  0  0
    0.0560    2.1219  -10.8519 C   0  0  0  0  0  0  0  0  0  0  0  0
   -0.9474    0.8187  -10.3492 S   0  0  0  0  0  0  0  0  0  0  0  0
    1.2139    1.9805  -11.7741 C   0  0  0  0  0  0  0  0  0  0  0  0
    1.1987    1.0495  -12.8393 C   0  0  0  0  0  0  0  0  0  0  0  0
    0.1644    0.2136  -13.1277 N   0  0  0  0  0  0  0  0  0  0  0  0
    0.4482   -0.5802  -14.1894 C   0  0  0  0  0  0  0  0  0  0  0  0
   -0.5133   -1.5854  -14.7381 C   0  0  0  0  0  0  0  0  0  0  0  0
   -1.4324   -0.9421  -15.7671 C   0  0  0  0  0  0  0  0  0  0  0  0
    1.9770   -0.2631  -14.8410 S   0  0  0  0  0  0  0  0  0  0  0  0
    2.2955    0.9243  -13.6967 C   0  0  0  0  0  0  0  0  0  0  0  0
    3.4556    1.6909  -13.5607 C   0  0  0  0  0  0  0  0  0  0  0  0
    3.4966    2.5961  -12.4980 C   0  0  0  0  0  0  0  0  0  0  0  0
    2.4043    2.7365  -11.6306 C   0  0  0  0  0  0  0  0  0  0  0  0
    2.8357    3.8493  -10.4409 S   0  0  0  0  0  0  0  0  0  0  0  0
    4.3704    4.1073  -11.0948 C   0  0  0  0  0  0  0  0  0  0  0  0
    5.3759    5.0738  -10.5496 C   0  0  0  0  0  0  0  0  0  0  0  0
    5.2647    6.4213  -11.2590 C   0  0  0  0  0  0  0  0  0  0  0  0
    4.5774    3.3677  -12.2102 N   0  0  0  0  0  0  0  0  0  0  0  0
   10.0089   -5.8815   10.3373 H   0  0  0  0  0  0  0  0  0  0  0  0
    6.0451   -1.0832   11.6752 H   0  0  0  0  0  0  0  0  0  0  0  0
    7.7602   -1.6069   11.8004 H   0  0  0  0  0  0  0  0  0  0  0  0
    7.8491   -1.7840    9.2607 H   0  0  0  0  0  0  0  0  0  0  0  0
    6.1700   -1.1212    9.1967 H   0  0  0  0  0  0  0  0  0  0  0  0
    7.5126   -0.1134    9.8554 H   0  0  0  0  0  0  0  0  0  0  0  0
    9.3062   -3.5031   11.2182 H   0  0  0  0  0  0  0  0  0  0  0  0
    3.8711   -1.8572   10.5624 H   0  0  0  0  0  0  0  0  0  0  0  0
   -0.7830   -8.4050    7.9817 H   0  0  0  0  0  0  0  0  0  0  0  0
    0.6703   -8.4025    9.0504 H   0  0  0  0  0  0  0  0  0  0  0  0
    0.6717   -8.0002    5.9869 H   0  0  0  0  0  0  0  0  0  0  0  0
    1.1860   -9.4828    6.8747 H   0  0  0  0  0  0  0  0  0  0  0  0
    2.1360   -7.9601    7.0537 H   0  0  0  0  0  0  0  0  0  0  0  0
    1.9575    2.2350    8.5297 H   0  0  0  0  0  0  0  0  0  0  0  0
    0.7050    2.1599    7.2473 H   0  0  0  0  0  0  0  0  0  0  0  0
   -1.0625    1.8861    9.0980 H   0  0  0  0  0  0  0  0  0  0  0  0
   -0.1820    3.4639    9.1354 H   0  0  0  0  0  0  0  0  0  0  0  0
    0.2580    2.1598   10.3053 H   0  0  0  0  0  0  0  0  0  0  0  0
   -3.6153    1.4008    6.7850 H   0  0  0  0  0  0  0  0  0  0  0  0
   -4.5042    1.9245    5.3226 H   0  0  0  0  0  0  0  0  0  0  0  0
   -6.6373    0.9559    6.3500 H   0  0  0  0  0  0  0  0  0  0  0  0
   -5.9229    2.3377    7.2719 H   0  0  0  0  0  0  0  0  0  0  0  0
   -5.7000    0.6424    7.8667 H   0  0  0  0  0  0  0  0  0  0  0  0
   -2.5559   -0.5399    7.8115 H   0  0  0  0  0  0  0  0  0  0  0  0
   -5.5350    1.1217    3.2346 H   0  0  0  0  0  0  0  0  0  0  0  0
   -5.2363   -2.6420   -3.9872 H   0  0  0  0  0  0  0  0  0  0  0  0
   -5.6878   -3.1667   -2.3355 H   0  0  0  0  0  0  0  0  0  0  0  0
   -7.6714   -2.3229   -4.5504 H   0  0  0  0  0  0  0  0  0  0  0  0
   -8.1123   -2.8827   -2.8872 H   0  0  0  0  0  0  0  0  0  0  0  0
   -7.3002   -4.0139   -4.0354 H   0  0  0  0  0  0  0  0  0  0  0  0
   -5.9548   -2.3448   -0.1325 H   0  0  0  0  0  0  0  0  0  0  0  0
   -5.2896   -0.7412   -5.5172 H   0  0  0  0  0  0  0  0  0  0  0  0
   -1.3834    5.8082   -8.8372 H   0  0  0  0  0  0  0  0  0  0  0  0
   -2.4746    5.6396   -7.4192 H   0  0  0  0  0  0  0  0  0  0  0  0
   -0.6441    4.3754   -6.1947 H   0  0  0  0  0  0  0  0  0  0  0  0
    0.4512    4.6616   -7.6078 H   0  0  0  0  0  0  0  0  0  0  0  0
   -0.1683    6.0636   -6.6459 H   0  0  0  0  0  0  0  0  0  0  0  0
   -3.6484    3.8740   -5.9838 H   0  0  0  0  0  0  0  0  0  0  0  0
    0.1170    4.2833  -10.3392 H   0  0  0  0  0  0  0  0  0  0  0  0
    0.0507   -2.4153  -15.2136 H   0  0  0  0  0  0  0  0  0  0  0  0
   -1.1271   -2.0076  -13.9099 H   0  0  0  0  0  0  0  0  0  0  0  0
   -2.0399   -0.1323  -15.3015 H   0  0  0  0  0  0  0  0  0  0  0  0
   -2.1208   -1.7072  -16.1842 H   0  0  0  0  0  0  0  0  0  0  0  0
   -0.8338   -0.5144  -16.6049 H   0  0  0  0  0  0  0  0  0  0  0  0
    4.2946    1.5715  -14.2330 H   0  0  0  0  0  0  0  0  0  0  0  0
    5.2142    5.2102   -9.4602 H   0  0  0  0  0  0  0  0  0  0  0  0
    6.3978    4.6599  -10.7029 H   0  0  0  0  0  0  0  0  0  0  0  0
    6.0497    7.1081  -10.8732 H   0  0  0  0  0  0  0  0  0  0  0  0
    5.4032    6.2950  -12.3563 H   0  0  0  0  0  0  0  0  0  0  0  0
    4.2679    6.8745  -11.0623 H   0  0  0  0  0  0  0  0  0  0  0  0
  1  2  1  0
  2  3  1  0
  3  4  1  0
  4  5  2  0
  5  6  1  0
  6  7  1  0
  7  8  1  0
  6  9  1  0
  9 10  1  0
  5 11  1  0
 11 12  2  0
 12 13  1  0
 12 14  1  0
 14 15  2  0
 15 16  1  0
 16 17  2  0
 17 18  1  0
 18 19  1  0
 17 20  1  0
 20 21  1  0
 21 22  2  0
 22 23  1  0
 23 24  2  0
 24 25  1  0
 25 26  1  0
 26 27  1  0
 27 28  1  0
 26 29  2  0
 22 30  1  0
 30 31  1  0
 31 32  1  0
 32 33  1  0
 33 34  2  0
 34 35  1  0
 35 36  1  0
 36 37  1  0
 35 38  1  0
 38 39  1  0
 34 40  1  0
 40 41  2  0
 41 42  1  0
 41 43  1  0
 43 44  1  0
 44 45  1  0
 45 46  1  0
 46 47  2  0
 47 48  1  0
 48 49  1  0
 49 50  1  0
 48 51  1  0
 51 52  1  0
 47 53  1  0
 53 54  2  0
 54 55  1  0
 54 56  1  0
 56 57  1  0
 57 58  1  0
 58 59  1  0
 59 60  2  0
 60 61  1  0
 61 62  1  0
 62 63  1  0
 61 64  1  0
 64 65  1  0
 60 66  1  0
 66 67  2  0
 67 68  1  0
 67 69  1  0
 69 70  2  0
 70 71  1  0
 71 72  2  0
 72 73  1  0
 73 74  1  0
 72 75  1  0
 75 76  1  0
 76 77  2  0
 77 78  1  0
 78 79  2  0
 79 80  1  0
 80 81  1  0
 81 82  1  0
 82 83  1  0
 81 84  2  0
 10  1  2  0
 24 14  1  0
 39 30  2  0
 52 43  2  0
 65 56  2  0
 79 69  1  0
  9  3  2  0
 21 15  1  0
 29 23  1  0
 38 32  2  0
 51 45  2  0
 64 58  2  0
 76 70  1  0
 84 78  1  0
 13  4  1  0
 42 33  1  0
 55 46  1  0
 68 59  1  0
  1 85  1  0
  7 86  1  0
  7 87  1  0
  8 88  1  0
  8 89  1  0
  8 90  1  0
 10 91  1  0
 11 92  1  0
 18 93  1  0
 18 94  1  0
 19 95  1  0
 19 96  1  0
 19 97  1  0
 27 98  1  0
 27 99  1  0
 28100  1  0
 28101  1  0
 28102  1  0
 36103  1  0
 36104  1  0
 37105  1  0
 37106  1  0
 37107  1  0
 39108  1  0
 40109  1  0
 49110  1  0
 49111  1  0
 50112  1  0
 50113  1  0
 50114  1  0
 52115  1  0
 53116  1  0
 62117  1  0
 62118  1  0
 63119  1  0
 63120  1  0
 63121  1  0
 65122  1  0
 66123  1  0
 73124  1  0
 73125  1  0
 74126  1  0
 74127  1  0
 74128  1  0
 77129  1  0
 82130  1  0
 82131  1  0
 83132  1  0
 83133  1  0
 83134  1  0
M  END

