
     RDKit          3D

 74 79  0  0  0  0  0  0  0  0999 V2000
   -1.6323   -0.8326    1.3302 C   0  0  0  0  0  0  0  0  0  0  0  0
   -2.8401   -1.4958    1.4734 C   0  0  0  0  0  0  0  0  0  0  0  0
   -3.5726   -2.1188    0.4076 C   0  0  0  0  0  0  0  0  0  0  0  0
   -4.1608   -2.6204   -0.4536 N   0  0  0  0  0  0  0  0  0  0  0  0
   -3.3272   -1.4310    3.0768 S   0  0  0  0  0  0  0  0  0  0  0  0
   -1.9863   -0.5549    3.6082 C   0  0  0  0  0  0  0  0  0  0  0  0
   -1.7857   -0.0884    4.9107 O   0  0  0  0  0  0  0  0  0  0  0  0
   -2.7028   -0.3382    5.9689 C   0  0  0  0  0  0  0  0  0  0  0  0
   -1.1240   -0.3213    2.5341 C   0  0  0  0  0  0  0  0  0  0  0  0
    0.1582    0.4285    2.6344 C   0  0  0  0  0  0  0  0  0  0  0  0
    1.0705    0.2571    3.6833 C   0  0  0  0  0  0  0  0  0  0  0  0
    1.0277   -0.7554    4.7050 C   0  0  0  0  0  0  0  0  0  0  0  0
    0.9938   -1.5712    5.5253 N   0  0  0  0  0  0  0  0  0  0  0  0
    2.3515    1.3237    3.4978 S   0  0  0  0  0  0  0  0  0  0  0  0
    1.7945    2.0130    2.0763 C   0  0  0  0  0  0  0  0  0  0  0  0
    2.4408    3.0746    1.4391 O   0  0  0  0  0  0  0  0  0  0  0  0
    1.7887    4.3092    1.1653 C   0  0  0  0  0  0  0  0  0  0  0  0
    0.5986    1.3976    1.6942 C   0  0  0  0  0  0  0  0  0  0  0  0
   -0.1575    1.7790    0.4826 C   0  0  0  0  0  0  0  0  0  0  0  0
   -1.4344    2.3469    0.5544 C   0  0  0  0  0  0  0  0  0  0  0  0
   -2.1746    2.6345    1.7548 C   0  0  0  0  0  0  0  0  0  0  0  0
   -2.7688    2.8637    2.7206 N   0  0  0  0  0  0  0  0  0  0  0  0
   -1.9480    2.7807   -0.9802 S   0  0  0  0  0  0  0  0  0  0  0  0
   -0.5585    2.2508   -1.7680 C   0  0  0  0  0  0  0  0  0  0  0  0
   -0.3219    2.3343   -3.1435 O   0  0  0  0  0  0  0  0  0  0  0  0
   -1.2371    2.9402   -4.0473 C   0  0  0  0  0  0  0  0  0  0  0  0
    0.3363    1.7050   -0.8460 C   0  0  0  0  0  0  0  0  0  0  0  0
    1.7054    1.2935   -1.2586 C   0  0  0  0  0  0  0  0  0  0  0  0
    2.5874    2.2115   -1.8405 C   0  0  0  0  0  0  0  0  0  0  0  0
    2.3364    3.6068   -2.0932 C   0  0  0  0  0  0  0  0  0  0  0  0
    2.1334    4.7272   -2.3004 N   0  0  0  0  0  0  0  0  0  0  0  0
    4.0254    1.4537   -2.2251 S   0  0  0  0  0  0  0  0  0  0  0  0
    3.5644   -0.0694   -1.7076 C   0  0  0  0  0  0  0  0  0  0  0  0
    4.4291   -1.1674   -1.8006 O   0  0  0  0  0  0  0  0  0  0  0  0
    4.0099   -2.5097   -2.0039 C   0  0  0  0  0  0  0  0  0  0  0  0
    2.2527   -0.0210   -1.1985 C   0  0  0  0  0  0  0  0  0  0  0  0
    1.6250   -1.1656   -0.4961 C   0  0  0  0  0  0  0  0  0  0  0  0
    2.1015   -1.6252    0.7365 C   0  0  0  0  0  0  0  0  0  0  0  0
    3.2868   -1.1610    1.4064 C   0  0  0  0  0  0  0  0  0  0  0  0
    4.2496   -0.7980    1.9363 N   0  0  0  0  0  0  0  0  0  0  0  0
    1.2686   -3.0109    1.1889 S   0  0  0  0  0  0  0  0  0  0  0  0
    0.3071   -3.0741   -0.1900 C   0  0  0  0  0  0  0  0  0  0  0  0
   -0.6719   -4.0333   -0.4643 O   0  0  0  0  0  0  0  0  0  0  0  0
   -1.0285   -5.0520    0.4595 C   0  0  0  0  0  0  0  0  0  0  0  0
    0.6314   -2.0189   -1.0371 C   0  0  0  0  0  0  0  0  0  0  0  0
    0.0491   -1.9098   -2.3867 C   0  0  0  0  0  0  0  0  0  0  0  0
    0.2699   -2.8404   -3.4056 C   0  0  0  0  0  0  0  0  0  0  0  0
    1.0723   -4.0317   -3.3153 C   0  0  0  0  0  0  0  0  0  0  0  0
    1.7152   -4.9912   -3.2390 N   0  0  0  0  0  0  0  0  0  0  0  0
   -0.6671   -2.4374   -4.7414 S   0  0  0  0  0  0  0  0  0  0  0  0
   -1.3874   -1.0942   -4.0229 C   0  0  0  0  0  0  0  0  0  0  0  0
   -2.3418   -0.2585   -4.6076 O   0  0  0  0  0  0  0  0  0  0  0  0
   -2.8101   -0.4423   -5.9379 C   0  0  0  0  0  0  0  0  0  0  0  0
   -0.9091   -0.9487   -2.7297 C   0  0  0  0  0  0  0  0  0  0  0  0
   -1.1456   -0.7126    0.3800 H   0  0  0  0  0  0  0  0  0  0  0  0
   -2.3041    0.0972    6.9080 H   0  0  0  0  0  0  0  0  0  0  0  0
   -3.6802    0.1349    5.7409 H   0  0  0  0  0  0  0  0  0  0  0  0
   -2.8348   -1.4316    6.1103 H   0  0  0  0  0  0  0  0  0  0  0  0
    0.9851    4.1794    0.4157 H   0  0  0  0  0  0  0  0  0  0  0  0
    2.5296    5.0279    0.7630 H   0  0  0  0  0  0  0  0  0  0  0  0
    1.3576    4.7249    2.0997 H   0  0  0  0  0  0  0  0  0  0  0  0
   -2.2137    2.4147   -4.0111 H   0  0  0  0  0  0  0  0  0  0  0  0
   -1.3772    4.0092   -3.7852 H   0  0  0  0  0  0  0  0  0  0  0  0
   -0.8303    2.8712   -5.0758 H   0  0  0  0  0  0  0  0  0  0  0  0
    3.2782   -2.5485   -2.8339 H   0  0  0  0  0  0  0  0  0  0  0  0
    3.5823   -2.9395   -1.0784 H   0  0  0  0  0  0  0  0  0  0  0  0
    4.8905   -3.1212   -2.2853 H   0  0  0  0  0  0  0  0  0  0  0  0
   -1.4172   -4.5955    1.3948 H   0  0  0  0  0  0  0  0  0  0  0  0
   -0.1445   -5.6871    0.6869 H   0  0  0  0  0  0  0  0  0  0  0  0
   -1.8179   -5.6869    0.0105 H   0  0  0  0  0  0  0  0  0  0  0  0
   -1.9601   -0.4004   -6.6537 H   0  0  0  0  0  0  0  0  0  0  0  0
   -3.5297    0.3656   -6.1867 H   0  0  0  0  0  0  0  0  0  0  0  0
   -3.3253   -1.4234   -6.0243 H   0  0  0  0  0  0  0  0  0  0  0  0
   -1.2983   -0.2207   -2.0370 H   0  0  0  0  0  0  0  0  0  0  0  0
  1  2  2  0
  2  3  1  0
  3  4  3  0
  2  5  1  0
  5  6  1  0
  6  7  1  0
  7  8  1  0
  6  9  2  0
  9 10  1  0
 10 11  2  0
 11 12  1  0
 12 13  3  0
 11 14  1  0
 14 15  1  0
 15 16  1  0
 16 17  1  0
 15 18  2  0
 18 19  1  0
 19 20  2  0
 20 21  1  0
 21 22  3  0
 20 23  1  0
 23 24  1  0
 24 25  1  0
 25 26  1  0
 24 27  2  0
 27 28  1  0
 28 29  2  0
 29 30  1  0
 30 31  3  0
 29 32  1  0
 32 33  1  0
 33 34  1  0
 34 35  1  0
 33 36  2  0
 36 37  1  0
 37 38  2  0
 38 39  1  0
 39 40  3  0
 38 41  1  0
 41 42  1  0
 42 43  1  0
 43 44  1  0
 42 45  2  0
 45 46  1  0
 46 47  2  0
 47 48  1  0
 48 49  3  0
 47 50  1  0
 50 51  1  0
 51 52  1  0
 52 53  1  0
 51 54  2  0
  9  1  1  0
 18 10  1  0
 27 19  1  0
 36 28  1  0
 45 37  1  0
 54 46  1  0
  1 55  1  0
  8 56  1  0
  8 57  1  0
  8 58  1  0
 17 59  1  0
 17 60  1  0
 17 61  1  0
 26 62  1  0
 26 63  1  0
 26 64  1  0
 35 65  1  0
 35 66  1  0
 35 67  1  0
 44 68  1  0
 44 69  1  0
 44 70  1  0
 53 71  1  0
 53 72  1  0
 53 73  1  0
 54 74  1  0
M  END

