
     RDKit          3D

220245  0  0  0  0  0  0  0  0999 V2000
   -1.9834    2.7503    4.3218 C   0  0  0  0  0  0  0  0  0  0  0  0
   -2.7243    3.8243    3.8341 C   0  0  0  0  0  0  0  0  0  0  0  0
   -3.4503    3.5128    2.6750 C   0  0  0  0  0  0  0  0  0  0  0  0
   -4.2752    4.3898    1.9387 C   0  0  0  0  0  0  0  0  0  0  0  0
   -4.3913    5.8165    2.2871 C   0  0  0  0  0  0  0  0  0  0  0  0
   -3.1128    6.9086    2.2742 S   0  0  0  0  0  0  0  0  0  0  0  0
   -4.0024    8.2350    2.7964 C   0  0  0  0  0  0  0  0  0  0  0  0
   -3.4557    9.6189    2.9534 C   0  0  0  0  0  0  0  0  0  0  0  0
   -3.6362   10.4192    1.6685 C   0  0  0  0  0  0  0  0  0  0  0  0
   -5.3310    7.8437    2.9619 C   0  0  0  0  0  0  0  0  0  0  0  0
   -6.6067    8.9370    3.4770 Cl  0  0  0  0  0  0  0  0  0  0  0  0
   -5.5474    6.4864    2.6823 C   0  0  0  0  0  0  0  0  0  0  0  0
   -7.1146    5.7013    2.8487 Cl  0  0  0  0  0  0  0  0  0  0  0  0
   -4.9179    3.8599    0.8045 C   0  0  0  0  0  0  0  0  0  0  0  0
   -4.7616    2.5267    0.4113 C   0  0  0  0  0  0  0  0  0  0  0  0
   -3.9162    1.6599    1.1307 C   0  0  0  0  0  0  0  0  0  0  0  0
   -3.6179    0.2995    0.6513 C   0  0  0  0  0  0  0  0  0  0  0  0
   -4.7184   -0.9696    0.6073 S   0  0  0  0  0  0  0  0  0  0  0  0
   -3.7084   -2.0563   -0.1900 C   0  0  0  0  0  0  0  0  0  0  0  0
   -4.1174   -3.4270   -0.6350 C   0  0  0  0  0  0  0  0  0  0  0  0
   -4.6621   -3.3938   -2.0588 C   0  0  0  0  0  0  0  0  0  0  0  0
   -2.4987   -1.4215   -0.4675 C   0  0  0  0  0  0  0  0  0  0  0  0
   -2.4472   -0.1031    0.0132 C   0  0  0  0  0  0  0  0  0  0  0  0
   -1.0701    0.9602   -0.2420 Cl  0  0  0  0  0  0  0  0  0  0  0  0
   -1.1925   -2.1721   -1.3767 Cl  0  0  0  0  0  0  0  0  0  0  0  0
   -3.2800    2.1876    2.2644 C   0  0  0  0  0  0  0  0  0  0  0  0
   -2.2296    1.4125    3.3237 S   0  0  0  0  0  0  0  0  0  0  0  0
   -5.4017    2.2260   -0.7971 C   0  0  0  0  0  0  0  0  0  0  0  0
   -6.0276    3.3282   -1.3785 C   0  0  0  0  0  0  0  0  0  0  0  0
   -5.7940    4.6785   -0.3830 S   0  0  0  0  0  0  0  0  0  0  0  0
   -6.4540    3.3635   -2.7844 C   0  0  0  0  0  0  0  0  0  0  0  0
   -6.1172    4.3934   -3.6638 C   0  0  0  0  0  0  0  0  0  0  0  0
   -6.0498    3.9713   -5.0051 C   0  0  0  0  0  0  0  0  0  0  0  0
   -5.4340    4.6858   -6.0554 C   0  0  0  0  0  0  0  0  0  0  0  0
   -5.0350    6.0987   -5.8912 C   0  0  0  0  0  0  0  0  0  0  0  0
   -3.4590    6.6841   -5.9640 S   0  0  0  0  0  0  0  0  0  0  0  0
   -3.8447    8.2937   -5.6725 C   0  0  0  0  0  0  0  0  0  0  0  0
   -2.8443    9.4074   -5.5859 C   0  0  0  0  0  0  0  0  0  0  0  0
   -2.4714    9.6934   -4.1355 C   0  0  0  0  0  0  0  0  0  0  0  0
   -5.2209    8.3932   -5.4831 C   0  0  0  0  0  0  0  0  0  0  0  0
   -6.0451    9.9079   -5.1380 Cl  0  0  0  0  0  0  0  0  0  0  0  0
   -5.8867    7.1628   -5.6028 C   0  0  0  0  0  0  0  0  0  0  0  0
   -7.6319    6.9954   -5.4409 Cl  0  0  0  0  0  0  0  0  0  0  0  0
   -5.0507    3.9360   -7.1857 C   0  0  0  0  0  0  0  0  0  0  0  0
   -5.3383    2.5740   -7.3172 C   0  0  0  0  0  0  0  0  0  0  0  0
   -6.1012    1.9098   -6.3400 C   0  0  0  0  0  0  0  0  0  0  0  0
   -6.3887    0.4678   -6.4232 C   0  0  0  0  0  0  0  0  0  0  0  0
   -7.8862   -0.1774   -6.8127 S   0  0  0  0  0  0  0  0  0  0  0  0
   -7.4542   -1.7865   -6.5716 C   0  0  0  0  0  0  0  0  0  0  0  0
   -8.4072   -2.9403   -6.6484 C   0  0  0  0  0  0  0  0  0  0  0  0
   -9.0612   -3.1788   -5.2907 C   0  0  0  0  0  0  0  0  0  0  0  0
   -6.1270   -1.8339   -6.1490 C   0  0  0  0  0  0  0  0  0  0  0  0
   -5.5258   -0.5685   -6.0717 C   0  0  0  0  0  0  0  0  0  0  0  0
   -3.8714   -0.3110   -5.5320 Cl  0  0  0  0  0  0  0  0  0  0  0  0
   -5.3074   -3.3176   -5.6896 Cl  0  0  0  0  0  0  0  0  0  0  0  0
   -6.3939    2.6271   -5.1734 C   0  0  0  0  0  0  0  0  0  0  0  0
   -6.7588    1.9657   -3.6778 S   0  0  0  0  0  0  0  0  0  0  0  0
   -4.5986    1.9409   -8.3311 C   0  0  0  0  0  0  0  0  0  0  0  0
   -3.6503    2.7758   -8.9339 C   0  0  0  0  0  0  0  0  0  0  0  0
   -3.8809    4.3331   -8.3205 S   0  0  0  0  0  0  0  0  0  0  0  0
   -2.3056    2.2925   -9.3077 C   0  0  0  0  0  0  0  0  0  0  0  0
   -1.9565    0.9364   -9.3838 C   0  0  0  0  0  0  0  0  0  0  0  0
   -0.6219    0.6753   -9.0199 C   0  0  0  0  0  0  0  0  0  0  0  0
   -0.0756   -0.6017   -8.7514 C   0  0  0  0  0  0  0  0  0  0  0  0
   -0.7974   -1.8503   -9.1013 C   0  0  0  0  0  0  0  0  0  0  0  0
   -1.1188   -3.1213   -8.0450 S   0  0  0  0  0  0  0  0  0  0  0  0
   -1.8823   -4.1174   -9.1610 C   0  0  0  0  0  0  0  0  0  0  0  0
   -2.3524   -5.5144   -8.8740 C   0  0  0  0  0  0  0  0  0  0  0  0
   -3.5196   -5.5054   -7.8951 C   0  0  0  0  0  0  0  0  0  0  0  0
   -1.9121   -3.4618  -10.3901 C   0  0  0  0  0  0  0  0  0  0  0  0
   -2.6154   -4.1493  -11.8487 Cl  0  0  0  0  0  0  0  0  0  0  0  0
   -1.2992   -2.1979  -10.3600 C   0  0  0  0  0  0  0  0  0  0  0  0
   -1.1041   -1.2000  -11.7983 Cl  0  0  0  0  0  0  0  0  0  0  0  0
    1.1343   -0.6261   -8.0242 C   0  0  0  0  0  0  0  0  0  0  0  0
    1.7979    0.5372   -7.6215 C   0  0  0  0  0  0  0  0  0  0  0  0
    1.3069    1.8030   -7.9957 C   0  0  0  0  0  0  0  0  0  0  0  0
    1.9411    3.0513   -7.5394 C   0  0  0  0  0  0  0  0  0  0  0  0
    2.7009    4.1542   -8.5542 S   0  0  0  0  0  0  0  0  0  0  0  0
    3.1488    5.2304   -7.3435 C   0  0  0  0  0  0  0  0  0  0  0  0
    3.9821    6.4558   -7.5639 C   0  0  0  0  0  0  0  0  0  0  0  0
    5.4680    6.1116   -7.5114 C   0  0  0  0  0  0  0  0  0  0  0  0
    2.7193    4.7268   -6.1161 C   0  0  0  0  0  0  0  0  0  0  0  0
    2.0258    3.5141   -6.2282 C   0  0  0  0  0  0  0  0  0  0  0  0
    1.3012    2.6831   -4.8536 Cl  0  0  0  0  0  0  0  0  0  0  0  0
    3.0216    5.5279   -4.5786 Cl  0  0  0  0  0  0  0  0  0  0  0  0
    0.0896    1.8318   -8.6924 C   0  0  0  0  0  0  0  0  0  0  0  0
   -0.9211    3.1552   -8.8763 S   0  0  0  0  0  0  0  0  0  0  0  0
    2.8686    0.2967   -6.7417 C   0  0  0  0  0  0  0  0  0  0  0  0
    3.0425   -1.0528   -6.4469 C   0  0  0  0  0  0  0  0  0  0  0  0
    1.8897   -1.9431   -7.3015 S   0  0  0  0  0  0  0  0  0  0  0  0
    3.7306   -1.5637   -5.2516 C   0  0  0  0  0  0  0  0  0  0  0  0
    4.1588   -2.8777   -5.0480 C   0  0  0  0  0  0  0  0  0  0  0  0
    4.3471   -3.8363   -6.1027 C   0  0  0  0  0  0  0  0  0  0  0  0
    4.5188   -4.6014   -6.9531 N   0  0  0  0  0  0  0  0  0  0  0  0
    4.3961   -3.1871   -3.7026 C   0  0  0  0  0  0  0  0  0  0  0  0
    4.1724   -2.1191   -2.8425 C   0  0  0  0  0  0  0  0  0  0  0  0
    3.6602   -0.8000   -3.7485 S   0  0  0  0  0  0  0  0  0  0  0  0
    4.0171   -2.2446   -1.3941 C   0  0  0  0  0  0  0  0  0  0  0  0
    4.7270   -1.5524   -0.4138 C   0  0  0  0  0  0  0  0  0  0  0  0
    4.3800   -1.9578    0.8886 C   0  0  0  0  0  0  0  0  0  0  0  0
    4.9650   -1.5206    2.0976 C   0  0  0  0  0  0  0  0  0  0  0  0
    5.9745   -0.4487    2.1292 C   0  0  0  0  0  0  0  0  0  0  0  0
    5.6513    1.1627    1.7825 S   0  0  0  0  0  0  0  0  0  0  0  0
    7.1825    1.7443    2.1731 C   0  0  0  0  0  0  0  0  0  0  0  0
    7.5659    3.1932    2.1702 C   0  0  0  0  0  0  0  0  0  0  0  0
    7.2944    3.8258    3.5305 C   0  0  0  0  0  0  0  0  0  0  0  0
    7.9658    0.6736    2.6089 C   0  0  0  0  0  0  0  0  0  0  0  0
    9.6251    0.8487    3.1611 Cl  0  0  0  0  0  0  0  0  0  0  0  0
    7.2909   -0.5562    2.5777 C   0  0  0  0  0  0  0  0  0  0  0  0
    8.0352   -2.0786    3.0458 Cl  0  0  0  0  0  0  0  0  0  0  0  0
    4.4990   -2.1159    3.2862 C   0  0  0  0  0  0  0  0  0  0  0  0
    3.4713   -3.0628    3.2959 C   0  0  0  0  0  0  0  0  0  0  0  0
    2.8766   -3.4866    2.0950 C   0  0  0  0  0  0  0  0  0  0  0  0
    1.7487   -4.4269    2.0828 C   0  0  0  0  0  0  0  0  0  0  0  0
    1.8832   -6.0910    2.2719 S   0  0  0  0  0  0  0  0  0  0  0  0
    0.2274   -6.4019    2.2683 C   0  0  0  0  0  0  0  0  0  0  0  0
   -0.3809   -7.7473    2.5185 C   0  0  0  0  0  0  0  0  0  0  0  0
   -0.5378   -7.9968    4.0142 C   0  0  0  0  0  0  0  0  0  0  0  0
   -0.4558   -5.1898    2.1371 C   0  0  0  0  0  0  0  0  0  0  0  0
    0.4003   -4.0835    2.0441 C   0  0  0  0  0  0  0  0  0  0  0  0
   -0.1641   -2.4185    1.9908 Cl  0  0  0  0  0  0  0  0  0  0  0  0
   -2.2076   -5.0542    2.1691 Cl  0  0  0  0  0  0  0  0  0  0  0  0
    3.3765   -2.9335    0.9078 C   0  0  0  0  0  0  0  0  0  0  0  0
    2.9436   -3.3251   -0.6668 S   0  0  0  0  0  0  0  0  0  0  0  0
    3.1304   -3.5069    4.5805 C   0  0  0  0  0  0  0  0  0  0  0  0
    3.9059   -2.9245    5.5775 C   0  0  0  0  0  0  0  0  0  0  0  0
    4.9943   -1.8374    4.8738 S   0  0  0  0  0  0  0  0  0  0  0  0
    3.7947   -3.2331    7.0081 C   0  0  0  0  0  0  0  0  0  0  0  0
    4.7707   -3.0001    7.9785 C   0  0  0  0  0  0  0  0  0  0  0  0
    4.4059   -3.4915    9.2445 C   0  0  0  0  0  0  0  0  0  0  0  0
    5.2028   -3.4926   10.4054 C   0  0  0  0  0  0  0  0  0  0  0  0
    6.5721   -2.9549   10.4075 C   0  0  0  0  0  0  0  0  0  0  0  0
    6.9674   -1.3224   10.3580 S   0  0  0  0  0  0  0  0  0  0  0  0
    8.6349   -1.5429   10.4268 C   0  0  0  0  0  0  0  0  0  0  0  0
    9.6447   -0.4348   10.4101 C   0  0  0  0  0  0  0  0  0  0  0  0
   10.0401   -0.0767    8.9835 C   0  0  0  0  0  0  0  0  0  0  0  0
    8.9038   -2.9119   10.4764 C   0  0  0  0  0  0  0  0  0  0  0  0
   10.5285   -3.5833   10.5334 Cl  0  0  0  0  0  0  0  0  0  0  0  0
    7.7442   -3.7025   10.4712 C   0  0  0  0  0  0  0  0  0  0  0  0
    7.7729   -5.4607   10.5128 Cl  0  0  0  0  0  0  0  0  0  0  0  0
    4.6502   -4.0758   11.5580 C   0  0  0  0  0  0  0  0  0  0  0  0
    3.3769   -4.6522   11.5770 C   0  0  0  0  0  0  0  0  0  0  0  0
    2.5892   -4.6720   10.4122 C   0  0  0  0  0  0  0  0  0  0  0  0
    1.2682   -5.3182   10.3724 C   0  0  0  0  0  0  0  0  0  0  0  0
    1.0233   -6.9778   10.3004 S   0  0  0  0  0  0  0  0  0  0  0  0
   -0.6456   -6.9033   10.0811 C   0  0  0  0  0  0  0  0  0  0  0  0
   -1.5232   -8.0867    9.8024 C   0  0  0  0  0  0  0  0  0  0  0  0
   -1.6408   -8.3223    8.3001 C   0  0  0  0  0  0  0  0  0  0  0  0
   -1.0274   -5.5633   10.0356 C   0  0  0  0  0  0  0  0  0  0  0  0
    0.0446   -4.6752   10.2003 C   0  0  0  0  0  0  0  0  0  0  0  0
   -0.1308   -2.9242   10.1688 Cl  0  0  0  0  0  0  0  0  0  0  0  0
   -2.6790   -5.0301    9.7579 Cl  0  0  0  0  0  0  0  0  0  0  0  0
    3.1369   -4.0800    9.2626 C   0  0  0  0  0  0  0  0  0  0  0  0
    2.4804   -4.0249    7.7163 S   0  0  0  0  0  0  0  0  0  0  0  0
    3.0153   -5.1516   12.8353 C   0  0  0  0  0  0  0  0  0  0  0  0
    4.0036   -4.9743   13.7971 C   0  0  0  0  0  0  0  0  0  0  0  0
    5.3257   -4.1955   13.0908 S   0  0  0  0  0  0  0  0  0  0  0  0
   -1.3545    2.7741    5.2035 H   0  0  0  0  0  0  0  0  0  0  0  0
   -2.7307    4.7923    4.3147 H   0  0  0  0  0  0  0  0  0  0  0  0
   -2.3735    9.5637    3.1993 H   0  0  0  0  0  0  0  0  0  0  0  0
   -3.9675   10.1393    3.7917 H   0  0  0  0  0  0  0  0  0  0  0  0
   -3.1061    9.9207    0.8272 H   0  0  0  0  0  0  0  0  0  0  0  0
   -3.2110   11.4350    1.8031 H   0  0  0  0  0  0  0  0  0  0  0  0
   -4.7155   10.5169    1.4197 H   0  0  0  0  0  0  0  0  0  0  0  0
   -4.9015   -3.8180    0.0482 H   0  0  0  0  0  0  0  0  0  0  0  0
   -3.2466   -4.1138   -0.5851 H   0  0  0  0  0  0  0  0  0  0  0  0
   -4.9867   -4.4116   -2.3563 H   0  0  0  0  0  0  0  0  0  0  0  0
   -5.5336   -2.7045   -2.1260 H   0  0  0  0  0  0  0  0  0  0  0  0
   -3.8750   -3.0515   -2.7646 H   0  0  0  0  0  0  0  0  0  0  0  0
   -5.3193    1.2648   -1.2879 H   0  0  0  0  0  0  0  0  0  0  0  0
   -5.7477    5.3523   -3.3253 H   0  0  0  0  0  0  0  0  0  0  0  0
   -3.2662   10.3234   -6.0506 H   0  0  0  0  0  0  0  0  0  0  0  0
   -1.9304    9.1262   -6.1504 H   0  0  0  0  0  0  0  0  0  0  0  0
   -3.3693    9.9974   -3.5567 H   0  0  0  0  0  0  0  0  0  0  0  0
   -2.0183    8.7923   -3.6674 H   0  0  0  0  0  0  0  0  0  0  0  0
   -1.7320   10.5208   -4.1020 H   0  0  0  0  0  0  0  0  0  0  0  0
   -9.1946   -2.7221   -7.4009 H   0  0  0  0  0  0  0  0  0  0  0  0
   -7.8711   -3.8587   -6.9693 H   0  0  0  0  0  0  0  0  0  0  0  0
   -9.8230   -3.9818   -5.3799 H   0  0  0  0  0  0  0  0  0  0  0  0
   -8.2968   -3.4933   -4.5466 H   0  0  0  0  0  0  0  0  0  0  0  0
   -9.5608   -2.2504   -4.9325 H   0  0  0  0  0  0  0  0  0  0  0  0
   -4.6041    0.8658   -8.4602 H   0  0  0  0  0  0  0  0  0  0  0  0
   -2.6877    0.1502   -9.5198 H   0  0  0  0  0  0  0  0  0  0  0  0
   -1.5110   -6.0939   -8.4398 H   0  0  0  0  0  0  0  0  0  0  0  0
   -2.6663   -6.0229   -9.8067 H   0  0  0  0  0  0  0  0  0  0  0  0
   -3.8418   -6.5491   -7.6935 H   0  0  0  0  0  0  0  0  0  0  0  0
   -4.3753   -4.9442   -8.3267 H   0  0  0  0  0  0  0  0  0  0  0  0
   -3.2162   -5.0417   -6.9321 H   0  0  0  0  0  0  0  0  0  0  0  0
    3.7506    7.2170   -6.7881 H   0  0  0  0  0  0  0  0  0  0  0  0
    3.7422    6.8910   -8.5572 H   0  0  0  0  0  0  0  0  0  0  0  0
    5.7272    5.6727   -6.5249 H   0  0  0  0  0  0  0  0  0  0  0  0
    6.0688    7.0340   -7.6586 H   0  0  0  0  0  0  0  0  0  0  0  0
    5.7226    5.3818   -8.3098 H   0  0  0  0  0  0  0  0  0  0  0  0
    3.4416    1.0782   -6.2576 H   0  0  0  0  0  0  0  0  0  0  0  0
    4.6726   -4.1773   -3.3589 H   0  0  0  0  0  0  0  0  0  0  0  0
    5.4946   -0.8189   -0.6397 H   0  0  0  0  0  0  0  0  0  0  0  0
    8.6402    3.3039    1.9129 H   0  0  0  0  0  0  0  0  0  0  0  0
    6.9746    3.7274    1.3963 H   0  0  0  0  0  0  0  0  0  0  0  0
    6.2319    3.6880    3.8191 H   0  0  0  0  0  0  0  0  0  0  0  0
    7.9438    3.3638    4.3033 H   0  0  0  0  0  0  0  0  0  0  0  0
    7.5128    4.9146    3.4835 H   0  0  0  0  0  0  0  0  0  0  0  0
   -1.3726   -7.8170    2.0224 H   0  0  0  0  0  0  0  0  0  0  0  0
    0.2741   -8.5324    2.0845 H   0  0  0  0  0  0  0  0  0  0  0  0
   -0.9842   -8.9999    4.1823 H   0  0  0  0  0  0  0  0  0  0  0  0
    0.4527   -7.9562    4.5202 H   0  0  0  0  0  0  0  0  0  0  0  0
   -1.2062   -7.2318    4.4650 H   0  0  0  0  0  0  0  0  0  0  0  0
    2.3551   -4.2375    4.7763 H   0  0  0  0  0  0  0  0  0  0  0  0
    5.7221   -2.5306    7.7643 H   0  0  0  0  0  0  0  0  0  0  0  0
   10.5469   -0.7376   10.9835 H   0  0  0  0  0  0  0  0  0  0  0  0
    9.2140    0.4598   10.9076 H   0  0  0  0  0  0  0  0  0  0  0  0
   10.8032    0.7294    9.0047 H   0  0  0  0  0  0  0  0  0  0  0  0
   10.4752   -0.9601    8.4697 H   0  0  0  0  0  0  0  0  0  0  0  0
    9.1573    0.2858    8.4133 H   0  0  0  0  0  0  0  0  0  0  0  0
   -2.5322   -7.9177   10.2326 H   0  0  0  0  0  0  0  0  0  0  0  0
   -1.0932   -8.9909   10.2852 H   0  0  0  0  0  0  0  0  0  0  0  0
   -0.6464   -8.5632    7.8669 H   0  0  0  0  0  0  0  0  0  0  0  0
   -2.0484   -7.4202    7.7927 H   0  0  0  0  0  0  0  0  0  0  0  0
   -2.3279   -9.1743    8.1093 H   0  0  0  0  0  0  0  0  0  0  0  0
    2.0620   -5.6161   13.0522 H   0  0  0  0  0  0  0  0  0  0  0  0
    3.9314   -5.2776   14.8328 H   0  0  0  0  0  0  0  0  0  0  0  0
  1  2  2  0
  2  3  1  0
  3  4  2  0
  4  5  1  0
  5  6  1  0
  6  7  1  0
  7  8  1  0
  8  9  1  0
  7 10  2  0
 10 11  1  0
 10 12  1  0
 12 13  1  0
  4 14  1  0
 14 15  2  0
 15 16  1  0
 16 17  1  0
 17 18  1  0
 18 19  1  0
 19 20  1  0
 20 21  1  0
 19 22  2  0
 22 23  1  0
 23 24  1  0
 22 25  1  0
 16 26  2  0
 26 27  1  0
 15 28  1  0
 28 29  2  0
 29 30  1  0
 29 31  1  0
 31 32  2  0
 32 33  1  0
 33 34  2  0
 34 35  1  0
 35 36  1  0
 36 37  1  0
 37 38  1  0
 38 39  1  0
 37 40  2  0
 40 41  1  0
 40 42  1  0
 42 43  1  0
 34 44  1  0
 44 45  2  0
 45 46  1  0
 46 47  1  0
 47 48  1  0
 48 49  1  0
 49 50  1  0
 50 51  1  0
 49 52  2  0
 52 53  1  0
 53 54  1  0
 52 55  1  0
 46 56  2  0
 56 57  1  0
 45 58  1  0
 58 59  2  0
 59 60  1  0
 59 61  1  0
 61 62  2  0
 62 63  1  0
 63 64  2  0
 64 65  1  0
 65 66  1  0
 66 67  1  0
 67 68  1  0
 68 69  1  0
 67 70  2  0
 70 71  1  0
 70 72  1  0
 72 73  1  0
 64 74  1  0
 74 75  2  0
 75 76  1  0
 76 77  1  0
 77 78  1  0
 78 79  1  0
 79 80  1  0
 80 81  1  0
 79 82  2  0
 82 83  1  0
 83 84  1  0
 82 85  1  0
 76 86  2  0
 86 87  1  0
 75 88  1  0
 88 89  2  0
 89 90  1  0
 89 91  1  0
 91 92  2  0
 92 93  1  0
 93 94  3  0
 92 95  1  0
 95 96  2  0
 96 97  1  0
 96 98  1  0
 98 99  2  0
 99100  1  0
100101  2  0
101102  1  0
102103  1  0
103104  1  0
104105  1  0
105106  1  0
104107  2  0
107108  1  0
107109  1  0
109110  1  0
101111  1  0
111112  2  0
112113  1  0
113114  1  0
114115  1  0
115116  1  0
116117  1  0
117118  1  0
116119  2  0
119120  1  0
120121  1  0
119122  1  0
113123  2  0
123124  1  0
112125  1  0
125126  2  0
126127  1  0
126128  1  0
128129  2  0
129130  1  0
130131  2  0
131132  1  0
132133  1  0
133134  1  0
134135  1  0
135136  1  0
134137  2  0
137138  1  0
137139  1  0
139140  1  0
131141  1  0
141142  2  0
142143  1  0
143144  1  0
144145  1  0
145146  1  0
146147  1  0
147148  1  0
146149  2  0
149150  1  0
150151  1  0
149152  1  0
143153  2  0
153154  1  0
142155  1  0
155156  2  0
156157  1  0
 27  1  1  0
 57 31  1  0
 87 61  1  0
 97 91  1  0
124 98  1  0
154128  1  0
 26  3  1  0
 56 33  1  0
 86 63  1  0
123100  1  0
153130  1  0
 12  5  2  0
 30 14  1  0
 42 35  2  0
 60 44  1  0
 72 65  2  0
 90 74  1  0
109102  2  0
127111  1  0
139132  2  0
157141  1  0
 23 17  2  0
 53 47  2  0
 83 77  2  0
120114  2  0
150144  2  0
  1158  1  0
  2159  1  0
  8160  1  0
  8161  1  0
  9162  1  0
  9163  1  0
  9164  1  0
 20165  1  0
 20166  1  0
 21167  1  0
 21168  1  0
 21169  1  0
 28170  1  0
 32171  1  0
 38172  1  0
 38173  1  0
 39174  1  0
 39175  1  0
 39176  1  0
 50177  1  0
 50178  1  0
 51179  1  0
 51180  1  0
 51181  1  0
 58182  1  0
 62183  1  0
 68184  1  0
 68185  1  0
 69186  1  0
 69187  1  0
 69188  1  0
 80189  1  0
 80190  1  0
 81191  1  0
 81192  1  0
 81193  1  0
 88194  1  0
 95195  1  0
 99196  1  0
105197  1  0
105198  1  0
106199  1  0
106200  1  0
106201  1  0
117202  1  0
117203  1  0
118204  1  0
118205  1  0
118206  1  0
125207  1  0
129208  1  0
135209  1  0
135210  1  0
136211  1  0
136212  1  0
136213  1  0
147214  1  0
147215  1  0
148216  1  0
148217  1  0
148218  1  0
155219  1  0
156220  1  0
M  END

