
     RDKit          3D

223249  0  0  0  0  0  0  0  0999 V2000
    1.7047   -8.8718    8.2362 C   0  0  0  0  0  0  0  0  0  0  0  0
    1.3150   -9.3458    6.9876 C   0  0  0  0  0  0  0  0  0  0  0  0
    0.3846   -8.5144    6.3450 C   0  0  0  0  0  0  0  0  0  0  0  0
   -0.2151   -8.7400    5.0874 C   0  0  0  0  0  0  0  0  0  0  0  0
    0.1510   -9.8897    4.2396 C   0  0  0  0  0  0  0  0  0  0  0  0
   -0.9144  -11.0902    3.7364 S   0  0  0  0  0  0  0  0  0  0  0  0
    0.2022  -11.9476    2.8163 C   0  0  0  0  0  0  0  0  0  0  0  0
   -0.1276  -13.1514    1.9878 C   0  0  0  0  0  0  0  0  0  0  0  0
   -0.5912  -12.7379    0.5955 C   0  0  0  0  0  0  0  0  0  0  0  0
    1.4265  -11.2817    2.8671 C   0  0  0  0  0  0  0  0  0  0  0  0
    2.8569  -11.8103    1.9902 Cl  0  0  0  0  0  0  0  0  0  0  0  0
    1.4006  -10.1319    3.6704 C   0  0  0  0  0  0  0  0  0  0  0  0
    2.7829   -9.0615    3.8666 Cl  0  0  0  0  0  0  0  0  0  0  0  0
   -1.1767   -7.8044    4.6650 C   0  0  0  0  0  0  0  0  0  0  0  0
   -1.5123   -6.6795    5.4227 C   0  0  0  0  0  0  0  0  0  0  0  0
   -0.9093   -6.4504    6.6750 C   0  0  0  0  0  0  0  0  0  0  0  0
   -1.2640   -5.2848    7.5049 C   0  0  0  0  0  0  0  0  0  0  0  0
   -0.2266   -4.0125    7.8663 S   0  0  0  0  0  0  0  0  0  0  0  0
   -1.3507   -3.1084    8.7338 C   0  0  0  0  0  0  0  0  0  0  0  0
   -1.0507   -1.8100    9.4207 C   0  0  0  0  0  0  0  0  0  0  0  0
   -0.4896   -2.0585   10.8162 C   0  0  0  0  0  0  0  0  0  0  0  0
   -2.5544   -3.8099    8.7717 C   0  0  0  0  0  0  0  0  0  0  0  0
   -2.5098   -5.0258    8.0735 C   0  0  0  0  0  0  0  0  0  0  0  0
   -3.8749   -6.1300    7.9627 Cl  0  0  0  0  0  0  0  0  0  0  0  0
   -3.9891   -3.2388    9.6159 Cl  0  0  0  0  0  0  0  0  0  0  0  0
    0.0409   -7.3912    7.1043 C   0  0  0  0  0  0  0  0  0  0  0  0
    0.8910   -7.4286    8.5540 S   0  0  0  0  0  0  0  0  0  0  0  0
   -2.4416   -5.8435    4.7904 C   0  0  0  0  0  0  0  0  0  0  0  0
   -2.8527   -6.3247    3.5493 C   0  0  0  0  0  0  0  0  0  0  0  0
   -2.0483   -7.7736    3.2220 S   0  0  0  0  0  0  0  0  0  0  0  0
   -3.7735   -5.6369    2.6320 C   0  0  0  0  0  0  0  0  0  0  0  0
   -4.1682   -4.3063    2.7423 C   0  0  0  0  0  0  0  0  0  0  0  0
   -4.9693   -3.8808    1.6729 C   0  0  0  0  0  0  0  0  0  0  0  0
   -5.4743   -2.5812    1.4900 C   0  0  0  0  0  0  0  0  0  0  0  0
   -5.1266   -1.4800    2.4094 C   0  0  0  0  0  0  0  0  0  0  0  0
   -3.5615   -0.9340    2.7003 S   0  0  0  0  0  0  0  0  0  0  0  0
   -3.9778    0.1974    3.8712 C   0  0  0  0  0  0  0  0  0  0  0  0
   -2.9889    1.0068    4.6558 C   0  0  0  0  0  0  0  0  0  0  0  0
   -2.4938    0.2260    5.8693 C   0  0  0  0  0  0  0  0  0  0  0  0
   -5.3583    0.1525    4.0633 C   0  0  0  0  0  0  0  0  0  0  0  0
   -6.2054    1.1284    5.2536 Cl  0  0  0  0  0  0  0  0  0  0  0  0
   -6.0043   -0.7809    3.2351 C   0  0  0  0  0  0  0  0  0  0  0  0
   -7.7335   -1.0954    3.2918 Cl  0  0  0  0  0  0  0  0  0  0  0  0
   -6.2167   -2.3481    0.3224 C   0  0  0  0  0  0  0  0  0  0  0  0
   -6.4552   -3.3449   -0.6302 C   0  0  0  0  0  0  0  0  0  0  0  0
   -6.0007   -4.6651   -0.4202 C   0  0  0  0  0  0  0  0  0  0  0  0
   -6.3263   -5.7602   -1.3589 C   0  0  0  0  0  0  0  0  0  0  0  0
   -5.2075   -6.7940   -2.0807 S   0  0  0  0  0  0  0  0  0  0  0  0
   -6.3300   -7.7421   -2.8979 C   0  0  0  0  0  0  0  0  0  0  0  0
   -5.9902   -8.9188   -3.7648 C   0  0  0  0  0  0  0  0  0  0  0  0
   -5.9981   -8.5346   -5.2413 C   0  0  0  0  0  0  0  0  0  0  0  0
   -7.6072   -7.2561   -2.6238 C   0  0  0  0  0  0  0  0  0  0  0  0
   -7.6062   -6.1516   -1.7566 C   0  0  0  0  0  0  0  0  0  0  0  0
   -9.0858   -5.3982   -1.1708 Cl  0  0  0  0  0  0  0  0  0  0  0  0
   -9.0777   -7.9679   -3.2746 Cl  0  0  0  0  0  0  0  0  0  0  0  0
   -5.2289   -4.8875    0.7365 C   0  0  0  0  0  0  0  0  0  0  0  0
   -4.4451   -6.2979    1.2297 S   0  0  0  0  0  0  0  0  0  0  0  0
   -7.0364   -2.8483   -1.8107 C   0  0  0  0  0  0  0  0  0  0  0  0
   -7.2562   -1.4685   -1.7784 C   0  0  0  0  0  0  0  0  0  0  0  0
   -6.7363   -0.8721   -0.2853 S   0  0  0  0  0  0  0  0  0  0  0  0
   -7.4468   -0.6105   -2.9582 C   0  0  0  0  0  0  0  0  0  0  0  0
   -7.0317   -0.9605   -4.2451 C   0  0  0  0  0  0  0  0  0  0  0  0
   -6.7506    0.1503   -5.0574 C   0  0  0  0  0  0  0  0  0  0  0  0
   -6.0474    0.1167   -6.2768 C   0  0  0  0  0  0  0  0  0  0  0  0
   -5.6076   -1.1491   -6.8926 C   0  0  0  0  0  0  0  0  0  0  0  0
   -6.1330   -1.7189   -8.3852 S   0  0  0  0  0  0  0  0  0  0  0  0
   -5.1415   -3.0776   -8.4179 C   0  0  0  0  0  0  0  0  0  0  0  0
   -5.1460   -4.1082   -9.5059 C   0  0  0  0  0  0  0  0  0  0  0  0
   -6.1711   -5.1982   -9.2136 C   0  0  0  0  0  0  0  0  0  0  0  0
   -4.3808   -3.1057   -7.2508 C   0  0  0  0  0  0  0  0  0  0  0  0
   -3.2164   -4.3696   -6.8764 Cl  0  0  0  0  0  0  0  0  0  0  0  0
   -4.6286   -2.0138   -6.4031 C   0  0  0  0  0  0  0  0  0  0  0  0
   -3.7477   -1.7362   -4.9035 Cl  0  0  0  0  0  0  0  0  0  0  0  0
   -5.5770    1.3430   -6.7698 C   0  0  0  0  0  0  0  0  0  0  0  0
   -5.8044    2.5581   -6.1219 C   0  0  0  0  0  0  0  0  0  0  0  0
   -6.5952    2.6040   -4.9548 C   0  0  0  0  0  0  0  0  0  0  0  0
   -6.7785    3.8416   -4.1745 C   0  0  0  0  0  0  0  0  0  0  0  0
   -5.5536    4.6464   -3.3464 S   0  0  0  0  0  0  0  0  0  0  0  0
   -6.5473    5.7928   -2.6227 C   0  0  0  0  0  0  0  0  0  0  0  0
   -6.0824    6.8299   -1.6463 C   0  0  0  0  0  0  0  0  0  0  0  0
   -6.2853    6.3544   -0.2104 C   0  0  0  0  0  0  0  0  0  0  0  0
   -7.8667    5.5368   -2.9951 C   0  0  0  0  0  0  0  0  0  0  0  0
   -7.9963    4.4377   -3.8591 C   0  0  0  0  0  0  0  0  0  0  0  0
   -9.5401    3.8704   -4.4815 Cl  0  0  0  0  0  0  0  0  0  0  0  0
   -9.2381    6.4777   -2.4238 Cl  0  0  0  0  0  0  0  0  0  0  0  0
   -7.0286    1.3721   -4.4359 C   0  0  0  0  0  0  0  0  0  0  0  0
   -7.5577    1.0717   -2.8691 S   0  0  0  0  0  0  0  0  0  0  0  0
   -5.0050    3.6056   -6.6152 C   0  0  0  0  0  0  0  0  0  0  0  0
   -4.0680    3.2062   -7.5848 C   0  0  0  0  0  0  0  0  0  0  0  0
   -4.3600    1.5676   -7.8989 S   0  0  0  0  0  0  0  0  0  0  0  0
   -2.7324    3.8567   -7.7775 C   0  0  0  0  0  0  0  0  0  0  0  0
   -2.4263    5.0472   -7.0771 C   0  0  0  0  0  0  0  0  0  0  0  0
   -1.1076    5.3556   -6.7168 C   0  0  0  0  0  0  0  0  0  0  0  0
   -0.0543    4.4999   -7.0680 C   0  0  0  0  0  0  0  0  0  0  0  0
   -0.3102    3.4682   -7.9778 C   0  0  0  0  0  0  0  0  0  0  0  0
    0.6703    2.6737   -8.4837 N   0  0  0  0  0  0  0  0  0  0  0  0
   -0.2284    1.6359   -9.4017 S   0  0  0  0  0  0  0  0  0  0  0  0
   -1.7983    2.0986   -9.1954 N   0  0  0  0  0  0  0  0  0  0  0  0
   -1.6501    3.1530   -8.3502 C   0  0  0  0  0  0  0  0  0  0  0  0
    1.1671    4.4798   -6.2484 C   0  0  0  0  0  0  0  0  0  0  0  0
    1.5744    3.3496   -5.5423 C   0  0  0  0  0  0  0  0  0  0  0  0
    2.5407    3.6221   -4.5674 C   0  0  0  0  0  0  0  0  0  0  0  0
    3.0285    2.7068   -3.6153 C   0  0  0  0  0  0  0  0  0  0  0  0
    2.5095    1.3292   -3.5182 C   0  0  0  0  0  0  0  0  0  0  0  0
    2.7232    0.1218   -4.6706 S   0  0  0  0  0  0  0  0  0  0  0  0
    1.8224   -1.0549   -3.8674 C   0  0  0  0  0  0  0  0  0  0  0  0
    1.5609   -2.4355   -4.3865 C   0  0  0  0  0  0  0  0  0  0  0  0
    0.2597   -2.4817   -5.1789 C   0  0  0  0  0  0  0  0  0  0  0  0
    1.3165   -0.4998   -2.6914 C   0  0  0  0  0  0  0  0  0  0  0  0
    0.2777   -1.3752   -1.5725 Cl  0  0  0  0  0  0  0  0  0  0  0  0
    1.7065    0.8327   -2.4937 C   0  0  0  0  0  0  0  0  0  0  0  0
    1.1696    1.8030   -1.1250 Cl  0  0  0  0  0  0  0  0  0  0  0  0
    3.9412    3.2025   -2.6722 C   0  0  0  0  0  0  0  0  0  0  0  0
    4.3231    4.5473   -2.6239 C   0  0  0  0  0  0  0  0  0  0  0  0
    3.7894    5.4758   -3.5436 C   0  0  0  0  0  0  0  0  0  0  0  0
    4.0991    6.9155   -3.4692 C   0  0  0  0  0  0  0  0  0  0  0  0
    4.8635    7.7970   -4.6807 S   0  0  0  0  0  0  0  0  0  0  0  0
    4.8670    9.2650   -3.8594 C   0  0  0  0  0  0  0  0  0  0  0  0
    5.4973   10.5252   -4.3726 C   0  0  0  0  0  0  0  0  0  0  0  0
    6.9568   10.6119   -3.9424 C   0  0  0  0  0  0  0  0  0  0  0  0
    4.2716    9.0812   -2.6111 C   0  0  0  0  0  0  0  0  0  0  0  0
    3.8299    7.7654   -2.3965 C   0  0  0  0  0  0  0  0  0  0  0  0
    2.9818    7.2625   -0.9405 Cl  0  0  0  0  0  0  0  0  0  0  0  0
    4.1013   10.3597   -1.4164 Cl  0  0  0  0  0  0  0  0  0  0  0  0
    2.9087    4.9711   -4.5178 C   0  0  0  0  0  0  0  0  0  0  0  0
    1.9948    5.8289   -5.6486 S   0  0  0  0  0  0  0  0  0  0  0  0
    5.2369    4.8222   -1.5904 C   0  0  0  0  0  0  0  0  0  0  0  0
    5.5517    3.6944   -0.8339 C   0  0  0  0  0  0  0  0  0  0  0  0
    4.7172    2.3582   -1.4436 S   0  0  0  0  0  0  0  0  0  0  0  0
    6.4388    3.6611    0.3355 C   0  0  0  0  0  0  0  0  0  0  0  0
    6.8875    2.5045    0.9710 C   0  0  0  0  0  0  0  0  0  0  0  0
    7.6963    2.7724    2.0857 C   0  0  0  0  0  0  0  0  0  0  0  0
    8.2958    1.8151    2.9281 C   0  0  0  0  0  0  0  0  0  0  0  0
    8.1520    0.3704    2.6825 C   0  0  0  0  0  0  0  0  0  0  0  0
    7.2276   -0.6689    3.6247 S   0  0  0  0  0  0  0  0  0  0  0  0
    7.4345   -2.0268    2.6492 C   0  0  0  0  0  0  0  0  0  0  0  0
    6.7332   -3.3348    2.8562 C   0  0  0  0  0  0  0  0  0  0  0  0
    5.4047   -3.3534    2.1088 C   0  0  0  0  0  0  0  0  0  0  0  0
    8.2187   -1.6712    1.5509 C   0  0  0  0  0  0  0  0  0  0  0  0
    8.6292   -2.7796    0.2512 Cl  0  0  0  0  0  0  0  0  0  0  0  0
    8.6240   -0.3279    1.5712 C   0  0  0  0  0  0  0  0  0  0  0  0
    9.6138    0.4029    0.3153 Cl  0  0  0  0  0  0  0  0  0  0  0  0
    9.0205    2.3030    4.0274 C   0  0  0  0  0  0  0  0  0  0  0  0
    9.1730    3.6687    4.2827 C   0  0  0  0  0  0  0  0  0  0  0  0
    8.5859    4.6257    3.4293 C   0  0  0  0  0  0  0  0  0  0  0  0
    8.6863    6.0694    3.6932 C   0  0  0  0  0  0  0  0  0  0  0  0
    7.4157    7.0296    4.2282 S   0  0  0  0  0  0  0  0  0  0  0  0
    8.3029    8.4538    4.3337 C   0  0  0  0  0  0  0  0  0  0  0  0
    7.7729    9.7446    4.8797 C   0  0  0  0  0  0  0  0  0  0  0  0
    8.0520    9.8504    6.3750 C   0  0  0  0  0  0  0  0  0  0  0  0
    9.6220    8.1877    3.9663 C   0  0  0  0  0  0  0  0  0  0  0  0
    9.8358    6.8491    3.6023 C   0  0  0  0  0  0  0  0  0  0  0  0
   11.3942    6.2227    3.0773 Cl  0  0  0  0  0  0  0  0  0  0  0  0
   10.8965    9.3988    3.9736 Cl  0  0  0  0  0  0  0  0  0  0  0  0
    7.8488    4.1390    2.3378 C   0  0  0  0  0  0  0  0  0  0  0  0
    7.0208    5.0162    1.1620 S   0  0  0  0  0  0  0  0  0  0  0  0
    9.9223    3.9322    5.4418 C   0  0  0  0  0  0  0  0  0  0  0  0
   10.3647    2.7758    6.0795 C   0  0  0  0  0  0  0  0  0  0  0  0
    9.8254    1.4283    5.2173 S   0  0  0  0  0  0  0  0  0  0  0  0
    2.4060   -9.3599    8.9001 H   0  0  0  0  0  0  0  0  0  0  0  0
    1.6884  -10.2721    6.5705 H   0  0  0  0  0  0  0  0  0  0  0  0
   -0.9345  -13.7294    2.4853 H   0  0  0  0  0  0  0  0  0  0  0  0
    0.7612  -13.8120    1.9013 H   0  0  0  0  0  0  0  0  0  0  0  0
   -1.4810  -12.0739    0.6656 H   0  0  0  0  0  0  0  0  0  0  0  0
    0.2236  -12.2001    0.0628 H   0  0  0  0  0  0  0  0  0  0  0  0
   -0.8629  -13.6399    0.0107 H   0  0  0  0  0  0  0  0  0  0  0  0
   -0.3106   -1.2401    8.8209 H   0  0  0  0  0  0  0  0  0  0  0  0
   -1.9721   -1.1965    9.4985 H   0  0  0  0  0  0  0  0  0  0  0  0
   -0.2583   -1.0878   11.3016 H   0  0  0  0  0  0  0  0  0  0  0  0
    0.4406   -2.6648   10.7567 H   0  0  0  0  0  0  0  0  0  0  0  0
   -1.2351   -2.5979   11.4406 H   0  0  0  0  0  0  0  0  0  0  0  0
   -2.7936   -4.9126    5.2169 H   0  0  0  0  0  0  0  0  0  0  0  0
   -3.8621   -3.6630    3.5556 H   0  0  0  0  0  0  0  0  0  0  0  0
   -3.4503    1.9609    4.9914 H   0  0  0  0  0  0  0  0  0  0  0  0
   -2.1264    1.2593    4.0060 H   0  0  0  0  0  0  0  0  0  0  0  0
   -2.0098   -0.7238    5.5480 H   0  0  0  0  0  0  0  0  0  0  0  0
   -1.7510    0.8334    6.4261 H   0  0  0  0  0  0  0  0  0  0  0  0
   -3.3394   -0.0113    6.5470 H   0  0  0  0  0  0  0  0  0  0  0  0
   -6.7218   -9.7382   -3.5892 H   0  0  0  0  0  0  0  0  0  0  0  0
   -4.9844   -9.3004   -3.4930 H   0  0  0  0  0  0  0  0  0  0  0  0
   -5.7468   -9.4211   -5.8589 H   0  0  0  0  0  0  0  0  0  0  0  0
   -5.2477   -7.7376   -5.4363 H   0  0  0  0  0  0  0  0  0  0  0  0
   -7.0020   -8.1671   -5.5414 H   0  0  0  0  0  0  0  0  0  0  0  0
   -7.1964   -3.4509   -2.6948 H   0  0  0  0  0  0  0  0  0  0  0  0
   -6.7810   -1.9748   -4.5263 H   0  0  0  0  0  0  0  0  0  0  0  0
   -4.1402   -4.5644   -9.6081 H   0  0  0  0  0  0  0  0  0  0  0  0
   -5.3992   -3.6243  -10.4722 H   0  0  0  0  0  0  0  0  0  0  0  0
   -6.1540   -5.9553  -10.0264 H   0  0  0  0  0  0  0  0  0  0  0  0
   -5.9331   -5.7023   -8.2508 H   0  0  0  0  0  0  0  0  0  0  0  0
   -7.1917   -4.7626   -9.1534 H   0  0  0  0  0  0  0  0  0  0  0  0
   -5.0032    7.0323   -1.8112 H   0  0  0  0  0  0  0  0  0  0  0  0
   -6.6357    7.7790   -1.8072 H   0  0  0  0  0  0  0  0  0  0  0  0
   -7.3670    6.2105   -0.0022 H   0  0  0  0  0  0  0  0  0  0  0  0
   -5.8867    7.1170    0.4934 H   0  0  0  0  0  0  0  0  0  0  0  0
   -5.7504    5.3952   -0.0420 H   0  0  0  0  0  0  0  0  0  0  0  0
   -5.0098    4.5828   -6.1600 H   0  0  0  0  0  0  0  0  0  0  0  0
   -3.2067    5.6825   -6.6851 H   0  0  0  0  0  0  0  0  0  0  0  0
   -0.9350    6.1855   -6.0416 H   0  0  0  0  0  0  0  0  0  0  0  0
    1.1081    2.3802   -5.6679 H   0  0  0  0  0  0  0  0  0  0  0  0
    1.5060   -3.1564   -3.5418 H   0  0  0  0  0  0  0  0  0  0  0  0
    2.4019   -2.7471   -5.0402 H   0  0  0  0  0  0  0  0  0  0  0  0
   -0.5998   -2.2293   -4.5238 H   0  0  0  0  0  0  0  0  0  0  0  0
    0.2971   -1.7667   -6.0271 H   0  0  0  0  0  0  0  0  0  0  0  0
    0.1049   -3.5068   -5.5796 H   0  0  0  0  0  0  0  0  0  0  0  0
    5.4333   10.5432   -5.4801 H   0  0  0  0  0  0  0  0  0  0  0  0
    4.9418   11.4093   -3.9908 H   0  0  0  0  0  0  0  0  0  0  0  0
    7.4107   11.5398   -4.3530 H   0  0  0  0  0  0  0  0  0  0  0  0
    7.0348   10.6358   -2.8359 H   0  0  0  0  0  0  0  0  0  0  0  0
    7.5236    9.7391   -4.3321 H   0  0  0  0  0  0  0  0  0  0  0  0
    5.6551    5.8018   -1.3986 H   0  0  0  0  0  0  0  0  0  0  0  0
    6.6351    1.5067    0.6367 H   0  0  0  0  0  0  0  0  0  0  0  0
    6.5467   -3.4830    3.9422 H   0  0  0  0  0  0  0  0  0  0  0  0
    7.3739   -4.1710    2.5024 H   0  0  0  0  0  0  0  0  0  0  0  0
    4.7529   -2.5269    2.4630 H   0  0  0  0  0  0  0  0  0  0  0  0
    4.8882   -4.3181    2.2903 H   0  0  0  0  0  0  0  0  0  0  0  0
    5.5732   -3.2418    1.0162 H   0  0  0  0  0  0  0  0  0  0  0  0
    6.6772    9.7948    4.7100 H   0  0  0  0  0  0  0  0  0  0  0  0
    8.2428   10.6014    4.3507 H   0  0  0  0  0  0  0  0  0  0  0  0
    7.5414    9.0288    6.9233 H   0  0  0  0  0  0  0  0  0  0  0  0
    7.6735   10.8218    6.7588 H   0  0  0  0  0  0  0  0  0  0  0  0
    9.1448    9.7932    6.5729 H   0  0  0  0  0  0  0  0  0  0  0  0
   10.1429    4.9248    5.8078 H   0  0  0  0  0  0  0  0  0  0  0  0
   10.9583    2.7492    6.9831 H   0  0  0  0  0  0  0  0  0  0  0  0
  1  2  2  0
  2  3  1  0
  3  4  2  0
  4  5  1  0
  5  6  1  0
  6  7  1  0
  7  8  1  0
  8  9  1  0
  7 10  2  0
 10 11  1  0
 10 12  1  0
 12 13  1  0
  4 14  1  0
 14 15  2  0
 15 16  1  0
 16 17  1  0
 17 18  1  0
 18 19  1  0
 19 20  1  0
 20 21  1  0
 19 22  2  0
 22 23  1  0
 23 24  1  0
 22 25  1  0
 16 26  2  0
 26 27  1  0
 15 28  1  0
 28 29  2  0
 29 30  1  0
 29 31  1  0
 31 32  2  0
 32 33  1  0
 33 34  2  0
 34 35  1  0
 35 36  1  0
 36 37  1  0
 37 38  1  0
 38 39  1  0
 37 40  2  0
 40 41  1  0
 40 42  1  0
 42 43  1  0
 34 44  1  0
 44 45  2  0
 45 46  1  0
 46 47  1  0
 47 48  1  0
 48 49  1  0
 49 50  1  0
 50 51  1  0
 49 52  2  0
 52 53  1  0
 53 54  1  0
 52 55  1  0
 46 56  2  0
 56 57  1  0
 45 58  1  0
 58 59  2  0
 59 60  1  0
 59 61  1  0
 61 62  2  0
 62 63  1  0
 63 64  2  0
 64 65  1  0
 65 66  1  0
 66 67  1  0
 67 68  1  0
 68 69  1  0
 67 70  2  0
 70 71  1  0
 70 72  1  0
 72 73  1  0
 64 74  1  0
 74 75  2  0
 75 76  1  0
 76 77  1  0
 77 78  1  0
 78 79  1  0
 79 80  1  0
 80 81  1  0
 79 82  2  0
 82 83  1  0
 83 84  1  0
 82 85  1  0
 76 86  2  0
 86 87  1  0
 75 88  1  0
 88 89  2  0
 89 90  1  0
 89 91  1  0
 91 92  2  0
 92 93  1  0
 93 94  2  0
 94 95  1  0
 95 96  2  0
 96 97  1  0
 97 98  1  0
 98 99  2  0
 94100  1  0
100101  2  0
101102  1  0
102103  2  0
103104  1  0
104105  1  0
105106  1  0
106107  1  0
107108  1  0
106109  2  0
109110  1  0
109111  1  0
111112  1  0
103113  1  0
113114  2  0
114115  1  0
115116  1  0
116117  1  0
117118  1  0
118119  1  0
119120  1  0
118121  2  0
121122  1  0
122123  1  0
121124  1  0
115125  2  0
125126  1  0
114127  1  0
127128  2  0
128129  1  0
128130  1  0
130131  2  0
131132  1  0
132133  2  0
133134  1  0
134135  1  0
135136  1  0
136137  1  0
137138  1  0
136139  2  0
139140  1  0
139141  1  0
141142  1  0
133143  1  0
143144  2  0
144145  1  0
145146  1  0
146147  1  0
147148  1  0
148149  1  0
149150  1  0
148151  2  0
151152  1  0
152153  1  0
151154  1  0
145155  2  0
155156  1  0
144157  1  0
157158  2  0
158159  1  0
 27  1  1  0
 57 31  1  0
 87 61  1  0
 99 91  1  0
126100  1  0
156130  1  0
 26  3  1  0
 56 33  1  0
 86 63  1  0
 99 95  1  0
125102  1  0
155132  1  0
 12  5  2  0
 30 14  1  0
 42 35  2  0
 60 44  1  0
 72 65  2  0
 90 74  1  0
111104  2  0
129113  1  0
141134  2  0
159143  1  0
 23 17  2  0
 53 47  2  0
 83 77  2  0
122116  2  0
152146  2  0
  1160  1  0
  2161  1  0
  8162  1  0
  8163  1  0
  9164  1  0
  9165  1  0
  9166  1  0
 20167  1  0
 20168  1  0
 21169  1  0
 21170  1  0
 21171  1  0
 28172  1  0
 32173  1  0
 38174  1  0
 38175  1  0
 39176  1  0
 39177  1  0
 39178  1  0
 50179  1  0
 50180  1  0
 51181  1  0
 51182  1  0
 51183  1  0
 58184  1  0
 62185  1  0
 68186  1  0
 68187  1  0
 69188  1  0
 69189  1  0
 69190  1  0
 80191  1  0
 80192  1  0
 81193  1  0
 81194  1  0
 81195  1  0
 88196  1  0
 92197  1  0
 93198  1  0
101199  1  0
107200  1  0
107201  1  0
108202  1  0
108203  1  0
108204  1  0
119205  1  0
119206  1  0
120207  1  0
120208  1  0
120209  1  0
127210  1  0
131211  1  0
137212  1  0
137213  1  0
138214  1  0
138215  1  0
138216  1  0
149217  1  0
149218  1  0
150219  1  0
150220  1  0
150221  1  0
157222  1  0
158223  1  0
M  END

