
     RDKit          3D

185205  0  0  0  0  0  0  0  0999 V2000
    6.7965   -5.2939   12.5230 C   0  0  0  0  0  0  0  0  0  0  0  0
    7.7623   -4.8635   11.6088 C   0  0  0  0  0  0  0  0  0  0  0  0
    7.2222   -4.4610   10.3744 C   0  0  0  0  0  0  0  0  0  0  0  0
    7.9512   -4.0258    9.2466 C   0  0  0  0  0  0  0  0  0  0  0  0
    9.4255   -3.9219    9.2534 C   0  0  0  0  0  0  0  0  0  0  0  0
   10.1891   -4.7440    8.4116 C   0  0  0  0  0  0  0  0  0  0  0  0
   11.5838   -4.6618    8.4235 C   0  0  0  0  0  0  0  0  0  0  0  0
   12.2272   -3.7427    9.2641 C   0  0  0  0  0  0  0  0  0  0  0  0
   14.0221   -3.6962    9.3268 S   0  0  0  0  0  0  0  0  0  0  0  0
   14.2120   -2.3566    8.0946 C   0  0  0  0  0  0  0  0  0  0  0  0
   14.1335   -2.8994    6.6719 C   0  0  0  0  0  0  0  0  0  0  0  0
   11.4679   -2.9153   10.1003 C   0  0  0  0  0  0  0  0  0  0  0  0
   12.0788   -2.0339   10.9351 F   0  0  0  0  0  0  0  0  0  0  0  0
   10.0728   -3.0063   10.0949 C   0  0  0  0  0  0  0  0  0  0  0  0
    7.2095   -3.6744    8.1029 C   0  0  0  0  0  0  0  0  0  0  0  0
    5.8097   -3.7233    8.0767 C   0  0  0  0  0  0  0  0  0  0  0  0
    5.0732   -4.2201    9.1823 C   0  0  0  0  0  0  0  0  0  0  0  0
    3.5937   -4.4048    9.1030 C   0  0  0  0  0  0  0  0  0  0  0  0
    3.0296   -5.0087    7.9661 C   0  0  0  0  0  0  0  0  0  0  0  0
    1.6538   -4.9590    7.7461 C   0  0  0  0  0  0  0  0  0  0  0  0
    0.8040   -4.4145    8.7193 C   0  0  0  0  0  0  0  0  0  0  0  0
   -0.9581   -4.2766    8.4042 S   0  0  0  0  0  0  0  0  0  0  0  0
   -1.3175   -6.0709    8.3350 C   0  0  0  0  0  0  0  0  0  0  0  0
   -1.0060   -6.7946    9.6405 C   0  0  0  0  0  0  0  0  0  0  0  0
    1.3480   -3.9256    9.9166 C   0  0  0  0  0  0  0  0  0  0  0  0
    2.7394   -3.8834   10.0899 C   0  0  0  0  0  0  0  0  0  0  0  0
    0.5404   -3.4106   10.8786 F   0  0  0  0  0  0  0  0  0  0  0  0
    5.8260   -4.5659   10.3230 C   0  0  0  0  0  0  0  0  0  0  0  0
    5.2789   -5.1825   11.7921 S   0  0  0  0  0  0  0  0  0  0  0  0
    5.2758   -3.2270    6.8843 C   0  0  0  0  0  0  0  0  0  0  0  0
    6.2449   -2.8617    5.9621 C   0  0  0  0  0  0  0  0  0  0  0  0
    7.7767   -3.0914    6.6180 S   0  0  0  0  0  0  0  0  0  0  0  0
    5.9272   -2.3287    4.6295 C   0  0  0  0  0  0  0  0  0  0  0  0
    6.2395   -3.0710    3.4795 C   0  0  0  0  0  0  0  0  0  0  0  0
    5.7218   -2.6991    2.2242 C   0  0  0  0  0  0  0  0  0  0  0  0
    4.9047   -1.5588    2.0834 C   0  0  0  0  0  0  0  0  0  0  0  0
    4.6169   -0.7992    3.2332 C   0  0  0  0  0  0  0  0  0  0  0  0
    3.8006    0.2843    3.2256 N   0  0  0  0  0  0  0  0  0  0  0  0
    3.7994    0.6971    4.8220 S   0  0  0  0  0  0  0  0  0  0  0  0
    4.7546   -0.4270    5.5685 N   0  0  0  0  0  0  0  0  0  0  0  0
    5.1242   -1.1884    4.5034 C   0  0  0  0  0  0  0  0  0  0  0  0
    4.2884   -1.2345    0.7847 C   0  0  0  0  0  0  0  0  0  0  0  0
    3.5677   -2.1304   -0.0095 C   0  0  0  0  0  0  0  0  0  0  0  0
    2.8211   -1.4928   -1.0218 C   0  0  0  0  0  0  0  0  0  0  0  0
    1.8951   -2.1090   -1.8923 C   0  0  0  0  0  0  0  0  0  0  0  0
    1.6710   -3.5720   -1.8819 C   0  0  0  0  0  0  0  0  0  0  0  0
    2.7090   -4.4491   -2.2370 C   0  0  0  0  0  0  0  0  0  0  0  0
    2.5099   -5.8299   -2.2101 C   0  0  0  0  0  0  0  0  0  0  0  0
    1.2678   -6.3527   -1.8280 C   0  0  0  0  0  0  0  0  0  0  0  0
    1.0221   -8.1339   -1.8003 S   0  0  0  0  0  0  0  0  0  0  0  0
    1.2373   -8.3040    0.0113 C   0  0  0  0  0  0  0  0  0  0  0  0
    2.7028   -8.2048    0.4181 C   0  0  0  0  0  0  0  0  0  0  0  0
    0.2197   -5.4795   -1.4891 C   0  0  0  0  0  0  0  0  0  0  0  0
   -0.9874   -5.9690   -1.1049 F   0  0  0  0  0  0  0  0  0  0  0  0
    0.4273   -4.0962   -1.5030 C   0  0  0  0  0  0  0  0  0  0  0  0
    1.1285   -1.2501   -2.7060 C   0  0  0  0  0  0  0  0  0  0  0  0
    1.2797    0.1385   -2.6890 C   0  0  0  0  0  0  0  0  0  0  0  0
    2.2254    0.7420   -1.8425 C   0  0  0  0  0  0  0  0  0  0  0  0
    2.3707    2.2052   -1.7469 C   0  0  0  0  0  0  0  0  0  0  0  0
    1.9247    2.8867   -0.6041 C   0  0  0  0  0  0  0  0  0  0  0  0
    2.1376    4.2632   -0.4763 C   0  0  0  0  0  0  0  0  0  0  0  0
    2.8362    4.9558   -1.4718 C   0  0  0  0  0  0  0  0  0  0  0  0
    3.1733    6.7111   -1.2575 S   0  0  0  0  0  0  0  0  0  0  0  0
    1.7672    7.2728   -2.2791 C   0  0  0  0  0  0  0  0  0  0  0  0
    0.7209    7.9477   -1.4087 C   0  0  0  0  0  0  0  0  0  0  0  0
    3.2751    4.2827   -2.6169 C   0  0  0  0  0  0  0  0  0  0  0  0
    3.0366    2.9140   -2.7556 C   0  0  0  0  0  0  0  0  0  0  0  0
    3.9446    4.9524   -3.5900 F   0  0  0  0  0  0  0  0  0  0  0  0
    2.9748   -0.1045   -1.0159 C   0  0  0  0  0  0  0  0  0  0  0  0
    4.0278    0.3340    0.2183 S   0  0  0  0  0  0  0  0  0  0  0  0
    0.3393    0.8136   -3.4864 C   0  0  0  0  0  0  0  0  0  0  0  0
   -0.5565   -0.0490   -4.1133 C   0  0  0  0  0  0  0  0  0  0  0  0
   -0.1686   -1.6398   -3.7088 S   0  0  0  0  0  0  0  0  0  0  0  0
   -1.7908    0.3676   -4.7958 C   0  0  0  0  0  0  0  0  0  0  0  0
   -2.1569    1.6853   -5.0847 C   0  0  0  0  0  0  0  0  0  0  0  0
   -3.4930    1.8111   -5.5001 C   0  0  0  0  0  0  0  0  0  0  0  0
   -4.1757    3.0147   -5.7841 C   0  0  0  0  0  0  0  0  0  0  0  0
   -3.5206    4.3362   -5.6834 C   0  0  0  0  0  0  0  0  0  0  0  0
   -2.9477    4.7564   -4.4738 C   0  0  0  0  0  0  0  0  0  0  0  0
   -2.2856    5.9871   -4.3960 C   0  0  0  0  0  0  0  0  0  0  0  0
   -2.2056    6.8101   -5.5163 C   0  0  0  0  0  0  0  0  0  0  0  0
   -1.3243    8.3779   -5.4168 S   0  0  0  0  0  0  0  0  0  0  0  0
    0.2853    7.6414   -5.8580 C   0  0  0  0  0  0  0  0  0  0  0  0
    1.3656    8.7052   -5.8420 C   0  0  0  0  0  0  0  0  0  0  0  0
   -2.8018    6.4097   -6.7218 C   0  0  0  0  0  0  0  0  0  0  0  0
   -2.7387    7.2089   -7.8226 F   0  0  0  0  0  0  0  0  0  0  0  0
   -3.4547    5.1787   -6.8057 C   0  0  0  0  0  0  0  0  0  0  0  0
   -5.5437    2.9033   -6.1110 C   0  0  0  0  0  0  0  0  0  0  0  0
   -6.2112    1.6797   -6.1618 C   0  0  0  0  0  0  0  0  0  0  0  0
   -5.5254    0.4782   -5.8885 C   0  0  0  0  0  0  0  0  0  0  0  0
   -6.2232   -0.8209   -5.8368 C   0  0  0  0  0  0  0  0  0  0  0  0
   -6.3684   -1.4887   -4.6078 C   0  0  0  0  0  0  0  0  0  0  0  0
   -7.0413   -2.7091   -4.5494 C   0  0  0  0  0  0  0  0  0  0  0  0
   -7.5829   -3.2705   -5.7161 C   0  0  0  0  0  0  0  0  0  0  0  0
   -8.4633   -4.8328   -5.6268 S   0  0  0  0  0  0  0  0  0  0  0  0
   -6.9646   -5.8825   -5.6659 C   0  0  0  0  0  0  0  0  0  0  0  0
   -6.3645   -5.9591   -7.0644 C   0  0  0  0  0  0  0  0  0  0  0  0
   -7.4548   -2.5973   -6.9408 C   0  0  0  0  0  0  0  0  0  0  0  0
   -6.7776   -1.3743   -6.9952 C   0  0  0  0  0  0  0  0  0  0  0  0
   -7.9904   -3.1132   -8.0698 F   0  0  0  0  0  0  0  0  0  0  0  0
   -4.1625    0.5834   -5.5614 C   0  0  0  0  0  0  0  0  0  0  0  0
   -3.1118   -0.6418   -5.0868 S   0  0  0  0  0  0  0  0  0  0  0  0
   -7.5901    1.8035   -6.3977 C   0  0  0  0  0  0  0  0  0  0  0  0
   -8.0254    3.1335   -6.5251 C   0  0  0  0  0  0  0  0  0  0  0  0
   -6.6591    4.1303   -6.3496 S   0  0  0  0  0  0  0  0  0  0  0  0
   -9.4305    3.6349   -6.6957 C   0  0  0  0  0  0  0  0  0  0  0  0
   -9.6509    5.0278   -6.7870 C   0  0  0  0  0  0  0  0  0  0  0  0
  -10.9417    5.5633   -6.8981 C   0  0  0  0  0  0  0  0  0  0  0  0
  -12.0702    4.7320   -6.9263 C   0  0  0  0  0  0  0  0  0  0  0  0
  -11.8826    3.3451   -6.8461 C   0  0  0  0  0  0  0  0  0  0  0  0
  -12.9170    2.4653   -6.8375 N   0  0  0  0  0  0  0  0  0  0  0  0
  -12.1104    1.0366   -6.7022 S   0  0  0  0  0  0  0  0  0  0  0  0
  -10.5109    1.4420   -6.6341 N   0  0  0  0  0  0  0  0  0  0  0  0
  -10.5705    2.7930   -6.7288 C   0  0  0  0  0  0  0  0  0  0  0  0
  -13.4249    5.3226   -7.0396 C   0  0  0  0  0  0  0  0  0  0  0  0
  -14.2942    4.8945   -8.0599 C   0  0  0  0  0  0  0  0  0  0  0  0
  -15.5919    5.4198   -8.1716 C   0  0  0  0  0  0  0  0  0  0  0  0
  -16.0481    6.3852   -7.2677 C   0  0  0  0  0  0  0  0  0  0  0  0
  -15.1978    6.8275   -6.2551 C   0  0  0  0  0  0  0  0  0  0  0  0
  -15.5721    7.7539   -5.3385 N   0  0  0  0  0  0  0  0  0  0  0  0
  -14.2006    7.8326   -4.4218 S   0  0  0  0  0  0  0  0  0  0  0  0
  -13.1357    6.7673   -5.1031 N   0  0  0  0  0  0  0  0  0  0  0  0
  -13.8819    6.2971   -6.1349 C   0  0  0  0  0  0  0  0  0  0  0  0
    6.9925   -5.6488   13.5220 H   0  0  0  0  0  0  0  0  0  0  0  0
    8.8197   -4.8546   11.8377 H   0  0  0  0  0  0  0  0  0  0  0  0
    9.7036   -5.4625    7.7654 H   0  0  0  0  0  0  0  0  0  0  0  0
   12.1637   -5.3189    7.7894 H   0  0  0  0  0  0  0  0  0  0  0  0
   15.2135   -1.8927    8.2442 H   0  0  0  0  0  0  0  0  0  0  0  0
   13.4431   -1.5665    8.2454 H   0  0  0  0  0  0  0  0  0  0  0  0
   13.1056   -3.2637    6.4570 H   0  0  0  0  0  0  0  0  0  0  0  0
   14.3806   -2.0870    5.9513 H   0  0  0  0  0  0  0  0  0  0  0  0
   14.8591   -3.7297    6.5375 H   0  0  0  0  0  0  0  0  0  0  0  0
    9.4935   -2.3637   10.7470 H   0  0  0  0  0  0  0  0  0  0  0  0
    3.6631   -5.4484    7.2039 H   0  0  0  0  0  0  0  0  0  0  0  0
    1.2471   -5.3476    6.8244 H   0  0  0  0  0  0  0  0  0  0  0  0
   -2.3963   -6.1883    8.1096 H   0  0  0  0  0  0  0  0  0  0  0  0
   -0.7528   -6.5445    7.5019 H   0  0  0  0  0  0  0  0  0  0  0  0
   -1.3060   -7.8618    9.5287 H   0  0  0  0  0  0  0  0  0  0  0  0
    0.0811   -6.7664    9.8664 H   0  0  0  0  0  0  0  0  0  0  0  0
   -1.5786   -6.3474   10.4814 H   0  0  0  0  0  0  0  0  0  0  0  0
    3.1454   -3.4096   10.9744 H   0  0  0  0  0  0  0  0  0  0  0  0
    4.2187   -3.1151    6.6865 H   0  0  0  0  0  0  0  0  0  0  0  0
    6.8249   -3.9800    3.5591 H   0  0  0  0  0  0  0  0  0  0  0  0
    5.9361   -3.3206    1.3656 H   0  0  0  0  0  0  0  0  0  0  0  0
    3.5092   -3.1873    0.2066 H   0  0  0  0  0  0  0  0  0  0  0  0
    3.6735   -4.0601   -2.5396 H   0  0  0  0  0  0  0  0  0  0  0  0
    3.3163   -6.4967   -2.4923 H   0  0  0  0  0  0  0  0  0  0  0  0
    0.6466   -7.5325    0.5456 H   0  0  0  0  0  0  0  0  0  0  0  0
    0.8466   -9.2970    0.3105 H   0  0  0  0  0  0  0  0  0  0  0  0
    2.7878   -8.3949    1.5128 H   0  0  0  0  0  0  0  0  0  0  0  0
    3.1085   -7.1942    0.2070 H   0  0  0  0  0  0  0  0  0  0  0  0
    3.3062   -8.9610   -0.1226 H   0  0  0  0  0  0  0  0  0  0  0  0
   -0.3788   -3.4333   -1.2130 H   0  0  0  0  0  0  0  0  0  0  0  0
    1.4178    2.3540    0.1916 H   0  0  0  0  0  0  0  0  0  0  0  0
    1.7874    4.7801    0.4062 H   0  0  0  0  0  0  0  0  0  0  0  0
    2.1594    8.0082   -3.0095 H   0  0  0  0  0  0  0  0  0  0  0  0
    1.2922    6.4395   -2.8404 H   0  0  0  0  0  0  0  0  0  0  0  0
    0.2896    7.2152   -0.6967 H   0  0  0  0  0  0  0  0  0  0  0  0
    1.1788    8.7955   -0.8517 H   0  0  0  0  0  0  0  0  0  0  0  0
   -0.1004    8.3413   -2.0472 H   0  0  0  0  0  0  0  0  0  0  0  0
    3.3956    2.3941   -3.6359 H   0  0  0  0  0  0  0  0  0  0  0  0
    0.2650    1.8903   -3.5315 H   0  0  0  0  0  0  0  0  0  0  0  0
   -1.4851    2.5239   -4.9546 H   0  0  0  0  0  0  0  0  0  0  0  0
   -3.0028    4.1311   -3.5901 H   0  0  0  0  0  0  0  0  0  0  0  0
   -1.8299    6.2939   -3.4626 H   0  0  0  0  0  0  0  0  0  0  0  0
    0.5421    6.8407   -5.1326 H   0  0  0  0  0  0  0  0  0  0  0  0
    0.2263    7.1893   -6.8723 H   0  0  0  0  0  0  0  0  0  0  0  0
    1.3897    9.2159   -4.8588 H   0  0  0  0  0  0  0  0  0  0  0  0
    2.3579    8.2414   -6.0329 H   0  0  0  0  0  0  0  0  0  0  0  0
    1.1671    9.4584   -6.6342 H   0  0  0  0  0  0  0  0  0  0  0  0
   -3.9014    4.8742   -7.7447 H   0  0  0  0  0  0  0  0  0  0  0  0
   -5.9547   -1.0608   -3.7012 H   0  0  0  0  0  0  0  0  0  0  0  0
   -7.1428   -3.2162   -3.6016 H   0  0  0  0  0  0  0  0  0  0  0  0
   -7.2522   -6.9062   -5.3453 H   0  0  0  0  0  0  0  0  0  0  0  0
   -6.2031   -5.5054   -4.9476 H   0  0  0  0  0  0  0  0  0  0  0  0
   -5.5576   -6.7239   -7.0771 H   0  0  0  0  0  0  0  0  0  0  0  0
   -7.1432   -6.2447   -7.8032 H   0  0  0  0  0  0  0  0  0  0  0  0
   -5.9243   -4.9776   -7.3434 H   0  0  0  0  0  0  0  0  0  0  0  0
   -6.6769   -0.8596   -7.9461 H   0  0  0  0  0  0  0  0  0  0  0  0
   -8.2289    0.9375   -6.4368 H   0  0  0  0  0  0  0  0  0  0  0  0
   -8.8260    5.7217   -6.7617 H   0  0  0  0  0  0  0  0  0  0  0  0
  -11.0606    6.6361   -6.9721 H   0  0  0  0  0  0  0  0  0  0  0  0
  -13.9680    4.1477   -8.7762 H   0  0  0  0  0  0  0  0  0  0  0  0
  -16.2407    5.0724   -8.9643 H   0  0  0  0  0  0  0  0  0  0  0  0
  -17.0502    6.7869   -7.3607 H   0  0  0  0  0  0  0  0  0  0  0  0
  1  2  2  0
  2  3  1  0
  3  4  2  0
  4  5  1  0
  5  6  2  0
  6  7  1  0
  7  8  2  0
  8  9  1  0
  9 10  1  0
 10 11  1  0
  8 12  1  0
 12 13  1  0
 12 14  2  0
  4 15  1  0
 15 16  2  0
 16 17  1  0
 17 18  1  0
 18 19  2  0
 19 20  1  0
 20 21  2  0
 21 22  1  0
 22 23  1  0
 23 24  1  0
 21 25  1  0
 25 26  2  0
 25 27  1  0
 17 28  2  0
 28 29  1  0
 16 30  1  0
 30 31  2  0
 31 32  1  0
 31 33  1  0
 33 34  2  0
 34 35  1  0
 35 36  2  0
 36 37  1  0
 37 38  2  0
 38 39  1  0
 39 40  1  0
 40 41  2  0
 36 42  1  0
 42 43  2  0
 43 44  1  0
 44 45  2  0
 45 46  1  0
 46 47  2  0
 47 48  1  0
 48 49  2  0
 49 50  1  0
 50 51  1  0
 51 52  1  0
 49 53  1  0
 53 54  1  0
 53 55  2  0
 45 56  1  0
 56 57  2  0
 57 58  1  0
 58 59  1  0
 59 60  2  0
 60 61  1  0
 61 62  2  0
 62 63  1  0
 63 64  1  0
 64 65  1  0
 62 66  1  0
 66 67  2  0
 66 68  1  0
 58 69  2  0
 69 70  1  0
 57 71  1  0
 71 72  2  0
 72 73  1  0
 72 74  1  0
 74 75  2  0
 75 76  1  0
 76 77  2  0
 77 78  1  0
 78 79  2  0
 79 80  1  0
 80 81  2  0
 81 82  1  0
 82 83  1  0
 83 84  1  0
 81 85  1  0
 85 86  1  0
 85 87  2  0
 77 88  1  0
 88 89  2  0
 89 90  1  0
 90 91  1  0
 91 92  2  0
 92 93  1  0
 93 94  2  0
 94 95  1  0
 95 96  1  0
 96 97  1  0
 94 98  1  0
 98 99  2  0
 98100  1  0
 90101  2  0
101102  1  0
 89103  1  0
103104  2  0
104105  1  0
104106  1  0
106107  2  0
107108  1  0
108109  2  0
109110  1  0
110111  2  0
111112  1  0
112113  1  0
113114  2  0
109115  1  0
115116  2  0
116117  1  0
117118  2  0
118119  1  0
119120  2  0
120121  1  0
121122  1  0
122123  2  0
 29  1  1  0
 41 33  1  0
 70 42  1  0
102 74  1  0
114106  1  0
123115  1  0
 28  3  1  0
 41 37  1  0
 69 44  1  0
101 76  1  0
114110  1  0
123119  1  0
 14  5  1  0
 32 15  1  0
 55 46  1  0
 73 56  1  0
 87 78  1  0
105 88  1  0
 26 18  1  0
 67 59  1  0
 99 91  1  0
  1124  1  0
  2125  1  0
  6126  1  0
  7127  1  0
 10128  1  0
 10129  1  0
 11130  1  0
 11131  1  0
 11132  1  0
 14133  1  0
 19134  1  0
 20135  1  0
 23136  1  0
 23137  1  0
 24138  1  0
 24139  1  0
 24140  1  0
 26141  1  0
 30142  1  0
 34143  1  0
 35144  1  0
 43145  1  0
 47146  1  0
 48147  1  0
 51148  1  0
 51149  1  0
 52150  1  0
 52151  1  0
 52152  1  0
 55153  1  0
 60154  1  0
 61155  1  0
 64156  1  0
 64157  1  0
 65158  1  0
 65159  1  0
 65160  1  0
 67161  1  0
 71162  1  0
 75163  1  0
 79164  1  0
 80165  1  0
 83166  1  0
 83167  1  0
 84168  1  0
 84169  1  0
 84170  1  0
 87171  1  0
 92172  1  0
 93173  1  0
 96174  1  0
 96175  1  0
 97176  1  0
 97177  1  0
 97178  1  0
 99179  1  0
103180  1  0
107181  1  0
108182  1  0
116183  1  0
117184  1  0
118185  1  0
M  END

