
     RDKit          3D

238264  0  0  0  0  0  0  0  0999 V2000
    2.7723   -5.1495    9.6199 C   0  0  0  0  0  0  0  0  0  0  0  0
    3.0642   -3.8081    9.3918 C   0  0  0  0  0  0  0  0  0  0  0  0
    1.9571   -3.0704    8.9451 C   0  0  0  0  0  0  0  0  0  0  0  0
    1.9325   -1.6941    8.6591 C   0  0  0  0  0  0  0  0  0  0  0  0
    3.1590   -0.8724    8.6579 C   0  0  0  0  0  0  0  0  0  0  0  0
    3.3908    0.5188    9.5759 S   0  0  0  0  0  0  0  0  0  0  0  0
    4.8879    0.9150    8.9227 C   0  0  0  0  0  0  0  0  0  0  0  0
    5.6499    2.1684    9.2361 C   0  0  0  0  0  0  0  0  0  0  0  0
    5.3049    3.2636    8.2359 C   0  0  0  0  0  0  0  0  0  0  0  0
    5.2211   -0.0336    7.9576 C   0  0  0  0  0  0  0  0  0  0  0  0
    6.6730    0.0516    6.9709 Cl  0  0  0  0  0  0  0  0  0  0  0  0
    4.2491   -1.0359    7.8099 C   0  0  0  0  0  0  0  0  0  0  0  0
    4.3552   -2.3037    6.5955 Cl  0  0  0  0  0  0  0  0  0  0  0  0
    0.6937   -1.1465    8.2833 C   0  0  0  0  0  0  0  0  0  0  0  0
   -0.4718   -1.9093    8.1410 C   0  0  0  0  0  0  0  0  0  0  0  0
   -0.4398   -3.2963    8.4098 C   0  0  0  0  0  0  0  0  0  0  0  0
   -1.6295   -4.1556    8.2858 C   0  0  0  0  0  0  0  0  0  0  0  0
   -1.7206   -5.5190    7.3020 S   0  0  0  0  0  0  0  0  0  0  0  0
   -3.2002   -6.0648    7.8908 C   0  0  0  0  0  0  0  0  0  0  0  0
   -3.8743   -7.3344    7.4559 C   0  0  0  0  0  0  0  0  0  0  0  0
   -4.9960   -7.0494    6.4656 C   0  0  0  0  0  0  0  0  0  0  0  0
   -3.6430   -5.1793    8.8693 C   0  0  0  0  0  0  0  0  0  0  0  0
   -2.7648   -4.1054    9.0932 C   0  0  0  0  0  0  0  0  0  0  0  0
   -3.0019   -2.9123   10.3584 Cl  0  0  0  0  0  0  0  0  0  0  0  0
   -5.1163   -5.4213    9.7967 Cl  0  0  0  0  0  0  0  0  0  0  0  0
    0.7957   -3.8393    8.8226 C   0  0  0  0  0  0  0  0  0  0  0  0
    1.1480   -5.4235    9.2677 S   0  0  0  0  0  0  0  0  0  0  0  0
   -1.5685   -1.1637    7.6673 C   0  0  0  0  0  0  0  0  0  0  0  0
   -1.2591    0.1840    7.4634 C   0  0  0  0  0  0  0  0  0  0  0  0
    0.3662    0.4396    7.8442 S   0  0  0  0  0  0  0  0  0  0  0  0
   -2.1194    1.2196    6.8648 C   0  0  0  0  0  0  0  0  0  0  0  0
   -1.7681    2.5652    6.7834 C   0  0  0  0  0  0  0  0  0  0  0  0
   -2.5903    3.3008    5.9199 C   0  0  0  0  0  0  0  0  0  0  0  0
   -2.3668    4.6303    5.5114 C   0  0  0  0  0  0  0  0  0  0  0  0
   -1.3494    5.4872    6.1565 C   0  0  0  0  0  0  0  0  0  0  0  0
   -0.0931    6.2657    5.3530 S   0  0  0  0  0  0  0  0  0  0  0  0
    0.4668    7.1297    6.6827 C   0  0  0  0  0  0  0  0  0  0  0  0
    1.5138    8.2009    6.6086 C   0  0  0  0  0  0  0  0  0  0  0  0
    0.8721    9.5608    6.3459 C   0  0  0  0  0  0  0  0  0  0  0  0
   -0.3381    6.8283    7.7794 C   0  0  0  0  0  0  0  0  0  0  0  0
   -0.1560    7.5837    9.3550 Cl  0  0  0  0  0  0  0  0  0  0  0  0
   -1.3556    5.9056    7.4816 C   0  0  0  0  0  0  0  0  0  0  0  0
   -2.5748    5.4067    8.6471 Cl  0  0  0  0  0  0  0  0  0  0  0  0
   -3.1444    5.1023    4.4428 C   0  0  0  0  0  0  0  0  0  0  0  0
   -4.1563    4.3384    3.8477 C   0  0  0  0  0  0  0  0  0  0  0  0
   -4.4462    3.0401    4.3307 C   0  0  0  0  0  0  0  0  0  0  0  0
   -5.5699    2.2490    3.8006 C   0  0  0  0  0  0  0  0  0  0  0  0
   -5.6904    1.6314    2.2397 S   0  0  0  0  0  0  0  0  0  0  0  0
   -7.2382    0.9954    2.4169 C   0  0  0  0  0  0  0  0  0  0  0  0
   -7.9783    0.2225    1.3660 C   0  0  0  0  0  0  0  0  0  0  0  0
   -7.7628   -1.2729    1.5491 C   0  0  0  0  0  0  0  0  0  0  0  0
   -7.6735    1.2478    3.7180 C   0  0  0  0  0  0  0  0  0  0  0  0
   -6.7442    1.9552    4.4867 C   0  0  0  0  0  0  0  0  0  0  0  0
   -7.0397    2.4284    6.1544 Cl  0  0  0  0  0  0  0  0  0  0  0  0
   -9.2305    0.7096    4.3445 Cl  0  0  0  0  0  0  0  0  0  0  0  0
   -3.6142    2.5395    5.3513 C   0  0  0  0  0  0  0  0  0  0  0  0
   -3.4900    0.9483    5.9094 S   0  0  0  0  0  0  0  0  0  0  0  0
   -4.7144    4.9557    2.7172 C   0  0  0  0  0  0  0  0  0  0  0  0
   -4.1125    6.1732    2.3962 C   0  0  0  0  0  0  0  0  0  0  0  0
   -2.9470    6.5194    3.5613 S   0  0  0  0  0  0  0  0  0  0  0  0
   -4.0929    6.7401    1.0330 C   0  0  0  0  0  0  0  0  0  0  0  0
   -2.9400    7.2761    0.4507 C   0  0  0  0  0  0  0  0  0  0  0  0
   -2.9091    7.1418   -0.9458 C   0  0  0  0  0  0  0  0  0  0  0  0
   -1.7764    7.3129   -1.7787 C   0  0  0  0  0  0  0  0  0  0  0  0
   -0.4921    7.8173   -1.2573 C   0  0  0  0  0  0  0  0  0  0  0  0
    0.4288    7.0922   -0.0417 S   0  0  0  0  0  0  0  0  0  0  0  0
    1.6106    8.2869    0.0350 C   0  0  0  0  0  0  0  0  0  0  0  0
    2.7804    8.2776    0.9725 C   0  0  0  0  0  0  0  0  0  0  0  0
    4.0086    7.6533    0.3161 C   0  0  0  0  0  0  0  0  0  0  0  0
    1.3105    9.2636   -0.9116 C   0  0  0  0  0  0  0  0  0  0  0  0
    2.2944   10.6982   -1.1645 Cl  0  0  0  0  0  0  0  0  0  0  0  0
    0.1381    9.0024   -1.6348 C   0  0  0  0  0  0  0  0  0  0  0  0
   -0.4990   10.0843   -2.8631 Cl  0  0  0  0  0  0  0  0  0  0  0  0
   -1.8815    6.8265   -3.0962 C   0  0  0  0  0  0  0  0  0  0  0  0
   -3.0550    6.2516   -3.5977 C   0  0  0  0  0  0  0  0  0  0  0  0
   -4.2020    6.1605   -2.7914 C   0  0  0  0  0  0  0  0  0  0  0  0
   -5.4000    5.4080   -3.1987 C   0  0  0  0  0  0  0  0  0  0  0  0
   -6.8923    6.1204   -3.4726 S   0  0  0  0  0  0  0  0  0  0  0  0
   -7.8079    4.7039   -3.3882 C   0  0  0  0  0  0  0  0  0  0  0  0
   -9.3146    4.6768   -3.2949 C   0  0  0  0  0  0  0  0  0  0  0  0
   -9.9687    5.4685   -4.4211 C   0  0  0  0  0  0  0  0  0  0  0  0
   -6.9474    3.6574   -3.0586 C   0  0  0  0  0  0  0  0  0  0  0  0
   -5.6025    4.0506   -2.9565 C   0  0  0  0  0  0  0  0  0  0  0  0
   -4.3200    2.9722   -2.4261 Cl  0  0  0  0  0  0  0  0  0  0  0  0
   -7.4919    2.0323   -2.6684 Cl  0  0  0  0  0  0  0  0  0  0  0  0
   -4.0869    6.5910   -1.4631 C   0  0  0  0  0  0  0  0  0  0  0  0
   -5.1257    6.2228   -0.1967 S   0  0  0  0  0  0  0  0  0  0  0  0
   -2.8772    5.6113   -4.8329 C   0  0  0  0  0  0  0  0  0  0  0  0
   -1.5440    5.6150   -5.2793 C   0  0  0  0  0  0  0  0  0  0  0  0
   -0.6220    6.4939   -4.1675 S   0  0  0  0  0  0  0  0  0  0  0  0
   -0.9880    4.5884   -6.1822 C   0  0  0  0  0  0  0  0  0  0  0  0
   -1.6094    3.3579   -6.3956 C   0  0  0  0  0  0  0  0  0  0  0  0
   -0.7377    2.3549   -6.8337 C   0  0  0  0  0  0  0  0  0  0  0  0
   -1.0360    0.9834   -6.8714 C   0  0  0  0  0  0  0  0  0  0  0  0
   -2.3269    0.4647   -6.3917 C   0  0  0  0  0  0  0  0  0  0  0  0
   -3.4216   -0.3969   -7.3305 S   0  0  0  0  0  0  0  0  0  0  0  0
   -4.4217   -0.8526   -6.0550 C   0  0  0  0  0  0  0  0  0  0  0  0
   -5.5381   -1.8461   -6.1788 C   0  0  0  0  0  0  0  0  0  0  0  0
   -5.0042   -3.2648   -6.0005 C   0  0  0  0  0  0  0  0  0  0  0  0
   -3.8816   -0.3648   -4.8672 C   0  0  0  0  0  0  0  0  0  0  0  0
   -4.5510   -0.7109   -3.2799 Cl  0  0  0  0  0  0  0  0  0  0  0  0
   -2.7033    0.3662   -5.0568 C   0  0  0  0  0  0  0  0  0  0  0  0
   -1.7133    0.9697   -3.7354 Cl  0  0  0  0  0  0  0  0  0  0  0  0
    0.0291    0.1095   -7.1030 C   0  0  0  0  0  0  0  0  0  0  0  0
    1.3388    0.5315   -7.3176 C   0  0  0  0  0  0  0  0  0  0  0  0
    1.6336    1.9176   -7.3430 C   0  0  0  0  0  0  0  0  0  0  0  0
    2.9991    2.4227   -7.5790 C   0  0  0  0  0  0  0  0  0  0  0  0
    4.3552    2.0690   -6.6392 S   0  0  0  0  0  0  0  0  0  0  0  0
    5.4522    2.9230   -7.5839 C   0  0  0  0  0  0  0  0  0  0  0  0
    6.9178    3.0543   -7.2905 C   0  0  0  0  0  0  0  0  0  0  0  0
    7.1922    4.2930   -6.4425 C   0  0  0  0  0  0  0  0  0  0  0  0
    4.7644    3.5211   -8.6357 C   0  0  0  0  0  0  0  0  0  0  0  0
    3.3907    3.2330   -8.6383 C   0  0  0  0  0  0  0  0  0  0  0  0
    2.3004    3.8086   -9.8918 Cl  0  0  0  0  0  0  0  0  0  0  0  0
    5.5301    4.5424   -9.8433 Cl  0  0  0  0  0  0  0  0  0  0  0  0
    0.5683    2.8019   -7.0565 C   0  0  0  0  0  0  0  0  0  0  0  0
    0.6461    4.4313   -6.6124 S   0  0  0  0  0  0  0  0  0  0  0  0
    2.2630   -0.5440   -7.3492 C   0  0  0  0  0  0  0  0  0  0  0  0
    1.6803   -1.7988   -7.0940 C   0  0  0  0  0  0  0  0  0  0  0  0
    0.0175   -1.5425   -6.9031 S   0  0  0  0  0  0  0  0  0  0  0  0
    2.3457   -3.0955   -6.7212 C   0  0  0  0  0  0  0  0  0  0  0  0
    1.5698   -4.2546   -6.5305 C   0  0  0  0  0  0  0  0  0  0  0  0
    0.2516   -4.4258   -6.7348 N   0  0  0  0  0  0  0  0  0  0  0  0
   -0.0423   -5.6085   -6.2099 N   0  0  0  0  0  0  0  0  0  0  0  0
   -1.3915   -6.1528   -6.1584 C   0  0  0  0  0  0  0  0  0  0  0  0
   -1.8886   -6.4681   -7.5620 C   0  0  0  0  0  0  0  0  0  0  0  0
    1.0100   -6.2005   -5.6582 N   0  0  0  0  0  0  0  0  0  0  0  0
    2.0369   -5.3567   -5.8782 C   0  0  0  0  0  0  0  0  0  0  0  0
    3.3165   -5.4201   -5.3416 C   0  0  0  0  0  0  0  0  0  0  0  0
    4.2013   -4.3578   -5.6630 C   0  0  0  0  0  0  0  0  0  0  0  0
    3.7217   -3.1987   -6.3510 C   0  0  0  0  0  0  0  0  0  0  0  0
    4.5849   -2.1282   -6.6007 O   0  0  0  0  0  0  0  0  0  0  0  0
    5.8006   -2.2588   -7.3352 C   0  0  0  0  0  0  0  0  0  0  0  0
    5.5276   -4.3957   -5.2211 O   0  0  0  0  0  0  0  0  0  0  0  0
    6.4736   -5.3111   -5.7679 C   0  0  0  0  0  0  0  0  0  0  0  0
    3.5064   -6.2400   -4.1292 C   0  0  0  0  0  0  0  0  0  0  0  0
    2.7661   -6.0245   -2.9759 C   0  0  0  0  0  0  0  0  0  0  0  0
    2.9867   -6.9881   -1.9849 C   0  0  0  0  0  0  0  0  0  0  0  0
    2.3355   -7.0575   -0.7400 C   0  0  0  0  0  0  0  0  0  0  0  0
    1.1630   -6.2252   -0.4446 C   0  0  0  0  0  0  0  0  0  0  0  0
   -0.2997   -6.3427   -1.2657 S   0  0  0  0  0  0  0  0  0  0  0  0
   -1.0754   -5.1144   -0.4221 C   0  0  0  0  0  0  0  0  0  0  0  0
   -2.4541   -4.6089   -0.7396 C   0  0  0  0  0  0  0  0  0  0  0  0
   -2.3986   -3.4898   -1.7764 C   0  0  0  0  0  0  0  0  0  0  0  0
   -0.1825   -4.5690    0.4987 C   0  0  0  0  0  0  0  0  0  0  0  0
   -0.5633   -3.1972    1.5265 Cl  0  0  0  0  0  0  0  0  0  0  0  0
    1.0740   -5.2033    0.4954 C   0  0  0  0  0  0  0  0  0  0  0  0
    2.4166   -4.7104    1.5091 Cl  0  0  0  0  0  0  0  0  0  0  0  0
    2.7399   -8.0832    0.1270 C   0  0  0  0  0  0  0  0  0  0  0  0
    3.6875   -9.0452   -0.2343 C   0  0  0  0  0  0  0  0  0  0  0  0
    4.2885   -9.0084   -1.5088 C   0  0  0  0  0  0  0  0  0  0  0  0
    5.2152  -10.0639   -1.9443 C   0  0  0  0  0  0  0  0  0  0  0  0
    6.8661  -10.0756   -1.6550 S   0  0  0  0  0  0  0  0  0  0  0  0
    7.1597  -11.5784   -2.3599 C   0  0  0  0  0  0  0  0  0  0  0  0
    8.4907  -12.2837   -2.3328 C   0  0  0  0  0  0  0  0  0  0  0  0
    9.5336  -11.5339   -3.1510 C   0  0  0  0  0  0  0  0  0  0  0  0
    5.9499  -12.0935   -2.8246 C   0  0  0  0  0  0  0  0  0  0  0  0
    4.8604  -11.2398   -2.5956 C   0  0  0  0  0  0  0  0  0  0  0  0
    3.2061  -11.6352   -3.0355 Cl  0  0  0  0  0  0  0  0  0  0  0  0
    5.7886  -13.6594   -3.6081 Cl  0  0  0  0  0  0  0  0  0  0  0  0
    3.9231   -7.9551   -2.3609 C   0  0  0  0  0  0  0  0  0  0  0  0
    4.4254   -7.6508   -3.9427 S   0  0  0  0  0  0  0  0  0  0  0  0
    3.9004  -10.0131    0.7561 C   0  0  0  0  0  0  0  0  0  0  0  0
    3.1214   -9.8098    1.8911 C   0  0  0  0  0  0  0  0  0  0  0  0
    2.1570   -8.4454    1.6651 S   0  0  0  0  0  0  0  0  0  0  0  0
    3.4746   -5.8919    9.9686 H   0  0  0  0  0  0  0  0  0  0  0  0
    4.0463   -3.3860    9.5631 H   0  0  0  0  0  0  0  0  0  0  0  0
    5.3861    2.5148   10.2617 H   0  0  0  0  0  0  0  0  0  0  0  0
    6.7399    1.9642    9.2092 H   0  0  0  0  0  0  0  0  0  0  0  0
    4.2151    3.4757    8.2524 H   0  0  0  0  0  0  0  0  0  0  0  0
    5.5986    2.9567    7.2086 H   0  0  0  0  0  0  0  0  0  0  0  0
    5.8581    4.1901    8.4952 H   0  0  0  0  0  0  0  0  0  0  0  0
   -3.1266   -8.0080    6.9819 H   0  0  0  0  0  0  0  0  0  0  0  0
   -4.2852   -7.8571    8.3413 H   0  0  0  0  0  0  0  0  0  0  0  0
   -5.7823   -6.4219    6.9373 H   0  0  0  0  0  0  0  0  0  0  0  0
   -5.4562   -8.0067    6.1407 H   0  0  0  0  0  0  0  0  0  0  0  0
   -4.5980   -6.5244    5.5711 H   0  0  0  0  0  0  0  0  0  0  0  0
   -2.5391   -1.5876    7.4499 H   0  0  0  0  0  0  0  0  0  0  0  0
   -0.8801    2.9763    7.2466 H   0  0  0  0  0  0  0  0  0  0  0  0
    2.0969    8.2334    7.5546 H   0  0  0  0  0  0  0  0  0  0  0  0
    2.2175    7.9702    5.7788 H   0  0  0  0  0  0  0  0  0  0  0  0
    0.1581    9.8159    7.1611 H   0  0  0  0  0  0  0  0  0  0  0  0
    1.6614   10.3382    6.3062 H   0  0  0  0  0  0  0  0  0  0  0  0
    0.3378    9.5470    5.3716 H   0  0  0  0  0  0  0  0  0  0  0  0
   -9.0626    0.4487    1.4245 H   0  0  0  0  0  0  0  0  0  0  0  0
   -7.6243    0.5344    0.3589 H   0  0  0  0  0  0  0  0  0  0  0  0
   -6.6753   -1.5167    1.4898 H   0  0  0  0  0  0  0  0  0  0  0  0
   -8.2971   -1.8249    0.7467 H   0  0  0  0  0  0  0  0  0  0  0  0
   -8.1610   -1.6107    2.5348 H   0  0  0  0  0  0  0  0  0  0  0  0
   -5.4338    4.4708    2.0763 H   0  0  0  0  0  0  0  0  0  0  0  0
   -2.0922    7.5943    1.0371 H   0  0  0  0  0  0  0  0  0  0  0  0
    3.0221    9.3182    1.2890 H   0  0  0  0  0  0  0  0  0  0  0  0
    2.5202    7.6927    1.8830 H   0  0  0  0  0  0  0  0  0  0  0  0
    3.8045    6.5937    0.0454 H   0  0  0  0  0  0  0  0  0  0  0  0
    4.8667    7.6927    1.0185 H   0  0  0  0  0  0  0  0  0  0  0  0
    4.2835    8.2153   -0.6014 H   0  0  0  0  0  0  0  0  0  0  0  0
   -9.6877    3.6327   -3.3383 H   0  0  0  0  0  0  0  0  0  0  0  0
   -9.6197    5.1055   -2.3169 H   0  0  0  0  0  0  0  0  0  0  0  0
  -11.0675    5.4896   -4.2649 H   0  0  0  0  0  0  0  0  0  0  0  0
   -9.7481    4.9955   -5.4062 H   0  0  0  0  0  0  0  0  0  0  0  0
   -9.5996    6.5169   -4.4300 H   0  0  0  0  0  0  0  0  0  0  0  0
   -3.6621    5.0432   -5.3170 H   0  0  0  0  0  0  0  0  0  0  0  0
   -2.6329    3.1529   -6.1027 H   0  0  0  0  0  0  0  0  0  0  0  0
   -6.0122   -1.7528   -7.1800 H   0  0  0  0  0  0  0  0  0  0  0  0
   -6.3126   -1.6421   -5.4074 H   0  0  0  0  0  0  0  0  0  0  0  0
   -5.8271   -3.9959   -6.1420 H   0  0  0  0  0  0  0  0  0  0  0  0
   -4.2146   -3.4753   -6.7545 H   0  0  0  0  0  0  0  0  0  0  0  0
   -4.5736   -3.3865   -4.9836 H   0  0  0  0  0  0  0  0  0  0  0  0
    7.4912    3.1224   -8.2390 H   0  0  0  0  0  0  0  0  0  0  0  0
    7.2660    2.1508   -6.7440 H   0  0  0  0  0  0  0  0  0  0  0  0
    6.8538    5.2103   -6.9760 H   0  0  0  0  0  0  0  0  0  0  0  0
    8.2750    4.3723   -6.2277 H   0  0  0  0  0  0  0  0  0  0  0  0
    6.6390    4.2317   -5.4824 H   0  0  0  0  0  0  0  0  0  0  0  0
    3.3111   -0.3853   -7.5147 H   0  0  0  0  0  0  0  0  0  0  0  0
   -2.0681   -5.4164   -5.6743 H   0  0  0  0  0  0  0  0  0  0  0  0
   -1.3987   -7.0859   -5.5514 H   0  0  0  0  0  0  0  0  0  0  0  0
   -1.9186   -5.5479   -8.1801 H   0  0  0  0  0  0  0  0  0  0  0  0
   -1.2184   -7.2099   -8.0460 H   0  0  0  0  0  0  0  0  0  0  0  0
   -2.9167   -6.8931   -7.5024 H   0  0  0  0  0  0  0  0  0  0  0  0
    6.6144   -2.6592   -6.6930 H   0  0  0  0  0  0  0  0  0  0  0  0
    6.1128   -1.2600   -7.7008 H   0  0  0  0  0  0  0  0  0  0  0  0
    5.6521   -2.9261   -8.2189 H   0  0  0  0  0  0  0  0  0  0  0  0
    6.1814   -6.3590   -5.5726 H   0  0  0  0  0  0  0  0  0  0  0  0
    6.5492   -5.1730   -6.8724 H   0  0  0  0  0  0  0  0  0  0  0  0
    7.4689   -5.1237   -5.3160 H   0  0  0  0  0  0  0  0  0  0  0  0
    2.0754   -5.1980   -2.8773 H   0  0  0  0  0  0  0  0  0  0  0  0
   -2.9462   -4.2454    0.1873 H   0  0  0  0  0  0  0  0  0  0  0  0
   -3.0672   -5.4458   -1.1518 H   0  0  0  0  0  0  0  0  0  0  0  0
   -1.8468   -2.6157   -1.3788 H   0  0  0  0  0  0  0  0  0  0  0  0
   -3.4351   -3.1841   -2.0282 H   0  0  0  0  0  0  0  0  0  0  0  0
   -1.9058   -3.8524   -2.7033 H   0  0  0  0  0  0  0  0  0  0  0  0
    8.3980  -13.3140   -2.7262 H   0  0  0  0  0  0  0  0  0  0  0  0
    8.8346  -12.3586   -1.2755 H   0  0  0  0  0  0  0  0  0  0  0  0
   10.5242  -12.0207   -3.0271 H   0  0  0  0  0  0  0  0  0  0  0  0
    9.6181  -10.4801   -2.8021 H   0  0  0  0  0  0  0  0  0  0  0  0
    9.2556  -11.5443   -4.2310 H   0  0  0  0  0  0  0  0  0  0  0  0
    4.5812  -10.8454    0.6553 H   0  0  0  0  0  0  0  0  0  0  0  0
    3.1259  -10.4422    2.7681 H   0  0  0  0  0  0  0  0  0  0  0  0
  1  2  2  0
  2  3  1  0
  3  4  2  0
  4  5  1  0
  5  6  1  0
  6  7  1  0
  7  8  1  0
  8  9  1  0
  7 10  2  0
 10 11  1  0
 10 12  1  0
 12 13  1  0
  4 14  1  0
 14 15  2  0
 15 16  1  0
 16 17  1  0
 17 18  1  0
 18 19  1  0
 19 20  1  0
 20 21  1  0
 19 22  2  0
 22 23  1  0
 23 24  1  0
 22 25  1  0
 16 26  2  0
 26 27  1  0
 15 28  1  0
 28 29  2  0
 29 30  1  0
 29 31  1  0
 31 32  2  0
 32 33  1  0
 33 34  2  0
 34 35  1  0
 35 36  1  0
 36 37  1  0
 37 38  1  0
 38 39  1  0
 37 40  2  0
 40 41  1  0
 40 42  1  0
 42 43  1  0
 34 44  1  0
 44 45  2  0
 45 46  1  0
 46 47  1  0
 47 48  1  0
 48 49  1  0
 49 50  1  0
 50 51  1  0
 49 52  2  0
 52 53  1  0
 53 54  1  0
 52 55  1  0
 46 56  2  0
 56 57  1  0
 45 58  1  0
 58 59  2  0
 59 60  1  0
 59 61  1  0
 61 62  2  0
 62 63  1  0
 63 64  2  0
 64 65  1  0
 65 66  1  0
 66 67  1  0
 67 68  1  0
 68 69  1  0
 67 70  2  0
 70 71  1  0
 70 72  1  0
 72 73  1  0
 64 74  1  0
 74 75  2  0
 75 76  1  0
 76 77  1  0
 77 78  1  0
 78 79  1  0
 79 80  1  0
 80 81  1  0
 79 82  2  0
 82 83  1  0
 83 84  1  0
 82 85  1  0
 76 86  2  0
 86 87  1  0
 75 88  1  0
 88 89  2  0
 89 90  1  0
 89 91  1  0
 91 92  2  0
 92 93  1  0
 93 94  2  0
 94 95  1  0
 95 96  1  0
 96 97  1  0
 97 98  1  0
 98 99  1  0
 97100  2  0
100101  1  0
100102  1  0
102103  1  0
 94104  1  0
104105  2  0
105106  1  0
106107  1  0
107108  1  0
108109  1  0
109110  1  0
110111  1  0
109112  2  0
112113  1  0
113114  1  0
112115  1  0
106116  2  0
116117  1  0
105118  1  0
118119  2  0
119120  1  0
119121  1  0
121122  1  0
122123  2  0
123124  1  0
124125  1  0
125126  1  0
124127  1  0
127128  2  0
128129  1  0
129130  2  0
130131  1  0
131132  1  0
132133  1  0
130134  1  0
134135  1  0
129136  1  0
136137  2  0
137138  1  0
138139  2  0
139140  1  0
140141  1  0
141142  1  0
142143  1  0
143144  1  0
142145  2  0
145146  1  0
145147  1  0
147148  1  0
139149  1  0
149150  2  0
150151  1  0
151152  1  0
152153  1  0
153154  1  0
154155  1  0
155156  1  0
154157  2  0
157158  1  0
158159  1  0
157160  1  0
151161  2  0
161162  1  0
150163  1  0
163164  2  0
164165  1  0
 27  1  1  0
 57 31  1  0
 87 61  1  0
117 91  1  0
131121  2  0
162136  1  0
 26  3  1  0
 56 33  1  0
 86 63  1  0
116 93  1  0
128122  1  0
161138  1  0
 12  5  2  0
 30 14  1  0
 42 35  2  0
 60 44  1  0
 72 65  2  0
 90 74  1  0
102 95  2  0
120104  1  0
147140  2  0
165149  1  0
 23 17  2  0
 53 47  2  0
 83 77  2  0
113107  2  0
158152  2  0
  1166  1  0
  2167  1  0
  8168  1  0
  8169  1  0
  9170  1  0
  9171  1  0
  9172  1  0
 20173  1  0
 20174  1  0
 21175  1  0
 21176  1  0
 21177  1  0
 28178  1  0
 32179  1  0
 38180  1  0
 38181  1  0
 39182  1  0
 39183  1  0
 39184  1  0
 50185  1  0
 50186  1  0
 51187  1  0
 51188  1  0
 51189  1  0
 58190  1  0
 62191  1  0
 68192  1  0
 68193  1  0
 69194  1  0
 69195  1  0
 69196  1  0
 80197  1  0
 80198  1  0
 81199  1  0
 81200  1  0
 81201  1  0
 88202  1  0
 92203  1  0
 98204  1  0
 98205  1  0
 99206  1  0
 99207  1  0
 99208  1  0
110209  1  0
110210  1  0
111211  1  0
111212  1  0
111213  1  0
118214  1  0
125215  1  0
125216  1  0
126217  1  0
126218  1  0
126219  1  0
133220  1  0
133221  1  0
133222  1  0
135223  1  0
135224  1  0
135225  1  0
137226  1  0
143227  1  0
143228  1  0
144229  1  0
144230  1  0
144231  1  0
155232  1  0
155233  1  0
156234  1  0
156235  1  0
156236  1  0
163237  1  0
164238  1  0
M  END

