
     RDKit          3D

270299  0  0  0  0  0  0  0  0999 V2000
    9.9146  -12.7437    5.0569 C   0  0  0  0  0  0  0  0  0  0  0  0
   10.6348  -11.5552    5.1290 C   0  0  0  0  0  0  0  0  0  0  0  0
   10.3069  -10.6452    4.1090 C   0  0  0  0  0  0  0  0  0  0  0  0
   10.8806   -9.3724    3.9053 C   0  0  0  0  0  0  0  0  0  0  0  0
   11.8866   -8.8179    4.8342 C   0  0  0  0  0  0  0  0  0  0  0  0
   11.6177   -8.5194    6.4669 S   0  0  0  0  0  0  0  0  0  0  0  0
   13.1742   -7.9891    6.8115 C   0  0  0  0  0  0  0  0  0  0  0  0
   13.6391   -7.5247    8.1602 C   0  0  0  0  0  0  0  0  0  0  0  0
   13.5078   -6.0110    8.2858 C   0  0  0  0  0  0  0  0  0  0  0  0
   13.9270   -8.0195    5.6384 C   0  0  0  0  0  0  0  0  0  0  0  0
   15.6142   -7.5312    5.5561 Cl  0  0  0  0  0  0  0  0  0  0  0  0
   13.2077   -8.4951    4.5309 C   0  0  0  0  0  0  0  0  0  0  0  0
   13.9262   -8.7216    2.9412 Cl  0  0  0  0  0  0  0  0  0  0  0  0
   10.4220   -8.6396    2.7971 C   0  0  0  0  0  0  0  0  0  0  0  0
    9.4478   -9.1349    1.9213 C   0  0  0  0  0  0  0  0  0  0  0  0
    8.8859  -10.4127    2.1170 C   0  0  0  0  0  0  0  0  0  0  0  0
    7.8542  -10.9604    1.2160 C   0  0  0  0  0  0  0  0  0  0  0  0
    6.2720  -11.2962    1.6713 S   0  0  0  0  0  0  0  0  0  0  0  0
    5.7376  -11.7585    0.1463 C   0  0  0  0  0  0  0  0  0  0  0  0
    4.3170  -12.1014   -0.1882 C   0  0  0  0  0  0  0  0  0  0  0  0
    3.5551  -10.8558   -0.6216 C   0  0  0  0  0  0  0  0  0  0  0  0
    6.7953  -11.6309   -0.7538 C   0  0  0  0  0  0  0  0  0  0  0  0
    7.9846  -11.1959   -0.1526 C   0  0  0  0  0  0  0  0  0  0  0  0
    9.4901  -10.9903   -1.0384 Cl  0  0  0  0  0  0  0  0  0  0  0  0
    6.6470  -11.9511   -2.4772 Cl  0  0  0  0  0  0  0  0  0  0  0  0
    9.3343  -11.1349    3.2341 C   0  0  0  0  0  0  0  0  0  0  0  0
    8.8812  -12.6780    3.7259 S   0  0  0  0  0  0  0  0  0  0  0  0
    9.0947   -8.2253    0.9156 C   0  0  0  0  0  0  0  0  0  0  0  0
    9.7979   -7.0255    0.9890 C   0  0  0  0  0  0  0  0  0  0  0  0
   10.8427   -7.0784    2.3165 S   0  0  0  0  0  0  0  0  0  0  0  0
    9.6317   -5.8881    0.0688 C   0  0  0  0  0  0  0  0  0  0  0  0
    8.7440   -5.8465   -1.0044 C   0  0  0  0  0  0  0  0  0  0  0  0
    8.7771   -4.6326   -1.7014 C   0  0  0  0  0  0  0  0  0  0  0  0
    7.9943   -4.2996   -2.8245 C   0  0  0  0  0  0  0  0  0  0  0  0
    7.0127   -5.2379   -3.3970 C   0  0  0  0  0  0  0  0  0  0  0  0
    5.3477   -4.9976   -3.3906 S   0  0  0  0  0  0  0  0  0  0  0  0
    4.9539   -6.4595   -4.1215 C   0  0  0  0  0  0  0  0  0  0  0  0
    3.5528   -6.9389   -4.3515 C   0  0  0  0  0  0  0  0  0  0  0  0
    3.0829   -7.7981   -3.1829 C   0  0  0  0  0  0  0  0  0  0  0  0
    6.1267   -7.1714   -4.3606 C   0  0  0  0  0  0  0  0  0  0  0  0
    6.1613   -8.7840   -5.0658 Cl  0  0  0  0  0  0  0  0  0  0  0  0
    7.2840   -6.4835   -3.9620 C   0  0  0  0  0  0  0  0  0  0  0  0
    8.9085   -7.1213   -4.1752 Cl  0  0  0  0  0  0  0  0  0  0  0  0
    8.1313   -2.9964   -3.3248 C   0  0  0  0  0  0  0  0  0  0  0  0
    8.9922   -2.0526   -2.7566 C   0  0  0  0  0  0  0  0  0  0  0  0
    9.8084   -2.3993   -1.6602 C   0  0  0  0  0  0  0  0  0  0  0  0
   10.8076   -1.4659   -1.1116 C   0  0  0  0  0  0  0  0  0  0  0  0
   12.1774   -0.9613   -1.9441 S   0  0  0  0  0  0  0  0  0  0  0  0
   12.8586   -0.1029   -0.6679 C   0  0  0  0  0  0  0  0  0  0  0  0
   14.2191    0.5226   -0.6995 C   0  0  0  0  0  0  0  0  0  0  0  0
   15.2892   -0.5067   -0.3468 C   0  0  0  0  0  0  0  0  0  0  0  0
   12.0230   -0.2176    0.4405 C   0  0  0  0  0  0  0  0  0  0  0  0
   10.8673   -0.9760    0.1906 C   0  0  0  0  0  0  0  0  0  0  0  0
    9.6211   -1.2594    1.3971 Cl  0  0  0  0  0  0  0  0  0  0  0  0
   12.3936    0.4794    2.0117 Cl  0  0  0  0  0  0  0  0  0  0  0  0
    9.6703   -3.7045   -1.1531 C   0  0  0  0  0  0  0  0  0  0  0  0
   10.4538   -4.4138    0.1611 S   0  0  0  0  0  0  0  0  0  0  0  0
    8.8708   -0.7765   -3.3368 C   0  0  0  0  0  0  0  0  0  0  0  0
    7.9338   -0.7405   -4.3729 C   0  0  0  0  0  0  0  0  0  0  0  0
    7.2622   -2.2761   -4.5665 S   0  0  0  0  0  0  0  0  0  0  0  0
    7.3392    0.4658   -4.9608 C   0  0  0  0  0  0  0  0  0  0  0  0
    7.1357    1.6606   -4.2669 C   0  0  0  0  0  0  0  0  0  0  0  0
    6.1540    2.4755   -4.8549 C   0  0  0  0  0  0  0  0  0  0  0  0
    5.5952    3.6324   -4.2821 C   0  0  0  0  0  0  0  0  0  0  0  0
    6.0217    4.1264   -2.9595 C   0  0  0  0  0  0  0  0  0  0  0  0
    5.2221    3.8781   -1.8332 C   0  0  0  0  0  0  0  0  0  0  0  0
    5.5733    4.4127   -0.5921 C   0  0  0  0  0  0  0  0  0  0  0  0
    6.7217    5.2006   -0.4693 C   0  0  0  0  0  0  0  0  0  0  0  0
    7.1406    5.9364    1.1126 S   0  0  0  0  0  0  0  0  0  0  0  0
    6.2661    7.5121    0.7980 C   0  0  0  0  0  0  0  0  0  0  0  0
    4.7933    7.4066    1.1779 C   0  0  0  0  0  0  0  0  0  0  0  0
    7.5432    5.4168   -1.5836 C   0  0  0  0  0  0  0  0  0  0  0  0
    7.1949    4.8800   -2.8278 C   0  0  0  0  0  0  0  0  0  0  0  0
    4.4563    4.1662   -4.9064 C   0  0  0  0  0  0  0  0  0  0  0  0
    3.8747    3.5942   -6.0432 C   0  0  0  0  0  0  0  0  0  0  0  0
    4.4799    2.4813   -6.6641 C   0  0  0  0  0  0  0  0  0  0  0  0
    3.9233    1.8702   -7.8834 C   0  0  0  0  0  0  0  0  0  0  0  0
    4.0169    2.5525   -9.1051 C   0  0  0  0  0  0  0  0  0  0  0  0
    3.5963    1.9369  -10.2887 C   0  0  0  0  0  0  0  0  0  0  0  0
    3.0514    0.6480  -10.2549 C   0  0  0  0  0  0  0  0  0  0  0  0
    2.5766   -0.1688  -11.7841 S   0  0  0  0  0  0  0  0  0  0  0  0
    0.8407    0.4008  -11.7525 C   0  0  0  0  0  0  0  0  0  0  0  0
    0.7138    1.8024  -12.3339 C   0  0  0  0  0  0  0  0  0  0  0  0
    2.9324   -0.0264   -9.0335 C   0  0  0  0  0  0  0  0  0  0  0  0
    3.3650    0.5825   -7.8519 C   0  0  0  0  0  0  0  0  0  0  0  0
    5.6094    1.9347   -6.0250 C   0  0  0  0  0  0  0  0  0  0  0  0
    6.3364    0.4484   -6.3201 S   0  0  0  0  0  0  0  0  0  0  0  0
    2.5855    4.0957   -6.3160 C   0  0  0  0  0  0  0  0  0  0  0  0
    2.1530    5.0383   -5.3755 C   0  0  0  0  0  0  0  0  0  0  0  0
    3.4017    5.2946   -4.2683 S   0  0  0  0  0  0  0  0  0  0  0  0
    0.7453    5.2548   -5.0056 C   0  0  0  0  0  0  0  0  0  0  0  0
    0.3215    5.2284   -3.6801 C   0  0  0  0  0  0  0  0  0  0  0  0
   -1.0523    5.0244   -3.5345 C   0  0  0  0  0  0  0  0  0  0  0  0
   -1.6997    4.7579   -2.3178 C   0  0  0  0  0  0  0  0  0  0  0  0
   -0.9475    4.6601   -1.0487 C   0  0  0  0  0  0  0  0  0  0  0  0
   -0.4081    5.8094   -0.4514 C   0  0  0  0  0  0  0  0  0  0  0  0
    0.3319    5.7058    0.7310 C   0  0  0  0  0  0  0  0  0  0  0  0
    0.5394    4.4541    1.3218 C   0  0  0  0  0  0  0  0  0  0  0  0
    1.4586    4.3240    2.8549 S   0  0  0  0  0  0  0  0  0  0  0  0
   -0.0361    4.4202    3.8939 C   0  0  0  0  0  0  0  0  0  0  0  0
    0.3398    4.3518    5.3657 C   0  0  0  0  0  0  0  0  0  0  0  0
    0.0172    3.3034    0.7203 C   0  0  0  0  0  0  0  0  0  0  0  0
   -0.7205    3.4049   -0.4615 C   0  0  0  0  0  0  0  0  0  0  0  0
   -3.0522    4.4114   -2.3858 C   0  0  0  0  0  0  0  0  0  0  0  0
   -3.7637    4.3423   -3.5891 C   0  0  0  0  0  0  0  0  0  0  0  0
   -3.1165    4.6329   -4.8162 C   0  0  0  0  0  0  0  0  0  0  0  0
   -3.8487    4.6180   -6.1004 C   0  0  0  0  0  0  0  0  0  0  0  0
   -4.9655    5.4530   -6.2729 C   0  0  0  0  0  0  0  0  0  0  0  0
   -5.6601    5.4599   -7.4847 C   0  0  0  0  0  0  0  0  0  0  0  0
   -5.2368    4.6468   -8.5412 C   0  0  0  0  0  0  0  0  0  0  0  0
   -6.1241    4.6662  -10.0994 S   0  0  0  0  0  0  0  0  0  0  0  0
   -5.3284    6.1874  -10.7301 C   0  0  0  0  0  0  0  0  0  0  0  0
   -3.9234    5.9025  -11.2478 C   0  0  0  0  0  0  0  0  0  0  0  0
   -4.1322    3.8028   -8.3710 C   0  0  0  0  0  0  0  0  0  0  0  0
   -3.4428    3.7842   -7.1538 C   0  0  0  0  0  0  0  0  0  0  0  0
   -1.7377    4.9389   -4.7502 C   0  0  0  0  0  0  0  0  0  0  0  0
   -0.6106    5.0720   -6.0060 S   0  0  0  0  0  0  0  0  0  0  0  0
   -5.0704    3.8327   -3.4214 C   0  0  0  0  0  0  0  0  0  0  0  0
   -5.3496    3.5079   -2.0936 C   0  0  0  0  0  0  0  0  0  0  0  0
   -4.0117    3.8563   -1.1346 S   0  0  0  0  0  0  0  0  0  0  0  0
   -6.4654    2.6963   -1.5958 C   0  0  0  0  0  0  0  0  0  0  0  0
   -6.2643    1.6131   -0.7513 C   0  0  0  0  0  0  0  0  0  0  0  0
   -7.4085    1.2471   -0.0413 C   0  0  0  0  0  0  0  0  0  0  0  0
   -7.4446    0.3086    1.0017 C   0  0  0  0  0  0  0  0  0  0  0  0
   -6.2554   -0.4806    1.3540 C   0  0  0  0  0  0  0  0  0  0  0  0
   -5.7329   -1.8321    0.5100 S   0  0  0  0  0  0  0  0  0  0  0  0
   -4.2477   -1.9660    1.2890 C   0  0  0  0  0  0  0  0  0  0  0  0
   -3.1823   -2.9457    0.9006 C   0  0  0  0  0  0  0  0  0  0  0  0
   -2.3487   -2.4025   -0.2556 C   0  0  0  0  0  0  0  0  0  0  0  0
   -4.1268   -0.9160    2.1977 C   0  0  0  0  0  0  0  0  0  0  0  0
   -2.6796   -0.6203    3.1561 Cl  0  0  0  0  0  0  0  0  0  0  0  0
   -5.2532   -0.0821    2.2345 C   0  0  0  0  0  0  0  0  0  0  0  0
   -5.3565    1.3712    3.2169 Cl  0  0  0  0  0  0  0  0  0  0  0  0
   -8.6173    0.2426    1.7591 C   0  0  0  0  0  0  0  0  0  0  0  0
   -9.7378    1.0319    1.4820 C   0  0  0  0  0  0  0  0  0  0  0  0
   -9.7244    1.9321    0.3884 C   0  0  0  0  0  0  0  0  0  0  0  0
  -10.8840    2.7771    0.0570 C   0  0  0  0  0  0  0  0  0  0  0  0
  -11.5655    3.9340    1.0714 S   0  0  0  0  0  0  0  0  0  0  0  0
  -12.8093    4.3707    0.0288 C   0  0  0  0  0  0  0  0  0  0  0  0
  -13.9168    5.3142    0.3801 C   0  0  0  0  0  0  0  0  0  0  0  0
  -15.0922    4.5556    0.9842 C   0  0  0  0  0  0  0  0  0  0  0  0
  -12.7187    3.5945   -1.1274 C   0  0  0  0  0  0  0  0  0  0  0  0
  -11.6313    2.7129   -1.1162 C   0  0  0  0  0  0  0  0  0  0  0  0
  -11.2971    1.5775   -2.4169 Cl  0  0  0  0  0  0  0  0  0  0  0  0
  -13.8788    3.6819   -2.4469 Cl  0  0  0  0  0  0  0  0  0  0  0  0
   -8.5249    2.0291   -0.3435 C   0  0  0  0  0  0  0  0  0  0  0  0
   -8.0766    3.1970   -1.4811 S   0  0  0  0  0  0  0  0  0  0  0  0
  -10.7658    0.8705    2.4286 C   0  0  0  0  0  0  0  0  0  0  0  0
  -10.4226   -0.0112    3.4551 C   0  0  0  0  0  0  0  0  0  0  0  0
   -8.8770   -0.6276    3.1705 S   0  0  0  0  0  0  0  0  0  0  0  0
  -11.1796   -0.2409    4.6944 C   0  0  0  0  0  0  0  0  0  0  0  0
  -12.3905    0.3599    5.0496 C   0  0  0  0  0  0  0  0  0  0  0  0
  -12.7973    0.0411    6.3574 C   0  0  0  0  0  0  0  0  0  0  0  0
  -13.9392    0.5320    7.0267 C   0  0  0  0  0  0  0  0  0  0  0  0
  -14.9140    1.4243    6.3682 C   0  0  0  0  0  0  0  0  0  0  0  0
  -15.2821    2.9825    6.8849 S   0  0  0  0  0  0  0  0  0  0  0  0
  -16.3977    3.3165    5.6733 C   0  0  0  0  0  0  0  0  0  0  0  0
  -17.1090    4.6269    5.5134 C   0  0  0  0  0  0  0  0  0  0  0  0
  -16.3517    5.5355    4.5549 C   0  0  0  0  0  0  0  0  0  0  0  0
  -16.4847    2.2115    4.8279 C   0  0  0  0  0  0  0  0  0  0  0  0
  -17.5068    2.1562    3.3977 Cl  0  0  0  0  0  0  0  0  0  0  0  0
  -15.6625    1.1445    5.2260 C   0  0  0  0  0  0  0  0  0  0  0  0
  -15.6311   -0.4063    4.3969 Cl  0  0  0  0  0  0  0  0  0  0  0  0
  -14.0904    0.1632    8.3755 C   0  0  0  0  0  0  0  0  0  0  0  0
  -13.1724   -0.6516    9.0462 C   0  0  0  0  0  0  0  0  0  0  0  0
  -12.0409   -1.1534    8.3735 C   0  0  0  0  0  0  0  0  0  0  0  0
  -11.0079   -1.9426    9.0666 C   0  0  0  0  0  0  0  0  0  0  0  0
   -9.9230   -1.3096   10.1826 S   0  0  0  0  0  0  0  0  0  0  0  0
   -9.0049   -2.7095   10.3562 C   0  0  0  0  0  0  0  0  0  0  0  0
   -7.7370   -2.7984   11.1527 C   0  0  0  0  0  0  0  0  0  0  0  0
   -6.5417   -2.3790   10.3009 C   0  0  0  0  0  0  0  0  0  0  0  0
   -9.5274   -3.6908    9.5151 C   0  0  0  0  0  0  0  0  0  0  0  0
  -10.6551   -3.2627    8.7960 C   0  0  0  0  0  0  0  0  0  0  0  0
  -11.5260   -4.2838    7.6603 Cl  0  0  0  0  0  0  0  0  0  0  0  0
   -8.8237   -5.2924    9.3375 Cl  0  0  0  0  0  0  0  0  0  0  0  0
  -11.8899   -0.7914    7.0257 C   0  0  0  0  0  0  0  0  0  0  0  0
  -10.6056   -1.1398    6.0031 S   0  0  0  0  0  0  0  0  0  0  0  0
  -13.5222   -0.9011   10.3826 C   0  0  0  0  0  0  0  0  0  0  0  0
  -14.7141   -0.2882   10.7586 C   0  0  0  0  0  0  0  0  0  0  0  0
  -15.3321    0.5618    9.4392 S   0  0  0  0  0  0  0  0  0  0  0  0
   10.0168  -13.5801    5.7350 H   0  0  0  0  0  0  0  0  0  0  0  0
   11.3825  -11.3744    5.8902 H   0  0  0  0  0  0  0  0  0  0  0  0
   13.0269   -8.0114    8.9492 H   0  0  0  0  0  0  0  0  0  0  0  0
   14.6977   -7.8232    8.3173 H   0  0  0  0  0  0  0  0  0  0  0  0
   12.4467   -5.7055    8.1533 H   0  0  0  0  0  0  0  0  0  0  0  0
   14.1353   -5.5030    7.5216 H   0  0  0  0  0  0  0  0  0  0  0  0
   13.8464   -5.6933    9.2946 H   0  0  0  0  0  0  0  0  0  0  0  0
    4.2918  -12.8557   -1.0025 H   0  0  0  0  0  0  0  0  0  0  0  0
    3.8228  -12.5433    0.7024 H   0  0  0  0  0  0  0  0  0  0  0  0
    3.5290  -10.1137    0.2055 H   0  0  0  0  0  0  0  0  0  0  0  0
    2.5144  -11.1289   -0.8897 H   0  0  0  0  0  0  0  0  0  0  0  0
    4.0439  -10.3979   -1.5051 H   0  0  0  0  0  0  0  0  0  0  0  0
    8.3380   -8.4292    0.1700 H   0  0  0  0  0  0  0  0  0  0  0  0
    8.0870   -6.6640   -1.2681 H   0  0  0  0  0  0  0  0  0  0  0  0
    2.8768   -6.0651   -4.4544 H   0  0  0  0  0  0  0  0  0  0  0  0
    3.5032   -7.5270   -5.2922 H   0  0  0  0  0  0  0  0  0  0  0  0
    3.1613   -7.2339   -2.2290 H   0  0  0  0  0  0  0  0  0  0  0  0
    2.0249   -8.0957   -3.3356 H   0  0  0  0  0  0  0  0  0  0  0  0
    3.7036   -8.7144   -3.1149 H   0  0  0  0  0  0  0  0  0  0  0  0
   14.2657    1.3709    0.0165 H   0  0  0  0  0  0  0  0  0  0  0  0
   14.4192    0.9227   -1.7155 H   0  0  0  0  0  0  0  0  0  0  0  0
   15.1028   -0.9256    0.6658 H   0  0  0  0  0  0  0  0  0  0  0  0
   15.2849   -1.3338   -1.0901 H   0  0  0  0  0  0  0  0  0  0  0  0
   16.2879   -0.0244   -0.3555 H   0  0  0  0  0  0  0  0  0  0  0  0
    9.3888    0.1010   -2.9700 H   0  0  0  0  0  0  0  0  0  0  0  0
    7.5829    1.8648   -3.3017 H   0  0  0  0  0  0  0  0  0  0  0  0
    4.3178    3.2881   -1.9214 H   0  0  0  0  0  0  0  0  0  0  0  0
    4.9408    4.2287    0.2681 H   0  0  0  0  0  0  0  0  0  0  0  0
    6.3615    7.8143   -0.2662 H   0  0  0  0  0  0  0  0  0  0  0  0
    6.7404    8.2997    1.4183 H   0  0  0  0  0  0  0  0  0  0  0  0
    4.2738    6.6768    0.5244 H   0  0  0  0  0  0  0  0  0  0  0  0
    4.6914    7.0871    2.2368 H   0  0  0  0  0  0  0  0  0  0  0  0
    4.3084    8.3963    1.0537 H   0  0  0  0  0  0  0  0  0  0  0  0
    8.4408    6.0157   -1.4915 H   0  0  0  0  0  0  0  0  0  0  0  0
    7.8224    5.0711   -3.6885 H   0  0  0  0  0  0  0  0  0  0  0  0
    4.4506    3.5446   -9.1467 H   0  0  0  0  0  0  0  0  0  0  0  0
    3.7121    2.4570  -11.2311 H   0  0  0  0  0  0  0  0  0  0  0  0
    0.4357    0.3776  -10.7188 H   0  0  0  0  0  0  0  0  0  0  0  0
    0.2395   -0.2977  -12.3712 H   0  0  0  0  0  0  0  0  0  0  0  0
    1.1689    1.8432  -13.3465 H   0  0  0  0  0  0  0  0  0  0  0  0
    1.2160    2.5407  -11.6761 H   0  0  0  0  0  0  0  0  0  0  0  0
   -0.3590    2.0775  -12.4134 H   0  0  0  0  0  0  0  0  0  0  0  0
    2.5255   -1.0292   -9.0031 H   0  0  0  0  0  0  0  0  0  0  0  0
    3.2864    0.0441   -6.9157 H   0  0  0  0  0  0  0  0  0  0  0  0
    1.9262    3.6631   -7.0574 H   0  0  0  0  0  0  0  0  0  0  0  0
    1.0059    5.2273   -2.8418 H   0  0  0  0  0  0  0  0  0  0  0  0
   -0.5568    6.7826   -0.9053 H   0  0  0  0  0  0  0  0  0  0  0  0
    0.7387    6.5973    1.1864 H   0  0  0  0  0  0  0  0  0  0  0  0
   -0.7135    3.5736    3.6504 H   0  0  0  0  0  0  0  0  0  0  0  0
   -0.5652    5.3759    3.6976 H   0  0  0  0  0  0  0  0  0  0  0  0
   -0.5805    4.4001    5.9840 H   0  0  0  0  0  0  0  0  0  0  0  0
    0.8662    3.3988    5.5834 H   0  0  0  0  0  0  0  0  0  0  0  0
    0.9996    5.2052    5.6321 H   0  0  0  0  0  0  0  0  0  0  0  0
    0.1815    2.3295    1.1662 H   0  0  0  0  0  0  0  0  0  0  0  0
   -1.1085    2.5062   -0.9242 H   0  0  0  0  0  0  0  0  0  0  0  0
   -5.2916    6.1073   -5.4732 H   0  0  0  0  0  0  0  0  0  0  0  0
   -6.5172    6.1100   -7.6064 H   0  0  0  0  0  0  0  0  0  0  0  0
   -5.9462    6.5741  -11.5670 H   0  0  0  0  0  0  0  0  0  0  0  0
   -5.2917    6.9731   -9.9456 H   0  0  0  0  0  0  0  0  0  0  0  0
   -3.5125    6.8213  -11.7169 H   0  0  0  0  0  0  0  0  0  0  0  0
   -3.2533    5.6049  -10.4149 H   0  0  0  0  0  0  0  0  0  0  0  0
   -3.9550    5.0957  -12.0098 H   0  0  0  0  0  0  0  0  0  0  0  0
   -3.8102    3.1577   -9.1777 H   0  0  0  0  0  0  0  0  0  0  0  0
   -2.5956    3.1161   -7.0325 H   0  0  0  0  0  0  0  0  0  0  0  0
   -5.7484    3.6130   -4.2375 H   0  0  0  0  0  0  0  0  0  0  0  0
   -5.2870    1.1811   -0.5740 H   0  0  0  0  0  0  0  0  0  0  0  0
   -3.6562   -3.9024    0.5899 H   0  0  0  0  0  0  0  0  0  0  0  0
   -2.5214   -3.1601    1.7690 H   0  0  0  0  0  0  0  0  0  0  0  0
   -1.8303   -1.4674    0.0487 H   0  0  0  0  0  0  0  0  0  0  0  0
   -2.9970   -2.1915   -1.1340 H   0  0  0  0  0  0  0  0  0  0  0  0
   -1.5847   -3.1525   -0.5532 H   0  0  0  0  0  0  0  0  0  0  0  0
  -14.2533    5.8578   -0.5291 H   0  0  0  0  0  0  0  0  0  0  0  0
  -13.5473    6.0676    1.1104 H   0  0  0  0  0  0  0  0  0  0  0  0
  -15.4613    3.7796    0.2796 H   0  0  0  0  0  0  0  0  0  0  0  0
  -15.9227    5.2638    1.1913 H   0  0  0  0  0  0  0  0  0  0  0  0
  -14.7849    4.0689    1.9342 H   0  0  0  0  0  0  0  0  0  0  0  0
  -11.7014    1.4128    2.4017 H   0  0  0  0  0  0  0  0  0  0  0  0
  -12.9311    1.0346    4.4006 H   0  0  0  0  0  0  0  0  0  0  0  0
  -18.1390    4.4545    5.1313 H   0  0  0  0  0  0  0  0  0  0  0  0
  -17.1922    5.1270    6.5017 H   0  0  0  0  0  0  0  0  0  0  0  0
  -16.8740    6.5130    4.4719 H   0  0  0  0  0  0  0  0  0  0  0  0
  -16.3115    5.0701    3.5515 H   0  0  0  0  0  0  0  0  0  0  0  0
  -15.3173    5.7103    4.9216 H   0  0  0  0  0  0  0  0  0  0  0  0
   -7.5882   -3.8367   11.5167 H   0  0  0  0  0  0  0  0  0  0  0  0
   -7.8084   -2.1317   12.0367 H   0  0  0  0  0  0  0  0  0  0  0  0
   -6.4382   -3.0496    9.4212 H   0  0  0  0  0  0  0  0  0  0  0  0
   -5.6129   -2.4375   10.9061 H   0  0  0  0  0  0  0  0  0  0  0  0
   -6.6694   -1.3331    9.9494 H   0  0  0  0  0  0  0  0  0  0  0  0
  -12.9393   -1.5141   11.0560 H   0  0  0  0  0  0  0  0  0  0  0  0
  -15.1722   -0.3569   11.7374 H   0  0  0  0  0  0  0  0  0  0  0  0
  1  2  2  0
  2  3  1  0
  3  4  2  0
  4  5  1  0
  5  6  1  0
  6  7  1  0
  7  8  1  0
  8  9  1  0
  7 10  2  0
 10 11  1  0
 10 12  1  0
 12 13  1  0
  4 14  1  0
 14 15  2  0
 15 16  1  0
 16 17  1  0
 17 18  1  0
 18 19  1  0
 19 20  1  0
 20 21  1  0
 19 22  2  0
 22 23  1  0
 23 24  1  0
 22 25  1  0
 16 26  2  0
 26 27  1  0
 15 28  1  0
 28 29  2  0
 29 30  1  0
 29 31  1  0
 31 32  2  0
 32 33  1  0
 33 34  2  0
 34 35  1  0
 35 36  1  0
 36 37  1  0
 37 38  1  0
 38 39  1  0
 37 40  2  0
 40 41  1  0
 40 42  1  0
 42 43  1  0
 34 44  1  0
 44 45  2  0
 45 46  1  0
 46 47  1  0
 47 48  1  0
 48 49  1  0
 49 50  1  0
 50 51  1  0
 49 52  2  0
 52 53  1  0
 53 54  1  0
 52 55  1  0
 46 56  2  0
 56 57  1  0
 45 58  1  0
 58 59  2  0
 59 60  1  0
 59 61  1  0
 61 62  2  0
 62 63  1  0
 63 64  2  0
 64 65  1  0
 65 66  2  0
 66 67  1  0
 67 68  2  0
 68 69  1  0
 69 70  1  0
 70 71  1  0
 68 72  1  0
 72 73  2  0
 64 74  1  0
 74 75  2  0
 75 76  1  0
 76 77  1  0
 77 78  2  0
 78 79  1  0
 79 80  2  0
 80 81  1  0
 81 82  1  0
 82 83  1  0
 80 84  1  0
 84 85  2  0
 76 86  2  0
 86 87  1  0
 75 88  1  0
 88 89  2  0
 89 90  1  0
 89 91  1  0
 91 92  2  0
 92 93  1  0
 93 94  2  0
 94 95  1  0
 95 96  2  0
 96 97  1  0
 97 98  2  0
 98 99  1  0
 99100  1  0
100101  1  0
 98102  1  0
102103  2  0
 94104  1  0
104105  2  0
105106  1  0
106107  1  0
107108  2  0
108109  1  0
109110  2  0
110111  1  0
111112  1  0
112113  1  0
110114  1  0
114115  2  0
106116  2  0
116117  1  0
105118  1  0
118119  2  0
119120  1  0
119121  1  0
121122  2  0
122123  1  0
123124  2  0
124125  1  0
125126  1  0
126127  1  0
127128  1  0
128129  1  0
127130  2  0
130131  1  0
130132  1  0
132133  1  0
124134  1  0
134135  2  0
135136  1  0
136137  1  0
137138  1  0
138139  1  0
139140  1  0
140141  1  0
139142  2  0
142143  1  0
143144  1  0
142145  1  0
136146  2  0
146147  1  0
135148  1  0
148149  2  0
149150  1  0
149151  1  0
151152  2  0
152153  1  0
153154  2  0
154155  1  0
155156  1  0
156157  1  0
157158  1  0
158159  1  0
157160  2  0
160161  1  0
160162  1  0
162163  1  0
154164  1  0
164165  2  0
165166  1  0
166167  1  0
167168  1  0
168169  1  0
169170  1  0
170171  1  0
169172  2  0
172173  1  0
173174  1  0
172175  1  0
166176  2  0
176177  1  0
165178  1  0
178179  2  0
179180  1  0
 27  1  1  0
 57 31  1  0
 87 61  1  0
117 91  1  0
147121  1  0
177151  1  0
 26  3  1  0
 56 33  1  0
 86 63  1  0
116 93  1  0
146123  1  0
176153  1  0
 12  5  2  0
 30 14  1  0
 42 35  2  0
 60 44  1  0
 73 65  1  0
 90 74  1  0
103 95  1  0
120104  1  0
132125  2  0
150134  1  0
162155  2  0
180164  1  0
 23 17  2  0
 53 47  2  0
 85 77  1  0
115107  1  0
143137  2  0
173167  2  0
  1181  1  0
  2182  1  0
  8183  1  0
  8184  1  0
  9185  1  0
  9186  1  0
  9187  1  0
 20188  1  0
 20189  1  0
 21190  1  0
 21191  1  0
 21192  1  0
 28193  1  0
 32194  1  0
 38195  1  0
 38196  1  0
 39197  1  0
 39198  1  0
 39199  1  0
 50200  1  0
 50201  1  0
 51202  1  0
 51203  1  0
 51204  1  0
 58205  1  0
 62206  1  0
 66207  1  0
 67208  1  0
 70209  1  0
 70210  1  0
 71211  1  0
 71212  1  0
 71213  1  0
 72214  1  0
 73215  1  0
 78216  1  0
 79217  1  0
 82218  1  0
 82219  1  0
 83220  1  0
 83221  1  0
 83222  1  0
 84223  1  0
 85224  1  0
 88225  1  0
 92226  1  0
 96227  1  0
 97228  1  0
100229  1  0
100230  1  0
101231  1  0
101232  1  0
101233  1  0
102234  1  0
103235  1  0
108236  1  0
109237  1  0
112238  1  0
112239  1  0
113240  1  0
113241  1  0
113242  1  0
114243  1  0
115244  1  0
118245  1  0
122246  1  0
128247  1  0
128248  1  0
129249  1  0
129250  1  0
129251  1  0
140252  1  0
140253  1  0
141254  1  0
141255  1  0
141256  1  0
148257  1  0
152258  1  0
158259  1  0
158260  1  0
159261  1  0
159262  1  0
159263  1  0
170264  1  0
170265  1  0
171266  1  0
171267  1  0
171268  1  0
178269  1  0
179270  1  0
M  END

