
     RDKit          3D

298327  0  0  0  0  0  0  0  0999 V2000
   -0.4098   -3.2401    9.7345 C   0  0  0  0  0  0  0  0  0  0  0  0
    0.1014   -2.2148    8.9441 C   0  0  0  0  0  0  0  0  0  0  0  0
   -0.8719   -1.5993    8.1408 C   0  0  0  0  0  0  0  0  0  0  0  0
   -0.6527   -0.5704    7.2006 C   0  0  0  0  0  0  0  0  0  0  0  0
    0.7105   -0.1112    6.8625 C   0  0  0  0  0  0  0  0  0  0  0  0
    1.4576    0.6629    7.7617 C   0  0  0  0  0  0  0  0  0  0  0  0
    2.8085    0.9283    7.5028 C   0  0  0  0  0  0  0  0  0  0  0  0
    3.4302    0.3852    6.3694 C   0  0  0  0  0  0  0  0  0  0  0  0
    5.2103    0.5252    6.1838 S   0  0  0  0  0  0  0  0  0  0  0  0
    5.1519    1.7111    4.7985 C   0  0  0  0  0  0  0  0  0  0  0  0
    6.5131    2.3661    4.6342 C   0  0  0  0  0  0  0  0  0  0  0  0
    2.6728   -0.3587    5.4513 C   0  0  0  0  0  0  0  0  0  0  0  0
    3.2533   -0.9056    4.3539 F   0  0  0  0  0  0  0  0  0  0  0  0
    1.3113   -0.5700    5.6822 C   0  0  0  0  0  0  0  0  0  0  0  0
   -1.7722   -0.1155    6.4877 C   0  0  0  0  0  0  0  0  0  0  0  0
   -3.0480   -0.6768    6.6378 C   0  0  0  0  0  0  0  0  0  0  0  0
   -3.2604   -1.7280    7.5536 C   0  0  0  0  0  0  0  0  0  0  0  0
   -4.5674   -2.3915    7.7063 C   0  0  0  0  0  0  0  0  0  0  0  0
   -5.3081   -2.2301    8.8863 C   0  0  0  0  0  0  0  0  0  0  0  0
   -6.5183   -2.9075    9.0567 C   0  0  0  0  0  0  0  0  0  0  0  0
   -6.9872   -3.7705    8.0573 C   0  0  0  0  0  0  0  0  0  0  0  0
   -8.5347   -4.6488    8.2897 S   0  0  0  0  0  0  0  0  0  0  0  0
   -7.7802   -6.1276    9.0590 C   0  0  0  0  0  0  0  0  0  0  0  0
   -7.6523   -5.9502   10.5668 C   0  0  0  0  0  0  0  0  0  0  0  0
   -6.2556   -3.9251    6.8694 C   0  0  0  0  0  0  0  0  0  0  0  0
   -5.0526   -3.2338    6.6922 C   0  0  0  0  0  0  0  0  0  0  0  0
   -6.7075   -4.7478    5.8899 F   0  0  0  0  0  0  0  0  0  0  0  0
   -2.1459   -2.1510    8.3032 C   0  0  0  0  0  0  0  0  0  0  0  0
   -2.0646   -3.3893    9.4371 S   0  0  0  0  0  0  0  0  0  0  0  0
   -4.0155   -0.0770    5.8142 C   0  0  0  0  0  0  0  0  0  0  0  0
   -3.4928    0.9607    5.0512 C   0  0  0  0  0  0  0  0  0  0  0  0
   -1.8398    1.1275    5.3580 S   0  0  0  0  0  0  0  0  0  0  0  0
   -4.2201    1.7696    4.0764 C   0  0  0  0  0  0  0  0  0  0  0  0
   -4.2515    3.1601    4.0847 C   0  0  0  0  0  0  0  0  0  0  0  0
   -4.6521    3.7046    2.8552 C   0  0  0  0  0  0  0  0  0  0  0  0
   -4.6270    5.0715    2.5166 C   0  0  0  0  0  0  0  0  0  0  0  0
   -4.2635    6.1026    3.5036 C   0  0  0  0  0  0  0  0  0  0  0  0
   -5.2467    6.6431    4.3414 C   0  0  0  0  0  0  0  0  0  0  0  0
   -4.9046    7.5970    5.3052 C   0  0  0  0  0  0  0  0  0  0  0  0
   -5.8770    8.0968    6.1133 F   0  0  0  0  0  0  0  0  0  0  0  0
   -3.5676    8.0218    5.4410 C   0  0  0  0  0  0  0  0  0  0  0  0
   -3.1894    9.0274    6.4996 C   0  0  0  0  0  0  0  0  0  0  0  0
   -2.8158    8.3279    7.8030 C   0  0  0  0  0  0  0  0  0  0  0  0
   -2.5795    7.4540    4.6135 C   0  0  0  0  0  0  0  0  0  0  0  0
   -1.2756    7.8066    4.7562 F   0  0  0  0  0  0  0  0  0  0  0  0
   -2.9292    6.5054    3.6468 C   0  0  0  0  0  0  0  0  0  0  0  0
   -4.8068    5.3911    1.1613 C   0  0  0  0  0  0  0  0  0  0  0  0
   -5.0093    4.4181    0.1749 C   0  0  0  0  0  0  0  0  0  0  0  0
   -5.1002    3.0552    0.5286 C   0  0  0  0  0  0  0  0  0  0  0  0
   -5.1858    1.9813   -0.4819 C   0  0  0  0  0  0  0  0  0  0  0  0
   -4.0946    1.7145   -1.3195 C   0  0  0  0  0  0  0  0  0  0  0  0
   -4.1375    0.6388   -2.2110 C   0  0  0  0  0  0  0  0  0  0  0  0
   -5.2790   -0.1835   -2.2757 C   0  0  0  0  0  0  0  0  0  0  0  0
   -5.3021   -1.3913   -3.1787 C   0  0  0  0  0  0  0  0  0  0  0  0
   -4.8377   -2.6362   -2.4267 C   0  0  0  0  0  0  0  0  0  0  0  0
   -6.3718    0.0894   -1.4304 C   0  0  0  0  0  0  0  0  0  0  0  0
   -6.3209    1.1659   -0.5385 C   0  0  0  0  0  0  0  0  0  0  0  0
   -7.4793   -0.6986   -1.4508 F   0  0  0  0  0  0  0  0  0  0  0  0
   -3.0536    0.3831   -2.9927 F   0  0  0  0  0  0  0  0  0  0  0  0
   -4.9199    2.7326    1.8848 C   0  0  0  0  0  0  0  0  0  0  0  0
   -4.6735    1.2073    2.5538 S   0  0  0  0  0  0  0  0  0  0  0  0
   -4.9081    4.9256   -1.1322 C   0  0  0  0  0  0  0  0  0  0  0  0
   -4.5493    6.2781   -1.1776 C   0  0  0  0  0  0  0  0  0  0  0  0
   -4.4811    6.8557    0.4129 S   0  0  0  0  0  0  0  0  0  0  0  0
   -3.7161    6.8498   -2.2561 C   0  0  0  0  0  0  0  0  0  0  0  0
   -2.7271    7.7988   -1.9869 C   0  0  0  0  0  0  0  0  0  0  0  0
   -1.5762    7.6512   -2.7746 C   0  0  0  0  0  0  0  0  0  0  0  0
   -0.3160    8.1983   -2.4639 C   0  0  0  0  0  0  0  0  0  0  0  0
   -0.1245    9.0760   -1.2971 C   0  0  0  0  0  0  0  0  0  0  0  0
   -0.1257    8.5352   -0.0012 C   0  0  0  0  0  0  0  0  0  0  0  0
    0.0441    9.3657    1.1077 C   0  0  0  0  0  0  0  0  0  0  0  0
    0.0573    8.8164    2.3491 F   0  0  0  0  0  0  0  0  0  0  0  0
    0.2003   10.7533    0.9356 C   0  0  0  0  0  0  0  0  0  0  0  0
    0.3918   11.6540    2.1293 C   0  0  0  0  0  0  0  0  0  0  0  0
    1.8727   11.8177    2.4487 C   0  0  0  0  0  0  0  0  0  0  0  0
    0.2245   11.2885   -0.3684 C   0  0  0  0  0  0  0  0  0  0  0  0
    0.4046   12.6185   -0.5669 F   0  0  0  0  0  0  0  0  0  0  0  0
    0.0635   10.4519   -1.4775 C   0  0  0  0  0  0  0  0  0  0  0  0
    0.7916    7.6474   -3.1227 C   0  0  0  0  0  0  0  0  0  0  0  0
    0.6696    6.6518   -4.0958 C   0  0  0  0  0  0  0  0  0  0  0  0
   -0.6042    6.1910   -4.4948 C   0  0  0  0  0  0  0  0  0  0  0  0
   -0.7440    5.1259   -5.5084 C   0  0  0  0  0  0  0  0  0  0  0  0
   -0.4816    5.4179   -6.8524 C   0  0  0  0  0  0  0  0  0  0  0  0
   -0.5114    4.4076   -7.8164 C   0  0  0  0  0  0  0  0  0  0  0  0
   -0.7976    3.0809   -7.4436 C   0  0  0  0  0  0  0  0  0  0  0  0
   -0.7269    1.9771   -8.4677 C   0  0  0  0  0  0  0  0  0  0  0  0
    0.7176    1.5149   -8.6623 C   0  0  0  0  0  0  0  0  0  0  0  0
   -1.0678    2.7898   -6.0924 C   0  0  0  0  0  0  0  0  0  0  0  0
   -1.0436    3.8079   -5.1309 C   0  0  0  0  0  0  0  0  0  0  0  0
   -1.3266    1.5146   -5.6954 F   0  0  0  0  0  0  0  0  0  0  0  0
   -0.2367    4.7172   -9.1103 F   0  0  0  0  0  0  0  0  0  0  0  0
   -1.7050    6.6763   -3.7675 C   0  0  0  0  0  0  0  0  0  0  0  0
   -3.2139    5.9522   -3.6036 S   0  0  0  0  0  0  0  0  0  0  0  0
    1.8855    6.0041   -4.3783 C   0  0  0  0  0  0  0  0  0  0  0  0
    2.9398    6.4375   -3.5705 C   0  0  0  0  0  0  0  0  0  0  0  0
    2.3827    7.6903   -2.5896 S   0  0  0  0  0  0  0  0  0  0  0  0
    4.0424    5.5522   -3.1676 C   0  0  0  0  0  0  0  0  0  0  0  0
    4.2958    5.2246   -1.8337 C   0  0  0  0  0  0  0  0  0  0  0  0
    5.0054    4.0223   -1.6806 C   0  0  0  0  0  0  0  0  0  0  0  0
    5.1737    3.3166   -0.4668 C   0  0  0  0  0  0  0  0  0  0  0  0
    4.6528    3.8573    0.8040 C   0  0  0  0  0  0  0  0  0  0  0  0
    3.2790    3.7813    1.0867 C   0  0  0  0  0  0  0  0  0  0  0  0
    2.7507    4.4604    2.1887 C   0  0  0  0  0  0  0  0  0  0  0  0
    3.5883    5.2095    3.0245 C   0  0  0  0  0  0  0  0  0  0  0  0
    2.8720    6.2092    4.3347 S   0  0  0  0  0  0  0  0  0  0  0  0
    2.9728    4.9011    5.6001 C   0  0  0  0  0  0  0  0  0  0  0  0
    2.3178    5.3754    6.8885 C   0  0  0  0  0  0  0  0  0  0  0  0
    4.9685    5.2528    2.7711 C   0  0  0  0  0  0  0  0  0  0  0  0
    5.7921    5.9768    3.5673 F   0  0  0  0  0  0  0  0  0  0  0  0
    5.4955    4.5791    1.6609 C   0  0  0  0  0  0  0  0  0  0  0  0
    5.7127    2.0204   -0.5550 C   0  0  0  0  0  0  0  0  0  0  0  0
    6.1216    1.4688   -1.7728 C   0  0  0  0  0  0  0  0  0  0  0  0
    5.9433    2.1702   -2.9876 C   0  0  0  0  0  0  0  0  0  0  0  0
    6.1095    1.5042   -4.3000 C   0  0  0  0  0  0  0  0  0  0  0  0
    5.3355    0.3735   -4.6195 C   0  0  0  0  0  0  0  0  0  0  0  0
    5.4985   -0.2736   -5.8453 C   0  0  0  0  0  0  0  0  0  0  0  0
    6.4173    0.2156   -6.7804 C   0  0  0  0  0  0  0  0  0  0  0  0
    6.6485   -0.6436   -8.3415 S   0  0  0  0  0  0  0  0  0  0  0  0
    5.1545    0.0385   -9.1483 C   0  0  0  0  0  0  0  0  0  0  0  0
    5.3199    1.5160   -9.4881 C   0  0  0  0  0  0  0  0  0  0  0  0
    7.1826    1.3534   -6.4748 C   0  0  0  0  0  0  0  0  0  0  0  0
    7.0253    1.9971   -5.2420 C   0  0  0  0  0  0  0  0  0  0  0  0
    8.0920    1.8277   -7.3659 F   0  0  0  0  0  0  0  0  0  0  0  0
    5.3712    3.4460   -2.9010 C   0  0  0  0  0  0  0  0  0  0  0  0
    4.7356    4.3724   -4.1574 S   0  0  0  0  0  0  0  0  0  0  0  0
    6.5156    0.1299   -1.6671 C   0  0  0  0  0  0  0  0  0  0  0  0
    6.2886   -0.4264   -0.4072 C   0  0  0  0  0  0  0  0  0  0  0  0
    5.7143    0.8006    0.6167 S   0  0  0  0  0  0  0  0  0  0  0  0
    6.0773   -1.8781   -0.2257 C   0  0  0  0  0  0  0  0  0  0  0  0
    5.0944   -2.4350    0.6063 C   0  0  0  0  0  0  0  0  0  0  0  0
    4.5762   -3.6504    0.1073 C   0  0  0  0  0  0  0  0  0  0  0  0
    3.4366   -4.3334    0.5914 C   0  0  0  0  0  0  0  0  0  0  0  0
    2.8636   -4.0636    1.9252 C   0  0  0  0  0  0  0  0  0  0  0  0
    3.5826   -4.4265    3.0780 C   0  0  0  0  0  0  0  0  0  0  0  0
    2.9772   -4.3604    4.3365 C   0  0  0  0  0  0  0  0  0  0  0  0
    1.6482   -3.9351    4.4536 C   0  0  0  0  0  0  0  0  0  0  0  0
    0.8455   -3.9458    6.0551 S   0  0  0  0  0  0  0  0  0  0  0  0
    0.1665   -5.6248    5.8490 C   0  0  0  0  0  0  0  0  0  0  0  0
   -0.7758   -5.9442    6.9997 C   0  0  0  0  0  0  0  0  0  0  0  0
    0.9451   -3.5151    3.3139 C   0  0  0  0  0  0  0  0  0  0  0  0
   -0.3383   -3.0855    3.4171 F   0  0  0  0  0  0  0  0  0  0  0  0
    1.5527   -3.5794    2.0567 C   0  0  0  0  0  0  0  0  0  0  0  0
    2.8588   -5.2892   -0.2667 C   0  0  0  0  0  0  0  0  0  0  0  0
    3.4088   -5.6046   -1.5132 C   0  0  0  0  0  0  0  0  0  0  0  0
    4.6202   -5.0254   -1.9347 C   0  0  0  0  0  0  0  0  0  0  0  0
    5.1865   -5.3151   -3.2720 C   0  0  0  0  0  0  0  0  0  0  0  0
    5.6345   -6.6118   -3.5712 C   0  0  0  0  0  0  0  0  0  0  0  0
    6.1187   -6.9115   -4.8480 C   0  0  0  0  0  0  0  0  0  0  0  0
    6.1661   -5.9192   -5.8351 C   0  0  0  0  0  0  0  0  0  0  0  0
    6.7398   -6.3311   -7.4872 S   0  0  0  0  0  0  0  0  0  0  0  0
    8.5114   -6.0764   -7.1187 C   0  0  0  0  0  0  0  0  0  0  0  0
    8.8856   -4.6036   -7.2129 C   0  0  0  0  0  0  0  0  0  0  0  0
    5.7161   -4.6240   -5.5443 C   0  0  0  0  0  0  0  0  0  0  0  0
    5.2308   -4.3219   -4.2662 C   0  0  0  0  0  0  0  0  0  0  0  0
    5.7265   -3.6624   -6.5035 F   0  0  0  0  0  0  0  0  0  0  0  0
    5.1725   -4.0472   -1.0956 C   0  0  0  0  0  0  0  0  0  0  0  0
    6.3681   -2.9543   -1.4945 S   0  0  0  0  0  0  0  0  0  0  0  0
    2.5733   -6.4063   -2.3006 C   0  0  0  0  0  0  0  0  0  0  0  0
    1.3752   -6.7291   -1.6727 C   0  0  0  0  0  0  0  0  0  0  0  0
    1.3541   -6.0461   -0.1271 S   0  0  0  0  0  0  0  0  0  0  0  0
    0.2003   -7.2513   -2.3806 C   0  0  0  0  0  0  0  0  0  0  0  0
   -0.8411   -8.0061   -1.8406 C   0  0  0  0  0  0  0  0  0  0  0  0
   -1.8375   -8.3046   -2.7913 C   0  0  0  0  0  0  0  0  0  0  0  0
   -2.9839   -9.1014   -2.5916 C   0  0  0  0  0  0  0  0  0  0  0  0
   -3.2779   -9.7509   -1.3024 C   0  0  0  0  0  0  0  0  0  0  0  0
   -3.2273  -11.1483   -1.1982 C   0  0  0  0  0  0  0  0  0  0  0  0
   -3.5620  -11.7763    0.0039 C   0  0  0  0  0  0  0  0  0  0  0  0
   -3.9632  -11.0123    1.1072 C   0  0  0  0  0  0  0  0  0  0  0  0
   -4.4320  -11.8380    2.6325 S   0  0  0  0  0  0  0  0  0  0  0  0
   -6.1185  -12.2793    2.0764 C   0  0  0  0  0  0  0  0  0  0  0  0
   -7.0398  -11.0680    2.0720 C   0  0  0  0  0  0  0  0  0  0  0  0
   -3.9880   -9.6128    1.0164 C   0  0  0  0  0  0  0  0  0  0  0  0
   -4.3477   -8.8605    2.0866 F   0  0  0  0  0  0  0  0  0  0  0  0
   -3.6433   -8.9826   -0.1868 C   0  0  0  0  0  0  0  0  0  0  0  0
   -3.8328   -9.2836   -3.7015 C   0  0  0  0  0  0  0  0  0  0  0  0
   -3.5862   -8.7014   -4.9468 C   0  0  0  0  0  0  0  0  0  0  0  0
   -2.4417   -7.9081   -5.1457 C   0  0  0  0  0  0  0  0  0  0  0  0
   -2.1734   -7.2299   -6.4271 C   0  0  0  0  0  0  0  0  0  0  0  0
   -2.3830   -5.8478   -6.5357 C   0  0  0  0  0  0  0  0  0  0  0  0
   -2.1290   -5.1968   -7.7462 C   0  0  0  0  0  0  0  0  0  0  0  0
   -1.6158   -5.9094   -8.8394 C   0  0  0  0  0  0  0  0  0  0  0  0
   -1.2469   -5.0487  -10.3763 S   0  0  0  0  0  0  0  0  0  0  0  0
    0.4980   -4.6866   -9.9623 C   0  0  0  0  0  0  0  0  0  0  0  0
    0.6119   -3.5135   -8.9982 C   0  0  0  0  0  0  0  0  0  0  0  0
   -1.4045   -7.2921   -8.7310 C   0  0  0  0  0  0  0  0  0  0  0  0
   -1.6920   -7.9509   -7.5303 C   0  0  0  0  0  0  0  0  0  0  0  0
   -0.9111   -7.9938   -9.7813 F   0  0  0  0  0  0  0  0  0  0  0  0
   -1.5825   -7.7464   -4.0475 C   0  0  0  0  0  0  0  0  0  0  0  0
   -0.1231   -6.9289   -4.0048 S   0  0  0  0  0  0  0  0  0  0  0  0
   -4.5836   -8.9769   -5.8956 C   0  0  0  0  0  0  0  0  0  0  0  0
   -5.6055   -9.7784   -5.3953 C   0  0  0  0  0  0  0  0  0  0  0  0
   -5.2796  -10.1380   -3.7801 S   0  0  0  0  0  0  0  0  0  0  0  0
    0.1659   -3.8530   10.4147 H   0  0  0  0  0  0  0  0  0  0  0  0
    1.1479   -1.9451    8.9460 H   0  0  0  0  0  0  0  0  0  0  0  0
    1.0061    1.0245    8.6772 H   0  0  0  0  0  0  0  0  0  0  0  0
    3.3863    1.5039    8.2160 H   0  0  0  0  0  0  0  0  0  0  0  0
    4.8836    1.1676    3.8659 H   0  0  0  0  0  0  0  0  0  0  0  0
    4.3849    2.4894    4.9888 H   0  0  0  0  0  0  0  0  0  0  0  0
    6.7638    2.9499    5.5451 H   0  0  0  0  0  0  0  0  0  0  0  0
    7.2890    1.5908    4.4653 H   0  0  0  0  0  0  0  0  0  0  0  0
    6.5028    3.0465    3.7618 H   0  0  0  0  0  0  0  0  0  0  0  0
    0.7377   -1.1483    4.9699 H   0  0  0  0  0  0  0  0  0  0  0  0
   -4.9467   -1.5780    9.6739 H   0  0  0  0  0  0  0  0  0  0  0  0
   -7.0875   -2.7669    9.9684 H   0  0  0  0  0  0  0  0  0  0  0  0
   -8.4400   -6.9954    8.8556 H   0  0  0  0  0  0  0  0  0  0  0  0
   -6.7854   -6.3463    8.6155 H   0  0  0  0  0  0  0  0  0  0  0  0
   -7.2619   -6.8875   11.0166 H   0  0  0  0  0  0  0  0  0  0  0  0
   -8.6452   -5.7276   11.0113 H   0  0  0  0  0  0  0  0  0  0  0  0
   -6.9501   -5.1267   10.8044 H   0  0  0  0  0  0  0  0  0  0  0  0
   -4.4896   -3.3693    5.7764 H   0  0  0  0  0  0  0  0  0  0  0  0
   -5.0572   -0.3729    5.7830 H   0  0  0  0  0  0  0  0  0  0  0  0
   -3.9011    3.7526    4.9213 H   0  0  0  0  0  0  0  0  0  0  0  0
   -6.2790    6.3218    4.2478 H   0  0  0  0  0  0  0  0  0  0  0  0
   -4.0333    9.7234    6.6868 H   0  0  0  0  0  0  0  0  0  0  0  0
   -2.3354    9.6464    6.1514 H   0  0  0  0  0  0  0  0  0  0  0  0
   -3.6743    7.7344    8.1827 H   0  0  0  0  0  0  0  0  0  0  0  0
   -2.5397    9.0862    8.5660 H   0  0  0  0  0  0  0  0  0  0  0  0
   -1.9482    7.6563    7.6403 H   0  0  0  0  0  0  0  0  0  0  0  0
   -2.1566    6.0740    3.0168 H   0  0  0  0  0  0  0  0  0  0  0  0
   -3.1986    2.3261   -1.2652 H   0  0  0  0  0  0  0  0  0  0  0  0
   -6.3306   -1.5553   -3.5715 H   0  0  0  0  0  0  0  0  0  0  0  0
   -4.6458   -1.2299   -4.0610 H   0  0  0  0  0  0  0  0  0  0  0  0
   -4.8442   -3.5089   -3.1076 H   0  0  0  0  0  0  0  0  0  0  0  0
   -5.5221   -2.8460   -1.5767 H   0  0  0  0  0  0  0  0  0  0  0  0
   -3.8073   -2.4906   -2.0373 H   0  0  0  0  0  0  0  0  0  0  0  0
   -7.1623    1.3548    0.1213 H   0  0  0  0  0  0  0  0  0  0  0  0
   -4.9274    4.2961   -2.0123 H   0  0  0  0  0  0  0  0  0  0  0  0
   -2.7527    8.4307   -1.1088 H   0  0  0  0  0  0  0  0  0  0  0  0
   -0.2565    7.4686    0.1434 H   0  0  0  0  0  0  0  0  0  0  0  0
   -0.1412   11.2437    3.0165 H   0  0  0  0  0  0  0  0  0  0  0  0
   -0.0517   12.6532    1.9273 H   0  0  0  0  0  0  0  0  0  0  0  0
    2.3953   12.2905    1.5916 H   0  0  0  0  0  0  0  0  0  0  0  0
    1.9872   12.4698    3.3422 H   0  0  0  0  0  0  0  0  0  0  0  0
    2.3338   10.8305    2.6635 H   0  0  0  0  0  0  0  0  0  0  0  0
    0.0799   10.8741   -2.4752 H   0  0  0  0  0  0  0  0  0  0  0  0
   -0.2343    6.4297   -7.1520 H   0  0  0  0  0  0  0  0  0  0  0  0
   -1.1342    2.3340   -9.4401 H   0  0  0  0  0  0  0  0  0  0  0  0
   -1.3529    1.1117   -8.1567 H   0  0  0  0  0  0  0  0  0  0  0  0
    1.3438    2.3488   -9.0460 H   0  0  0  0  0  0  0  0  0  0  0  0
    0.7501    0.6839   -9.3959 H   0  0  0  0  0  0  0  0  0  0  0  0
    1.1443    1.1576   -7.7003 H   0  0  0  0  0  0  0  0  0  0  0  0
   -1.2262    3.5666   -4.0895 H   0  0  0  0  0  0  0  0  0  0  0  0
    1.9468    5.1100   -4.9816 H   0  0  0  0  0  0  0  0  0  0  0  0
    3.8574    5.7617   -1.0027 H   0  0  0  0  0  0  0  0  0  0  0  0
    2.6132    3.2419    0.4233 H   0  0  0  0  0  0  0  0  0  0  0  0
    1.6840    4.4356    2.3716 H   0  0  0  0  0  0  0  0  0  0  0  0
    4.0407    4.6630    5.7983 H   0  0  0  0  0  0  0  0  0  0  0  0
    2.4451    3.9915    5.2368 H   0  0  0  0  0  0  0  0  0  0  0  0
    2.3475    4.5649    7.6458 H   0  0  0  0  0  0  0  0  0  0  0  0
    1.2595    5.6541    6.7058 H   0  0  0  0  0  0  0  0  0  0  0  0
    2.8634    6.2559    7.2875 H   0  0  0  0  0  0  0  0  0  0  0  0
    6.5563    4.6532    1.4439 H   0  0  0  0  0  0  0  0  0  0  0  0
    4.6157   -0.0151   -3.9084 H   0  0  0  0  0  0  0  0  0  0  0  0
    4.9012   -1.1482   -6.0722 H   0  0  0  0  0  0  0  0  0  0  0  0
    4.2640   -0.1046   -8.4983 H   0  0  0  0  0  0  0  0  0  0  0  0
    4.9853   -0.5276  -10.0890 H   0  0  0  0  0  0  0  0  0  0  0  0
    6.2637    1.6784  -10.0499 H   0  0  0  0  0  0  0  0  0  0  0  0
    4.4649    1.8455  -10.1162 H   0  0  0  0  0  0  0  0  0  0  0  0
    5.3329    2.1283   -8.5634 H   0  0  0  0  0  0  0  0  0  0  0  0
    7.6331    2.8677   -5.0102 H   0  0  0  0  0  0  0  0  0  0  0  0
    6.8090   -0.4595   -2.5242 H   0  0  0  0  0  0  0  0  0  0  0  0
    4.6407   -1.8952    1.4277 H   0  0  0  0  0  0  0  0  0  0  0  0
    4.5947   -4.8080    2.9952 H   0  0  0  0  0  0  0  0  0  0  0  0
    3.5283   -4.6729    5.2147 H   0  0  0  0  0  0  0  0  0  0  0  0
   -0.3933   -5.6948    4.8912 H   0  0  0  0  0  0  0  0  0  0  0  0
    1.0009   -6.3594    5.8356 H   0  0  0  0  0  0  0  0  0  0  0  0
   -0.2398   -5.8543    7.9679 H   0  0  0  0  0  0  0  0  0  0  0  0
   -1.6364   -5.2414    6.9904 H   0  0  0  0  0  0  0  0  0  0  0  0
   -1.1593   -6.9814    6.8958 H   0  0  0  0  0  0  0  0  0  0  0  0
    0.9894   -3.2858    1.1768 H   0  0  0  0  0  0  0  0  0  0  0  0
    5.5899   -7.3922   -2.8200 H   0  0  0  0  0  0  0  0  0  0  0  0
    6.4529   -7.9174   -5.0681 H   0  0  0  0  0  0  0  0  0  0  0  0
    9.1047   -6.6441   -7.8685 H   0  0  0  0  0  0  0  0  0  0  0  0
    8.7613   -6.4706   -6.1111 H   0  0  0  0  0  0  0  0  0  0  0  0
    8.6054   -4.1987   -8.2078 H   0  0  0  0  0  0  0  0  0  0  0  0
    9.9822   -4.4924   -7.0813 H   0  0  0  0  0  0  0  0  0  0  0  0
    8.3773   -4.0208   -6.4189 H   0  0  0  0  0  0  0  0  0  0  0  0
    4.8659   -3.3222   -4.0614 H   0  0  0  0  0  0  0  0  0  0  0  0
    2.7845   -6.6717   -3.3298 H   0  0  0  0  0  0  0  0  0  0  0  0
   -0.8637   -8.3378   -0.8109 H   0  0  0  0  0  0  0  0  0  0  0  0
   -2.9380  -11.7523   -2.0506 H   0  0  0  0  0  0  0  0  0  0  0  0
   -3.5286  -12.8571    0.0690 H   0  0  0  0  0  0  0  0  0  0  0  0
   -6.0877  -12.7381    1.0640 H   0  0  0  0  0  0  0  0  0  0  0  0
   -6.5263  -13.0337    2.7794 H   0  0  0  0  0  0  0  0  0  0  0  0
   -8.0782  -11.3932    1.8572 H   0  0  0  0  0  0  0  0  0  0  0  0
   -7.0198  -10.5676    3.0621 H   0  0  0  0  0  0  0  0  0  0  0  0
   -6.7336  -10.3479    1.2879 H   0  0  0  0  0  0  0  0  0  0  0  0
   -3.6820   -7.9024   -0.2547 H   0  0  0  0  0  0  0  0  0  0  0  0
   -2.7443   -5.2766   -5.6875 H   0  0  0  0  0  0  0  0  0  0  0  0
   -2.3029   -4.1304   -7.8275 H   0  0  0  0  0  0  0  0  0  0  0  0
    0.9913   -5.5831   -9.5254 H   0  0  0  0  0  0  0  0  0  0  0  0
    1.0199   -4.4238  -10.9065 H   0  0  0  0  0  0  0  0  0  0  0  0
    1.6834   -3.2359   -8.8932 H   0  0  0  0  0  0  0  0  0  0  0  0
    0.0458   -2.6440   -9.3926 H   0  0  0  0  0  0  0  0  0  0  0  0
    0.2245   -3.7865   -7.9942 H   0  0  0  0  0  0  0  0  0  0  0  0
   -1.5239   -9.0164   -7.4555 H   0  0  0  0  0  0  0  0  0  0  0  0
   -4.5742   -8.5983   -6.9113 H   0  0  0  0  0  0  0  0  0  0  0  0
   -6.4728  -10.1000   -5.9565 H   0  0  0  0  0  0  0  0  0  0  0  0
  1  2  2  0
  2  3  1  0
  3  4  2  0
  4  5  1  0
  5  6  2  0
  6  7  1  0
  7  8  2  0
  8  9  1  0
  9 10  1  0
 10 11  1  0
  8 12  1  0
 12 13  1  0
 12 14  2  0
  4 15  1  0
 15 16  2  0
 16 17  1  0
 17 18  1  0
 18 19  2  0
 19 20  1  0
 20 21  2  0
 21 22  1  0
 22 23  1  0
 23 24  1  0
 21 25  1  0
 25 26  2  0
 25 27  1  0
 17 28  2  0
 28 29  1  0
 16 30  1  0
 30 31  2  0
 31 32  1  0
 31 33  1  0
 33 34  2  0
 34 35  1  0
 35 36  2  0
 36 37  1  0
 37 38  2  0
 38 39  1  0
 39 40  1  0
 39 41  2  0
 41 42  1  0
 42 43  1  0
 41 44  1  0
 44 45  1  0
 44 46  2  0
 36 47  1  0
 47 48  2  0
 48 49  1  0
 49 50  1  0
 50 51  2  0
 51 52  1  0
 52 53  2  0
 53 54  1  0
 54 55  1  0
 53 56  1  0
 56 57  2  0
 56 58  1  0
 52 59  1  0
 49 60  2  0
 60 61  1  0
 48 62  1  0
 62 63  2  0
 63 64  1  0
 63 65  1  0
 65 66  2  0
 66 67  1  0
 67 68  2  0
 68 69  1  0
 69 70  2  0
 70 71  1  0
 71 72  1  0
 71 73  2  0
 73 74  1  0
 74 75  1  0
 73 76  1  0
 76 77  1  0
 76 78  2  0
 68 79  1  0
 79 80  2  0
 80 81  1  0
 81 82  1  0
 82 83  2  0
 83 84  1  0
 84 85  2  0
 85 86  1  0
 86 87  1  0
 85 88  1  0
 88 89  2  0
 88 90  1  0
 84 91  1  0
 81 92  2  0
 92 93  1  0
 80 94  1  0
 94 95  2  0
 95 96  1  0
 95 97  1  0
 97 98  2  0
 98 99  1  0
 99100  2  0
100101  1  0
101102  2  0
102103  1  0
103104  2  0
104105  1  0
105106  1  0
106107  1  0
104108  1  0
108109  1  0
108110  2  0
100111  1  0
111112  2  0
112113  1  0
113114  1  0
114115  2  0
115116  1  0
116117  2  0
117118  1  0
118119  1  0
119120  1  0
117121  1  0
121122  2  0
121123  1  0
113124  2  0
124125  1  0
112126  1  0
126127  2  0
127128  1  0
127129  1  0
129130  2  0
130131  1  0
131132  2  0
132133  1  0
133134  2  0
134135  1  0
135136  2  0
136137  1  0
137138  1  0
138139  1  0
136140  1  0
140141  1  0
140142  2  0
132143  1  0
143144  2  0
144145  1  0
145146  1  0
146147  2  0
147148  1  0
148149  2  0
149150  1  0
150151  1  0
151152  1  0
149153  1  0
153154  2  0
153155  1  0
145156  2  0
156157  1  0
144158  1  0
158159  2  0
159160  1  0
159161  1  0
161162  2  0
162163  1  0
163164  2  0
164165  1  0
165166  2  0
166167  1  0
167168  2  0
168169  1  0
169170  1  0
170171  1  0
168172  1  0
172173  1  0
172174  2  0
164175  1  0
175176  2  0
176177  1  0
177178  1  0
178179  2  0
179180  1  0
180181  2  0
181182  1  0
182183  1  0
183184  1  0
181185  1  0
185186  2  0
185187  1  0
177188  2  0
188189  1  0
176190  1  0
190191  2  0
191192  1  0
 29  1  1  0
 61 33  1  0
 93 65  1  0
125 97  1  0
157129  1  0
189161  1  0
 28  3  1  0
 60 35  1  0
 92 67  1  0
124 99  1  0
156131  1  0
188163  1  0
 14  5  1  0
 32 15  1  0
 46 37  1  0
 64 47  1  0
 78 69  1  0
 96 79  1  0
110101  1  0
128111  1  0
142133  1  0
160143  1  0
174165  1  0
192175  1  0
 26 18  1  0
 57 50  1  0
 89 82  1  0
122114  1  0
154146  1  0
186178  1  0
  1193  1  0
  2194  1  0
  6195  1  0
  7196  1  0
 10197  1  0
 10198  1  0
 11199  1  0
 11200  1  0
 11201  1  0
 14202  1  0
 19203  1  0
 20204  1  0
 23205  1  0
 23206  1  0
 24207  1  0
 24208  1  0
 24209  1  0
 26210  1  0
 30211  1  0
 34212  1  0
 38213  1  0
 42214  1  0
 42215  1  0
 43216  1  0
 43217  1  0
 43218  1  0
 46219  1  0
 51220  1  0
 54221  1  0
 54222  1  0
 55223  1  0
 55224  1  0
 55225  1  0
 57226  1  0
 62227  1  0
 66228  1  0
 70229  1  0
 74230  1  0
 74231  1  0
 75232  1  0
 75233  1  0
 75234  1  0
 78235  1  0
 83236  1  0
 86237  1  0
 86238  1  0
 87239  1  0
 87240  1  0
 87241  1  0
 89242  1  0
 94243  1  0
 98244  1  0
102245  1  0
103246  1  0
106247  1  0
106248  1  0
107249  1  0
107250  1  0
107251  1  0
110252  1  0
115253  1  0
116254  1  0
119255  1  0
119256  1  0
120257  1  0
120258  1  0
120259  1  0
122260  1  0
126261  1  0
130262  1  0
134263  1  0
135264  1  0
138265  1  0
138266  1  0
139267  1  0
139268  1  0
139269  1  0
142270  1  0
147271  1  0
148272  1  0
151273  1  0
151274  1  0
152275  1  0
152276  1  0
152277  1  0
154278  1  0
158279  1  0
162280  1  0
166281  1  0
167282  1  0
170283  1  0
170284  1  0
171285  1  0
171286  1  0
171287  1  0
174288  1  0
179289  1  0
180290  1  0
183291  1  0
183292  1  0
184293  1  0
184294  1  0
184295  1  0
186296  1  0
190297  1  0
191298  1  0
M  END

