
     RDKit          3D

245262  0  0  0  0  0  0  0  0999 V2000
   -0.2693   -6.2789    4.7399 C   0  0  0  0  0  0  0  0  0  0  0  0
    0.0669   -4.9388    4.5617 C   0  0  0  0  0  0  0  0  0  0  0  0
   -0.9639   -4.1834    3.9798 C   0  0  0  0  0  0  0  0  0  0  0  0
   -0.9355   -2.8018    3.7092 C   0  0  0  0  0  0  0  0  0  0  0  0
    0.1990   -1.9354    4.0830 C   0  0  0  0  0  0  0  0  0  0  0  0
    0.0227   -0.9462    5.0614 C   0  0  0  0  0  0  0  0  0  0  0  0
    1.0670   -0.0728    5.3782 C   0  0  0  0  0  0  0  0  0  0  0  0
    2.2884   -0.1720    4.7090 C   0  0  0  0  0  0  0  0  0  0  0  0
    3.6174    0.9701    5.1002 S   0  0  0  0  0  0  0  0  0  0  0  0
    3.1533    2.1965    3.8253 C   0  0  0  0  0  0  0  0  0  0  0  0
    2.1853    3.2223    4.3984 C   0  0  0  0  0  0  0  0  0  0  0  0
    2.4721   -1.1651    3.7347 C   0  0  0  0  0  0  0  0  0  0  0  0
    3.6531   -1.2640    3.0807 F   0  0  0  0  0  0  0  0  0  0  0  0
    1.4337   -2.0513    3.4302 C   0  0  0  0  0  0  0  0  0  0  0  0
   -2.0823   -2.2500    3.1185 C   0  0  0  0  0  0  0  0  0  0  0  0
   -3.2369   -2.9896    2.8602 C   0  0  0  0  0  0  0  0  0  0  0  0
   -3.2804   -4.3688    3.1567 C   0  0  0  0  0  0  0  0  0  0  0  0
   -4.4854   -5.1863    2.8991 C   0  0  0  0  0  0  0  0  0  0  0  0
   -5.6979   -4.8705    3.5289 C   0  0  0  0  0  0  0  0  0  0  0  0
   -6.8469   -5.6207    3.2627 C   0  0  0  0  0  0  0  0  0  0  0  0
   -6.7886   -6.7059    2.3779 C   0  0  0  0  0  0  0  0  0  0  0  0
   -8.2761   -7.6438    2.0157 S   0  0  0  0  0  0  0  0  0  0  0  0
   -7.9907   -8.9275    3.2881 C   0  0  0  0  0  0  0  0  0  0  0  0
   -8.4289   -8.4461    4.6654 C   0  0  0  0  0  0  0  0  0  0  0  0
   -5.5759   -7.0283    1.7476 C   0  0  0  0  0  0  0  0  0  0  0  0
   -4.4287   -6.2727    2.0102 C   0  0  0  0  0  0  0  0  0  0  0  0
   -5.5087   -8.0680    0.8782 F   0  0  0  0  0  0  0  0  0  0  0  0
   -2.1113   -4.9354    3.7035 C   0  0  0  0  0  0  0  0  0  0  0  0
   -1.8437   -6.5269    4.1859 S   0  0  0  0  0  0  0  0  0  0  0  0
   -4.2600   -2.2218    2.2715 C   0  0  0  0  0  0  0  0  0  0  0  0
   -3.8872   -0.8914    2.0528 C   0  0  0  0  0  0  0  0  0  0  0  0
   -2.3061   -0.6791    2.5857 S   0  0  0  0  0  0  0  0  0  0  0  0
   -4.6829    0.1738    1.4040 C   0  0  0  0  0  0  0  0  0  0  0  0
   -4.8192    1.4241    2.0487 C   0  0  0  0  0  0  0  0  0  0  0  0
   -4.3350    1.5621    3.3621 O   0  0  0  0  0  0  0  0  0  0  0  0
   -3.5841    2.6723    3.8684 C   0  0  0  0  0  0  0  0  0  0  0  0
   -2.1236    2.5813    3.4355 C   0  0  0  0  0  0  0  0  0  0  0  0
   -5.5142    2.4703    1.4028 C   0  0  0  0  0  0  0  0  0  0  0  0
   -5.8209    3.6394    2.1072 O   0  0  0  0  0  0  0  0  0  0  0  0
   -7.1578    4.0729    2.3648 C   0  0  0  0  0  0  0  0  0  0  0  0
   -7.8779    3.0787    3.2709 C   0  0  0  0  0  0  0  0  0  0  0  0
   -5.9387    2.3249    0.0699 C   0  0  0  0  0  0  0  0  0  0  0  0
   -6.5319    3.4255   -0.5747 O   0  0  0  0  0  0  0  0  0  0  0  0
   -7.2262    3.3882   -1.8208 C   0  0  0  0  0  0  0  0  0  0  0  0
   -8.5689    2.6784   -1.6714 C   0  0  0  0  0  0  0  0  0  0  0  0
   -5.7627    1.0925   -0.5773 C   0  0  0  0  0  0  0  0  0  0  0  0
   -5.1942    0.0045    0.0951 C   0  0  0  0  0  0  0  0  0  0  0  0
   -5.1897   -1.2994   -0.5993 C   0  0  0  0  0  0  0  0  0  0  0  0
   -6.2832   -2.1733   -0.3718 C   0  0  0  0  0  0  0  0  0  0  0  0
   -7.2749   -1.8946    0.5828 O   0  0  0  0  0  0  0  0  0  0  0  0
   -8.2182   -0.8354    0.4616 C   0  0  0  0  0  0  0  0  0  0  0  0
   -9.4320   -1.1282    1.3305 C   0  0  0  0  0  0  0  0  0  0  0  0
   -6.3835   -3.3813   -1.0649 C   0  0  0  0  0  0  0  0  0  0  0  0
   -7.4569   -4.2308   -0.7636 O   0  0  0  0  0  0  0  0  0  0  0  0
   -8.4243   -4.6670   -1.7180 C   0  0  0  0  0  0  0  0  0  0  0  0
   -9.2712   -3.4926   -2.1984 C   0  0  0  0  0  0  0  0  0  0  0  0
   -5.4254   -3.7252   -2.0239 C   0  0  0  0  0  0  0  0  0  0  0  0
   -5.5649   -4.9329   -2.7314 O   0  0  0  0  0  0  0  0  0  0  0  0
   -4.7605   -5.3273   -3.8419 C   0  0  0  0  0  0  0  0  0  0  0  0
   -5.3358   -6.5864   -4.4688 C   0  0  0  0  0  0  0  0  0  0  0  0
   -4.3359   -2.8693   -2.2487 C   0  0  0  0  0  0  0  0  0  0  0  0
   -4.1652   -1.6662   -1.5287 C   0  0  0  0  0  0  0  0  0  0  0  0
   -2.9056   -0.8633   -1.7595 C   0  0  0  0  0  0  0  0  0  0  0  0
   -1.8308   -1.2317   -2.5940 C   0  0  0  0  0  0  0  0  0  0  0  0
   -0.7506   -0.3296   -2.5886 C   0  0  0  0  0  0  0  0  0  0  0  0
    0.4331   -0.4316   -3.3562 C   0  0  0  0  0  0  0  0  0  0  0  0
    0.5927   -1.4294   -4.4470 C   0  0  0  0  0  0  0  0  0  0  0  0
   -0.3921   -1.5547   -5.4417 C   0  0  0  0  0  0  0  0  0  0  0  0
   -0.2291   -2.4659   -6.4882 C   0  0  0  0  0  0  0  0  0  0  0  0
    0.9258   -3.2519   -6.5607 C   0  0  0  0  0  0  0  0  0  0  0  0
    1.1161   -4.4276   -7.8998 S   0  0  0  0  0  0  0  0  0  0  0  0
    0.3500   -5.7922   -6.9680 C   0  0  0  0  0  0  0  0  0  0  0  0
    0.2611   -7.0316   -7.8446 C   0  0  0  0  0  0  0  0  0  0  0  0
    1.9254   -3.1184   -5.5890 C   0  0  0  0  0  0  0  0  0  0  0  0
    3.0521   -3.8731   -5.6514 F   0  0  0  0  0  0  0  0  0  0  0  0
    1.7565   -2.2139   -4.5348 C   0  0  0  0  0  0  0  0  0  0  0  0
    1.4270    0.5340   -3.1004 C   0  0  0  0  0  0  0  0  0  0  0  0
    1.2503    1.5822   -2.1886 C   0  0  0  0  0  0  0  0  0  0  0  0
    0.0218    1.7410   -1.5195 C   0  0  0  0  0  0  0  0  0  0  0  0
   -0.3149    2.9849   -0.8079 C   0  0  0  0  0  0  0  0  0  0  0  0
    0.2578    3.2888    0.4347 C   0  0  0  0  0  0  0  0  0  0  0  0
   -0.0347    4.5051    1.0612 C   0  0  0  0  0  0  0  0  0  0  0  0
   -0.9004    5.4237    0.4502 C   0  0  0  0  0  0  0  0  0  0  0  0
   -1.2220    7.0090    1.2313 S   0  0  0  0  0  0  0  0  0  0  0  0
   -2.5941    6.4155    2.2813 C   0  0  0  0  0  0  0  0  0  0  0  0
   -3.8994    6.3471    1.5031 C   0  0  0  0  0  0  0  0  0  0  0  0
   -1.4713    5.1229   -0.7927 C   0  0  0  0  0  0  0  0  0  0  0  0
   -1.1832    3.9056   -1.4157 C   0  0  0  0  0  0  0  0  0  0  0  0
   -2.2909    6.0127   -1.4065 F   0  0  0  0  0  0  0  0  0  0  0  0
   -0.9438    0.7439   -1.7243 C   0  0  0  0  0  0  0  0  0  0  0  0
   -2.4537    0.5932   -1.0118 S   0  0  0  0  0  0  0  0  0  0  0  0
    2.3609    2.4437   -2.1165 C   0  0  0  0  0  0  0  0  0  0  0  0
    3.3942    2.0602   -2.9647 C   0  0  0  0  0  0  0  0  0  0  0  0
    2.9163    0.7194   -3.8616 S   0  0  0  0  0  0  0  0  0  0  0  0
    4.6267    2.8231   -3.2071 C   0  0  0  0  0  0  0  0  0  0  0  0
    4.5935    3.8279   -4.1966 C   0  0  0  0  0  0  0  0  0  0  0  0
    3.4067    4.0159   -4.9260 O   0  0  0  0  0  0  0  0  0  0  0  0
    3.3358    4.1021   -6.3516 C   0  0  0  0  0  0  0  0  0  0  0  0
    3.7113    2.7729   -6.9962 C   0  0  0  0  0  0  0  0  0  0  0  0
    5.7148    4.6563   -4.3922 C   0  0  0  0  0  0  0  0  0  0  0  0
    5.6201    5.7622   -5.2439 O   0  0  0  0  0  0  0  0  0  0  0  0
    5.8266    7.0997   -4.7909 C   0  0  0  0  0  0  0  0  0  0  0  0
    5.4690    8.0712   -5.9025 C   0  0  0  0  0  0  0  0  0  0  0  0
    6.9082    4.3990   -3.7004 C   0  0  0  0  0  0  0  0  0  0  0  0
    8.0371    5.1815   -3.9869 O   0  0  0  0  0  0  0  0  0  0  0  0
    9.2615    5.1422   -3.2596 C   0  0  0  0  0  0  0  0  0  0  0  0
   10.1924    6.2284   -3.7762 C   0  0  0  0  0  0  0  0  0  0  0  0
    6.9443    3.3733   -2.7448 C   0  0  0  0  0  0  0  0  0  0  0  0
    5.8081    2.5986   -2.4593 C   0  0  0  0  0  0  0  0  0  0  0  0
    5.9036    1.6125   -1.3476 C   0  0  0  0  0  0  0  0  0  0  0  0
    5.3713    0.3160   -1.2976 C   0  0  0  0  0  0  0  0  0  0  0  0
    5.7410   -0.3886   -0.1363 C   0  0  0  0  0  0  0  0  0  0  0  0
    5.3607   -1.7036    0.2047 C   0  0  0  0  0  0  0  0  0  0  0  0
    4.4480   -2.5059   -0.6256 C   0  0  0  0  0  0  0  0  0  0  0  0
    3.0782   -2.5361   -0.3306 C   0  0  0  0  0  0  0  0  0  0  0  0
    2.2297   -3.4073   -1.0227 C   0  0  0  0  0  0  0  0  0  0  0  0
    2.7477   -4.2491   -2.0134 C   0  0  0  0  0  0  0  0  0  0  0  0
    1.6627   -5.4055   -2.8644 S   0  0  0  0  0  0  0  0  0  0  0  0
    1.9627   -6.7944   -1.7136 C   0  0  0  0  0  0  0  0  0  0  0  0
    2.1817   -8.0795   -2.4998 C   0  0  0  0  0  0  0  0  0  0  0  0
    4.1126   -4.1953   -2.3357 C   0  0  0  0  0  0  0  0  0  0  0  0
    4.6232   -4.9966   -3.3036 F   0  0  0  0  0  0  0  0  0  0  0  0
    4.9624   -3.3265   -1.6375 C   0  0  0  0  0  0  0  0  0  0  0  0
    5.8850   -2.2282    1.3971 C   0  0  0  0  0  0  0  0  0  0  0  0
    6.7381   -1.5027    2.2282 C   0  0  0  0  0  0  0  0  0  0  0  0
    7.1184   -0.1909    1.8913 C   0  0  0  0  0  0  0  0  0  0  0  0
    8.0402    0.5986    2.7257 C   0  0  0  0  0  0  0  0  0  0  0  0
    9.3670    0.7979    2.3153 C   0  0  0  0  0  0  0  0  0  0  0  0
   10.2220    1.5999    3.0792 C   0  0  0  0  0  0  0  0  0  0  0  0
    9.7534    2.2124    4.2499 C   0  0  0  0  0  0  0  0  0  0  0  0
   10.8290    3.3117    5.1802 S   0  0  0  0  0  0  0  0  0  0  0  0
   11.4791    2.0230    6.3018 C   0  0  0  0  0  0  0  0  0  0  0  0
   12.7894    1.4553    5.7692 C   0  0  0  0  0  0  0  0  0  0  0  0
    8.4274    2.0066    4.6649 C   0  0  0  0  0  0  0  0  0  0  0  0
    7.5748    1.1994    3.9042 C   0  0  0  0  0  0  0  0  0  0  0  0
    7.9554    2.6037    5.7884 F   0  0  0  0  0  0  0  0  0  0  0  0
    6.5856    0.3391    0.7056 C   0  0  0  0  0  0  0  0  0  0  0  0
    6.8516    1.8520    0.0366 S   0  0  0  0  0  0  0  0  0  0  0  0
    7.1492   -2.2222    3.3626 C   0  0  0  0  0  0  0  0  0  0  0  0
    6.6123   -3.5059    3.4176 C   0  0  0  0  0  0  0  0  0  0  0  0
    5.6313   -3.7515    2.0662 S   0  0  0  0  0  0  0  0  0  0  0  0
    0.3702   -7.0355    5.1708 H   0  0  0  0  0  0  0  0  0  0  0  0
    1.0276   -4.5352    4.8552 H   0  0  0  0  0  0  0  0  0  0  0  0
   -0.9250   -0.8462    5.5730 H   0  0  0  0  0  0  0  0  0  0  0  0
    0.9193    0.6864    6.1345 H   0  0  0  0  0  0  0  0  0  0  0  0
    2.7098    1.7072    2.9300 H   0  0  0  0  0  0  0  0  0  0  0  0
    4.0755    2.7223    3.4971 H   0  0  0  0  0  0  0  0  0  0  0  0
    1.9972    4.0173    3.6476 H   0  0  0  0  0  0  0  0  0  0  0  0
    2.6266    3.6922    5.3040 H   0  0  0  0  0  0  0  0  0  0  0  0
    1.2211    2.7399    4.6643 H   0  0  0  0  0  0  0  0  0  0  0  0
    1.5824   -2.8122    2.6738 H   0  0  0  0  0  0  0  0  0  0  0  0
   -5.7536   -4.0426    4.2250 H   0  0  0  0  0  0  0  0  0  0  0  0
   -7.7781   -5.3628    3.7472 H   0  0  0  0  0  0  0  0  0  0  0  0
   -8.5936   -9.8201    3.0175 H   0  0  0  0  0  0  0  0  0  0  0  0
   -6.9227   -9.2312    3.3127 H   0  0  0  0  0  0  0  0  0  0  0  0
   -8.3975   -9.2929    5.3834 H   0  0  0  0  0  0  0  0  0  0  0  0
   -9.4668   -8.0547    4.6242 H   0  0  0  0  0  0  0  0  0  0  0  0
   -7.7490   -7.6489    5.0324 H   0  0  0  0  0  0  0  0  0  0  0  0
   -3.5010   -6.5268    1.5128 H   0  0  0  0  0  0  0  0  0  0  0  0
   -5.2312   -2.6133    2.0234 H   0  0  0  0  0  0  0  0  0  0  0  0
   -3.6224    2.6416    4.9787 H   0  0  0  0  0  0  0  0  0  0  0  0
   -4.0019    3.6485    3.5537 H   0  0  0  0  0  0  0  0  0  0  0  0
   -1.5751    3.4815    3.7803 H   0  0  0  0  0  0  0  0  0  0  0  0
   -2.0546    2.5075    2.3287 H   0  0  0  0  0  0  0  0  0  0  0  0
   -1.6443    1.6957    3.9065 H   0  0  0  0  0  0  0  0  0  0  0  0
   -7.7325    4.2095    1.4244 H   0  0  0  0  0  0  0  0  0  0  0  0
   -7.1126    5.0569    2.8757 H   0  0  0  0  0  0  0  0  0  0  0  0
   -7.2873    2.9090    4.1964 H   0  0  0  0  0  0  0  0  0  0  0  0
   -8.8753    3.4800    3.5525 H   0  0  0  0  0  0  0  0  0  0  0  0
   -8.0248    2.1110    2.7437 H   0  0  0  0  0  0  0  0  0  0  0  0
   -6.6044    2.9110   -2.6084 H   0  0  0  0  0  0  0  0  0  0  0  0
   -7.4155    4.4351   -2.1376 H   0  0  0  0  0  0  0  0  0  0  0  0
   -8.4223    1.5921   -1.5159 H   0  0  0  0  0  0  0  0  0  0  0  0
   -9.1266    3.0935   -0.8058 H   0  0  0  0  0  0  0  0  0  0  0  0
   -9.1722    2.8246   -2.5922 H   0  0  0  0  0  0  0  0  0  0  0  0
   -6.0987    0.9503   -1.5957 H   0  0  0  0  0  0  0  0  0  0  0  0
   -8.5468   -0.7330   -0.5979 H   0  0  0  0  0  0  0  0  0  0  0  0
   -7.7742    0.1174    0.8068 H   0  0  0  0  0  0  0  0  0  0  0  0
   -9.9177   -2.0708    1.0038 H   0  0  0  0  0  0  0  0  0  0  0  0
   -9.1211   -1.2233    2.3946 H   0  0  0  0  0  0  0  0  0  0  0  0
  -10.1637   -0.2943    1.2426 H   0  0  0  0  0  0  0  0  0  0  0  0
   -7.9508   -5.1694   -2.5833 H   0  0  0  0  0  0  0  0  0  0  0  0
   -9.0921   -5.4083   -1.2284 H   0  0  0  0  0  0  0  0  0  0  0  0
  -10.0504   -3.8561   -2.8995 H   0  0  0  0  0  0  0  0  0  0  0  0
   -9.7649   -3.0060   -1.3303 H   0  0  0  0  0  0  0  0  0  0  0  0
   -8.6326   -2.7464   -2.7204 H   0  0  0  0  0  0  0  0  0  0  0  0
   -4.7582   -4.5203   -4.6073 H   0  0  0  0  0  0  0  0  0  0  0  0
   -3.7164   -5.5239   -3.5058 H   0  0  0  0  0  0  0  0  0  0  0  0
   -5.3311   -7.4183   -3.7330 H   0  0  0  0  0  0  0  0  0  0  0  0
   -6.3772   -6.4018   -4.8089 H   0  0  0  0  0  0  0  0  0  0  0  0
   -4.7218   -6.8801   -5.3440 H   0  0  0  0  0  0  0  0  0  0  0  0
   -3.6157   -3.1743   -2.9844 H   0  0  0  0  0  0  0  0  0  0  0  0
   -1.7899   -2.1385   -3.1740 H   0  0  0  0  0  0  0  0  0  0  0  0
   -1.2839   -0.9376   -5.4139 H   0  0  0  0  0  0  0  0  0  0  0  0
   -1.0016   -2.5611   -7.2419 H   0  0  0  0  0  0  0  0  0  0  0  0
    0.9659   -6.0188   -6.0733 H   0  0  0  0  0  0  0  0  0  0  0  0
   -0.6690   -5.4992   -6.6398 H   0  0  0  0  0  0  0  0  0  0  0  0
   -0.3492   -6.8207   -8.7472 H   0  0  0  0  0  0  0  0  0  0  0  0
    1.2753   -7.3538   -8.1565 H   0  0  0  0  0  0  0  0  0  0  0  0
   -0.2151   -7.8573   -7.2774 H   0  0  0  0  0  0  0  0  0  0  0  0
    2.5352   -2.1239   -3.7877 H   0  0  0  0  0  0  0  0  0  0  0  0
    0.9317    2.5881    0.9125 H   0  0  0  0  0  0  0  0  0  0  0  0
    0.4120    4.7375    2.0206 H   0  0  0  0  0  0  0  0  0  0  0  0
   -2.7135    7.1299    3.1210 H   0  0  0  0  0  0  0  0  0  0  0  0
   -2.3574    5.4244    2.7100 H   0  0  0  0  0  0  0  0  0  0  0  0
   -4.0989    7.3131    0.9933 H   0  0  0  0  0  0  0  0  0  0  0  0
   -3.8635    5.5321    0.7513 H   0  0  0  0  0  0  0  0  0  0  0  0
   -4.7337    6.1403    2.2059 H   0  0  0  0  0  0  0  0  0  0  0  0
   -1.6198    3.6893   -2.3818 H   0  0  0  0  0  0  0  0  0  0  0  0
    2.4035    3.3269   -1.4920 H   0  0  0  0  0  0  0  0  0  0  0  0
    2.2901    4.3498   -6.6325 H   0  0  0  0  0  0  0  0  0  0  0  0
    3.9840    4.9084   -6.7514 H   0  0  0  0  0  0  0  0  0  0  0  0
    3.0289    1.9724   -6.6444 H   0  0  0  0  0  0  0  0  0  0  0  0
    3.6209    2.8587   -8.0992 H   0  0  0  0  0  0  0  0  0  0  0  0
    4.7574    2.5010   -6.7397 H   0  0  0  0  0  0  0  0  0  0  0  0
    6.8842    7.2650   -4.5054 H   0  0  0  0  0  0  0  0  0  0  0  0
    5.1794    7.2988   -3.9102 H   0  0  0  0  0  0  0  0  0  0  0  0
    4.4098    7.9223   -6.2121 H   0  0  0  0  0  0  0  0  0  0  0  0
    6.1328    7.9039   -6.7796 H   0  0  0  0  0  0  0  0  0  0  0  0
    5.5969    9.1161   -5.5452 H   0  0  0  0  0  0  0  0  0  0  0  0
    9.0610    5.3213   -2.1811 H   0  0  0  0  0  0  0  0  0  0  0  0
    9.7460    4.1509   -3.3894 H   0  0  0  0  0  0  0  0  0  0  0  0
   10.4557    6.0314   -4.8357 H   0  0  0  0  0  0  0  0  0  0  0  0
   11.1226    6.2437   -3.1696 H   0  0  0  0  0  0  0  0  0  0  0  0
    9.6999    7.2208   -3.7011 H   0  0  0  0  0  0  0  0  0  0  0  0
    7.8649    3.1743   -2.2120 H   0  0  0  0  0  0  0  0  0  0  0  0
    4.7906   -0.1307   -2.0891 H   0  0  0  0  0  0  0  0  0  0  0  0
    2.6749   -1.9116    0.4551 H   0  0  0  0  0  0  0  0  0  0  0  0
    1.1767   -3.4400   -0.7724 H   0  0  0  0  0  0  0  0  0  0  0  0
    1.0749   -6.9084   -1.0557 H   0  0  0  0  0  0  0  0  0  0  0  0
    2.8516   -6.6152   -1.0714 H   0  0  0  0  0  0  0  0  0  0  0  0
    1.2975   -8.3008   -3.1356 H   0  0  0  0  0  0  0  0  0  0  0  0
    2.3339   -8.9242   -1.7929 H   0  0  0  0  0  0  0  0  0  0  0  0
    3.0841   -7.9923   -3.1420 H   0  0  0  0  0  0  0  0  0  0  0  0
    6.0229   -3.3202   -1.8607 H   0  0  0  0  0  0  0  0  0  0  0  0
    9.7345    0.3444    1.4016 H   0  0  0  0  0  0  0  0  0  0  0  0
   11.2389    1.7666    2.7481 H   0  0  0  0  0  0  0  0  0  0  0  0
   11.6682    2.4869    7.2924 H   0  0  0  0  0  0  0  0  0  0  0  0
   10.7447    1.2010    6.4446 H   0  0  0  0  0  0  0  0  0  0  0  0
   13.5373    2.2700    5.6501 H   0  0  0  0  0  0  0  0  0  0  0  0
   12.6313    0.9528    4.7923 H   0  0  0  0  0  0  0  0  0  0  0  0
   13.1918    0.7100    6.4883 H   0  0  0  0  0  0  0  0  0  0  0  0
    6.5491    1.0557    4.2182 H   0  0  0  0  0  0  0  0  0  0  0  0
    7.8193   -1.8321    4.1163 H   0  0  0  0  0  0  0  0  0  0  0  0
    6.8039   -4.2322    4.1975 H   0  0  0  0  0  0  0  0  0  0  0  0
  1  2  2  0
  2  3  1  0
  3  4  2  0
  4  5  1  0
  5  6  2  0
  6  7  1  0
  7  8  2  0
  8  9  1  0
  9 10  1  0
 10 11  1  0
  8 12  1  0
 12 13  1  0
 12 14  2  0
  4 15  1  0
 15 16  2  0
 16 17  1  0
 17 18  1  0
 18 19  2  0
 19 20  1  0
 20 21  2  0
 21 22  1  0
 22 23  1  0
 23 24  1  0
 21 25  1  0
 25 26  2  0
 25 27  1  0
 17 28  2  0
 28 29  1  0
 16 30  1  0
 30 31  2  0
 31 32  1  0
 31 33  1  0
 33 34  2  0
 34 35  1  0
 35 36  1  0
 36 37  1  0
 34 38  1  0
 38 39  1  0
 39 40  1  0
 40 41  1  0
 38 42  2  0
 42 43  1  0
 43 44  1  0
 44 45  1  0
 42 46  1  0
 46 47  2  0
 47 48  1  0
 48 49  2  0
 49 50  1  0
 50 51  1  0
 51 52  1  0
 49 53  1  0
 53 54  1  0
 54 55  1  0
 55 56  1  0
 53 57  2  0
 57 58  1  0
 58 59  1  0
 59 60  1  0
 57 61  1  0
 61 62  2  0
 62 63  1  0
 63 64  2  0
 64 65  1  0
 65 66  2  0
 66 67  1  0
 67 68  2  0
 68 69  1  0
 69 70  2  0
 70 71  1  0
 71 72  1  0
 72 73  1  0
 70 74  1  0
 74 75  1  0
 74 76  2  0
 66 77  1  0
 77 78  2  0
 78 79  1  0
 79 80  1  0
 80 81  2  0
 81 82  1  0
 82 83  2  0
 83 84  1  0
 84 85  1  0
 85 86  1  0
 83 87  1  0
 87 88  2  0
 87 89  1  0
 79 90  2  0
 90 91  1  0
 78 92  1  0
 92 93  2  0
 93 94  1  0
 93 95  1  0
 95 96  2  0
 96 97  1  0
 97 98  1  0
 98 99  1  0
 96100  1  0
100101  1  0
101102  1  0
102103  1  0
100104  2  0
104105  1  0
105106  1  0
106107  1  0
104108  1  0
108109  2  0
109110  1  0
110111  2  0
111112  1  0
112113  2  0
113114  1  0
114115  2  0
115116  1  0
116117  2  0
117118  1  0
118119  1  0
119120  1  0
117121  1  0
121122  1  0
121123  2  0
113124  1  0
124125  2  0
125126  1  0
126127  1  0
127128  2  0
128129  1  0
129130  2  0
130131  1  0
131132  1  0
132133  1  0
130134  1  0
134135  2  0
134136  1  0
126137  2  0
137138  1  0
125139  1  0
139140  2  0
140141  1  0
 29  1  1  0
 47 33  1  0
 62 48  1  0
 91 63  1  0
109 95  1  0
138110  1  0
 28  3  1  0
 90 65  1  0
137112  1  0
 14  5  1  0
 32 15  1  0
 76 67  1  0
 94 77  1  0
123114  1  0
141124  1  0
 26 18  1  0
 88 80  1  0
135127  1  0
  1142  1  0
  2143  1  0
  6144  1  0
  7145  1  0
 10146  1  0
 10147  1  0
 11148  1  0
 11149  1  0
 11150  1  0
 14151  1  0
 19152  1  0
 20153  1  0
 23154  1  0
 23155  1  0
 24156  1  0
 24157  1  0
 24158  1  0
 26159  1  0
 30160  1  0
 36161  1  0
 36162  1  0
 37163  1  0
 37164  1  0
 37165  1  0
 40166  1  0
 40167  1  0
 41168  1  0
 41169  1  0
 41170  1  0
 44171  1  0
 44172  1  0
 45173  1  0
 45174  1  0
 45175  1  0
 46176  1  0
 51177  1  0
 51178  1  0
 52179  1  0
 52180  1  0
 52181  1  0
 55182  1  0
 55183  1  0
 56184  1  0
 56185  1  0
 56186  1  0
 59187  1  0
 59188  1  0
 60189  1  0
 60190  1  0
 60191  1  0
 61192  1  0
 64193  1  0
 68194  1  0
 69195  1  0
 72196  1  0
 72197  1  0
 73198  1  0
 73199  1  0
 73200  1  0
 76201  1  0
 81202  1  0
 82203  1  0
 85204  1  0
 85205  1  0
 86206  1  0
 86207  1  0
 86208  1  0
 88209  1  0
 92210  1  0
 98211  1  0
 98212  1  0
 99213  1  0
 99214  1  0
 99215  1  0
102216  1  0
102217  1  0
103218  1  0
103219  1  0
103220  1  0
106221  1  0
106222  1  0
107223  1  0
107224  1  0
107225  1  0
108226  1  0
111227  1  0
115228  1  0
116229  1  0
119230  1  0
119231  1  0
120232  1  0
120233  1  0
120234  1  0
123235  1  0
128236  1  0
129237  1  0
132238  1  0
132239  1  0
133240  1  0
133241  1  0
133242  1  0
135243  1  0
139244  1  0
140245  1  0
M  END

