
     RDKit          3D

239265  0  0  0  0  0  0  0  0999 V2000
    8.7531   -5.3146   10.1166 C   0  0  0  0  0  0  0  0  0  0  0  0
    9.1515   -3.9996    9.8945 C   0  0  0  0  0  0  0  0  0  0  0  0
    8.1626   -3.2180    9.2776 C   0  0  0  0  0  0  0  0  0  0  0  0
    8.2705   -1.8546    8.9292 C   0  0  0  0  0  0  0  0  0  0  0  0
    9.5330   -1.1128    9.0793 C   0  0  0  0  0  0  0  0  0  0  0  0
    9.7519    0.2416   10.0543 S   0  0  0  0  0  0  0  0  0  0  0  0
   11.3842    0.4521    9.7004 C   0  0  0  0  0  0  0  0  0  0  0  0
   12.2418    1.5511   10.2516 C   0  0  0  0  0  0  0  0  0  0  0  0
   12.3512    2.7039    9.2589 C   0  0  0  0  0  0  0  0  0  0  0  0
   11.7763   -0.5268    8.7894 C   0  0  0  0  0  0  0  0  0  0  0  0
   13.4042   -0.6564    8.1383 Cl  0  0  0  0  0  0  0  0  0  0  0  0
   10.7404   -1.4053    8.4433 C   0  0  0  0  0  0  0  0  0  0  0  0
   10.9276   -2.7013    7.2711 Cl  0  0  0  0  0  0  0  0  0  0  0  0
    7.1280   -1.2463    8.3787 C   0  0  0  0  0  0  0  0  0  0  0  0
    5.9470   -1.9562    8.1325 C   0  0  0  0  0  0  0  0  0  0  0  0
    5.8499   -3.3299    8.4442 C   0  0  0  0  0  0  0  0  0  0  0  0
    4.6655   -4.1347    8.0867 C   0  0  0  0  0  0  0  0  0  0  0  0
    4.6936   -5.4035    6.9837 S   0  0  0  0  0  0  0  0  0  0  0  0
    3.0428   -5.7191    7.0278 C   0  0  0  0  0  0  0  0  0  0  0  0
    2.3525   -6.7320    6.1664 C   0  0  0  0  0  0  0  0  0  0  0  0
    2.0213   -6.1381    4.8022 C   0  0  0  0  0  0  0  0  0  0  0  0
    2.4381   -4.8124    7.8967 C   0  0  0  0  0  0  0  0  0  0  0  0
    3.3495   -3.9322    8.5016 C   0  0  0  0  0  0  0  0  0  0  0  0
    2.8754   -2.7184    9.6881 Cl  0  0  0  0  0  0  0  0  0  0  0  0
    0.7068   -4.7567    8.1897 Cl  0  0  0  0  0  0  0  0  0  0  0  0
    6.9828   -3.9242    9.0241 C   0  0  0  0  0  0  0  0  0  0  0  0
    7.1713   -5.5111    9.5528 S   0  0  0  0  0  0  0  0  0  0  0  0
    4.9639   -1.1785    7.5063 C   0  0  0  0  0  0  0  0  0  0  0  0
    5.3687    0.1344    7.2737 C   0  0  0  0  0  0  0  0  0  0  0  0
    6.9545    0.3333    7.8217 S   0  0  0  0  0  0  0  0  0  0  0  0
    4.5576    1.1498    6.5884 C   0  0  0  0  0  0  0  0  0  0  0  0
    5.0248    2.3433    6.0384 C   0  0  0  0  0  0  0  0  0  0  0  0
    4.0400    3.0215    5.2995 C   0  0  0  0  0  0  0  0  0  0  0  0
    4.2416    4.1664    4.5017 C   0  0  0  0  0  0  0  0  0  0  0  0
    5.4846    4.9660    4.5888 C   0  0  0  0  0  0  0  0  0  0  0  0
    6.4541    5.4189    3.2881 S   0  0  0  0  0  0  0  0  0  0  0  0
    7.5511    6.3278    4.1867 C   0  0  0  0  0  0  0  0  0  0  0  0
    8.6643    7.1451    3.6000 C   0  0  0  0  0  0  0  0  0  0  0  0
    8.2156    8.5895    3.3942 C   0  0  0  0  0  0  0  0  0  0  0  0
    7.1564    6.3092    5.5205 C   0  0  0  0  0  0  0  0  0  0  0  0
    8.0065    7.1765    6.7954 Cl  0  0  0  0  0  0  0  0  0  0  0  0
    5.9996    5.5486    5.7476 C   0  0  0  0  0  0  0  0  0  0  0  0
    5.2309    5.4328    7.3285 Cl  0  0  0  0  0  0  0  0  0  0  0  0
    3.1836    4.5246    3.6414 C   0  0  0  0  0  0  0  0  0  0  0  0
    1.9409    3.8809    3.6673 C   0  0  0  0  0  0  0  0  0  0  0  0
    1.7105    2.7987    4.5403 C   0  0  0  0  0  0  0  0  0  0  0  0
    0.4127    2.0955    4.6117 C   0  0  0  0  0  0  0  0  0  0  0  0
   -0.3428    1.3109    3.3282 S   0  0  0  0  0  0  0  0  0  0  0  0
   -1.7044    0.8248    4.1880 C   0  0  0  0  0  0  0  0  0  0  0  0
   -2.9236    0.1960    3.5779 C   0  0  0  0  0  0  0  0  0  0  0  0
   -3.9639    1.2637    3.2537 C   0  0  0  0  0  0  0  0  0  0  0  0
   -1.5854    1.2763    5.5008 C   0  0  0  0  0  0  0  0  0  0  0  0
   -0.4001    1.9890    5.7379 C   0  0  0  0  0  0  0  0  0  0  0  0
   -0.0255    2.7494    7.2795 Cl  0  0  0  0  0  0  0  0  0  0  0  0
   -2.8129    1.0123    6.7342 Cl  0  0  0  0  0  0  0  0  0  0  0  0
    2.8012    2.3699    5.3095 C   0  0  0  0  0  0  0  0  0  0  0  0
    2.9276    0.9517    6.1977 S   0  0  0  0  0  0  0  0  0  0  0  0
    1.0544    4.3524    2.6889 C   0  0  0  0  0  0  0  0  0  0  0  0
    1.6223    5.3082    1.8527 C   0  0  0  0  0  0  0  0  0  0  0  0
    3.2042    5.6143    2.3607 S   0  0  0  0  0  0  0  0  0  0  0  0
    1.1157    5.5670    0.5079 C   0  0  0  0  0  0  0  0  0  0  0  0
   -0.1340    6.1051    0.2213 C   0  0  0  0  0  0  0  0  0  0  0  0
   -0.5446    5.8505   -1.0974 C   0  0  0  0  0  0  0  0  0  0  0  0
   -1.7555    6.2602   -1.6889 C   0  0  0  0  0  0  0  0  0  0  0  0
   -2.6641    7.2135   -1.0291 C   0  0  0  0  0  0  0  0  0  0  0  0
   -3.5625    6.9195    0.3613 S   0  0  0  0  0  0  0  0  0  0  0  0
   -4.2222    8.4624    0.4764 C   0  0  0  0  0  0  0  0  0  0  0  0
   -5.0909    8.9444    1.6014 C   0  0  0  0  0  0  0  0  0  0  0  0
   -4.2653    9.7173    2.6264 C   0  0  0  0  0  0  0  0  0  0  0  0
   -3.7312    9.2381   -0.5713 C   0  0  0  0  0  0  0  0  0  0  0  0
   -4.1358   10.9355   -0.8005 Cl  0  0  0  0  0  0  0  0  0  0  0  0
   -2.8534    8.5379   -1.4114 C   0  0  0  0  0  0  0  0  0  0  0  0
   -1.9987    9.2956   -2.7458 Cl  0  0  0  0  0  0  0  0  0  0  0  0
   -2.0122    5.7952   -2.9923 C   0  0  0  0  0  0  0  0  0  0  0  0
   -1.1089    5.0052   -3.7082 C   0  0  0  0  0  0  0  0  0  0  0  0
    0.1299    4.6389   -3.1369 C   0  0  0  0  0  0  0  0  0  0  0  0
    1.1075    3.8033   -3.8580 C   0  0  0  0  0  0  0  0  0  0  0  0
    1.7072    2.3230   -3.3079 S   0  0  0  0  0  0  0  0  0  0  0  0
    2.7763    2.0777   -4.5838 C   0  0  0  0  0  0  0  0  0  0  0  0
    3.6861    0.8941   -4.7207 C   0  0  0  0  0  0  0  0  0  0  0  0
    3.0744   -0.1501   -5.6481 C   0  0  0  0  0  0  0  0  0  0  0  0
    2.6653    3.1460   -5.4702 C   0  0  0  0  0  0  0  0  0  0  0  0
    1.7386    4.1158   -5.0607 C   0  0  0  0  0  0  0  0  0  0  0  0
    1.4614    5.6126   -5.9468 Cl  0  0  0  0  0  0  0  0  0  0  0  0
    3.6240    3.2880   -6.9405 Cl  0  0  0  0  0  0  0  0  0  0  0  0
    0.3743    5.0785   -1.8260 C   0  0  0  0  0  0  0  0  0  0  0  0
    1.7027    4.7576   -0.8466 S   0  0  0  0  0  0  0  0  0  0  0  0
   -1.6054    4.5909   -4.9601 C   0  0  0  0  0  0  0  0  0  0  0  0
   -2.8903    5.0702   -5.2268 C   0  0  0  0  0  0  0  0  0  0  0  0
   -3.4176    5.9584   -3.8824 S   0  0  0  0  0  0  0  0  0  0  0  0
   -3.7540    4.6242   -6.3394 C   0  0  0  0  0  0  0  0  0  0  0  0
   -3.6615    3.0694   -6.9997 S   0  0  0  0  0  0  0  0  0  0  0  0
   -5.1919    3.0326   -7.7075 C   0  0  0  0  0  0  0  0  0  0  0  0
   -5.7767    4.2741   -7.4569 C   0  0  0  0  0  0  0  0  0  0  0  0
   -4.9629    5.1895   -6.7713 C   0  0  0  0  0  0  0  0  0  0  0  0
   -5.4183    6.6375   -6.7925 C   0  0  2  0  0  0  0  0  0  0  0  0
   -4.4710    7.6657   -6.2376 C   0  0  0  0  0  0  0  0  0  0  0  0
   -4.8716    8.5242   -5.4054 O   0  0  0  0  0  0  0  0  0  0  0  0
   -3.1803    7.7429   -6.7658 O   0  0  0  0  0  0  0  0  0  0  0  0
   -2.3445    8.8819   -6.5970 C   0  0  0  0  0  0  0  0  0  0  0  0
   -6.8656    6.7271   -6.2531 C   0  0  0  0  0  0  0  0  0  0  0  0
   -7.7951    5.5800   -6.7635 C   0  0  0  0  0  0  0  0  0  0  0  0
   -7.1722    4.6815   -7.8588 C   0  0  0  0  0  0  0  0  0  0  0  0
   -5.6966    2.0861   -8.7201 C   0  0  0  0  0  0  0  0  0  0  0  0
   -5.5686    0.7529   -8.7709 C   0  0  0  0  0  0  0  0  0  0  0  0
   -5.0162   -0.1852   -7.7715 C   0  0  0  0  0  0  0  0  0  0  0  0
   -4.8832   -1.5470   -8.0348 C   0  0  0  0  0  0  0  0  0  0  0  0
   -4.4416   -2.2924   -6.9325 C   0  0  0  0  0  0  0  0  0  0  0  0
   -4.2569   -3.6880   -6.9007 C   0  0  0  0  0  0  0  0  0  0  0  0
   -4.6472   -4.5581   -8.0253 C   0  0  0  0  0  0  0  0  0  0  0  0
   -3.6214   -5.6226   -8.8270 S   0  0  0  0  0  0  0  0  0  0  0  0
   -4.7979   -6.2826   -9.8298 C   0  0  0  0  0  0  0  0  0  0  0  0
   -4.5426   -7.3298  -10.8710 C   0  0  0  0  0  0  0  0  0  0  0  0
   -4.3285   -6.6899  -12.2383 C   0  0  0  0  0  0  0  0  0  0  0  0
   -6.0172   -5.6668   -9.5552 C   0  0  0  0  0  0  0  0  0  0  0  0
   -7.5189   -6.0650  -10.3827 Cl  0  0  0  0  0  0  0  0  0  0  0  0
   -5.9361   -4.7058   -8.5390 C   0  0  0  0  0  0  0  0  0  0  0  0
   -7.3394   -3.8314   -7.9308 Cl  0  0  0  0  0  0  0  0  0  0  0  0
   -3.7673   -4.2339   -5.7049 C   0  0  0  0  0  0  0  0  0  0  0  0
   -3.5242   -3.4617   -4.5607 C   0  0  0  0  0  0  0  0  0  0  0  0
   -3.7518   -2.0668   -4.5846 C   0  0  0  0  0  0  0  0  0  0  0  0
   -3.5545   -1.2100   -3.3976 C   0  0  0  0  0  0  0  0  0  0  0  0
   -2.5359    0.1324   -3.3321 S   0  0  0  0  0  0  0  0  0  0  0  0
   -2.9709    0.6104   -1.7780 C   0  0  0  0  0  0  0  0  0  0  0  0
   -2.3710    1.7778   -1.0455 C   0  0  0  0  0  0  0  0  0  0  0  0
   -1.0787    1.3709   -0.3469 C   0  0  0  0  0  0  0  0  0  0  0  0
   -3.9299   -0.2822   -1.2921 C   0  0  0  0  0  0  0  0  0  0  0  0
   -4.2624   -1.2926   -2.2032 C   0  0  0  0  0  0  0  0  0  0  0  0
   -5.5225   -2.4840   -1.8964 Cl  0  0  0  0  0  0  0  0  0  0  0  0
   -4.6967   -0.1366    0.2740 Cl  0  0  0  0  0  0  0  0  0  0  0  0
   -4.2053   -1.5161   -5.7983 C   0  0  0  0  0  0  0  0  0  0  0  0
   -4.6144    0.0862   -6.1489 S   0  0  0  0  0  0  0  0  0  0  0  0
   -3.0811   -4.2290   -3.4651 C   0  0  0  0  0  0  0  0  0  0  0  0
   -2.9923   -5.5929   -3.7615 C   0  0  0  0  0  0  0  0  0  0  0  0
   -3.4534   -5.8465   -5.3662 S   0  0  0  0  0  0  0  0  0  0  0  0
   -2.6812   -6.6723   -2.8151 C   0  0  0  0  0  0  0  0  0  0  0  0
   -2.3863   -7.9926   -3.1639 C   0  0  0  0  0  0  0  0  0  0  0  0
   -2.2970   -8.8507   -2.0550 C   0  0  0  0  0  0  0  0  0  0  0  0
   -2.0237  -10.2340   -2.0826 C   0  0  0  0  0  0  0  0  0  0  0  0
   -1.7171  -10.9533   -3.3331 C   0  0  0  0  0  0  0  0  0  0  0  0
   -2.7617  -11.1049   -4.6455 S   0  0  0  0  0  0  0  0  0  0  0  0
   -1.7220  -12.0218   -5.6019 C   0  0  0  0  0  0  0  0  0  0  0  0
   -2.0083  -12.4647   -7.0032 C   0  0  0  0  0  0  0  0  0  0  0  0
   -1.4354  -11.4769   -8.0127 C   0  0  0  0  0  0  0  0  0  0  0  0
   -0.5279  -12.2100   -4.9058 C   0  0  0  0  0  0  0  0  0  0  0  0
    0.8504  -13.0887   -5.5542 Cl  0  0  0  0  0  0  0  0  0  0  0  0
   -0.5266  -11.6088   -3.6362 C   0  0  0  0  0  0  0  0  0  0  0  0
    0.8775  -11.6058   -2.5753 Cl  0  0  0  0  0  0  0  0  0  0  0  0
   -2.0385  -10.9049   -0.8475 C   0  0  0  0  0  0  0  0  0  0  0  0
   -2.2857  -10.2540    0.3666 C   0  0  0  0  0  0  0  0  0  0  0  0
   -2.5081   -8.8614    0.3990 C   0  0  0  0  0  0  0  0  0  0  0  0
   -2.7513   -8.1414    1.6630 C   0  0  0  0  0  0  0  0  0  0  0  0
   -4.1163   -7.2115    1.9927 S   0  0  0  0  0  0  0  0  0  0  0  0
   -3.6271   -6.7011    3.5163 C   0  0  0  0  0  0  0  0  0  0  0  0
   -4.3692   -5.7076    4.3597 C   0  0  0  0  0  0  0  0  0  0  0  0
   -3.9570   -4.2832    4.0040 C   0  0  0  0  0  0  0  0  0  0  0  0
   -2.3654   -7.2317    3.7800 C   0  0  0  0  0  0  0  0  0  0  0  0
   -1.8756   -8.0421    2.7439 C   0  0  0  0  0  0  0  0  0  0  0  0
   -0.2820   -8.7903    2.7815 Cl  0  0  0  0  0  0  0  0  0  0  0  0
   -1.4586   -6.8866    5.2483 Cl  0  0  0  0  0  0  0  0  0  0  0  0
   -2.5247   -8.1931   -0.8380 C   0  0  0  0  0  0  0  0  0  0  0  0
   -2.8096   -6.5610   -1.1397 S   0  0  0  0  0  0  0  0  0  0  0  0
   -2.3348  -11.1343    1.4612 C   0  0  0  0  0  0  0  0  0  0  0  0
   -2.1229  -12.4630    1.1065 C   0  0  0  0  0  0  0  0  0  0  0  0
   -1.8844  -12.5561   -0.5614 S   0  0  0  0  0  0  0  0  0  0  0  0
    9.3556   -6.0839   10.5829 H   0  0  0  0  0  0  0  0  0  0  0  0
   10.1262   -3.6272   10.1829 H   0  0  0  0  0  0  0  0  0  0  0  0
   13.2580    1.1581   10.4749 H   0  0  0  0  0  0  0  0  0  0  0  0
   11.8029    1.9255   11.2006 H   0  0  0  0  0  0  0  0  0  0  0  0
   12.9612    3.5203    9.6990 H   0  0  0  0  0  0  0  0  0  0  0  0
   11.3432    3.1047    9.0111 H   0  0  0  0  0  0  0  0  0  0  0  0
   12.8460    2.3611    8.3216 H   0  0  0  0  0  0  0  0  0  0  0  0
    3.0192   -7.6127    6.0268 H   0  0  0  0  0  0  0  0  0  0  0  0
    1.4237   -7.0880    6.6547 H   0  0  0  0  0  0  0  0  0  0  0  0
    2.9495   -5.8041    4.2872 H   0  0  0  0  0  0  0  0  0  0  0  0
    1.3342   -5.2702    4.9134 H   0  0  0  0  0  0  0  0  0  0  0  0
    1.5251   -6.9072    4.1716 H   0  0  0  0  0  0  0  0  0  0  0  0
    4.0017   -1.5605    7.1973 H   0  0  0  0  0  0  0  0  0  0  0  0
    6.0537    2.6616    6.1052 H   0  0  0  0  0  0  0  0  0  0  0  0
    9.5448    7.1206    4.2759 H   0  0  0  0  0  0  0  0  0  0  0  0
    8.9663    6.7089    2.6249 H   0  0  0  0  0  0  0  0  0  0  0  0
    9.0526    9.1786    2.9629 H   0  0  0  0  0  0  0  0  0  0  0  0
    7.9225    9.0477    4.3619 H   0  0  0  0  0  0  0  0  0  0  0  0
    7.3544    8.6293    2.6956 H   0  0  0  0  0  0  0  0  0  0  0  0
   -2.6362   -0.3351    2.6447 H   0  0  0  0  0  0  0  0  0  0  0  0
   -3.3528   -0.5463    4.2782 H   0  0  0  0  0  0  0  0  0  0  0  0
   -4.1793    1.8882    4.1434 H   0  0  0  0  0  0  0  0  0  0  0  0
   -3.5984    1.9137    2.4300 H   0  0  0  0  0  0  0  0  0  0  0  0
   -4.9111    0.7791    2.9406 H   0  0  0  0  0  0  0  0  0  0  0  0
    0.0698    3.9450    2.5080 H   0  0  0  0  0  0  0  0  0  0  0  0
   -0.7443    6.5976    0.9681 H   0  0  0  0  0  0  0  0  0  0  0  0
   -5.8977    9.5927    1.1960 H   0  0  0  0  0  0  0  0  0  0  0  0
   -5.5690    8.0736    2.0957 H   0  0  0  0  0  0  0  0  0  0  0  0
   -3.4659    9.0720    3.0446 H   0  0  0  0  0  0  0  0  0  0  0  0
   -3.8012   10.6106    2.1583 H   0  0  0  0  0  0  0  0  0  0  0  0
   -4.9220   10.0500    3.4544 H   0  0  0  0  0  0  0  0  0  0  0  0
    4.6693    1.2184   -5.1222 H   0  0  0  0  0  0  0  0  0  0  0  0
    3.8668    0.4399   -3.7252 H   0  0  0  0  0  0  0  0  0  0  0  0
    3.7952   -0.9853   -5.7888 H   0  0  0  0  0  0  0  0  0  0  0  0
    2.1401   -0.5548   -5.2030 H   0  0  0  0  0  0  0  0  0  0  0  0
    2.8441    0.2912   -6.6403 H   0  0  0  0  0  0  0  0  0  0  0  0
   -1.0788    3.9179   -5.6320 H   0  0  0  0  0  0  0  0  0  0  0  0
   -5.4779    6.9206   -7.8669 H   0  0  0  0  0  0  0  0  0  0  0  0
   -2.0938    9.0159   -5.5287 H   0  0  0  0  0  0  0  0  0  0  0  0
   -1.4023    8.7356   -7.1660 H   0  0  0  0  0  0  0  0  0  0  0  0
   -2.8612    9.7851   -6.9870 H   0  0  0  0  0  0  0  0  0  0  0  0
   -6.8449    6.7113   -5.1409 H   0  0  0  0  0  0  0  0  0  0  0  0
   -7.2989    7.7056   -6.5587 H   0  0  0  0  0  0  0  0  0  0  0  0
   -8.0580    4.9361   -5.8995 H   0  0  0  0  0  0  0  0  0  0  0  0
   -8.7468    6.0082   -7.1483 H   0  0  0  0  0  0  0  0  0  0  0  0
   -7.1363    5.2332   -8.8200 H   0  0  0  0  0  0  0  0  0  0  0  0
   -7.8181    3.7852   -7.9986 H   0  0  0  0  0  0  0  0  0  0  0  0
   -6.2358    2.5424   -9.5440 H   0  0  0  0  0  0  0  0  0  0  0  0
   -5.9820    0.2812   -9.6571 H   0  0  0  0  0  0  0  0  0  0  0  0
   -5.1173   -1.9847   -8.9976 H   0  0  0  0  0  0  0  0  0  0  0  0
   -3.6374   -7.9119  -10.5931 H   0  0  0  0  0  0  0  0  0  0  0  0
   -5.4004   -8.0345  -10.9168 H   0  0  0  0  0  0  0  0  0  0  0  0
   -4.1090   -7.4811  -12.9853 H   0  0  0  0  0  0  0  0  0  0  0  0
   -3.4747   -5.9831  -12.2054 H   0  0  0  0  0  0  0  0  0  0  0  0
   -5.2422   -6.1410  -12.5563 H   0  0  0  0  0  0  0  0  0  0  0  0
   -3.0879    2.1646   -0.2875 H   0  0  0  0  0  0  0  0  0  0  0  0
   -2.1596    2.5908   -1.7695 H   0  0  0  0  0  0  0  0  0  0  0  0
   -0.6420    2.2519    0.1645 H   0  0  0  0  0  0  0  0  0  0  0  0
   -0.3436    0.9898   -1.0889 H   0  0  0  0  0  0  0  0  0  0  0  0
   -1.2847    0.5858    0.4095 H   0  0  0  0  0  0  0  0  0  0  0  0
   -2.8429   -3.8160   -2.4956 H   0  0  0  0  0  0  0  0  0  0  0  0
   -2.2626   -8.3150   -4.1890 H   0  0  0  0  0  0  0  0  0  0  0  0
   -1.5740  -13.4699   -7.1790 H   0  0  0  0  0  0  0  0  0  0  0  0
   -3.1071  -12.5442   -7.1478 H   0  0  0  0  0  0  0  0  0  0  0  0
   -1.6467  -11.8352   -9.0434 H   0  0  0  0  0  0  0  0  0  0  0  0
   -0.3368  -11.3875   -7.8881 H   0  0  0  0  0  0  0  0  0  0  0  0
   -1.9030  -10.4781   -7.8800 H   0  0  0  0  0  0  0  0  0  0  0  0
   -5.4623   -5.8316    4.1934 H   0  0  0  0  0  0  0  0  0  0  0  0
   -4.1686   -5.8970    5.4354 H   0  0  0  0  0  0  0  0  0  0  0  0
   -4.2137   -4.0659    2.9464 H   0  0  0  0  0  0  0  0  0  0  0  0
   -2.8641   -4.1503    4.1475 H   0  0  0  0  0  0  0  0  0  0  0  0
   -4.4934   -3.5709    4.6604 H   0  0  0  0  0  0  0  0  0  0  0  0
   -2.5407  -10.8303    2.4757 H   0  0  0  0  0  0  0  0  0  0  0  0
   -2.1337  -13.2969    1.7862 H   0  0  0  0  0  0  0  0  0  0  0  0
  1  2  2  0
  2  3  1  0
  3  4  2  0
  4  5  1  0
  5  6  1  0
  6  7  1  0
  7  8  1  0
  8  9  1  0
  7 10  2  0
 10 11  1  0
 10 12  1  0
 12 13  1  0
  4 14  1  0
 14 15  2  0
 15 16  1  0
 16 17  1  0
 17 18  1  0
 18 19  1  0
 19 20  1  0
 20 21  1  0
 19 22  2  0
 22 23  1  0
 23 24  1  0
 22 25  1  0
 16 26  2  0
 26 27  1  0
 15 28  1  0
 28 29  2  0
 29 30  1  0
 29 31  1  0
 31 32  2  0
 32 33  1  0
 33 34  2  0
 34 35  1  0
 35 36  1  0
 36 37  1  0
 37 38  1  0
 38 39  1  0
 37 40  2  0
 40 41  1  0
 40 42  1  0
 42 43  1  0
 34 44  1  0
 44 45  2  0
 45 46  1  0
 46 47  1  0
 47 48  1  0
 48 49  1  0
 49 50  1  0
 50 51  1  0
 49 52  2  0
 52 53  1  0
 53 54  1  0
 52 55  1  0
 46 56  2  0
 56 57  1  0
 45 58  1  0
 58 59  2  0
 59 60  1  0
 59 61  1  0
 61 62  2  0
 62 63  1  0
 63 64  2  0
 64 65  1  0
 65 66  1  0
 66 67  1  0
 67 68  1  0
 68 69  1  0
 67 70  2  0
 70 71  1  0
 70 72  1  0
 72 73  1  0
 64 74  1  0
 74 75  2  0
 75 76  1  0
 76 77  1  0
 77 78  1  0
 78 79  1  0
 79 80  1  0
 80 81  1  0
 79 82  2  0
 82 83  1  0
 83 84  1  0
 82 85  1  0
 76 86  2  0
 86 87  1  0
 75 88  1  0
 88 89  2  0
 89 90  1  0
 89 91  1  0
 91 92  1  0
 92 93  1  0
 93 94  2  0
 94 95  1  0
 95 96  1  0
 96 97  1  0
 97 98  2  0
 97 99  1  0
 99100  1  0
 96101  1  0
101102  1  0
102103  1  0
 93104  1  0
104105  2  3
105106  1  0
106107  2  0
107108  1  0
108109  2  0
109110  1  0
110111  1  0
111112  1  0
112113  1  0
113114  1  0
112115  2  0
115116  1  0
115117  1  0
117118  1  0
109119  1  0
119120  2  0
120121  1  0
121122  1  0
122123  1  0
123124  1  0
124125  1  0
125126  1  0
124127  2  0
127128  1  0
128129  1  0
127130  1  0
121131  2  0
131132  1  0
120133  1  0
133134  2  0
134135  1  0
134136  1  0
136137  2  0
137138  1  0
138139  2  0
139140  1  0
140141  1  0
141142  1  0
142143  1  0
143144  1  0
142145  2  0
145146  1  0
145147  1  0
147148  1  0
139149  1  0
149150  2  0
150151  1  0
151152  1  0
152153  1  0
153154  1  0
154155  1  0
155156  1  0
154157  2  0
157158  1  0
158159  1  0
157160  1  0
151161  2  0
161162  1  0
150163  1  0
163164  2  0
164165  1  0
 27  1  1  0
 57 31  1  0
 87 61  1  0
 95 91  2  0
132106  1  0
162136  1  0
 26  3  1  0
 56 33  1  0
 86 63  1  0
103 94  1  0
131108  1  0
161138  1  0
 12  5  2  0
 30 14  1  0
 42 35  2  0
 60 44  1  0
 72 65  2  0
 90 74  1  0
117110  2  0
135119  1  0
147140  2  0
165149  1  0
 23 17  2  0
 53 47  2  0
 83 77  2  0
128122  2  0
158152  2  0
  1166  1  0
  2167  1  0
  8168  1  0
  8169  1  0
  9170  1  0
  9171  1  0
  9172  1  0
 20173  1  0
 20174  1  0
 21175  1  0
 21176  1  0
 21177  1  0
 28178  1  0
 32179  1  0
 38180  1  0
 38181  1  0
 39182  1  0
 39183  1  0
 39184  1  0
 50185  1  0
 50186  1  0
 51187  1  0
 51188  1  0
 51189  1  0
 58190  1  0
 62191  1  0
 68192  1  0
 68193  1  0
 69194  1  0
 69195  1  0
 69196  1  0
 80197  1  0
 80198  1  0
 81199  1  0
 81200  1  0
 81201  1  0
 88202  1  0
 96203  1  6
100204  1  0
100205  1  0
100206  1  0
101207  1  0
101208  1  0
102209  1  0
102210  1  0
103211  1  0
103212  1  0
104213  1  0
105214  1  0
107215  1  0
113216  1  0
113217  1  0
114218  1  0
114219  1  0
114220  1  0
125221  1  0
125222  1  0
126223  1  0
126224  1  0
126225  1  0
133226  1  0
137227  1  0
143228  1  0
143229  1  0
144230  1  0
144231  1  0
144232  1  0
155233  1  0
155234  1  0
156235  1  0
156236  1  0
156237  1  0
163238  1  0
164239  1  0
M  END

