
     RDKit          3D

 99116  0  0  0  0  0  0  0  0999 V2000
   10.2987    7.5334   -7.3579 C   0  0  0  0  0  0  0  0  0  0  0  0
    9.5421    6.5409   -7.7981 O   0  0  0  0  0  0  0  0  0  0  0  0
    8.5594    6.4290   -6.9200 C   0  0  0  0  0  0  0  0  0  0  0  0
    8.7488    7.3892   -5.9404 C   0  0  0  0  0  0  0  0  0  0  0  0
    9.8587    8.0866   -6.1988 N   0  0  0  0  0  0  0  0  0  0  0  0
    7.8914    7.4735   -4.8444 C   0  0  0  0  0  0  0  0  0  0  0  0
    6.8261    6.5774   -4.7746 C   0  0  0  0  0  0  0  0  0  0  0  0
    6.6269    5.6158   -5.7592 C   0  0  0  0  0  0  0  0  0  0  0  0
    7.4880    5.5117   -6.8820 C   0  0  0  0  0  0  0  0  0  0  0  0
    5.6173    4.9007   -5.3766 O   0  0  0  0  0  0  0  0  0  0  0  0
    5.2237    5.3744   -4.2066 C   0  0  0  0  0  0  0  0  0  0  0  0
    5.9400    6.4356   -3.7703 N   0  0  0  0  0  0  0  0  0  0  0  0
    4.1560    4.7624   -3.3691 C   0  0  0  0  0  0  0  0  0  0  0  0
    3.9923    5.1257   -1.7088 S   0  0  0  0  0  0  0  0  0  0  0  0
    2.6980    4.0898   -1.4328 C   0  0  0  0  0  0  0  0  0  0  0  0
    2.0302    3.5543   -0.2442 C   0  0  0  0  0  0  0  0  0  0  0  0
    1.1979    2.5115   -0.4823 C   0  0  0  0  0  0  0  0  0  0  0  0
    1.0481    2.1354   -2.3562 Ge  0  0  0  0  0  4  0  0  0  0  0  0
    1.6716    0.3296   -2.7862 C   0  0  0  0  0  0  0  0  0  0  0  0
    1.5559    0.0193   -4.2632 C   0  0  0  0  0  0  0  0  0  0  0  0
   -0.7201    2.5313   -3.1007 C   0  0  0  0  0  0  0  0  0  0  0  0
   -0.6480    3.3389   -4.3660 C   0  0  0  0  0  0  0  0  0  0  0  0
    2.4094    3.5050   -2.6080 C   0  0  0  0  0  0  0  0  0  0  0  0
    3.2078    3.8285   -3.7262 C   0  0  0  0  0  0  0  0  0  0  0  0
    0.6568    1.9035    0.6305 C   0  0  0  0  0  0  0  0  0  0  0  0
    1.1134    2.5330    1.7727 C   0  0  0  0  0  0  0  0  0  0  0  0
    2.1777    3.8309    1.3855 S   0  0  0  0  0  0  0  0  0  0  0  0
    0.7348    2.0850    3.1378 C   0  0  0  0  0  0  0  0  0  0  0  0
    0.9945    0.8241    3.5214 O   0  0  0  0  0  0  0  0  0  0  0  0
    0.3694    0.6718    4.6468 C   0  0  0  0  0  0  0  0  0  0  0  0
   -0.3194    1.7859    4.9956 C   0  0  0  0  0  0  0  0  0  0  0  0
   -0.0971    2.7476    3.9955 N   0  0  0  0  0  0  0  0  0  0  0  0
   -1.2866    1.8314    6.0454 C   0  0  0  0  0  0  0  0  0  0  0  0
   -1.4998    0.6140    6.8526 C   0  0  0  0  0  0  0  0  0  0  0  0
   -0.7450   -0.4663    6.4903 C   0  0  0  0  0  0  0  0  0  0  0  0
    0.2144   -0.5395    5.4280 C   0  0  0  0  0  0  0  0  0  0  0  0
   -1.3158   -1.5455    7.0249 O   0  0  0  0  0  0  0  0  0  0  0  0
   -2.4591   -1.1414    7.6491 C   0  0  0  0  0  0  0  0  0  0  0  0
   -2.5734    0.2103    7.5518 N   0  0  0  0  0  0  0  0  0  0  0  0
   -3.4942   -2.1297    7.6884 C   0  0  0  0  0  0  0  0  0  0  0  0
   -4.7042   -2.2505    8.3571 O   0  0  0  0  0  0  0  0  0  0  0  0
   -5.4021   -3.1776    7.6685 C   0  0  0  0  0  0  0  0  0  0  0  0
   -4.5474   -3.5207    6.6329 C   0  0  0  0  0  0  0  0  0  0  0  0
   -3.3463   -2.9510    6.6101 N   0  0  0  0  0  0  0  0  0  0  0  0
   -4.9745   -4.1040    5.4876 C   0  0  0  0  0  0  0  0  0  0  0  0
   -6.3193   -4.4551    5.5243 C   0  0  0  0  0  0  0  0  0  0  0  0
   -7.1200   -4.6374    6.5806 C   0  0  0  0  0  0  0  0  0  0  0  0
   -6.7680   -3.8025    7.7527 C   0  0  0  0  0  0  0  0  0  0  0  0
   -8.0929   -5.5364    6.2307 O   0  0  0  0  0  0  0  0  0  0  0  0
   -7.7799   -5.9584    4.9332 C   0  0  0  0  0  0  0  0  0  0  0  0
   -6.8816   -5.0565    4.5399 N   0  0  0  0  0  0  0  0  0  0  0  0
   -7.6195   -7.1394    3.8669 C   0  0  0  0  0  0  0  0  0  0  0  0
   -6.3688   -7.6016    3.7565 O   0  0  0  0  0  0  0  0  0  0  0  0
   -5.9873   -7.3990    2.5309 C   0  0  0  0  0  0  0  0  0  0  0  0
   -7.1535   -7.3183    1.8187 C   0  0  0  0  0  0  0  0  0  0  0  0
   -8.2624   -7.1649    2.6440 N   0  0  0  0  0  0  0  0  0  0  0  0
   -6.9588   -7.4712    0.3853 C   0  0  0  0  0  0  0  0  0  0  0  0
   -5.6519   -7.0578   -0.1179 C   0  0  0  0  0  0  0  0  0  0  0  0
   -4.6091   -6.8345    0.7368 C   0  0  0  0  0  0  0  0  0  0  0  0
   -4.7291   -7.0033    2.1137 C   0  0  0  0  0  0  0  0  0  0  0  0
   -3.5102   -6.5539    0.1368 O   0  0  0  0  0  0  0  0  0  0  0  0
   -3.8831   -6.4028   -1.1095 C   0  0  0  0  0  0  0  0  0  0  0  0
   -5.1968   -6.7361   -1.4315 N   0  0  0  0  0  0  0  0  0  0  0  0
   -2.8196   -5.6854   -1.8273 C   0  0  0  0  0  0  0  0  0  0  0  0
   -2.2594   -5.8290   -3.0540 O   0  0  0  0  0  0  0  0  0  0  0  0
   -1.0330   -5.2694   -2.9601 C   0  0  0  0  0  0  0  0  0  0  0  0
   -0.8975   -4.7720   -1.6589 C   0  0  0  0  0  0  0  0  0  0  0  0
   -2.0027   -4.9812   -0.9730 N   0  0  0  0  0  0  0  0  0  0  0  0
    0.2659   -4.0384   -1.2745 C   0  0  0  0  0  0  0  0  0  0  0  0
    1.2105   -3.8707   -2.3043 C   0  0  0  0  0  0  0  0  0  0  0  0
    1.0673   -4.3524   -3.5798 C   0  0  0  0  0  0  0  0  0  0  0  0
   -0.0748   -5.1341   -3.9815 C   0  0  0  0  0  0  0  0  0  0  0  0
    2.0292   -3.9004   -4.3499 O   0  0  0  0  0  0  0  0  0  0  0  0
    2.8025   -3.1184   -3.5848 C   0  0  0  0  0  0  0  0  0  0  0  0
    2.3402   -3.0920   -2.2839 N   0  0  0  0  0  0  0  0  0  0  0  0
   11.2049    7.8699   -7.8834 H   0  0  0  0  0  0  0  0  0  0  0  0
    8.0812    8.2276   -4.0852 H   0  0  0  0  0  0  0  0  0  0  0  0
    7.3378    4.7508   -7.6523 H   0  0  0  0  0  0  0  0  0  0  0  0
    1.0764   -0.4403   -2.2257 H   0  0  0  0  0  0  0  0  0  0  0  0
    2.7473    0.2536   -2.4949 H   0  0  0  0  0  0  0  0  0  0  0  0
    0.6898   -0.6820   -4.4622 H   0  0  0  0  0  0  0  0  0  0  0  0
    2.4671   -0.4914   -4.6546 H   0  0  0  0  0  0  0  0  0  0  0  0
    1.4017    0.9342   -4.8885 H   0  0  0  0  0  0  0  0  0  0  0  0
   -1.3068    3.0974   -2.3543 H   0  0  0  0  0  0  0  0  0  0  0  0
   -1.2694    1.6021   -3.3327 H   0  0  0  0  0  0  0  0  0  0  0  0
   -1.6852    3.4680   -4.7322 H   0  0  0  0  0  0  0  0  0  0  0  0
   -0.2080    4.3458   -4.1736 H   0  0  0  0  0  0  0  0  0  0  0  0
   -0.0722    2.7760   -5.1428 H   0  0  0  0  0  0  0  0  0  0  0  0
    3.1027    3.3669   -4.7353 H   0  0  0  0  0  0  0  0  0  0  0  0
   -0.0061    1.0309    0.6319 H   0  0  0  0  0  0  0  0  0  0  0  0
   -1.9019    2.7200    6.1322 H   0  0  0  0  0  0  0  0  0  0  0  0
    0.6906   -1.4297    5.0894 H   0  0  0  0  0  0  0  0  0  0  0  0
   -4.3426   -4.3725    4.5880 H   0  0  0  0  0  0  0  0  0  0  0  0
   -7.3819   -3.8545    8.6100 H   0  0  0  0  0  0  0  0  0  0  0  0
   -7.8382   -7.4425   -0.2832 H   0  0  0  0  0  0  0  0  0  0  0  0
   -4.0024   -6.5238    2.8994 H   0  0  0  0  0  0  0  0  0  0  0  0
    0.4318   -3.5591   -0.3085 H   0  0  0  0  0  0  0  0  0  0  0  0
   -0.1657   -5.5303   -4.9994 H   0  0  0  0  0  0  0  0  0  0  0  0
    3.6653   -2.4697   -4.0331 H   0  0  0  0  0  0  0  0  0  0  0  0
  1  2  1  0
  2  3  1  0
  3  4  2  0
  4  5  1  0
  4  6  1  0
  6  7  2  0
  7  8  1  0
  8  9  2  0
  8 10  1  0
 10 11  1  0
 11 12  2  0
 11 13  1  0
 13 14  1  0
 14 15  1  0
 15 16  1  0
 16 17  2  0
 17 18  1  0
 18 19  1  0
 19 20  1  0
 18 21  1  0
 21 22  1  0
 18 23  1  0
 23 24  1  0
 17 25  1  0
 25 26  2  0
 26 27  1  0
 26 28  1  0
 28 29  1  0
 29 30  1  0
 30 31  2  0
 31 32  1  0
 31 33  1  0
 33 34  2  0
 34 35  1  0
 35 36  2  0
 35 37  1  0
 37 38  1  0
 38 39  2  0
 38 40  1  0
 40 41  1  0
 41 42  1  0
 42 43  2  0
 43 44  1  0
 43 45  1  0
 45 46  2  0
 46 47  1  0
 47 48  2  0
 47 49  1  0
 49 50  1  0
 50 51  2  0
 50 52  1  0
 52 53  1  0
 53 54  1  0
 54 55  2  0
 55 56  1  0
 55 57  1  0
 57 58  2  0
 58 59  1  0
 59 60  2  0
 59 61  1  0
 61 62  1  0
 62 63  2  0
 62 64  1  0
 64 65  1  0
 65 66  1  0
 66 67  2  0
 67 68  1  0
 67 69  1  0
 69 70  2  0
 70 71  1  0
 71 72  2  0
 71 73  1  0
 73 74  1  0
 74 75  2  0
  5  1  2  0
 12  7  1  0
 24 13  2  0
 32 28  2  0
 39 34  1  0
 44 40  2  0
 51 46  1  0
 56 52  2  0
 63 58  1  0
 68 64  2  0
 75 70  1  0
  9  3  1  0
 23 15  2  0
 36 30  1  0
 48 42  1  0
 60 54  1  0
 72 66  1  0
 27 16  1  0
  1 76  1  0
  6 77  1  0
  9 78  1  0
 19 79  1  0
 19 80  1  0
 20 81  1  0
 20 82  1  0
 20 83  1  0
 21 84  1  0
 21 85  1  0
 22 86  1  0
 22 87  1  0
 22 88  1  0
 24 89  1  0
 25 90  1  0
 33 91  1  0
 36 92  1  0
 45 93  1  0
 48 94  1  0
 57 95  1  0
 60 96  1  0
 69 97  1  0
 72 98  1  0
 74 99  1  0
M  END

