
     RDKit          3D

129141  0  0  0  0  0  0  0  0999 V2000
    0.6035    1.4947   -6.2992 C   0  0  0  0  0  0  0  0  0  0  0  0
   -0.6802    1.2112   -6.1499 C   0  0  0  0  0  0  0  0  0  0  0  0
   -1.2480    0.7716   -4.9995 F   0  0  0  0  0  0  0  0  0  0  0  0
   -1.3888    1.4352   -7.4011 C   0  0  0  0  0  0  0  0  0  0  0  0
   -0.5178    1.8560   -8.3050 C   0  0  0  0  0  0  0  0  0  0  0  0
    0.8060    1.9461   -7.6774 C   0  0  0  0  0  0  0  0  0  0  0  0
    1.9448    2.3127   -8.3050 C   0  0  0  0  0  0  0  0  0  0  0  0
    3.3389    2.4730   -7.8030 C   0  0  0  0  0  0  0  0  0  0  0  0
    4.1307    2.6101   -8.8631 C   0  0  0  0  0  0  0  0  0  0  0  0
    3.3214    2.5945  -10.0716 C   0  0  0  0  0  0  0  0  0  0  0  0
    2.0480    2.4541   -9.7609 C   0  0  0  0  0  0  0  0  0  0  0  0
    3.7948    2.7283  -11.3350 F   0  0  0  0  0  0  0  0  0  0  0  0
    3.8688    2.6902   -6.4371 C   0  0  0  0  0  0  0  0  0  0  0  0
    3.1407    3.1852   -5.4403 C   0  0  0  0  0  0  0  0  0  0  0  0
    3.7057    3.5734   -4.1311 C   0  0  0  0  0  0  0  0  0  0  0  0
    3.2340    4.6464   -3.5013 C   0  0  0  0  0  0  0  0  0  0  0  0
    2.1397    5.3502   -3.8844 F   0  0  0  0  0  0  0  0  0  0  0  0
    4.1870    5.1150   -2.5126 C   0  0  0  0  0  0  0  0  0  0  0  0
    5.2351    4.3173   -2.5290 C   0  0  0  0  0  0  0  0  0  0  0  0
    5.0004    3.2215   -3.4846 C   0  0  0  0  0  0  0  0  0  0  0  0
    5.6927    2.0536   -3.4181 C   0  0  0  0  0  0  0  0  0  0  0  0
    5.3306    0.6762   -3.8359 C   0  0  0  0  0  0  0  0  0  0  0  0
    6.1389   -0.1809   -3.2265 C   0  0  0  0  0  0  0  0  0  0  0  0
    7.0777    0.5620   -2.4082 C   0  0  0  0  0  0  0  0  0  0  0  0
    6.8492    1.8548   -2.5282 C   0  0  0  0  0  0  0  0  0  0  0  0
    8.0662    0.0185   -1.6579 F   0  0  0  0  0  0  0  0  0  0  0  0
    4.4473    0.2298   -4.9103 C   0  0  0  0  0  0  0  0  0  0  0  0
    3.2411   -0.3180   -4.7345 C   0  0  0  0  0  0  0  0  0  0  0  0
    2.4419   -0.3309   -3.4930 C   0  0  0  0  0  0  0  0  0  0  0  0
    0.8966   -1.0363   -3.4478 S   0  0  0  0  0  0  0  0  0  0  0  0
    0.5280   -0.4606   -1.9261 C   0  0  0  0  0  0  0  0  0  0  0  0
   -0.7349   -0.2571   -1.2451 C   0  0  0  0  0  0  0  0  0  0  0  0
   -0.6994    0.6390   -0.2096 C   0  0  0  0  0  0  0  0  0  0  0  0
    1.0660    1.3371    0.0851 Ge  0  0  0  0  0  4  0  0  0  0  0  0
    1.8892    0.6782    1.7201 C   0  0  0  0  0  0  0  0  0  0  0  0
    3.4032    0.7815    1.6292 C   0  0  0  0  0  0  0  0  0  0  0  0
    1.2744    3.2420   -0.2519 C   0  0  0  0  0  0  0  0  0  0  0  0
    0.7798    4.0511    0.9374 C   0  0  0  0  0  0  0  0  0  0  0  0
    1.5620    0.2950   -1.4453 C   0  0  0  0  0  0  0  0  0  0  0  0
    2.6484    0.3999   -2.3090 C   0  0  0  0  0  0  0  0  0  0  0  0
   -1.9511    0.9680    0.3091 C   0  0  0  0  0  0  0  0  0  0  0  0
   -2.9712    0.2768   -0.3584 C   0  0  0  0  0  0  0  0  0  0  0  0
   -2.3108   -0.6680   -1.6146 S   0  0  0  0  0  0  0  0  0  0  0  0
   -4.4161    0.3936   -0.0949 C   0  0  0  0  0  0  0  0  0  0  0  0
   -5.0614    1.5539   -0.0316 C   0  0  0  0  0  0  0  0  0  0  0  0
   -4.4641    2.7705   -0.0192 F   0  0  0  0  0  0  0  0  0  0  0  0
   -6.4874    1.3373   -0.2675 C   0  0  0  0  0  0  0  0  0  0  0  0
   -6.6991    0.0452   -0.4758 C   0  0  0  0  0  0  0  0  0  0  0  0
   -5.4248   -0.6539   -0.3200 C   0  0  0  0  0  0  0  0  0  0  0  0
   -5.2700   -1.9883   -0.2708 C   0  0  0  0  0  0  0  0  0  0  0  0
   -4.1163   -2.7584    0.2230 C   0  0  0  0  0  0  0  0  0  0  0  0
   -4.3174   -4.0369   -0.0710 C   0  0  0  0  0  0  0  0  0  0  0  0
   -5.6227   -4.1607   -0.7144 C   0  0  0  0  0  0  0  0  0  0  0  0
   -6.2078   -2.9753   -0.7969 C   0  0  0  0  0  0  0  0  0  0  0  0
   -6.1941   -5.3272   -1.1011 F   0  0  0  0  0  0  0  0  0  0  0  0
   -3.1256   -2.3119    1.2182 C   0  0  0  0  0  0  0  0  0  0  0  0
   -3.5183   -1.6466    2.3084 C   0  0  0  0  0  0  0  0  0  0  0  0
   -2.5822   -1.0312    3.2678 C   0  0  0  0  0  0  0  0  0  0  0  0
   -2.8044    0.1749    3.7769 C   0  0  0  0  0  0  0  0  0  0  0  0
   -3.9256    0.9082    3.5682 F   0  0  0  0  0  0  0  0  0  0  0  0
   -1.5964    0.6833    4.4092 C   0  0  0  0  0  0  0  0  0  0  0  0
   -0.6420   -0.2237    4.2882 C   0  0  0  0  0  0  0  0  0  0  0  0
   -1.1978   -1.4014    3.6166 C   0  0  0  0  0  0  0  0  0  0  0  0
   -0.5479   -2.5752    3.5001 C   0  0  0  0  0  0  0  0  0  0  0  0
   -1.0454   -3.9167    3.1352 C   0  0  0  0  0  0  0  0  0  0  0  0
    0.0079   -4.6803    2.8651 C   0  0  0  0  0  0  0  0  0  0  0  0
    1.2207   -3.9241    3.1489 C   0  0  0  0  0  0  0  0  0  0  0  0
    0.9088   -2.7103    3.5658 C   0  0  0  0  0  0  0  0  0  0  0  0
    2.4829   -4.4105    3.0750 F   0  0  0  0  0  0  0  0  0  0  0  0
   -2.4050   -4.4895    3.2336 C   0  0  0  0  0  0  0  0  0  0  0  0
   -3.2806   -4.3018    4.2305 C   0  0  0  0  0  0  0  0  0  0  0  0
   -3.0633   -3.4925    5.4477 C   0  0  0  0  0  0  0  0  0  0  0  0
   -3.9292   -2.5592    5.8314 C   0  0  0  0  0  0  0  0  0  0  0  0
   -5.1064   -2.2923    5.2131 F   0  0  0  0  0  0  0  0  0  0  0  0
   -3.3451   -1.7333    6.8784 C   0  0  0  0  0  0  0  0  0  0  0  0
   -2.1294   -2.1843    7.1434 C   0  0  0  0  0  0  0  0  0  0  0  0
   -1.8788   -3.3733    6.3199 C   0  0  0  0  0  0  0  0  0  0  0  0
   -0.8126   -4.1842    6.4730 C   0  0  0  0  0  0  0  0  0  0  0  0
   -0.5504   -5.5332    5.9313 C   0  0  0  0  0  0  0  0  0  0  0  0
    0.7293   -5.8215    6.1492 C   0  0  0  0  0  0  0  0  0  0  0  0
    1.3373   -4.7215    6.8874 C   0  0  0  0  0  0  0  0  0  0  0  0
    0.4393   -3.7781    7.1147 C   0  0  0  0  0  0  0  0  0  0  0  0
    2.6210   -4.6833    7.3217 F   0  0  0  0  0  0  0  0  0  0  0  0
   -1.5111   -6.5562    5.4852 C   0  0  0  0  0  0  0  0  0  0  0  0
   -2.6941   -6.7288    6.0723 C   0  0  0  0  0  0  0  0  0  0  0  0
    1.3384    1.3602   -5.5283 H   0  0  0  0  0  0  0  0  0  0  0  0
   -2.4463    1.2806   -7.5762 H   0  0  0  0  0  0  0  0  0  0  0  0
   -0.7700    2.0975   -9.3288 H   0  0  0  0  0  0  0  0  0  0  0  0
    5.1952    2.7989   -8.8297 H   0  0  0  0  0  0  0  0  0  0  0  0
    1.2485    2.3966  -10.4843 H   0  0  0  0  0  0  0  0  0  0  0  0
    4.9336    2.5602   -6.2872 H   0  0  0  0  0  0  0  0  0  0  0  0
    2.1303    3.5066   -5.6497 H   0  0  0  0  0  0  0  0  0  0  0  0
    4.0798    5.9939   -1.8881 H   0  0  0  0  0  0  0  0  0  0  0  0
    6.0873    4.4438   -1.8778 H   0  0  0  0  0  0  0  0  0  0  0  0
    6.1520   -1.2535   -3.3833 H   0  0  0  0  0  0  0  0  0  0  0  0
    7.4285    2.6182   -2.0254 H   0  0  0  0  0  0  0  0  0  0  0  0
    4.8861    0.1669   -5.8977 H   0  0  0  0  0  0  0  0  0  0  0  0
    2.7705   -0.7486   -5.6098 H   0  0  0  0  0  0  0  0  0  0  0  0
    1.5960   -0.3826    1.8641 H   0  0  0  0  0  0  0  0  0  0  0  0
    1.5203    1.2761    2.5793 H   0  0  0  0  0  0  0  0  0  0  0  0
    3.7073    1.8366    1.4637 H   0  0  0  0  0  0  0  0  0  0  0  0
    3.8599    0.4221    2.5757 H   0  0  0  0  0  0  0  0  0  0  0  0
    3.7830    0.1560    0.7909 H   0  0  0  0  0  0  0  0  0  0  0  0
    2.3495    3.4579   -0.4294 H   0  0  0  0  0  0  0  0  0  0  0  0
    0.6999    3.5158   -1.1607 H   0  0  0  0  0  0  0  0  0  0  0  0
    0.8861    5.1335    0.7190 H   0  0  0  0  0  0  0  0  0  0  0  0
    1.3771    3.8085    1.8418 H   0  0  0  0  0  0  0  0  0  0  0  0
   -0.2923    3.8263    1.1324 H   0  0  0  0  0  0  0  0  0  0  0  0
    3.4731    1.0628   -2.1071 H   0  0  0  0  0  0  0  0  0  0  0  0
   -2.1091    1.6761    1.1125 H   0  0  0  0  0  0  0  0  0  0  0  0
   -7.2471    2.1061   -0.3141 H   0  0  0  0  0  0  0  0  0  0  0  0
   -7.6639   -0.4005   -0.6771 H   0  0  0  0  0  0  0  0  0  0  0  0
   -3.6942   -4.8607    0.2503 H   0  0  0  0  0  0  0  0  0  0  0  0
   -7.1819   -2.7895   -1.2269 H   0  0  0  0  0  0  0  0  0  0  0  0
   -2.0813   -2.5310    1.0436 H   0  0  0  0  0  0  0  0  0  0  0  0
   -4.5741   -1.4239    2.4363 H   0  0  0  0  0  0  0  0  0  0  0  0
   -1.4818    1.6496    4.8826 H   0  0  0  0  0  0  0  0  0  0  0  0
    0.3581   -0.1116    4.6832 H   0  0  0  0  0  0  0  0  0  0  0  0
   -0.0283   -5.7337    2.6215 H   0  0  0  0  0  0  0  0  0  0  0  0
    1.6258   -1.9517    3.8501 H   0  0  0  0  0  0  0  0  0  0  0  0
   -2.6918   -5.1783    2.4470 H   0  0  0  0  0  0  0  0  0  0  0  0
   -4.2630   -4.7418    4.1160 H   0  0  0  0  0  0  0  0  0  0  0  0
   -3.8058   -0.8729    7.3443 H   0  0  0  0  0  0  0  0  0  0  0  0
   -1.4699   -1.7591    7.8872 H   0  0  0  0  0  0  0  0  0  0  0  0
    1.2051   -6.7683    5.9263 H   0  0  0  0  0  0  0  0  0  0  0  0
    0.6415   -2.8527    7.6358 H   0  0  0  0  0  0  0  0  0  0  0  0
   -1.2038   -7.2555    4.7191 H   0  0  0  0  0  0  0  0  0  0  0  0
   -3.3504   -7.5222    5.7386 H   0  0  0  0  0  0  0  0  0  0  0  0
   -3.0047   -6.1021    6.8969 H   0  0  0  0  0  0  0  0  0  0  0  0
  1  2  2  0
  2  3  1  0
  2  4  1  0
  4  5  2  0
  5  6  1  0
  6  7  2  0
  7  8  1  0
  8  9  2  0
  9 10  1  0
 10 11  2  0
 10 12  1  0
  8 13  1  0
 13 14  2  3
 14 15  1  0
 15 16  2  0
 16 17  1  0
 16 18  1  0
 18 19  2  0
 19 20  1  0
 20 21  2  0
 21 22  1  0
 22 23  2  0
 23 24  1  0
 24 25  2  0
 24 26  1  0
 22 27  1  0
 27 28  2  3
 28 29  1  0
 29 30  1  0
 30 31  1  0
 31 32  1  0
 32 33  2  0
 33 34  1  0
 34 35  1  0
 35 36  1  0
 34 37  1  0
 37 38  1  0
 34 39  1  0
 39 40  1  0
 33 41  1  0
 41 42  2  0
 42 43  1  0
 42 44  1  0
 44 45  2  0
 45 46  1  0
 45 47  1  0
 47 48  2  0
 48 49  1  0
 49 50  2  0
 50 51  1  0
 51 52  2  0
 52 53  1  0
 53 54  2  0
 53 55  1  0
 51 56  1  0
 56 57  2  3
 57 58  1  0
 58 59  2  0
 59 60  1  0
 59 61  1  0
 61 62  2  0
 62 63  1  0
 63 64  2  0
 64 65  1  0
 65 66  2  0
 66 67  1  0
 67 68  2  0
 67 69  1  0
 65 70  1  0
 70 71  2  3
 71 72  1  0
 72 73  2  0
 73 74  1  0
 73 75  1  0
 75 76  2  0
 76 77  1  0
 77 78  2  0
 78 79  1  0
 79 80  2  0
 80 81  1  0
 81 82  2  0
 81 83  1  0
 79 84  1  0
 84 85  2  3
  6  1  1  0
 11  7  1  0
 20 15  1  0
 25 21  1  0
 40 29  2  0
 49 44  1  0
 54 50  1  0
 63 58  1  0
 68 64  1  0
 77 72  1  0
 82 78  1  0
 39 31  2  0
 43 32  1  0
  1 86  1  0
  4 87  1  0
  5 88  1  0
  9 89  1  0
 11 90  1  0
 13 91  1  0
 14 92  1  0
 18 93  1  0
 19 94  1  0
 23 95  1  0
 25 96  1  0
 27 97  1  0
 28 98  1  0
 35 99  1  0
 35100  1  0
 36101  1  0
 36102  1  0
 36103  1  0
 37104  1  0
 37105  1  0
 38106  1  0
 38107  1  0
 38108  1  0
 40109  1  0
 41110  1  0
 47111  1  0
 48112  1  0
 52113  1  0
 54114  1  0
 56115  1  0
 57116  1  0
 61117  1  0
 62118  1  0
 66119  1  0
 68120  1  0
 70121  1  0
 71122  1  0
 75123  1  0
 76124  1  0
 80125  1  0
 82126  1  0
 84127  1  0
 85128  1  0
 85129  1  0
M  END

