
     RDKit          3D

224249  0  0  0  0  0  0  0  0999 V2000
   -0.8558   -6.5540   13.4055 C   0  0  0  0  0  0  0  0  0  0  0  0
   -1.1485   -5.2086   13.1998 C   0  0  0  0  0  0  0  0  0  0  0  0
   -0.7244   -4.7361   11.9474 C   0  0  0  0  0  0  0  0  0  0  0  0
   -0.8858   -3.4303   11.4480 C   0  0  0  0  0  0  0  0  0  0  0  0
   -1.4891   -2.3490   12.2432 C   0  0  0  0  0  0  0  0  0  0  0  0
   -0.6631   -0.9710   12.7397 S   0  0  0  0  0  0  0  0  0  0  0  0
   -2.0044   -0.1710   13.3619 C   0  0  0  0  0  0  0  0  0  0  0  0
   -1.9799    1.2387   13.8689 C   0  0  0  0  0  0  0  0  0  0  0  0
   -2.2382    2.2237   12.7337 C   0  0  0  0  0  0  0  0  0  0  0  0
   -3.1312   -0.9669   13.1623 C   0  0  0  0  0  0  0  0  0  0  0  0
   -4.7585   -0.4595   13.5841 Cl  0  0  0  0  0  0  0  0  0  0  0  0
   -2.8407   -2.1929   12.5390 C   0  0  0  0  0  0  0  0  0  0  0  0
   -4.0697   -3.3623   12.0794 Cl  0  0  0  0  0  0  0  0  0  0  0  0
   -0.3914   -3.1779   10.1593 C   0  0  0  0  0  0  0  0  0  0  0  0
    0.2671   -4.1479    9.3954 C   0  0  0  0  0  0  0  0  0  0  0  0
    0.4283   -5.4551    9.8939 C   0  0  0  0  0  0  0  0  0  0  0  0
    1.0831   -6.5172    9.1101 C   0  0  0  0  0  0  0  0  0  0  0  0
    2.5204   -7.2757    9.5389 S   0  0  0  0  0  0  0  0  0  0  0  0
    2.5605   -8.3294    8.2279 C   0  0  0  0  0  0  0  0  0  0  0  0
    3.6652   -9.3065    7.9564 C   0  0  0  0  0  0  0  0  0  0  0  0
    4.6941   -8.7118    7.0004 C   0  0  0  0  0  0  0  0  0  0  0  0
    1.4475   -8.0889    7.4249 C   0  0  0  0  0  0  0  0  0  0  0  0
    0.6152   -7.0738    7.9206 C   0  0  0  0  0  0  0  0  0  0  0  0
   -0.8894   -6.5965    7.1479 Cl  0  0  0  0  0  0  0  0  0  0  0  0
    1.1151   -8.9662    5.9392 Cl  0  0  0  0  0  0  0  0  0  0  0  0
   -0.0819   -5.7136   11.1792 C   0  0  0  0  0  0  0  0  0  0  0  0
   -0.0642   -7.1572   12.0443 S   0  0  0  0  0  0  0  0  0  0  0  0
    0.7256   -3.6577    8.1599 C   0  0  0  0  0  0  0  0  0  0  0  0
    0.3773   -2.3238    7.9507 C   0  0  0  0  0  0  0  0  0  0  0  0
   -0.4629   -1.7416    9.2926 S   0  0  0  0  0  0  0  0  0  0  0  0
    0.7323   -1.5003    6.7898 C   0  0  0  0  0  0  0  0  0  0  0  0
    1.8839   -1.6250    6.0160 C   0  0  0  0  0  0  0  0  0  0  0  0
    2.0135   -0.5950    5.0669 C   0  0  0  0  0  0  0  0  0  0  0  0
    3.0945   -0.3993    4.1785 C   0  0  0  0  0  0  0  0  0  0  0  0
    4.2419   -1.3240    4.1366 C   0  0  0  0  0  0  0  0  0  0  0  0
    5.8158   -0.9043    4.5564 S   0  0  0  0  0  0  0  0  0  0  0  0
    6.4698   -2.4430    4.3696 C   0  0  0  0  0  0  0  0  0  0  0  0
    7.8940   -2.8006    4.6730 C   0  0  0  0  0  0  0  0  0  0  0  0
    8.0339   -3.2962    6.1083 C   0  0  0  0  0  0  0  0  0  0  0  0
    5.4517   -3.3174    3.9902 C   0  0  0  0  0  0  0  0  0  0  0  0
    5.6971   -5.0375    3.7307 Cl  0  0  0  0  0  0  0  0  0  0  0  0
    4.2035   -2.6893    3.8524 C   0  0  0  0  0  0  0  0  0  0  0  0
    2.7481   -3.5392    3.3500 Cl  0  0  0  0  0  0  0  0  0  0  0  0
    3.0625    0.7639    3.3870 C   0  0  0  0  0  0  0  0  0  0  0  0
    2.0055    1.6805    3.4434 C   0  0  0  0  0  0  0  0  0  0  0  0
    0.9035    1.4556    4.2877 C   0  0  0  0  0  0  0  0  0  0  0  0
   -0.2841    2.3252    4.2619 C   0  0  0  0  0  0  0  0  0  0  0  0
   -0.8427    3.2550    5.5486 S   0  0  0  0  0  0  0  0  0  0  0  0
   -2.2300    3.8142    4.7727 C   0  0  0  0  0  0  0  0  0  0  0  0
   -3.2763    4.6762    5.4158 C   0  0  0  0  0  0  0  0  0  0  0  0
   -4.1800    3.8489    6.3194 C   0  0  0  0  0  0  0  0  0  0  0  0
   -2.2850    3.2565    3.4979 C   0  0  0  0  0  0  0  0  0  0  0  0
   -1.1905    2.4271    3.2086 C   0  0  0  0  0  0  0  0  0  0  0  0
   -1.0270    1.5390    1.6992 Cl  0  0  0  0  0  0  0  0  0  0  0  0
   -3.6125    3.5230    2.3741 Cl  0  0  0  0  0  0  0  0  0  0  0  0
    0.9552    0.3195    5.1082 C   0  0  0  0  0  0  0  0  0  0  0  0
   -0.1318   -0.1362    6.3040 S   0  0  0  0  0  0  0  0  0  0  0  0
    2.2016    2.8049    2.6337 C   0  0  0  0  0  0  0  0  0  0  0  0
    3.3957    2.7580    1.9209 C   0  0  0  0  0  0  0  0  0  0  0  0
    4.2158    1.3270    2.2871 S   0  0  0  0  0  0  0  0  0  0  0  0
    3.8864    3.8459    1.0686 C   0  0  0  0  0  0  0  0  0  0  0  0
    4.3927    3.6635   -0.5411 S   0  0  0  0  0  0  0  0  0  0  0  0
    4.4186    5.3182   -0.8666 C   0  0  0  0  0  0  0  0  0  0  0  0
    4.2018    6.0359   -2.1220 C   0  0  0  0  0  0  0  0  0  0  0  0
    3.6034    7.2702   -1.9753 C   0  0  0  0  0  0  0  0  0  0  0  0
    3.3398    7.7480   -0.1420 Ge  0  0  0  0  0  4  0  0  0  0  0  0
    4.5163    9.1647    0.4994 C   0  0  0  0  0  0  0  0  0  0  0  0
    5.9501    8.9261    0.0480 C   0  0  0  0  0  0  0  0  0  0  0  0
    1.4615    7.9096    0.3527 C   0  0  0  0  0  0  0  0  0  0  0  0
    1.1452    9.3196    0.8275 C   0  0  0  0  0  0  0  0  0  0  0  0
    3.9990    6.0010    0.2520 C   0  0  0  0  0  0  0  0  0  0  0  0
    3.6830    5.1991    1.3402 C   0  0  0  0  0  0  0  0  0  0  0  0
    2.8782    7.6982   -3.0860 C   0  0  0  0  0  0  0  0  0  0  0  0
    2.9331    6.7831   -4.1414 C   0  0  0  0  0  0  0  0  0  0  0  0
    3.8283    5.4294   -3.6413 S   0  0  0  0  0  0  0  0  0  0  0  0
    1.9502    6.7226   -5.2314 C   0  0  0  0  0  0  0  0  0  0  0  0
    2.0470    5.8794   -6.3399 C   0  0  0  0  0  0  0  0  0  0  0  0
    0.8030    5.6124   -6.9365 C   0  0  0  0  0  0  0  0  0  0  0  0
    0.5631    4.6704   -7.9533 C   0  0  0  0  0  0  0  0  0  0  0  0
    1.6635    4.0080   -8.6690 C   0  0  0  0  0  0  0  0  0  0  0  0
    2.4858    2.6438   -8.1363 S   0  0  0  0  0  0  0  0  0  0  0  0
    3.5059    2.5272   -9.4732 C   0  0  0  0  0  0  0  0  0  0  0  0
    4.5239    1.4458   -9.6795 C   0  0  0  0  0  0  0  0  0  0  0  0
    3.9644    0.3467  -10.5744 C   0  0  0  0  0  0  0  0  0  0  0  0
    3.1933    3.5489  -10.3672 C   0  0  0  0  0  0  0  0  0  0  0  0
    4.0055    3.7742  -11.9088 Cl  0  0  0  0  0  0  0  0  0  0  0  0
    2.1565    4.3786   -9.9156 C   0  0  0  0  0  0  0  0  0  0  0  0
    1.5343    5.7450  -10.8304 Cl  0  0  0  0  0  0  0  0  0  0  0  0
   -0.7716    4.3066   -8.1819 C   0  0  0  0  0  0  0  0  0  0  0  0
   -1.8378    4.8897   -7.4907 C   0  0  0  0  0  0  0  0  0  0  0  0
   -1.6115    5.9414   -6.5788 C   0  0  0  0  0  0  0  0  0  0  0  0
   -2.7208    6.5785   -5.8413 C   0  0  0  0  0  0  0  0  0  0  0  0
   -2.9107    6.5628   -4.1693 S   0  0  0  0  0  0  0  0  0  0  0  0
   -4.3407    7.4468   -4.1404 C   0  0  0  0  0  0  0  0  0  0  0  0
   -5.0287    7.9026   -2.8887 C   0  0  0  0  0  0  0  0  0  0  0  0
   -4.4581    9.2353   -2.4197 C   0  0  0  0  0  0  0  0  0  0  0  0
   -4.6868    7.7786   -5.4486 C   0  0  0  0  0  0  0  0  0  0  0  0
   -3.7846    7.2822   -6.4047 C   0  0  0  0  0  0  0  0  0  0  0  0
   -3.9488    7.5815   -8.1295 Cl  0  0  0  0  0  0  0  0  0  0  0  0
   -6.0989    8.7419   -5.8660 Cl  0  0  0  0  0  0  0  0  0  0  0  0
   -0.2662    6.2527   -6.3013 C   0  0  0  0  0  0  0  0  0  0  0  0
    0.3352    7.1707   -5.0282 S   0  0  0  0  0  0  0  0  0  0  0  0
   -3.0426    4.1816   -7.6349 C   0  0  0  0  0  0  0  0  0  0  0  0
   -2.9081    3.0213   -8.4029 C   0  0  0  0  0  0  0  0  0  0  0  0
   -1.3181    2.9285   -8.9658 S   0  0  0  0  0  0  0  0  0  0  0  0
   -3.7971    1.8482   -8.3086 C   0  0  0  0  0  0  0  0  0  0  0  0
   -3.4185    0.3315   -8.9809 S   0  0  0  0  0  0  0  0  0  0  0  0
   -4.5266   -0.5237   -8.0588 C   0  0  0  0  0  0  0  0  0  0  0  0
   -4.5094   -1.9187   -7.6313 C   0  0  0  0  0  0  0  0  0  0  0  0
   -5.1203   -2.1572   -6.4255 C   0  0  0  0  0  0  0  0  0  0  0  0
   -5.8860   -0.5785   -5.6643 Ge  0  0  0  0  0  4  0  0  0  0  0  0
   -7.8344   -0.6430   -5.6483 C   0  0  0  0  0  0  0  0  0  0  0  0
   -8.4161    0.7131   -5.2760 C   0  0  0  0  0  0  0  0  0  0  0  0
   -5.0494   -0.1935   -3.9413 C   0  0  0  0  0  0  0  0  0  0  0  0
   -4.8868    1.3042   -3.7205 C   0  0  0  0  0  0  0  0  0  0  0  0
   -5.1480    0.3340   -7.1838 C   0  0  0  0  0  0  0  0  0  0  0  0
   -4.7694    1.6678   -7.3143 C   0  0  0  0  0  0  0  0  0  0  0  0
   -4.7252   -3.3364   -5.7983 C   0  0  0  0  0  0  0  0  0  0  0  0
   -3.7878   -4.0395   -6.5613 C   0  0  0  0  0  0  0  0  0  0  0  0
   -3.4249   -3.1525   -7.9650 S   0  0  0  0  0  0  0  0  0  0  0  0
   -3.0393   -5.2186   -6.1032 C   0  0  0  0  0  0  0  0  0  0  0  0
   -2.1115   -5.9311   -6.8630 C   0  0  0  0  0  0  0  0  0  0  0  0
   -1.4515   -6.9248   -6.1253 C   0  0  0  0  0  0  0  0  0  0  0  0
   -0.4284   -7.7670   -6.5976 C   0  0  0  0  0  0  0  0  0  0  0  0
    0.0249   -7.7173   -7.9932 C   0  0  0  0  0  0  0  0  0  0  0  0
   -0.7290   -8.5047   -9.2687 S   0  0  0  0  0  0  0  0  0  0  0  0
    0.2999   -7.9303  -10.4679 C   0  0  0  0  0  0  0  0  0  0  0  0
    0.1486   -8.2195  -11.9296 C   0  0  0  0  0  0  0  0  0  0  0  0
   -0.6943   -7.1455  -12.6066 C   0  0  0  0  0  0  0  0  0  0  0  0
    1.2361   -7.0795   -9.8795 C   0  0  0  0  0  0  0  0  0  0  0  0
    2.4770   -6.2233  -10.7873 Cl  0  0  0  0  0  0  0  0  0  0  0  0
    1.0875   -6.9695   -8.4880 C   0  0  0  0  0  0  0  0  0  0  0  0
    2.1130   -5.9620   -7.4730 Cl  0  0  0  0  0  0  0  0  0  0  0  0
    0.1567   -8.6443   -5.6720 C   0  0  0  0  0  0  0  0  0  0  0  0
   -0.2493   -8.7071   -4.3343 C   0  0  0  0  0  0  0  0  0  0  0  0
   -1.2856   -7.8766   -3.8601 C   0  0  0  0  0  0  0  0  0  0  0  0
   -1.6921   -7.8710   -2.4428 C   0  0  0  0  0  0  0  0  0  0  0  0
   -0.6869   -7.4486   -1.1637 S   0  0  0  0  0  0  0  0  0  0  0  0
   -1.8324   -7.6566    0.0540 C   0  0  0  0  0  0  0  0  0  0  0  0
   -1.5637   -7.5567    1.5303 C   0  0  0  0  0  0  0  0  0  0  0  0
   -0.6327   -6.3955    1.8727 C   0  0  0  0  0  0  0  0  0  0  0  0
   -3.0181   -8.0985   -0.5340 C   0  0  0  0  0  0  0  0  0  0  0  0
   -2.9431   -8.2070   -1.9337 C   0  0  0  0  0  0  0  0  0  0  0  0
   -4.2744   -8.7802   -2.9296 Cl  0  0  0  0  0  0  0  0  0  0  0  0
   -4.4641   -8.5129    0.3827 Cl  0  0  0  0  0  0  0  0  0  0  0  0
   -1.8664   -6.9968   -4.7910 C   0  0  0  0  0  0  0  0  0  0  0  0
   -3.0412   -5.8192   -4.5222 S   0  0  0  0  0  0  0  0  0  0  0  0
    0.4650   -9.6608   -3.5905 C   0  0  0  0  0  0  0  0  0  0  0  0
    1.4293  -10.3313   -4.3404 C   0  0  0  0  0  0  0  0  0  0  0  0
    1.3930   -9.7533   -5.9280 S   0  0  0  0  0  0  0  0  0  0  0  0
   -1.0968   -7.1183   14.2965 H   0  0  0  0  0  0  0  0  0  0  0  0
   -1.6585   -4.6000   13.9368 H   0  0  0  0  0  0  0  0  0  0  0  0
   -2.7451    1.3717   14.6627 H   0  0  0  0  0  0  0  0  0  0  0  0
   -0.9827    1.4506   14.3152 H   0  0  0  0  0  0  0  0  0  0  0  0
   -1.5369    2.0379   11.8922 H   0  0  0  0  0  0  0  0  0  0  0  0
   -2.0809    3.2586   13.0973 H   0  0  0  0  0  0  0  0  0  0  0  0
   -3.2820    2.1226   12.3685 H   0  0  0  0  0  0  0  0  0  0  0  0
    3.2457  -10.2377    7.5193 H   0  0  0  0  0  0  0  0  0  0  0  0
    4.1647   -9.5751    8.9113 H   0  0  0  0  0  0  0  0  0  0  0  0
    4.2146   -8.4471    6.0353 H   0  0  0  0  0  0  0  0  0  0  0  0
    5.1561   -7.8061    7.4490 H   0  0  0  0  0  0  0  0  0  0  0  0
    5.4930   -9.4599    6.8075 H   0  0  0  0  0  0  0  0  0  0  0  0
    1.2793   -4.2472    7.4410 H   0  0  0  0  0  0  0  0  0  0  0  0
    2.6228   -2.4006    6.1764 H   0  0  0  0  0  0  0  0  0  0  0  0
    8.2452   -3.5865    3.9715 H   0  0  0  0  0  0  0  0  0  0  0  0
    8.5344   -1.9036    4.5306 H   0  0  0  0  0  0  0  0  0  0  0  0
    9.0934   -3.5655    6.3065 H   0  0  0  0  0  0  0  0  0  0  0  0
    7.4050   -4.1954    6.2728 H   0  0  0  0  0  0  0  0  0  0  0  0
    7.7289   -2.4993    6.8223 H   0  0  0  0  0  0  0  0  0  0  0  0
   -2.7772    5.4634    6.0226 H   0  0  0  0  0  0  0  0  0  0  0  0
   -3.8891    5.1843    4.6397 H   0  0  0  0  0  0  0  0  0  0  0  0
   -4.6406    3.0131    5.7547 H   0  0  0  0  0  0  0  0  0  0  0  0
   -3.5950    3.4380    7.1693 H   0  0  0  0  0  0  0  0  0  0  0  0
   -4.9874    4.4934    6.7238 H   0  0  0  0  0  0  0  0  0  0  0  0
    1.5079    3.6345    2.5782 H   0  0  0  0  0  0  0  0  0  0  0  0
    4.1634   10.1391    0.0995 H   0  0  0  0  0  0  0  0  0  0  0  0
    4.4745    9.1977    1.6084 H   0  0  0  0  0  0  0  0  0  0  0  0
    6.3121    7.9418    0.4098 H   0  0  0  0  0  0  0  0  0  0  0  0
    6.6072    9.7217    0.4585 H   0  0  0  0  0  0  0  0  0  0  0  0
    6.0071    8.9551   -1.0600 H   0  0  0  0  0  0  0  0  0  0  0  0
    0.8318    7.6573   -0.5257 H   0  0  0  0  0  0  0  0  0  0  0  0
    1.2407    7.1876    1.1676 H   0  0  0  0  0  0  0  0  0  0  0  0
    1.7640    9.5714    1.7152 H   0  0  0  0  0  0  0  0  0  0  0  0
    0.0739    9.3852    1.1130 H   0  0  0  0  0  0  0  0  0  0  0  0
    1.3455   10.0504    0.0171 H   0  0  0  0  0  0  0  0  0  0  0  0
    3.2052    5.5681    2.2389 H   0  0  0  0  0  0  0  0  0  0  0  0
    2.2098    8.5461   -3.0611 H   0  0  0  0  0  0  0  0  0  0  0  0
    2.9647    5.3812   -6.6206 H   0  0  0  0  0  0  0  0  0  0  0  0
    5.4380    1.8746  -10.1424 H   0  0  0  0  0  0  0  0  0  0  0  0
    4.8103    1.0112   -8.6976 H   0  0  0  0  0  0  0  0  0  0  0  0
    3.6985    0.7595  -11.5700 H   0  0  0  0  0  0  0  0  0  0  0  0
    3.0582   -0.1001  -10.1123 H   0  0  0  0  0  0  0  0  0  0  0  0
    4.7262   -0.4489  -10.7143 H   0  0  0  0  0  0  0  0  0  0  0  0
   -6.1204    8.0037   -3.0664 H   0  0  0  0  0  0  0  0  0  0  0  0
   -4.8817    7.1410   -2.0910 H   0  0  0  0  0  0  0  0  0  0  0  0
   -4.6152   10.0172   -3.1906 H   0  0  0  0  0  0  0  0  0  0  0  0
   -3.3699    9.1365   -2.2136 H   0  0  0  0  0  0  0  0  0  0  0  0
   -4.9697    9.5507   -1.4863 H   0  0  0  0  0  0  0  0  0  0  0  0
   -3.9407    4.4250   -7.0801 H   0  0  0  0  0  0  0  0  0  0  0  0
   -8.1642   -1.4090   -4.9153 H   0  0  0  0  0  0  0  0  0  0  0  0
   -8.1889   -0.9354   -6.6607 H   0  0  0  0  0  0  0  0  0  0  0  0
   -8.1025    0.9960   -4.2513 H   0  0  0  0  0  0  0  0  0  0  0  0
   -8.0704    1.4856   -5.9948 H   0  0  0  0  0  0  0  0  0  0  0  0
   -9.5230    0.6640   -5.3062 H   0  0  0  0  0  0  0  0  0  0  0  0
   -4.0496   -0.6781   -3.9050 H   0  0  0  0  0  0  0  0  0  0  0  0
   -5.6821   -0.6212   -3.1342 H   0  0  0  0  0  0  0  0  0  0  0  0
   -4.1432    1.7164   -4.4345 H   0  0  0  0  0  0  0  0  0  0  0  0
   -4.5203    1.4899   -2.6890 H   0  0  0  0  0  0  0  0  0  0  0  0
   -5.8566    1.8281   -3.8544 H   0  0  0  0  0  0  0  0  0  0  0  0
   -5.0607    2.4275   -6.6050 H   0  0  0  0  0  0  0  0  0  0  0  0
   -5.0150   -3.6063   -4.7902 H   0  0  0  0  0  0  0  0  0  0  0  0
   -1.9004   -5.7218   -7.9033 H   0  0  0  0  0  0  0  0  0  0  0  0
   -0.3463   -9.2043  -12.0605 H   0  0  0  0  0  0  0  0  0  0  0  0
    1.1488   -8.2726  -12.4126 H   0  0  0  0  0  0  0  0  0  0  0  0
   -0.1880   -6.1591  -12.5384 H   0  0  0  0  0  0  0  0  0  0  0  0
   -1.6922   -7.0759  -12.1209 H   0  0  0  0  0  0  0  0  0  0  0  0
   -0.8353   -7.3981  -13.6796 H   0  0  0  0  0  0  0  0  0  0  0  0
   -2.5173   -7.4095    2.0848 H   0  0  0  0  0  0  0  0  0  0  0  0
   -1.1086   -8.5103    1.8755 H   0  0  0  0  0  0  0  0  0  0  0  0
   -1.0643   -5.4369    1.5114 H   0  0  0  0  0  0  0  0  0  0  0  0
   -0.5049   -6.3359    2.9748 H   0  0  0  0  0  0  0  0  0  0  0  0
    0.3680   -6.5478    1.4169 H   0  0  0  0  0  0  0  0  0  0  0  0
    0.2941   -9.8725   -2.5434 H   0  0  0  0  0  0  0  0  0  0  0  0
    2.0906  -11.0991   -3.9642 H   0  0  0  0  0  0  0  0  0  0  0  0
  1  2  2  0
  2  3  1  0
  3  4  2  0
  4  5  1  0
  5  6  1  0
  6  7  1  0
  7  8  1  0
  8  9  1  0
  7 10  2  0
 10 11  1  0
 10 12  1  0
 12 13  1  0
  4 14  1  0
 14 15  2  0
 15 16  1  0
 16 17  1  0
 17 18  1  0
 18 19  1  0
 19 20  1  0
 20 21  1  0
 19 22  2  0
 22 23  1  0
 23 24  1  0
 22 25  1  0
 16 26  2  0
 26 27  1  0
 15 28  1  0
 28 29  2  0
 29 30  1  0
 29 31  1  0
 31 32  2  0
 32 33  1  0
 33 34  2  0
 34 35  1  0
 35 36  1  0
 36 37  1  0
 37 38  1  0
 38 39  1  0
 37 40  2  0
 40 41  1  0
 40 42  1  0
 42 43  1  0
 34 44  1  0
 44 45  2  0
 45 46  1  0
 46 47  1  0
 47 48  1  0
 48 49  1  0
 49 50  1  0
 50 51  1  0
 49 52  2  0
 52 53  1  0
 53 54  1  0
 52 55  1  0
 46 56  2  0
 56 57  1  0
 45 58  1  0
 58 59  2  0
 59 60  1  0
 59 61  1  0
 61 62  1  0
 62 63  1  0
 63 64  1  0
 64 65  2  0
 65 66  1  0
 66 67  1  0
 67 68  1  0
 66 69  1  0
 69 70  1  0
 66 71  1  0
 71 72  1  0
 65 73  1  0
 73 74  2  0
 74 75  1  0
 74 76  1  0
 76 77  2  0
 77 78  1  0
 78 79  2  0
 79 80  1  0
 80 81  1  0
 81 82  1  0
 82 83  1  0
 83 84  1  0
 82 85  2  0
 85 86  1  0
 85 87  1  0
 87 88  1  0
 79 89  1  0
 89 90  2  0
 90 91  1  0
 91 92  1  0
 92 93  1  0
 93 94  1  0
 94 95  1  0
 95 96  1  0
 94 97  2  0
 97 98  1  0
 98 99  1  0
 97100  1  0
 91101  2  0
101102  1  0
 90103  1  0
103104  2  0
104105  1  0
104106  1  0
106107  1  0
107108  1  0
108109  1  0
109110  2  0
110111  1  0
111112  1  0
112113  1  0
111114  1  0
114115  1  0
111116  1  0
116117  1  0
110118  1  0
118119  2  0
119120  1  0
119121  1  0
121122  2  0
122123  1  0
123124  2  0
124125  1  0
125126  1  0
126127  1  0
127128  1  0
128129  1  0
127130  2  0
130131  1  0
130132  1  0
132133  1  0
124134  1  0
134135  2  0
135136  1  0
136137  1  0
137138  1  0
138139  1  0
139140  1  0
140141  1  0
139142  2  0
142143  1  0
143144  1  0
142145  1  0
136146  2  0
146147  1  0
135148  1  0
148149  2  0
149150  1  0
 27  1  1  0
 57 31  1  0
 72 61  2  0
102 76  1  0
117106  2  0
147121  1  0
 26  3  1  0
 56 33  1  0
 71 63  2  0
101 78  1  0
116108  2  0
146123  1  0
 12  5  2  0
 30 14  1  0
 42 35  2  0
 60 44  1  0
 75 64  1  0
 87 80  2  0
105 89  1  0
120109  1  0
132125  2  0
150134  1  0
 23 17  2  0
 53 47  2  0
 98 92  2  0
143137  2  0
  1151  1  0
  2152  1  0
  8153  1  0
  8154  1  0
  9155  1  0
  9156  1  0
  9157  1  0
 20158  1  0
 20159  1  0
 21160  1  0
 21161  1  0
 21162  1  0
 28163  1  0
 32164  1  0
 38165  1  0
 38166  1  0
 39167  1  0
 39168  1  0
 39169  1  0
 50170  1  0
 50171  1  0
 51172  1  0
 51173  1  0
 51174  1  0
 58175  1  0
 67176  1  0
 67177  1  0
 68178  1  0
 68179  1  0
 68180  1  0
 69181  1  0
 69182  1  0
 70183  1  0
 70184  1  0
 70185  1  0
 72186  1  0
 73187  1  0
 77188  1  0
 83189  1  0
 83190  1  0
 84191  1  0
 84192  1  0
 84193  1  0
 95194  1  0
 95195  1  0
 96196  1  0
 96197  1  0
 96198  1  0
103199  1  0
112200  1  0
112201  1  0
113202  1  0
113203  1  0
113204  1  0
114205  1  0
114206  1  0
115207  1  0
115208  1  0
115209  1  0
117210  1  0
118211  1  0
122212  1  0
128213  1  0
128214  1  0
129215  1  0
129216  1  0
129217  1  0
140218  1  0
140219  1  0
141220  1  0
141221  1  0
141222  1  0
148223  1  0
149224  1  0
M  END

