
     RDKit          3D

224249  0  0  0  0  0  0  0  0999 V2000
    3.9263   -3.3277   12.1434 C   0  0  0  0  0  0  0  0  0  0  0  0
    3.2397   -2.3013   11.5171 C   0  0  0  0  0  0  0  0  0  0  0  0
    2.2307   -2.7722   10.6134 C   0  0  0  0  0  0  0  0  0  0  0  0
    1.4250   -1.9699    9.8161 C   0  0  0  0  0  0  0  0  0  0  0  0
    1.4827   -0.5065    9.9003 C   0  0  0  0  0  0  0  0  0  0  0  0
    1.4265    0.3682   11.3187 S   0  0  0  0  0  0  0  0  0  0  0  0
    1.5221    1.9113   10.6391 C   0  0  0  0  0  0  0  0  0  0  0  0
    1.5299    3.2016   11.3981 C   0  0  0  0  0  0  0  0  0  0  0  0
    0.2869    3.3380   12.2791 C   0  0  0  0  0  0  0  0  0  0  0  0
    1.6064    1.7344    9.2592 C   0  0  0  0  0  0  0  0  0  0  0  0
    1.6185    3.0706    8.0969 Cl  0  0  0  0  0  0  0  0  0  0  0  0
    1.6002    0.3873    8.8420 C   0  0  0  0  0  0  0  0  0  0  0  0
    1.7619   -0.1501    7.1674 Cl  0  0  0  0  0  0  0  0  0  0  0  0
    0.4523   -2.6155    8.9939 C   0  0  0  0  0  0  0  0  0  0  0  0
    0.3391   -3.9949    8.9866 C   0  0  0  0  0  0  0  0  0  0  0  0
    1.2014   -4.8019    9.7294 C   0  0  0  0  0  0  0  0  0  0  0  0
    1.2239   -6.2579    9.6184 C   0  0  0  0  0  0  0  0  0  0  0  0
   -0.0974   -7.2716    9.8328 S   0  0  0  0  0  0  0  0  0  0  0  0
    0.7190   -8.7266    9.6671 C   0  0  0  0  0  0  0  0  0  0  0  0
    0.1127  -10.0835    9.8936 C   0  0  0  0  0  0  0  0  0  0  0  0
   -0.0155  -10.8604    8.5893 C   0  0  0  0  0  0  0  0  0  0  0  0
    2.0446   -8.4514    9.3853 C   0  0  0  0  0  0  0  0  0  0  0  0
    2.3367   -7.0608    9.3362 C   0  0  0  0  0  0  0  0  0  0  0  0
    3.9466   -6.4230    8.9637 Cl  0  0  0  0  0  0  0  0  0  0  0  0
    3.2884   -9.6610    9.1885 Cl  0  0  0  0  0  0  0  0  0  0  0  0
    2.1417   -4.1452   10.5617 C   0  0  0  0  0  0  0  0  0  0  0  0
    3.2839   -4.7901   11.6159 S   0  0  0  0  0  0  0  0  0  0  0  0
   -0.6918   -4.4791    8.1360 C   0  0  0  0  0  0  0  0  0  0  0  0
   -1.3300   -3.4540    7.4479 C   0  0  0  0  0  0  0  0  0  0  0  0
   -0.6359   -1.9716    7.8859 S   0  0  0  0  0  0  0  0  0  0  0  0
   -2.3311   -3.6894    6.3900 C   0  0  0  0  0  0  0  0  0  0  0  0
   -2.0528   -3.6101    4.7051 S   0  0  0  0  0  0  0  0  0  0  0  0
   -3.5942   -4.1291    4.2896 C   0  0  0  0  0  0  0  0  0  0  0  0
   -4.2704   -4.5317    3.0259 C   0  0  0  0  0  0  0  0  0  0  0  0
   -5.5684   -4.9418    3.1695 C   0  0  0  0  0  0  0  0  0  0  0  0
   -6.1572   -4.6809    4.9662 Ge  0  0  0  0  0  4  0  0  0  0  0  0
   -7.1904   -6.0689    5.8614 C   0  0  0  0  0  0  0  0  0  0  0  0
   -8.0998   -5.4652    6.9298 C   0  0  0  0  0  0  0  0  0  0  0  0
   -7.0600   -2.9633    4.9429 C   0  0  0  0  0  0  0  0  0  0  0  0
   -6.7975   -2.1904    6.2371 C   0  0  0  0  0  0  0  0  0  0  0  0
   -4.3397   -4.3237    5.4110 C   0  0  0  0  0  0  0  0  0  0  0  0
   -3.6427   -4.1317    6.6180 C   0  0  0  0  0  0  0  0  0  0  0  0
   -6.2131   -5.2535    1.9737 C   0  0  0  0  0  0  0  0  0  0  0  0
   -5.3861   -5.0776    0.8602 C   0  0  0  0  0  0  0  0  0  0  0  0
   -3.8647   -4.5144    1.4045 S   0  0  0  0  0  0  0  0  0  0  0  0
   -5.8762   -4.9862   -0.5133 C   0  0  0  0  0  0  0  0  0  0  0  0
   -6.9722   -4.2487   -0.8894 C   0  0  0  0  0  0  0  0  0  0  0  0
   -7.0508   -3.9906   -2.2732 C   0  0  0  0  0  0  0  0  0  0  0  0
   -7.8771   -3.0319   -2.8858 C   0  0  0  0  0  0  0  0  0  0  0  0
   -9.2082   -2.6288   -2.3548 C   0  0  0  0  0  0  0  0  0  0  0  0
  -10.0294   -1.2051   -2.7523 S   0  0  0  0  0  0  0  0  0  0  0  0
  -11.4817   -1.5069   -1.9544 C   0  0  0  0  0  0  0  0  0  0  0  0
  -12.7163   -0.6635   -2.0400 C   0  0  0  0  0  0  0  0  0  0  0  0
  -13.5978   -1.1744   -3.1641 C   0  0  0  0  0  0  0  0  0  0  0  0
  -11.3833   -2.7618   -1.3914 C   0  0  0  0  0  0  0  0  0  0  0  0
  -12.7158   -3.5421   -0.5437 Cl  0  0  0  0  0  0  0  0  0  0  0  0
  -10.1409   -3.3967   -1.6183 C   0  0  0  0  0  0  0  0  0  0  0  0
   -9.9056   -5.1047   -1.1802 Cl  0  0  0  0  0  0  0  0  0  0  0  0
   -7.4306   -2.4923   -4.1229 C   0  0  0  0  0  0  0  0  0  0  0  0
   -6.4001   -3.1086   -4.8763 C   0  0  0  0  0  0  0  0  0  0  0  0
   -5.7058   -4.1957   -4.3395 C   0  0  0  0  0  0  0  0  0  0  0  0
   -4.5352   -4.8178   -5.0009 C   0  0  0  0  0  0  0  0  0  0  0  0
   -4.2880   -6.4756   -5.2059 S   0  0  0  0  0  0  0  0  0  0  0  0
   -2.7304   -6.3762   -5.8370 C   0  0  0  0  0  0  0  0  0  0  0  0
   -1.8481   -7.5486   -6.1724 C   0  0  0  0  0  0  0  0  0  0  0  0
   -0.7627   -7.7165   -5.1072 C   0  0  0  0  0  0  0  0  0  0  0  0
   -2.3624   -5.0475   -5.8490 C   0  0  0  0  0  0  0  0  0  0  0  0
   -3.3630   -4.1653   -5.3765 C   0  0  0  0  0  0  0  0  0  0  0  0
   -3.0686   -2.4212   -5.1927 Cl  0  0  0  0  0  0  0  0  0  0  0  0
   -0.8027   -4.4828   -6.3776 Cl  0  0  0  0  0  0  0  0  0  0  0  0
   -5.9804   -4.5669   -2.9916 C   0  0  0  0  0  0  0  0  0  0  0  0
   -4.9834   -5.3399   -1.8978 S   0  0  0  0  0  0  0  0  0  0  0  0
   -6.0789   -2.3703   -6.0301 C   0  0  0  0  0  0  0  0  0  0  0  0
   -6.6511   -1.1288   -6.0739 C   0  0  0  0  0  0  0  0  0  0  0  0
   -7.6982   -0.9802   -4.7646 S   0  0  0  0  0  0  0  0  0  0  0  0
   -6.1869   -0.0036   -6.9043 C   0  0  0  0  0  0  0  0  0  0  0  0
   -5.9632    1.5608   -6.3276 S   0  0  0  0  0  0  0  0  0  0  0  0
   -5.1848    2.1829   -7.6678 C   0  0  0  0  0  0  0  0  0  0  0  0
   -4.2332    3.2997   -7.8603 C   0  0  0  0  0  0  0  0  0  0  0  0
   -3.3892    3.1615   -8.9303 C   0  0  0  0  0  0  0  0  0  0  0  0
   -3.9145    1.6757   -9.9924 Ge  0  0  0  0  0  4  0  0  0  0  0  0
   -2.5258    0.3678  -10.3826 C   0  0  0  0  0  0  0  0  0  0  0  0
   -1.3367    0.5285   -9.4460 C   0  0  0  0  0  0  0  0  0  0  0  0
   -4.9868    2.1850  -11.5491 C   0  0  0  0  0  0  0  0  0  0  0  0
   -4.1010    2.3896  -12.7681 C   0  0  0  0  0  0  0  0  0  0  0  0
   -5.0631    1.1651   -8.5613 C   0  0  0  0  0  0  0  0  0  0  0  0
   -5.5892   -0.0808   -8.1835 C   0  0  0  0  0  0  0  0  0  0  0  0
   -2.1352    3.7846   -8.7629 C   0  0  0  0  0  0  0  0  0  0  0  0
   -1.9955    4.4472   -7.5459 C   0  0  0  0  0  0  0  0  0  0  0  0
   -3.4571    4.2421   -6.6905 S   0  0  0  0  0  0  0  0  0  0  0  0
   -0.6768    4.5596   -6.8472 C   0  0  0  0  0  0  0  0  0  0  0  0
   -0.1872    3.4629   -6.1528 C   0  0  0  0  0  0  0  0  0  0  0  0
    0.7746    3.8033   -5.2222 C   0  0  0  0  0  0  0  0  0  0  0  0
    1.2208    2.9655   -4.2131 C   0  0  0  0  0  0  0  0  0  0  0  0
    0.1920    2.5922   -3.2115 C   0  0  0  0  0  0  0  0  0  0  0  0
   -1.4005    2.1197   -3.5653 S   0  0  0  0  0  0  0  0  0  0  0  0
   -1.9915    2.0263   -1.9968 C   0  0  0  0  0  0  0  0  0  0  0  0
   -3.2608    1.3849   -1.5294 C   0  0  0  0  0  0  0  0  0  0  0  0
   -4.4946    2.0438   -2.1171 C   0  0  0  0  0  0  0  0  0  0  0  0
   -0.9532    2.4128   -1.1529 C   0  0  0  0  0  0  0  0  0  0  0  0
   -1.0952    2.5364    0.5909 Cl  0  0  0  0  0  0  0  0  0  0  0  0
    0.2616    2.7380   -1.8169 C   0  0  0  0  0  0  0  0  0  0  0  0
    1.6176    3.3614   -0.8683 Cl  0  0  0  0  0  0  0  0  0  0  0  0
    2.5293    3.2558   -3.7732 C   0  0  0  0  0  0  0  0  0  0  0  0
    3.0339    4.5386   -3.8162 C   0  0  0  0  0  0  0  0  0  0  0  0
    2.3543    5.5150   -4.5681 C   0  0  0  0  0  0  0  0  0  0  0  0
    3.1341    6.4768   -5.3158 C   0  0  0  0  0  0  0  0  0  0  0  0
    4.0772    7.7196   -4.7010 S   0  0  0  0  0  0  0  0  0  0  0  0
    4.9661    7.9883   -6.1171 C   0  0  0  0  0  0  0  0  0  0  0  0
    5.9827    9.0818   -6.3187 C   0  0  0  0  0  0  0  0  0  0  0  0
    5.3083   10.3457   -6.8438 C   0  0  0  0  0  0  0  0  0  0  0  0
    4.5622    7.0737   -7.0692 C   0  0  0  0  0  0  0  0  0  0  0  0
    3.5101    6.2363   -6.6363 C   0  0  0  0  0  0  0  0  0  0  0  0
    2.9020    4.8875   -7.5764 Cl  0  0  0  0  0  0  0  0  0  0  0  0
    5.2093    6.9828   -8.7023 Cl  0  0  0  0  0  0  0  0  0  0  0  0
    1.1217    5.1375   -5.1934 C   0  0  0  0  0  0  0  0  0  0  0  0
    0.1482    5.9527   -6.3076 S   0  0  0  0  0  0  0  0  0  0  0  0
    4.3446    4.6306   -3.2327 C   0  0  0  0  0  0  0  0  0  0  0  0
    4.7759    3.3987   -2.6883 C   0  0  0  0  0  0  0  0  0  0  0  0
    3.5806    2.2376   -2.9991 S   0  0  0  0  0  0  0  0  0  0  0  0
    5.9803    3.0723   -1.9050 C   0  0  0  0  0  0  0  0  0  0  0  0
    7.2425    3.6846   -1.8934 C   0  0  0  0  0  0  0  0  0  0  0  0
    8.2175    2.9241   -1.1602 C   0  0  0  0  0  0  0  0  0  0  0  0
    9.5940    3.2001   -1.0987 C   0  0  0  0  0  0  0  0  0  0  0  0
   10.2428    4.3292   -1.7696 C   0  0  0  0  0  0  0  0  0  0  0  0
   11.5622    4.1551   -2.8023 S   0  0  0  0  0  0  0  0  0  0  0  0
   11.9088    5.7890   -2.9788 C   0  0  0  0  0  0  0  0  0  0  0  0
   12.9664    6.3734   -3.8774 C   0  0  0  0  0  0  0  0  0  0  0  0
   12.3180    6.7588   -5.1856 C   0  0  0  0  0  0  0  0  0  0  0  0
   10.9623    6.5018   -2.2539 C   0  0  0  0  0  0  0  0  0  0  0  0
   10.9193    8.2541   -2.1851 Cl  0  0  0  0  0  0  0  0  0  0  0  0
   10.0274    5.6917   -1.5661 C   0  0  0  0  0  0  0  0  0  0  0  0
    8.8010    6.3233   -0.4886 Cl  0  0  0  0  0  0  0  0  0  0  0  0
   10.4012    2.2749   -0.4054 C   0  0  0  0  0  0  0  0  0  0  0  0
    9.9027    1.1127    0.1563 C   0  0  0  0  0  0  0  0  0  0  0  0
    8.5158    0.8381    0.1642 C   0  0  0  0  0  0  0  0  0  0  0  0
    7.9724   -0.1359    1.1495 C   0  0  0  0  0  0  0  0  0  0  0  0
    8.7573   -0.5061    2.5914 S   0  0  0  0  0  0  0  0  0  0  0  0
    7.6732   -1.5644    3.2659 C   0  0  0  0  0  0  0  0  0  0  0  0
    7.8093   -2.2998    4.5558 C   0  0  0  0  0  0  0  0  0  0  0  0
    7.1942   -1.5105    5.6878 C   0  0  0  0  0  0  0  0  0  0  0  0
    6.6060   -1.6471    2.3878 C   0  0  0  0  0  0  0  0  0  0  0  0
    6.7768   -0.8845    1.1908 C   0  0  0  0  0  0  0  0  0  0  0  0
    5.6109   -1.0597   -0.0987 Cl  0  0  0  0  0  0  0  0  0  0  0  0
    5.1348   -2.5949    2.6965 Cl  0  0  0  0  0  0  0  0  0  0  0  0
    7.7045    1.7789   -0.5602 C   0  0  0  0  0  0  0  0  0  0  0  0
    6.1120    1.6829   -0.9911 S   0  0  0  0  0  0  0  0  0  0  0  0
   10.9174    0.2924    0.7089 C   0  0  0  0  0  0  0  0  0  0  0  0
   12.1752    0.8673    0.6751 C   0  0  0  0  0  0  0  0  0  0  0  0
   12.0521    2.3653   -0.1097 S   0  0  0  0  0  0  0  0  0  0  0  0
    4.7439   -3.1405   12.8537 H   0  0  0  0  0  0  0  0  0  0  0  0
    3.4318   -1.2572   11.7042 H   0  0  0  0  0  0  0  0  0  0  0  0
    2.4344    3.2408   12.0341 H   0  0  0  0  0  0  0  0  0  0  0  0
    1.5639    4.0725   10.7021 H   0  0  0  0  0  0  0  0  0  0  0  0
    0.1965    4.3847   12.6232 H   0  0  0  0  0  0  0  0  0  0  0  0
   -0.6398    3.1116   11.7048 H   0  0  0  0  0  0  0  0  0  0  0  0
    0.3563    2.6721   13.1644 H   0  0  0  0  0  0  0  0  0  0  0  0
   -0.8855   -9.9604   10.3485 H   0  0  0  0  0  0  0  0  0  0  0  0
    0.7583  -10.6520   10.5998 H   0  0  0  0  0  0  0  0  0  0  0  0
   -0.6493  -11.7664    8.7570 H   0  0  0  0  0  0  0  0  0  0  0  0
   -0.5069  -10.2461    7.8001 H   0  0  0  0  0  0  0  0  0  0  0  0
    0.9802  -11.2073    8.2309 H   0  0  0  0  0  0  0  0  0  0  0  0
   -0.9716   -5.5146    8.0409 H   0  0  0  0  0  0  0  0  0  0  0  0
   -6.4985   -6.8085    6.3091 H   0  0  0  0  0  0  0  0  0  0  0  0
   -7.8201   -6.5733    5.1032 H   0  0  0  0  0  0  0  0  0  0  0  0
   -8.7740   -6.2556    7.3256 H   0  0  0  0  0  0  0  0  0  0  0  0
   -7.4834   -5.0410    7.7560 H   0  0  0  0  0  0  0  0  0  0  0  0
   -8.7359   -4.6546    6.4970 H   0  0  0  0  0  0  0  0  0  0  0  0
   -8.1510   -3.0983    4.7942 H   0  0  0  0  0  0  0  0  0  0  0  0
   -6.6759   -2.3634    4.0950 H   0  0  0  0  0  0  0  0  0  0  0  0
   -5.9984   -1.4287    6.0815 H   0  0  0  0  0  0  0  0  0  0  0  0
   -7.7291   -1.6691    6.5599 H   0  0  0  0  0  0  0  0  0  0  0  0
   -6.4861   -2.8692    7.0523 H   0  0  0  0  0  0  0  0  0  0  0  0
   -4.0315   -4.4032    7.5763 H   0  0  0  0  0  0  0  0  0  0  0  0
   -7.2447   -5.5596    1.8963 H   0  0  0  0  0  0  0  0  0  0  0  0
   -7.6449   -3.7892   -0.1618 H   0  0  0  0  0  0  0  0  0  0  0  0
  -13.2667   -0.7370   -1.0916 H   0  0  0  0  0  0  0  0  0  0  0  0
  -12.4396    0.3904   -2.2121 H   0  0  0  0  0  0  0  0  0  0  0  0
  -14.4786   -0.5149   -3.2933 H   0  0  0  0  0  0  0  0  0  0  0  0
  -13.0317   -1.1879   -4.1221 H   0  0  0  0  0  0  0  0  0  0  0  0
  -13.9449   -2.2158   -2.9417 H   0  0  0  0  0  0  0  0  0  0  0  0
   -1.3971   -7.3598   -7.1498 H   0  0  0  0  0  0  0  0  0  0  0  0
   -2.4757   -8.4590   -6.2218 H   0  0  0  0  0  0  0  0  0  0  0  0
   -1.2254   -7.9078   -4.1105 H   0  0  0  0  0  0  0  0  0  0  0  0
   -0.1218   -8.5776   -5.3838 H   0  0  0  0  0  0  0  0  0  0  0  0
   -0.1384   -6.7990   -5.0464 H   0  0  0  0  0  0  0  0  0  0  0  0
   -5.3259   -2.7159   -6.7304 H   0  0  0  0  0  0  0  0  0  0  0  0
   -2.9539   -0.6586  -10.2843 H   0  0  0  0  0  0  0  0  0  0  0  0
   -2.1784    0.4973  -11.4441 H   0  0  0  0  0  0  0  0  0  0  0  0
   -0.8012   -0.4432   -9.3905 H   0  0  0  0  0  0  0  0  0  0  0  0
   -0.6236    1.2878   -9.8598 H   0  0  0  0  0  0  0  0  0  0  0  0
   -1.6754    0.8238   -8.4284 H   0  0  0  0  0  0  0  0  0  0  0  0
   -5.5301    3.1201  -11.3237 H   0  0  0  0  0  0  0  0  0  0  0  0
   -5.7206    1.3892  -11.7631 H   0  0  0  0  0  0  0  0  0  0  0  0
   -3.5357    1.4531  -12.9790 H   0  0  0  0  0  0  0  0  0  0  0  0
   -3.3846    3.2232  -12.5883 H   0  0  0  0  0  0  0  0  0  0  0  0
   -4.7348    2.6181  -13.6518 H   0  0  0  0  0  0  0  0  0  0  0  0
   -5.4806   -1.0002   -8.7356 H   0  0  0  0  0  0  0  0  0  0  0  0
   -1.3131    3.5998   -9.4165 H   0  0  0  0  0  0  0  0  0  0  0  0
   -0.5403    2.4402   -6.2389 H   0  0  0  0  0  0  0  0  0  0  0  0
   -3.2200    0.3125   -1.8041 H   0  0  0  0  0  0  0  0  0  0  0  0
   -3.3486    1.4534   -0.4148 H   0  0  0  0  0  0  0  0  0  0  0  0
   -4.5691    1.8476   -3.2164 H   0  0  0  0  0  0  0  0  0  0  0  0
   -4.4360    3.1551   -1.9664 H   0  0  0  0  0  0  0  0  0  0  0  0
   -5.3908    1.6375   -1.5670 H   0  0  0  0  0  0  0  0  0  0  0  0
    6.4883    9.2994   -5.3458 H   0  0  0  0  0  0  0  0  0  0  0  0
    6.7600    8.7750   -7.0520 H   0  0  0  0  0  0  0  0  0  0  0  0
    4.6798   10.0862   -7.7147 H   0  0  0  0  0  0  0  0  0  0  0  0
    4.6777   10.8031   -6.0491 H   0  0  0  0  0  0  0  0  0  0  0  0
    6.0703   11.1003   -7.1454 H   0  0  0  0  0  0  0  0  0  0  0  0
    4.8943    5.5638   -3.2004 H   0  0  0  0  0  0  0  0  0  0  0  0
    7.4573    4.5828   -2.4423 H   0  0  0  0  0  0  0  0  0  0  0  0
   13.7753    5.6198   -4.0548 H   0  0  0  0  0  0  0  0  0  0  0  0
   13.3983    7.2889   -3.3838 H   0  0  0  0  0  0  0  0  0  0  0  0
   11.5316    7.5527   -5.0361 H   0  0  0  0  0  0  0  0  0  0  0  0
   11.8540    5.8853   -5.6836 H   0  0  0  0  0  0  0  0  0  0  0  0
   13.0709    7.1955   -5.8771 H   0  0  0  0  0  0  0  0  0  0  0  0
    7.3246   -3.2999    4.4650 H   0  0  0  0  0  0  0  0  0  0  0  0
    8.8803   -2.4663    4.7559 H   0  0  0  0  0  0  0  0  0  0  0  0
    6.1023   -1.3864    5.5278 H   0  0  0  0  0  0  0  0  0  0  0  0
    7.6727   -0.5164    5.7667 H   0  0  0  0  0  0  0  0  0  0  0  0
    7.3327   -2.0665    6.6387 H   0  0  0  0  0  0  0  0  0  0  0  0
   10.7573   -0.7066    1.1085 H   0  0  0  0  0  0  0  0  0  0  0  0
   13.0710    0.4315    1.0943 H   0  0  0  0  0  0  0  0  0  0  0  0
  1  2  2  0
  2  3  1  0
  3  4  2  0
  4  5  1  0
  5  6  1  0
  6  7  1  0
  7  8  1  0
  8  9  1  0
  7 10  2  0
 10 11  1  0
 10 12  1  0
 12 13  1  0
  4 14  1  0
 14 15  2  0
 15 16  1  0
 16 17  1  0
 17 18  1  0
 18 19  1  0
 19 20  1  0
 20 21  1  0
 19 22  2  0
 22 23  1  0
 23 24  1  0
 22 25  1  0
 16 26  2  0
 26 27  1  0
 15 28  1  0
 28 29  2  0
 29 30  1  0
 29 31  1  0
 31 32  1  0
 32 33  1  0
 33 34  1  0
 34 35  2  0
 35 36  1  0
 36 37  1  0
 37 38  1  0
 36 39  1  0
 39 40  1  0
 36 41  1  0
 41 42  1  0
 35 43  1  0
 43 44  2  0
 44 45  1  0
 44 46  1  0
 46 47  2  0
 47 48  1  0
 48 49  2  0
 49 50  1  0
 50 51  1  0
 51 52  1  0
 52 53  1  0
 53 54  1  0
 52 55  2  0
 55 56  1  0
 55 57  1  0
 57 58  1  0
 49 59  1  0
 59 60  2  0
 60 61  1  0
 61 62  1  0
 62 63  1  0
 63 64  1  0
 64 65  1  0
 65 66  1  0
 64 67  2  0
 67 68  1  0
 68 69  1  0
 67 70  1  0
 61 71  2  0
 71 72  1  0
 60 73  1  0
 73 74  2  0
 74 75  1  0
 74 76  1  0
 76 77  1  0
 77 78  1  0
 78 79  1  0
 79 80  2  0
 80 81  1  0
 81 82  1  0
 82 83  1  0
 81 84  1  0
 84 85  1  0
 81 86  1  0
 86 87  1  0
 80 88  1  0
 88 89  2  0
 89 90  1  0
 89 91  1  0
 91 92  2  0
 92 93  1  0
 93 94  2  0
 94 95  1  0
 95 96  1  0
 96 97  1  0
 97 98  1  0
 98 99  1  0
 97100  2  0
100101  1  0
100102  1  0
102103  1  0
 94104  1  0
104105  2  0
105106  1  0
106107  1  0
107108  1  0
108109  1  0
109110  1  0
110111  1  0
109112  2  0
112113  1  0
113114  1  0
112115  1  0
106116  2  0
116117  1  0
105118  1  0
118119  2  0
119120  1  0
119121  1  0
121122  2  0
122123  1  0
123124  2  0
124125  1  0
125126  1  0
126127  1  0
127128  1  0
128129  1  0
127130  2  0
130131  1  0
130132  1  0
132133  1  0
124134  1  0
134135  2  0
135136  1  0
136137  1  0
137138  1  0
138139  1  0
139140  1  0
140141  1  0
139142  2  0
142143  1  0
143144  1  0
142145  1  0
136146  2  0
146147  1  0
135148  1  0
148149  2  0
149150  1  0
 27  1  1  0
 42 31  2  0
 72 46  1  0
 87 76  2  0
117 91  1  0
147121  1  0
 26  3  1  0
 41 33  2  0
 71 48  1  0
 86 78  2  0
116 93  1  0
146123  1  0
 12  5  2  0
 30 14  1  0
 45 34  1  0
 57 50  2  0
 75 59  1  0
 90 79  1  0
102 95  2  0
120104  1  0
132125  2  0
150134  1  0
 23 17  2  0
 68 62  2  0
113107  2  0
143137  2  0
  1151  1  0
  2152  1  0
  8153  1  0
  8154  1  0
  9155  1  0
  9156  1  0
  9157  1  0
 20158  1  0
 20159  1  0
 21160  1  0
 21161  1  0
 21162  1  0
 28163  1  0
 37164  1  0
 37165  1  0
 38166  1  0
 38167  1  0
 38168  1  0
 39169  1  0
 39170  1  0
 40171  1  0
 40172  1  0
 40173  1  0
 42174  1  0
 43175  1  0
 47176  1  0
 53177  1  0
 53178  1  0
 54179  1  0
 54180  1  0
 54181  1  0
 65182  1  0
 65183  1  0
 66184  1  0
 66185  1  0
 66186  1  0
 73187  1  0
 82188  1  0
 82189  1  0
 83190  1  0
 83191  1  0
 83192  1  0
 84193  1  0
 84194  1  0
 85195  1  0
 85196  1  0
 85197  1  0
 87198  1  0
 88199  1  0
 92200  1  0
 98201  1  0
 98202  1  0
 99203  1  0
 99204  1  0
 99205  1  0
110206  1  0
110207  1  0
111208  1  0
111209  1  0
111210  1  0
118211  1  0
122212  1  0
128213  1  0
128214  1  0
129215  1  0
129216  1  0
129217  1  0
140218  1  0
140219  1  0
141220  1  0
141221  1  0
141222  1  0
148223  1  0
149224  1  0
M  END

