
     RDKit          3D

194215  0  0  0  0  0  0  0  0999 V2000
   13.7055   -9.0338    9.3515 C   0  0  0  0  0  0  0  0  0  0  0  0
   13.1139   -8.4212    8.2525 C   0  0  0  0  0  0  0  0  0  0  0  0
   11.7078   -8.4639    8.2793 C   0  0  0  0  0  0  0  0  0  0  0  0
   10.7930   -7.8821    7.3628 C   0  0  0  0  0  0  0  0  0  0  0  0
   11.3047   -7.0752    6.2392 C   0  0  0  0  0  0  0  0  0  0  0  0
   12.3457   -7.5944    5.0362 S   0  0  0  0  0  0  0  0  0  0  0  0
   12.4829   -6.1022    4.2543 C   0  0  0  0  0  0  0  0  0  0  0  0
   13.2848   -5.7953    3.0394 C   0  0  0  0  0  0  0  0  0  0  0  0
   12.4417   -5.9019    1.7385 C   0  0  0  0  0  0  0  0  0  0  0  0
   11.6227   -5.1807    4.8851 C   0  0  0  0  0  0  0  0  0  0  0  0
   11.4998   -3.4916    4.4823 Cl  0  0  0  0  0  0  0  0  0  0  0  0
   10.9598   -5.7334    5.9914 C   0  0  0  0  0  0  0  0  0  0  0  0
   10.0752   -4.7404    7.1113 Cl  0  0  0  0  0  0  0  0  0  0  0  0
    9.4308   -7.9345    7.6501 C   0  0  0  0  0  0  0  0  0  0  0  0
    8.9048   -8.5224    8.8420 C   0  0  0  0  0  0  0  0  0  0  0  0
    9.8381   -9.0853    9.7558 C   0  0  0  0  0  0  0  0  0  0  0  0
    9.4853   -9.4634   11.1193 C   0  0  0  0  0  0  0  0  0  0  0  0
    9.9319  -10.9179   11.8309 S   0  0  0  0  0  0  0  0  0  0  0  0
   10.0307  -10.3482   13.4018 C   0  0  0  0  0  0  0  0  0  0  0  0
   10.0642  -11.2241   14.6133 C   0  0  0  0  0  0  0  0  0  0  0  0
    8.6324  -11.5740   15.0493 C   0  0  0  0  0  0  0  0  0  0  0  0
    9.6866   -8.9894   13.3884 C   0  0  0  0  0  0  0  0  0  0  0  0
    9.2803   -8.4997   12.1382 C   0  0  0  0  0  0  0  0  0  0  0  0
    9.0228   -6.7882   11.7957 Cl  0  0  0  0  0  0  0  0  0  0  0  0
    9.8160   -7.9775   14.8199 Cl  0  0  0  0  0  0  0  0  0  0  0  0
   11.1705   -9.0854    9.4139 C   0  0  0  0  0  0  0  0  0  0  0  0
   12.4992   -9.5967   10.3664 S   0  0  0  0  0  0  0  0  0  0  0  0
    7.5028   -8.3857    8.9616 C   0  0  0  0  0  0  0  0  0  0  0  0
    6.9140   -7.7628    7.8162 C   0  0  0  0  0  0  0  0  0  0  0  0
    8.1460   -7.3581    6.7697 S   0  0  0  0  0  0  0  0  0  0  0  0
    5.4690   -7.6394    7.4567 C   0  0  0  0  0  0  0  0  0  0  0  0
    4.7972   -6.5225    6.3733 S   0  0  0  0  0  0  0  0  0  0  0  0
    3.3139   -7.2754    6.1982 C   0  0  0  0  0  0  0  0  0  0  0  0
    2.1854   -7.1666    5.2288 C   0  0  0  0  0  0  0  0  0  0  0  0
    1.3273   -8.2604    5.1917 C   0  0  0  0  0  0  0  0  0  0  0  0
    1.9584   -9.6437    6.3790 Ge  0  0  0  0  0  4  0  0  0  0  0  0
    0.8532  -10.0291    7.9422 C   0  0  0  0  0  0  0  0  0  0  0  0
    1.6503  -10.7247    9.0411 C   0  0  0  0  0  0  0  0  0  0  0  0
    2.8139  -11.1191    5.4184 C   0  0  0  0  0  0  0  0  0  0  0  0
    3.0565  -10.7176    3.9737 C   0  0  0  0  0  0  0  0  0  0  0  0
    3.2954   -8.4201    6.9885 C   0  0  0  0  0  0  0  0  0  0  0  0
    4.5038   -8.6652    7.7066 C   0  0  0  0  0  0  0  0  0  0  0  0
    0.4814   -8.2819    4.0609 C   0  0  0  0  0  0  0  0  0  0  0  0
    0.6978   -7.1606    3.1998 C   0  0  0  0  0  0  0  0  0  0  0  0
    1.8913   -6.1739    3.9191 S   0  0  0  0  0  0  0  0  0  0  0  0
    0.0382   -6.8322    1.8674 C   0  0  0  0  0  0  0  0  0  0  0  0
    0.3309   -5.3904    0.9897 S   0  0  0  0  0  0  0  0  0  0  0  0
   -0.5591   -5.7715   -0.3425 C   0  0  0  0  0  0  0  0  0  0  0  0
   -0.9451   -5.0347   -1.5858 C   0  0  0  0  0  0  0  0  0  0  0  0
   -1.8594   -5.6937   -2.4023 C   0  0  0  0  0  0  0  0  0  0  0  0
   -2.3496   -7.3672   -1.6372 Ge  0  0  0  0  0  4  0  0  0  0  0  0
   -4.2358   -7.4201   -1.0753 C   0  0  0  0  0  0  0  0  0  0  0  0
   -4.7804   -6.0137   -0.8895 C   0  0  0  0  0  0  0  0  0  0  0  0
   -1.7995   -8.8903   -2.7218 C   0  0  0  0  0  0  0  0  0  0  0  0
   -2.6219   -8.9486   -3.9946 C   0  0  0  0  0  0  0  0  0  0  0  0
   -1.1947   -6.9841   -0.1403 C   0  0  0  0  0  0  0  0  0  0  0  0
   -0.8862   -7.6178    1.0896 C   0  0  0  0  0  0  0  0  0  0  0  0
   -2.2634   -4.9432   -3.5360 C   0  0  0  0  0  0  0  0  0  0  0  0
   -1.6320   -3.6531   -3.5602 C   0  0  0  0  0  0  0  0  0  0  0  0
   -0.6333   -3.5293   -2.2149 S   0  0  0  0  0  0  0  0  0  0  0  0
   -1.8035   -2.5305   -4.5662 C   0  0  0  0  0  0  0  0  0  0  0  0
   -1.1859   -0.9658   -4.3454 S   0  0  0  0  0  0  0  0  0  0  0  0
   -1.7856   -0.3099   -5.7734 C   0  0  0  0  0  0  0  0  0  0  0  0
   -1.8833    1.0517   -6.3214 C   0  0  0  0  0  0  0  0  0  0  0  0
   -2.6849    1.1452   -7.4539 C   0  0  0  0  0  0  0  0  0  0  0  0
   -3.2349   -0.5764   -8.0647 Ge  0  0  0  0  0  4  0  0  0  0  0  0
   -2.2478   -1.1553   -9.6251 C   0  0  0  0  0  0  0  0  0  0  0  0
   -0.7849   -0.9203   -9.4448 C   0  0  0  0  0  0  0  0  0  0  0  0
   -5.1803   -0.7416   -8.2770 C   0  0  0  0  0  0  0  0  0  0  0  0
   -5.5469   -2.1690   -8.6701 C   0  0  0  0  0  0  0  0  0  0  0  0
   -2.5144   -1.3077   -6.4339 C   0  0  0  0  0  0  0  0  0  0  0  0
   -2.5630   -2.5734   -5.7739 C   0  0  0  0  0  0  0  0  0  0  0  0
   -2.9876    2.4880   -7.8040 C   0  0  0  0  0  0  0  0  0  0  0  0
   -2.3859    3.4361   -6.9320 C   0  0  0  0  0  0  0  0  0  0  0  0
   -1.5342    2.5614   -5.7251 S   0  0  0  0  0  0  0  0  0  0  0  0
   -2.7236    4.8546   -6.8585 C   0  0  0  0  0  0  0  0  0  0  0  0
   -4.0489    5.3390   -6.8908 C   0  0  0  0  0  0  0  0  0  0  0  0
   -4.1587    6.6978   -6.5272 C   0  0  0  0  0  0  0  0  0  0  0  0
   -5.3949    7.4430   -6.3597 C   0  0  0  0  0  0  0  0  0  0  0  0
   -6.6793    6.8718   -6.7911 C   0  0  0  0  0  0  0  0  0  0  0  0
   -8.0681    6.9436   -5.8480 S   0  0  0  0  0  0  0  0  0  0  0  0
   -9.1487    6.4552   -7.0531 C   0  0  0  0  0  0  0  0  0  0  0  0
  -10.6207    6.3165   -6.9063 C   0  0  0  0  0  0  0  0  0  0  0  0
  -10.9195    4.8459   -6.4802 C   0  0  0  0  0  0  0  0  0  0  0  0
   -8.3852    6.1692   -8.2174 C   0  0  0  0  0  0  0  0  0  0  0  0
   -9.0903    5.8530   -9.7715 Cl  0  0  0  0  0  0  0  0  0  0  0  0
   -7.0068    6.4165   -8.0518 C   0  0  0  0  0  0  0  0  0  0  0  0
   -5.8497    6.3112   -9.3739 Cl  0  0  0  0  0  0  0  0  0  0  0  0
   -5.2846    8.7256   -5.8286 C   0  0  0  0  0  0  0  0  0  0  0  0
   -4.0581    9.3410   -5.5157 C   0  0  0  0  0  0  0  0  0  0  0  0
   -2.8116    8.6312   -5.7626 C   0  0  0  0  0  0  0  0  0  0  0  0
   -1.4763    9.2748   -5.5810 C   0  0  0  0  0  0  0  0  0  0  0  0
   -0.1513    8.5079   -4.9234 S   0  0  0  0  0  0  0  0  0  0  0  0
    0.9710    9.7025   -5.2841 C   0  0  0  0  0  0  0  0  0  0  0  0
    2.4007    9.6880   -4.9038 C   0  0  0  0  0  0  0  0  0  0  0  0
    3.2971    9.3785   -6.1134 C   0  0  0  0  0  0  0  0  0  0  0  0
    0.3000   10.7397   -5.9666 C   0  0  0  0  0  0  0  0  0  0  0  0
   -1.0830   10.4769   -6.1535 C   0  0  0  0  0  0  0  0  0  0  0  0
   -2.1141   11.5649   -7.1180 Cl  0  0  0  0  0  0  0  0  0  0  0  0
    1.0826   12.1776   -6.5826 Cl  0  0  0  0  0  0  0  0  0  0  0  0
   -2.9159    7.3065   -6.1939 C   0  0  0  0  0  0  0  0  0  0  0  0
   -1.6978    6.1075   -6.3729 S   0  0  0  0  0  0  0  0  0  0  0  0
   -4.2214   10.6153   -4.9327 C   0  0  0  0  0  0  0  0  0  0  0  0
   -5.5506   11.0145   -4.7927 C   0  0  0  0  0  0  0  0  0  0  0  0
   -6.5098    9.7821   -5.3974 S   0  0  0  0  0  0  0  0  0  0  0  0
   -6.0716   12.1997   -4.1156 C   0  0  0  0  0  0  0  0  0  0  0  0
   -5.1798   13.5812   -3.5274 S   0  0  0  0  0  0  0  0  0  0  0  0
   -6.5159   14.3316   -2.8032 C   0  0  0  0  0  0  0  0  0  0  0  0
   -6.7464   15.5335   -1.9642 C   0  0  0  0  0  0  0  0  0  0  0  0
   -8.0247   15.6419   -1.4695 C   0  0  0  0  0  0  0  0  0  0  0  0
   -9.1133   14.1725   -1.9879 Ge  0  0  0  0  0  4  0  0  0  0  0  0
   -9.4280   13.0536   -0.4461 C   0  0  0  0  0  0  0  0  0  0  0  0
   -8.1590   12.2919   -0.0998 C   0  0  0  0  0  0  0  0  0  0  0  0
  -10.6998   14.6795   -3.0052 C   0  0  0  0  0  0  0  0  0  0  0  0
  -11.9068   13.9557   -2.4348 C   0  0  0  0  0  0  0  0  0  0  0  0
   -7.6402   13.5290   -2.9861 C   0  0  0  0  0  0  0  0  0  0  0  0
   -7.4051   12.3491   -3.7313 C   0  0  0  0  0  0  0  0  0  0  0  0
   -8.2450   16.7423   -0.6436 C   0  0  0  0  0  0  0  0  0  0  0  0
   -7.0811   17.5312   -0.4965 C   0  0  0  0  0  0  0  0  0  0  0  0
   -5.8290   16.7860   -1.3683 S   0  0  0  0  0  0  0  0  0  0  0  0
   14.7646   -9.1084    9.4784 H   0  0  0  0  0  0  0  0  0  0  0  0
   13.6690   -7.9491    7.4506 H   0  0  0  0  0  0  0  0  0  0  0  0
   14.1487   -6.5182    2.9517 H   0  0  0  0  0  0  0  0  0  0  0  0
   13.6802   -4.7701    3.1219 H   0  0  0  0  0  0  0  0  0  0  0  0
   11.5391   -5.2360    1.8034 H   0  0  0  0  0  0  0  0  0  0  0  0
   13.0742   -5.5914    0.8873 H   0  0  0  0  0  0  0  0  0  0  0  0
   12.1527   -6.9577    1.5855 H   0  0  0  0  0  0  0  0  0  0  0  0
   10.6403  -12.1544   14.3744 H   0  0  0  0  0  0  0  0  0  0  0  0
   10.5646  -10.7040   15.4709 H   0  0  0  0  0  0  0  0  0  0  0  0
    8.1327  -10.6167   15.3050 H   0  0  0  0  0  0  0  0  0  0  0  0
    8.5979  -12.2062   15.9321 H   0  0  0  0  0  0  0  0  0  0  0  0
    8.1198  -12.0842   14.1837 H   0  0  0  0  0  0  0  0  0  0  0  0
    6.9658   -8.7429    9.8092 H   0  0  0  0  0  0  0  0  0  0  0  0
    0.0325  -10.6940    7.6307 H   0  0  0  0  0  0  0  0  0  0  0  0
    0.3402   -9.0844    8.2965 H   0  0  0  0  0  0  0  0  0  0  0  0
    0.9478  -11.1163    9.8321 H   0  0  0  0  0  0  0  0  0  0  0  0
    2.3283   -9.9866    9.4923 H   0  0  0  0  0  0  0  0  0  0  0  0
    2.2641  -11.5499    8.6026 H   0  0  0  0  0  0  0  0  0  0  0  0
    3.7911  -11.4082    5.9001 H   0  0  0  0  0  0  0  0  0  0  0  0
    2.1042  -11.9722    5.4536 H   0  0  0  0  0  0  0  0  0  0  0  0
    3.8278   -9.8995    3.9239 H   0  0  0  0  0  0  0  0  0  0  0  0
    3.4905  -11.6268    3.4558 H   0  0  0  0  0  0  0  0  0  0  0  0
    2.0701  -10.3835    3.5093 H   0  0  0  0  0  0  0  0  0  0  0  0
    4.7092   -9.5867    8.2085 H   0  0  0  0  0  0  0  0  0  0  0  0
   -0.0772   -9.1499    3.7719 H   0  0  0  0  0  0  0  0  0  0  0  0
   -4.8485   -7.9796   -1.8547 H   0  0  0  0  0  0  0  0  0  0  0  0
   -4.2826   -7.9697   -0.0916 H   0  0  0  0  0  0  0  0  0  0  0  0
   -4.0840   -5.4063   -0.2928 H   0  0  0  0  0  0  0  0  0  0  0  0
   -4.9249   -5.5447   -1.8861 H   0  0  0  0  0  0  0  0  0  0  0  0
   -5.7420   -6.0790   -0.3920 H   0  0  0  0  0  0  0  0  0  0  0  0
   -0.7201   -8.7858   -2.9627 H   0  0  0  0  0  0  0  0  0  0  0  0
   -1.9503   -9.8391   -2.1345 H   0  0  0  0  0  0  0  0  0  0  0  0
   -3.6931   -8.8621   -3.7763 H   0  0  0  0  0  0  0  0  0  0  0  0
   -2.4491   -9.9222   -4.5012 H   0  0  0  0  0  0  0  0  0  0  0  0
   -2.3131   -8.1196   -4.6784 H   0  0  0  0  0  0  0  0  0  0  0  0
   -1.2815   -8.5563    1.4107 H   0  0  0  0  0  0  0  0  0  0  0  0
   -2.9702   -5.2762   -4.2622 H   0  0  0  0  0  0  0  0  0  0  0  0
   -2.6144   -0.6212  -10.5213 H   0  0  0  0  0  0  0  0  0  0  0  0
   -2.4126   -2.2434   -9.7716 H   0  0  0  0  0  0  0  0  0  0  0  0
   -0.4635   -1.2401   -8.4145 H   0  0  0  0  0  0  0  0  0  0  0  0
   -0.5050    0.1637   -9.5654 H   0  0  0  0  0  0  0  0  0  0  0  0
   -0.1980   -1.5170  -10.1780 H   0  0  0  0  0  0  0  0  0  0  0  0
   -5.5117   -0.0010   -9.0558 H   0  0  0  0  0  0  0  0  0  0  0  0
   -5.6628   -0.5083   -7.2916 H   0  0  0  0  0  0  0  0  0  0  0  0
   -6.5763   -2.1888   -9.0308 H   0  0  0  0  0  0  0  0  0  0  0  0
   -5.4818   -2.7966   -7.7602 H   0  0  0  0  0  0  0  0  0  0  0  0
   -4.8503   -2.5719   -9.4214 H   0  0  0  0  0  0  0  0  0  0  0  0
   -3.0838   -3.4189   -6.1606 H   0  0  0  0  0  0  0  0  0  0  0  0
   -3.6440    2.7484   -8.6045 H   0  0  0  0  0  0  0  0  0  0  0  0
   -4.8897    4.7211   -7.1323 H   0  0  0  0  0  0  0  0  0  0  0  0
  -10.9728    6.9941   -6.0919 H   0  0  0  0  0  0  0  0  0  0  0  0
  -11.1166    6.4936   -7.8836 H   0  0  0  0  0  0  0  0  0  0  0  0
  -10.5375    4.1483   -7.2212 H   0  0  0  0  0  0  0  0  0  0  0  0
  -12.0212    4.7253   -6.3868 H   0  0  0  0  0  0  0  0  0  0  0  0
  -10.4659    4.6229   -5.4908 H   0  0  0  0  0  0  0  0  0  0  0  0
    2.6690   10.7116   -4.5513 H   0  0  0  0  0  0  0  0  0  0  0  0
    2.5953    8.9489   -4.1295 H   0  0  0  0  0  0  0  0  0  0  0  0
    4.3506    9.5770   -5.8697 H   0  0  0  0  0  0  0  0  0  0  0  0
    3.0074   10.0349   -6.9829 H   0  0  0  0  0  0  0  0  0  0  0  0
    3.2358    8.3215   -6.4308 H   0  0  0  0  0  0  0  0  0  0  0  0
   -3.3887   11.2113   -4.5765 H   0  0  0  0  0  0  0  0  0  0  0  0
  -10.2721   12.3522   -0.6457 H   0  0  0  0  0  0  0  0  0  0  0  0
   -9.7016   13.7062    0.4248 H   0  0  0  0  0  0  0  0  0  0  0  0
   -7.3032   12.9926   -0.0703 H   0  0  0  0  0  0  0  0  0  0  0  0
   -8.2473   11.8334    0.9221 H   0  0  0  0  0  0  0  0  0  0  0  0
   -7.9879   11.4808   -0.8393 H   0  0  0  0  0  0  0  0  0  0  0  0
  -10.8560   15.7824   -2.9130 H   0  0  0  0  0  0  0  0  0  0  0  0
  -10.5507   14.4187   -4.0708 H   0  0  0  0  0  0  0  0  0  0  0  0
  -11.8180   12.8668   -2.6807 H   0  0  0  0  0  0  0  0  0  0  0  0
  -12.8315   14.3657   -2.8928 H   0  0  0  0  0  0  0  0  0  0  0  0
  -11.9485   14.1104   -1.3561 H   0  0  0  0  0  0  0  0  0  0  0  0
   -8.1758   11.6733   -3.9627 H   0  0  0  0  0  0  0  0  0  0  0  0
   -9.1635   16.9888   -0.1686 H   0  0  0  0  0  0  0  0  0  0  0  0
   -7.0228   18.4434    0.1182 H   0  0  0  0  0  0  0  0  0  0  0  0
  1  2  2  0
  2  3  1  0
  3  4  2  0
  4  5  1  0
  5  6  1  0
  6  7  1  0
  7  8  1  0
  8  9  1  0
  7 10  2  0
 10 11  1  0
 10 12  1  0
 12 13  1  0
  4 14  1  0
 14 15  2  0
 15 16  1  0
 16 17  1  0
 17 18  1  0
 18 19  1  0
 19 20  1  0
 20 21  1  0
 19 22  2  0
 22 23  1  0
 23 24  1  0
 22 25  1  0
 16 26  2  0
 26 27  1  0
 15 28  1  0
 28 29  2  0
 29 30  1  0
 29 31  1  0
 31 32  1  0
 32 33  1  0
 33 34  1  0
 34 35  2  0
 35 36  1  0
 36 37  1  0
 37 38  1  0
 36 39  1  0
 39 40  1  0
 36 41  1  0
 41 42  1  0
 35 43  1  0
 43 44  2  0
 44 45  1  0
 44 46  1  0
 46 47  1  0
 47 48  1  0
 48 49  1  0
 49 50  2  0
 50 51  1  0
 51 52  1  0
 52 53  1  0
 51 54  1  0
 54 55  1  0
 51 56  1  0
 56 57  1  0
 50 58  1  0
 58 59  2  0
 59 60  1  0
 59 61  1  0
 61 62  1  0
 62 63  1  0
 63 64  1  0
 64 65  2  0
 65 66  1  0
 66 67  1  0
 67 68  1  0
 66 69  1  0
 69 70  1  0
 66 71  1  0
 71 72  1  0
 65 73  1  0
 73 74  2  0
 74 75  1  0
 74 76  1  0
 76 77  2  0
 77 78  1  0
 78 79  2  0
 79 80  1  0
 80 81  1  0
 81 82  1  0
 82 83  1  0
 83 84  1  0
 82 85  2  0
 85 86  1  0
 85 87  1  0
 87 88  1  0
 79 89  1  0
 89 90  2  0
 90 91  1  0
 91 92  1  0
 92 93  1  0
 93 94  1  0
 94 95  1  0
 95 96  1  0
 94 97  2  0
 97 98  1  0
 98 99  1  0
 97100  1  0
 91101  2  0
101102  1  0
 90103  1  0
103104  2  0
104105  1  0
104106  1  0
106107  1  0
107108  1  0
108109  1  0
109110  2  0
110111  1  0
111112  1  0
112113  1  0
111114  1  0
114115  1  0
111116  1  0
116117  1  0
110118  1  0
118119  2  0
119120  1  0
 27  1  1  0
 42 31  2  0
 57 46  2  0
 72 61  2  0
102 76  1  0
117106  2  0
 26  3  1  0
 41 33  2  0
 56 48  2  0
 71 63  2  0
101 78  1  0
116108  2  0
 12  5  2  0
 30 14  1  0
 45 34  1  0
 60 49  1  0
 75 64  1  0
 87 80  2  0
105 89  1  0
120109  1  0
 23 17  2  0
 98 92  2  0
  1121  1  0
  2122  1  0
  8123  1  0
  8124  1  0
  9125  1  0
  9126  1  0
  9127  1  0
 20128  1  0
 20129  1  0
 21130  1  0
 21131  1  0
 21132  1  0
 28133  1  0
 37134  1  0
 37135  1  0
 38136  1  0
 38137  1  0
 38138  1  0
 39139  1  0
 39140  1  0
 40141  1  0
 40142  1  0
 40143  1  0
 42144  1  0
 43145  1  0
 52146  1  0
 52147  1  0
 53148  1  0
 53149  1  0
 53150  1  0
 54151  1  0
 54152  1  0
 55153  1  0
 55154  1  0
 55155  1  0
 57156  1  0
 58157  1  0
 67158  1  0
 67159  1  0
 68160  1  0
 68161  1  0
 68162  1  0
 69163  1  0
 69164  1  0
 70165  1  0
 70166  1  0
 70167  1  0
 72168  1  0
 73169  1  0
 77170  1  0
 83171  1  0
 83172  1  0
 84173  1  0
 84174  1  0
 84175  1  0
 95176  1  0
 95177  1  0
 96178  1  0
 96179  1  0
 96180  1  0
103181  1  0
112182  1  0
112183  1  0
113184  1  0
113185  1  0
113186  1  0
114187  1  0
114188  1  0
115189  1  0
115190  1  0
115191  1  0
117192  1  0
118193  1  0
119194  1  0
M  END

