
     RDKit          3D

239266  0  0  0  0  0  0  0  0999 V2000
    3.9321    2.9724  -10.2125 C   0  0  0  0  0  0  0  0  0  0  0  0
    4.8154    1.9336   -9.9341 C   0  0  0  0  0  0  0  0  0  0  0  0
    4.8690    1.6028   -8.5705 C   0  0  0  0  0  0  0  0  0  0  0  0
    5.6340    0.5787   -7.9854 C   0  0  0  0  0  0  0  0  0  0  0  0
    6.1184   -0.5377   -8.8005 C   0  0  0  0  0  0  0  0  0  0  0  0
    7.6270   -0.6672   -9.5209 S   0  0  0  0  0  0  0  0  0  0  0  0
    7.3781   -2.1995  -10.1962 C   0  0  0  0  0  0  0  0  0  0  0  0
    8.4136   -2.9332  -11.0019 C   0  0  0  0  0  0  0  0  0  0  0  0
    7.8951   -3.3784  -12.3689 C   0  0  0  0  0  0  0  0  0  0  0  0
    6.1120   -2.6490   -9.8086 C   0  0  0  0  0  0  0  0  0  0  0  0
    5.4198   -4.1989  -10.2526 Cl  0  0  0  0  0  0  0  0  0  0  0  0
    5.4086   -1.7142   -9.0264 C   0  0  0  0  0  0  0  0  0  0  0  0
    3.7626   -1.9594   -8.4708 Cl  0  0  0  0  0  0  0  0  0  0  0  0
    5.6201    0.4949   -6.5876 C   0  0  0  0  0  0  0  0  0  0  0  0
    4.7655    1.2713   -5.7929 C   0  0  0  0  0  0  0  0  0  0  0  0
    3.8958    2.1971   -6.3961 C   0  0  0  0  0  0  0  0  0  0  0  0
    2.7621    2.7905   -5.6715 C   0  0  0  0  0  0  0  0  0  0  0  0
    2.8497    3.9662   -4.4717 S   0  0  0  0  0  0  0  0  0  0  0  0
    1.1849    4.0855   -4.2311 C   0  0  0  0  0  0  0  0  0  0  0  0
    0.5206    5.0857   -3.3389 C   0  0  0  0  0  0  0  0  0  0  0  0
    0.0248    6.2730   -4.1575 C   0  0  0  0  0  0  0  0  0  0  0  0
    0.5389    3.2143   -5.1059 C   0  0  0  0  0  0  0  0  0  0  0  0
    1.4215    2.4865   -5.9106 C   0  0  0  0  0  0  0  0  0  0  0  0
    0.8958    1.2886   -7.0815 Cl  0  0  0  0  0  0  0  0  0  0  0  0
   -1.2040    3.0319   -5.2012 Cl  0  0  0  0  0  0  0  0  0  0  0  0
    4.0302    2.3863   -7.7831 C   0  0  0  0  0  0  0  0  0  0  0  0
    3.2091    3.4723   -8.7668 S   0  0  0  0  0  0  0  0  0  0  0  0
    4.8617    0.9767   -4.4264 C   0  0  0  0  0  0  0  0  0  0  0  0
    5.8455    0.0232   -4.1503 C   0  0  0  0  0  0  0  0  0  0  0  0
    6.5225   -0.5143   -5.5965 S   0  0  0  0  0  0  0  0  0  0  0  0
    6.3078   -0.3593   -2.8093 C   0  0  0  0  0  0  0  0  0  0  0  0
    5.4189   -0.1686   -1.3588 S   0  0  0  0  0  0  0  0  0  0  0  0
    6.6652   -0.7076   -0.3831 C   0  0  0  0  0  0  0  0  0  0  0  0
    6.7634   -1.0809    1.0229 C   0  0  0  0  0  0  0  0  0  0  0  0
    7.9188   -1.7437    1.3524 C   0  0  0  0  0  0  0  0  0  0  0  0
    9.1650   -1.8122   -0.1095 Ge  0  0  0  0  0  4  0  0  0  0  0  0
    9.6320   -3.6059   -0.7119 C   0  0  0  0  0  0  0  0  0  0  0  0
   10.9107   -4.0900   -0.0363 C   0  0  0  0  0  0  0  0  0  0  0  0
   10.6458   -0.5583    0.1329 C   0  0  0  0  0  0  0  0  0  0  0  0
   10.4581    0.6739   -0.7436 C   0  0  0  0  0  0  0  0  0  0  0  0
    7.7511   -1.0570   -1.1438 C   0  0  0  0  0  0  0  0  0  0  0  0
    7.5739   -0.8763   -2.5155 C   0  0  0  0  0  0  0  0  0  0  0  0
    7.8414   -2.4935    2.5323 C   0  0  0  0  0  0  0  0  0  0  0  0
    6.5867   -2.3600    3.1455 C   0  0  0  0  0  0  0  0  0  0  0  0
    5.5896   -1.4095    2.1569 S   0  0  0  0  0  0  0  0  0  0  0  0
    6.0202   -3.3301    4.0847 C   0  0  0  0  0  0  0  0  0  0  0  0
    5.6512   -4.5959    3.6373 C   0  0  0  0  0  0  0  0  0  0  0  0
    4.5394   -5.1250    4.3094 C   0  0  0  0  0  0  0  0  0  0  0  0
    3.7497   -6.1798    3.8217 C   0  0  0  0  0  0  0  0  0  0  0  0
    4.0231   -6.7421    2.4988 C   0  0  0  0  0  0  0  0  0  0  0  0
    4.8738   -8.1574    2.2046 S   0  0  0  0  0  0  0  0  0  0  0  0
    4.8932   -7.9957    0.5209 C   0  0  0  0  0  0  0  0  0  0  0  0
    5.5997   -8.9157   -0.4279 C   0  0  0  0  0  0  0  0  0  0  0  0
    5.4522  -10.3822   -0.0044 C   0  0  0  0  0  0  0  0  0  0  0  0
    4.2518   -6.8021    0.1813 C   0  0  0  0  0  0  0  0  0  0  0  0
    4.1745   -6.1664   -1.4563 Cl  0  0  0  0  0  0  0  0  0  0  0  0
    3.7574   -6.1063    1.2922 C   0  0  0  0  0  0  0  0  0  0  0  0
    3.0240   -4.5119    1.1927 Cl  0  0  0  0  0  0  0  0  0  0  0  0
    2.5112   -6.3988    4.4479 C   0  0  0  0  0  0  0  0  0  0  0  0
    2.0736   -5.6321    5.5341 C   0  0  0  0  0  0  0  0  0  0  0  0
    2.8739   -4.5695    6.0287 C   0  0  0  0  0  0  0  0  0  0  0  0
    2.4019   -3.6535    7.0948 C   0  0  0  0  0  0  0  0  0  0  0  0
    3.2177   -3.3867    8.5432 S   0  0  0  0  0  0  0  0  0  0  0  0
    2.1378   -2.2417    9.1558 C   0  0  0  0  0  0  0  0  0  0  0  0
    2.3039   -1.4976   10.4475 C   0  0  0  0  0  0  0  0  0  0  0  0
    2.9831   -0.1511   10.2185 C   0  0  0  0  0  0  0  0  0  0  0  0
    1.1304   -2.0419    8.2151 C   0  0  0  0  0  0  0  0  0  0  0  0
    1.2839   -2.8168    7.0507 C   0  0  0  0  0  0  0  0  0  0  0  0
    0.2544   -2.6356    5.6409 Cl  0  0  0  0  0  0  0  0  0  0  0  0
   -0.1867   -0.9011    8.4491 Cl  0  0  0  0  0  0  0  0  0  0  0  0
    4.0880   -4.3295    5.3657 C   0  0  0  0  0  0  0  0  0  0  0  0
    5.0069   -2.9113    5.3711 S   0  0  0  0  0  0  0  0  0  0  0  0
    0.7433   -5.9168    5.8991 C   0  0  0  0  0  0  0  0  0  0  0  0
    0.1216   -6.8348    5.0476 C   0  0  0  0  0  0  0  0  0  0  0  0
    1.2391   -7.3501    3.8875 S   0  0  0  0  0  0  0  0  0  0  0  0
   -1.3434   -6.9425    4.8981 C   0  0  0  0  0  0  0  0  0  0  0  0
   -1.9961   -7.2055    3.6894 C   0  0  0  0  0  0  0  0  0  0  0  0
   -3.3139   -6.7093    3.6412 C   0  0  0  0  0  0  0  0  0  0  0  0
   -4.1123   -6.5341    2.4865 C   0  0  0  0  0  0  0  0  0  0  0  0
   -3.7001   -7.0153    1.1505 C   0  0  0  0  0  0  0  0  0  0  0  0
   -2.2150   -6.7373    0.4084 S   0  0  0  0  0  0  0  0  0  0  0  0
   -2.5203   -7.6260   -0.9834 C   0  0  0  0  0  0  0  0  0  0  0  0
   -1.5068   -7.9155   -2.0489 C   0  0  0  0  0  0  0  0  0  0  0  0
   -1.8536   -7.2285   -3.3653 C   0  0  0  0  0  0  0  0  0  0  0  0
   -3.8241   -8.1248   -0.9070 C   0  0  0  0  0  0  0  0  0  0  0  0
   -4.5461   -9.1605   -2.1350 Cl  0  0  0  0  0  0  0  0  0  0  0  0
   -4.4913   -7.7737    0.2791 C   0  0  0  0  0  0  0  0  0  0  0  0
   -6.1335   -8.3076    0.6486 Cl  0  0  0  0  0  0  0  0  0  0  0  0
   -5.2861   -5.7646    2.6391 C   0  0  0  0  0  0  0  0  0  0  0  0
   -5.7096   -5.2725    3.8771 C   0  0  0  0  0  0  0  0  0  0  0  0
   -4.9277   -5.4699    5.0275 C   0  0  0  0  0  0  0  0  0  0  0  0
   -5.1498   -4.6440    6.2235 C   0  0  0  0  0  0  0  0  0  0  0  0
   -6.0400   -5.0901    7.5613 S   0  0  0  0  0  0  0  0  0  0  0  0
   -5.6636   -3.7301    8.4782 C   0  0  0  0  0  0  0  0  0  0  0  0
   -6.2715   -3.4233    9.8177 C   0  0  0  0  0  0  0  0  0  0  0  0
   -5.9425   -4.5020   10.8445 C   0  0  0  0  0  0  0  0  0  0  0  0
   -4.8185   -2.9059    7.7431 C   0  0  0  0  0  0  0  0  0  0  0  0
   -4.5047   -3.4392    6.4842 C   0  0  0  0  0  0  0  0  0  0  0  0
   -3.4274   -2.6499    5.3381 Cl  0  0  0  0  0  0  0  0  0  0  0  0
   -4.1342   -1.3945    8.3355 Cl  0  0  0  0  0  0  0  0  0  0  0  0
   -3.7252   -6.1652    4.8654 C   0  0  0  0  0  0  0  0  0  0  0  0
   -2.4403   -6.2029    5.9405 S   0  0  0  0  0  0  0  0  0  0  0  0
   -6.7327   -4.3178    3.7888 C   0  0  0  0  0  0  0  0  0  0  0  0
   -6.9733   -3.8705    2.4894 C   0  0  0  0  0  0  0  0  0  0  0  0
   -6.0781   -4.8590    1.4470 S   0  0  0  0  0  0  0  0  0  0  0  0
   -7.0822   -2.4254    2.2431 C   0  0  0  0  0  0  0  0  0  0  0  0
   -6.3905   -1.4979    3.0238 C   0  0  0  0  0  0  0  0  0  0  0  0
   -6.2341   -0.2575    2.4105 C   0  0  0  0  0  0  0  0  0  0  0  0
   -5.4071    0.7851    2.8734 C   0  0  0  0  0  0  0  0  0  0  0  0
   -4.6559    0.7029    4.1348 C   0  0  0  0  0  0  0  0  0  0  0  0
   -5.2422    1.2785    5.5993 S   0  0  0  0  0  0  0  0  0  0  0  0
   -3.7568    1.3962    6.3760 C   0  0  0  0  0  0  0  0  0  0  0  0
   -3.5545    2.0578    7.7034 C   0  0  0  0  0  0  0  0  0  0  0  0
   -3.4796    3.5761    7.5489 C   0  0  0  0  0  0  0  0  0  0  0  0
   -2.7601    1.0302    5.4717 C   0  0  0  0  0  0  0  0  0  0  0  0
   -1.0468    1.1480    5.8158 Cl  0  0  0  0  0  0  0  0  0  0  0  0
   -3.2654    0.6407    4.2232 C   0  0  0  0  0  0  0  0  0  0  0  0
   -2.2398    0.2190    2.8644 Cl  0  0  0  0  0  0  0  0  0  0  0  0
   -5.2641    1.8998    2.0449 C   0  0  0  0  0  0  0  0  0  0  0  0
   -5.9055    2.0201    0.8123 C   0  0  0  0  0  0  0  0  0  0  0  0
   -6.7568    0.9897    0.3649 C   0  0  0  0  0  0  0  0  0  0  0  0
   -7.5054    1.1091   -0.8898 C   0  0  0  0  0  0  0  0  0  0  0  0
   -6.8559    0.9930   -2.4300 S   0  0  0  0  0  0  0  0  0  0  0  0
   -8.3237    1.1548   -3.2422 C   0  0  0  0  0  0  0  0  0  0  0  0
   -8.4696    1.1972   -4.7323 C   0  0  0  0  0  0  0  0  0  0  0  0
   -8.3650    2.6313   -5.2379 C   0  0  0  0  0  0  0  0  0  0  0  0
   -9.3473    1.3005   -2.3102 C   0  0  0  0  0  0  0  0  0  0  0  0
   -8.8860    1.2666   -0.9840 C   0  0  0  0  0  0  0  0  0  0  0  0
   -9.9333    1.4233    0.4124 Cl  0  0  0  0  0  0  0  0  0  0  0  0
  -11.0289    1.5533   -2.7452 Cl  0  0  0  0  0  0  0  0  0  0  0  0
   -6.8713   -0.1609    1.1725 C   0  0  0  0  0  0  0  0  0  0  0  0
   -7.5555   -1.6638    0.8002 S   0  0  0  0  0  0  0  0  0  0  0  0
   -5.5451    3.1923    0.1200 C   0  0  0  0  0  0  0  0  0  0  0  0
   -4.6027    3.9555    0.8222 C   0  0  0  0  0  0  0  0  0  0  0  0
   -4.2506    3.2192    2.2831 S   0  0  0  0  0  0  0  0  0  0  0  0
   -3.8435    5.1003    0.3114 C   0  0  0  0  0  0  0  0  0  0  0  0
   -4.2230    5.9670   -0.7114 C   0  0  0  0  0  0  0  0  0  0  0  0
   -3.2353    6.9290   -0.9963 C   0  0  0  0  0  0  0  0  0  0  0  0
   -3.3076    7.9331   -1.9774 C   0  0  0  0  0  0  0  0  0  0  0  0
   -4.5258    8.1304   -2.7687 C   0  0  0  0  0  0  0  0  0  0  0  0
   -5.9878    8.6681   -2.1469 S   0  0  0  0  0  0  0  0  0  0  0  0
   -6.8439    8.5734   -3.5915 C   0  0  0  0  0  0  0  0  0  0  0  0
   -8.2439    9.0542   -3.7706 C   0  0  0  0  0  0  0  0  0  0  0  0
   -8.2496   10.5421   -4.0889 C   0  0  0  0  0  0  0  0  0  0  0  0
   -5.9717    8.1487   -4.5998 C   0  0  0  0  0  0  0  0  0  0  0  0
   -6.4587    7.9165   -6.2702 Cl  0  0  0  0  0  0  0  0  0  0  0  0
   -4.6745    7.8912   -4.1317 C   0  0  0  0  0  0  0  0  0  0  0  0
   -3.3787    7.2706   -5.1431 Cl  0  0  0  0  0  0  0  0  0  0  0  0
   -2.1806    8.7584   -2.1419 C   0  0  0  0  0  0  0  0  0  0  0  0
   -1.0284    8.6206   -1.3594 C   0  0  0  0  0  0  0  0  0  0  0  0
   -0.9550    7.6162   -0.3707 C   0  0  0  0  0  0  0  0  0  0  0  0
    0.2632    7.3912    0.4354 C   0  0  0  0  0  0  0  0  0  0  0  0
    1.1965    5.9887    0.3994 S   0  0  0  0  0  0  0  0  0  0  0  0
    2.3259    6.4878    1.5497 C   0  0  0  0  0  0  0  0  0  0  0  0
    3.4819    5.6665    2.0345 C   0  0  0  0  0  0  0  0  0  0  0  0
    3.1177    4.9119    3.3107 C   0  0  0  0  0  0  0  0  0  0  0  0
    1.9667    7.7605    2.0006 C   0  0  0  0  0  0  0  0  0  0  0  0
    0.8183    8.2683    1.3728 C   0  0  0  0  0  0  0  0  0  0  0  0
    0.1002    9.8157    1.7859 Cl  0  0  0  0  0  0  0  0  0  0  0  0
    2.8609    8.6362    3.2275 Cl  0  0  0  0  0  0  0  0  0  0  0  0
   -2.0768    6.7931   -0.2211 C   0  0  0  0  0  0  0  0  0  0  0  0
   -2.2903    5.5121    0.8412 S   0  0  0  0  0  0  0  0  0  0  0  0
   -0.0118    9.5205   -1.7243 C   0  0  0  0  0  0  0  0  0  0  0  0
   -0.3660   10.3571   -2.7788 C   0  0  0  0  0  0  0  0  0  0  0  0
   -1.9393    9.9855   -3.2664 S   0  0  0  0  0  0  0  0  0  0  0  0
    3.7529    3.3953  -11.1912 H   0  0  0  0  0  0  0  0  0  0  0  0
    5.4260    1.4561  -10.6907 H   0  0  0  0  0  0  0  0  0  0  0  0
    8.7801   -3.8120  -10.4366 H   0  0  0  0  0  0  0  0  0  0  0  0
    9.2783   -2.2577  -11.1679 H   0  0  0  0  0  0  0  0  0  0  0  0
    7.3040   -2.5685  -12.8502 H   0  0  0  0  0  0  0  0  0  0  0  0
    7.2507   -4.2728  -12.2719 H   0  0  0  0  0  0  0  0  0  0  0  0
    8.7468   -3.6443  -13.0266 H   0  0  0  0  0  0  0  0  0  0  0  0
    1.2368    5.4495   -2.5727 H   0  0  0  0  0  0  0  0  0  0  0  0
   -0.3428    4.6121   -2.8124 H   0  0  0  0  0  0  0  0  0  0  0  0
   -0.4393    7.0217   -3.4899 H   0  0  0  0  0  0  0  0  0  0  0  0
    0.8724    6.7617   -4.6834 H   0  0  0  0  0  0  0  0  0  0  0  0
   -0.7282    5.9437   -4.9046 H   0  0  0  0  0  0  0  0  0  0  0  0
    4.2875    1.4782   -3.6601 H   0  0  0  0  0  0  0  0  0  0  0  0
    9.7708   -3.5887   -1.8157 H   0  0  0  0  0  0  0  0  0  0  0  0
    8.7972   -4.2962   -0.4617 H   0  0  0  0  0  0  0  0  0  0  0  0
   10.8164   -4.0204    1.0707 H   0  0  0  0  0  0  0  0  0  0  0  0
   11.7749   -3.4833   -0.3791 H   0  0  0  0  0  0  0  0  0  0  0  0
   11.0915   -5.1468   -0.3123 H   0  0  0  0  0  0  0  0  0  0  0  0
   10.6744   -0.2493    1.1986 H   0  0  0  0  0  0  0  0  0  0  0  0
   11.6099   -1.0546   -0.1159 H   0  0  0  0  0  0  0  0  0  0  0  0
    9.4747    1.1517   -0.5306 H   0  0  0  0  0  0  0  0  0  0  0  0
   10.5038    0.4000   -1.8205 H   0  0  0  0  0  0  0  0  0  0  0  0
   11.2581    1.4149   -0.5317 H   0  0  0  0  0  0  0  0  0  0  0  0
    8.3263   -1.1189   -3.2494 H   0  0  0  0  0  0  0  0  0  0  0  0
    8.6055   -3.1838    2.8553 H   0  0  0  0  0  0  0  0  0  0  0  0
    6.0548   -5.0293    2.7319 H   0  0  0  0  0  0  0  0  0  0  0  0
    6.6792   -8.6529   -0.4621 H   0  0  0  0  0  0  0  0  0  0  0  0
    5.1708   -8.8163   -1.4511 H   0  0  0  0  0  0  0  0  0  0  0  0
    4.3966  -10.6004    0.2582 H   0  0  0  0  0  0  0  0  0  0  0  0
    6.0935  -10.5932    0.8738 H   0  0  0  0  0  0  0  0  0  0  0  0
    5.7539  -11.0535   -0.8345 H   0  0  0  0  0  0  0  0  0  0  0  0
    1.3050   -1.3342   10.9136 H   0  0  0  0  0  0  0  0  0  0  0  0
    2.9083   -2.0956   11.1583 H   0  0  0  0  0  0  0  0  0  0  0  0
    2.4114    0.4593    9.4924 H   0  0  0  0  0  0  0  0  0  0  0  0
    3.0454    0.4019   11.1785 H   0  0  0  0  0  0  0  0  0  0  0  0
    4.0089   -0.3056    9.8169 H   0  0  0  0  0  0  0  0  0  0  0  0
    0.2102   -5.3806    6.6709 H   0  0  0  0  0  0  0  0  0  0  0  0
   -1.4821   -7.6450    2.8535 H   0  0  0  0  0  0  0  0  0  0  0  0
   -0.5088   -7.5536   -1.7214 H   0  0  0  0  0  0  0  0  0  0  0  0
   -1.4195   -9.0074   -2.1811 H   0  0  0  0  0  0  0  0  0  0  0  0
   -1.0253   -7.3666   -4.0934 H   0  0  0  0  0  0  0  0  0  0  0  0
   -2.7907   -7.6432   -3.7930 H   0  0  0  0  0  0  0  0  0  0  0  0
   -1.9895   -6.1403   -3.2125 H   0  0  0  0  0  0  0  0  0  0  0  0
   -7.3744   -3.3543    9.6823 H   0  0  0  0  0  0  0  0  0  0  0  0
   -5.9195   -2.4369   10.1962 H   0  0  0  0  0  0  0  0  0  0  0  0
   -4.8381   -4.5667   10.9681 H   0  0  0  0  0  0  0  0  0  0  0  0
   -6.3483   -5.4812   10.5150 H   0  0  0  0  0  0  0  0  0  0  0  0
   -6.3966   -4.2297   11.8220 H   0  0  0  0  0  0  0  0  0  0  0  0
   -7.0994   -3.7781    4.6520 H   0  0  0  0  0  0  0  0  0  0  0  0
   -5.8912   -1.7597    3.9459 H   0  0  0  0  0  0  0  0  0  0  0  0
   -2.6240    1.6826    8.1788 H   0  0  0  0  0  0  0  0  0  0  0  0
   -4.4077    1.8008    8.3707 H   0  0  0  0  0  0  0  0  0  0  0  0
   -4.4033    3.9587    7.0585 H   0  0  0  0  0  0  0  0  0  0  0  0
   -3.3810    4.0458    8.5486 H   0  0  0  0  0  0  0  0  0  0  0  0
   -2.6005    3.8526    6.9275 H   0  0  0  0  0  0  0  0  0  0  0  0
   -7.6739    0.5841   -5.2014 H   0  0  0  0  0  0  0  0  0  0  0  0
   -9.4428    0.7536   -5.0386 H   0  0  0  0  0  0  0  0  0  0  0  0
   -7.3977    3.0889   -4.9272 H   0  0  0  0  0  0  0  0  0  0  0  0
   -9.1944    3.2435   -4.8229 H   0  0  0  0  0  0  0  0  0  0  0  0
   -8.4291    2.6369   -6.3450 H   0  0  0  0  0  0  0  0  0  0  0  0
   -5.9030    3.4462   -0.8641 H   0  0  0  0  0  0  0  0  0  0  0  0
   -5.1731    5.9052   -1.2244 H   0  0  0  0  0  0  0  0  0  0  0  0
   -8.7378    8.4959   -4.5957 H   0  0  0  0  0  0  0  0  0  0  0  0
   -8.8227    8.8695   -2.8407 H   0  0  0  0  0  0  0  0  0  0  0  0
   -7.6136   10.7521   -4.9759 H   0  0  0  0  0  0  0  0  0  0  0  0
   -7.8619   11.1193   -3.2169 H   0  0  0  0  0  0  0  0  0  0  0  0
   -9.2843   10.8807   -4.3021 H   0  0  0  0  0  0  0  0  0  0  0  0
    3.7812    4.9341    1.2519 H   0  0  0  0  0  0  0  0  0  0  0  0
    4.3608    6.3210    2.2291 H   0  0  0  0  0  0  0  0  0  0  0  0
    3.9899    4.3201    3.6545 H   0  0  0  0  0  0  0  0  0  0  0  0
    2.2691    4.2226    3.1182 H   0  0  0  0  0  0  0  0  0  0  0  0
    2.8409    5.6269    4.1098 H   0  0  0  0  0  0  0  0  0  0  0  0
    0.9531    9.5609   -1.2443 H   0  0  0  0  0  0  0  0  0  0  0  0
    0.2761   11.1042   -3.2262 H   0  0  0  0  0  0  0  0  0  0  0  0
  1  2  2  0
  2  3  1  0
  3  4  2  0
  4  5  1  0
  5  6  1  0
  6  7  1  0
  7  8  1  0
  8  9  1  0
  7 10  2  0
 10 11  1  0
 10 12  1  0
 12 13  1  0
  4 14  1  0
 14 15  2  0
 15 16  1  0
 16 17  1  0
 17 18  1  0
 18 19  1  0
 19 20  1  0
 20 21  1  0
 19 22  2  0
 22 23  1  0
 23 24  1  0
 22 25  1  0
 16 26  2  0
 26 27  1  0
 15 28  1  0
 28 29  2  0
 29 30  1  0
 29 31  1  0
 31 32  1  0
 32 33  1  0
 33 34  1  0
 34 35  2  0
 35 36  1  0
 36 37  1  0
 37 38  1  0
 36 39  1  0
 39 40  1  0
 36 41  1  0
 41 42  1  0
 35 43  1  0
 43 44  2  0
 44 45  1  0
 44 46  1  0
 46 47  2  0
 47 48  1  0
 48 49  2  0
 49 50  1  0
 50 51  1  0
 51 52  1  0
 52 53  1  0
 53 54  1  0
 52 55  2  0
 55 56  1  0
 55 57  1  0
 57 58  1  0
 49 59  1  0
 59 60  2  0
 60 61  1  0
 61 62  1  0
 62 63  1  0
 63 64  1  0
 64 65  1  0
 65 66  1  0
 64 67  2  0
 67 68  1  0
 68 69  1  0
 67 70  1  0
 61 71  2  0
 71 72  1  0
 60 73  1  0
 73 74  2  0
 74 75  1  0
 74 76  1  0
 76 77  2  0
 77 78  1  0
 78 79  2  0
 79 80  1  0
 80 81  1  0
 81 82  1  0
 82 83  1  0
 83 84  1  0
 82 85  2  0
 85 86  1  0
 85 87  1  0
 87 88  1  0
 79 89  1  0
 89 90  2  0
 90 91  1  0
 91 92  1  0
 92 93  1  0
 93 94  1  0
 94 95  1  0
 95 96  1  0
 94 97  2  0
 97 98  1  0
 98 99  1  0
 97100  1  0
 91101  2  0
101102  1  0
 90103  1  0
103104  2  0
104105  1  0
104106  1  0
106107  2  0
107108  1  0
108109  2  0
109110  1  0
110111  1  0
111112  1  0
112113  1  0
113114  1  0
112115  2  0
115116  1  0
115117  1  0
117118  1  0
109119  1  0
119120  2  0
120121  1  0
121122  1  0
122123  1  0
123124  1  0
124125  1  0
125126  1  0
124127  2  0
127128  1  0
128129  1  0
127130  1  0
121131  2  0
131132  1  0
120133  1  0
133134  2  0
134135  1  0
134136  1  0
136137  2  0
137138  1  0
138139  2  0
139140  1  0
140141  1  0
141142  1  0
142143  1  0
143144  1  0
142145  2  0
145146  1  0
145147  1  0
147148  1  0
139149  1  0
149150  2  0
150151  1  0
151152  1  0
152153  1  0
153154  1  0
154155  1  0
155156  1  0
154157  2  0
157158  1  0
158159  1  0
157160  1  0
151161  2  0
161162  1  0
150163  1  0
163164  2  0
164165  1  0
 27  1  1  0
 42 31  2  0
 72 46  1  0
102 76  1  0
132106  1  0
162136  1  0
 26  3  1  0
 41 33  2  0
 71 48  1  0
101 78  1  0
131108  1  0
161138  1  0
 12  5  2  0
 30 14  1  0
 45 34  1  0
 57 50  2  0
 75 59  1  0
 87 80  2  0
105 89  1  0
117110  2  0
135119  1  0
147140  2  0
165149  1  0
 23 17  2  0
 68 62  2  0
 98 92  2  0
128122  2  0
158152  2  0
  1166  1  0
  2167  1  0
  8168  1  0
  8169  1  0
  9170  1  0
  9171  1  0
  9172  1  0
 20173  1  0
 20174  1  0
 21175  1  0
 21176  1  0
 21177  1  0
 28178  1  0
 37179  1  0
 37180  1  0
 38181  1  0
 38182  1  0
 38183  1  0
 39184  1  0
 39185  1  0
 40186  1  0
 40187  1  0
 40188  1  0
 42189  1  0
 43190  1  0
 47191  1  0
 53192  1  0
 53193  1  0
 54194  1  0
 54195  1  0
 54196  1  0
 65197  1  0
 65198  1  0
 66199  1  0
 66200  1  0
 66201  1  0
 73202  1  0
 77203  1  0
 83204  1  0
 83205  1  0
 84206  1  0
 84207  1  0
 84208  1  0
 95209  1  0
 95210  1  0
 96211  1  0
 96212  1  0
 96213  1  0
103214  1  0
107215  1  0
113216  1  0
113217  1  0
114218  1  0
114219  1  0
114220  1  0
125221  1  0
125222  1  0
126223  1  0
126224  1  0
126225  1  0
133226  1  0
137227  1  0
143228  1  0
143229  1  0
144230  1  0
144231  1  0
144232  1  0
155233  1  0
155234  1  0
156235  1  0
156236  1  0
156237  1  0
163238  1  0
164239  1  0
M  END

