
     RDKit          3D

239266  0  0  0  0  0  0  0  0999 V2000
   10.1211   -5.0400    6.8964 C   0  0  0  0  0  0  0  0  0  0  0  0
   10.0616   -3.7296    6.4315 C   0  0  0  0  0  0  0  0  0  0  0  0
    8.7607   -3.1871    6.4810 C   0  0  0  0  0  0  0  0  0  0  0  0
    8.3909   -1.8796    6.1242 C   0  0  0  0  0  0  0  0  0  0  0  0
    9.3600   -0.9177    5.5625 C   0  0  0  0  0  0  0  0  0  0  0  0
    9.7434    0.5739    6.2478 S   0  0  0  0  0  0  0  0  0  0  0  0
   10.8173    1.0531    5.0457 C   0  0  0  0  0  0  0  0  0  0  0  0
   11.5121    2.3845    5.0022 C   0  0  0  0  0  0  0  0  0  0  0  0
   10.7207    3.3751    4.1580 C   0  0  0  0  0  0  0  0  0  0  0  0
   10.8607    0.0644    4.0663 C   0  0  0  0  0  0  0  0  0  0  0  0
   11.8171    0.2008    2.5949 Cl  0  0  0  0  0  0  0  0  0  0  0  0
   10.0476   -1.0443    4.3545 C   0  0  0  0  0  0  0  0  0  0  0  0
    9.8636   -2.4070    3.2681 Cl  0  0  0  0  0  0  0  0  0  0  0  0
    7.0474   -1.5181    6.3186 C   0  0  0  0  0  0  0  0  0  0  0  0
    6.0789   -2.4120    6.7926 C   0  0  0  0  0  0  0  0  0  0  0  0
    6.4512   -3.7319    7.1470 C   0  0  0  0  0  0  0  0  0  0  0  0
    5.4982   -4.6960    7.7207 C   0  0  0  0  0  0  0  0  0  0  0  0
    5.2829   -6.2712    7.1502 S   0  0  0  0  0  0  0  0  0  0  0  0
    4.3409   -6.8128    8.4330 C   0  0  0  0  0  0  0  0  0  0  0  0
    3.8072   -8.2015    8.5668 C   0  0  0  0  0  0  0  0  0  0  0  0
    2.5081   -8.3609    7.7899 C   0  0  0  0  0  0  0  0  0  0  0  0
    4.1740   -5.7627    9.3341 C   0  0  0  0  0  0  0  0  0  0  0  0
    4.8337   -4.5783    8.9416 C   0  0  0  0  0  0  0  0  0  0  0  0
    4.9164   -3.1503    9.9612 Cl  0  0  0  0  0  0  0  0  0  0  0  0
    3.2871   -5.9128   10.8440 Cl  0  0  0  0  0  0  0  0  0  0  0  0
    7.8098   -4.0775    6.9808 C   0  0  0  0  0  0  0  0  0  0  0  0
    8.5854   -5.5219    7.3771 S   0  0  0  0  0  0  0  0  0  0  0  0
    4.7767   -1.8565    6.8173 C   0  0  0  0  0  0  0  0  0  0  0  0
    4.7548   -0.5242    6.4043 C   0  0  0  0  0  0  0  0  0  0  0  0
    6.3138   -0.0489    5.9716 S   0  0  0  0  0  0  0  0  0  0  0  0
    3.5731    0.3346    6.2050 C   0  0  0  0  0  0  0  0  0  0  0  0
    3.6543    1.6920    5.9046 C   0  0  0  0  0  0  0  0  0  0  0  0
    2.4176    2.2443    5.5263 C   0  0  0  0  0  0  0  0  0  0  0  0
    2.2047    3.5676    5.0882 C   0  0  0  0  0  0  0  0  0  0  0  0
    3.2521    4.6012    5.2025 C   0  0  0  0  0  0  0  0  0  0  0  0
    3.8571    5.5456    3.9423 S   0  0  0  0  0  0  0  0  0  0  0  0
    4.8898    6.4797    4.8945 C   0  0  0  0  0  0  0  0  0  0  0  0
    5.7208    7.6248    4.3905 C   0  0  0  0  0  0  0  0  0  0  0  0
    4.9751    8.9405    4.5563 C   0  0  0  0  0  0  0  0  0  0  0  0
    4.7444    6.0932    6.2251 C   0  0  0  0  0  0  0  0  0  0  0  0
    5.6025    6.8546    7.5569 Cl  0  0  0  0  0  0  0  0  0  0  0  0
    3.8332    5.0319    6.4004 C   0  0  0  0  0  0  0  0  0  0  0  0
    3.3885    4.4117    7.9804 Cl  0  0  0  0  0  0  0  0  0  0  0  0
    0.9359    3.8672    4.5721 C   0  0  0  0  0  0  0  0  0  0  0  0
   -0.1105    2.9429    4.5663 C   0  0  0  0  0  0  0  0  0  0  0  0
    0.0666    1.6613    5.1225 C   0  0  0  0  0  0  0  0  0  0  0  0
   -1.0775    0.7927    5.4257 C   0  0  0  0  0  0  0  0  0  0  0  0
   -1.3368   -0.7555    4.8114 S   0  0  0  0  0  0  0  0  0  0  0  0
   -2.6964   -1.0860    5.7490 C   0  0  0  0  0  0  0  0  0  0  0  0
   -3.4071   -2.4039    5.8005 C   0  0  0  0  0  0  0  0  0  0  0  0
   -2.7812   -3.2985    6.8617 C   0  0  0  0  0  0  0  0  0  0  0  0
   -2.9400   -0.0015    6.5933 C   0  0  0  0  0  0  0  0  0  0  0  0
   -2.0380    1.0618    6.3975 C   0  0  0  0  0  0  0  0  0  0  0  0
   -2.0343    2.5141    7.3772 Cl  0  0  0  0  0  0  0  0  0  0  0  0
   -4.1907    0.0229    7.8195 Cl  0  0  0  0  0  0  0  0  0  0  0  0
    1.3706    1.3253    5.5443 C   0  0  0  0  0  0  0  0  0  0  0  0
    1.9677   -0.1656    6.0460 S   0  0  0  0  0  0  0  0  0  0  0  0
   -1.2568    3.4064    3.8832 C   0  0  0  0  0  0  0  0  0  0  0  0
   -1.0885    4.6773    3.3318 C   0  0  0  0  0  0  0  0  0  0  0  0
    0.4429    5.2535    3.7514 S   0  0  0  0  0  0  0  0  0  0  0  0
   -1.8889    5.2502    2.2317 C   0  0  0  0  0  0  0  0  0  0  0  0
   -2.7448    4.5259    1.4071 C   0  0  0  0  0  0  0  0  0  0  0  0
   -3.0487    5.1846    0.2027 C   0  0  0  0  0  0  0  0  0  0  0  0
   -3.7748    4.6499   -0.8743 C   0  0  0  0  0  0  0  0  0  0  0  0
   -4.3509    3.2994   -0.8370 C   0  0  0  0  0  0  0  0  0  0  0  0
   -5.9934    2.9657   -0.7068 S   0  0  0  0  0  0  0  0  0  0  0  0
   -5.8690    1.3202   -1.0260 C   0  0  0  0  0  0  0  0  0  0  0  0
   -7.0266    0.3618   -1.0564 C   0  0  0  0  0  0  0  0  0  0  0  0
   -7.1540   -0.3786    0.2690 C   0  0  0  0  0  0  0  0  0  0  0  0
   -4.5301    1.0092   -1.2564 C   0  0  0  0  0  0  0  0  0  0  0  0
   -3.9623   -0.5989   -1.6946 Cl  0  0  0  0  0  0  0  0  0  0  0  0
   -3.6773    2.1209   -1.1541 C   0  0  0  0  0  0  0  0  0  0  0  0
   -1.9589    2.0600   -1.4977 Cl  0  0  0  0  0  0  0  0  0  0  0  0
   -3.7545    5.3760   -2.0767 C   0  0  0  0  0  0  0  0  0  0  0  0
   -3.0545    6.5737   -2.2379 C   0  0  0  0  0  0  0  0  0  0  0  0
   -2.4512    7.1851   -1.1129 C   0  0  0  0  0  0  0  0  0  0  0  0
   -1.8860    8.5442   -1.1906 C   0  0  0  0  0  0  0  0  0  0  0  0
   -0.3711    9.0158   -0.6350 S   0  0  0  0  0  0  0  0  0  0  0  0
   -0.5761   10.6630   -0.8967 C   0  0  0  0  0  0  0  0  0  0  0  0
    0.4476   11.7148   -0.5999 C   0  0  0  0  0  0  0  0  0  0  0  0
    1.2292   12.0782   -1.8547 C   0  0  0  0  0  0  0  0  0  0  0  0
   -1.8411   10.8699   -1.4322 C   0  0  0  0  0  0  0  0  0  0  0  0
   -2.5842    9.6898   -1.5981 C   0  0  0  0  0  0  0  0  0  0  0  0
   -4.2479    9.6763   -2.1570 Cl  0  0  0  0  0  0  0  0  0  0  0  0
   -2.4758   12.4604   -1.8390 Cl  0  0  0  0  0  0  0  0  0  0  0  0
   -2.4335    6.4334    0.0854 C   0  0  0  0  0  0  0  0  0  0  0  0
   -1.5458    6.7257    1.4788 S   0  0  0  0  0  0  0  0  0  0  0  0
   -2.8992    6.9487   -3.5890 C   0  0  0  0  0  0  0  0  0  0  0  0
   -3.5117    6.0598   -4.4841 C   0  0  0  0  0  0  0  0  0  0  0  0
   -4.2305    4.8241   -3.5856 S   0  0  0  0  0  0  0  0  0  0  0  0
   -3.1537    5.8572   -5.8899 C   0  0  0  0  0  0  0  0  0  0  0  0
   -3.9599    5.0500   -6.6894 C   0  0  0  0  0  0  0  0  0  0  0  0
   -3.2389    4.1721   -7.5163 C   0  0  0  0  0  0  0  0  0  0  0  0
   -3.7867    3.0552   -8.1537 C   0  0  0  0  0  0  0  0  0  0  0  0
   -5.2230    2.7626   -8.0801 C   0  0  0  0  0  0  0  0  0  0  0  0
   -6.0328    2.2858   -6.6853 S   0  0  0  0  0  0  0  0  0  0  0  0
   -7.4919    1.9174   -7.4413 C   0  0  0  0  0  0  0  0  0  0  0  0
   -8.6445    1.2667   -6.7546 C   0  0  0  0  0  0  0  0  0  0  0  0
   -8.4263   -0.2346   -6.6314 C   0  0  0  0  0  0  0  0  0  0  0  0
   -7.3431    2.1308   -8.8132 C   0  0  0  0  0  0  0  0  0  0  0  0
   -8.6114    1.8159   -9.9806 Cl  0  0  0  0  0  0  0  0  0  0  0  0
   -6.0638    2.5961   -9.1705 C   0  0  0  0  0  0  0  0  0  0  0  0
   -5.5269    2.8181  -10.8273 Cl  0  0  0  0  0  0  0  0  0  0  0  0
   -2.8936    2.0565   -8.5669 C   0  0  0  0  0  0  0  0  0  0  0  0
   -1.5111    2.2009   -8.4720 C   0  0  0  0  0  0  0  0  0  0  0  0
   -0.9490    3.4277   -8.0334 C   0  0  0  0  0  0  0  0  0  0  0  0
    0.4987    3.7244   -8.1885 C   0  0  0  0  0  0  0  0  0  0  0  0
    1.4605    4.5794   -7.0973 S   0  0  0  0  0  0  0  0  0  0  0  0
    2.8271    4.7043   -8.0784 C   0  0  0  0  0  0  0  0  0  0  0  0
    4.0378    5.5261   -7.7640 C   0  0  0  0  0  0  0  0  0  0  0  0
    3.9473    6.9063   -8.4188 C   0  0  0  0  0  0  0  0  0  0  0  0
    2.5371    4.0958   -9.2944 C   0  0  0  0  0  0  0  0  0  0  0  0
    1.2494    3.5408   -9.3541 C   0  0  0  0  0  0  0  0  0  0  0  0
    0.6049    2.8381  -10.8367 Cl  0  0  0  0  0  0  0  0  0  0  0  0
    3.6537    4.0669  -10.6542 Cl  0  0  0  0  0  0  0  0  0  0  0  0
   -1.8602    4.3679   -7.4897 C   0  0  0  0  0  0  0  0  0  0  0  0
   -1.5556    5.5841   -6.3660 S   0  0  0  0  0  0  0  0  0  0  0  0
   -0.8273    0.9730   -8.5655 C   0  0  0  0  0  0  0  0  0  0  0  0
   -1.6746   -0.1219   -8.7429 C   0  0  0  0  0  0  0  0  0  0  0  0
   -3.2671    0.4442   -8.8347 S   0  0  0  0  0  0  0  0  0  0  0  0
   -1.3699   -1.5144   -8.3691 C   0  0  0  0  0  0  0  0  0  0  0  0
   -2.5553   -2.5583   -7.7340 S   0  0  0  0  0  0  0  0  0  0  0  0
   -1.4692   -3.6721   -7.1279 C   0  0  0  0  0  0  0  0  0  0  0  0
   -1.5904   -4.6189   -6.0325 C   0  0  0  0  0  0  0  0  0  0  0  0
   -0.4143   -5.0020   -5.4496 C   0  0  0  0  0  0  0  0  0  0  0  0
    1.0951   -4.2037   -6.3097 Ge  0  0  0  0  0  4  0  0  0  0  0  0
    2.0201   -5.5586   -7.3668 C   0  0  0  0  0  0  0  0  0  0  0  0
    3.4328   -5.1353   -7.7300 C   0  0  0  0  0  0  0  0  0  0  0  0
    2.0399   -3.0119   -5.0751 C   0  0  0  0  0  0  0  0  0  0  0  0
    3.3592   -3.5965   -4.6005 C   0  0  0  0  0  0  0  0  0  0  0  0
   -0.1934   -3.2567   -7.3813 C   0  0  0  0  0  0  0  0  0  0  0  0
   -0.1047   -2.0339   -8.0593 C   0  0  0  0  0  0  0  0  0  0  0  0
   -0.5500   -5.6739   -4.2332 C   0  0  0  0  0  0  0  0  0  0  0  0
   -1.8964   -5.8244   -3.8925 C   0  0  0  0  0  0  0  0  0  0  0  0
   -2.8729   -5.0810   -5.0693 S   0  0  0  0  0  0  0  0  0  0  0  0
   -2.4206   -6.5109   -2.7012 C   0  0  0  0  0  0  0  0  0  0  0  0
   -3.7353   -6.9777   -2.5909 C   0  0  0  0  0  0  0  0  0  0  0  0
   -3.9589   -7.7083   -1.4162 C   0  0  0  0  0  0  0  0  0  0  0  0
   -5.1450   -8.3911   -1.0806 C   0  0  0  0  0  0  0  0  0  0  0  0
   -6.2988   -8.3954   -1.9901 C   0  0  0  0  0  0  0  0  0  0  0  0
   -7.1381   -7.0153   -2.4385 S   0  0  0  0  0  0  0  0  0  0  0  0
   -7.9008   -7.6851   -3.7744 C   0  0  0  0  0  0  0  0  0  0  0  0
   -8.6626   -6.8844   -4.7809 C   0  0  0  0  0  0  0  0  0  0  0  0
   -7.7413   -6.4425   -5.9253 C   0  0  0  0  0  0  0  0  0  0  0  0
   -7.4825   -9.0105   -3.8995 C   0  0  0  0  0  0  0  0  0  0  0  0
   -7.9113  -10.0317   -5.2604 Cl  0  0  0  0  0  0  0  0  0  0  0  0
   -6.6047   -9.4225   -2.8769 C   0  0  0  0  0  0  0  0  0  0  0  0
   -5.8035  -10.9905   -2.8390 Cl  0  0  0  0  0  0  0  0  0  0  0  0
   -5.1216   -9.1823    0.0725 C   0  0  0  0  0  0  0  0  0  0  0  0
   -4.0038   -9.2592    0.9165 C   0  0  0  0  0  0  0  0  0  0  0  0
   -2.8605   -8.4672    0.6486 C   0  0  0  0  0  0  0  0  0  0  0  0
   -1.8986   -8.1073    1.7110 C   0  0  0  0  0  0  0  0  0  0  0  0
   -0.9860   -9.1776    2.6362 S   0  0  0  0  0  0  0  0  0  0  0  0
   -0.5313   -8.0824    3.8296 C   0  0  0  0  0  0  0  0  0  0  0  0
    0.1196   -8.4696    5.1216 C   0  0  0  0  0  0  0  0  0  0  0  0
   -0.9273   -9.0850    6.0573 C   0  0  0  0  0  0  0  0  0  0  0  0
   -1.1369   -6.8564    3.5393 C   0  0  0  0  0  0  0  0  0  0  0  0
   -1.8970   -6.8736    2.3624 C   0  0  0  0  0  0  0  0  0  0  0  0
   -2.8861   -5.5117    1.8266 Cl  0  0  0  0  0  0  0  0  0  0  0  0
   -1.1128   -5.4880    4.6347 Cl  0  0  0  0  0  0  0  0  0  0  0  0
   -2.8432   -7.7692   -0.5808 C   0  0  0  0  0  0  0  0  0  0  0  0
   -1.5653   -6.9434   -1.3085 S   0  0  0  0  0  0  0  0  0  0  0  0
   -4.1651  -10.1711    1.9631 C   0  0  0  0  0  0  0  0  0  0  0  0
   -5.4100  -10.8071    1.9485 C   0  0  0  0  0  0  0  0  0  0  0  0
   -6.3007  -10.2406    0.6190 S   0  0  0  0  0  0  0  0  0  0  0  0
   11.0254   -5.6331    6.9633 H   0  0  0  0  0  0  0  0  0  0  0  0
   10.9274   -3.1897    6.0798 H   0  0  0  0  0  0  0  0  0  0  0  0
   11.6064    2.7806    6.0343 H   0  0  0  0  0  0  0  0  0  0  0  0
   12.5335    2.2583    4.5873 H   0  0  0  0  0  0  0  0  0  0  0  0
   10.5799    2.9836    3.1284 H   0  0  0  0  0  0  0  0  0  0  0  0
   11.2708    4.3396    4.0985 H   0  0  0  0  0  0  0  0  0  0  0  0
    9.7232    3.5601    4.6113 H   0  0  0  0  0  0  0  0  0  0  0  0
    4.5573   -8.9187    8.1733 H   0  0  0  0  0  0  0  0  0  0  0  0
    3.6375   -8.4529    9.6301 H   0  0  0  0  0  0  0  0  0  0  0  0
    2.6863   -8.1775    6.7087 H   0  0  0  0  0  0  0  0  0  0  0  0
    2.1137   -9.3872    7.9257 H   0  0  0  0  0  0  0  0  0  0  0  0
    1.7450   -7.6401    8.1657 H   0  0  0  0  0  0  0  0  0  0  0  0
    3.8984   -2.4026    7.1187 H   0  0  0  0  0  0  0  0  0  0  0  0
    4.5730    2.2573    5.8958 H   0  0  0  0  0  0  0  0  0  0  0  0
    5.9554    7.4688    3.3130 H   0  0  0  0  0  0  0  0  0  0  0  0
    6.6794    7.6620    4.9470 H   0  0  0  0  0  0  0  0  0  0  0  0
    5.6088    9.7781    4.1981 H   0  0  0  0  0  0  0  0  0  0  0  0
    4.0313    8.9274    3.9751 H   0  0  0  0  0  0  0  0  0  0  0  0
    4.7437    9.1191    5.6265 H   0  0  0  0  0  0  0  0  0  0  0  0
   -4.4848   -2.2544    6.0226 H   0  0  0  0  0  0  0  0  0  0  0  0
   -3.3383   -2.8961    4.8110 H   0  0  0  0  0  0  0  0  0  0  0  0
   -1.7094   -3.4602    6.6339 H   0  0  0  0  0  0  0  0  0  0  0  0
   -3.2923   -4.2832    6.8807 H   0  0  0  0  0  0  0  0  0  0  0  0
   -2.8529   -2.8255    7.8628 H   0  0  0  0  0  0  0  0  0  0  0  0
   -2.1346    2.7931    3.7140 H   0  0  0  0  0  0  0  0  0  0  0  0
   -3.0625    3.5123    1.6200 H   0  0  0  0  0  0  0  0  0  0  0  0
   -6.8875   -0.3668   -1.8841 H   0  0  0  0  0  0  0  0  0  0  0  0
   -7.9627    0.9235   -1.2467 H   0  0  0  0  0  0  0  0  0  0  0  0
   -6.2477   -0.9932    0.4573 H   0  0  0  0  0  0  0  0  0  0  0  0
   -8.0307   -1.0590    0.2239 H   0  0  0  0  0  0  0  0  0  0  0  0
   -7.3023    0.3371    1.1056 H   0  0  0  0  0  0  0  0  0  0  0  0
    1.1487   11.3393    0.1739 H   0  0  0  0  0  0  0  0  0  0  0  0
   -0.0515   12.6228   -0.1964 H   0  0  0  0  0  0  0  0  0  0  0  0
    0.5594   12.5808   -2.5833 H   0  0  0  0  0  0  0  0  0  0  0  0
    1.6576   11.1682   -2.3223 H   0  0  0  0  0  0  0  0  0  0  0  0
    2.0553   12.7674   -1.5897 H   0  0  0  0  0  0  0  0  0  0  0  0
   -2.2625    7.7640   -3.9079 H   0  0  0  0  0  0  0  0  0  0  0  0
   -5.0169    4.9347   -6.4974 H   0  0  0  0  0  0  0  0  0  0  0  0
   -8.7549    1.6994   -5.7341 H   0  0  0  0  0  0  0  0  0  0  0  0
   -9.5863    1.4677   -7.3082 H   0  0  0  0  0  0  0  0  0  0  0  0
   -9.2731   -0.6939   -6.0749 H   0  0  0  0  0  0  0  0  0  0  0  0
   -7.4876   -0.4562   -6.0790 H   0  0  0  0  0  0  0  0  0  0  0  0
   -8.3607   -0.6944   -7.6420 H   0  0  0  0  0  0  0  0  0  0  0  0
    4.1234    5.6604   -6.6624 H   0  0  0  0  0  0  0  0  0  0  0  0
    4.9553    5.0000   -8.1187 H   0  0  0  0  0  0  0  0  0  0  0  0
    3.0792    7.4708   -8.0163 H   0  0  0  0  0  0  0  0  0  0  0  0
    3.8359    6.8010   -9.5181 H   0  0  0  0  0  0  0  0  0  0  0  0
    4.8789    7.4790   -8.2197 H   0  0  0  0  0  0  0  0  0  0  0  0
    0.2271    0.8717   -8.3514 H   0  0  0  0  0  0  0  0  0  0  0  0
    1.4230   -5.7243   -8.2882 H   0  0  0  0  0  0  0  0  0  0  0  0
    2.0431   -6.5100   -6.7931 H   0  0  0  0  0  0  0  0  0  0  0  0
    3.7673   -5.7080   -8.6125 H   0  0  0  0  0  0  0  0  0  0  0  0
    4.1239   -5.3546   -6.8895 H   0  0  0  0  0  0  0  0  0  0  0  0
    3.4722   -4.0599   -7.9888 H   0  0  0  0  0  0  0  0  0  0  0  0
    2.2217   -2.0440   -5.5819 H   0  0  0  0  0  0  0  0  0  0  0  0
    1.3778   -2.8367   -4.1960 H   0  0  0  0  0  0  0  0  0  0  0  0
    4.0963   -3.5899   -5.4259 H   0  0  0  0  0  0  0  0  0  0  0  0
    3.2251   -4.6267   -4.2127 H   0  0  0  0  0  0  0  0  0  0  0  0
    3.7646   -2.9625   -3.7851 H   0  0  0  0  0  0  0  0  0  0  0  0
    0.8281   -1.5068   -8.2125 H   0  0  0  0  0  0  0  0  0  0  0  0
    0.2885   -6.0038   -3.6304 H   0  0  0  0  0  0  0  0  0  0  0  0
   -4.4805   -6.8189   -3.3500 H   0  0  0  0  0  0  0  0  0  0  0  0
   -9.5112   -7.4837   -5.1847 H   0  0  0  0  0  0  0  0  0  0  0  0
   -9.0845   -5.9860   -4.2780 H   0  0  0  0  0  0  0  0  0  0  0  0
   -6.8841   -5.8551   -5.5297 H   0  0  0  0  0  0  0  0  0  0  0  0
   -7.3716   -7.3359   -6.4812 H   0  0  0  0  0  0  0  0  0  0  0  0
   -8.3014   -5.7851   -6.6216 H   0  0  0  0  0  0  0  0  0  0  0  0
    0.9128   -9.2271    4.9250 H   0  0  0  0  0  0  0  0  0  0  0  0
    0.5764   -7.5782    5.5917 H   0  0  0  0  0  0  0  0  0  0  0  0
   -0.4869   -9.2685    7.0593 H   0  0  0  0  0  0  0  0  0  0  0  0
   -1.7741   -8.3781    6.1642 H   0  0  0  0  0  0  0  0  0  0  0  0
   -1.2859  -10.0402    5.6261 H   0  0  0  0  0  0  0  0  0  0  0  0
   -3.3859  -10.4390    2.6735 H   0  0  0  0  0  0  0  0  0  0  0  0
   -5.7047  -11.6115    2.6044 H   0  0  0  0  0  0  0  0  0  0  0  0
  1  2  2  0
  2  3  1  0
  3  4  2  0
  4  5  1  0
  5  6  1  0
  6  7  1  0
  7  8  1  0
  8  9  1  0
  7 10  2  0
 10 11  1  0
 10 12  1  0
 12 13  1  0
  4 14  1  0
 14 15  2  0
 15 16  1  0
 16 17  1  0
 17 18  1  0
 18 19  1  0
 19 20  1  0
 20 21  1  0
 19 22  2  0
 22 23  1  0
 23 24  1  0
 22 25  1  0
 16 26  2  0
 26 27  1  0
 15 28  1  0
 28 29  2  0
 29 30  1  0
 29 31  1  0
 31 32  2  0
 32 33  1  0
 33 34  2  0
 34 35  1  0
 35 36  1  0
 36 37  1  0
 37 38  1  0
 38 39  1  0
 37 40  2  0
 40 41  1  0
 40 42  1  0
 42 43  1  0
 34 44  1  0
 44 45  2  0
 45 46  1  0
 46 47  1  0
 47 48  1  0
 48 49  1  0
 49 50  1  0
 50 51  1  0
 49 52  2  0
 52 53  1  0
 53 54  1  0
 52 55  1  0
 46 56  2  0
 56 57  1  0
 45 58  1  0
 58 59  2  0
 59 60  1  0
 59 61  1  0
 61 62  2  0
 62 63  1  0
 63 64  2  0
 64 65  1  0
 65 66  1  0
 66 67  1  0
 67 68  1  0
 68 69  1  0
 67 70  2  0
 70 71  1  0
 70 72  1  0
 72 73  1  0
 64 74  1  0
 74 75  2  0
 75 76  1  0
 76 77  1  0
 77 78  1  0
 78 79  1  0
 79 80  1  0
 80 81  1  0
 79 82  2  0
 82 83  1  0
 83 84  1  0
 82 85  1  0
 76 86  2  0
 86 87  1  0
 75 88  1  0
 88 89  2  0
 89 90  1  0
 89 91  1  0
 91 92  2  0
 92 93  1  0
 93 94  2  0
 94 95  1  0
 95 96  1  0
 96 97  1  0
 97 98  1  0
 98 99  1  0
 97100  2  0
100101  1  0
100102  1  0
102103  1  0
 94104  1  0
104105  2  0
105106  1  0
106107  1  0
107108  1  0
108109  1  0
109110  1  0
110111  1  0
109112  2  0
112113  1  0
113114  1  0
112115  1  0
106116  2  0
116117  1  0
105118  1  0
118119  2  0
119120  1  0
119121  1  0
121122  1  0
122123  1  0
123124  1  0
124125  2  0
125126  1  0
126127  1  0
127128  1  0
126129  1  0
129130  1  0
126131  1  0
131132  1  0
125133  1  0
133134  2  0
134135  1  0
134136  1  0
136137  2  0
137138  1  0
138139  2  0
139140  1  0
140141  1  0
141142  1  0
142143  1  0
143144  1  0
142145  2  0
145146  1  0
145147  1  0
147148  1  0
139149  1  0
149150  2  0
150151  1  0
151152  1  0
152153  1  0
153154  1  0
154155  1  0
155156  1  0
154157  2  0
157158  1  0
158159  1  0
157160  1  0
151161  2  0
161162  1  0
150163  1  0
163164  2  0
164165  1  0
 27  1  1  0
 57 31  1  0
 87 61  1  0
117 91  1  0
132121  2  0
162136  1  0
 26  3  1  0
 56 33  1  0
 86 63  1  0
116 93  1  0
131123  2  0
161138  1  0
 12  5  2  0
 30 14  1  0
 42 35  2  0
 60 44  1  0
 72 65  2  0
 90 74  1  0
102 95  2  0
120104  1  0
135124  1  0
147140  2  0
165149  1  0
 23 17  2  0
 53 47  2  0
 83 77  2  0
113107  2  0
158152  2  0
  1166  1  0
  2167  1  0
  8168  1  0
  8169  1  0
  9170  1  0
  9171  1  0
  9172  1  0
 20173  1  0
 20174  1  0
 21175  1  0
 21176  1  0
 21177  1  0
 28178  1  0
 32179  1  0
 38180  1  0
 38181  1  0
 39182  1  0
 39183  1  0
 39184  1  0
 50185  1  0
 50186  1  0
 51187  1  0
 51188  1  0
 51189  1  0
 58190  1  0
 62191  1  0
 68192  1  0
 68193  1  0
 69194  1  0
 69195  1  0
 69196  1  0
 80197  1  0
 80198  1  0
 81199  1  0
 81200  1  0
 81201  1  0
 88202  1  0
 92203  1  0
 98204  1  0
 98205  1  0
 99206  1  0
 99207  1  0
 99208  1  0
110209  1  0
110210  1  0
111211  1  0
111212  1  0
111213  1  0
118214  1  0
127215  1  0
127216  1  0
128217  1  0
128218  1  0
128219  1  0
129220  1  0
129221  1  0
130222  1  0
130223  1  0
130224  1  0
132225  1  0
133226  1  0
137227  1  0
143228  1  0
143229  1  0
144230  1  0
144231  1  0
144232  1  0
155233  1  0
155234  1  0
156235  1  0
156236  1  0
156237  1  0
163238  1  0
164239  1  0
M  END

