
     RDKit          3D

209232  0  0  0  0  0  0  0  0999 V2000
    5.6410   -7.9184   12.3700 C   0  0  0  0  0  0  0  0  0  0  0  0
    4.2049   -8.3453   11.5586 S   0  0  0  0  0  0  0  0  0  0  0  0
    4.1846   -6.9590   10.6200 C   0  0  0  0  0  0  0  0  0  0  0  0
    3.3640   -6.4890    9.5117 C   0  0  0  0  0  0  0  0  0  0  0  0
    3.8042   -5.3309    8.9291 C   0  0  0  0  0  0  0  0  0  0  0  0
    5.4185   -4.6676    9.7271 Ge  0  0  0  0  0  4  0  0  0  0  0  0
    6.9464   -4.7941    8.5251 C   0  0  0  0  0  0  0  0  0  0  0  0
    6.9648   -6.1444    7.8235 C   0  0  0  0  0  0  0  0  0  0  0  0
    5.2302   -2.9485   10.6242 C   0  0  0  0  0  0  0  0  0  0  0  0
    6.4989   -2.6107   11.3917 C   0  0  0  0  0  0  0  0  0  0  0  0
    5.2743   -6.1791   10.9003 C   0  0  0  0  0  0  0  0  0  0  0  0
    6.1155   -6.6977   11.8773 C   0  0  0  0  0  0  0  0  0  0  0  0
    3.1215   -4.9756    7.7731 C   0  0  0  0  0  0  0  0  0  0  0  0
    2.1201   -5.9040    7.4620 C   0  0  0  0  0  0  0  0  0  0  0  0
    2.1190   -7.1628    8.6138 S   0  0  0  0  0  0  0  0  0  0  0  0
    1.2634   -5.8433    6.2657 C   0  0  0  0  0  0  0  0  0  0  0  0
    0.4294   -6.8609    5.7958 C   0  0  0  0  0  0  0  0  0  0  0  0
   -0.2161   -6.5252    4.5918 C   0  0  0  0  0  0  0  0  0  0  0  0
   -1.0893   -7.3484    3.8449 C   0  0  0  0  0  0  0  0  0  0  0  0
   -1.4619   -8.6975    4.3021 C   0  0  0  0  0  0  0  0  0  0  0  0
   -2.3749   -9.0162    5.6788 S   0  0  0  0  0  0  0  0  0  0  0  0
   -2.3716  -10.6908    5.5127 C   0  0  0  0  0  0  0  0  0  0  0  0
   -3.1280  -11.6331    6.3978 C   0  0  0  0  0  0  0  0  0  0  0  0
   -4.5202  -11.9034    5.8348 C   0  0  0  0  0  0  0  0  0  0  0  0
   -1.6637  -11.0226    4.3573 C   0  0  0  0  0  0  0  0  0  0  0  0
   -1.4372  -12.6748    3.7989 Cl  0  0  0  0  0  0  0  0  0  0  0  0
   -1.1481   -9.9042    3.6813 C   0  0  0  0  0  0  0  0  0  0  0  0
   -0.1637  -10.0212    2.2278 Cl  0  0  0  0  0  0  0  0  0  0  0  0
   -1.5780   -6.8227    2.6316 C   0  0  0  0  0  0  0  0  0  0  0  0
   -1.2303   -5.5463    2.1815 C   0  0  0  0  0  0  0  0  0  0  0  0
   -0.3895   -4.7126    2.9422 C   0  0  0  0  0  0  0  0  0  0  0  0
   -0.0671   -3.3394    2.5093 C   0  0  0  0  0  0  0  0  0  0  0  0
    1.4529   -2.8122    2.0115 S   0  0  0  0  0  0  0  0  0  0  0  0
    0.9578   -1.2736    1.5365 C   0  0  0  0  0  0  0  0  0  0  0  0
    1.8616   -0.2268    0.9623 C   0  0  0  0  0  0  0  0  0  0  0  0
    2.3075    0.7584    2.0346 C   0  0  0  0  0  0  0  0  0  0  0  0
   -0.4089   -1.1470    1.7808 C   0  0  0  0  0  0  0  0  0  0  0  0
   -0.9852   -2.3073    2.3164 C   0  0  0  0  0  0  0  0  0  0  0  0
   -2.6949   -2.4411    2.7193 Cl  0  0  0  0  0  0  0  0  0  0  0  0
   -1.3267    0.3120    1.4301 Cl  0  0  0  0  0  0  0  0  0  0  0  0
    0.1189   -5.2456    4.1325 C   0  0  0  0  0  0  0  0  0  0  0  0
    1.1962   -4.5333    5.2045 S   0  0  0  0  0  0  0  0  0  0  0  0
   -1.7459   -5.2470    0.9182 C   0  0  0  0  0  0  0  0  0  0  0  0
   -2.5252   -6.2666    0.3900 C   0  0  0  0  0  0  0  0  0  0  0  0
   -2.5724   -7.5594    1.4764 S   0  0  0  0  0  0  0  0  0  0  0  0
   -3.0108   -6.2575   -0.9894 C   0  0  0  0  0  0  0  0  0  0  0  0
   -4.3496   -6.1736   -1.3791 C   0  0  0  0  0  0  0  0  0  0  0  0
   -4.5008   -5.6947   -2.6983 C   0  0  0  0  0  0  0  0  0  0  0  0
   -5.7099   -5.3226   -3.3290 C   0  0  0  0  0  0  0  0  0  0  0  0
   -7.0265   -5.5783   -2.7237 C   0  0  0  0  0  0  0  0  0  0  0  0
   -7.6066   -4.8797   -1.3058 S   0  0  0  0  0  0  0  0  0  0  0  0
   -9.1128   -5.6329   -1.3391 C   0  0  0  0  0  0  0  0  0  0  0  0
  -10.2235   -5.3655   -0.3695 C   0  0  0  0  0  0  0  0  0  0  0  0
  -11.1573   -4.2861   -0.9056 C   0  0  0  0  0  0  0  0  0  0  0  0
   -9.1889   -6.4233   -2.4862 C   0  0  0  0  0  0  0  0  0  0  0  0
  -10.6130   -7.3552   -2.9306 Cl  0  0  0  0  0  0  0  0  0  0  0  0
   -8.0193   -6.3925   -3.2614 C   0  0  0  0  0  0  0  0  0  0  0  0
   -7.8230   -7.3004   -4.7563 Cl  0  0  0  0  0  0  0  0  0  0  0  0
   -5.6050   -4.6627   -4.5694 C   0  0  0  0  0  0  0  0  0  0  0  0
   -4.3764   -4.4392   -5.1964 C   0  0  0  0  0  0  0  0  0  0  0  0
   -3.1736   -4.8225   -4.5797 C   0  0  0  0  0  0  0  0  0  0  0  0
   -1.8636   -4.3685   -5.0852 C   0  0  0  0  0  0  0  0  0  0  0  0
   -0.6105   -5.3811   -5.5672 S   0  0  0  0  0  0  0  0  0  0  0  0
    0.5001   -4.1526   -5.8743 C   0  0  0  0  0  0  0  0  0  0  0  0
    1.9217   -4.3785   -6.2931 C   0  0  0  0  0  0  0  0  0  0  0  0
    2.7670   -4.8290   -5.1071 C   0  0  0  0  0  0  0  0  0  0  0  0
   -0.0928   -2.9265   -5.5714 C   0  0  0  0  0  0  0  0  0  0  0  0
   -1.4192   -3.0467   -5.1344 C   0  0  0  0  0  0  0  0  0  0  0  0
   -2.3916   -1.6684   -4.6260 Cl  0  0  0  0  0  0  0  0  0  0  0  0
    0.7415   -1.3824   -5.6827 Cl  0  0  0  0  0  0  0  0  0  0  0  0
   -3.2762   -5.4516   -3.3322 C   0  0  0  0  0  0  0  0  0  0  0  0
   -2.0279   -5.7697   -2.2652 S   0  0  0  0  0  0  0  0  0  0  0  0
   -4.4749   -3.6689   -6.3579 C   0  0  0  0  0  0  0  0  0  0  0  0
   -5.7580   -3.1925   -6.5948 C   0  0  0  0  0  0  0  0  0  0  0  0
   -6.7918   -3.7872   -5.3950 S   0  0  0  0  0  0  0  0  0  0  0  0
   -5.9895   -1.9944   -7.4067 C   0  0  0  0  0  0  0  0  0  0  0  0
   -6.2081   -0.4752   -6.6853 S   0  0  0  0  0  0  0  0  0  0  0  0
   -5.6262    0.4167   -7.9816 C   0  0  0  0  0  0  0  0  0  0  0  0
   -4.9119    1.6945   -7.9693 C   0  0  0  0  0  0  0  0  0  0  0  0
   -3.9485    1.8179   -8.9427 C   0  0  0  0  0  0  0  0  0  0  0  0
   -3.8611    0.2995  -10.0902 Ge  0  0  0  0  0  4  0  0  0  0  0  0
   -2.1297   -0.5917   -9.9592 C   0  0  0  0  0  0  0  0  0  0  0  0
   -1.7669   -0.8603   -8.5041 C   0  0  0  0  0  0  0  0  0  0  0  0
   -4.4549    0.6926  -11.9027 C   0  0  0  0  0  0  0  0  0  0  0  0
   -3.4641    1.6235  -12.5879 C   0  0  0  0  0  0  0  0  0  0  0  0
   -5.2105   -0.4576   -8.9646 C   0  0  0  0  0  0  0  0  0  0  0  0
   -5.3939   -1.8048   -8.6564 C   0  0  0  0  0  0  0  0  0  0  0  0
   -2.9345    2.7261   -8.6518 C   0  0  0  0  0  0  0  0  0  0  0  0
   -3.1219    3.3418   -7.4138 C   0  0  0  0  0  0  0  0  0  0  0  0
   -4.5156    2.7007   -6.6829 S   0  0  0  0  0  0  0  0  0  0  0  0
   -2.0951    4.1247   -6.7108 C   0  0  0  0  0  0  0  0  0  0  0  0
   -2.3779    5.1814   -5.4044 S   0  0  0  0  0  0  0  0  0  0  0  0
   -0.7447    5.4511   -5.1167 C   0  0  0  0  0  0  0  0  0  0  0  0
   -0.0052    6.0194   -3.9987 C   0  0  0  0  0  0  0  0  0  0  0  0
    1.3198    5.6741   -3.9535 C   0  0  0  0  0  0  0  0  0  0  0  0
    1.8515    4.5701   -5.4285 Ge  0  0  0  0  0  4  0  0  0  0  0  0
    2.3724    2.7641   -4.9047 C   0  0  0  0  0  0  0  0  0  0  0  0
    1.3887    2.1912   -3.8958 C   0  0  0  0  0  0  0  0  0  0  0  0
    3.0640    5.4443   -6.6763 C   0  0  0  0  0  0  0  0  0  0  0  0
    4.4488    5.5911   -6.0628 C   0  0  0  0  0  0  0  0  0  0  0  0
    0.0149    4.6894   -5.9676 C   0  0  0  0  0  0  0  0  0  0  0  0
   -0.7171    3.9413   -6.8809 C   0  0  0  0  0  0  0  0  0  0  0  0
    1.9860    6.0908   -2.8061 C   0  0  0  0  0  0  0  0  0  0  0  0
    1.1374    6.8164   -1.9635 C   0  0  0  0  0  0  0  0  0  0  0  0
   -0.4291    6.8880   -2.6294 S   0  0  0  0  0  0  0  0  0  0  0  0
    1.5034    7.3250   -0.6379 C   0  0  0  0  0  0  0  0  0  0  0  0
    0.9999    8.4783   -0.0412 C   0  0  0  0  0  0  0  0  0  0  0  0
    1.4792    8.6666    1.2666 C   0  0  0  0  0  0  0  0  0  0  0  0
    1.1662    9.7384    2.1226 C   0  0  0  0  0  0  0  0  0  0  0  0
    0.3394   10.8706    1.6792 C   0  0  0  0  0  0  0  0  0  0  0  0
    0.8571   12.0709    0.6205 S   0  0  0  0  0  0  0  0  0  0  0  0
   -0.5610   12.9755    0.6772 C   0  0  0  0  0  0  0  0  0  0  0  0
   -0.7928   14.2390   -0.0956 C   0  0  0  0  0  0  0  0  0  0  0  0
   -1.2409   13.9244   -1.5192 C   0  0  0  0  0  0  0  0  0  0  0  0
   -1.4700   12.3315    1.5165 C   0  0  0  0  0  0  0  0  0  0  0  0
   -3.0988   12.9159    1.8215 Cl  0  0  0  0  0  0  0  0  0  0  0  0
   -0.9577   11.1584    2.0925 C   0  0  0  0  0  0  0  0  0  0  0  0
   -1.8679   10.1347    3.1931 Cl  0  0  0  0  0  0  0  0  0  0  0  0
    1.7047    9.6974    3.4186 C   0  0  0  0  0  0  0  0  0  0  0  0
    2.5272    8.6576    3.8614 C   0  0  0  0  0  0  0  0  0  0  0  0
    2.8666    7.5956    2.9953 C   0  0  0  0  0  0  0  0  0  0  0  0
    3.6972    6.4586    3.4333 C   0  0  0  0  0  0  0  0  0  0  0  0
    3.1790    4.8590    3.4731 S   0  0  0  0  0  0  0  0  0  0  0  0
    4.6106    4.2149    4.0765 C   0  0  0  0  0  0  0  0  0  0  0  0
    4.8023    2.7728    4.4374 C   0  0  0  0  0  0  0  0  0  0  0  0
    4.2133    2.4816    5.8110 C   0  0  0  0  0  0  0  0  0  0  0  0
    5.5187    5.2562    4.2686 C   0  0  0  0  0  0  0  0  0  0  0  0
    5.0119    6.5131    3.8981 C   0  0  0  0  0  0  0  0  0  0  0  0
    5.9628    7.9917    3.9656 Cl  0  0  0  0  0  0  0  0  0  0  0  0
    7.1412    5.0239    4.9076 Cl  0  0  0  0  0  0  0  0  0  0  0  0
    2.3223    7.6375    1.6993 C   0  0  0  0  0  0  0  0  0  0  0  0
    2.5209    6.5299    0.4475 S   0  0  0  0  0  0  0  0  0  0  0  0
    2.9150    8.8033    5.2037 C   0  0  0  0  0  0  0  0  0  0  0  0
    2.4220    9.9627    5.7949 C   0  0  0  0  0  0  0  0  0  0  0  0
    1.4911   10.8019    4.6673 S   0  0  0  0  0  0  0  0  0  0  0  0
    6.1328   -8.5173   13.1234 H   0  0  0  0  0  0  0  0  0  0  0  0
    6.8824   -3.9780    7.7737 H   0  0  0  0  0  0  0  0  0  0  0  0
    7.8773   -4.6672    9.1154 H   0  0  0  0  0  0  0  0  0  0  0  0
    7.8479   -6.1992    7.1529 H   0  0  0  0  0  0  0  0  0  0  0  0
    6.0446   -6.2750    7.2160 H   0  0  0  0  0  0  0  0  0  0  0  0
    7.0309   -6.9623    8.5729 H   0  0  0  0  0  0  0  0  0  0  0  0
    4.3668   -2.9959   11.3212 H   0  0  0  0  0  0  0  0  0  0  0  0
    5.0356   -2.1653    9.8617 H   0  0  0  0  0  0  0  0  0  0  0  0
    6.3835   -1.6234   11.8853 H   0  0  0  0  0  0  0  0  0  0  0  0
    6.6933   -3.3813   12.1693 H   0  0  0  0  0  0  0  0  0  0  0  0
    7.3655   -2.5620   10.6979 H   0  0  0  0  0  0  0  0  0  0  0  0
    7.0355   -6.2302   12.2002 H   0  0  0  0  0  0  0  0  0  0  0  0
    3.3776   -4.1199    7.1651 H   0  0  0  0  0  0  0  0  0  0  0  0
    0.3218   -7.8152    6.2923 H   0  0  0  0  0  0  0  0  0  0  0  0
   -3.2242  -11.1912    7.4099 H   0  0  0  0  0  0  0  0  0  0  0  0
   -2.5742  -12.5915    6.4940 H   0  0  0  0  0  0  0  0  0  0  0  0
   -4.4429  -12.4057    4.8487 H   0  0  0  0  0  0  0  0  0  0  0  0
   -5.0818  -10.9511    5.7199 H   0  0  0  0  0  0  0  0  0  0  0  0
   -5.0805  -12.5645    6.5283 H   0  0  0  0  0  0  0  0  0  0  0  0
    2.7555   -0.7134    0.5191 H   0  0  0  0  0  0  0  0  0  0  0  0
    1.3373    0.3194    0.1498 H   0  0  0  0  0  0  0  0  0  0  0  0
    2.8437    0.2241    2.8472 H   0  0  0  0  0  0  0  0  0  0  0  0
    1.4310    1.2904    2.4596 H   0  0  0  0  0  0  0  0  0  0  0  0
    2.9912    1.5089    1.5861 H   0  0  0  0  0  0  0  0  0  0  0  0
   -1.5330   -4.3305    0.3811 H   0  0  0  0  0  0  0  0  0  0  0  0
   -5.1713   -6.3358   -0.6943 H   0  0  0  0  0  0  0  0  0  0  0  0
   -9.7968   -5.0323    0.5996 H   0  0  0  0  0  0  0  0  0  0  0  0
  -10.7973   -6.2996   -0.1920 H   0  0  0  0  0  0  0  0  0  0  0  0
  -11.9644   -4.0905   -0.1715 H   0  0  0  0  0  0  0  0  0  0  0  0
  -11.6201   -4.6146   -1.8602 H   0  0  0  0  0  0  0  0  0  0  0  0
  -10.5977   -3.3423   -1.0772 H   0  0  0  0  0  0  0  0  0  0  0  0
    2.3518   -3.4492   -6.7208 H   0  0  0  0  0  0  0  0  0  0  0  0
    1.9505   -5.1570   -7.0838 H   0  0  0  0  0  0  0  0  0  0  0  0
    2.7133   -4.0819   -4.2871 H   0  0  0  0  0  0  0  0  0  0  0  0
    3.8249   -4.9358   -5.4228 H   0  0  0  0  0  0  0  0  0  0  0  0
    2.4093   -5.8114   -4.7306 H   0  0  0  0  0  0  0  0  0  0  0  0
   -3.6180   -3.3443   -6.9323 H   0  0  0  0  0  0  0  0  0  0  0  0
   -1.3572    0.0648  -10.4145 H   0  0  0  0  0  0  0  0  0  0  0  0
   -2.1687   -1.5464  -10.5268 H   0  0  0  0  0  0  0  0  0  0  0  0
   -0.7792   -1.3632   -8.4557 H   0  0  0  0  0  0  0  0  0  0  0  0
   -2.5244   -1.5193   -8.0340 H   0  0  0  0  0  0  0  0  0  0  0  0
   -1.7108    0.0944   -7.9374 H   0  0  0  0  0  0  0  0  0  0  0  0
   -4.5393   -0.2549  -12.4750 H   0  0  0  0  0  0  0  0  0  0  0  0
   -5.4528    1.1773  -11.8594 H   0  0  0  0  0  0  0  0  0  0  0  0
   -3.8378    1.8832  -13.6012 H   0  0  0  0  0  0  0  0  0  0  0  0
   -3.3492    2.5589  -12.0000 H   0  0  0  0  0  0  0  0  0  0  0  0
   -2.4761    1.1246  -12.6851 H   0  0  0  0  0  0  0  0  0  0  0  0
   -4.9262   -2.6031   -9.2176 H   0  0  0  0  0  0  0  0  0  0  0  0
   -2.0390    2.8297   -9.2518 H   0  0  0  0  0  0  0  0  0  0  0  0
    3.3898    2.7989   -4.4591 H   0  0  0  0  0  0  0  0  0  0  0  0
    2.3954    2.1207   -5.8109 H   0  0  0  0  0  0  0  0  0  0  0  0
    1.6955    1.1585   -3.6272 H   0  0  0  0  0  0  0  0  0  0  0  0
    0.3670    2.1583   -4.3302 H   0  0  0  0  0  0  0  0  0  0  0  0
    1.3800    2.8121   -2.9747 H   0  0  0  0  0  0  0  0  0  0  0  0
    2.6621    6.4472   -6.9306 H   0  0  0  0  0  0  0  0  0  0  0  0
    3.1266    4.8351   -7.6016 H   0  0  0  0  0  0  0  0  0  0  0  0
    5.1404    6.0399   -6.8070 H   0  0  0  0  0  0  0  0  0  0  0  0
    4.8453    4.5980   -5.7642 H   0  0  0  0  0  0  0  0  0  0  0  0
    4.4034    6.2525   -5.1697 H   0  0  0  0  0  0  0  0  0  0  0  0
   -0.2730    3.2239   -7.5576 H   0  0  0  0  0  0  0  0  0  0  0  0
    3.0198    5.8590   -2.5864 H   0  0  0  0  0  0  0  0  0  0  0  0
    0.3150    9.1543   -0.5381 H   0  0  0  0  0  0  0  0  0  0  0  0
   -1.5646   14.8611    0.4073 H   0  0  0  0  0  0  0  0  0  0  0  0
    0.1474   14.8299   -0.1256 H   0  0  0  0  0  0  0  0  0  0  0  0
   -1.4219   14.8725   -2.0686 H   0  0  0  0  0  0  0  0  0  0  0  0
   -2.1797   13.3313   -1.5091 H   0  0  0  0  0  0  0  0  0  0  0  0
   -0.4505   13.3542   -2.0530 H   0  0  0  0  0  0  0  0  0  0  0  0
    5.8815    2.5104    4.4306 H   0  0  0  0  0  0  0  0  0  0  0  0
    4.2981    2.1395    3.6812 H   0  0  0  0  0  0  0  0  0  0  0  0
    3.1331    2.7373    5.8320 H   0  0  0  0  0  0  0  0  0  0  0  0
    4.7406    3.0723    6.5894 H   0  0  0  0  0  0  0  0  0  0  0  0
    4.3249    1.4028    6.0446 H   0  0  0  0  0  0  0  0  0  0  0  0
    3.5254    8.0915    5.7413 H   0  0  0  0  0  0  0  0  0  0  0  0
    2.6040   10.2704    6.8166 H   0  0  0  0  0  0  0  0  0  0  0  0
  1  2  1  0
  2  3  1  0
  3  4  1  0
  4  5  2  0
  5  6  1  0
  6  7  1  0
  7  8  1  0
  6  9  1  0
  9 10  1  0
  6 11  1  0
 11 12  1  0
  5 13  1  0
 13 14  2  0
 14 15  1  0
 14 16  1  0
 16 17  2  0
 17 18  1  0
 18 19  2  0
 19 20  1  0
 20 21  1  0
 21 22  1  0
 22 23  1  0
 23 24  1  0
 22 25  2  0
 25 26  1  0
 25 27  1  0
 27 28  1  0
 19 29  1  0
 29 30  2  0
 30 31  1  0
 31 32  1  0
 32 33  1  0
 33 34  1  0
 34 35  1  0
 35 36  1  0
 34 37  2  0
 37 38  1  0
 38 39  1  0
 37 40  1  0
 31 41  2  0
 41 42  1  0
 30 43  1  0
 43 44  2  0
 44 45  1  0
 44 46  1  0
 46 47  2  0
 47 48  1  0
 48 49  2  0
 49 50  1  0
 50 51  1  0
 51 52  1  0
 52 53  1  0
 53 54  1  0
 52 55  2  0
 55 56  1  0
 55 57  1  0
 57 58  1  0
 49 59  1  0
 59 60  2  0
 60 61  1  0
 61 62  1  0
 62 63  1  0
 63 64  1  0
 64 65  1  0
 65 66  1  0
 64 67  2  0
 67 68  1  0
 68 69  1  0
 67 70  1  0
 61 71  2  0
 71 72  1  0
 60 73  1  0
 73 74  2  0
 74 75  1  0
 74 76  1  0
 76 77  1  0
 77 78  1  0
 78 79  1  0
 79 80  2  0
 80 81  1  0
 81 82  1  0
 82 83  1  0
 81 84  1  0
 84 85  1  0
 81 86  1  0
 86 87  1  0
 80 88  1  0
 88 89  2  0
 89 90  1  0
 89 91  1  0
 91 92  1  0
 92 93  1  0
 93 94  1  0
 94 95  2  0
 95 96  1  0
 96 97  1  0
 97 98  1  0
 96 99  1  0
 99100  1  0
 96101  1  0
101102  1  0
 95103  1  0
103104  2  0
104105  1  0
104106  1  0
106107  2  0
107108  1  0
108109  2  0
109110  1  0
110111  1  0
111112  1  0
112113  1  0
113114  1  0
112115  2  0
115116  1  0
115117  1  0
117118  1  0
109119  1  0
119120  2  0
120121  1  0
121122  1  0
122123  1  0
123124  1  0
124125  1  0
125126  1  0
124127  2  0
127128  1  0
128129  1  0
127130  1  0
121131  2  0
131132  1  0
120133  1  0
133134  2  0
134135  1  0
 12  1  2  0
 42 16  1  0
 72 46  1  0
 87 76  2  0
102 91  2  0
132106  1  0
 11  3  2  0
 41 18  1  0
 71 48  1  0
 86 78  2  0
101 93  2  0
131108  1  0
 15  4  1  0
 27 20  2  0
 45 29  1  0
 57 50  2  0
 75 59  1  0
 90 79  1  0
105 94  1  0
117110  2  0
135119  1  0
 38 32  2  0
 68 62  2  0
128122  2  0
  1136  1  0
  7137  1  0
  7138  1  0
  8139  1  0
  8140  1  0
  8141  1  0
  9142  1  0
  9143  1  0
 10144  1  0
 10145  1  0
 10146  1  0
 12147  1  0
 13148  1  0
 17149  1  0
 23150  1  0
 23151  1  0
 24152  1  0
 24153  1  0
 24154  1  0
 35155  1  0
 35156  1  0
 36157  1  0
 36158  1  0
 36159  1  0
 43160  1  0
 47161  1  0
 53162  1  0
 53163  1  0
 54164  1  0
 54165  1  0
 54166  1  0
 65167  1  0
 65168  1  0
 66169  1  0
 66170  1  0
 66171  1  0
 73172  1  0
 82173  1  0
 82174  1  0
 83175  1  0
 83176  1  0
 83177  1  0
 84178  1  0
 84179  1  0
 85180  1  0
 85181  1  0
 85182  1  0
 87183  1  0
 88184  1  0
 97185  1  0
 97186  1  0
 98187  1  0
 98188  1  0
 98189  1  0
 99190  1  0
 99191  1  0
100192  1  0
100193  1  0
100194  1  0
102195  1  0
103196  1  0
107197  1  0
113198  1  0
113199  1  0
114200  1  0
114201  1  0
114202  1  0
125203  1  0
125204  1  0
126205  1  0
126206  1  0
126207  1  0
133208  1  0
134209  1  0
M  END

