
     RDKit          3D

210235  0  0  0  0  0  0  0  0999 V2000
   -2.3457    1.0269   10.5788 C   0  0  0  0  0  0  0  0  0  0  0  0
   -1.7338    1.1916    9.3383 C   0  0  0  0  0  0  0  0  0  0  0  0
   -2.3480    0.4534    8.3128 C   0  0  0  0  0  0  0  0  0  0  0  0
   -1.9760    0.4327    6.9511 C   0  0  0  0  0  0  0  0  0  0  0  0
   -0.8773    1.2682    6.4352 C   0  0  0  0  0  0  0  0  0  0  0  0
    0.7308    1.1587    6.9182 S   0  0  0  0  0  0  0  0  0  0  0  0
    1.2484    2.5591    6.1361 C   0  0  0  0  0  0  0  0  0  0  0  0
    2.6024    3.1747    6.3267 C   0  0  0  0  0  0  0  0  0  0  0  0
    2.6317    3.9934    7.6110 C   0  0  0  0  0  0  0  0  0  0  0  0
    0.1562    3.1479    5.5055 C   0  0  0  0  0  0  0  0  0  0  0  0
    0.2304    4.6898    4.6694 Cl  0  0  0  0  0  0  0  0  0  0  0  0
   -1.0355    2.4184    5.6643 C   0  0  0  0  0  0  0  0  0  0  0  0
   -2.5926    2.9774    5.0714 Cl  0  0  0  0  0  0  0  0  0  0  0  0
   -2.7547   -0.3631    6.0921 C   0  0  0  0  0  0  0  0  0  0  0  0
   -3.8794   -1.0705    6.5333 C   0  0  0  0  0  0  0  0  0  0  0  0
   -4.2551   -1.0340    7.8885 C   0  0  0  0  0  0  0  0  0  0  0  0
   -5.4425   -1.7560    8.3710 C   0  0  0  0  0  0  0  0  0  0  0  0
   -7.0146   -1.4510    7.8540 S   0  0  0  0  0  0  0  0  0  0  0  0
   -7.7161   -2.7753    8.6190 C   0  0  0  0  0  0  0  0  0  0  0  0
   -9.1322   -3.2140    8.3975 C   0  0  0  0  0  0  0  0  0  0  0  0
   -9.2264   -4.0884    7.1510 C   0  0  0  0  0  0  0  0  0  0  0  0
   -6.7126   -3.4961    9.2673 C   0  0  0  0  0  0  0  0  0  0  0  0
   -5.4402   -2.9147    9.1394 C   0  0  0  0  0  0  0  0  0  0  0  0
   -3.9754   -3.6483    9.7791 Cl  0  0  0  0  0  0  0  0  0  0  0  0
   -6.9973   -5.0167   10.0922 Cl  0  0  0  0  0  0  0  0  0  0  0  0
   -3.4531   -0.2754    8.7553 C   0  0  0  0  0  0  0  0  0  0  0  0
   -3.6620   -0.0132   10.4044 S   0  0  0  0  0  0  0  0  0  0  0  0
   -4.5159   -1.7968    5.5169 C   0  0  0  0  0  0  0  0  0  0  0  0
   -3.8725   -1.6749    4.2893 C   0  0  0  0  0  0  0  0  0  0  0  0
   -2.5279   -0.6605    4.4512 S   0  0  0  0  0  0  0  0  0  0  0  0
   -4.3136   -2.2858    3.0328 C   0  0  0  0  0  0  0  0  0  0  0  0
   -3.4764   -2.5909    1.9662 C   0  0  0  0  0  0  0  0  0  0  0  0
   -4.1752   -2.9724    0.8103 C   0  0  0  0  0  0  0  0  0  0  0  0
   -3.6119   -3.2408   -0.4566 C   0  0  0  0  0  0  0  0  0  0  0  0
   -2.1525   -3.3376   -0.6494 C   0  0  0  0  0  0  0  0  0  0  0  0
   -1.0493   -2.1169   -0.2961 S   0  0  0  0  0  0  0  0  0  0  0  0
    0.3338   -3.0627   -0.4144 C   0  0  0  0  0  0  0  0  0  0  0  0
    1.6886   -2.6079    0.0290 C   0  0  0  0  0  0  0  0  0  0  0  0
    1.7346   -2.5225    1.5554 C   0  0  0  0  0  0  0  0  0  0  0  0
   -0.0541   -4.3711   -0.7099 C   0  0  0  0  0  0  0  0  0  0  0  0
    1.0699   -5.7188   -0.7841 Cl  0  0  0  0  0  0  0  0  0  0  0  0
   -1.4464   -4.5211   -0.8500 C   0  0  0  0  0  0  0  0  0  0  0  0
   -2.2238   -6.0722   -1.1092 Cl  0  0  0  0  0  0  0  0  0  0  0  0
   -4.5071   -3.4443   -1.5206 C   0  0  0  0  0  0  0  0  0  0  0  0
   -5.8939   -3.4192   -1.3526 C   0  0  0  0  0  0  0  0  0  0  0  0
   -6.4584   -3.2078   -0.0758 C   0  0  0  0  0  0  0  0  0  0  0  0
   -7.9105   -3.0259    0.1093 C   0  0  0  0  0  0  0  0  0  0  0  0
   -8.8161   -1.7908   -0.5789 S   0  0  0  0  0  0  0  0  0  0  0  0
  -10.2846   -2.2078    0.1331 C   0  0  0  0  0  0  0  0  0  0  0  0
  -11.6001   -1.5283   -0.1477 C   0  0  0  0  0  0  0  0  0  0  0  0
  -11.4801   -0.0113   -0.0349 C   0  0  0  0  0  0  0  0  0  0  0  0
  -10.0834   -3.3475    0.9133 C   0  0  0  0  0  0  0  0  0  0  0  0
   -8.7511   -3.7942    0.9134 C   0  0  0  0  0  0  0  0  0  0  0  0
   -8.2046   -5.2131    1.7921 Cl  0  0  0  0  0  0  0  0  0  0  0  0
  -11.3654   -4.1678    1.7928 Cl  0  0  0  0  0  0  0  0  0  0  0  0
   -5.5645   -2.9916    0.9874 C   0  0  0  0  0  0  0  0  0  0  0  0
   -5.9227   -2.5181    2.5692 S   0  0  0  0  0  0  0  0  0  0  0  0
   -6.5968   -3.5349   -2.5584 C   0  0  0  0  0  0  0  0  0  0  0  0
   -5.7680   -3.6196   -3.6787 C   0  0  0  0  0  0  0  0  0  0  0  0
   -4.1542   -3.5861   -3.1606 S   0  0  0  0  0  0  0  0  0  0  0  0
   -6.2242   -3.5440   -5.0850 C   0  0  0  0  0  0  0  0  0  0  0  0
   -5.3292   -3.7030   -6.1612 C   0  0  0  0  0  0  0  0  0  0  0  0
   -5.7089   -3.4317   -7.4890 C   0  0  0  0  0  0  0  0  0  0  0  0
   -7.0607   -3.0101   -7.9166 C   0  0  0  0  0  0  0  0  0  0  0  0
   -8.1497   -2.8384   -7.0831 C   0  0  0  0  0  0  0  0  0  0  0  0
   -7.8426   -3.0927   -5.4391 S   0  0  0  0  0  0  0  0  0  0  0  0
   -6.9713   -2.8600   -9.2723 C   0  0  0  0  0  0  0  0  0  0  0  0
   -5.7219   -3.1438   -9.7015 C   0  0  0  0  0  0  0  0  0  0  0  0
   -5.5485   -3.0945  -11.0785 C   0  0  0  0  0  0  0  0  0  0  0  0
   -6.7494   -2.7443  -11.7175 C   0  0  0  0  0  0  0  0  0  0  0  0
   -7.9875   -2.5156  -10.5620 S   0  0  0  0  0  0  0  0  0  0  0  0
   -4.9040   -3.4766   -8.6391 C   0  0  0  0  0  0  0  0  0  0  0  0
   -3.5805   -4.0894   -8.7764 C   0  0  0  0  0  0  0  0  0  0  0  0
   -2.4291   -3.4198   -8.6877 C   0  0  0  0  0  0  0  0  0  0  0  0
   -2.2578   -2.0569   -8.1508 C   0  0  0  0  0  0  0  0  0  0  0  0
   -1.1603   -1.2617   -8.4846 C   0  0  0  0  0  0  0  0  0  0  0  0
   -0.8662   -0.2850   -7.5181 C   0  0  0  0  0  0  0  0  0  0  0  0
    0.2944    0.5118   -7.4909 C   0  0  0  0  0  0  0  0  0  0  0  0
    1.1773    0.6384   -8.6674 C   0  0  0  0  0  0  0  0  0  0  0  0
    2.8065    0.2270   -8.7188 S   0  0  0  0  0  0  0  0  0  0  0  0
    3.0847    0.7830  -10.2812 C   0  0  0  0  0  0  0  0  0  0  0  0
    4.4320    0.8275  -10.9390 C   0  0  0  0  0  0  0  0  0  0  0  0
    5.2151    2.0397  -10.4513 C   0  0  0  0  0  0  0  0  0  0  0  0
    1.9024    1.3243  -10.7801 C   0  0  0  0  0  0  0  0  0  0  0  0
    1.7757    2.1121  -12.3460 Cl  0  0  0  0  0  0  0  0  0  0  0  0
    0.8295    1.2317   -9.8791 C   0  0  0  0  0  0  0  0  0  0  0  0
   -0.7675    1.8866  -10.2139 Cl  0  0  0  0  0  0  0  0  0  0  0  0
    0.5943    1.1471   -6.2752 C   0  0  0  0  0  0  0  0  0  0  0  0
   -0.2470    1.0877   -5.1608 C   0  0  0  0  0  0  0  0  0  0  0  0
   -1.4950    0.4259   -5.2484 C   0  0  0  0  0  0  0  0  0  0  0  0
   -2.5099    0.4941   -4.1762 C   0  0  0  0  0  0  0  0  0  0  0  0
   -2.2833    0.0482   -2.5759 S   0  0  0  0  0  0  0  0  0  0  0  0
   -3.7441    0.6330   -1.9905 C   0  0  0  0  0  0  0  0  0  0  0  0
   -4.0854    0.7053   -0.5281 C   0  0  0  0  0  0  0  0  0  0  0  0
   -5.4831    0.1737   -0.2303 C   0  0  0  0  0  0  0  0  0  0  0  0
   -4.4352    1.2072   -3.0579 C   0  0  0  0  0  0  0  0  0  0  0  0
   -3.7541    1.1107   -4.2842 C   0  0  0  0  0  0  0  0  0  0  0  0
   -4.3638    1.8082   -5.7793 Cl  0  0  0  0  0  0  0  0  0  0  0  0
   -5.9640    2.0564   -2.8995 Cl  0  0  0  0  0  0  0  0  0  0  0  0
   -1.7431   -0.2953   -6.4304 C   0  0  0  0  0  0  0  0  0  0  0  0
   -2.8765   -1.5157   -6.6729 S   0  0  0  0  0  0  0  0  0  0  0  0
    0.3618    1.5926   -3.9960 C   0  0  0  0  0  0  0  0  0  0  0  0
    1.6841    2.0026   -4.1854 C   0  0  0  0  0  0  0  0  0  0  0  0
    2.0578    1.8139   -5.8159 S   0  0  0  0  0  0  0  0  0  0  0  0
    2.7149    1.7579   -3.1774 C   0  0  0  0  0  0  0  0  0  0  0  0
    3.1235    2.5926   -2.1346 C   0  0  0  0  0  0  0  0  0  0  0  0
    4.1504    2.0165   -1.3558 C   0  0  0  0  0  0  0  0  0  0  0  0
    4.7752    2.5798   -0.2244 C   0  0  0  0  0  0  0  0  0  0  0  0
    4.4488    3.9363    0.2486 C   0  0  0  0  0  0  0  0  0  0  0  0
    4.8022    5.3460   -0.5964 S   0  0  0  0  0  0  0  0  0  0  0  0
    4.2582    6.4041    0.5917 C   0  0  0  0  0  0  0  0  0  0  0  0
    4.3766    7.8946    0.5166 C   0  0  0  0  0  0  0  0  0  0  0  0
    5.6969    8.3633    1.1203 C   0  0  0  0  0  0  0  0  0  0  0  0
    3.8052    5.6592    1.6807 C   0  0  0  0  0  0  0  0  0  0  0  0
    3.2077    6.3806    3.1692 Cl  0  0  0  0  0  0  0  0  0  0  0  0
    3.9069    4.2726    1.4846 C   0  0  0  0  0  0  0  0  0  0  0  0
    3.3778    3.0825    2.6639 Cl  0  0  0  0  0  0  0  0  0  0  0  0
    5.7736    1.8072    0.4032 C   0  0  0  0  0  0  0  0  0  0  0  0
    6.1520    0.5427   -0.0606 C   0  0  0  0  0  0  0  0  0  0  0  0
    5.5088   -0.0344   -1.1728 C   0  0  0  0  0  0  0  0  0  0  0  0
    5.8301   -1.3941   -1.6625 C   0  0  0  0  0  0  0  0  0  0  0  0
    6.2480   -1.7657   -3.2498 S   0  0  0  0  0  0  0  0  0  0  0  0
    6.2817   -3.4324   -3.0496 C   0  0  0  0  0  0  0  0  0  0  0  0
    6.6288   -4.4139   -4.1280 C   0  0  0  0  0  0  0  0  0  0  0  0
    8.1363   -4.6202   -4.2026 C   0  0  0  0  0  0  0  0  0  0  0  0
    5.9830   -3.7280   -1.7234 C   0  0  0  0  0  0  0  0  0  0  0  0
    5.7248   -2.5876   -0.9456 C   0  0  0  0  0  0  0  0  0  0  0  0
    5.2658   -2.6811    0.7489 Cl  0  0  0  0  0  0  0  0  0  0  0  0
    5.9017   -5.3653   -1.0859 Cl  0  0  0  0  0  0  0  0  0  0  0  0
    4.5198    0.7403   -1.7994 C   0  0  0  0  0  0  0  0  0  0  0  0
    3.5874    0.3206   -3.1214 S   0  0  0  0  0  0  0  0  0  0  0  0
    7.2002   -0.0290    0.6761 C   0  0  0  0  0  0  0  0  0  0  0  0
    7.6198    0.7640    1.7446 C   0  0  0  0  0  0  0  0  0  0  0  0
    6.7193    2.2005    1.7414 S   0  0  0  0  0  0  0  0  0  0  0  0
    8.6570    0.3836    2.7245 C   0  0  0  0  0  0  0  0  0  0  0  0
    8.7644    1.0316    3.9716 C   0  0  0  0  0  0  0  0  0  0  0  0
    9.7086    0.6347    4.9373 C   0  0  0  0  0  0  0  0  0  0  0  0
   10.6969   -0.4481    4.7570 C   0  0  0  0  0  0  0  0  0  0  0  0
   10.8169   -1.2542    3.6407 C   0  0  0  0  0  0  0  0  0  0  0  0
    9.7280   -0.9121    2.3890 S   0  0  0  0  0  0  0  0  0  0  0  0
   11.3803   -0.5051    5.9418 C   0  0  0  0  0  0  0  0  0  0  0  0
   10.9070    0.4148    6.8151 C   0  0  0  0  0  0  0  0  0  0  0  0
   11.4778    0.3363    8.0888 C   0  0  0  0  0  0  0  0  0  0  0  0
   12.4367   -0.6879    8.1473 C   0  0  0  0  0  0  0  0  0  0  0  0
   12.5425   -1.4868    6.6473 S   0  0  0  0  0  0  0  0  0  0  0  0
    9.8786    1.1518    6.2333 C   0  0  0  0  0  0  0  0  0  0  0  0
    9.0592    2.2040    6.8621 C   0  0  0  0  0  0  0  0  0  0  0  0
    9.5427    3.0479    7.7718 C   0  0  0  0  0  0  0  0  0  0  0  0
   -2.0348    1.5067   11.4948 H   0  0  0  0  0  0  0  0  0  0  0  0
   -0.8797    1.8393    9.2009 H   0  0  0  0  0  0  0  0  0  0  0  0
    2.8531    3.8286    5.4687 H   0  0  0  0  0  0  0  0  0  0  0  0
    3.3662    2.3718    6.3821 H   0  0  0  0  0  0  0  0  0  0  0  0
    3.6466    4.4144    7.7636 H   0  0  0  0  0  0  0  0  0  0  0  0
    2.3766    3.3550    8.4855 H   0  0  0  0  0  0  0  0  0  0  0  0
    1.9023    4.8302    7.5492 H   0  0  0  0  0  0  0  0  0  0  0  0
   -9.7710   -2.3163    8.2681 H   0  0  0  0  0  0  0  0  0  0  0  0
   -9.5004   -3.7764    9.2793 H   0  0  0  0  0  0  0  0  0  0  0  0
  -10.2860   -4.3501    6.9530 H   0  0  0  0  0  0  0  0  0  0  0  0
   -8.8177   -3.5531    6.2634 H   0  0  0  0  0  0  0  0  0  0  0  0
   -8.6508   -5.0296    7.2981 H   0  0  0  0  0  0  0  0  0  0  0  0
   -5.3914   -2.4113    5.6647 H   0  0  0  0  0  0  0  0  0  0  0  0
   -2.4051   -2.4919    2.0280 H   0  0  0  0  0  0  0  0  0  0  0  0
    2.4717   -3.3082   -0.3323 H   0  0  0  0  0  0  0  0  0  0  0  0
    1.8933   -1.6057   -0.4062 H   0  0  0  0  0  0  0  0  0  0  0  0
    0.9571   -1.8243    1.9307 H   0  0  0  0  0  0  0  0  0  0  0  0
    2.7238   -2.1470    1.8854 H   0  0  0  0  0  0  0  0  0  0  0  0
    1.5675   -3.5273    1.9972 H   0  0  0  0  0  0  0  0  0  0  0  0
  -11.9352   -1.7951   -1.1728 H   0  0  0  0  0  0  0  0  0  0  0  0
  -12.3725   -1.8693    0.5715 H   0  0  0  0  0  0  0  0  0  0  0  0
  -10.7963    0.3854   -0.8157 H   0  0  0  0  0  0  0  0  0  0  0  0
  -12.4757    0.4554   -0.1848 H   0  0  0  0  0  0  0  0  0  0  0  0
  -11.0966    0.2742    0.9682 H   0  0  0  0  0  0  0  0  0  0  0  0
   -7.6768   -3.5179   -2.6255 H   0  0  0  0  0  0  0  0  0  0  0  0
   -4.3034   -3.9878   -5.9667 H   0  0  0  0  0  0  0  0  0  0  0  0
   -9.1238   -2.5383   -7.4457 H   0  0  0  0  0  0  0  0  0  0  0  0
   -4.6215   -3.3136  -11.5979 H   0  0  0  0  0  0  0  0  0  0  0  0
   -6.8710   -2.6446  -12.7888 H   0  0  0  0  0  0  0  0  0  0  0  0
   -3.5550   -5.1040   -9.1448 H   0  0  0  0  0  0  0  0  0  0  0  0
   -1.5315   -3.9331   -9.0125 H   0  0  0  0  0  0  0  0  0  0  0  0
   -0.5183   -1.4776   -9.3288 H   0  0  0  0  0  0  0  0  0  0  0  0
    4.9945   -0.0977  -10.6871 H   0  0  0  0  0  0  0  0  0  0  0  0
    4.3255    0.8673  -12.0440 H   0  0  0  0  0  0  0  0  0  0  0  0
    5.3963    1.9621   -9.3595 H   0  0  0  0  0  0  0  0  0  0  0  0
    4.6568    2.9748  -10.6691 H   0  0  0  0  0  0  0  0  0  0  0  0
    6.1962    2.0855  -10.9706 H   0  0  0  0  0  0  0  0  0  0  0  0
   -4.0056    1.7597   -0.1831 H   0  0  0  0  0  0  0  0  0  0  0  0
   -3.3472    0.1051    0.0456 H   0  0  0  0  0  0  0  0  0  0  0  0
   -5.5517   -0.1145    0.8379 H   0  0  0  0  0  0  0  0  0  0  0  0
   -6.2491    0.9506   -0.4159 H   0  0  0  0  0  0  0  0  0  0  0  0
   -5.7057   -0.6992   -0.8756 H   0  0  0  0  0  0  0  0  0  0  0  0
   -0.0611    1.5064   -3.0104 H   0  0  0  0  0  0  0  0  0  0  0  0
    2.6952    3.5671   -1.9517 H   0  0  0  0  0  0  0  0  0  0  0  0
    3.5263    8.3718    1.0512 H   0  0  0  0  0  0  0  0  0  0  0  0
    4.3329    8.2089   -0.5474 H   0  0  0  0  0  0  0  0  0  0  0  0
    5.7116    8.1675    2.2135 H   0  0  0  0  0  0  0  0  0  0  0  0
    5.8161    9.4530    0.9514 H   0  0  0  0  0  0  0  0  0  0  0  0
    6.5517    7.8369    0.6423 H   0  0  0  0  0  0  0  0  0  0  0  0
    6.1348   -5.3851   -3.9258 H   0  0  0  0  0  0  0  0  0  0  0  0
    6.2512   -4.0379   -5.1029 H   0  0  0  0  0  0  0  0  0  0  0  0
    8.3673   -5.3760   -4.9821 H   0  0  0  0  0  0  0  0  0  0  0  0
    8.5256   -4.9813   -3.2267 H   0  0  0  0  0  0  0  0  0  0  0  0
    8.6453   -3.6674   -4.4710 H   0  0  0  0  0  0  0  0  0  0  0  0
    7.6337   -0.9981    0.4521 H   0  0  0  0  0  0  0  0  0  0  0  0
    8.0884    1.8444    4.2122 H   0  0  0  0  0  0  0  0  0  0  0  0
   11.5491   -2.0514    3.5726 H   0  0  0  0  0  0  0  0  0  0  0  0
   11.1966    0.9429    8.9371 H   0  0  0  0  0  0  0  0  0  0  0  0
   13.0010   -0.9511    9.0332 H   0  0  0  0  0  0  0  0  0  0  0  0
    8.0378    2.3404    6.5285 H   0  0  0  0  0  0  0  0  0  0  0  0
   10.5775    3.0172    8.0776 H   0  0  0  0  0  0  0  0  0  0  0  0
    8.9062    3.8150    8.1884 H   0  0  0  0  0  0  0  0  0  0  0  0
  1  2  2  0
  2  3  1  0
  3  4  2  0
  4  5  1  0
  5  6  1  0
  6  7  1  0
  7  8  1  0
  8  9  1  0
  7 10  2  0
 10 11  1  0
 10 12  1  0
 12 13  1  0
  4 14  1  0
 14 15  2  0
 15 16  1  0
 16 17  1  0
 17 18  1  0
 18 19  1  0
 19 20  1  0
 20 21  1  0
 19 22  2  0
 22 23  1  0
 23 24  1  0
 22 25  1  0
 16 26  2  0
 26 27  1  0
 15 28  1  0
 28 29  2  0
 29 30  1  0
 29 31  1  0
 31 32  2  0
 32 33  1  0
 33 34  2  0
 34 35  1  0
 35 36  1  0
 36 37  1  0
 37 38  1  0
 38 39  1  0
 37 40  2  0
 40 41  1  0
 40 42  1  0
 42 43  1  0
 34 44  1  0
 44 45  2  0
 45 46  1  0
 46 47  1  0
 47 48  1  0
 48 49  1  0
 49 50  1  0
 50 51  1  0
 49 52  2  0
 52 53  1  0
 53 54  1  0
 52 55  1  0
 46 56  2  0
 56 57  1  0
 45 58  1  0
 58 59  2  0
 59 60  1  0
 59 61  1  0
 61 62  2  0
 62 63  1  0
 63 64  1  0
 64 65  2  0
 65 66  1  0
 64 67  1  0
 67 68  2  0
 68 69  1  0
 69 70  2  0
 70 71  1  0
 68 72  1  0
 72 73  1  0
 73 74  2  3
 74 75  1  0
 75 76  2  0
 76 77  1  0
 77 78  2  0
 78 79  1  0
 79 80  1  0
 80 81  1  0
 81 82  1  0
 82 83  1  0
 81 84  2  0
 84 85  1  0
 84 86  1  0
 86 87  1  0
 78 88  1  0
 88 89  2  0
 89 90  1  0
 90 91  1  0
 91 92  1  0
 92 93  1  0
 93 94  1  0
 94 95  1  0
 93 96  2  0
 96 97  1  0
 97 98  1  0
 96 99  1  0
 90100  2  0
100101  1  0
 89102  1  0
102103  2  0
103104  1  0
103105  1  0
105106  2  0
106107  1  0
107108  2  0
108109  1  0
109110  1  0
110111  1  0
111112  1  0
112113  1  0
111114  2  0
114115  1  0
114116  1  0
116117  1  0
108118  1  0
118119  2  0
119120  1  0
120121  1  0
121122  1  0
122123  1  0
123124  1  0
124125  1  0
123126  2  0
126127  1  0
127128  1  0
126129  1  0
120130  2  0
130131  1  0
119132  1  0
132133  2  0
133134  1  0
133135  1  0
135136  2  0
136137  1  0
137138  1  0
138139  2  0
139140  1  0
138141  1  0
141142  2  0
142143  1  0
143144  2  0
144145  1  0
142146  1  0
146147  1  0
147148  2  3
 27  1  1  0
 57 31  1  0
 66 61  1  0
 71 67  1  0
101 75  1  0
131105  1  0
140135  1  0
145141  1  0
 26  3  1  0
 56 33  1  0
 72 63  2  0
100 77  1  0
130107  1  0
146137  2  0
 12  5  2  0
 30 14  1  0
 42 35  2  0
 60 44  1  0
 86 79  2  0
104 88  1  0
116109  2  0
134118  1  0
 23 17  2  0
 53 47  2  0
 97 91  2  0
127121  2  0
  1149  1  0
  2150  1  0
  8151  1  0
  8152  1  0
  9153  1  0
  9154  1  0
  9155  1  0
 20156  1  0
 20157  1  0
 21158  1  0
 21159  1  0
 21160  1  0
 28161  1  0
 32162  1  0
 38163  1  0
 38164  1  0
 39165  1  0
 39166  1  0
 39167  1  0
 50168  1  0
 50169  1  0
 51170  1  0
 51171  1  0
 51172  1  0
 58173  1  0
 62174  1  0
 65175  1  0
 69176  1  0
 70177  1  0
 73178  1  0
 74179  1  0
 76180  1  0
 82181  1  0
 82182  1  0
 83183  1  0
 83184  1  0
 83185  1  0
 94186  1  0
 94187  1  0
 95188  1  0
 95189  1  0
 95190  1  0
102191  1  0
106192  1  0
112193  1  0
112194  1  0
113195  1  0
113196  1  0
113197  1  0
124198  1  0
124199  1  0
125200  1  0
125201  1  0
125202  1  0
132203  1  0
136204  1  0
139205  1  0
143206  1  0
144207  1  0
147208  1  0
148209  1  0
148210  1  0
M  END

