
     RDKit          3D

242267  0  0  0  0  0  0  0  0999 V2000
    4.8483    0.9494    7.1569 C   0  0  0  0  0  0  0  0  0  0  0  0
    5.9979    1.0312    6.3760 C   0  0  0  0  0  0  0  0  0  0  0  0
    5.7341    1.0222    4.9945 C   0  0  0  0  0  0  0  0  0  0  0  0
    6.6820    1.1218    3.9584 C   0  0  0  0  0  0  0  0  0  0  0  0
    8.1096    1.4039    4.2332 C   0  0  0  0  0  0  0  0  0  0  0  0
    9.1116    0.5281    3.7872 C   0  0  0  0  0  0  0  0  0  0  0  0
   10.4571    0.8149    4.0351 C   0  0  0  0  0  0  0  0  0  0  0  0
   10.8143    1.9818    4.7230 C   0  0  0  0  0  0  0  0  0  0  0  0
   12.5456    2.3272    5.0632 S   0  0  0  0  0  0  0  0  0  0  0  0
   12.8815    3.1237    3.4537 C   0  0  0  0  0  0  0  0  0  0  0  0
   12.3517    4.5529    3.4153 C   0  0  0  0  0  0  0  0  0  0  0  0
    9.8159    2.8544    5.1767 C   0  0  0  0  0  0  0  0  0  0  0  0
   10.1440    3.9783    5.8639 F   0  0  0  0  0  0  0  0  0  0  0  0
    8.4718    2.5712    4.9237 C   0  0  0  0  0  0  0  0  0  0  0  0
    6.1885    1.0521    2.6412 C   0  0  0  0  0  0  0  0  0  0  0  0
    4.8233    0.9623    2.3318 C   0  0  0  0  0  0  0  0  0  0  0  0
    3.8789    0.9162    3.3834 C   0  0  0  0  0  0  0  0  0  0  0  0
    2.4235    0.9743    3.1858 C   0  0  0  0  0  0  0  0  0  0  0  0
    1.6651   -0.1986    3.2974 C   0  0  0  0  0  0  0  0  0  0  0  0
    0.2854   -0.1224    3.5051 C   0  0  0  0  0  0  0  0  0  0  0  0
   -0.3481    1.1217    3.6075 C   0  0  0  0  0  0  0  0  0  0  0  0
   -2.1165    1.2136    3.9050 S   0  0  0  0  0  0  0  0  0  0  0  0
   -2.0151    1.0637    5.7216 C   0  0  0  0  0  0  0  0  0  0  0  0
   -2.1876   -0.3902    6.1448 C   0  0  0  0  0  0  0  0  0  0  0  0
    0.4045    2.2944    3.4665 C   0  0  0  0  0  0  0  0  0  0  0  0
    1.7834    2.2205    3.2508 C   0  0  0  0  0  0  0  0  0  0  0  0
   -0.1885    3.5098    3.5831 F   0  0  0  0  0  0  0  0  0  0  0  0
    4.3766    0.9213    4.6992 C   0  0  0  0  0  0  0  0  0  0  0  0
    3.5080    0.8654    6.1405 S   0  0  0  0  0  0  0  0  0  0  0  0
    4.5619    0.9878    0.9395 C   0  0  0  0  0  0  0  0  0  0  0  0
    5.7346    1.1066    0.1721 C   0  0  0  0  0  0  0  0  0  0  0  0
    7.0565    1.1803    1.2217 S   0  0  0  0  0  0  0  0  0  0  0  0
    5.8759    1.3234   -1.2900 C   0  0  0  0  0  0  0  0  0  0  0  0
    4.9541    0.8684   -2.2668 C   0  0  0  0  0  0  0  0  0  0  0  0
    5.1541    1.1360   -3.6463 C   0  0  0  0  0  0  0  0  0  0  0  0
    6.3363    1.8495   -4.2004 C   0  0  0  0  0  0  0  0  0  0  0  0
    7.3715    2.3949   -3.4779 C   0  0  0  0  0  0  0  0  0  0  0  0
    7.2645    2.1792   -1.8140 S   0  0  0  0  0  0  0  0  0  0  0  0
    6.1403    1.9137   -5.5492 C   0  0  0  0  0  0  0  0  0  0  0  0
    4.9751    1.3343   -5.8818 C   0  0  0  0  0  0  0  0  0  0  0  0
    4.6622    1.4074   -7.2384 C   0  0  0  0  0  0  0  0  0  0  0  0
    5.6705    2.0730   -7.9493 C   0  0  0  0  0  0  0  0  0  0  0  0
    6.9075    2.5718   -6.8839 S   0  0  0  0  0  0  0  0  0  0  0  0
    4.3265    0.8378   -4.7570 C   0  0  0  0  0  0  0  0  0  0  0  0
    2.9750    0.2528   -4.8322 C   0  0  0  0  0  0  0  0  0  0  0  0
    2.8602   -0.9066   -5.4944 C   0  0  0  0  0  0  0  0  0  0  0  0
    1.9861   -1.0880   -6.6817 C   0  0  0  0  0  0  0  0  0  0  0  0
    0.8165   -0.3367   -6.9617 C   0  0  0  0  0  0  0  0  0  0  0  0
    0.1710   -0.4180   -8.2218 C   0  0  0  0  0  0  0  0  0  0  0  0
    0.6232   -1.2707   -9.3480 C   0  0  0  0  0  0  0  0  0  0  0  0
    1.6979   -2.1351   -9.3306 C   0  0  0  0  0  0  0  0  0  0  0  0
    2.5811   -2.1419   -7.8931 S   0  0  0  0  0  0  0  0  0  0  0  0
   -0.2573   -1.0349  -10.3663 C   0  0  0  0  0  0  0  0  0  0  0  0
   -1.1960   -0.1465   -9.9881 C   0  0  0  0  0  0  0  0  0  0  0  0
   -2.1240    0.1624  -10.9857 C   0  0  0  0  0  0  0  0  0  0  0  0
   -1.8586   -0.5572  -12.1589 C   0  0  0  0  0  0  0  0  0  0  0  0
   -0.4830   -1.5438  -11.9437 S   0  0  0  0  0  0  0  0  0  0  0  0
   -0.9930    0.2468   -8.6651 C   0  0  0  0  0  0  0  0  0  0  0  0
   -1.9096    1.0740   -7.8547 C   0  0  0  0  0  0  0  0  0  0  0  0
   -3.2394    0.9701   -8.0071 C   0  0  0  0  0  0  0  0  0  0  0  0
   -4.1977    1.5899   -7.0850 C   0  0  0  0  0  0  0  0  0  0  0  0
   -4.0289    2.7684   -6.3621 C   0  0  0  0  0  0  0  0  0  0  0  0
   -5.0087    2.9351   -5.3655 C   0  0  0  0  0  0  0  0  0  0  0  0
   -5.0367    3.9571   -4.3979 C   0  0  0  0  0  0  0  0  0  0  0  0
   -4.0224    5.0283   -4.3787 C   0  0  0  0  0  0  0  0  0  0  0  0
   -2.6988    4.7405   -4.0174 C   0  0  0  0  0  0  0  0  0  0  0  0
   -1.7389    5.7554   -4.0086 C   0  0  0  0  0  0  0  0  0  0  0  0
   -2.0889    7.0598   -4.3708 C   0  0  0  0  0  0  0  0  0  0  0  0
   -0.8303    8.3432   -4.3933 S   0  0  0  0  0  0  0  0  0  0  0  0
   -0.3948    8.1132   -6.1543 C   0  0  0  0  0  0  0  0  0  0  0  0
    0.5903    6.9630   -6.3325 C   0  0  0  0  0  0  0  0  0  0  0  0
   -3.4195    7.3569   -4.7044 C   0  0  0  0  0  0  0  0  0  0  0  0
   -3.7762    8.6231   -5.0354 F   0  0  0  0  0  0  0  0  0  0  0  0
   -4.3834    6.3431   -4.7020 C   0  0  0  0  0  0  0  0  0  0  0  0
   -5.9037    3.7719   -3.3061 C   0  0  0  0  0  0  0  0  0  0  0  0
   -6.7042    2.6341   -3.1761 C   0  0  0  0  0  0  0  0  0  0  0  0
   -6.8206    1.7100   -4.2353 C   0  0  0  0  0  0  0  0  0  0  0  0
   -7.7564    0.5615   -4.1521 C   0  0  0  0  0  0  0  0  0  0  0  0
   -9.1212    0.7990   -3.9214 C   0  0  0  0  0  0  0  0  0  0  0  0
  -10.0225   -0.2658   -3.8518 C   0  0  0  0  0  0  0  0  0  0  0  0
   -9.5746   -1.5801   -4.0234 C   0  0  0  0  0  0  0  0  0  0  0  0
  -10.7472   -2.9397   -3.9532 S   0  0  0  0  0  0  0  0  0  0  0  0
  -11.3470   -2.7430   -5.6700 C   0  0  0  0  0  0  0  0  0  0  0  0
  -10.3454   -3.2911   -6.6794 C   0  0  0  0  0  0  0  0  0  0  0  0
   -8.2100   -1.8289   -4.2217 C   0  0  0  0  0  0  0  0  0  0  0  0
   -7.3032   -0.7645   -4.2734 C   0  0  0  0  0  0  0  0  0  0  0  0
   -7.7566   -3.1007   -4.3565 F   0  0  0  0  0  0  0  0  0  0  0  0
   -5.9298    1.8810   -5.3120 C   0  0  0  0  0  0  0  0  0  0  0  0
   -5.5723    0.7883   -6.5388 S   0  0  0  0  0  0  0  0  0  0  0  0
   -7.0461    2.3497   -1.8423 C   0  0  0  0  0  0  0  0  0  0  0  0
   -6.4015    3.1710   -0.9129 C   0  0  0  0  0  0  0  0  0  0  0  0
   -5.6971    4.4419   -1.7853 S   0  0  0  0  0  0  0  0  0  0  0  0
   -5.5356    2.4906    0.0641 C   0  0  0  0  0  0  0  0  0  0  0  0
   -5.8976    1.4417    0.9228 C   0  0  0  0  0  0  0  0  0  0  0  0
   -4.8118    0.5876    1.2419 C   0  0  0  0  0  0  0  0  0  0  0  0
   -4.8381   -0.5571    2.0685 C   0  0  0  0  0  0  0  0  0  0  0  0
   -5.9725   -0.8162    2.9870 C   0  0  0  0  0  0  0  0  0  0  0  0
   -6.4135    0.1985    3.8532 C   0  0  0  0  0  0  0  0  0  0  0  0
   -7.4755   -0.0313    4.7281 C   0  0  0  0  0  0  0  0  0  0  0  0
   -8.0898   -1.2873    4.7715 C   0  0  0  0  0  0  0  0  0  0  0  0
   -9.4376   -1.5842    5.9215 S   0  0  0  0  0  0  0  0  0  0  0  0
   -8.3603   -1.9953    7.3425 C   0  0  0  0  0  0  0  0  0  0  0  0
   -8.2620   -0.8066    8.2898 C   0  0  0  0  0  0  0  0  0  0  0  0
   -7.6538   -2.3061    3.9122 C   0  0  0  0  0  0  0  0  0  0  0  0
   -8.2505   -3.5244    3.9345 F   0  0  0  0  0  0  0  0  0  0  0  0
   -6.6043   -2.0681    3.0191 C   0  0  0  0  0  0  0  0  0  0  0  0
   -3.6782   -1.3682    2.0630 C   0  0  0  0  0  0  0  0  0  0  0  0
   -2.5360   -1.0623    1.3033 C   0  0  0  0  0  0  0  0  0  0  0  0
   -2.4727    0.1475    0.5847 C   0  0  0  0  0  0  0  0  0  0  0  0
   -1.2820    0.6400   -0.1470 C   0  0  0  0  0  0  0  0  0  0  0  0
   -0.9087    0.0544   -1.3674 C   0  0  0  0  0  0  0  0  0  0  0  0
   -0.1590    0.7920   -2.2977 C   0  0  0  0  0  0  0  0  0  0  0  0
    0.1936    2.1197   -2.0235 C   0  0  0  0  0  0  0  0  0  0  0  0
    0.8046    3.1750   -3.3473 S   0  0  0  0  0  0  0  0  0  0  0  0
    2.4748    3.3520   -2.6578 C   0  0  0  0  0  0  0  0  0  0  0  0
    3.3714    4.0808   -3.6447 C   0  0  0  0  0  0  0  0  0  0  0  0
   -0.0890    2.6651   -0.7661 C   0  0  0  0  0  0  0  0  0  0  0  0
   -0.7907    1.9152    0.1759 C   0  0  0  0  0  0  0  0  0  0  0  0
    0.2197    3.9565   -0.4876 F   0  0  0  0  0  0  0  0  0  0  0  0
   -3.6335    0.9350    0.5866 C   0  0  0  0  0  0  0  0  0  0  0  0
   -3.8995    2.3175   -0.2970 S   0  0  0  0  0  0  0  0  0  0  0  0
   -1.4988   -1.9986    1.4464 C   0  0  0  0  0  0  0  0  0  0  0  0
   -1.8037   -2.9971    2.3725 C   0  0  0  0  0  0  0  0  0  0  0  0
   -3.3579   -2.7403    2.9837 S   0  0  0  0  0  0  0  0  0  0  0  0
   -0.8862   -4.0420    2.8439 C   0  0  0  0  0  0  0  0  0  0  0  0
    0.1357   -4.6301    2.1001 C   0  0  0  0  0  0  0  0  0  0  0  0
    0.8339   -5.6166    2.8195 C   0  0  0  0  0  0  0  0  0  0  0  0
    1.8733   -6.4320    2.3271 C   0  0  0  0  0  0  0  0  0  0  0  0
    2.2881   -6.4118    0.9109 C   0  0  0  0  0  0  0  0  0  0  0  0
    1.3910   -6.8221   -0.0842 C   0  0  0  0  0  0  0  0  0  0  0  0
    1.8120   -6.9223   -1.4129 C   0  0  0  0  0  0  0  0  0  0  0  0
    3.1317   -6.6099   -1.7567 C   0  0  0  0  0  0  0  0  0  0  0  0
    3.6867   -6.8243   -3.4479 S   0  0  0  0  0  0  0  0  0  0  0  0
    3.1319   -5.1707   -3.9691 C   0  0  0  0  0  0  0  0  0  0  0  0
    3.4541   -4.9657   -5.4395 C   0  0  0  0  0  0  0  0  0  0  0  0
    4.0278   -6.1800   -0.7667 C   0  0  0  0  0  0  0  0  0  0  0  0
    5.3150   -5.8918   -1.0840 F   0  0  0  0  0  0  0  0  0  0  0  0
    3.6070   -6.0848    0.5623 C   0  0  0  0  0  0  0  0  0  0  0  0
    2.4386   -7.3543    3.2258 C   0  0  0  0  0  0  0  0  0  0  0  0
    2.0009   -7.4863    4.5456 C   0  0  0  0  0  0  0  0  0  0  0  0
    0.9491   -6.6844    5.0361 C   0  0  0  0  0  0  0  0  0  0  0  0
    0.4544   -6.8167    6.4225 C   0  0  0  0  0  0  0  0  0  0  0  0
   -0.1072   -8.0270    6.8559 C   0  0  0  0  0  0  0  0  0  0  0  0
   -0.5183   -8.1770    8.1831 C   0  0  0  0  0  0  0  0  0  0  0  0
   -0.3644   -7.1230    9.0894 C   0  0  0  0  0  0  0  0  0  0  0  0
   -0.8635   -7.3377   10.8018 S   0  0  0  0  0  0  0  0  0  0  0  0
    0.6693   -8.1938   11.3143 C   0  0  0  0  0  0  0  0  0  0  0  0
    1.8219   -7.2121   11.4930 C   0  0  0  0  0  0  0  0  0  0  0  0
    0.1646   -5.9000    8.6526 C   0  0  0  0  0  0  0  0  0  0  0  0
    0.5728   -5.7483    7.3252 C   0  0  0  0  0  0  0  0  0  0  0  0
    0.2974   -4.8615    9.5156 F   0  0  0  0  0  0  0  0  0  0  0  0
    0.3863   -5.7593    4.1385 C   0  0  0  0  0  0  0  0  0  0  0  0
   -0.9091   -4.7145    4.3936 S   0  0  0  0  0  0  0  0  0  0  0  0
    2.6975   -8.4778    5.2580 C   0  0  0  0  0  0  0  0  0  0  0  0
    3.6576   -9.1337    4.4929 C   0  0  0  0  0  0  0  0  0  0  0  0
    3.6553   -8.4809    2.9389 S   0  0  0  0  0  0  0  0  0  0  0  0
    4.8215    0.9394    8.2379 H   0  0  0  0  0  0  0  0  0  0  0  0
    6.9902    1.0850    6.8054 H   0  0  0  0  0  0  0  0  0  0  0  0
    8.8481   -0.3753    3.2522 H   0  0  0  0  0  0  0  0  0  0  0  0
   11.2200    0.1313    3.6890 H   0  0  0  0  0  0  0  0  0  0  0  0
   12.4408    2.5323    2.6240 H   0  0  0  0  0  0  0  0  0  0  0  0
   13.9820    3.1479    3.3078 H   0  0  0  0  0  0  0  0  0  0  0  0
   11.2407    4.5523    3.4136 H   0  0  0  0  0  0  0  0  0  0  0  0
   12.6979    5.0525    2.4881 H   0  0  0  0  0  0  0  0  0  0  0  0
   12.7221    5.1243    4.2917 H   0  0  0  0  0  0  0  0  0  0  0  0
    7.7107    3.2652    5.2627 H   0  0  0  0  0  0  0  0  0  0  0  0
    2.1508   -1.1662    3.3052 H   0  0  0  0  0  0  0  0  0  0  0  0
   -0.2793   -1.0320    3.6426 H   0  0  0  0  0  0  0  0  0  0  0  0
   -2.8404    1.6622    6.1591 H   0  0  0  0  0  0  0  0  0  0  0  0
   -1.0531    1.4642    6.1080 H   0  0  0  0  0  0  0  0  0  0  0  0
   -3.1260   -0.8039    5.7193 H   0  0  0  0  0  0  0  0  0  0  0  0
   -1.3323   -0.9998    5.7998 H   0  0  0  0  0  0  0  0  0  0  0  0
   -2.2373   -0.4500    7.2526 H   0  0  0  0  0  0  0  0  0  0  0  0
    2.3640    3.1338    3.2180 H   0  0  0  0  0  0  0  0  0  0  0  0
    3.5660    0.9728    0.5136 H   0  0  0  0  0  0  0  0  0  0  0  0
    4.0742    0.3195   -1.9565 H   0  0  0  0  0  0  0  0  0  0  0  0
    8.1948    2.9278   -3.9344 H   0  0  0  0  0  0  0  0  0  0  0  0
    3.7614    1.0149   -7.6868 H   0  0  0  0  0  0  0  0  0  0  0  0
    5.6566    2.2587   -9.0146 H   0  0  0  0  0  0  0  0  0  0  0  0
    2.1735    0.9744   -4.8912 H   0  0  0  0  0  0  0  0  0  0  0  0
    3.7138   -1.5763   -5.4461 H   0  0  0  0  0  0  0  0  0  0  0  0
    0.4175    0.3326   -6.2120 H   0  0  0  0  0  0  0  0  0  0  0  0
    1.9680   -2.7449  -10.1831 H   0  0  0  0  0  0  0  0  0  0  0  0
   -2.9365    0.8699  -10.8845 H   0  0  0  0  0  0  0  0  0  0  0  0
   -2.4382   -0.4920  -13.0706 H   0  0  0  0  0  0  0  0  0  0  0  0
   -1.5005    1.6599   -7.0414 H   0  0  0  0  0  0  0  0  0  0  0  0
   -3.6414    0.2524   -8.7091 H   0  0  0  0  0  0  0  0  0  0  0  0
   -3.1922    3.4360   -6.5105 H   0  0  0  0  0  0  0  0  0  0  0  0
   -2.4111    3.7317   -3.7468 H   0  0  0  0  0  0  0  0  0  0  0  0
   -0.7204    5.5318   -3.7287 H   0  0  0  0  0  0  0  0  0  0  0  0
   -1.3049    7.9295   -6.7654 H   0  0  0  0  0  0  0  0  0  0  0  0
    0.0796    9.0480   -6.5168 H   0  0  0  0  0  0  0  0  0  0  0  0
    1.4848    7.1211   -5.6942 H   0  0  0  0  0  0  0  0  0  0  0  0
    0.1151    5.9980   -6.0663 H   0  0  0  0  0  0  0  0  0  0  0  0
    0.9106    6.9109   -7.3951 H   0  0  0  0  0  0  0  0  0  0  0  0
   -5.4065    6.5795   -4.9652 H   0  0  0  0  0  0  0  0  0  0  0  0
   -9.4870    1.8111   -3.8064 H   0  0  0  0  0  0  0  0  0  0  0  0
  -11.0729   -0.0669   -3.6816 H   0  0  0  0  0  0  0  0  0  0  0  0
  -12.2967   -3.3089   -5.7693 H   0  0  0  0  0  0  0  0  0  0  0  0
  -11.5614   -1.6750   -5.8898 H   0  0  0  0  0  0  0  0  0  0  0  0
  -10.7886   -3.2576   -7.6964 H   0  0  0  0  0  0  0  0  0  0  0  0
   -9.4200   -2.6773   -6.6841 H   0  0  0  0  0  0  0  0  0  0  0  0
  -10.0918   -4.3439   -6.4361 H   0  0  0  0  0  0  0  0  0  0  0  0
   -6.2502   -0.9774   -4.4018 H   0  0  0  0  0  0  0  0  0  0  0  0
   -7.4533    1.3862   -1.5559 H   0  0  0  0  0  0  0  0  0  0  0  0
   -6.9206    1.2446    1.2160 H   0  0  0  0  0  0  0  0  0  0  0  0
   -5.9334    1.1715    3.8534 H   0  0  0  0  0  0  0  0  0  0  0  0
   -7.8102    0.7649    5.3819 H   0  0  0  0  0  0  0  0  0  0  0  0
   -8.8104   -2.8524    7.8832 H   0  0  0  0  0  0  0  0  0  0  0  0
   -7.3414   -2.2969    7.0150 H   0  0  0  0  0  0  0  0  0  0  0  0
   -7.6296   -1.0723    9.1642 H   0  0  0  0  0  0  0  0  0  0  0  0
   -9.2742   -0.5240    8.6526 H   0  0  0  0  0  0  0  0  0  0  0  0
   -7.8057    0.0641    7.7740 H   0  0  0  0  0  0  0  0  0  0  0  0
   -6.2881   -2.8582    2.3493 H   0  0  0  0  0  0  0  0  0  0  0  0
   -1.2943   -0.9166   -1.6490 H   0  0  0  0  0  0  0  0  0  0  0  0
    0.0454    0.3708   -3.2746 H   0  0  0  0  0  0  0  0  0  0  0  0
    2.4446    3.9241   -1.7072 H   0  0  0  0  0  0  0  0  0  0  0  0
    2.8713    2.3468   -2.4516 H   0  0  0  0  0  0  0  0  0  0  0  0
    3.3535    3.5705   -4.6323 H   0  0  0  0  0  0  0  0  0  0  0  0
    4.4159    4.0910   -3.2670 H   0  0  0  0  0  0  0  0  0  0  0  0
    3.0298    5.1277   -3.7722 H   0  0  0  0  0  0  0  0  0  0  0  0
   -1.0920    2.3957    1.0966 H   0  0  0  0  0  0  0  0  0  0  0  0
   -0.5360   -1.9100    0.9594 H   0  0  0  0  0  0  0  0  0  0  0  0
    0.3466   -4.3679    1.0700 H   0  0  0  0  0  0  0  0  0  0  0  0
    0.3760   -7.0976    0.1745 H   0  0  0  0  0  0  0  0  0  0  0  0
    1.1195   -7.2648   -2.1709 H   0  0  0  0  0  0  0  0  0  0  0  0
    2.0362   -5.0811   -3.8200 H   0  0  0  0  0  0  0  0  0  0  0  0
    3.6474   -4.3926   -3.3658 H   0  0  0  0  0  0  0  0  0  0  0  0
    3.0645   -3.9814   -5.7606 H   0  0  0  0  0  0  0  0  0  0  0  0
    2.9760   -5.7582   -6.0509 H   0  0  0  0  0  0  0  0  0  0  0  0
    4.5533   -4.9907   -5.5979 H   0  0  0  0  0  0  0  0  0  0  0  0
    4.3128   -5.7795    1.3256 H   0  0  0  0  0  0  0  0  0  0  0  0
   -0.2142   -8.8580    6.1686 H   0  0  0  0  0  0  0  0  0  0  0  0
   -0.9369   -9.1212    8.5106 H   0  0  0  0  0  0  0  0  0  0  0  0
    0.9475   -8.9749   10.5754 H   0  0  0  0  0  0  0  0  0  0  0  0
    0.4743   -8.6956   12.2846 H   0  0  0  0  0  0  0  0  0  0  0  0
    2.7002   -7.7465   11.9130 H   0  0  0  0  0  0  0  0  0  0  0  0
    1.5298   -6.3986   12.1904 H   0  0  0  0  0  0  0  0  0  0  0  0
    2.1160   -6.7730   10.5163 H   0  0  0  0  0  0  0  0  0  0  0  0
    0.9980   -4.8066    7.0021 H   0  0  0  0  0  0  0  0  0  0  0  0
    2.5142   -8.7277    6.2952 H   0  0  0  0  0  0  0  0  0  0  0  0
    4.2951   -9.9360    4.8411 H   0  0  0  0  0  0  0  0  0  0  0  0
  1  2  2  0
  2  3  1  0
  3  4  2  0
  4  5  1  0
  5  6  2  0
  6  7  1  0
  7  8  2  0
  8  9  1  0
  9 10  1  0
 10 11  1  0
  8 12  1  0
 12 13  1  0
 12 14  2  0
  4 15  1  0
 15 16  2  0
 16 17  1  0
 17 18  1  0
 18 19  2  0
 19 20  1  0
 20 21  2  0
 21 22  1  0
 22 23  1  0
 23 24  1  0
 21 25  1  0
 25 26  2  0
 25 27  1  0
 17 28  2  0
 28 29  1  0
 16 30  1  0
 30 31  2  0
 31 32  1  0
 31 33  1  0
 33 34  2  0
 34 35  1  0
 35 36  1  0
 36 37  2  0
 37 38  1  0
 36 39  1  0
 39 40  2  0
 40 41  1  0
 41 42  2  0
 42 43  1  0
 40 44  1  0
 44 45  1  0
 45 46  2  3
 46 47  1  0
 47 48  2  0
 48 49  1  0
 49 50  1  0
 50 51  2  0
 51 52  1  0
 50 53  1  0
 53 54  2  0
 54 55  1  0
 55 56  2  0
 56 57  1  0
 54 58  1  0
 58 59  1  0
 59 60  2  3
 60 61  1  0
 61 62  2  0
 62 63  1  0
 63 64  2  0
 64 65  1  0
 65 66  2  0
 66 67  1  0
 67 68  2  0
 68 69  1  0
 69 70  1  0
 70 71  1  0
 68 72  1  0
 72 73  1  0
 72 74  2  0
 64 75  1  0
 75 76  2  0
 76 77  1  0
 77 78  1  0
 78 79  2  0
 79 80  1  0
 80 81  2  0
 81 82  1  0
 82 83  1  0
 83 84  1  0
 81 85  1  0
 85 86  2  0
 85 87  1  0
 77 88  2  0
 88 89  1  0
 76 90  1  0
 90 91  2  0
 91 92  1  0
 91 93  1  0
 93 94  2  0
 94 95  1  0
 95 96  2  0
 96 97  1  0
 97 98  2  0
 98 99  1  0
 99100  2  0
100101  1  0
101102  1  0
102103  1  0
100104  1  0
104105  1  0
104106  2  0
 96107  1  0
107108  2  0
108109  1  0
109110  1  0
110111  2  0
111112  1  0
112113  2  0
113114  1  0
114115  1  0
115116  1  0
113117  1  0
117118  2  0
117119  1  0
109120  2  0
120121  1  0
108122  1  0
122123  2  0
123124  1  0
123125  1  0
125126  2  0
126127  1  0
127128  2  0
128129  1  0
129130  2  0
130131  1  0
131132  2  0
132133  1  0
133134  1  0
134135  1  0
132136  1  0
136137  1  0
136138  2  0
128139  1  0
139140  2  0
140141  1  0
141142  1  0
142143  2  0
143144  1  0
144145  2  0
145146  1  0
146147  1  0
147148  1  0
145149  1  0
149150  2  0
149151  1  0
141152  2  0
152153  1  0
140154  1  0
154155  2  0
155156  1  0
 29  1  1  0
 38 33  1  0
 43 39  1  0
 52 47  1  0
 57 53  1  0
 89 61  1  0
121 93  1  0
153125  1  0
 28  3  1  0
 44 35  2  0
 58 49  2  0
 88 63  1  0
120 95  1  0
152127  1  0
 14  5  1  0
 32 15  1  0
 74 65  1  0
 92 75  1  0
106 97  1  0
124107  1  0
138129  1  0
156139  1  0
 26 18  1  0
 86 78  1  0
118110  1  0
150142  1  0
  1157  1  0
  2158  1  0
  6159  1  0
  7160  1  0
 10161  1  0
 10162  1  0
 11163  1  0
 11164  1  0
 11165  1  0
 14166  1  0
 19167  1  0
 20168  1  0
 23169  1  0
 23170  1  0
 24171  1  0
 24172  1  0
 24173  1  0
 26174  1  0
 30175  1  0
 34176  1  0
 37177  1  0
 41178  1  0
 42179  1  0
 45180  1  0
 46181  1  0
 48182  1  0
 51183  1  0
 55184  1  0
 56185  1  0
 59186  1  0
 60187  1  0
 62188  1  0
 66189  1  0
 67190  1  0
 70191  1  0
 70192  1  0
 71193  1  0
 71194  1  0
 71195  1  0
 74196  1  0
 79197  1  0
 80198  1  0
 83199  1  0
 83200  1  0
 84201  1  0
 84202  1  0
 84203  1  0
 86204  1  0
 90205  1  0
 94206  1  0
 98207  1  0
 99208  1  0
102209  1  0
102210  1  0
103211  1  0
103212  1  0
103213  1  0
106214  1  0
111215  1  0
112216  1  0
115217  1  0
115218  1  0
116219  1  0
116220  1  0
116221  1  0
118222  1  0
122223  1  0
126224  1  0
130225  1  0
131226  1  0
134227  1  0
134228  1  0
135229  1  0
135230  1  0
135231  1  0
138232  1  0
143233  1  0
144234  1  0
147235  1  0
147236  1  0
148237  1  0
148238  1  0
148239  1  0
150240  1  0
154241  1  0
155242  1  0
M  END

