
     RDKit          3D

188211  0  0  0  0  0  0  0  0999 V2000
    0.2301    2.6637  -16.4501 C   0  0  0  0  0  0  0  0  0  0  0  0
    0.3840    2.6328  -15.0589 C   0  0  0  0  0  0  0  0  0  0  0  0
    0.4369    3.8161  -14.2993 C   0  0  0  0  0  0  0  0  0  0  0  0
    0.3585    5.1818  -14.8606 C   0  0  0  0  0  0  0  0  0  0  0  0
    0.1934    5.4982  -16.1978 C   0  0  0  0  0  0  0  0  0  0  0  0
    0.1050    4.1690  -17.2472 S   0  0  0  0  0  0  0  0  0  0  0  0
    0.4410    6.0138  -13.7786 C   0  0  0  0  0  0  0  0  0  0  0  0
    0.5558    5.3039  -12.6312 C   0  0  0  0  0  0  0  0  0  0  0  0
    0.5522    6.0877  -11.4753 C   0  0  0  0  0  0  0  0  0  0  0  0
    0.4564    7.4491  -11.7913 C   0  0  0  0  0  0  0  0  0  0  0  0
    0.3490    7.6566  -13.4822 S   0  0  0  0  0  0  0  0  0  0  0  0
    0.5742    3.9367  -12.9074 C   0  0  0  0  0  0  0  0  0  0  0  0
    0.6659    2.8164  -11.9466 C   0  0  0  0  0  0  0  0  0  0  0  0
    1.3346    2.9204  -10.7945 C   0  0  0  0  0  0  0  0  0  0  0  0
    1.4413    1.8140   -9.8285 C   0  0  0  0  0  0  0  0  0  0  0  0
    1.9924    1.9490   -8.5594 C   0  0  0  0  0  0  0  0  0  0  0  0
    1.9952    0.7500   -7.8334 C   0  0  0  0  0  0  0  0  0  0  0  0
    2.5071    0.5713   -6.5360 C   0  0  0  0  0  0  0  0  0  0  0  0
    2.9915    1.7037   -5.7268 C   0  0  0  0  0  0  0  0  0  0  0  0
    4.5801    1.9169   -5.2182 S   0  0  0  0  0  0  0  0  0  0  0  0
    4.2914    3.3143   -4.3212 C   0  0  0  0  0  0  0  0  0  0  0  0
    5.3510    4.1071   -3.6197 C   0  0  0  0  0  0  0  0  0  0  0  0
    5.8096    5.2765   -4.4855 C   0  0  0  0  0  0  0  0  0  0  0  0
    2.9389    3.6364   -4.4184 C   0  0  0  0  0  0  0  0  0  0  0  0
    2.2150    5.0347   -3.6335 Cl  0  0  0  0  0  0  0  0  0  0  0  0
    2.2084    2.7293   -5.1992 C   0  0  0  0  0  0  0  0  0  0  0  0
    0.4707    2.8489   -5.4503 Cl  0  0  0  0  0  0  0  0  0  0  0  0
    2.4648   -0.7248   -6.0097 C   0  0  0  0  0  0  0  0  0  0  0  0
    1.8925   -1.8043   -6.6918 C   0  0  0  0  0  0  0  0  0  0  0  0
    1.3740   -1.6255   -7.9912 C   0  0  0  0  0  0  0  0  0  0  0  0
    0.8481   -2.7544   -8.7750 C   0  0  0  0  0  0  0  0  0  0  0  0
    1.7732   -4.0582   -9.3018 S   0  0  0  0  0  0  0  0  0  0  0  0
    0.5318   -4.8363  -10.1266 C   0  0  0  0  0  0  0  0  0  0  0  0
    0.7047   -6.0929  -10.9224 C   0  0  0  0  0  0  0  0  0  0  0  0
    0.9319   -5.7751  -12.3961 C   0  0  0  0  0  0  0  0  0  0  0  0
   -0.6321   -4.0777  -10.0035 C   0  0  0  0  0  0  0  0  0  0  0  0
   -0.4551   -2.9081   -9.2455 C   0  0  0  0  0  0  0  0  0  0  0  0
   -1.7584   -1.7826   -8.8889 Cl  0  0  0  0  0  0  0  0  0  0  0  0
   -2.1683   -4.5280  -10.7314 Cl  0  0  0  0  0  0  0  0  0  0  0  0
    1.4481   -0.3265   -8.5371 C   0  0  0  0  0  0  0  0  0  0  0  0
    0.9636    0.2060  -10.0609 S   0  0  0  0  0  0  0  0  0  0  0  0
    1.8462   -2.9836   -5.9211 C   0  0  0  0  0  0  0  0  0  0  0  0
    2.4230   -2.8203   -4.6598 C   0  0  0  0  0  0  0  0  0  0  0  0
    2.9503   -1.2284   -4.4863 S   0  0  0  0  0  0  0  0  0  0  0  0
    2.3782   -3.7674   -3.5406 C   0  0  0  0  0  0  0  0  0  0  0  0
    1.2423   -4.4761   -3.1418 C   0  0  0  0  0  0  0  0  0  0  0  0
    1.3059   -4.9009   -1.7993 C   0  0  0  0  0  0  0  0  0  0  0  0
    0.2444   -5.4389   -1.0377 C   0  0  0  0  0  0  0  0  0  0  0  0
   -1.0839   -5.6883   -1.6206 C   0  0  0  0  0  0  0  0  0  0  0  0
   -2.0823   -4.5069   -2.2753 S   0  0  0  0  0  0  0  0  0  0  0  0
   -3.3499   -5.5411   -2.6646 C   0  0  0  0  0  0  0  0  0  0  0  0
   -4.5766   -5.1238   -3.4185 C   0  0  0  0  0  0  0  0  0  0  0  0
   -4.3057   -5.1407   -4.9193 C   0  0  0  0  0  0  0  0  0  0  0  0
   -2.9979   -6.8386   -2.2968 C   0  0  0  0  0  0  0  0  0  0  0  0
   -4.0132   -8.2433   -2.5884 Cl  0  0  0  0  0  0  0  0  0  0  0  0
   -1.7324   -6.9193   -1.6928 C   0  0  0  0  0  0  0  0  0  0  0  0
   -1.0190   -8.4265   -1.1346 Cl  0  0  0  0  0  0  0  0  0  0  0  0
    0.4543   -5.5732    0.3476 C   0  0  0  0  0  0  0  0  0  0  0  0
    1.6628   -5.2239    0.9555 C   0  0  0  0  0  0  0  0  0  0  0  0
    2.7400   -4.7380    0.1911 C   0  0  0  0  0  0  0  0  0  0  0  0
    3.9725   -4.2265    0.8195 C   0  0  0  0  0  0  0  0  0  0  0  0
    4.0586   -2.8643    1.8078 S   0  0  0  0  0  0  0  0  0  0  0  0
    5.7154   -2.9476    2.0825 C   0  0  0  0  0  0  0  0  0  0  0  0
    6.4697   -2.0342    2.9993 C   0  0  0  0  0  0  0  0  0  0  0  0
    6.4306   -2.5602    4.4280 C   0  0  0  0  0  0  0  0  0  0  0  0
    6.2234   -4.0646    1.4173 C   0  0  0  0  0  0  0  0  0  0  0  0
    5.2488   -4.7682    0.6912 C   0  0  0  0  0  0  0  0  0  0  0  0
    5.5957   -6.2162   -0.2437 Cl  0  0  0  0  0  0  0  0  0  0  0  0
    7.9071   -4.5585    1.4967 Cl  0  0  0  0  0  0  0  0  0  0  0  0
    2.5187   -4.5762   -1.1818 C   0  0  0  0  0  0  0  0  0  0  0  0
    3.4748   -3.7192   -2.2620 S   0  0  0  0  0  0  0  0  0  0  0  0
    1.5957   -5.2239    2.3539 C   0  0  0  0  0  0  0  0  0  0  0  0
    0.3232   -5.4934    2.8502 C   0  0  0  0  0  0  0  0  0  0  0  0
   -0.7061   -5.8060    1.5474 S   0  0  0  0  0  0  0  0  0  0  0  0
   -0.1356   -4.9121    4.1126 C   0  0  0  0  0  0  0  0  0  0  0  0
    0.1915   -3.6202    4.5027 C   0  0  0  0  0  0  0  0  0  0  0  0
   -0.4312   -3.2288    5.6864 C   0  0  0  0  0  0  0  0  0  0  0  0
   -0.3121   -1.9685    6.2920 C   0  0  0  0  0  0  0  0  0  0  0  0
    0.4906   -0.8883    5.6872 C   0  0  0  0  0  0  0  0  0  0  0  0
    0.1743   -0.1738    4.1932 S   0  0  0  0  0  0  0  0  0  0  0  0
    1.5189    0.8343    4.1830 C   0  0  0  0  0  0  0  0  0  0  0  0
    1.9139    1.7158    3.0357 C   0  0  0  0  0  0  0  0  0  0  0  0
    2.7910    0.9559    2.0478 C   0  0  0  0  0  0  0  0  0  0  0  0
    2.2571    0.6040    5.3440 C   0  0  0  0  0  0  0  0  0  0  0  0
    3.7843    1.3994    5.6938 Cl  0  0  0  0  0  0  0  0  0  0  0  0
    1.6750   -0.3546    6.1910 C   0  0  0  0  0  0  0  0  0  0  0  0
    2.4206   -0.8933    7.6906 Cl  0  0  0  0  0  0  0  0  0  0  0  0
   -1.0037   -1.7821    7.4952 C   0  0  0  0  0  0  0  0  0  0  0  0
   -1.7744   -2.7829    8.0950 C   0  0  0  0  0  0  0  0  0  0  0  0
   -1.8984   -4.0481    7.4753 C   0  0  0  0  0  0  0  0  0  0  0  0
   -2.6913   -5.1302    8.0797 C   0  0  0  0  0  0  0  0  0  0  0  0
   -4.3530   -5.0818    8.3365 S   0  0  0  0  0  0  0  0  0  0  0  0
   -4.4700   -6.6026    9.0472 C   0  0  0  0  0  0  0  0  0  0  0  0
   -5.7320   -7.1852    9.6071 C   0  0  0  0  0  0  0  0  0  0  0  0
   -5.9321   -6.7466   11.0530 C   0  0  0  0  0  0  0  0  0  0  0  0
   -3.1922   -7.1560    9.1250 C   0  0  0  0  0  0  0  0  0  0  0  0
   -2.1968   -6.3370    8.5716 C   0  0  0  0  0  0  0  0  0  0  0  0
   -0.4870   -6.7555    8.5784 Cl  0  0  0  0  0  0  0  0  0  0  0  0
   -2.8535   -8.7111    9.8740 Cl  0  0  0  0  0  0  0  0  0  0  0  0
   -1.2204   -4.2335    6.2537 C   0  0  0  0  0  0  0  0  0  0  0  0
   -1.2007   -5.5878    5.2388 S   0  0  0  0  0  0  0  0  0  0  0  0
   -2.3431   -2.3789    9.3211 C   0  0  0  0  0  0  0  0  0  0  0  0
   -2.0407   -1.0525    9.6477 C   0  0  0  0  0  0  0  0  0  0  0  0
   -1.0595   -0.4014    8.4360 S   0  0  0  0  0  0  0  0  0  0  0  0
   -2.4348   -0.3199   10.8679 C   0  0  0  0  0  0  0  0  0  0  0  0
   -2.2878    1.0759   10.9264 C   0  0  0  0  0  0  0  0  0  0  0  0
   -2.5394    1.8065   12.0943 C   0  0  0  0  0  0  0  0  0  0  0  0
   -2.9667    1.2324   13.3809 C   0  0  0  0  0  0  0  0  0  0  0  0
   -3.2397   -0.1082   13.6071 C   0  0  0  0  0  0  0  0  0  0  0  0
   -2.9860   -1.1360   12.2728 S   0  0  0  0  0  0  0  0  0  0  0  0
   -3.0034    2.3034   14.2390 C   0  0  0  0  0  0  0  0  0  0  0  0
   -2.6481    3.4471   13.6039 C   0  0  0  0  0  0  0  0  0  0  0  0
   -2.6894    4.5893   14.4001 C   0  0  0  0  0  0  0  0  0  0  0  0
   -3.0812    4.2682   15.7075 C   0  0  0  0  0  0  0  0  0  0  0  0
   -3.3837    2.5920   15.8424 S   0  0  0  0  0  0  0  0  0  0  0  0
   -2.3583    3.1820   12.2717 C   0  0  0  0  0  0  0  0  0  0  0  0
   -1.9782    4.1217   11.2031 C   0  0  0  0  0  0  0  0  0  0  0  0
   -1.0898    5.1068   11.3751 C   0  0  0  0  0  0  0  0  0  0  0  0
   -0.5558    5.8883   10.2369 C   0  0  0  0  0  0  0  0  0  0  0  0
   -0.4547    5.3586    8.9309 C   0  0  0  0  0  0  0  0  0  0  0  0
    0.0952    6.0930    7.8684 C   0  0  0  0  0  0  0  0  0  0  0  0
    0.6132    7.4714    7.9769 C   0  0  0  0  0  0  0  0  0  0  0  0
    0.6735    8.2213    9.1396 C   0  0  0  0  0  0  0  0  0  0  0  0
    0.0553    7.4604   10.5239 S   0  0  0  0  0  0  0  0  0  0  0  0
    1.0645    7.7781    6.7226 C   0  0  0  0  0  0  0  0  0  0  0  0
    0.8827    6.7371    5.8733 C   0  0  0  0  0  0  0  0  0  0  0  0
    1.4143    6.9436    4.5985 C   0  0  0  0  0  0  0  0  0  0  0  0
    1.9996    8.2133    4.4982 C   0  0  0  0  0  0  0  0  0  0  0  0
    1.8766    9.0418    5.9867 S   0  0  0  0  0  0  0  0  0  0  0  0
    0.2768    5.6716    6.5395 C   0  0  0  0  0  0  0  0  0  0  0  0
   -0.0387    4.3282    6.0073 C   0  0  0  0  0  0  0  0  0  0  0  0
   -0.3610    4.1091    4.7362 C   0  0  0  0  0  0  0  0  0  0  0  0
    0.1922    1.7438  -17.0175 H   0  0  0  0  0  0  0  0  0  0  0  0
    0.4615    1.6719  -14.5670 H   0  0  0  0  0  0  0  0  0  0  0  0
    0.1255    6.5180  -16.5534 H   0  0  0  0  0  0  0  0  0  0  0  0
    0.5778    5.7096  -10.4645 H   0  0  0  0  0  0  0  0  0  0  0  0
    0.4267    8.2503  -11.0660 H   0  0  0  0  0  0  0  0  0  0  0  0
    0.2073    1.8736  -12.2179 H   0  0  0  0  0  0  0  0  0  0  0  0
    1.8454    3.8397  -10.5500 H   0  0  0  0  0  0  0  0  0  0  0  0
    2.3856    2.8848   -8.1839 H   0  0  0  0  0  0  0  0  0  0  0  0
    4.9592    4.4889   -2.6536 H   0  0  0  0  0  0  0  0  0  0  0  0
    6.2214    3.4527   -3.3999 H   0  0  0  0  0  0  0  0  0  0  0  0
    6.1981    4.9069   -5.4587 H   0  0  0  0  0  0  0  0  0  0  0  0
    6.6170    5.8323   -3.9633 H   0  0  0  0  0  0  0  0  0  0  0  0
    4.9632    5.9735   -4.6674 H   0  0  0  0  0  0  0  0  0  0  0  0
   -0.1912   -6.7399  -10.8116 H   0  0  0  0  0  0  0  0  0  0  0  0
    1.5819   -6.6542  -10.5348 H   0  0  0  0  0  0  0  0  0  0  0  0
    1.1058   -6.7166  -12.9584 H   0  0  0  0  0  0  0  0  0  0  0  0
    0.0424   -5.2630  -12.8248 H   0  0  0  0  0  0  0  0  0  0  0  0
    1.8212   -5.1198  -12.5201 H   0  0  0  0  0  0  0  0  0  0  0  0
    1.3840   -3.9065   -6.2502 H   0  0  0  0  0  0  0  0  0  0  0  0
    0.3609   -4.5613   -3.7611 H   0  0  0  0  0  0  0  0  0  0  0  0
   -4.8659   -4.0948   -3.1120 H   0  0  0  0  0  0  0  0  0  0  0  0
   -5.4208   -5.8029   -3.1830 H   0  0  0  0  0  0  0  0  0  0  0  0
   -4.0221   -6.1663   -5.2452 H   0  0  0  0  0  0  0  0  0  0  0  0
   -3.4931   -4.4276   -5.1772 H   0  0  0  0  0  0  0  0  0  0  0  0
   -5.2229   -4.8350   -5.4696 H   0  0  0  0  0  0  0  0  0  0  0  0
    6.0155   -1.0218    2.9688 H   0  0  0  0  0  0  0  0  0  0  0  0
    7.5238   -1.9444    2.6650 H   0  0  0  0  0  0  0  0  0  0  0  0
    6.8810   -3.5753    4.4783 H   0  0  0  0  0  0  0  0  0  0  0  0
    7.0082   -1.8842    5.0952 H   0  0  0  0  0  0  0  0  0  0  0  0
    5.3800   -2.6076    4.7903 H   0  0  0  0  0  0  0  0  0  0  0  0
    2.4030   -4.8863    2.9909 H   0  0  0  0  0  0  0  0  0  0  0  0
    0.8422   -2.9810    3.9204 H   0  0  0  0  0  0  0  0  0  0  0  0
    1.0005    2.0747    2.5151 H   0  0  0  0  0  0  0  0  0  0  0  0
    2.4598    2.6063    3.4139 H   0  0  0  0  0  0  0  0  0  0  0  0
    3.0801    1.6299    1.2137 H   0  0  0  0  0  0  0  0  0  0  0  0
    2.2322    0.0921    1.6278 H   0  0  0  0  0  0  0  0  0  0  0  0
    3.7150    0.5901    2.5462 H   0  0  0  0  0  0  0  0  0  0  0  0
   -6.5966   -6.8464    8.9949 H   0  0  0  0  0  0  0  0  0  0  0  0
   -5.6946   -8.2922    9.5553 H   0  0  0  0  0  0  0  0  0  0  0  0
   -5.0673   -7.0653   11.6739 H   0  0  0  0  0  0  0  0  0  0  0  0
   -6.8521   -7.2172   11.4576 H   0  0  0  0  0  0  0  0  0  0  0  0
   -6.0428   -5.6445   11.1108 H   0  0  0  0  0  0  0  0  0  0  0  0
   -2.9483   -3.0209    9.9472 H   0  0  0  0  0  0  0  0  0  0  0  0
   -1.9439    1.6091   10.0512 H   0  0  0  0  0  0  0  0  0  0  0  0
   -3.5653   -0.4839   14.5684 H   0  0  0  0  0  0  0  0  0  0  0  0
   -2.4604    5.5891   14.0584 H   0  0  0  0  0  0  0  0  0  0  0  0
   -3.1834    4.9830   16.5112 H   0  0  0  0  0  0  0  0  0  0  0  0
   -2.3707    3.9148   10.2176 H   0  0  0  0  0  0  0  0  0  0  0  0
   -0.7112    5.3214   12.3676 H   0  0  0  0  0  0  0  0  0  0  0  0
   -0.7812    4.3477    8.7370 H   0  0  0  0  0  0  0  0  0  0  0  0
    1.0924    9.2172    9.1701 H   0  0  0  0  0  0  0  0  0  0  0  0
    1.4176    6.2207    3.7978 H   0  0  0  0  0  0  0  0  0  0  0  0
    2.4879    8.5981    3.6163 H   0  0  0  0  0  0  0  0  0  0  0  0
   -0.0548    3.4854    6.6884 H   0  0  0  0  0  0  0  0  0  0  0  0
   -0.4425    4.9152    4.0206 H   0  0  0  0  0  0  0  0  0  0  0  0
   -0.6001    3.1038    4.4059 H   0  0  0  0  0  0  0  0  0  0  0  0
  1  2  2  0
  2  3  1  0
  3  4  1  0
  4  5  2  0
  5  6  1  0
  4  7  1  0
  7  8  2  0
  8  9  1  0
  9 10  2  0
 10 11  1  0
  8 12  1  0
 12 13  1  0
 13 14  2  3
 14 15  1  0
 15 16  2  0
 16 17  1  0
 17 18  2  0
 18 19  1  0
 19 20  1  0
 20 21  1  0
 21 22  1  0
 22 23  1  0
 21 24  2  0
 24 25  1  0
 24 26  1  0
 26 27  1  0
 18 28  1  0
 28 29  2  0
 29 30  1  0
 30 31  1  0
 31 32  1  0
 32 33  1  0
 33 34  1  0
 34 35  1  0
 33 36  2  0
 36 37  1  0
 37 38  1  0
 36 39  1  0
 30 40  2  0
 40 41  1  0
 29 42  1  0
 42 43  2  0
 43 44  1  0
 43 45  1  0
 45 46  2  0
 46 47  1  0
 47 48  2  0
 48 49  1  0
 49 50  1  0
 50 51  1  0
 51 52  1  0
 52 53  1  0
 51 54  2  0
 54 55  1  0
 54 56  1  0
 56 57  1  0
 48 58  1  0
 58 59  2  0
 59 60  1  0
 60 61  1  0
 61 62  1  0
 62 63  1  0
 63 64  1  0
 64 65  1  0
 63 66  2  0
 66 67  1  0
 67 68  1  0
 66 69  1  0
 60 70  2  0
 70 71  1  0
 59 72  1  0
 72 73  2  0
 73 74  1  0
 73 75  1  0
 75 76  2  0
 76 77  1  0
 77 78  2  0
 78 79  1  0
 79 80  1  0
 80 81  1  0
 81 82  1  0
 82 83  1  0
 81 84  2  0
 84 85  1  0
 84 86  1  0
 86 87  1  0
 78 88  1  0
 88 89  2  0
 89 90  1  0
 90 91  1  0
 91 92  1  0
 92 93  1  0
 93 94  1  0
 94 95  1  0
 93 96  2  0
 96 97  1  0
 97 98  1  0
 96 99  1  0
 90100  2  0
100101  1  0
 89102  1  0
102103  2  0
103104  1  0
103105  1  0
105106  2  0
106107  1  0
107108  1  0
108109  2  0
109110  1  0
108111  1  0
111112  2  0
112113  1  0
113114  2  0
114115  1  0
112116  1  0
116117  1  0
117118  2  3
118119  1  0
119120  2  0
120121  1  0
121122  1  0
122123  2  0
123124  1  0
122125  1  0
125126  2  0
126127  1  0
127128  2  0
128129  1  0
126130  1  0
130131  1  0
131132  2  3
  6  1  1  0
 11  7  1  0
 41 15  1  0
 71 45  1  0
101 75  1  0
110105  1  0
115111  1  0
124119  1  0
129125  1  0
 12  3  2  0
 40 17  1  0
 70 47  1  0
100 77  1  0
116107  2  0
130121  2  0
 26 19  2  0
 44 28  1  0
 56 49  2  0
 74 58  1  0
 86 79  2  0
104 88  1  0
 37 31  2  0
 67 61  2  0
 97 91  2  0
  1133  1  0
  2134  1  0
  5135  1  0
  9136  1  0
 10137  1  0
 13138  1  0
 14139  1  0
 16140  1  0
 22141  1  0
 22142  1  0
 23143  1  0
 23144  1  0
 23145  1  0
 34146  1  0
 34147  1  0
 35148  1  0
 35149  1  0
 35150  1  0
 42151  1  0
 46152  1  0
 52153  1  0
 52154  1  0
 53155  1  0
 53156  1  0
 53157  1  0
 64158  1  0
 64159  1  0
 65160  1  0
 65161  1  0
 65162  1  0
 72163  1  0
 76164  1  0
 82165  1  0
 82166  1  0
 83167  1  0
 83168  1  0
 83169  1  0
 94170  1  0
 94171  1  0
 95172  1  0
 95173  1  0
 95174  1  0
102175  1  0
106176  1  0
109177  1  0
113178  1  0
114179  1  0
117180  1  0
118181  1  0
120182  1  0
123183  1  0
127184  1  0
128185  1  0
131186  1  0
132187  1  0
132188  1  0
M  END

