
     RDKit          3D

166187  0  0  0  0  0  0  0  0999 V2000
    9.3041   -7.2583    2.7727 C   0  0  0  0  0  0  0  0  0  0  0  0
    8.6990   -6.2287    3.5021 C   0  0  0  0  0  0  0  0  0  0  0  0
    8.9082   -4.8746    3.1799 C   0  0  0  0  0  0  0  0  0  0  0  0
    9.8316   -4.4000    2.1233 C   0  0  0  0  0  0  0  0  0  0  0  0
   10.5579   -5.2026    1.2603 C   0  0  0  0  0  0  0  0  0  0  0  0
   10.3612   -6.8699    1.4893 S   0  0  0  0  0  0  0  0  0  0  0  0
    9.8303   -3.0369    2.2355 C   0  0  0  0  0  0  0  0  0  0  0  0
    9.0097   -2.6395    3.2289 C   0  0  0  0  0  0  0  0  0  0  0  0
    8.9656   -1.2621    3.4270 C   0  0  0  0  0  0  0  0  0  0  0  0
    9.8135   -0.5993    2.5295 C   0  0  0  0  0  0  0  0  0  0  0  0
   10.5922   -1.7323    1.5142 S   0  0  0  0  0  0  0  0  0  0  0  0
    8.4000   -3.7308    3.8301 C   0  0  0  0  0  0  0  0  0  0  0  0
    7.4557   -3.6400    4.9615 C   0  0  0  0  0  0  0  0  0  0  0  0
    6.4088   -4.4629    5.1011 C   0  0  0  0  0  0  0  0  0  0  0  0
    5.4430   -4.3576    6.2165 C   0  0  0  0  0  0  0  0  0  0  0  0
    4.5495   -5.4151    6.4677 C   0  0  0  0  0  0  0  0  0  0  0  0
    3.5839   -5.3410    7.4863 C   0  0  0  0  0  0  0  0  0  0  0  0
    3.3905   -4.1864    8.3928 C   0  0  0  0  0  0  0  0  0  0  0  0
    4.1282   -3.0178    8.3776 C   0  0  0  0  0  0  0  0  0  0  0  0
    5.3410   -2.9501    7.1958 S   0  0  0  0  0  0  0  0  0  0  0  0
    2.3256   -4.5276    9.1820 C   0  0  0  0  0  0  0  0  0  0  0  0
    1.8608   -5.7528    8.8516 C   0  0  0  0  0  0  0  0  0  0  0  0
    0.7359   -6.1574    9.5623 C   0  0  0  0  0  0  0  0  0  0  0  0
    0.3455   -5.1719   10.4788 C   0  0  0  0  0  0  0  0  0  0  0  0
    1.3935   -3.8254   10.3799 S   0  0  0  0  0  0  0  0  0  0  0  0
    2.5957   -6.2879    7.8070 C   0  0  0  0  0  0  0  0  0  0  0  0
    2.3456   -7.5971    7.1813 C   0  0  0  0  0  0  0  0  0  0  0  0
    2.0185   -7.8055    5.8958 C   0  0  0  0  0  0  0  0  0  0  0  0
    1.7769   -6.7766    4.8608 C   0  0  0  0  0  0  0  0  0  0  0  0
    1.5475   -5.4081    5.0278 C   0  0  0  0  0  0  0  0  0  0  0  0
    1.3722   -4.7253    3.8180 C   0  0  0  0  0  0  0  0  0  0  0  0
    1.2016   -3.3357    3.6713 C   0  0  0  0  0  0  0  0  0  0  0  0
    1.2616   -2.4229    4.8269 C   0  0  0  0  0  0  0  0  0  0  0  0
    2.5406   -1.3808    5.1480 S   0  0  0  0  0  0  0  0  0  0  0  0
    1.9566   -0.8322    6.6288 C   0  0  0  0  0  0  0  0  0  0  0  0
    2.6346    0.2007    7.4784 C   0  0  0  0  0  0  0  0  0  0  0  0
    2.1542    1.6008    7.1186 C   0  0  0  0  0  0  0  0  0  0  0  0
    0.7349   -1.4513    6.8836 C   0  0  0  0  0  0  0  0  0  0  0  0
   -0.2302   -1.1399    8.3180 Cl  0  0  0  0  0  0  0  0  0  0  0  0
    0.3499   -2.3518    5.8782 C   0  0  0  0  0  0  0  0  0  0  0  0
   -1.1374   -3.2870    5.9356 Cl  0  0  0  0  0  0  0  0  0  0  0  0
    1.0604   -2.8495    2.3632 C   0  0  0  0  0  0  0  0  0  0  0  0
    1.0583   -3.6894    1.2431 C   0  0  0  0  0  0  0  0  0  0  0  0
    1.2138   -5.0830    1.3909 C   0  0  0  0  0  0  0  0  0  0  0  0
    1.1462   -6.0039    0.2410 C   0  0  0  0  0  0  0  0  0  0  0  0
    2.3852   -7.0299   -0.2504 S   0  0  0  0  0  0  0  0  0  0  0  0
    1.5518   -7.7097   -1.5452 C   0  0  0  0  0  0  0  0  0  0  0  0
    2.0735   -8.8252   -2.4011 C   0  0  0  0  0  0  0  0  0  0  0  0
    1.7688  -10.1747   -1.7640 C   0  0  0  0  0  0  0  0  0  0  0  0
    0.2728   -7.1564   -1.5942 C   0  0  0  0  0  0  0  0  0  0  0  0
    0.0471   -6.1965   -0.5964 C   0  0  0  0  0  0  0  0  0  0  0  0
   -1.4950   -5.3744   -0.3866 Cl  0  0  0  0  0  0  0  0  0  0  0  0
   -0.9464   -7.6306   -2.7678 Cl  0  0  0  0  0  0  0  0  0  0  0  0
    1.4012   -5.5629    2.7006 C   0  0  0  0  0  0  0  0  0  0  0  0
    1.6708   -7.1417    3.2141 S   0  0  0  0  0  0  0  0  0  0  0  0
    0.9036   -2.9939    0.0336 C   0  0  0  0  0  0  0  0  0  0  0  0
    0.7562   -1.6192    0.2126 C   0  0  0  0  0  0  0  0  0  0  0  0
    0.8349   -1.2601    1.8613 S   0  0  0  0  0  0  0  0  0  0  0  0
    0.4842   -0.6401   -0.8473 C   0  0  0  0  0  0  0  0  0  0  0  0
    0.4692   -0.8961   -2.2178 C   0  0  0  0  0  0  0  0  0  0  0  0
    0.0647    0.2132   -2.9787 C   0  0  0  0  0  0  0  0  0  0  0  0
   -0.1054    0.2466   -4.3779 C   0  0  0  0  0  0  0  0  0  0  0  0
    0.2587   -0.8971   -5.2333 C   0  0  0  0  0  0  0  0  0  0  0  0
   -0.8289   -1.8096   -6.1365 S   0  0  0  0  0  0  0  0  0  0  0  0
    0.3125   -2.8803   -6.7578 C   0  0  0  0  0  0  0  0  0  0  0  0
   -0.0100   -4.0518   -7.6378 C   0  0  0  0  0  0  0  0  0  0  0  0
   -0.1597   -5.3244   -6.8111 C   0  0  0  0  0  0  0  0  0  0  0  0
    1.5663   -2.5438   -6.2489 C   0  0  0  0  0  0  0  0  0  0  0  0
    3.0383   -3.4284   -6.6278 Cl  0  0  0  0  0  0  0  0  0  0  0  0
    1.5359   -1.4298   -5.3965 C   0  0  0  0  0  0  0  0  0  0  0  0
    2.9725   -0.7595   -4.6336 Cl  0  0  0  0  0  0  0  0  0  0  0  0
   -0.6618    1.4176   -4.9198 C   0  0  0  0  0  0  0  0  0  0  0  0
   -0.9987    2.5265   -4.1321 C   0  0  0  0  0  0  0  0  0  0  0  0
   -0.7526    2.5205   -2.7440 C   0  0  0  0  0  0  0  0  0  0  0  0
   -1.0013    3.6985   -1.8916 C   0  0  0  0  0  0  0  0  0  0  0  0
   -2.5108    4.3813   -1.5873 S   0  0  0  0  0  0  0  0  0  0  0  0
   -1.9540    5.5730   -0.5336 C   0  0  0  0  0  0  0  0  0  0  0  0
   -2.8325    6.5374    0.2051 C   0  0  0  0  0  0  0  0  0  0  0  0
   -3.2863    5.9503    1.5356 C   0  0  0  0  0  0  0  0  0  0  0  0
   -0.5744    5.4367   -0.3916 C   0  0  0  0  0  0  0  0  0  0  0  0
   -0.0399    4.3915   -1.1579 C   0  0  0  0  0  0  0  0  0  0  0  0
    1.6789    4.0166   -1.2092 Cl  0  0  0  0  0  0  0  0  0  0  0  0
    0.3995    6.4593    0.6538 Cl  0  0  0  0  0  0  0  0  0  0  0  0
   -0.2369    1.3328   -2.1985 C   0  0  0  0  0  0  0  0  0  0  0  0
    0.0011    0.9546   -0.5773 S   0  0  0  0  0  0  0  0  0  0  0  0
   -1.5771    3.5708   -4.8703 C   0  0  0  0  0  0  0  0  0  0  0  0
   -1.6870    3.2781   -6.2299 C   0  0  0  0  0  0  0  0  0  0  0  0
   -1.0546    1.7412   -6.5252 S   0  0  0  0  0  0  0  0  0  0  0  0
   -2.3636    4.1202   -7.2284 C   0  0  0  0  0  0  0  0  0  0  0  0
   -3.5164    4.8467   -6.8870 C   0  0  0  0  0  0  0  0  0  0  0  0
   -4.1989    5.6465   -7.8202 C   0  0  0  0  0  0  0  0  0  0  0  0
   -3.8221    5.7769   -9.2461 C   0  0  0  0  0  0  0  0  0  0  0  0
   -2.7438    5.1585   -9.8569 C   0  0  0  0  0  0  0  0  0  0  0  0
   -1.8061    4.1731   -8.8441 S   0  0  0  0  0  0  0  0  0  0  0  0
   -4.8178    6.5298   -9.8078 C   0  0  0  0  0  0  0  0  0  0  0  0
   -5.7511    6.8527   -8.8859 C   0  0  0  0  0  0  0  0  0  0  0  0
   -6.8365    7.5659   -9.3853 C   0  0  0  0  0  0  0  0  0  0  0  0
   -6.6989    7.7812  -10.7644 C   0  0  0  0  0  0  0  0  0  0  0  0
   -5.2492    7.0771  -11.3305 S   0  0  0  0  0  0  0  0  0  0  0  0
   -5.4078    6.3476   -7.6407 C   0  0  0  0  0  0  0  0  0  0  0  0
   -6.2540    6.4282   -6.4330 C   0  0  0  0  0  0  0  0  0  0  0  0
   -5.7329    6.5709   -5.2081 C   0  0  0  0  0  0  0  0  0  0  0  0
   -6.5183    6.5500   -3.9522 C   0  0  0  0  0  0  0  0  0  0  0  0
   -7.8807    6.1832   -3.8788 C   0  0  0  0  0  0  0  0  0  0  0  0
   -8.5661    6.1210   -2.6515 C   0  0  0  0  0  0  0  0  0  0  0  0
   -7.9638    6.3922   -1.3296 C   0  0  0  0  0  0  0  0  0  0  0  0
   -6.6561    6.7813   -1.1039 C   0  0  0  0  0  0  0  0  0  0  0  0
   -5.6989    6.9144   -2.4960 S   0  0  0  0  0  0  0  0  0  0  0  0
   -8.9773    6.2001   -0.4312 C   0  0  0  0  0  0  0  0  0  0  0  0
  -10.1218    5.8481   -1.0625 C   0  0  0  0  0  0  0  0  0  0  0  0
  -11.2226    5.7162   -0.2147 C   0  0  0  0  0  0  0  0  0  0  0  0
  -10.8609    5.9565    1.1195 C   0  0  0  0  0  0  0  0  0  0  0  0
   -9.2041    6.3550    1.2191 S   0  0  0  0  0  0  0  0  0  0  0  0
   -9.9112    5.7750   -2.4381 C   0  0  0  0  0  0  0  0  0  0  0  0
  -10.9002    5.4590   -3.4898 C   0  0  0  0  0  0  0  0  0  0  0  0
  -11.9152    4.6186   -3.2977 C   0  0  0  0  0  0  0  0  0  0  0  0
    9.1205   -8.2942    3.0281 H   0  0  0  0  0  0  0  0  0  0  0  0
    8.0808   -6.5033    4.3437 H   0  0  0  0  0  0  0  0  0  0  0  0
   11.2168   -4.7972    0.5033 H   0  0  0  0  0  0  0  0  0  0  0  0
    8.3622   -0.7676    4.1774 H   0  0  0  0  0  0  0  0  0  0  0  0
    9.9592    0.4728    2.4920 H   0  0  0  0  0  0  0  0  0  0  0  0
    7.5981   -2.8196    5.6534 H   0  0  0  0  0  0  0  0  0  0  0  0
    6.2325   -5.2304    4.3607 H   0  0  0  0  0  0  0  0  0  0  0  0
    4.5970   -6.3067    5.8530 H   0  0  0  0  0  0  0  0  0  0  0  0
    3.9419   -2.1991    9.0621 H   0  0  0  0  0  0  0  0  0  0  0  0
    0.2164   -7.0961    9.4141 H   0  0  0  0  0  0  0  0  0  0  0  0
   -0.5087   -5.2485   11.1401 H   0  0  0  0  0  0  0  0  0  0  0  0
    2.3895   -8.4603    7.8338 H   0  0  0  0  0  0  0  0  0  0  0  0
    1.9106   -8.8366    5.5788 H   0  0  0  0  0  0  0  0  0  0  0  0
    1.4756   -4.9140    5.9796 H   0  0  0  0  0  0  0  0  0  0  0  0
    2.4317    0.0047    8.5529 H   0  0  0  0  0  0  0  0  0  0  0  0
    3.7343    0.1412    7.3250 H   0  0  0  0  0  0  0  0  0  0  0  0
    1.0674    1.7009    7.3286 H   0  0  0  0  0  0  0  0  0  0  0  0
    2.7028    2.3494    7.7289 H   0  0  0  0  0  0  0  0  0  0  0  0
    2.3396    1.8100    6.0421 H   0  0  0  0  0  0  0  0  0  0  0  0
    3.1740   -8.7143   -2.5173 H   0  0  0  0  0  0  0  0  0  0  0  0
    1.6167   -8.7788   -3.4118 H   0  0  0  0  0  0  0  0  0  0  0  0
    2.1510  -10.9888   -2.4156 H   0  0  0  0  0  0  0  0  0  0  0  0
    0.6704  -10.3059   -1.6407 H   0  0  0  0  0  0  0  0  0  0  0  0
    2.2609  -10.2511   -0.7690 H   0  0  0  0  0  0  0  0  0  0  0  0
    0.8820   -3.4751   -0.9334 H   0  0  0  0  0  0  0  0  0  0  0  0
    0.7091   -1.8580   -2.6484 H   0  0  0  0  0  0  0  0  0  0  0  0
    0.7941   -4.1901   -8.3934 H   0  0  0  0  0  0  0  0  0  0  0  0
   -0.9597   -3.8532   -8.1798 H   0  0  0  0  0  0  0  0  0  0  0  0
   -0.4215   -6.1717   -7.4797 H   0  0  0  0  0  0  0  0  0  0  0  0
   -0.9685   -5.2030   -6.0580 H   0  0  0  0  0  0  0  0  0  0  0  0
    0.7925   -5.5644   -6.2902 H   0  0  0  0  0  0  0  0  0  0  0  0
   -3.7206    6.7717   -0.4129 H   0  0  0  0  0  0  0  0  0  0  0  0
   -2.2874    7.4895    0.3830 H   0  0  0  0  0  0  0  0  0  0  0  0
   -2.4121    5.7782    2.1999 H   0  0  0  0  0  0  0  0  0  0  0  0
   -3.8206    4.9907    1.3719 H   0  0  0  0  0  0  0  0  0  0  0  0
   -3.9793    6.6600    2.0364 H   0  0  0  0  0  0  0  0  0  0  0  0
   -1.9133    4.5047   -4.4370 H   0  0  0  0  0  0  0  0  0  0  0  0
   -3.9131    4.7352   -5.8888 H   0  0  0  0  0  0  0  0  0  0  0  0
   -2.5273    5.2709  -10.9116 H   0  0  0  0  0  0  0  0  0  0  0  0
   -7.6783    7.8992   -8.7938 H   0  0  0  0  0  0  0  0  0  0  0  0
   -7.4197    8.3016  -11.3809 H   0  0  0  0  0  0  0  0  0  0  0  0
   -7.3234    6.4218   -6.5814 H   0  0  0  0  0  0  0  0  0  0  0  0
   -4.6654    6.7207   -5.1098 H   0  0  0  0  0  0  0  0  0  0  0  0
   -8.4216    5.9153   -4.7731 H   0  0  0  0  0  0  0  0  0  0  0  0
   -6.2701    6.9787   -0.1115 H   0  0  0  0  0  0  0  0  0  0  0  0
  -12.2308    5.4908   -0.5319 H   0  0  0  0  0  0  0  0  0  0  0  0
  -11.5416    5.9187    1.9590 H   0  0  0  0  0  0  0  0  0  0  0  0
  -10.7663    5.8847   -4.4756 H   0  0  0  0  0  0  0  0  0  0  0  0
  -12.0532    4.0980   -2.3604 H   0  0  0  0  0  0  0  0  0  0  0  0
  -12.5971    4.4063   -4.1087 H   0  0  0  0  0  0  0  0  0  0  0  0
  1  2  2  0
  2  3  1  0
  3  4  1  0
  4  5  2  0
  5  6  1  0
  4  7  1  0
  7  8  2  0
  8  9  1  0
  9 10  2  0
 10 11  1  0
  8 12  1  0
 12 13  1  0
 13 14  2  3
 14 15  1  0
 15 16  2  0
 16 17  1  0
 17 18  1  0
 18 19  2  0
 19 20  1  0
 18 21  1  0
 21 22  2  0
 22 23  1  0
 23 24  2  0
 24 25  1  0
 22 26  1  0
 26 27  1  0
 27 28  2  3
 28 29  1  0
 29 30  2  0
 30 31  1  0
 31 32  2  0
 32 33  1  0
 33 34  1  0
 34 35  1  0
 35 36  1  0
 36 37  1  0
 35 38  2  0
 38 39  1  0
 38 40  1  0
 40 41  1  0
 32 42  1  0
 42 43  2  0
 43 44  1  0
 44 45  1  0
 45 46  1  0
 46 47  1  0
 47 48  1  0
 48 49  1  0
 47 50  2  0
 50 51  1  0
 51 52  1  0
 50 53  1  0
 44 54  2  0
 54 55  1  0
 43 56  1  0
 56 57  2  0
 57 58  1  0
 57 59  1  0
 59 60  2  0
 60 61  1  0
 61 62  2  0
 62 63  1  0
 63 64  1  0
 64 65  1  0
 65 66  1  0
 66 67  1  0
 65 68  2  0
 68 69  1  0
 68 70  1  0
 70 71  1  0
 62 72  1  0
 72 73  2  0
 73 74  1  0
 74 75  1  0
 75 76  1  0
 76 77  1  0
 77 78  1  0
 78 79  1  0
 77 80  2  0
 80 81  1  0
 81 82  1  0
 80 83  1  0
 74 84  2  0
 84 85  1  0
 73 86  1  0
 86 87  2  0
 87 88  1  0
 87 89  1  0
 89 90  2  0
 90 91  1  0
 91 92  1  0
 92 93  2  0
 93 94  1  0
 92 95  1  0
 95 96  2  0
 96 97  1  0
 97 98  2  0
 98 99  1  0
 96100  1  0
100101  1  0
101102  2  3
102103  1  0
103104  2  0
104105  1  0
105106  1  0
106107  2  0
107108  1  0
106109  1  0
109110  2  0
110111  1  0
111112  2  0
112113  1  0
110114  1  0
114115  1  0
115116  2  3
  6  1  1  0
 11  7  1  0
 20 15  1  0
 25 21  1  0
 55 29  1  0
 85 59  1  0
 94 89  1  0
 99 95  1  0
108103  1  0
113109  1  0
 12  3  2  0
 26 17  2  0
 54 31  1  0
 84 61  1  0
100 91  2  0
114105  2  0
 40 33  2  0
 58 42  1  0
 70 63  2  0
 88 72  1  0
 51 45  2  0
 81 75  2  0
  1117  1  0
  2118  1  0
  5119  1  0
  9120  1  0
 10121  1  0
 13122  1  0
 14123  1  0
 16124  1  0
 19125  1  0
 23126  1  0
 24127  1  0
 27128  1  0
 28129  1  0
 30130  1  0
 36131  1  0
 36132  1  0
 37133  1  0
 37134  1  0
 37135  1  0
 48136  1  0
 48137  1  0
 49138  1  0
 49139  1  0
 49140  1  0
 56141  1  0
 60142  1  0
 66143  1  0
 66144  1  0
 67145  1  0
 67146  1  0
 67147  1  0
 78148  1  0
 78149  1  0
 79150  1  0
 79151  1  0
 79152  1  0
 86153  1  0
 90154  1  0
 93155  1  0
 97156  1  0
 98157  1  0
101158  1  0
102159  1  0
104160  1  0
107161  1  0
111162  1  0
112163  1  0
115164  1  0
116165  1  0
116166  1  0
M  END

