
     RDKit          3D

212235  0  0  0  0  0  0  0  0999 V2000
    1.0038   -5.0023   11.9180 C   0  0  0  0  0  0  0  0  0  0  0  0
    0.5261   -3.8594   11.2855 C   0  0  0  0  0  0  0  0  0  0  0  0
   -0.1873   -4.1347   10.1086 C   0  0  0  0  0  0  0  0  0  0  0  0
   -0.7507   -3.1883    9.2327 C   0  0  0  0  0  0  0  0  0  0  0  0
   -0.6302   -1.7322    9.4468 C   0  0  0  0  0  0  0  0  0  0  0  0
    0.0564   -0.9434    8.5086 C   0  0  0  0  0  0  0  0  0  0  0  0
    0.0696    0.4470    8.6282 C   0  0  0  0  0  0  0  0  0  0  0  0
   -0.6023    1.0650    9.6888 C   0  0  0  0  0  0  0  0  0  0  0  0
   -0.6544    2.8602    9.7896 S   0  0  0  0  0  0  0  0  0  0  0  0
    0.8922    3.0252   10.7503 C   0  0  0  0  0  0  0  0  0  0  0  0
    2.0578    3.3478    9.8262 C   0  0  0  0  0  0  0  0  0  0  0  0
   -1.2782    0.2833   10.6385 C   0  0  0  0  0  0  0  0  0  0  0  0
   -1.9428    0.8705   11.6638 F   0  0  0  0  0  0  0  0  0  0  0  0
   -1.2920   -1.1109   10.5175 C   0  0  0  0  0  0  0  0  0  0  0  0
   -1.3892   -3.6877    8.0890 C   0  0  0  0  0  0  0  0  0  0  0  0
   -1.4424   -5.0500    7.7737 C   0  0  0  0  0  0  0  0  0  0  0  0
   -0.8780   -6.0025    8.6524 C   0  0  0  0  0  0  0  0  0  0  0  0
   -0.9128   -7.4547    8.3734 C   0  0  0  0  0  0  0  0  0  0  0  0
   -1.5454   -8.3278    9.2723 C   0  0  0  0  0  0  0  0  0  0  0  0
   -1.5497   -9.7064    9.0368 C   0  0  0  0  0  0  0  0  0  0  0  0
   -0.9167  -10.2272    7.9011 C   0  0  0  0  0  0  0  0  0  0  0  0
   -0.9394  -11.9991    7.5935 S   0  0  0  0  0  0  0  0  0  0  0  0
    0.7027  -12.3246    8.3295 C   0  0  0  0  0  0  0  0  0  0  0  0
    0.5896  -12.5551    9.8308 C   0  0  0  0  0  0  0  0  0  0  0  0
   -0.2877   -9.3577    6.9973 C   0  0  0  0  0  0  0  0  0  0  0  0
   -0.2797   -7.9801    7.2367 C   0  0  0  0  0  0  0  0  0  0  0  0
    0.3394   -9.8495    5.8976 F   0  0  0  0  0  0  0  0  0  0  0  0
   -0.2638   -5.5038    9.8164 C   0  0  0  0  0  0  0  0  0  0  0  0
    0.5544   -6.3546   11.0172 S   0  0  0  0  0  0  0  0  0  0  0  0
   -2.0788   -5.3017    6.5380 C   0  0  0  0  0  0  0  0  0  0  0  0
   -2.5246   -4.1339    5.9102 C   0  0  0  0  0  0  0  0  0  0  0  0
   -2.1396   -2.8081    6.8779 S   0  0  0  0  0  0  0  0  0  0  0  0
   -3.0217   -4.0089    4.5319 C   0  0  0  0  0  0  0  0  0  0  0  0
   -3.4664   -2.8119    3.9694 C   0  0  0  0  0  0  0  0  0  0  0  0
   -3.5336   -2.8515    2.5683 C   0  0  0  0  0  0  0  0  0  0  0  0
   -3.7997   -1.7565    1.7132 C   0  0  0  0  0  0  0  0  0  0  0  0
   -4.0416   -0.3874    2.2331 C   0  0  0  0  0  0  0  0  0  0  0  0
   -3.0773    0.2442    3.0369 C   0  0  0  0  0  0  0  0  0  0  0  0
   -3.3148    1.5227    3.5521 C   0  0  0  0  0  0  0  0  0  0  0  0
   -4.5025    2.1938    3.2541 C   0  0  0  0  0  0  0  0  0  0  0  0
   -4.8310    3.7894    4.0164 S   0  0  0  0  0  0  0  0  0  0  0  0
   -4.1025    4.7552    2.6530 C   0  0  0  0  0  0  0  0  0  0  0  0
   -4.0109    6.2253    3.0429 C   0  0  0  0  0  0  0  0  0  0  0  0
   -5.4590    1.5827    2.4244 C   0  0  0  0  0  0  0  0  0  0  0  0
   -6.6096    2.2299    2.1148 F   0  0  0  0  0  0  0  0  0  0  0  0
   -5.2235    0.2994    1.9129 C   0  0  0  0  0  0  0  0  0  0  0  0
   -3.6825   -1.9960    0.3339 C   0  0  0  0  0  0  0  0  0  0  0  0
   -3.2961   -3.2360   -0.1898 C   0  0  0  0  0  0  0  0  0  0  0  0
   -3.0661   -4.3323    0.6656 C   0  0  0  0  0  0  0  0  0  0  0  0
   -2.5963   -5.6344    0.1560 C   0  0  0  0  0  0  0  0  0  0  0  0
   -3.4471   -6.7463    0.1788 C   0  0  0  0  0  0  0  0  0  0  0  0
   -2.9923   -7.9870   -0.2796 C   0  0  0  0  0  0  0  0  0  0  0  0
   -1.6847   -8.1243   -0.7630 C   0  0  0  0  0  0  0  0  0  0  0  0
   -1.0976   -9.7301   -1.3144 S   0  0  0  0  0  0  0  0  0  0  0  0
   -1.4045   -9.4240   -3.0901 C   0  0  0  0  0  0  0  0  0  0  0  0
   -2.8755   -9.6157   -3.4354 C   0  0  0  0  0  0  0  0  0  0  0  0
   -0.8252   -7.0135   -0.7679 C   0  0  0  0  0  0  0  0  0  0  0  0
   -1.2832   -5.7733   -0.3189 C   0  0  0  0  0  0  0  0  0  0  0  0
    0.4542   -7.1387   -1.2044 F   0  0  0  0  0  0  0  0  0  0  0  0
   -3.1933   -4.1019    2.0435 C   0  0  0  0  0  0  0  0  0  0  0  0
   -2.7696   -5.1367    3.3042 S   0  0  0  0  0  0  0  0  0  0  0  0
   -3.0534   -3.2049   -1.5731 C   0  0  0  0  0  0  0  0  0  0  0  0
   -3.2430   -1.9394   -2.1290 C   0  0  0  0  0  0  0  0  0  0  0  0
   -3.7188   -0.8709   -0.9135 S   0  0  0  0  0  0  0  0  0  0  0  0
   -2.7138   -1.5044   -3.4274 C   0  0  0  0  0  0  0  0  0  0  0  0
   -2.9890   -0.2721   -4.0169 C   0  0  0  0  0  0  0  0  0  0  0  0
   -2.0372    0.1054   -4.9770 C   0  0  0  0  0  0  0  0  0  0  0  0
   -1.9787    1.3605   -5.6213 C   0  0  0  0  0  0  0  0  0  0  0  0
   -3.0973    2.3349   -5.5201 C   0  0  0  0  0  0  0  0  0  0  0  0
   -4.3888    1.9571   -5.9185 C   0  0  0  0  0  0  0  0  0  0  0  0
   -5.4539    2.8563   -5.8078 C   0  0  0  0  0  0  0  0  0  0  0  0
   -5.2352    4.1464   -5.3123 C   0  0  0  0  0  0  0  0  0  0  0  0
   -6.6167    5.2817   -5.1352 S   0  0  0  0  0  0  0  0  0  0  0  0
   -6.3689    6.1101   -6.7465 C   0  0  0  0  0  0  0  0  0  0  0  0
   -6.9342    5.2702   -7.8851 C   0  0  0  0  0  0  0  0  0  0  0  0
   -3.9488    4.5296   -4.9121 C   0  0  0  0  0  0  0  0  0  0  0  0
   -3.7271    5.7774   -4.4295 F   0  0  0  0  0  0  0  0  0  0  0  0
   -2.8879    3.6270   -5.0151 C   0  0  0  0  0  0  0  0  0  0  0  0
   -0.7837    1.6615   -6.2966 C   0  0  0  0  0  0  0  0  0  0  0  0
    0.2909    0.7679   -6.3740 C   0  0  0  0  0  0  0  0  0  0  0  0
    0.1791   -0.5371   -5.8463 C   0  0  0  0  0  0  0  0  0  0  0  0
    1.3133   -1.4912   -5.9274 C   0  0  0  0  0  0  0  0  0  0  0  0
    1.8783   -1.8081   -7.1743 C   0  0  0  0  0  0  0  0  0  0  0  0
    3.0204   -2.6122   -7.2458 C   0  0  0  0  0  0  0  0  0  0  0  0
    3.6113   -3.1042   -6.0764 C   0  0  0  0  0  0  0  0  0  0  0  0
    5.1228   -4.0753   -6.1760 S   0  0  0  0  0  0  0  0  0  0  0  0
    4.2817   -5.6916   -6.3283 C   0  0  0  0  0  0  0  0  0  0  0  0
    3.8730   -6.2211   -4.9595 C   0  0  0  0  0  0  0  0  0  0  0  0
    3.0443   -2.8008   -4.8325 C   0  0  0  0  0  0  0  0  0  0  0  0
    1.8898   -2.0185   -4.7635 C   0  0  0  0  0  0  0  0  0  0  0  0
    3.6096   -3.2550   -3.6870 F   0  0  0  0  0  0  0  0  0  0  0  0
   -0.9994   -0.8246   -5.1281 C   0  0  0  0  0  0  0  0  0  0  0  0
   -1.3097   -2.1370   -4.1178 S   0  0  0  0  0  0  0  0  0  0  0  0
    1.4757    1.3636   -6.8423 C   0  0  0  0  0  0  0  0  0  0  0  0
    1.3310    2.7185   -7.1440 C   0  0  0  0  0  0  0  0  0  0  0  0
   -0.2773    3.1525   -6.8718 S   0  0  0  0  0  0  0  0  0  0  0  0
    2.4382    3.6958   -7.2168 C   0  0  0  0  0  0  0  0  0  0  0  0
    2.1676    5.0704   -7.3258 C   0  0  0  0  0  0  0  0  0  0  0  0
    3.1214    6.0386   -6.9897 C   0  0  0  0  0  0  0  0  0  0  0  0
    4.5351    5.7633   -6.6591 C   0  0  0  0  0  0  0  0  0  0  0  0
    5.1203    4.5105   -6.6216 C   0  0  0  0  0  0  0  0  0  0  0  0
    4.0532    3.2151   -6.8763 S   0  0  0  0  0  0  0  0  0  0  0  0
    5.0830    6.9995   -6.4391 C   0  0  0  0  0  0  0  0  0  0  0  0
    4.1500    7.9698   -6.5842 C   0  0  0  0  0  0  0  0  0  0  0  0
    4.6378    9.2679   -6.4582 C   0  0  0  0  0  0  0  0  0  0  0  0
    6.0148    9.2587   -6.1899 C   0  0  0  0  0  0  0  0  0  0  0  0
    6.5942    7.6505   -6.1280 S   0  0  0  0  0  0  0  0  0  0  0  0
    2.9137    7.4200   -6.8869 C   0  0  0  0  0  0  0  0  0  0  0  0
    1.7660    8.1700   -7.4047 C   0  0  0  0  0  0  0  0  0  0  0  0
    0.6104    8.4316   -6.7706 C   0  0  0  0  0  0  0  0  0  0  0  0
    0.1518    8.0128   -5.4219 C   0  0  0  0  0  0  0  0  0  0  0  0
    0.5028    6.8034   -4.7800 C   0  0  0  0  0  0  0  0  0  0  0  0
   -0.1730    6.3496   -3.6305 C   0  0  0  0  0  0  0  0  0  0  0  0
   -1.2775    7.0679   -2.9478 C   0  0  0  0  0  0  0  0  0  0  0  0
   -1.8027    8.2843   -3.3380 C   0  0  0  0  0  0  0  0  0  0  0  0
   -1.1081    8.9490   -4.7316 S   0  0  0  0  0  0  0  0  0  0  0  0
   -1.7638    6.1877   -2.0203 C   0  0  0  0  0  0  0  0  0  0  0  0
   -1.0914    5.0223   -2.0840 C   0  0  0  0  0  0  0  0  0  0  0  0
   -1.6186    4.0007   -1.2969 C   0  0  0  0  0  0  0  0  0  0  0  0
   -2.7569    4.4325   -0.6117 C   0  0  0  0  0  0  0  0  0  0  0  0
   -3.0938    6.0630   -1.0069 S   0  0  0  0  0  0  0  0  0  0  0  0
   -0.0962    5.0790   -3.0410 C   0  0  0  0  0  0  0  0  0  0  0  0
    0.6870    3.9083   -3.4478 C   0  0  0  0  0  0  0  0  0  0  0  0
    2.0175    3.8779   -3.3062 C   0  0  0  0  0  0  0  0  0  0  0  0
    2.7415    2.6029   -3.0883 C   0  0  0  0  0  0  0  0  0  0  0  0
    4.1443    2.5988   -3.0028 C   0  0  0  0  0  0  0  0  0  0  0  0
    4.8627    1.4582   -2.5922 C   0  0  0  0  0  0  0  0  0  0  0  0
    4.2509    0.1710   -2.1952 C   0  0  0  0  0  0  0  0  0  0  0  0
    2.9020   -0.1080   -2.1814 C   0  0  0  0  0  0  0  0  0  0  0  0
    1.9018    1.1610   -2.6755 S   0  0  0  0  0  0  0  0  0  0  0  0
    5.2972   -0.6218   -1.8154 C   0  0  0  0  0  0  0  0  0  0  0  0
    6.4685    0.0447   -1.9225 C   0  0  0  0  0  0  0  0  0  0  0  0
    7.5859   -0.7156   -1.5704 C   0  0  0  0  0  0  0  0  0  0  0  0
    7.2115   -2.0049   -1.1650 C   0  0  0  0  0  0  0  0  0  0  0  0
    5.5193   -2.1859   -1.2598 S   0  0  0  0  0  0  0  0  0  0  0  0
    6.2461    1.3421   -2.3892 C   0  0  0  0  0  0  0  0  0  0  0  0
    7.2500    2.3959   -2.6347 C   0  0  0  0  0  0  0  0  0  0  0  0
    8.3466    2.5293   -1.8939 C   0  0  0  0  0  0  0  0  0  0  0  0
    1.5870   -5.0147   12.8266 H   0  0  0  0  0  0  0  0  0  0  0  0
    0.7061   -2.8608   11.6653 H   0  0  0  0  0  0  0  0  0  0  0  0
    0.5603   -1.4091    7.6702 H   0  0  0  0  0  0  0  0  0  0  0  0
    0.5773    1.0420    7.8827 H   0  0  0  0  0  0  0  0  0  0  0  0
    1.1122    2.1023   11.3285 H   0  0  0  0  0  0  0  0  0  0  0  0
    0.7634    3.8592   11.4729 H   0  0  0  0  0  0  0  0  0  0  0  0
    1.8292    4.2556    9.2247 H   0  0  0  0  0  0  0  0  0  0  0  0
    2.9582    3.5528   10.4387 H   0  0  0  0  0  0  0  0  0  0  0  0
    2.2642    2.4946    9.1513 H   0  0  0  0  0  0  0  0  0  0  0  0
   -1.8398   -1.7044   11.2401 H   0  0  0  0  0  0  0  0  0  0  0  0
   -2.0333   -7.9420   10.1603 H   0  0  0  0  0  0  0  0  0  0  0  0
   -2.0409  -10.3691    9.7385 H   0  0  0  0  0  0  0  0  0  0  0  0
    1.1163  -13.2397    7.8585 H   0  0  0  0  0  0  0  0  0  0  0  0
    1.4076  -11.4892    8.1219 H   0  0  0  0  0  0  0  0  0  0  0  0
    0.1862  -11.6549   10.3331 H   0  0  0  0  0  0  0  0  0  0  0  0
    1.5940  -12.7784   10.2469 H   0  0  0  0  0  0  0  0  0  0  0  0
   -0.0780  -13.4201   10.0320 H   0  0  0  0  0  0  0  0  0  0  0  0
    0.2245   -7.3229    6.5403 H   0  0  0  0  0  0  0  0  0  0  0  0
   -2.1842   -6.2823    6.0988 H   0  0  0  0  0  0  0  0  0  0  0  0
   -3.6558   -1.9232    4.5569 H   0  0  0  0  0  0  0  0  0  0  0  0
   -2.1541   -0.2614    3.2837 H   0  0  0  0  0  0  0  0  0  0  0  0
   -2.5759    1.9845    4.1948 H   0  0  0  0  0  0  0  0  0  0  0  0
   -4.7614    4.6601    1.7661 H   0  0  0  0  0  0  0  0  0  0  0  0
   -3.0870    4.3786    2.4100 H   0  0  0  0  0  0  0  0  0  0  0  0
   -3.6133    6.8119    2.1896 H   0  0  0  0  0  0  0  0  0  0  0  0
   -5.0171    6.6143    3.3047 H   0  0  0  0  0  0  0  0  0  0  0  0
   -3.3357    6.3502    3.9164 H   0  0  0  0  0  0  0  0  0  0  0  0
   -5.9748   -0.1680    1.2839 H   0  0  0  0  0  0  0  0  0  0  0  0
   -4.4589   -6.6562    0.5534 H   0  0  0  0  0  0  0  0  0  0  0  0
   -3.6533   -8.8450   -0.2518 H   0  0  0  0  0  0  0  0  0  0  0  0
   -0.8038  -10.1584   -3.6694 H   0  0  0  0  0  0  0  0  0  0  0  0
   -1.0699   -8.4033   -3.3778 H   0  0  0  0  0  0  0  0  0  0  0  0
   -3.4958   -8.8333   -2.9487 H   0  0  0  0  0  0  0  0  0  0  0  0
   -3.2191  -10.6190   -3.1071 H   0  0  0  0  0  0  0  0  0  0  0  0
   -3.0113   -9.5338   -4.5341 H   0  0  0  0  0  0  0  0  0  0  0  0
   -0.6132   -4.9217   -0.3254 H   0  0  0  0  0  0  0  0  0  0  0  0
   -2.6692   -4.0444   -2.1367 H   0  0  0  0  0  0  0  0  0  0  0  0
   -3.7804    0.3755   -3.6710 H   0  0  0  0  0  0  0  0  0  0  0  0
   -4.5736    0.9639   -6.3068 H   0  0  0  0  0  0  0  0  0  0  0  0
   -6.4479    2.5472   -6.1050 H   0  0  0  0  0  0  0  0  0  0  0  0
   -6.9065    7.0819   -6.7177 H   0  0  0  0  0  0  0  0  0  0  0  0
   -5.2923    6.3201   -6.9206 H   0  0  0  0  0  0  0  0  0  0  0  0
   -6.3145    4.3649   -8.0420 H   0  0  0  0  0  0  0  0  0  0  0  0
   -6.9308    5.8643   -8.8233 H   0  0  0  0  0  0  0  0  0  0  0  0
   -7.9795    4.9661   -7.6592 H   0  0  0  0  0  0  0  0  0  0  0  0
   -1.9086    3.9356   -4.6947 H   0  0  0  0  0  0  0  0  0  0  0  0
    1.4565   -1.4071   -8.0854 H   0  0  0  0  0  0  0  0  0  0  0  0
    3.4570   -2.8382   -8.2123 H   0  0  0  0  0  0  0  0  0  0  0  0
    5.0000   -6.4054   -6.7833 H   0  0  0  0  0  0  0  0  0  0  0  0
    3.3963   -5.6205   -6.9974 H   0  0  0  0  0  0  0  0  0  0  0  0
    3.5340   -7.2733   -5.0535 H   0  0  0  0  0  0  0  0  0  0  0  0
    3.0396   -5.6211   -4.5440 H   0  0  0  0  0  0  0  0  0  0  0  0
    4.7342   -6.1869   -4.2588 H   0  0  0  0  0  0  0  0  0  0  0  0
    1.4662   -1.7943   -3.7972 H   0  0  0  0  0  0  0  0  0  0  0  0
    2.4333    0.8619   -6.8433 H   0  0  0  0  0  0  0  0  0  0  0  0
    1.1623    5.3990   -7.5584 H   0  0  0  0  0  0  0  0  0  0  0  0
    6.1670    4.3593   -6.3929 H   0  0  0  0  0  0  0  0  0  0  0  0
    4.0411   10.1627   -6.5654 H   0  0  0  0  0  0  0  0  0  0  0  0
    6.6206   10.1433   -6.0531 H   0  0  0  0  0  0  0  0  0  0  0  0
    1.9133    8.6433   -8.3693 H   0  0  0  0  0  0  0  0  0  0  0  0
   -0.0738    9.0757   -7.3065 H   0  0  0  0  0  0  0  0  0  0  0  0
    1.2422    6.1564   -5.1973 H   0  0  0  0  0  0  0  0  0  0  0  0
   -2.6472    8.7472   -2.8424 H   0  0  0  0  0  0  0  0  0  0  0  0
   -1.2247    2.9942   -1.2521 H   0  0  0  0  0  0  0  0  0  0  0  0
   -3.3554    3.8033    0.0290 H   0  0  0  0  0  0  0  0  0  0  0  0
    0.1353    2.9844   -3.5701 H   0  0  0  0  0  0  0  0  0  0  0  0
    2.5561    4.8077   -3.1519 H   0  0  0  0  0  0  0  0  0  0  0  0
    4.6813    3.5130   -3.2170 H   0  0  0  0  0  0  0  0  0  0  0  0
    2.5096   -1.0573   -1.8473 H   0  0  0  0  0  0  0  0  0  0  0  0
    8.6100   -0.3757   -1.6090 H   0  0  0  0  0  0  0  0  0  0  0  0
    7.9007   -2.7743   -0.8475 H   0  0  0  0  0  0  0  0  0  0  0  0
    7.0602    3.1290   -3.4068 H   0  0  0  0  0  0  0  0  0  0  0  0
    9.0409    3.3362   -2.0971 H   0  0  0  0  0  0  0  0  0  0  0  0
    8.5511    1.8752   -1.0572 H   0  0  0  0  0  0  0  0  0  0  0  0
  1  2  2  0
  2  3  1  0
  3  4  2  0
  4  5  1  0
  5  6  2  0
  6  7  1  0
  7  8  2  0
  8  9  1  0
  9 10  1  0
 10 11  1  0
  8 12  1  0
 12 13  1  0
 12 14  2  0
  4 15  1  0
 15 16  2  0
 16 17  1  0
 17 18  1  0
 18 19  2  0
 19 20  1  0
 20 21  2  0
 21 22  1  0
 22 23  1  0
 23 24  1  0
 21 25  1  0
 25 26  2  0
 25 27  1  0
 17 28  2  0
 28 29  1  0
 16 30  1  0
 30 31  2  0
 31 32  1  0
 31 33  1  0
 33 34  2  0
 34 35  1  0
 35 36  2  0
 36 37  1  0
 37 38  2  0
 38 39  1  0
 39 40  2  0
 40 41  1  0
 41 42  1  0
 42 43  1  0
 40 44  1  0
 44 45  1  0
 44 46  2  0
 36 47  1  0
 47 48  2  0
 48 49  1  0
 49 50  1  0
 50 51  2  0
 51 52  1  0
 52 53  2  0
 53 54  1  0
 54 55  1  0
 55 56  1  0
 53 57  1  0
 57 58  2  0
 57 59  1  0
 49 60  2  0
 60 61  1  0
 48 62  1  0
 62 63  2  0
 63 64  1  0
 63 65  1  0
 65 66  2  0
 66 67  1  0
 67 68  2  0
 68 69  1  0
 69 70  2  0
 70 71  1  0
 71 72  2  0
 72 73  1  0
 73 74  1  0
 74 75  1  0
 72 76  1  0
 76 77  1  0
 76 78  2  0
 68 79  1  0
 79 80  2  0
 80 81  1  0
 81 82  1  0
 82 83  2  0
 83 84  1  0
 84 85  2  0
 85 86  1  0
 86 87  1  0
 87 88  1  0
 85 89  1  0
 89 90  2  0
 89 91  1  0
 81 92  2  0
 92 93  1  0
 80 94  1  0
 94 95  2  0
 95 96  1  0
 95 97  1  0
 97 98  2  0
 98 99  1  0
 99100  1  0
100101  2  0
101102  1  0
100103  1  0
103104  2  0
104105  1  0
105106  2  0
106107  1  0
104108  1  0
108109  1  0
109110  2  3
110111  1  0
111112  2  0
112113  1  0
113114  1  0
114115  2  0
115116  1  0
114117  1  0
117118  2  0
118119  1  0
119120  2  0
120121  1  0
118122  1  0
122123  1  0
123124  2  3
124125  1  0
125126  2  0
126127  1  0
127128  1  0
128129  2  0
129130  1  0
128131  1  0
131132  2  0
132133  1  0
133134  2  0
134135  1  0
132136  1  0
136137  1  0
137138  2  3
 29  1  1  0
 61 33  1  0
 93 65  1  0
102 97  1  0
107103  1  0
116111  1  0
121117  1  0
130125  1  0
135131  1  0
 28  3  1  0
 60 35  1  0
 92 67  1  0
108 99  2  0
122113  2  0
136127  2  0
 14  5  1  0
 32 15  1  0
 46 37  1  0
 64 47  1  0
 78 69  1  0
 96 79  1  0
 26 18  1  0
 58 50  1  0
 90 82  1  0
  1139  1  0
  2140  1  0
  6141  1  0
  7142  1  0
 10143  1  0
 10144  1  0
 11145  1  0
 11146  1  0
 11147  1  0
 14148  1  0
 19149  1  0
 20150  1  0
 23151  1  0
 23152  1  0
 24153  1  0
 24154  1  0
 24155  1  0
 26156  1  0
 30157  1  0
 34158  1  0
 38159  1  0
 39160  1  0
 42161  1  0
 42162  1  0
 43163  1  0
 43164  1  0
 43165  1  0
 46166  1  0
 51167  1  0
 52168  1  0
 55169  1  0
 55170  1  0
 56171  1  0
 56172  1  0
 56173  1  0
 58174  1  0
 62175  1  0
 66176  1  0
 70177  1  0
 71178  1  0
 74179  1  0
 74180  1  0
 75181  1  0
 75182  1  0
 75183  1  0
 78184  1  0
 83185  1  0
 84186  1  0
 87187  1  0
 87188  1  0
 88189  1  0
 88190  1  0
 88191  1  0
 90192  1  0
 94193  1  0
 98194  1  0
101195  1  0
105196  1  0
106197  1  0
109198  1  0
110199  1  0
112200  1  0
115201  1  0
119202  1  0
120203  1  0
123204  1  0
124205  1  0
126206  1  0
129207  1  0
133208  1  0
134209  1  0
137210  1  0
138211  1  0
138212  1  0
M  END

