
     RDKit          3D

 97109  0  0  0  0  0  0  0  0999 V2000
   -2.5490   -2.2900   -2.4605 C   0  0  0  0  0  0  0  0  0  0  0  0
   -3.3010   -3.5685   -3.2650 S   0  0  0  0  0  0  0  0  0  0  0  0
   -4.7708   -3.5615   -2.4233 C   0  0  0  0  0  0  0  0  0  0  0  0
   -4.6506   -2.5441   -1.4989 C   0  0  0  0  0  0  0  0  0  0  0  0
   -3.4622   -1.8477   -1.5061 C   0  0  0  0  0  0  0  0  0  0  0  0
   -3.3602   -0.8955   -0.3840 C   0  0  0  0  0  0  0  0  0  0  0  0
   -4.4471   -0.9661    0.4061 C   0  0  0  0  0  0  0  0  0  0  0  0
   -5.6738   -2.0860   -0.1797 S   0  0  0  0  0  3  0  0  0  0  0  0
   -6.9674   -1.2009   -0.7940 O   0  0  0  0  0  1  0  0  0  0  0  0
   -2.2342    0.0067   -0.0563 C   0  0  0  0  0  0  0  0  0  0  0  0
   -1.3319    0.4333   -0.9514 C   0  0  0  0  0  0  0  0  0  0  0  0
   -0.2281    1.3543   -0.5983 C   0  0  0  0  0  0  0  0  0  0  0  0
    0.9058    1.4420   -1.4251 C   0  0  0  0  0  0  0  0  0  0  0  0
    1.9830    2.3008   -1.1248 C   0  0  0  0  0  0  0  0  0  0  0  0
    2.0103    3.2606    0.0033 C   0  0  0  0  0  0  0  0  0  0  0  0
    1.0390    3.3788    0.9797 C   0  0  0  0  0  0  0  0  0  0  0  0
   -0.2928    2.3466    0.7928 S   0  0  0  0  0  0  0  0  0  0  0  0
    3.1748    3.9661   -0.1586 C   0  0  0  0  0  0  0  0  0  0  0  0
    3.8510    3.5319   -1.2450 C   0  0  0  0  0  0  0  0  0  0  0  0
    5.0520    4.1928   -1.4814 C   0  0  0  0  0  0  0  0  0  0  0  0
    5.2723    5.1756   -0.5122 C   0  0  0  0  0  0  0  0  0  0  0  0
    3.9791    5.2171    0.6073 S   0  0  0  0  0  0  0  0  0  0  0  0
    3.1727    2.4872   -1.8562 C   0  0  0  0  0  0  0  0  0  0  0  0
    3.6488    1.7356   -3.0328 C   0  0  0  0  0  0  0  0  0  0  0  0
    3.4931    0.4077   -3.1159 C   0  0  0  0  0  0  0  0  0  0  0  0
    3.9376   -0.3886   -4.2734 C   0  0  0  0  0  0  0  0  0  0  0  0
    5.0488    0.0737   -5.4744 S   0  0  0  0  0  0  0  0  0  0  0  0
    5.0503   -1.3768   -6.3474 C   0  0  0  0  0  0  0  0  0  0  0  0
    4.1679   -2.2132   -5.6871 C   0  0  0  0  0  0  0  0  0  0  0  0
    3.5603   -1.6951   -4.5670 C   0  0  0  0  0  0  0  0  0  0  0  0
    2.6084   -2.6382   -3.9617 C   0  0  0  0  0  0  0  0  0  0  0  0
    2.5455   -3.7798   -4.6567 C   0  0  0  0  0  0  0  0  0  0  0  0
    3.6124   -3.8086   -6.0659 S   0  0  0  0  0  3  0  0  0  0  0  0
    2.6519   -3.7282   -7.4469 O   0  0  0  0  0  1  0  0  0  0  0  0
    1.6553   -2.3018   -2.8970 C   0  0  0  0  0  0  0  0  0  0  0  0
    1.9112   -2.3592   -1.5843 C   0  0  0  0  0  0  0  0  0  0  0  0
    3.1701   -2.8369   -0.9706 C   0  0  0  0  0  0  0  0  0  0  0  0
    4.3767   -3.7938   -1.6892 S   0  0  0  0  0  0  0  0  0  0  0  0
    5.3555   -4.0290   -0.3309 C   0  0  0  0  0  0  0  0  0  0  0  0
    4.7071   -3.3657    0.6964 C   0  0  0  0  0  0  0  0  0  0  0  0
    3.5395   -2.7142    0.3683 C   0  0  0  0  0  0  0  0  0  0  0  0
    2.9847   -1.9738    1.5122 C   0  0  0  0  0  0  0  0  0  0  0  0
    3.7503   -2.1018    2.6047 C   0  0  0  0  0  0  0  0  0  0  0  0
    5.1284   -3.1695    2.3629 S   0  0  0  0  0  3  0  0  0  0  0  0
    4.8297   -4.6064    3.1830 O   0  0  0  0  0  1  0  0  0  0  0  0
    1.8924   -1.0003    1.4442 C   0  0  0  0  0  0  0  0  0  0  0  0
    0.6239   -1.2729    1.7659 C   0  0  0  0  0  0  0  0  0  0  0  0
    0.0546   -2.6192    1.9740 C   0  0  0  0  0  0  0  0  0  0  0  0
    0.5394   -4.0787    1.2419 S   0  0  0  0  0  0  0  0  0  0  0  0
   -0.8209   -5.0060    1.6248 C   0  0  0  0  0  0  0  0  0  0  0  0
   -1.6642   -4.1482    2.3080 C   0  0  0  0  0  0  0  0  0  0  0  0
   -1.1990   -2.8761    2.5195 C   0  0  0  0  0  0  0  0  0  0  0  0
   -2.1579   -2.0334    3.2443 C   0  0  0  0  0  0  0  0  0  0  0  0
   -3.2994   -2.6912    3.4944 C   0  0  0  0  0  0  0  0  0  0  0  0
   -3.2846   -4.3544    2.8818 S   0  0  0  0  0  3  0  0  0  0  0  0
   -4.3304   -4.4534    1.5709 O   0  0  0  0  0  1  0  0  0  0  0  0
   -1.7487   -0.8249    3.9750 C   0  0  0  0  0  0  0  0  0  0  0  0
   -2.3952    0.3393    3.8394 C   0  0  0  0  0  0  0  0  0  0  0  0
   -1.9080    1.5632    4.5093 C   0  0  0  0  0  0  0  0  0  0  0  0
   -0.8233    1.5961    5.8150 S   0  0  0  0  0  0  0  0  0  0  0  0
   -0.4938    3.2448    5.8220 C   0  0  0  0  0  0  0  0  0  0  0  0
   -1.2565    3.7785    4.8028 C   0  0  0  0  0  0  0  0  0  0  0  0
   -2.0343    2.8928    4.0896 C   0  0  0  0  0  0  0  0  0  0  0  0
   -2.6090    3.5246    2.8824 C   0  0  0  0  0  0  0  0  0  0  0  0
   -2.1544    4.7718    2.7130 C   0  0  0  0  0  0  0  0  0  0  0  0
   -1.1547    5.3374    4.0534 S   0  0  0  0  0  3  0  0  0  0  0  0
   -2.0520    6.4202    4.9731 O   0  0  0  0  0  1  0  0  0  0  0  0
   -3.5877    2.9283    1.9533 C   0  0  0  0  0  0  0  0  0  0  0  0
   -4.7131    2.3542    2.3864 C   0  0  0  0  0  0  0  0  0  0  0  0
   -1.5308   -1.9756   -2.6072 H   0  0  0  0  0  0  0  0  0  0  0  0
   -5.5979   -4.2494   -2.5462 H   0  0  0  0  0  0  0  0  0  0  0  0
   -4.5633   -0.4115    1.3305 H   0  0  0  0  0  0  0  0  0  0  0  0
   -2.1805    0.3644    0.9595 H   0  0  0  0  0  0  0  0  0  0  0  0
   -1.4182    0.1419   -1.9826 H   0  0  0  0  0  0  0  0  0  0  0  0
    0.9395    0.8433   -2.3208 H   0  0  0  0  0  0  0  0  0  0  0  0
    1.1138    4.0972    1.7913 H   0  0  0  0  0  0  0  0  0  0  0  0
    5.7377    3.9628   -2.2878 H   0  0  0  0  0  0  0  0  0  0  0  0
    6.1329    5.8290   -0.4834 H   0  0  0  0  0  0  0  0  0  0  0  0
    4.1823    2.2782   -3.8085 H   0  0  0  0  0  0  0  0  0  0  0  0
    3.0452   -0.1119   -2.2866 H   0  0  0  0  0  0  0  0  0  0  0  0
    5.6060   -1.5953   -7.2545 H   0  0  0  0  0  0  0  0  0  0  0  0
    1.8733   -4.5904   -4.4157 H   0  0  0  0  0  0  0  0  0  0  0  0
    0.6889   -1.9410   -3.2192 H   0  0  0  0  0  0  0  0  0  0  0  0
    1.1249   -2.0242   -0.9228 H   0  0  0  0  0  0  0  0  0  0  0  0
    6.2712   -4.6049   -0.2603 H   0  0  0  0  0  0  0  0  0  0  0  0
    3.5886   -1.5444    3.5159 H   0  0  0  0  0  0  0  0  0  0  0  0
    2.1619    0.0335    1.2653 H   0  0  0  0  0  0  0  0  0  0  0  0
   -0.0527   -0.4318    1.8392 H   0  0  0  0  0  0  0  0  0  0  0  0
   -1.0175   -6.0313    1.3488 H   0  0  0  0  0  0  0  0  0  0  0  0
   -4.0639   -2.3114    4.1667 H   0  0  0  0  0  0  0  0  0  0  0  0
   -0.8335   -0.8866    4.5705 H   0  0  0  0  0  0  0  0  0  0  0  0
   -3.2170    0.3880    3.1338 H   0  0  0  0  0  0  0  0  0  0  0  0
    0.2219    3.7750    6.4438 H   0  0  0  0  0  0  0  0  0  0  0  0
   -2.4120    5.3968    1.8656 H   0  0  0  0  0  0  0  0  0  0  0  0
   -3.4675    3.0929    0.8896 H   0  0  0  0  0  0  0  0  0  0  0  0
   -5.4486    1.9972    1.6680 H   0  0  0  0  0  0  0  0  0  0  0  0
   -4.9094    2.2319    3.4501 H   0  0  0  0  0  0  0  0  0  0  0  0
  1  2  1  0
  2  3  1  0
  3  4  2  0
  4  5  1  0
  5  6  1  0
  6  7  2  0
  7  8  1  0
  8  9  1  0
  6 10  1  0
 10 11  2  3
 11 12  1  0
 12 13  2  0
 13 14  1  0
 14 15  1  0
 15 16  2  0
 16 17  1  0
 15 18  1  0
 18 19  2  0
 19 20  1  0
 20 21  2  0
 21 22  1  0
 19 23  1  0
 23 24  1  0
 24 25  2  3
 25 26  1  0
 26 27  1  0
 27 28  1  0
 28 29  2  0
 29 30  1  0
 30 31  1  0
 31 32  2  0
 32 33  1  0
 33 34  1  0
 31 35  1  0
 35 36  2  3
 36 37  1  0
 37 38  1  0
 38 39  1  0
 39 40  2  0
 40 41  1  0
 41 42  1  0
 42 43  2  0
 43 44  1  0
 44 45  1  0
 42 46  1  0
 46 47  2  3
 47 48  1  0
 48 49  1  0
 49 50  1  0
 50 51  2  0
 51 52  1  0
 52 53  1  0
 53 54  2  0
 54 55  1  0
 55 56  1  0
 53 57  1  0
 57 58  2  3
 58 59  1  0
 59 60  1  0
 60 61  1  0
 61 62  2  0
 62 63  1  0
 63 64  1  0
 64 65  2  0
 65 66  1  0
 66 67  1  0
 64 68  1  0
 68 69  2  3
  5  1  2  0
 17 12  1  0
 22 18  1  0
 30 26  2  0
 41 37  2  0
 52 48  2  0
 63 59  2  0
  8  4  1  0
 23 14  2  0
 33 29  1  0
 44 40  1  0
 55 51  1  0
 66 62  1  0
  1 70  1  0
  3 71  1  0
  7 72  1  0
 10 73  1  0
 11 74  1  0
 13 75  1  0
 16 76  1  0
 20 77  1  0
 21 78  1  0
 24 79  1  0
 25 80  1  0
 28 81  1  0
 32 82  1  0
 35 83  1  0
 36 84  1  0
 39 85  1  0
 43 86  1  0
 46 87  1  0
 47 88  1  0
 50 89  1  0
 54 90  1  0
 57 91  1  0
 58 92  1  0
 61 93  1  0
 65 94  1  0
 68 95  1  0
 69 96  1  0
 69 97  1  0
M  RAD  8   8   2   9   2  33   2  34   2  44   2  45   2  55   2  56   2
M  RAD  2  66   2  67   2
M  END

