
     RDKit          3D

210235  0  0  0  0  0  0  0  0999 V2000
    2.6235   -5.0230   12.8463 C   0  0  0  0  0  0  0  0  0  0  0  0
    1.9294   -4.4251   11.7878 C   0  0  0  0  0  0  0  0  0  0  0  0
    1.6483   -3.0446   11.7742 C   0  0  0  0  0  0  0  0  0  0  0  0
    1.9760   -2.1134   12.8781 C   0  0  0  0  0  0  0  0  0  0  0  0
    2.6606   -2.4388   14.0365 C   0  0  0  0  0  0  0  0  0  0  0  0
    3.1130   -4.0653   14.1734 S   0  0  0  0  0  0  0  0  0  0  0  0
    1.4669   -0.9056   12.4848 C   0  0  0  0  0  0  0  0  0  0  0  0
    0.8816   -1.0051   11.2703 C   0  0  0  0  0  0  0  0  0  0  0  0
    0.3744    0.1916   10.7729 C   0  0  0  0  0  0  0  0  0  0  0  0
    0.5883    1.2368   11.6807 C   0  0  0  0  0  0  0  0  0  0  0  0
    1.4084    0.6630   13.0667 S   0  0  0  0  0  0  0  0  0  0  0  0
    0.9821   -2.2980   10.7818 C   0  0  0  0  0  0  0  0  0  0  0  0
    0.5133   -2.7312    9.4517 C   0  0  0  0  0  0  0  0  0  0  0  0
    1.2219   -3.5759    8.6974 C   0  0  0  0  0  0  0  0  0  0  0  0
    0.8312   -3.9598    7.3317 C   0  0  0  0  0  0  0  0  0  0  0  0
    1.5849   -4.8059    6.5246 C   0  0  0  0  0  0  0  0  0  0  0  0
    1.0594   -4.9443    5.2323 C   0  0  0  0  0  0  0  0  0  0  0  0
    1.6256   -5.6886    4.1787 C   0  0  0  0  0  0  0  0  0  0  0  0
    2.8802   -6.4434    4.3432 C   0  0  0  0  0  0  0  0  0  0  0  0
    4.3757   -5.7567    4.6934 S   0  0  0  0  0  0  0  0  0  0  0  0
    5.2222   -7.2102    4.7721 C   0  0  0  0  0  0  0  0  0  0  0  0
    6.6616   -7.3291    5.1761 C   0  0  0  0  0  0  0  0  0  0  0  0
    6.7906   -7.3447    6.6945 C   0  0  0  0  0  0  0  0  0  0  0  0
    4.3323   -8.2594    4.5417 C   0  0  0  0  0  0  0  0  0  0  0  0
    4.7943   -9.9551    4.5924 Cl  0  0  0  0  0  0  0  0  0  0  0  0
    3.0223   -7.8285    4.2901 C   0  0  0  0  0  0  0  0  0  0  0  0
    1.6821   -8.9293    4.0062 Cl  0  0  0  0  0  0  0  0  0  0  0  0
    0.9658   -5.6378    2.9410 C   0  0  0  0  0  0  0  0  0  0  0  0
   -0.2192   -4.9214    2.7448 C   0  0  0  0  0  0  0  0  0  0  0  0
   -0.7998   -4.2013    3.8068 C   0  0  0  0  0  0  0  0  0  0  0  0
   -2.0338   -3.4196    3.6319 C   0  0  0  0  0  0  0  0  0  0  0  0
   -3.5863   -4.0633    3.6903 S   0  0  0  0  0  0  0  0  0  0  0  0
   -4.3969   -2.5938    3.5502 C   0  0  0  0  0  0  0  0  0  0  0  0
   -5.8891   -2.4425    3.5765 C   0  0  0  0  0  0  0  0  0  0  0  0
   -6.4962   -2.6918    2.2018 C   0  0  0  0  0  0  0  0  0  0  0  0
   -3.4502   -1.5725    3.4438 C   0  0  0  0  0  0  0  0  0  0  0  0
   -2.1256   -2.0367    3.4991 C   0  0  0  0  0  0  0  0  0  0  0  0
   -0.7233   -0.9791    3.4087 Cl  0  0  0  0  0  0  0  0  0  0  0  0
   -3.8621    0.1312    3.2927 Cl  0  0  0  0  0  0  0  0  0  0  0  0
   -0.1243   -4.2242    5.0377 C   0  0  0  0  0  0  0  0  0  0  0  0
   -0.5109   -3.4031    6.4588 S   0  0  0  0  0  0  0  0  0  0  0  0
   -0.6398   -4.9081    1.4056 C   0  0  0  0  0  0  0  0  0  0  0  0
    0.2354   -5.5882    0.5597 C   0  0  0  0  0  0  0  0  0  0  0  0
    1.5229   -6.2024    1.4579 S   0  0  0  0  0  0  0  0  0  0  0  0
    0.2834   -5.3829   -0.8842 C   0  0  0  0  0  0  0  0  0  0  0  0
   -0.6941   -5.7762   -1.7930 C   0  0  0  0  0  0  0  0  0  0  0  0
   -0.5297   -5.1804   -3.0568 C   0  0  0  0  0  0  0  0  0  0  0  0
   -1.4166   -5.2866   -4.1477 C   0  0  0  0  0  0  0  0  0  0  0  0
   -2.5683   -6.2065   -4.1148 C   0  0  0  0  0  0  0  0  0  0  0  0
   -4.1786   -5.7374   -4.0053 S   0  0  0  0  0  0  0  0  0  0  0  0
   -4.8054   -7.2963   -3.8757 C   0  0  0  0  0  0  0  0  0  0  0  0
   -6.2638   -7.6301   -3.7733 C   0  0  0  0  0  0  0  0  0  0  0  0
   -6.8574   -7.9013   -5.1491 C   0  0  0  0  0  0  0  0  0  0  0  0
   -3.7539   -8.2079   -3.9283 C   0  0  0  0  0  0  0  0  0  0  0  0
   -3.9714   -9.9501   -3.8342 Cl  0  0  0  0  0  0  0  0  0  0  0  0
   -2.4973   -7.5967   -4.0477 C   0  0  0  0  0  0  0  0  0  0  0  0
   -0.9880   -8.4942   -4.1315 Cl  0  0  0  0  0  0  0  0  0  0  0  0
   -1.1780   -4.4373   -5.2433 C   0  0  0  0  0  0  0  0  0  0  0  0
   -0.0948   -3.5548   -5.2850 C   0  0  0  0  0  0  0  0  0  0  0  0
    0.7944   -3.4520   -4.1995 C   0  0  0  0  0  0  0  0  0  0  0  0
    1.7871   -2.3635   -4.1138 C   0  0  0  0  0  0  0  0  0  0  0  0
    3.4526   -2.5773   -4.0339 S   0  0  0  0  0  0  0  0  0  0  0  0
    3.8384   -0.9404   -3.9451 C   0  0  0  0  0  0  0  0  0  0  0  0
    5.2244   -0.3996   -3.7806 C   0  0  0  0  0  0  0  0  0  0  0  0
    5.5657   -0.2293   -2.3040 C   0  0  0  0  0  0  0  0  0  0  0  0
    2.6568   -0.2012   -3.9496 C   0  0  0  0  0  0  0  0  0  0  0  0
    1.5072   -0.9975   -4.0475 C   0  0  0  0  0  0  0  0  0  0  0  0
   -0.1251   -0.3325   -4.0280 Cl  0  0  0  0  0  0  0  0  0  0  0  0
    2.6085    1.5518   -3.8025 Cl  0  0  0  0  0  0  0  0  0  0  0  0
    0.5570   -4.2987   -3.1073 C   0  0  0  0  0  0  0  0  0  0  0  0
    1.3238   -4.2772   -1.6132 S   0  0  0  0  0  0  0  0  0  0  0  0
   -0.1056   -2.7173   -6.4047 C   0  0  0  0  0  0  0  0  0  0  0  0
   -1.2424   -2.8608   -7.2034 C   0  0  0  0  0  0  0  0  0  0  0  0
   -2.1839   -4.1128   -6.5550 S   0  0  0  0  0  0  0  0  0  0  0  0
   -1.7884   -1.7291   -7.9754 C   0  0  0  0  0  0  0  0  0  0  0  0
   -1.0083   -0.6226   -8.3277 C   0  0  0  0  0  0  0  0  0  0  0  0
   -1.6944    0.6000   -8.2364 C   0  0  0  0  0  0  0  0  0  0  0  0
   -1.0755    1.8645   -8.1451 C   0  0  0  0  0  0  0  0  0  0  0  0
    0.3744    2.0230   -8.3753 C   0  0  0  0  0  0  0  0  0  0  0  0
    1.5202    2.3040   -7.1755 S   0  0  0  0  0  0  0  0  0  0  0  0
    2.8620    2.2610   -8.1897 C   0  0  0  0  0  0  0  0  0  0  0  0
    4.2816    2.4154   -7.7302 C   0  0  0  0  0  0  0  0  0  0  0  0
    4.9649    1.0583   -7.6004 C   0  0  0  0  0  0  0  0  0  0  0  0
    2.4274    2.0041   -9.4893 C   0  0  0  0  0  0  0  0  0  0  0  0
    3.5141    1.8527  -10.8664 Cl  0  0  0  0  0  0  0  0  0  0  0  0
    1.0337    1.8650   -9.5910 C   0  0  0  0  0  0  0  0  0  0  0  0
    0.2010    1.5285  -11.1042 Cl  0  0  0  0  0  0  0  0  0  0  0  0
   -1.8446    2.9082   -7.6039 C   0  0  0  0  0  0  0  0  0  0  0  0
   -3.1856    2.7447   -7.2456 C   0  0  0  0  0  0  0  0  0  0  0  0
   -3.8330    1.5074   -7.4401 C   0  0  0  0  0  0  0  0  0  0  0  0
   -5.1714    1.2557   -6.8806 C   0  0  0  0  0  0  0  0  0  0  0  0
   -6.6113    1.4355   -7.7246 S   0  0  0  0  0  0  0  0  0  0  0  0
   -7.6186    1.0515   -6.4302 C   0  0  0  0  0  0  0  0  0  0  0  0
   -9.1152    1.1379   -6.4653 C   0  0  0  0  0  0  0  0  0  0  0  0
   -9.5777    2.5471   -6.1153 C   0  0  0  0  0  0  0  0  0  0  0  0
   -6.8300    0.8043   -5.3067 C   0  0  0  0  0  0  0  0  0  0  0  0
   -5.4560    0.9118   -5.5621 C   0  0  0  0  0  0  0  0  0  0  0  0
   -4.2175    0.6514   -4.3372 Cl  0  0  0  0  0  0  0  0  0  0  0  0
   -7.4856    0.4178   -3.7196 Cl  0  0  0  0  0  0  0  0  0  0  0  0
   -3.0446    0.4452   -7.9108 C   0  0  0  0  0  0  0  0  0  0  0  0
   -3.3644   -1.1898   -7.7031 S   0  0  0  0  0  0  0  0  0  0  0  0
   -3.6764    3.7874   -6.4432 C   0  0  0  0  0  0  0  0  0  0  0  0
   -2.6987    4.7115   -6.0689 C   0  0  0  0  0  0  0  0  0  0  0  0
   -1.2729    4.3179   -6.8855 S   0  0  0  0  0  0  0  0  0  0  0  0
   -2.6674    5.2788   -4.7069 C   0  0  0  0  0  0  0  0  0  0  0  0
   -1.5494    5.9129   -4.1541 C   0  0  0  0  0  0  0  0  0  0  0  0
   -1.4200    5.7099   -2.7651 C   0  0  0  0  0  0  0  0  0  0  0  0
   -0.2760    6.0012   -1.9932 C   0  0  0  0  0  0  0  0  0  0  0  0
    0.8211    6.8325   -2.5297 C   0  0  0  0  0  0  0  0  0  0  0  0
    2.3987    6.3117   -2.7942 S   0  0  0  0  0  0  0  0  0  0  0  0
    2.9544    7.7562   -3.4611 C   0  0  0  0  0  0  0  0  0  0  0  0
    4.3663    8.0128   -3.8957 C   0  0  0  0  0  0  0  0  0  0  0  0
    5.1581    8.7078   -2.7915 C   0  0  0  0  0  0  0  0  0  0  0  0
    1.9057    8.6744   -3.4731 C   0  0  0  0  0  0  0  0  0  0  0  0
    2.0644   10.3232   -4.0635 Cl  0  0  0  0  0  0  0  0  0  0  0  0
    0.7087    8.1542   -2.9609 C   0  0  0  0  0  0  0  0  0  0  0  0
   -0.7729    9.0931   -2.8289 Cl  0  0  0  0  0  0  0  0  0  0  0  0
   -0.1954    5.3984   -0.7251 C   0  0  0  0  0  0  0  0  0  0  0  0
   -1.2113    4.5858   -0.2123 C   0  0  0  0  0  0  0  0  0  0  0  0
   -2.3820    4.3509   -0.9557 C   0  0  0  0  0  0  0  0  0  0  0  0
   -3.3720    3.3322   -0.5564 C   0  0  0  0  0  0  0  0  0  0  0  0
   -5.0063    3.6292   -0.2954 S   0  0  0  0  0  0  0  0  0  0  0  0
   -5.4666    2.0140   -0.1770 C   0  0  0  0  0  0  0  0  0  0  0  0
   -6.8670    1.5464    0.0782 C   0  0  0  0  0  0  0  0  0  0  0  0
   -7.0952    1.3013    1.5647 C   0  0  0  0  0  0  0  0  0  0  0  0
   -4.3371    1.2150   -0.3480 C   0  0  0  0  0  0  0  0  0  0  0  0
   -3.1656    1.9529   -0.5688 C   0  0  0  0  0  0  0  0  0  0  0  0
   -1.6140    1.2051   -0.9328 Cl  0  0  0  0  0  0  0  0  0  0  0  0
   -4.3762   -0.5423   -0.3536 Cl  0  0  0  0  0  0  0  0  0  0  0  0
   -2.4559    4.9439   -2.2261 C   0  0  0  0  0  0  0  0  0  0  0  0
   -3.5239    4.5411   -3.4502 S   0  0  0  0  0  0  0  0  0  0  0  0
   -0.8864    3.9955    1.0171 C   0  0  0  0  0  0  0  0  0  0  0  0
    0.3951    4.3233    1.4605 C   0  0  0  0  0  0  0  0  0  0  0  0
    1.1033    5.3764    0.3402 S   0  0  0  0  0  0  0  0  0  0  0  0
    1.0588    3.7486    2.6525 C   0  0  0  0  0  0  0  0  0  0  0  0
    2.4385    3.9185    2.8803 C   0  0  0  0  0  0  0  0  0  0  0  0
    3.0854    3.3478    3.9907 C   0  0  0  0  0  0  0  0  0  0  0  0
    2.4244    2.5226    5.0208 C   0  0  0  0  0  0  0  0  0  0  0  0
    1.0816    2.1958    5.0541 C   0  0  0  0  0  0  0  0  0  0  0  0
    0.1602    2.8082    3.7715 S   0  0  0  0  0  0  0  0  0  0  0  0
    3.4130    2.2056    5.9112 C   0  0  0  0  0  0  0  0  0  0  0  0
    4.5949    2.7480    5.5310 C   0  0  0  0  0  0  0  0  0  0  0  0
    5.6287    2.5566    6.4490 C   0  0  0  0  0  0  0  0  0  0  0  0
    5.1863    1.8188    7.5547 C   0  0  0  0  0  0  0  0  0  0  0  0
    3.5314    1.4369    7.3912 S   0  0  0  0  0  0  0  0  0  0  0  0
    4.4430    3.4490    4.3369 C   0  0  0  0  0  0  0  0  0  0  0  0
    5.4697    4.2101    3.5943 C   0  0  0  0  0  0  0  0  0  0  0  0
    6.7552    3.8639    3.5787 C   0  0  0  0  0  0  0  0  0  0  0  0
    2.8406   -6.0827   12.8317 H   0  0  0  0  0  0  0  0  0  0  0  0
    1.5965   -5.0578   10.9781 H   0  0  0  0  0  0  0  0  0  0  0  0
    2.8885   -1.7121   14.8056 H   0  0  0  0  0  0  0  0  0  0  0  0
   -0.1076    0.3026    9.8107 H   0  0  0  0  0  0  0  0  0  0  0  0
    0.2925    2.2637   11.5236 H   0  0  0  0  0  0  0  0  0  0  0  0
   -0.3729   -2.2585    9.0480 H   0  0  0  0  0  0  0  0  0  0  0  0
    2.1661   -3.9604    9.0629 H   0  0  0  0  0  0  0  0  0  0  0  0
    2.4927   -5.2862    6.8642 H   0  0  0  0  0  0  0  0  0  0  0  0
    7.2276   -6.4651    4.7633 H   0  0  0  0  0  0  0  0  0  0  0  0
    7.1030   -8.2561    4.7538 H   0  0  0  0  0  0  0  0  0  0  0  0
    7.8623   -7.4190    6.9743 H   0  0  0  0  0  0  0  0  0  0  0  0
    6.3759   -6.4094    7.1269 H   0  0  0  0  0  0  0  0  0  0  0  0
    6.2509   -8.2173    7.1207 H   0  0  0  0  0  0  0  0  0  0  0  0
   -6.1674   -1.4260    3.9254 H   0  0  0  0  0  0  0  0  0  0  0  0
   -6.3101   -3.1712    4.3011 H   0  0  0  0  0  0  0  0  0  0  0  0
   -6.2307   -3.7075    1.8374 H   0  0  0  0  0  0  0  0  0  0  0  0
   -7.6015   -2.6227    2.2765 H   0  0  0  0  0  0  0  0  0  0  0  0
   -6.1449   -1.9316    1.4777 H   0  0  0  0  0  0  0  0  0  0  0  0
   -1.4795   -4.3291    1.0460 H   0  0  0  0  0  0  0  0  0  0  0  0
   -1.5275   -6.4128   -1.5235 H   0  0  0  0  0  0  0  0  0  0  0  0
   -6.4019   -8.5232   -3.1253 H   0  0  0  0  0  0  0  0  0  0  0  0
   -6.8062   -6.7829   -3.2992 H   0  0  0  0  0  0  0  0  0  0  0  0
   -6.3114   -8.7216   -5.6592 H   0  0  0  0  0  0  0  0  0  0  0  0
   -6.8112   -6.9827   -5.7702 H   0  0  0  0  0  0  0  0  0  0  0  0
   -7.9212   -8.1978   -5.0366 H   0  0  0  0  0  0  0  0  0  0  0  0
    5.9533   -1.0987   -4.2477 H   0  0  0  0  0  0  0  0  0  0  0  0
    5.3127    0.5798   -4.2998 H   0  0  0  0  0  0  0  0  0  0  0  0
    4.8330    0.4422   -1.8077 H   0  0  0  0  0  0  0  0  0  0  0  0
    6.5806    0.2138   -2.2066 H   0  0  0  0  0  0  0  0  0  0  0  0
    5.5632   -1.2158   -1.7946 H   0  0  0  0  0  0  0  0  0  0  0  0
    0.6138   -1.9196   -6.5402 H   0  0  0  0  0  0  0  0  0  0  0  0
    0.0691   -0.6784   -8.4258 H   0  0  0  0  0  0  0  0  0  0  0  0
    4.8422    3.0468   -8.4513 H   0  0  0  0  0  0  0  0  0  0  0  0
    4.2984    2.9280   -6.7447 H   0  0  0  0  0  0  0  0  0  0  0  0
    4.3850    0.3917   -6.9263 H   0  0  0  0  0  0  0  0  0  0  0  0
    5.0596    0.5783   -8.5974 H   0  0  0  0  0  0  0  0  0  0  0  0
    5.9829    1.1944   -7.1779 H   0  0  0  0  0  0  0  0  0  0  0  0
   -9.5548    0.4091   -5.7489 H   0  0  0  0  0  0  0  0  0  0  0  0
   -9.4758    0.8723   -7.4831 H   0  0  0  0  0  0  0  0  0  0  0  0
   -9.2350    3.2681   -6.8915 H   0  0  0  0  0  0  0  0  0  0  0  0
   -9.1764    2.8582   -5.1260 H   0  0  0  0  0  0  0  0  0  0  0  0
  -10.6885    2.5789   -6.0779 H   0  0  0  0  0  0  0  0  0  0  0  0
   -4.6484    3.7443   -5.9653 H   0  0  0  0  0  0  0  0  0  0  0  0
   -0.7643    6.3453   -4.7626 H   0  0  0  0  0  0  0  0  0  0  0  0
    4.8594    7.0490   -4.1511 H   0  0  0  0  0  0  0  0  0  0  0  0
    4.3658    8.6453   -4.8106 H   0  0  0  0  0  0  0  0  0  0  0  0
    5.2733    8.0334   -1.9191 H   0  0  0  0  0  0  0  0  0  0  0  0
    6.1669    8.9659   -3.1753 H   0  0  0  0  0  0  0  0  0  0  0  0
    4.6501    9.6406   -2.4707 H   0  0  0  0  0  0  0  0  0  0  0  0
   -7.0648    0.6131   -0.4891 H   0  0  0  0  0  0  0  0  0  0  0  0
   -7.5817    2.3189   -0.2790 H   0  0  0  0  0  0  0  0  0  0  0  0
   -6.8695    2.2189    2.1472 H   0  0  0  0  0  0  0  0  0  0  0  0
   -8.1571    1.0239    1.7360 H   0  0  0  0  0  0  0  0  0  0  0  0
   -6.4528    0.4710    1.9225 H   0  0  0  0  0  0  0  0  0  0  0  0
   -1.5464    3.3155    1.5413 H   0  0  0  0  0  0  0  0  0  0  0  0
    3.0266    4.4932    2.1768 H   0  0  0  0  0  0  0  0  0  0  0  0
    0.6455    1.5893    5.8363 H   0  0  0  0  0  0  0  0  0  0  0  0
    6.6278    2.9569    6.3522 H   0  0  0  0  0  0  0  0  0  0  0  0
    5.7980    1.5589    8.4066 H   0  0  0  0  0  0  0  0  0  0  0  0
    5.1618    5.0537    2.9905 H   0  0  0  0  0  0  0  0  0  0  0  0
    7.1152    2.9845    4.0939 H   0  0  0  0  0  0  0  0  0  0  0  0
    7.4621    4.4489    3.0020 H   0  0  0  0  0  0  0  0  0  0  0  0
  1  2  2  0
  2  3  1  0
  3  4  1  0
  4  5  2  0
  5  6  1  0
  4  7  1  0
  7  8  2  0
  8  9  1  0
  9 10  2  0
 10 11  1  0
  8 12  1  0
 12 13  1  0
 13 14  2  3
 14 15  1  0
 15 16  2  0
 16 17  1  0
 17 18  2  0
 18 19  1  0
 19 20  1  0
 20 21  1  0
 21 22  1  0
 22 23  1  0
 21 24  2  0
 24 25  1  0
 24 26  1  0
 26 27  1  0
 18 28  1  0
 28 29  2  0
 29 30  1  0
 30 31  1  0
 31 32  1  0
 32 33  1  0
 33 34  1  0
 34 35  1  0
 33 36  2  0
 36 37  1  0
 37 38  1  0
 36 39  1  0
 30 40  2  0
 40 41  1  0
 29 42  1  0
 42 43  2  0
 43 44  1  0
 43 45  1  0
 45 46  2  0
 46 47  1  0
 47 48  2  0
 48 49  1  0
 49 50  1  0
 50 51  1  0
 51 52  1  0
 52 53  1  0
 51 54  2  0
 54 55  1  0
 54 56  1  0
 56 57  1  0
 48 58  1  0
 58 59  2  0
 59 60  1  0
 60 61  1  0
 61 62  1  0
 62 63  1  0
 63 64  1  0
 64 65  1  0
 63 66  2  0
 66 67  1  0
 67 68  1  0
 66 69  1  0
 60 70  2  0
 70 71  1  0
 59 72  1  0
 72 73  2  0
 73 74  1  0
 73 75  1  0
 75 76  2  0
 76 77  1  0
 77 78  2  0
 78 79  1  0
 79 80  1  0
 80 81  1  0
 81 82  1  0
 82 83  1  0
 81 84  2  0
 84 85  1  0
 84 86  1  0
 86 87  1  0
 78 88  1  0
 88 89  2  0
 89 90  1  0
 90 91  1  0
 91 92  1  0
 92 93  1  0
 93 94  1  0
 94 95  1  0
 93 96  2  0
 96 97  1  0
 97 98  1  0
 96 99  1  0
 90100  2  0
100101  1  0
 89102  1  0
102103  2  0
103104  1  0
103105  1  0
105106  2  0
106107  1  0
107108  2  0
108109  1  0
109110  1  0
110111  1  0
111112  1  0
112113  1  0
111114  2  0
114115  1  0
114116  1  0
116117  1  0
108118  1  0
118119  2  0
119120  1  0
120121  1  0
121122  1  0
122123  1  0
123124  1  0
124125  1  0
123126  2  0
126127  1  0
127128  1  0
126129  1  0
120130  2  0
130131  1  0
119132  1  0
132133  2  0
133134  1  0
133135  1  0
135136  2  0
136137  1  0
137138  1  0
138139  2  0
139140  1  0
138141  1  0
141142  2  0
142143  1  0
143144  2  0
144145  1  0
142146  1  0
146147  1  0
147148  2  3
  6  1  1  0
 11  7  1  0
 41 15  1  0
 71 45  1  0
101 75  1  0
131105  1  0
140135  1  0
145141  1  0
 12  3  2  0
 40 17  1  0
 70 47  1  0
100 77  1  0
130107  1  0
146137  2  0
 26 19  2  0
 44 28  1  0
 56 49  2  0
 74 58  1  0
 86 79  2  0
104 88  1  0
116109  2  0
134118  1  0
 37 31  2  0
 67 61  2  0
 97 91  2  0
127121  2  0
  1149  1  0
  2150  1  0
  5151  1  0
  9152  1  0
 10153  1  0
 13154  1  0
 14155  1  0
 16156  1  0
 22157  1  0
 22158  1  0
 23159  1  0
 23160  1  0
 23161  1  0
 34162  1  0
 34163  1  0
 35164  1  0
 35165  1  0
 35166  1  0
 42167  1  0
 46168  1  0
 52169  1  0
 52170  1  0
 53171  1  0
 53172  1  0
 53173  1  0
 64174  1  0
 64175  1  0
 65176  1  0
 65177  1  0
 65178  1  0
 72179  1  0
 76180  1  0
 82181  1  0
 82182  1  0
 83183  1  0
 83184  1  0
 83185  1  0
 94186  1  0
 94187  1  0
 95188  1  0
 95189  1  0
 95190  1  0
102191  1  0
106192  1  0
112193  1  0
112194  1  0
113195  1  0
113196  1  0
113197  1  0
124198  1  0
124199  1  0
125200  1  0
125201  1  0
125202  1  0
132203  1  0
136204  1  0
139205  1  0
143206  1  0
144207  1  0
147208  1  0
148209  1  0
148210  1  0
M  END

