
     RDKit          3D

173196  0  0  0  0  0  0  0  0999 V2000
   16.2750   -3.2713    7.6279 C   0  0  0  0  0  0  0  0  0  0  0  0
   16.0732   -4.6579    7.6533 C   0  0  0  0  0  0  0  0  0  0  0  0
   14.7183   -4.9752    7.6764 C   0  0  0  0  0  0  0  0  0  0  0  0
   13.9017   -3.8865    7.6659 C   0  0  0  0  0  0  0  0  0  0  0  0
   14.7749   -2.4624    7.5690 S   0  0  0  0  0  0  0  0  0  0  0  0
   12.5675   -4.3245    7.3921 C   0  0  0  0  0  0  0  0  0  0  0  0
   12.5761   -5.6782    7.2422 C   0  0  0  0  0  0  0  0  0  0  0  0
   13.9589   -6.2567    7.4282 C   0  0  0  0  0  0  0  0  0  0  0  0
   11.3973   -6.1946    6.7094 C   0  0  0  0  0  0  0  0  0  0  0  0
   10.4708   -5.1735    6.4471 C   0  0  0  0  0  0  0  0  0  0  0  0
   11.1465   -3.6524    6.8281 S   0  0  0  0  0  0  0  0  0  0  0  0
    9.1268   -5.3628    5.8791 C   0  0  0  0  0  0  0  0  0  0  0  0
    8.2620   -4.3347    5.5138 C   0  0  0  0  0  0  0  0  0  0  0  0
    7.0130   -4.7981    5.0816 C   0  0  0  0  0  0  0  0  0  0  0  0
    5.9257   -4.0025    4.6851 C   0  0  0  0  0  0  0  0  0  0  0  0
    6.0407   -2.5447    4.5066 C   0  0  0  0  0  0  0  0  0  0  0  0
    6.1846   -1.4099    5.7408 S   0  0  0  0  0  0  0  0  0  0  0  0
    6.1700   -0.0543    4.7369 C   0  0  0  0  0  0  0  0  0  0  0  0
    6.3163    1.3637    5.2010 C   0  0  0  0  0  0  0  0  0  0  0  0
    7.7831    1.7763    5.2162 C   0  0  0  0  0  0  0  0  0  0  0  0
    6.0687   -0.4810    3.4122 C   0  0  0  0  0  0  0  0  0  0  0  0
    6.0554    0.6129    2.0354 Cl  0  0  0  0  0  0  0  0  0  0  0  0
    5.9871   -1.8740    3.2847 C   0  0  0  0  0  0  0  0  0  0  0  0
    5.8626   -2.6965    1.7351 Cl  0  0  0  0  0  0  0  0  0  0  0  0
    4.7360   -4.6701    4.3669 C   0  0  0  0  0  0  0  0  0  0  0  0
    4.6210   -6.0644    4.3554 C   0  0  0  0  0  0  0  0  0  0  0  0
    5.7298   -6.8658    4.7002 C   0  0  0  0  0  0  0  0  0  0  0  0
    5.6668   -8.3365    4.6857 C   0  0  0  0  0  0  0  0  0  0  0  0
    4.7294   -9.2749    5.7205 S   0  0  0  0  0  0  0  0  0  0  0  0
    5.2757  -10.7620    5.1524 C   0  0  0  0  0  0  0  0  0  0  0  0
    4.7936  -12.0952    5.6414 C   0  0  0  0  0  0  0  0  0  0  0  0
    3.6046  -12.5746    4.8166 C   0  0  0  0  0  0  0  0  0  0  0  0
    6.1925  -10.5414    4.1249 C   0  0  0  0  0  0  0  0  0  0  0  0
    6.4181   -9.1815    3.8689 C   0  0  0  0  0  0  0  0  0  0  0  0
    7.5009   -8.6030    2.6091 Cl  0  0  0  0  0  0  0  0  0  0  0  0
    6.9743  -11.8351    3.2246 Cl  0  0  0  0  0  0  0  0  0  0  0  0
    6.9068   -6.1939    5.0839 C   0  0  0  0  0  0  0  0  0  0  0  0
    8.3556   -6.8481    5.6418 S   0  0  0  0  0  0  0  0  0  0  0  0
    3.3400   -6.5085    3.9695 C   0  0  0  0  0  0  0  0  0  0  0  0
    2.4579   -5.4494    3.7519 C   0  0  0  0  0  0  0  0  0  0  0  0
    3.2607   -3.9861    3.9696 S   0  0  0  0  0  0  0  0  0  0  0  0
    1.0724   -5.5264    3.2907 C   0  0  0  0  0  0  0  0  0  0  0  0
    0.6862   -6.0725    2.0683 C   0  0  0  0  0  0  0  0  0  0  0  0
   -0.5153   -5.5251    1.5781 C   0  0  0  0  0  0  0  0  0  0  0  0
   -1.0524   -5.7057    0.2838 C   0  0  0  0  0  0  0  0  0  0  0  0
   -0.4678   -6.6609   -0.6716 C   0  0  0  0  0  0  0  0  0  0  0  0
    1.0625   -6.5305   -1.3567 S   0  0  0  0  0  0  0  0  0  0  0  0
    1.0049   -7.9943   -2.1876 C   0  0  0  0  0  0  0  0  0  0  0  0
    2.1021   -8.5177   -3.0613 C   0  0  0  0  0  0  0  0  0  0  0  0
    1.9130   -8.0537   -4.5006 C   0  0  0  0  0  0  0  0  0  0  0  0
   -0.2360   -8.5906   -1.9610 C   0  0  0  0  0  0  0  0  0  0  0  0
   -0.7101  -10.1385   -2.6443 Cl  0  0  0  0  0  0  0  0  0  0  0  0
   -1.0605   -7.8415   -1.1055 C   0  0  0  0  0  0  0  0  0  0  0  0
   -2.6539   -8.3704   -0.5899 Cl  0  0  0  0  0  0  0  0  0  0  0  0
   -2.1095   -4.8540   -0.0927 C   0  0  0  0  0  0  0  0  0  0  0  0
   -2.6567   -3.9149    0.7871 C   0  0  0  0  0  0  0  0  0  0  0  0
   -2.1757   -3.7918    2.1009 C   0  0  0  0  0  0  0  0  0  0  0  0
   -2.6427   -2.7081    2.9811 C   0  0  0  0  0  0  0  0  0  0  0  0
   -4.1591   -2.6398    3.6987 S   0  0  0  0  0  0  0  0  0  0  0  0
   -3.9747   -1.1026    4.3618 C   0  0  0  0  0  0  0  0  0  0  0  0
   -5.0505   -0.3595    5.0938 C   0  0  0  0  0  0  0  0  0  0  0  0
   -5.8867    0.4668    4.1246 C   0  0  0  0  0  0  0  0  0  0  0  0
   -2.7233   -0.6043    3.9925 C   0  0  0  0  0  0  0  0  0  0  0  0
   -1.9767   -1.5078    3.2197 C   0  0  0  0  0  0  0  0  0  0  0  0
   -0.4035   -1.1275    2.5386 Cl  0  0  0  0  0  0  0  0  0  0  0  0
   -2.1608    1.0099    4.4013 Cl  0  0  0  0  0  0  0  0  0  0  0  0
   -1.0869   -4.5969    2.4547 C   0  0  0  0  0  0  0  0  0  0  0  0
   -0.0970   -4.4238    3.7945 S   0  0  0  0  0  0  0  0  0  0  0  0
   -3.5070   -2.9988    0.1626 C   0  0  0  0  0  0  0  0  0  0  0  0
   -3.5918   -3.1700   -1.2145 C   0  0  0  0  0  0  0  0  0  0  0  0
   -2.6515   -4.5035   -1.6534 S   0  0  0  0  0  0  0  0  0  0  0  0
   -3.8977   -2.0420   -2.0968 C   0  0  0  0  0  0  0  0  0  0  0  0
   -3.4011   -0.7609   -1.8774 C   0  0  0  0  0  0  0  0  0  0  0  0
   -3.9829    0.2061   -2.7013 C   0  0  0  0  0  0  0  0  0  0  0  0
   -3.7009    1.5835   -2.6836 C   0  0  0  0  0  0  0  0  0  0  0  0
   -2.7004    2.1756   -1.7691 C   0  0  0  0  0  0  0  0  0  0  0  0
   -2.7944    2.1591   -0.0879 S   0  0  0  0  0  0  0  0  0  0  0  0
   -1.4174    3.0884    0.1807 C   0  0  0  0  0  0  0  0  0  0  0  0
   -0.8792    3.4465    1.5363 C   0  0  0  0  0  0  0  0  0  0  0  0
    0.3627    2.6233    1.8659 C   0  0  0  0  0  0  0  0  0  0  0  0
   -0.8602    3.4244   -1.0512 C   0  0  0  0  0  0  0  0  0  0  0  0
    0.5946    4.3982   -1.2284 Cl  0  0  0  0  0  0  0  0  0  0  0  0
   -1.5780    2.9141   -2.1431 C   0  0  0  0  0  0  0  0  0  0  0  0
   -1.0721    3.1359   -3.8111 Cl  0  0  0  0  0  0  0  0  0  0  0  0
   -4.4427    2.3897   -3.5568 C   0  0  0  0  0  0  0  0  0  0  0  0
   -5.4005    1.8753   -4.4385 C   0  0  0  0  0  0  0  0  0  0  0  0
   -5.6691    0.4881   -4.4715 C   0  0  0  0  0  0  0  0  0  0  0  0
   -6.7160   -0.0760   -5.3392 C   0  0  0  0  0  0  0  0  0  0  0  0
   -6.6975   -0.0234   -7.0208 S   0  0  0  0  0  0  0  0  0  0  0  0
   -8.1967   -0.7543   -7.2395 C   0  0  0  0  0  0  0  0  0  0  0  0
   -8.8011   -1.0629   -8.5762 C   0  0  0  0  0  0  0  0  0  0  0  0
   -8.2865   -2.3988   -9.1059 C   0  0  0  0  0  0  0  0  0  0  0  0
   -8.7270   -1.0686   -5.9894 C   0  0  0  0  0  0  0  0  0  0  0  0
   -7.9032   -0.6737   -4.9225 C   0  0  0  0  0  0  0  0  0  0  0  0
   -8.3690   -0.8365   -3.2349 Cl  0  0  0  0  0  0  0  0  0  0  0  0
  -10.2864   -1.8439   -5.7613 Cl  0  0  0  0  0  0  0  0  0  0  0  0
   -4.9350   -0.3229   -3.5814 C   0  0  0  0  0  0  0  0  0  0  0  0
   -5.0487   -1.9937   -3.3320 S   0  0  0  0  0  0  0  0  0  0  0  0
   -6.0751    2.8792   -5.1605 C   0  0  0  0  0  0  0  0  0  0  0  0
   -5.6537    4.1652   -4.8191 C   0  0  0  0  0  0  0  0  0  0  0  0
   -4.4540    4.0645   -3.6400 S   0  0  0  0  0  0  0  0  0  0  0  0
   -6.2089    5.4338   -5.3097 C   0  0  0  0  0  0  0  0  0  0  0  0
   -6.9511    5.6147   -6.4896 C   0  0  0  0  0  0  0  0  0  0  0  0
   -7.2965    6.9559   -6.6586 C   0  0  0  0  0  0  0  0  0  0  0  0
   -6.8532    7.7637   -5.6589 C   0  0  0  0  0  0  0  0  0  0  0  0
   -5.9609    6.9293   -4.5245 S   0  0  0  0  0  0  0  0  0  0  0  0
   -7.0764    9.1229   -6.0291 C   0  0  0  0  0  0  0  0  0  0  0  0
   -7.6578    9.1500   -7.2565 C   0  0  0  0  0  0  0  0  0  0  0  0
   -7.8757    7.7559   -7.8044 C   0  0  0  0  0  0  0  0  0  0  0  0
   -7.7437   10.4297   -7.8017 C   0  0  0  0  0  0  0  0  0  0  0  0
   -7.1973   11.3876   -6.9294 C   0  0  0  0  0  0  0  0  0  0  0  0
   -6.5779   10.6323   -5.5284 S   0  0  0  0  0  0  0  0  0  0  0  0
   -7.1040   12.8340   -7.1895 C   0  0  0  0  0  0  0  0  0  0  0  0
   -6.3813   13.7380   -6.3995 C   0  0  0  0  0  0  0  0  0  0  0  0
   -6.5355   15.0453   -6.8510 C   0  0  0  0  0  0  0  0  0  0  0  0
   -7.3537   15.1638   -7.9357 C   0  0  0  0  0  0  0  0  0  0  0  0
   -7.9873   13.6767   -8.3806 S   0  0  0  0  0  0  0  0  0  0  0  0
   -7.7715   16.5331   -8.0358 C   0  0  0  0  0  0  0  0  0  0  0  0
   -7.1956   17.2339   -7.0133 C   0  0  0  0  0  0  0  0  0  0  0  0
   -6.3121   16.3657   -6.1607 C   0  0  0  0  0  0  0  0  0  0  0  0
   -7.8207   18.4484   -6.7362 C   0  0  0  0  0  0  0  0  0  0  0  0
   -8.9125   18.6723   -7.5849 C   0  0  0  0  0  0  0  0  0  0  0  0
   -9.1340   17.3261   -8.6044 S   0  0  0  0  0  0  0  0  0  0  0  0
   17.2433   -2.7893    7.5868 H   0  0  0  0  0  0  0  0  0  0  0  0
   16.8701   -5.3910    7.6030 H   0  0  0  0  0  0  0  0  0  0  0  0
   14.0046   -6.9263    8.3106 H   0  0  0  0  0  0  0  0  0  0  0  0
   14.3123   -6.7510    6.4994 H   0  0  0  0  0  0  0  0  0  0  0  0
   11.2426   -7.2386    6.4750 H   0  0  0  0  0  0  0  0  0  0  0  0
    8.5184   -3.2852    5.5815 H   0  0  0  0  0  0  0  0  0  0  0  0
    5.8904    1.4669    6.2227 H   0  0  0  0  0  0  0  0  0  0  0  0
    5.7522    2.0379    4.5248 H   0  0  0  0  0  0  0  0  0  0  0  0
    8.3489    1.1576    5.9451 H   0  0  0  0  0  0  0  0  0  0  0  0
    8.2278    1.6625    4.2034 H   0  0  0  0  0  0  0  0  0  0  0  0
    7.8622    2.8412    5.5188 H   0  0  0  0  0  0  0  0  0  0  0  0
    5.6164  -12.8382    5.5790 H   0  0  0  0  0  0  0  0  0  0  0  0
    4.4916  -12.0109    6.7085 H   0  0  0  0  0  0  0  0  0  0  0  0
    3.8624  -12.5987    3.7373 H   0  0  0  0  0  0  0  0  0  0  0  0
    3.3244  -13.5981    5.1393 H   0  0  0  0  0  0  0  0  0  0  0  0
    2.7375  -11.9001    4.9763 H   0  0  0  0  0  0  0  0  0  0  0  0
    3.0585   -7.5475    3.8616 H   0  0  0  0  0  0  0  0  0  0  0  0
    1.3285   -6.7272    1.4958 H   0  0  0  0  0  0  0  0  0  0  0  0
    3.0822   -8.1524   -2.6831 H   0  0  0  0  0  0  0  0  0  0  0  0
    2.1177   -9.6290   -3.0257 H   0  0  0  0  0  0  0  0  0  0  0  0
    0.9402   -8.4160   -4.8971 H   0  0  0  0  0  0  0  0  0  0  0  0
    1.9381   -6.9446   -4.5529 H   0  0  0  0  0  0  0  0  0  0  0  0
    2.7300   -8.4600   -5.1334 H   0  0  0  0  0  0  0  0  0  0  0  0
   -4.5952    0.3093    5.8539 H   0  0  0  0  0  0  0  0  0  0  0  0
   -5.7072   -1.0847    5.6216 H   0  0  0  0  0  0  0  0  0  0  0  0
   -6.3804   -0.1952    3.3788 H   0  0  0  0  0  0  0  0  0  0  0  0
   -5.2467    1.2072    3.5975 H   0  0  0  0  0  0  0  0  0  0  0  0
   -6.6712    1.0153    4.6868 H   0  0  0  0  0  0  0  0  0  0  0  0
   -3.9193   -2.1315    0.6639 H   0  0  0  0  0  0  0  0  0  0  0  0
   -2.6564   -0.5441   -1.1241 H   0  0  0  0  0  0  0  0  0  0  0  0
   -0.6338    4.5291    1.5697 H   0  0  0  0  0  0  0  0  0  0  0  0
   -1.6581    3.2454    2.3050 H   0  0  0  0  0  0  0  0  0  0  0  0
    1.2031    2.9043    1.1965 H   0  0  0  0  0  0  0  0  0  0  0  0
    0.6705    2.8140    2.9148 H   0  0  0  0  0  0  0  0  0  0  0  0
    0.1510    1.5409    1.7480 H   0  0  0  0  0  0  0  0  0  0  0  0
   -9.9091   -1.0962   -8.4991 H   0  0  0  0  0  0  0  0  0  0  0  0
   -8.5305   -0.2572   -9.2906 H   0  0  0  0  0  0  0  0  0  0  0  0
   -8.5957   -3.2259   -8.4314 H   0  0  0  0  0  0  0  0  0  0  0  0
   -7.1783   -2.3825   -9.1764 H   0  0  0  0  0  0  0  0  0  0  0  0
   -8.7026   -2.5831  -10.1160 H   0  0  0  0  0  0  0  0  0  0  0  0
   -6.8779    2.6868   -5.8617 H   0  0  0  0  0  0  0  0  0  0  0  0
   -7.1801    4.8343   -7.2018 H   0  0  0  0  0  0  0  0  0  0  0  0
   -8.9536    7.5389   -7.9481 H   0  0  0  0  0  0  0  0  0  0  0  0
   -7.2897    7.6001   -8.7370 H   0  0  0  0  0  0  0  0  0  0  0  0
   -8.1341   10.6426   -8.7898 H   0  0  0  0  0  0  0  0  0  0  0  0
   -5.8275   13.4727   -5.5079 H   0  0  0  0  0  0  0  0  0  0  0  0
   -5.2491   16.6809   -6.2161 H   0  0  0  0  0  0  0  0  0  0  0  0
   -6.6814   16.3290   -5.1139 H   0  0  0  0  0  0  0  0  0  0  0  0
   -7.5597   19.0916   -5.9060 H   0  0  0  0  0  0  0  0  0  0  0  0
   -9.5728   19.5259   -7.5306 H   0  0  0  0  0  0  0  0  0  0  0  0
  1  2  2  0
  2  3  1  0
  3  4  2  0
  4  5  1  0
  4  6  1  0
  6  7  2  0
  7  8  1  0
  7  9  1  0
  9 10  2  0
 10 11  1  0
 10 12  1  0
 12 13  2  0
 13 14  1  0
 14 15  2  0
 15 16  1  0
 16 17  1  0
 17 18  1  0
 18 19  1  0
 19 20  1  0
 18 21  2  0
 21 22  1  0
 21 23  1  0
 23 24  1  0
 15 25  1  0
 25 26  2  0
 26 27  1  0
 27 28  1  0
 28 29  1  0
 29 30  1  0
 30 31  1  0
 31 32  1  0
 30 33  2  0
 33 34  1  0
 34 35  1  0
 33 36  1  0
 27 37  2  0
 37 38  1  0
 26 39  1  0
 39 40  2  0
 40 41  1  0
 40 42  1  0
 42 43  2  0
 43 44  1  0
 44 45  2  0
 45 46  1  0
 46 47  1  0
 47 48  1  0
 48 49  1  0
 49 50  1  0
 48 51  2  0
 51 52  1  0
 51 53  1  0
 53 54  1  0
 45 55  1  0
 55 56  2  0
 56 57  1  0
 57 58  1  0
 58 59  1  0
 59 60  1  0
 60 61  1  0
 61 62  1  0
 60 63  2  0
 63 64  1  0
 64 65  1  0
 63 66  1  0
 57 67  2  0
 67 68  1  0
 56 69  1  0
 69 70  2  0
 70 71  1  0
 70 72  1  0
 72 73  2  0
 73 74  1  0
 74 75  2  0
 75 76  1  0
 76 77  1  0
 77 78  1  0
 78 79  1  0
 79 80  1  0
 78 81  2  0
 81 82  1  0
 81 83  1  0
 83 84  1  0
 75 85  1  0
 85 86  2  0
 86 87  1  0
 87 88  1  0
 88 89  1  0
 89 90  1  0
 90 91  1  0
 91 92  1  0
 90 93  2  0
 93 94  1  0
 94 95  1  0
 93 96  1  0
 87 97  2  0
 97 98  1  0
 86 99  1  0
 99100  2  0
100101  1  0
100102  1  0
102103  2  0
103104  1  0
104105  2  0
105106  1  0
105107  1  0
107108  2  0
108109  1  0
108110  1  0
110111  2  0
111112  1  0
111113  1  0
113114  2  0
114115  1  0
115116  2  0
116117  1  0
116118  1  0
118119  2  0
119120  1  0
119121  1  0
121122  2  0
122123  1  0
  5  1  1  0
 11  6  1  0
 38 12  1  0
 68 42  1  0
 98 72  1  0
106102  1  0
112107  1  0
117113  1  0
123118  1  0
  8  3  1  0
 37 14  1  0
 67 44  1  0
 97 74  1  0
109104  1  0
120115  1  0
 23 16  2  0
 41 25  1  0
 53 46  2  0
 71 55  1  0
 83 76  2  0
101 85  1  0
 34 28  2  0
 64 58  2  0
 94 88  2  0
  1124  1  0
  2125  1  0
  8126  1  0
  8127  1  0
  9128  1  0
 13129  1  0
 19130  1  0
 19131  1  0
 20132  1  0
 20133  1  0
 20134  1  0
 31135  1  0
 31136  1  0
 32137  1  0
 32138  1  0
 32139  1  0
 39140  1  0
 43141  1  0
 49142  1  0
 49143  1  0
 50144  1  0
 50145  1  0
 50146  1  0
 61147  1  0
 61148  1  0
 62149  1  0
 62150  1  0
 62151  1  0
 69152  1  0
 73153  1  0
 79154  1  0
 79155  1  0
 80156  1  0
 80157  1  0
 80158  1  0
 91159  1  0
 91160  1  0
 92161  1  0
 92162  1  0
 92163  1  0
 99164  1  0
103165  1  0
109166  1  0
109167  1  0
110168  1  0
114169  1  0
120170  1  0
120171  1  0
121172  1  0
122173  1  0
M  END

