
     RDKit          3D

 62 74  0  0  0  0  0  0  0  0999 V2000
    9.8651    6.9014    2.4942 C   0  0  0  0  0  0  0  0  0  0  0  0
    8.4714    7.2464    1.5770 S   0  0  0  0  0  0  0  0  0  0  0  0
    7.6470    5.7733    1.7974 C   0  0  0  0  0  0  0  0  0  0  0  0
    8.4898    5.0262    2.5970 C   0  0  0  0  0  0  0  0  0  0  0  0
    9.6437    5.6184    2.9571 C   0  0  0  0  0  0  0  0  0  0  0  0
   10.3323    4.8037    3.7034 O   0  0  0  0  0  0  0  0  0  0  0  0
    9.5833    3.7085    3.7931 C   0  0  0  0  0  0  0  0  0  0  0  0
    8.4022    3.7907    3.1114 N   0  0  0  0  0  0  0  0  0  0  0  0
    6.3369    5.3951    1.2553 C   0  0  0  0  0  0  0  0  0  0  0  0
    5.5082    3.9234    1.4732 S   0  0  0  0  0  0  0  0  0  0  0  0
    4.1217    4.2884    0.5518 C   0  0  0  0  0  0  0  0  0  0  0  0
    4.3405    5.5747    0.0859 C   0  0  0  0  0  0  0  0  0  0  0  0
    5.5002    6.1501    0.4560 C   0  0  0  0  0  0  0  0  0  0  0  0
    5.5716    7.3478   -0.0501 O   0  0  0  0  0  0  0  0  0  0  0  0
    4.4410    7.4955   -0.7334 C   0  0  0  0  0  0  0  0  0  0  0  0
    3.6209    6.4043   -0.6837 N   0  0  0  0  0  0  0  0  0  0  0  0
    2.9679    3.4077    0.3239 C   0  0  0  0  0  0  0  0  0  0  0  0
    2.7600    1.8283    0.9260 S   0  0  0  0  0  0  0  0  0  0  0  0
    1.2326    1.5049    0.2427 C   0  0  0  0  0  0  0  0  0  0  0  0
    0.9120    2.6579   -0.4534 C   0  0  0  0  0  0  0  0  0  0  0  0
    1.8202    3.6518   -0.4100 C   0  0  0  0  0  0  0  0  0  0  0  0
    1.3842    4.6633   -1.1044 O   0  0  0  0  0  0  0  0  0  0  0  0
    0.2018    4.2745   -1.5706 C   0  0  0  0  0  0  0  0  0  0  0  0
   -0.1514    3.0111   -1.1907 N   0  0  0  0  0  0  0  0  0  0  0  0
    0.4458    0.2700    0.3739 C   0  0  0  0  0  0  0  0  0  0  0  0
    0.8477   -0.8606    1.1038 C   0  0  0  0  0  0  0  0  0  0  0  0
   -0.1123   -1.8646    1.0352 C   0  0  0  0  0  0  0  0  0  0  0  0
   -1.2018   -1.5352    0.2931 C   0  0  0  0  0  0  0  0  0  0  0  0
   -1.0852    0.0070   -0.3423 S   0  0  0  0  0  0  0  0  0  0  0  0
   -2.1041   -2.6453    0.2958 C   0  0  0  0  0  0  0  0  0  0  0  0
   -1.5573   -3.6424    1.0395 C   0  0  0  0  0  0  0  0  0  0  0  0
   -0.2112   -3.2590    1.6043 C   0  0  0  0  0  0  0  0  0  0  0  0
   -2.3438   -4.7871    1.1139 C   0  0  0  0  0  0  0  0  0  0  0  0
   -3.5349   -4.6262    0.3858 C   0  0  0  0  0  0  0  0  0  0  0  0
   -3.5914   -3.0764   -0.3346 S   0  0  0  0  0  0  0  0  0  0  0  0
   -4.5933   -5.6369    0.2501 C   0  0  0  0  0  0  0  0  0  0  0  0
   -6.0498   -5.4870   -0.6220 S   0  0  0  0  0  0  0  0  0  0  0  0
   -6.6898   -7.0304   -0.2891 C   0  0  0  0  0  0  0  0  0  0  0  0
   -5.7384   -7.6405    0.5083 C   0  0  0  0  0  0  0  0  0  0  0  0
   -4.6426   -6.9107    0.7895 C   0  0  0  0  0  0  0  0  0  0  0  0
   -3.8419   -7.6086    1.5428 O   0  0  0  0  0  0  0  0  0  0  0  0
   -4.4634   -8.7710    1.7164 C   0  0  0  0  0  0  0  0  0  0  0  0
   -5.6714   -8.8501    1.0836 N   0  0  0  0  0  0  0  0  0  0  0  0
   -7.9696   -7.5788   -0.7526 C   0  0  0  0  0  0  0  0  0  0  0  0
   -8.6241   -9.1164   -0.4288 S   0  0  0  0  0  0  0  0  0  0  0  0
  -10.0799   -8.9648   -1.3020 C   0  0  0  0  0  0  0  0  0  0  0  0
  -10.0154   -7.6908   -1.8348 C   0  0  0  0  0  0  0  0  0  0  0  0
   -8.9167   -6.9683   -1.5491 C   0  0  0  0  0  0  0  0  0  0  0  0
   -9.0053   -5.8010   -2.1191 O   0  0  0  0  0  0  0  0  0  0  0  0
  -10.1726   -5.8222   -2.7556 C   0  0  0  0  0  0  0  0  0  0  0  0
  -10.8583   -6.9955   -2.6115 N   0  0  0  0  0  0  0  0  0  0  0  0
   10.7236    7.5336    2.6749 H   0  0  0  0  0  0  0  0  0  0  0  0
    9.8803    2.8324    4.3538 H   0  0  0  0  0  0  0  0  0  0  0  0
    4.1919    8.3959   -1.2788 H   0  0  0  0  0  0  0  0  0  0  0  0
   -0.4241    4.8995   -2.1933 H   0  0  0  0  0  0  0  0  0  0  0  0
    1.7786   -0.9477    1.6484 H   0  0  0  0  0  0  0  0  0  0  0  0
    0.5924   -3.9131    1.2058 H   0  0  0  0  0  0  0  0  0  0  0  0
   -0.2321   -3.2393    2.7140 H   0  0  0  0  0  0  0  0  0  0  0  0
   -2.0636   -5.6764    1.6614 H   0  0  0  0  0  0  0  0  0  0  0  0
   -4.0518   -9.5806    2.3042 H   0  0  0  0  0  0  0  0  0  0  0  0
  -10.8720   -9.6923   -1.4158 H   0  0  0  0  0  0  0  0  0  0  0  0
  -10.5464   -4.9884   -3.3346 H   0  0  0  0  0  0  0  0  0  0  0  0
  1  2  1  0
  2  3  1  0
  3  4  2  0
  4  5  1  0
  5  6  1  0
  6  7  1  0
  7  8  2  0
  3  9  1  0
  9 10  1  0
 10 11  1  0
 11 12  2  0
 12 13  1  0
 13 14  1  0
 14 15  1  0
 15 16  2  0
 11 17  1  0
 17 18  1  0
 18 19  1  0
 19 20  2  0
 20 21  1  0
 21 22  1  0
 22 23  1  0
 23 24  2  0
 19 25  1  0
 25 26  2  0
 26 27  1  0
 27 28  2  0
 28 29  1  0
 28 30  1  0
 30 31  2  0
 31 32  1  0
 31 33  1  0
 33 34  2  0
 34 35  1  0
 34 36  1  0
 36 37  1  0
 37 38  1  0
 38 39  2  0
 39 40  1  0
 40 41  1  0
 41 42  1  0
 42 43  2  0
 38 44  1  0
 44 45  1  0
 45 46  1  0
 46 47  2  0
 47 48  1  0
 48 49  1  0
 49 50  1  0
 50 51  2  0
  5  1  2  0
 13  9  2  0
 21 17  2  0
 29 25  1  0
 35 30  1  0
 40 36  2  0
 48 44  2  0
  8  4  1  0
 16 12  1  0
 24 20  1  0
 32 27  1  0
 43 39  1  0
 51 47  1  0
  1 52  1  0
  7 53  1  0
 15 54  1  0
 23 55  1  0
 26 56  1  0
 32 57  1  0
 32 58  1  0
 33 59  1  0
 42 60  1  0
 46 61  1  0
 50 62  1  0
M  END

