
     RDKit          3D

 97109  0  0  0  0  0  0  0  0999 V2000
    7.4035   -3.8320    7.4562 C   0  0  0  0  0  0  0  0  0  0  0  0
    6.1141   -3.2382    6.5550 S   0  0  0  0  0  0  0  0  0  0  0  0
    6.8616   -1.8277    6.0141 C   0  0  0  0  0  0  0  0  0  0  0  0
    8.1621   -1.8271    6.5102 C   0  0  0  0  0  0  0  0  0  0  0  0
    8.4396   -2.9212    7.3478 C   0  0  0  0  0  0  0  0  0  0  0  0
    9.6416   -3.0829    8.0402 O   0  0  0  0  0  0  0  0  0  0  0  0
   10.5069   -1.9898    8.3270 C   0  0  0  0  0  0  0  0  0  0  0  0
   11.3080   -1.5588    7.0981 C   0  0  0  0  0  0  0  0  0  0  0  0
   10.4668   -1.2478    5.8468 C   0  0  0  0  0  0  0  0  0  0  0  0
    9.1221   -0.8823    6.1420 O   0  0  0  0  0  0  0  0  0  0  0  0
    6.2549   -0.8696    5.0700 C   0  0  0  0  0  0  0  0  0  0  0  0
    5.0402   -1.2717    3.9925 S   0  0  0  0  0  0  0  0  0  0  0  0
    4.8294    0.2579    3.3363 C   0  0  0  0  0  0  0  0  0  0  0  0
    5.7040    1.1362    3.9802 C   0  0  0  0  0  0  0  0  0  0  0  0
    6.5051    0.4977    4.9631 C   0  0  0  0  0  0  0  0  0  0  0  0
    7.3777    1.1392    5.8431 O   0  0  0  0  0  0  0  0  0  0  0  0
    8.1942    2.2567    5.5204 C   0  0  0  0  0  0  0  0  0  0  0  0
    7.3652    3.4883    5.1858 C   0  0  0  0  0  0  0  0  0  0  0  0
    6.7904    3.3851    3.7798 C   0  0  0  0  0  0  0  0  0  0  0  0
    5.6710    2.5084    3.7242 O   0  0  0  0  0  0  0  0  0  0  0  0
    3.8237    0.5690    2.3030 C   0  0  0  0  0  0  0  0  0  0  0  0
    3.7457    1.7452    1.5325 C   0  0  0  0  0  0  0  0  0  0  0  0
    2.6722    1.6885    0.6479 C   0  0  0  0  0  0  0  0  0  0  0  0
    1.9633    0.5353    0.7206 C   0  0  0  0  0  0  0  0  0  0  0  0
    2.5626   -0.5027    1.8772 S   0  0  0  0  0  0  0  0  0  0  0  0
    0.8662    0.6129   -0.1876 C   0  0  0  0  0  0  0  0  0  0  0  0
    0.8913    1.8249   -0.7987 C   0  0  0  0  0  0  0  0  0  0  0  0
    2.0614    2.6625   -0.3326 C   0  0  0  0  0  0  0  0  0  0  0  0
   -0.1955    2.0559   -1.6412 C   0  0  0  0  0  0  0  0  0  0  0  0
   -1.0633    0.9451   -1.6649 C   0  0  0  0  0  0  0  0  0  0  0  0
   -0.4852   -0.2678   -0.6068 S   0  0  0  0  0  0  0  0  0  0  0  0
   -2.3188    0.8196   -2.4251 C   0  0  0  0  0  0  0  0  0  0  0  0
   -3.3642   -0.4886   -2.2678 S   0  0  0  0  0  0  0  0  0  0  0  0
   -4.4881    0.0134   -3.4042 C   0  0  0  0  0  0  0  0  0  0  0  0
   -4.0581    1.2209   -3.9398 C   0  0  0  0  0  0  0  0  0  0  0  0
   -2.8330    1.6656   -3.4073 C   0  0  0  0  0  0  0  0  0  0  0  0
   -2.1866    2.8245   -3.8337 O   0  0  0  0  0  0  0  0  0  0  0  0
   -1.8621    3.0709   -5.2007 C   0  0  0  0  0  0  0  0  0  0  0  0
   -3.0943    3.1900   -6.1186 C   0  0  0  0  0  0  0  0  0  0  0  0
   -4.4392    3.2108   -5.3845 C   0  0  0  0  0  0  0  0  0  0  0  0
   -4.7785    1.9051   -4.9203 O   0  0  0  0  0  0  0  0  0  0  0  0
   -5.7158   -0.7283   -3.7251 C   0  0  0  0  0  0  0  0  0  0  0  0
   -5.8442   -2.4001   -3.6379 S   0  0  0  0  0  0  0  0  0  0  0  0
   -7.4864   -2.5067   -3.9858 C   0  0  0  0  0  0  0  0  0  0  0  0
   -7.9627   -1.2080   -4.1702 C   0  0  0  0  0  0  0  0  0  0  0  0
   -6.9819   -0.2141   -3.9833 C   0  0  0  0  0  0  0  0  0  0  0  0
   -7.2687    1.1508   -3.9631 O   0  0  0  0  0  0  0  0  0  0  0  0
   -8.4614    1.6628   -3.3756 C   0  0  0  0  0  0  0  0  0  0  0  0
   -9.7087    1.4798   -4.2549 C   0  0  0  0  0  0  0  0  0  0  0  0
   -9.6609    0.2742   -5.1984 C   0  0  0  0  0  0  0  0  0  0  0  0
   -9.2836   -0.9280   -4.5282 O   0  0  0  0  0  0  0  0  0  0  0  0
   -8.2411   -3.7704   -4.1475 C   0  0  0  0  0  0  0  0  0  0  0  0
   -9.7565   -3.9158   -4.8652 S   0  0  0  0  0  0  0  0  0  0  0  0
   -9.9109   -5.5728   -4.6820 C   0  0  0  0  0  0  0  0  0  0  0  0
   -8.7636   -6.0563   -4.0679 C   0  0  0  0  0  0  0  0  0  0  0  0
   -7.8246   -5.0436   -3.7524 C   0  0  0  0  0  0  0  0  0  0  0  0
   -6.6396   -5.2272   -3.0285 O   0  0  0  0  0  0  0  0  0  0  0  0
   -5.7870   -6.3606   -3.1282 C   0  0  0  0  0  0  0  0  0  0  0  0
   -6.4820   -7.6335   -2.6583 C   0  0  0  0  0  0  0  0  0  0  0  0
   -7.4395   -8.1555   -3.7239 C   0  0  0  0  0  0  0  0  0  0  0  0
   -8.6545   -7.4165   -3.7564 O   0  0  0  0  0  0  0  0  0  0  0  0
    7.4185   -4.7386    8.0457 H   0  0  0  0  0  0  0  0  0  0  0  0
   11.2159   -2.2976    9.1260 H   0  0  0  0  0  0  0  0  0  0  0  0
    9.9169   -1.1337    8.7210 H   0  0  0  0  0  0  0  0  0  0  0  0
   12.0457   -2.3553    6.8429 H   0  0  0  0  0  0  0  0  0  0  0  0
   11.8982   -0.6558    7.3694 H   0  0  0  0  0  0  0  0  0  0  0  0
   10.4606   -2.1259    5.1613 H   0  0  0  0  0  0  0  0  0  0  0  0
   10.9435   -0.4064    5.2931 H   0  0  0  0  0  0  0  0  0  0  0  0
    8.8946    1.9970    4.6943 H   0  0  0  0  0  0  0  0  0  0  0  0
    8.8163    2.4899    6.4074 H   0  0  0  0  0  0  0  0  0  0  0  0
    6.5477    3.6202    5.9304 H   0  0  0  0  0  0  0  0  0  0  0  0
    8.0323    4.3817    5.2354 H   0  0  0  0  0  0  0  0  0  0  0  0
    6.4456    4.3945    3.4762 H   0  0  0  0  0  0  0  0  0  0  0  0
    7.5624    3.0601    3.0466 H   0  0  0  0  0  0  0  0  0  0  0  0
    4.4188    2.5858    1.5925 H   0  0  0  0  0  0  0  0  0  0  0  0
    1.7126    3.5766    0.1871 H   0  0  0  0  0  0  0  0  0  0  0  0
    2.7603    2.8927   -1.1656 H   0  0  0  0  0  0  0  0  0  0  0  0
   -0.3464    2.9852   -2.1724 H   0  0  0  0  0  0  0  0  0  0  0  0
   -1.1983    2.2572   -5.5684 H   0  0  0  0  0  0  0  0  0  0  0  0
   -1.2718    4.0135   -5.2504 H   0  0  0  0  0  0  0  0  0  0  0  0
   -3.1030    2.3435   -6.8345 H   0  0  0  0  0  0  0  0  0  0  0  0
   -3.0032    4.1136   -6.7201 H   0  0  0  0  0  0  0  0  0  0  0  0
   -4.4243    3.9339   -4.5357 H   0  0  0  0  0  0  0  0  0  0  0  0
   -5.2294    3.5469   -6.0945 H   0  0  0  0  0  0  0  0  0  0  0  0
   -8.6231    1.1789   -2.3879 H   0  0  0  0  0  0  0  0  0  0  0  0
   -8.3107    2.7495   -3.1819 H   0  0  0  0  0  0  0  0  0  0  0  0
  -10.5986    1.3839   -3.5899 H   0  0  0  0  0  0  0  0  0  0  0  0
   -9.8462    2.4024   -4.8723 H   0  0  0  0  0  0  0  0  0  0  0  0
  -10.6714    0.1375   -5.6336 H   0  0  0  0  0  0  0  0  0  0  0  0
   -8.9617    0.4786   -6.0349 H   0  0  0  0  0  0  0  0  0  0  0  0
  -10.7682   -6.1591   -4.9796 H   0  0  0  0  0  0  0  0  0  0  0  0
   -4.9018   -6.1835   -2.4815 H   0  0  0  0  0  0  0  0  0  0  0  0
   -5.4219   -6.4652   -4.1721 H   0  0  0  0  0  0  0  0  0  0  0  0
   -5.7018   -8.4082   -2.4770 H   0  0  0  0  0  0  0  0  0  0  0  0
   -7.0158   -7.4566   -1.6984 H   0  0  0  0  0  0  0  0  0  0  0  0
   -7.6834   -9.2145   -3.4874 H   0  0  0  0  0  0  0  0  0  0  0  0
   -6.9655   -8.1467   -4.7291 H   0  0  0  0  0  0  0  0  0  0  0  0
  1  2  1  0
  2  3  1  0
  3  4  2  0
  4  5  1  0
  5  6  1  0
  6  7  1  0
  7  8  1  0
  8  9  1  0
  9 10  1  0
  3 11  1  0
 11 12  1  0
 12 13  1  0
 13 14  2  0
 14 15  1  0
 15 16  1  0
 16 17  1  0
 17 18  1  0
 18 19  1  0
 19 20  1  0
 13 21  1  0
 21 22  2  0
 22 23  1  0
 23 24  2  0
 24 25  1  0
 24 26  1  0
 26 27  2  0
 27 28  1  0
 27 29  1  0
 29 30  2  0
 30 31  1  0
 30 32  1  0
 32 33  1  0
 33 34  1  0
 34 35  2  0
 35 36  1  0
 36 37  1  0
 37 38  1  0
 38 39  1  0
 39 40  1  0
 40 41  1  0
 34 42  1  0
 42 43  1  0
 43 44  1  0
 44 45  2  0
 45 46  1  0
 46 47  1  0
 47 48  1  0
 48 49  1  0
 49 50  1  0
 50 51  1  0
 44 52  1  0
 52 53  1  0
 53 54  1  0
 54 55  2  0
 55 56  1  0
 56 57  1  0
 57 58  1  0
 58 59  1  0
 59 60  1  0
 60 61  1  0
  5  1  2  0
 15 11  2  0
 25 21  1  0
 31 26  1  0
 36 32  2  0
 46 42  2  0
 56 52  2  0
 10  4  1  0
 20 14  1  0
 28 23  1  0
 41 35  1  0
 51 45  1  0
 61 55  1  0
  1 62  1  0
  7 63  1  0
  7 64  1  0
  8 65  1  0
  8 66  1  0
  9 67  1  0
  9 68  1  0
 17 69  1  0
 17 70  1  0
 18 71  1  0
 18 72  1  0
 19 73  1  0
 19 74  1  0
 22 75  1  0
 28 76  1  0
 28 77  1  0
 29 78  1  0
 38 79  1  0
 38 80  1  0
 39 81  1  0
 39 82  1  0
 40 83  1  0
 40 84  1  0
 48 85  1  0
 48 86  1  0
 49 87  1  0
 49 88  1  0
 50 89  1  0
 50 90  1  0
 54 91  1  0
 58 92  1  0
 58 93  1  0
 59 94  1  0
 59 95  1  0
 60 96  1  0
 60 97  1  0
M  END

