
     RDKit          3D

200225  0  0  0  0  0  0  0  0999 V2000
    5.4858    0.6682   15.6537 C   0  0  0  0  0  0  0  0  0  0  0  0
    6.5774   -0.1616   15.3604 C   0  0  0  0  0  0  0  0  0  0  0  0
    6.5453   -0.5840   14.0357 C   0  0  0  0  0  0  0  0  0  0  0  0
    5.4843   -0.1095   13.3341 C   0  0  0  0  0  0  0  0  0  0  0  0
    4.5018    0.8645   14.2709 S   0  0  0  0  0  0  0  0  0  0  0  0
    5.5677   -0.6035   11.9938 C   0  0  0  0  0  0  0  0  0  0  0  0
    6.6825   -1.3742   11.8862 C   0  0  0  0  0  0  0  0  0  0  0  0
    7.4428   -1.4558   13.1897 C   0  0  0  0  0  0  0  0  0  0  0  0
    6.8939   -1.8840   10.6075 C   0  0  0  0  0  0  0  0  0  0  0  0
    5.8841   -1.4642    9.7252 C   0  0  0  0  0  0  0  0  0  0  0  0
    4.7555   -0.4709   10.5414 S   0  0  0  0  0  0  0  0  0  0  0  0
    5.8104   -1.7977    8.2940 C   0  0  0  0  0  0  0  0  0  0  0  0
    4.8658   -1.2934    7.4010 C   0  0  0  0  0  0  0  0  0  0  0  0
    5.0418   -1.7640    6.0920 C   0  0  0  0  0  0  0  0  0  0  0  0
    4.2690   -1.4053    4.9709 C   0  0  0  0  0  0  0  0  0  0  0  0
    3.1296   -0.4711    5.0623 C   0  0  0  0  0  0  0  0  0  0  0  0
    3.0190    0.9805    4.2199 S   0  0  0  0  0  0  0  0  0  0  0  0
    1.4661    1.3736    4.7317 C   0  0  0  0  0  0  0  0  0  0  0  0
    0.6810    2.5477    4.2240 C   0  0  0  0  0  0  0  0  0  0  0  0
    0.0052    2.2041    2.9016 C   0  0  0  0  0  0  0  0  0  0  0  0
    0.9989    0.3501    5.5570 C   0  0  0  0  0  0  0  0  0  0  0  0
   -0.6187    0.3213    6.2423 Cl  0  0  0  0  0  0  0  0  0  0  0  0
    1.9332   -0.6811    5.7470 C   0  0  0  0  0  0  0  0  0  0  0  0
    1.5883   -2.1381    6.6686 Cl  0  0  0  0  0  0  0  0  0  0  0  0
    4.6486   -1.9568    3.7369 C   0  0  0  0  0  0  0  0  0  0  0  0
    5.7450   -2.8147    3.5939 C   0  0  0  0  0  0  0  0  0  0  0  0
    6.5237   -3.1665    4.7166 C   0  0  0  0  0  0  0  0  0  0  0  0
    7.6914   -4.0573    4.6030 C   0  0  0  0  0  0  0  0  0  0  0  0
    7.8071   -5.5831    5.2996 S   0  0  0  0  0  0  0  0  0  0  0  0
    9.3363   -5.9408    4.6943 C   0  0  0  0  0  0  0  0  0  0  0  0
   10.0437   -7.2497    4.8754 C   0  0  0  0  0  0  0  0  0  0  0  0
    9.7251   -8.1981    3.7249 C   0  0  0  0  0  0  0  0  0  0  0  0
    9.7707   -4.8680    3.9187 C   0  0  0  0  0  0  0  0  0  0  0  0
    8.8525   -3.8091    3.8747 C   0  0  0  0  0  0  0  0  0  0  0  0
    9.1530   -2.3077    3.0080 Cl  0  0  0  0  0  0  0  0  0  0  0  0
   11.3107   -4.8423    3.0666 Cl  0  0  0  0  0  0  0  0  0  0  0  0
    6.1347   -2.6281    5.9566 C   0  0  0  0  0  0  0  0  0  0  0  0
    6.8772   -2.8104    7.4586 S   0  0  0  0  0  0  0  0  0  0  0  0
    5.9249   -3.2644    2.2723 C   0  0  0  0  0  0  0  0  0  0  0  0
    4.9650   -2.7564    1.4025 C   0  0  0  0  0  0  0  0  0  0  0  0
    3.8976   -1.7623    2.2438 S   0  0  0  0  0  0  0  0  0  0  0  0
    4.8805   -2.9934   -0.0335 C   0  0  0  0  0  0  0  0  0  0  0  0
    3.8421   -3.6882   -0.6431 C   0  0  0  0  0  0  0  0  0  0  0  0
    3.7389   -3.4237   -2.0174 C   0  0  0  0  0  0  0  0  0  0  0  0
    2.7310   -3.8981   -2.8787 C   0  0  0  0  0  0  0  0  0  0  0  0
    1.6279   -4.7458   -2.3983 C   0  0  0  0  0  0  0  0  0  0  0  0
    1.3062   -6.3040   -2.9463 S   0  0  0  0  0  0  0  0  0  0  0  0
   -0.1040   -6.5207   -2.0508 C   0  0  0  0  0  0  0  0  0  0  0  0
   -0.9760   -7.7356   -2.1185 C   0  0  0  0  0  0  0  0  0  0  0  0
   -2.0048   -7.6029   -3.2352 C   0  0  0  0  0  0  0  0  0  0  0  0
   -0.3619   -5.3504   -1.3364 C   0  0  0  0  0  0  0  0  0  0  0  0
   -1.7849   -5.1210   -0.3311 Cl  0  0  0  0  0  0  0  0  0  0  0  0
    0.6115   -4.3565   -1.5288 C   0  0  0  0  0  0  0  0  0  0  0  0
    0.5077   -2.7533   -0.8100 Cl  0  0  0  0  0  0  0  0  0  0  0  0
    2.7189   -3.3861   -4.1860 C   0  0  0  0  0  0  0  0  0  0  0  0
    3.6388   -2.4312   -4.6321 C   0  0  0  0  0  0  0  0  0  0  0  0
    4.6815   -1.9961   -3.7878 C   0  0  0  0  0  0  0  0  0  0  0  0
    5.6342   -0.9545   -4.2103 C   0  0  0  0  0  0  0  0  0  0  0  0
    5.8020    0.5503   -3.4750 S   0  0  0  0  0  0  0  0  0  0  0  0
    6.9737    1.1377   -4.5277 C   0  0  0  0  0  0  0  0  0  0  0  0
    7.5179    2.5313   -4.4938 C   0  0  0  0  0  0  0  0  0  0  0  0
    6.6558    3.4583   -5.3397 C   0  0  0  0  0  0  0  0  0  0  0  0
    7.2281    0.1678   -5.4986 C   0  0  0  0  0  0  0  0  0  0  0  0
    6.4827   -1.0067   -5.3155 C   0  0  0  0  0  0  0  0  0  0  0  0
    6.6243   -2.4136   -6.3635 Cl  0  0  0  0  0  0  0  0  0  0  0  0
    8.3565    0.3952   -6.8280 Cl  0  0  0  0  0  0  0  0  0  0  0  0
    4.6939   -2.5102   -2.4779 C   0  0  0  0  0  0  0  0  0  0  0  0
    5.6645   -2.0428   -1.1835 S   0  0  0  0  0  0  0  0  0  0  0  0
    3.2711   -1.8427   -5.8561 C   0  0  0  0  0  0  0  0  0  0  0  0
    2.0595   -2.3234   -6.3619 C   0  0  0  0  0  0  0  0  0  0  0  0
    1.4775   -3.5045   -5.3059 S   0  0  0  0  0  0  0  0  0  0  0  0
    1.1443   -1.5336   -7.2062 C   0  0  0  0  0  0  0  0  0  0  0  0
    1.1121   -0.1392   -7.1475 C   0  0  0  0  0  0  0  0  0  0  0  0
   -0.1743    0.3978   -7.3146 C   0  0  0  0  0  0  0  0  0  0  0  0
   -0.5639    1.7052   -6.9538 C   0  0  0  0  0  0  0  0  0  0  0  0
    0.4007    2.6938   -6.4369 C   0  0  0  0  0  0  0  0  0  0  0  0
    0.7202    4.1801   -7.1574 S   0  0  0  0  0  0  0  0  0  0  0  0
    1.7429    4.7508   -5.9468 C   0  0  0  0  0  0  0  0  0  0  0  0
    2.4136    6.0907   -5.9586 C   0  0  0  0  0  0  0  0  0  0  0  0
    3.8598    5.9753   -6.4251 C   0  0  0  0  0  0  0  0  0  0  0  0
    1.8527    3.7729   -4.9580 C   0  0  0  0  0  0  0  0  0  0  0  0
    2.8186    3.9695   -3.5006 Cl  0  0  0  0  0  0  0  0  0  0  0  0
    1.0871    2.6269   -5.2245 C   0  0  0  0  0  0  0  0  0  0  0  0
    0.9511    1.2806   -4.0974 Cl  0  0  0  0  0  0  0  0  0  0  0  0
   -1.9425    1.9596   -6.8788 C   0  0  0  0  0  0  0  0  0  0  0  0
   -2.9067    0.9878   -7.1708 C   0  0  0  0  0  0  0  0  0  0  0  0
   -2.5164   -0.3008   -7.5929 C   0  0  0  0  0  0  0  0  0  0  0  0
   -3.4908   -1.3902   -7.7875 C   0  0  0  0  0  0  0  0  0  0  0  0
   -3.8177   -2.1200   -9.2669 S   0  0  0  0  0  0  0  0  0  0  0  0
   -4.9406   -3.2241   -8.6746 C   0  0  0  0  0  0  0  0  0  0  0  0
   -5.7102   -4.1900   -9.5246 C   0  0  0  0  0  0  0  0  0  0  0  0
   -7.0433   -3.5901   -9.9526 C   0  0  0  0  0  0  0  0  0  0  0  0
   -5.0860   -3.0238   -7.3024 C   0  0  0  0  0  0  0  0  0  0  0  0
   -4.2612   -2.0051   -6.8007 C   0  0  0  0  0  0  0  0  0  0  0  0
   -4.1789   -1.5834   -5.0928 Cl  0  0  0  0  0  0  0  0  0  0  0  0
   -6.1924   -3.9489   -6.2945 Cl  0  0  0  0  0  0  0  0  0  0  0  0
   -1.1359   -0.5654   -7.6338 C   0  0  0  0  0  0  0  0  0  0  0  0
   -0.4026   -2.0761   -7.6199 S   0  0  0  0  0  0  0  0  0  0  0  0
   -4.2022    1.3579   -6.7692 C   0  0  0  0  0  0  0  0  0  0  0  0
   -4.2405    2.5683   -6.0710 C   0  0  0  0  0  0  0  0  0  0  0  0
   -2.6884    3.2308   -6.0737 S   0  0  0  0  0  0  0  0  0  0  0  0
   -5.2433    2.8967   -5.0403 C   0  0  0  0  0  0  0  0  0  0  0  0
   -6.3023    2.0624   -4.6695 C   0  0  0  0  0  0  0  0  0  0  0  0
   -6.7853    2.3151   -3.3739 C   0  0  0  0  0  0  0  0  0  0  0  0
   -7.6967    1.5068   -2.6587 C   0  0  0  0  0  0  0  0  0  0  0  0
   -8.3797    0.3612   -3.2906 C   0  0  0  0  0  0  0  0  0  0  0  0
   -8.2246   -1.2418   -2.8042 S   0  0  0  0  0  0  0  0  0  0  0  0
   -9.2075   -1.8942   -4.0032 C   0  0  0  0  0  0  0  0  0  0  0  0
   -9.5753   -3.3433   -4.1072 C   0  0  0  0  0  0  0  0  0  0  0  0
  -10.8384   -3.6317   -3.3028 C   0  0  0  0  0  0  0  0  0  0  0  0
   -9.6914   -0.8547   -4.7951 C   0  0  0  0  0  0  0  0  0  0  0  0
  -10.7964   -1.0945   -6.1421 Cl  0  0  0  0  0  0  0  0  0  0  0  0
   -9.2194    0.4075   -4.4037 C   0  0  0  0  0  0  0  0  0  0  0  0
   -9.6863    1.9020   -5.2101 Cl  0  0  0  0  0  0  0  0  0  0  0  0
   -7.8441    1.7812   -1.2864 C   0  0  0  0  0  0  0  0  0  0  0  0
   -7.1544    2.8165   -0.6464 C   0  0  0  0  0  0  0  0  0  0  0  0
   -6.2707    3.6407   -1.3671 C   0  0  0  0  0  0  0  0  0  0  0  0
   -5.4216    4.6432   -0.6980 C   0  0  0  0  0  0  0  0  0  0  0  0
   -5.4625    6.2967   -1.0058 S   0  0  0  0  0  0  0  0  0  0  0  0
   -4.2060    6.7016    0.0399 C   0  0  0  0  0  0  0  0  0  0  0  0
   -3.7168    8.0967    0.2890 C   0  0  0  0  0  0  0  0  0  0  0  0
   -4.3262    8.6665    1.5665 C   0  0  0  0  0  0  0  0  0  0  0  0
   -3.7403    5.5385    0.6522 C   0  0  0  0  0  0  0  0  0  0  0  0
   -4.4174    4.3833    0.2299 C   0  0  0  0  0  0  0  0  0  0  0  0
   -3.9866    2.7661    0.7739 Cl  0  0  0  0  0  0  0  0  0  0  0  0
   -2.4294    5.5101    1.8218 Cl  0  0  0  0  0  0  0  0  0  0  0  0
   -6.1159    3.3635   -2.7351 C   0  0  0  0  0  0  0  0  0  0  0  0
   -4.9393    3.9658   -3.7684 S   0  0  0  0  0  0  0  0  0  0  0  0
   -7.3950    2.8720    0.7349 C   0  0  0  0  0  0  0  0  0  0  0  0
   -8.2433    1.8610    1.1828 C   0  0  0  0  0  0  0  0  0  0  0  0
   -8.7290    0.9261   -0.1361 S   0  0  0  0  0  0  0  0  0  0  0  0
   -8.5465    1.5741    2.5931 C   0  0  0  0  0  0  0  0  0  0  0  0
   -9.2018    0.4277    3.0630 C   0  0  0  0  0  0  0  0  0  0  0  0
   -9.2090    0.3769    4.4574 C   0  0  0  0  0  0  0  0  0  0  0  0
   -8.5933    1.4389    5.0559 C   0  0  0  0  0  0  0  0  0  0  0  0
   -7.9210    2.4560    3.9114 S   0  0  0  0  0  0  0  0  0  0  0  0
   -8.2217    1.0548    6.3873 C   0  0  0  0  0  0  0  0  0  0  0  0
   -8.6148   -0.2355    6.5914 C   0  0  0  0  0  0  0  0  0  0  0  0
   -9.3377   -0.7979    5.3941 C   0  0  0  0  0  0  0  0  0  0  0  0
   -7.9547   -0.8659    7.6444 C   0  0  0  0  0  0  0  0  0  0  0  0
   -7.0255   -0.0161    8.2560 C   0  0  0  0  0  0  0  0  0  0  0  0
   -6.9786    1.4716    7.4296 S   0  0  0  0  0  0  0  0  0  0  0  0
    5.2939    1.1163   16.6207 H   0  0  0  0  0  0  0  0  0  0  0  0
    7.3464   -0.4351   16.0701 H   0  0  0  0  0  0  0  0  0  0  0  0
    7.4702   -2.4969   13.5736 H   0  0  0  0  0  0  0  0  0  0  0  0
    8.4559   -1.0131   13.0917 H   0  0  0  0  0  0  0  0  0  0  0  0
    7.7355   -2.5092   10.3400 H   0  0  0  0  0  0  0  0  0  0  0  0
    4.0861   -0.6036    7.6928 H   0  0  0  0  0  0  0  0  0  0  0  0
    1.3691    3.4086    4.0698 H   0  0  0  0  0  0  0  0  0  0  0  0
   -0.0834    2.8512    4.9708 H   0  0  0  0  0  0  0  0  0  0  0  0
    0.7675    1.9431    2.1356 H   0  0  0  0  0  0  0  0  0  0  0  0
   -0.6868    1.3461    3.0329 H   0  0  0  0  0  0  0  0  0  0  0  0
   -0.5733    3.0785    2.5399 H   0  0  0  0  0  0  0  0  0  0  0  0
    9.7267   -7.7137    5.8317 H   0  0  0  0  0  0  0  0  0  0  0  0
   11.1411   -7.0823    4.9233 H   0  0  0  0  0  0  0  0  0  0  0  0
    9.9702   -7.7236    2.7516 H   0  0  0  0  0  0  0  0  0  0  0  0
    8.6470   -8.4660    3.7408 H   0  0  0  0  0  0  0  0  0  0  0  0
   10.3273   -9.1257    3.8274 H   0  0  0  0  0  0  0  0  0  0  0  0
    6.7086   -3.9406    1.9581 H   0  0  0  0  0  0  0  0  0  0  0  0
    3.1406   -4.3002   -0.0898 H   0  0  0  0  0  0  0  0  0  0  0  0
   -0.3441   -8.6302   -2.3064 H   0  0  0  0  0  0  0  0  0  0  0  0
   -1.4942   -7.8857   -1.1477 H   0  0  0  0  0  0  0  0  0  0  0  0
   -2.6502   -8.5066   -3.2512 H   0  0  0  0  0  0  0  0  0  0  0  0
   -1.4979   -7.5072   -4.2184 H   0  0  0  0  0  0  0  0  0  0  0  0
   -2.6439   -6.7105   -3.0642 H   0  0  0  0  0  0  0  0  0  0  0  0
    7.5250    2.8955   -3.4456 H   0  0  0  0  0  0  0  0  0  0  0  0
    8.5631    2.5468   -4.8678 H   0  0  0  0  0  0  0  0  0  0  0  0
    5.6105    3.4514   -4.9621 H   0  0  0  0  0  0  0  0  0  0  0  0
    7.0475    4.4964   -5.2768 H   0  0  0  0  0  0  0  0  0  0  0  0
    6.6628    3.1359   -6.4039 H   0  0  0  0  0  0  0  0  0  0  0  0
    3.7872   -0.9933   -6.2831 H   0  0  0  0  0  0  0  0  0  0  0  0
    1.9463    0.4488   -6.7909 H   0  0  0  0  0  0  0  0  0  0  0  0
    2.3849    6.5330   -4.9397 H   0  0  0  0  0  0  0  0  0  0  0  0
    1.8641    6.7709   -6.6436 H   0  0  0  0  0  0  0  0  0  0  0  0
    3.9078    5.4969   -7.4269 H   0  0  0  0  0  0  0  0  0  0  0  0
    4.4450    5.3748   -5.7024 H   0  0  0  0  0  0  0  0  0  0  0  0
    4.3132    6.9847   -6.4875 H   0  0  0  0  0  0  0  0  0  0  0  0
   -5.8861   -5.1319   -8.9629 H   0  0  0  0  0  0  0  0  0  0  0  0
   -5.1141   -4.4404  -10.4278 H   0  0  0  0  0  0  0  0  0  0  0  0
   -7.5886   -4.3173  -10.5903 H   0  0  0  0  0  0  0  0  0  0  0  0
   -7.6656   -3.3593   -9.0630 H   0  0  0  0  0  0  0  0  0  0  0  0
   -6.8769   -2.6599  -10.5343 H   0  0  0  0  0  0  0  0  0  0  0  0
   -5.0499    0.6899   -6.8396 H   0  0  0  0  0  0  0  0  0  0  0  0
   -6.6264    1.2163   -5.2596 H   0  0  0  0  0  0  0  0  0  0  0  0
   -9.7389   -3.6208   -5.1697 H   0  0  0  0  0  0  0  0  0  0  0  0
   -8.7415   -3.9646   -3.7174 H   0  0  0  0  0  0  0  0  0  0  0  0
  -10.7030   -3.3278   -2.2427 H   0  0  0  0  0  0  0  0  0  0  0  0
  -11.0574   -4.7190   -3.3314 H   0  0  0  0  0  0  0  0  0  0  0  0
  -11.7028   -3.0798   -3.7297 H   0  0  0  0  0  0  0  0  0  0  0  0
   -2.6081    8.0967    0.3709 H   0  0  0  0  0  0  0  0  0  0  0  0
   -3.9943    8.7468   -0.5685 H   0  0  0  0  0  0  0  0  0  0  0  0
   -5.4318    8.7373    1.4683 H   0  0  0  0  0  0  0  0  0  0  0  0
   -3.9178    9.6803    1.7530 H   0  0  0  0  0  0  0  0  0  0  0  0
   -4.0814    8.0208    2.4354 H   0  0  0  0  0  0  0  0  0  0  0  0
   -6.9353    3.5936    1.3951 H   0  0  0  0  0  0  0  0  0  0  0  0
   -9.5484   -0.3811    2.4315 H   0  0  0  0  0  0  0  0  0  0  0  0
   -8.8032   -1.6871    4.9936 H   0  0  0  0  0  0  0  0  0  0  0  0
  -10.4008   -1.0147    5.6286 H   0  0  0  0  0  0  0  0  0  0  0  0
   -8.0779   -1.9097    7.9003 H   0  0  0  0  0  0  0  0  0  0  0  0
   -6.3659   -0.2984    9.0670 H   0  0  0  0  0  0  0  0  0  0  0  0
  1  2  2  0
  2  3  1  0
  3  4  2  0
  4  5  1  0
  4  6  1  0
  6  7  2  0
  7  8  1  0
  7  9  1  0
  9 10  2  0
 10 11  1  0
 10 12  1  0
 12 13  2  0
 13 14  1  0
 14 15  2  0
 15 16  1  0
 16 17  1  0
 17 18  1  0
 18 19  1  0
 19 20  1  0
 18 21  2  0
 21 22  1  0
 21 23  1  0
 23 24  1  0
 15 25  1  0
 25 26  2  0
 26 27  1  0
 27 28  1  0
 28 29  1  0
 29 30  1  0
 30 31  1  0
 31 32  1  0
 30 33  2  0
 33 34  1  0
 34 35  1  0
 33 36  1  0
 27 37  2  0
 37 38  1  0
 26 39  1  0
 39 40  2  0
 40 41  1  0
 40 42  1  0
 42 43  2  0
 43 44  1  0
 44 45  2  0
 45 46  1  0
 46 47  1  0
 47 48  1  0
 48 49  1  0
 49 50  1  0
 48 51  2  0
 51 52  1  0
 51 53  1  0
 53 54  1  0
 45 55  1  0
 55 56  2  0
 56 57  1  0
 57 58  1  0
 58 59  1  0
 59 60  1  0
 60 61  1  0
 61 62  1  0
 60 63  2  0
 63 64  1  0
 64 65  1  0
 63 66  1  0
 57 67  2  0
 67 68  1  0
 56 69  1  0
 69 70  2  0
 70 71  1  0
 70 72  1  0
 72 73  2  0
 73 74  1  0
 74 75  2  0
 75 76  1  0
 76 77  1  0
 77 78  1  0
 78 79  1  0
 79 80  1  0
 78 81  2  0
 81 82  1  0
 81 83  1  0
 83 84  1  0
 75 85  1  0
 85 86  2  0
 86 87  1  0
 87 88  1  0
 88 89  1  0
 89 90  1  0
 90 91  1  0
 91 92  1  0
 90 93  2  0
 93 94  1  0
 94 95  1  0
 93 96  1  0
 87 97  2  0
 97 98  1  0
 86 99  1  0
 99100  2  0
100101  1  0
100102  1  0
102103  2  0
103104  1  0
104105  2  0
105106  1  0
106107  1  0
107108  1  0
108109  1  0
109110  1  0
108111  2  0
111112  1  0
111113  1  0
113114  1  0
105115  1  0
115116  2  0
116117  1  0
117118  1  0
118119  1  0
119120  1  0
120121  1  0
121122  1  0
120123  2  0
123124  1  0
124125  1  0
123126  1  0
117127  2  0
127128  1  0
116129  1  0
129130  2  0
130131  1  0
130132  1  0
132133  2  0
133134  1  0
134135  2  0
135136  1  0
135137  1  0
137138  2  0
138139  1  0
138140  1  0
140141  2  0
141142  1  0
  5  1  1  0
 11  6  1  0
 38 12  1  0
 68 42  1  0
 98 72  1  0
128102  1  0
136132  1  0
142137  1  0
  8  3  1  0
 37 14  1  0
 67 44  1  0
 97 74  1  0
127104  1  0
139134  1  0
 23 16  2  0
 41 25  1  0
 53 46  2  0
 71 55  1  0
 83 76  2  0
101 85  1  0
113106  2  0
131115  1  0
 34 28  2  0
 64 58  2  0
 94 88  2  0
124118  2  0
  1143  1  0
  2144  1  0
  8145  1  0
  8146  1  0
  9147  1  0
 13148  1  0
 19149  1  0
 19150  1  0
 20151  1  0
 20152  1  0
 20153  1  0
 31154  1  0
 31155  1  0
 32156  1  0
 32157  1  0
 32158  1  0
 39159  1  0
 43160  1  0
 49161  1  0
 49162  1  0
 50163  1  0
 50164  1  0
 50165  1  0
 61166  1  0
 61167  1  0
 62168  1  0
 62169  1  0
 62170  1  0
 69171  1  0
 73172  1  0
 79173  1  0
 79174  1  0
 80175  1  0
 80176  1  0
 80177  1  0
 91178  1  0
 91179  1  0
 92180  1  0
 92181  1  0
 92182  1  0
 99183  1  0
103184  1  0
109185  1  0
109186  1  0
110187  1  0
110188  1  0
110189  1  0
121190  1  0
121191  1  0
122192  1  0
122193  1  0
122194  1  0
129195  1  0
133196  1  0
139197  1  0
139198  1  0
140199  1  0
141200  1  0
M  END

