
     RDKit          3D

146167  0  0  0  0  0  0  0  0999 V2000
    2.6236   11.3890    9.0848 C   0  0  0  0  0  0  0  0  0  0  0  0
    3.0254   10.8739   10.3267 C   0  0  0  0  0  0  0  0  0  0  0  0
    2.2104    9.8204   10.7217 C   0  0  0  0  0  0  0  0  0  0  0  0
    1.2214    9.5302    9.8358 C   0  0  0  0  0  0  0  0  0  0  0  0
    1.2873   10.5115    8.4850 S   0  0  0  0  0  0  0  0  0  0  0  0
    0.5631    8.3358   10.2696 C   0  0  0  0  0  0  0  0  0  0  0  0
    1.1532    7.9128   11.4208 C   0  0  0  0  0  0  0  0  0  0  0  0
    2.2762    8.8232   11.8532 C   0  0  0  0  0  0  0  0  0  0  0  0
    0.6675    6.6989   11.8912 C   0  0  0  0  0  0  0  0  0  0  0  0
   -0.3489    6.2028   11.0545 C   0  0  0  0  0  0  0  0  0  0  0  0
   -0.6024    7.2622    9.7323 S   0  0  0  0  0  0  0  0  0  0  0  0
   -1.0969    4.9558   11.2756 C   0  0  0  0  0  0  0  0  0  0  0  0
   -0.7083    3.9233   12.1374 C   0  0  0  0  0  0  0  0  0  0  0  0
   -1.6246    2.8758   12.1124 C   0  0  0  0  0  0  0  0  0  0  0  0
   -2.6782    3.0768   11.2768 C   0  0  0  0  0  0  0  0  0  0  0  0
   -2.5230    4.5154   10.4402 S   0  0  0  0  0  0  0  0  0  0  0  0
   -3.3680    1.8285   11.0862 C   0  0  0  0  0  0  0  0  0  0  0  0
   -2.6946    0.8661   11.7924 C   0  0  0  0  0  0  0  0  0  0  0  0
   -1.5320    1.4406   12.5635 C   0  0  0  0  0  0  0  0  0  0  0  0
   -2.9024   -0.4310   11.3225 C   0  0  0  0  0  0  0  0  0  0  0  0
   -3.7708   -0.4511   10.2236 C   0  0  0  0  0  0  0  0  0  0  0  0
   -4.1845    1.1473    9.7944 S   0  0  0  0  0  0  0  0  0  0  0  0
   -3.9872   -1.6091    9.3316 C   0  0  0  0  0  0  0  0  0  0  0  0
   -3.2632   -2.8030    9.3665 C   0  0  0  0  0  0  0  0  0  0  0  0
   -3.4004   -3.5668    8.1956 C   0  0  0  0  0  0  0  0  0  0  0  0
   -2.6769   -4.7359    7.8594 C   0  0  0  0  0  0  0  0  0  0  0  0
   -1.8010   -5.4364    8.8215 C   0  0  0  0  0  0  0  0  0  0  0  0
   -0.4791   -4.7653    9.6252 S   0  0  0  0  0  0  0  0  0  0  0  0
   -0.1338   -6.1187   10.5675 C   0  0  0  0  0  0  0  0  0  0  0  0
    0.9157   -6.1695   11.6397 C   0  0  0  0  0  0  0  0  0  0  0  0
    2.1762   -6.8662   11.1462 C   0  0  0  0  0  0  0  0  0  0  0  0
   -1.0396   -7.1257   10.2553 C   0  0  0  0  0  0  0  0  0  0  0  0
   -1.0453   -8.7003   11.0347 Cl  0  0  0  0  0  0  0  0  0  0  0  0
   -1.9746   -6.7454    9.2784 C   0  0  0  0  0  0  0  0  0  0  0  0
   -3.2940   -7.7892    8.7703 Cl  0  0  0  0  0  0  0  0  0  0  0  0
   -2.7982   -5.1904    6.5337 C   0  0  0  0  0  0  0  0  0  0  0  0
   -3.6780   -4.6085    5.6168 C   0  0  0  0  0  0  0  0  0  0  0  0
   -4.5146   -3.5419    5.9997 C   0  0  0  0  0  0  0  0  0  0  0  0
   -5.5694   -3.0315    5.0983 C   0  0  0  0  0  0  0  0  0  0  0  0
   -5.7307   -1.4450    4.5488 S   0  0  0  0  0  0  0  0  0  0  0  0
   -7.1339   -1.7071    3.6493 C   0  0  0  0  0  0  0  0  0  0  0  0
   -7.8868   -0.6484    2.9003 C   0  0  0  0  0  0  0  0  0  0  0  0
   -8.9450   -0.0065    3.7880 C   0  0  0  0  0  0  0  0  0  0  0  0
   -7.5168   -3.0386    3.7999 C   0  0  0  0  0  0  0  0  0  0  0  0
   -6.6345   -3.7822    4.5989 C   0  0  0  0  0  0  0  0  0  0  0  0
   -6.8985   -5.4768    4.9965 Cl  0  0  0  0  0  0  0  0  0  0  0  0
   -8.9708   -3.7188    3.0840 Cl  0  0  0  0  0  0  0  0  0  0  0  0
   -4.2948   -3.0004    7.2765 C   0  0  0  0  0  0  0  0  0  0  0  0
   -4.8792   -1.5515    7.8976 S   0  0  0  0  0  0  0  0  0  0  0  0
   -3.4830   -5.0548    4.3027 C   0  0  0  0  0  0  0  0  0  0  0  0
   -2.4435   -5.9720    4.1774 C   0  0  0  0  0  0  0  0  0  0  0  0
   -1.7795   -6.2487    5.7047 S   0  0  0  0  0  0  0  0  0  0  0  0
   -1.6668   -6.1128    2.9444 C   0  0  0  0  0  0  0  0  0  0  0  0
   -1.2351   -7.3056    2.3408 C   0  0  0  0  0  0  0  0  0  0  0  0
   -0.4896   -7.0297    1.1907 C   0  0  0  0  0  0  0  0  0  0  0  0
   -0.3394   -5.7006    0.9558 C   0  0  0  0  0  0  0  0  0  0  0  0
   -1.1550   -4.7543    2.0534 S   0  0  0  0  0  0  0  0  0  0  0  0
    0.2680   -5.5210   -0.3134 C   0  0  0  0  0  0  0  0  0  0  0  0
    0.4765   -6.7305   -0.8884 C   0  0  0  0  0  0  0  0  0  0  0  0
    0.0437   -7.8567    0.0337 C   0  0  0  0  0  0  0  0  0  0  0  0
    0.9031   -6.6453   -2.2168 C   0  0  0  0  0  0  0  0  0  0  0  0
    1.0307   -5.3014   -2.6152 C   0  0  0  0  0  0  0  0  0  0  0  0
    0.5602   -4.2577   -1.3476 S   0  0  0  0  0  0  0  0  0  0  0  0
    1.4413   -4.7961   -3.9323 C   0  0  0  0  0  0  0  0  0  0  0  0
    1.5662   -5.5283   -5.1270 C   0  0  0  0  0  0  0  0  0  0  0  0
    1.9180   -4.6856   -6.1885 C   0  0  0  0  0  0  0  0  0  0  0  0
    2.0580   -3.3862   -5.8272 C   0  0  0  0  0  0  0  0  0  0  0  0
    1.7285   -3.1353   -4.2185 S   0  0  0  0  0  0  0  0  0  0  0  0
    2.2818   -2.5959   -6.9881 C   0  0  0  0  0  0  0  0  0  0  0  0
    2.2980   -3.4115   -8.0702 C   0  0  0  0  0  0  0  0  0  0  0  0
    2.0784   -4.8605   -7.6870 C   0  0  0  0  0  0  0  0  0  0  0  0
    2.4037   -2.7261   -9.2815 C   0  0  0  0  0  0  0  0  0  0  0  0
    2.4355   -1.3341   -9.0661 C   0  0  0  0  0  0  0  0  0  0  0  0
    2.3127   -0.9805   -7.3967 S   0  0  0  0  0  0  0  0  0  0  0  0
    2.4744   -0.2982  -10.1100 C   0  0  0  0  0  0  0  0  0  0  0  0
    2.8140   -0.4877  -11.4486 C   0  0  0  0  0  0  0  0  0  0  0  0
    2.7591    0.6988  -12.1972 C   0  0  0  0  0  0  0  0  0  0  0  0
    3.0752    0.8433  -13.5655 C   0  0  0  0  0  0  0  0  0  0  0  0
    3.5973   -0.2775  -14.3659 C   0  0  0  0  0  0  0  0  0  0  0  0
    2.7159   -1.6371  -14.8217 S   0  0  0  0  0  0  0  0  0  0  0  0
    4.0063   -2.4423  -15.5482 C   0  0  0  0  0  0  0  0  0  0  0  0
    3.9072   -3.7916  -16.1911 C   0  0  0  0  0  0  0  0  0  0  0  0
    3.5811   -3.6590  -17.6740 C   0  0  0  0  0  0  0  0  0  0  0  0
    5.1468   -1.6470  -15.4477 C   0  0  0  0  0  0  0  0  0  0  0  0
    6.7258   -2.1411  -16.0335 Cl  0  0  0  0  0  0  0  0  0  0  0  0
    4.9174   -0.4391  -14.7763 C   0  0  0  0  0  0  0  0  0  0  0  0
    6.1910    0.7121  -14.3991 Cl  0  0  0  0  0  0  0  0  0  0  0  0
    2.9677    2.1324  -14.1115 C   0  0  0  0  0  0  0  0  0  0  0  0
    2.5826    3.2450  -13.3534 C   0  0  0  0  0  0  0  0  0  0  0  0
    2.2895    3.1049  -11.9836 C   0  0  0  0  0  0  0  0  0  0  0  0
    1.9591    4.2659  -11.1373 C   0  0  0  0  0  0  0  0  0  0  0  0
    0.5241    5.1455  -11.2147 S   0  0  0  0  0  0  0  0  0  0  0  0
    0.9528    6.2802  -10.0432 C   0  0  0  0  0  0  0  0  0  0  0  0
    0.0839    7.4190   -9.5935 C   0  0  0  0  0  0  0  0  0  0  0  0
   -0.5667    7.1123   -8.2508 C   0  0  0  0  0  0  0  0  0  0  0  0
    2.2342    5.9850   -9.5777 C   0  0  0  0  0  0  0  0  0  0  0  0
    2.7977    4.8563  -10.1934 C   0  0  0  0  0  0  0  0  0  0  0  0
    4.4230    4.2858   -9.8576 Cl  0  0  0  0  0  0  0  0  0  0  0  0
    3.0845    6.9545   -8.3840 Cl  0  0  0  0  0  0  0  0  0  0  0  0
    2.3862    1.8137  -11.4388 C   0  0  0  0  0  0  0  0  0  0  0  0
    2.1215    1.3362   -9.8485 S   0  0  0  0  0  0  0  0  0  0  0  0
    2.5689    4.4393  -14.0917 C   0  0  0  0  0  0  0  0  0  0  0  0
    2.9317    4.2608  -15.4239 C   0  0  0  0  0  0  0  0  0  0  0  0
    3.2852    2.6305  -15.6859 S   0  0  0  0  0  0  0  0  0  0  0  0
    3.1126   12.2023    8.5693 H   0  0  0  0  0  0  0  0  0  0  0  0
    3.8802   11.2245   10.8863 H   0  0  0  0  0  0  0  0  0  0  0  0
    2.0507    9.3085   12.8276 H   0  0  0  0  0  0  0  0  0  0  0  0
    3.2498    8.2889   11.8549 H   0  0  0  0  0  0  0  0  0  0  0  0
    1.0320    6.2067   12.7829 H   0  0  0  0  0  0  0  0  0  0  0  0
    0.2231    3.8972   12.6890 H   0  0  0  0  0  0  0  0  0  0  0  0
   -1.6942    1.3573   13.6613 H   0  0  0  0  0  0  0  0  0  0  0  0
   -0.5743    0.9862   12.2376 H   0  0  0  0  0  0  0  0  0  0  0  0
   -2.3464   -1.2846   11.6817 H   0  0  0  0  0  0  0  0  0  0  0  0
   -2.5983   -3.0587   10.1736 H   0  0  0  0  0  0  0  0  0  0  0  0
    1.1792   -5.1369   11.9597 H   0  0  0  0  0  0  0  0  0  0  0  0
    0.5136   -6.7029   12.5278 H   0  0  0  0  0  0  0  0  0  0  0  0
    2.8591   -7.0444   12.0071 H   0  0  0  0  0  0  0  0  0  0  0  0
    2.6979   -6.2349   10.3957 H   0  0  0  0  0  0  0  0  0  0  0  0
    1.9282   -7.8510   10.6910 H   0  0  0  0  0  0  0  0  0  0  0  0
   -8.3719   -1.0956    2.0065 H   0  0  0  0  0  0  0  0  0  0  0  0
   -7.1787    0.1321    2.5486 H   0  0  0  0  0  0  0  0  0  0  0  0
   -8.4640    0.5365    4.6257 H   0  0  0  0  0  0  0  0  0  0  0  0
   -9.5373    0.7174    3.1902 H   0  0  0  0  0  0  0  0  0  0  0  0
   -9.6366   -0.7720    4.1971 H   0  0  0  0  0  0  0  0  0  0  0  0
   -3.9807   -4.6161    3.4450 H   0  0  0  0  0  0  0  0  0  0  0  0
   -1.4823   -8.2995    2.6888 H   0  0  0  0  0  0  0  0  0  0  0  0
   -0.7597   -8.4732   -0.4209 H   0  0  0  0  0  0  0  0  0  0  0  0
    0.9192   -8.4664    0.3526 H   0  0  0  0  0  0  0  0  0  0  0  0
    1.0957   -7.4993   -2.8528 H   0  0  0  0  0  0  0  0  0  0  0  0
    1.3723   -6.5891   -5.2291 H   0  0  0  0  0  0  0  0  0  0  0  0
    2.9659   -5.4834   -7.9261 H   0  0  0  0  0  0  0  0  0  0  0  0
    1.1496   -5.2609   -8.1446 H   0  0  0  0  0  0  0  0  0  0  0  0
    2.3840   -3.2019  -10.2500 H   0  0  0  0  0  0  0  0  0  0  0  0
    3.1091   -1.4455  -11.8573 H   0  0  0  0  0  0  0  0  0  0  0  0
    4.8636   -4.3457  -16.0689 H   0  0  0  0  0  0  0  0  0  0  0  0
    3.1060   -4.3787  -15.6871 H   0  0  0  0  0  0  0  0  0  0  0  0
    4.3937   -3.1144  -18.1982 H   0  0  0  0  0  0  0  0  0  0  0  0
    2.6211   -3.1151  -17.8195 H   0  0  0  0  0  0  0  0  0  0  0  0
    3.4896   -4.6668  -18.1200 H   0  0  0  0  0  0  0  0  0  0  0  0
   -0.7133    7.6030  -10.3440 H   0  0  0  0  0  0  0  0  0  0  0  0
    0.6927    8.3443   -9.5171 H   0  0  0  0  0  0  0  0  0  0  0  0
   -1.1473    7.9954   -7.9114 H   0  0  0  0  0  0  0  0  0  0  0  0
   -1.2642    6.2511   -8.3517 H   0  0  0  0  0  0  0  0  0  0  0  0
    0.2010    6.8723   -7.4804 H   0  0  0  0  0  0  0  0  0  0  0  0
    2.3090    5.4064  -13.6860 H   0  0  0  0  0  0  0  0  0  0  0  0
    2.9892    5.0411  -16.1713 H   0  0  0  0  0  0  0  0  0  0  0  0
  1  2  2  0
  2  3  1  0
  3  4  2  0
  4  5  1  0
  4  6  1  0
  6  7  2  0
  7  8  1  0
  7  9  1  0
  9 10  2  0
 10 11  1  0
 10 12  1  0
 12 13  2  0
 13 14  1  0
 14 15  2  0
 15 16  1  0
 15 17  1  0
 17 18  2  0
 18 19  1  0
 18 20  1  0
 20 21  2  0
 21 22  1  0
 21 23  1  0
 23 24  2  0
 24 25  1  0
 25 26  2  0
 26 27  1  0
 27 28  1  0
 28 29  1  0
 29 30  1  0
 30 31  1  0
 29 32  2  0
 32 33  1  0
 32 34  1  0
 34 35  1  0
 26 36  1  0
 36 37  2  0
 37 38  1  0
 38 39  1  0
 39 40  1  0
 40 41  1  0
 41 42  1  0
 42 43  1  0
 41 44  2  0
 44 45  1  0
 45 46  1  0
 44 47  1  0
 38 48  2  0
 48 49  1  0
 37 50  1  0
 50 51  2  0
 51 52  1  0
 51 53  1  0
 53 54  2  0
 54 55  1  0
 55 56  2  0
 56 57  1  0
 56 58  1  0
 58 59  2  0
 59 60  1  0
 59 61  1  0
 61 62  2  0
 62 63  1  0
 62 64  1  0
 64 65  2  0
 65 66  1  0
 66 67  2  0
 67 68  1  0
 67 69  1  0
 69 70  2  0
 70 71  1  0
 70 72  1  0
 72 73  2  0
 73 74  1  0
 73 75  1  0
 75 76  2  0
 76 77  1  0
 77 78  2  0
 78 79  1  0
 79 80  1  0
 80 81  1  0
 81 82  1  0
 82 83  1  0
 81 84  2  0
 84 85  1  0
 84 86  1  0
 86 87  1  0
 78 88  1  0
 88 89  2  0
 89 90  1  0
 90 91  1  0
 91 92  1  0
 92 93  1  0
 93 94  1  0
 94 95  1  0
 93 96  2  0
 96 97  1  0
 97 98  1  0
 96 99  1  0
 90100  2  0
100101  1  0
 89102  1  0
102103  2  0
103104  1  0
  5  1  1  0
 11  6  1  0
 16 12  1  0
 22 17  1  0
 49 23  1  0
 57 53  1  0
 63 58  1  0
 68 64  1  0
 74 69  1  0
101 75  1  0
  8  3  1  0
 19 14  1  0
 48 25  1  0
 60 55  1  0
 71 66  1  0
100 77  1  0
 34 27  2  0
 52 36  1  0
 86 79  2  0
104 88  1  0
 45 39  2  0
 97 91  2  0
  1105  1  0
  2106  1  0
  8107  1  0
  8108  1  0
  9109  1  0
 13110  1  0
 19111  1  0
 19112  1  0
 20113  1  0
 24114  1  0
 30115  1  0
 30116  1  0
 31117  1  0
 31118  1  0
 31119  1  0
 42120  1  0
 42121  1  0
 43122  1  0
 43123  1  0
 43124  1  0
 50125  1  0
 54126  1  0
 60127  1  0
 60128  1  0
 61129  1  0
 65130  1  0
 71131  1  0
 71132  1  0
 72133  1  0
 76134  1  0
 82135  1  0
 82136  1  0
 83137  1  0
 83138  1  0
 83139  1  0
 94140  1  0
 94141  1  0
 95142  1  0
 95143  1  0
 95144  1  0
102145  1  0
103146  1  0
M  END

