
     RDKit          3D

227254  0  0  0  0  0  0  0  0999 V2000
    2.9333   -9.7512   11.6588 C   0  0  0  0  0  0  0  0  0  0  0  0
    4.0365   -8.9353   11.4258 C   0  0  0  0  0  0  0  0  0  0  0  0
    3.8501   -8.0439   10.3554 C   0  0  0  0  0  0  0  0  0  0  0  0
    4.7712   -7.0806    9.8967 C   0  0  0  0  0  0  0  0  0  0  0  0
    6.0987   -6.9190   10.5108 C   0  0  0  0  0  0  0  0  0  0  0  0
    6.6004   -5.5703   11.3798 S   0  0  0  0  0  0  0  0  0  0  0  0
    8.1473   -6.1406   11.7230 C   0  0  0  0  0  0  0  0  0  0  0  0
    9.2004   -5.3547   12.4393 C   0  0  0  0  0  0  0  0  0  0  0  0
   10.0038   -4.5147   11.4524 C   0  0  0  0  0  0  0  0  0  0  0  0
    8.2962   -7.3950   11.1302 C   0  0  0  0  0  0  0  0  0  0  0  0
    9.7869   -8.3305   11.2019 Cl  0  0  0  0  0  0  0  0  0  0  0  0
    7.1469   -7.8334   10.4608 C   0  0  0  0  0  0  0  0  0  0  0  0
    7.0535   -9.3631    9.5937 Cl  0  0  0  0  0  0  0  0  0  0  0  0
    4.3656   -6.2683    8.8237 C   0  0  0  0  0  0  0  0  0  0  0  0
    3.1180   -6.4145    8.2075 C   0  0  0  0  0  0  0  0  0  0  0  0
    2.1899   -7.3651    8.6767 C   0  0  0  0  0  0  0  0  0  0  0  0
    0.8250   -7.4544    8.1296 C   0  0  0  0  0  0  0  0  0  0  0  0
   -0.5568   -6.9522    8.9472 S   0  0  0  0  0  0  0  0  0  0  0  0
   -1.6285   -7.2248    7.6802 C   0  0  0  0  0  0  0  0  0  0  0  0
   -3.0857   -6.8786    7.7147 C   0  0  0  0  0  0  0  0  0  0  0  0
   -3.3054   -5.4309    7.2889 C   0  0  0  0  0  0  0  0  0  0  0  0
   -0.9085   -7.6930    6.5820 C   0  0  0  0  0  0  0  0  0  0  0  0
    0.4656   -7.8240    6.8355 C   0  0  0  0  0  0  0  0  0  0  0  0
    1.6212   -8.3844    5.6311 Cl  0  0  0  0  0  0  0  0  0  0  0  0
   -1.6384   -8.0437    5.0192 Cl  0  0  0  0  0  0  0  0  0  0  0  0
    2.5911   -8.1615    9.7577 C   0  0  0  0  0  0  0  0  0  0  0  0
    1.7235   -9.3658   10.5470 S   0  0  0  0  0  0  0  0  0  0  0  0
    2.9158   -5.5077    7.1574 C   0  0  0  0  0  0  0  0  0  0  0  0
    3.9985   -4.6543    6.9627 C   0  0  0  0  0  0  0  0  0  0  0  0
    5.2060   -5.0064    8.0861 S   0  0  0  0  0  0  0  0  0  0  0  0
    4.0320   -3.5680    5.9792 C   0  0  0  0  0  0  0  0  0  0  0  0
    4.4549   -2.2646    6.2287 C   0  0  0  0  0  0  0  0  0  0  0  0
    4.1308   -1.3809    5.1817 C   0  0  0  0  0  0  0  0  0  0  0  0
    4.2866    0.0248    5.1925 C   0  0  0  0  0  0  0  0  0  0  0  0
    4.8970    0.7302    6.3401 C   0  0  0  0  0  0  0  0  0  0  0  0
    4.0861    1.8067    7.3441 S   0  0  0  0  0  0  0  0  0  0  0  0
    5.3840    2.1215    8.3663 C   0  0  0  0  0  0  0  0  0  0  0  0
    5.3127    2.9872    9.5880 C   0  0  0  0  0  0  0  0  0  0  0  0
    4.9600    2.1576   10.8150 C   0  0  0  0  0  0  0  0  0  0  0  0
    6.4728    1.3556    7.9470 C   0  0  0  0  0  0  0  0  0  0  0  0
    8.0279    1.3520    8.7691 Cl  0  0  0  0  0  0  0  0  0  0  0  0
    6.2014    0.5833    6.8072 C   0  0  0  0  0  0  0  0  0  0  0  0
    7.4000   -0.4562    6.0441 Cl  0  0  0  0  0  0  0  0  0  0  0  0
    3.7144    0.7333    4.1193 C   0  0  0  0  0  0  0  0  0  0  0  0
    3.0703    0.0902    3.0576 C   0  0  0  0  0  0  0  0  0  0  0  0
    2.9608   -1.3103    3.0212 C   0  0  0  0  0  0  0  0  0  0  0  0
    2.2640   -2.0002    1.9202 C   0  0  0  0  0  0  0  0  0  0  0  0
    2.8568   -2.1239    0.3498 S   0  0  0  0  0  0  0  0  0  0  0  0
    1.5385   -2.9612   -0.2758 C   0  0  0  0  0  0  0  0  0  0  0  0
    1.4458   -3.4921   -1.6758 C   0  0  0  0  0  0  0  0  0  0  0  0
    2.0241   -4.9009   -1.7558 C   0  0  0  0  0  0  0  0  0  0  0  0
    0.6151   -3.1676    0.7488 C   0  0  0  0  0  0  0  0  0  0  0  0
    1.0170   -2.6161    1.9769 C   0  0  0  0  0  0  0  0  0  0  0  0
    0.0224   -2.6605    3.4288 Cl  0  0  0  0  0  0  0  0  0  0  0  0
   -0.9033   -4.0261    0.5323 Cl  0  0  0  0  0  0  0  0  0  0  0  0
    3.4773   -2.0141    4.1194 C   0  0  0  0  0  0  0  0  0  0  0  0
    3.2861   -3.6460    4.4716 S   0  0  0  0  0  0  0  0  0  0  0  0
    2.4319    0.9720    2.1830 C   0  0  0  0  0  0  0  0  0  0  0  0
    2.5653    2.3068    2.5502 C   0  0  0  0  0  0  0  0  0  0  0  0
    3.4840    2.3981    3.9635 S   0  0  0  0  0  0  0  0  0  0  0  0
    1.6006    3.3242    2.1318 C   0  0  0  0  0  0  0  0  0  0  0  0
    0.2324    3.1006    2.1490 C   0  0  0  0  0  0  0  0  0  0  0  0
   -0.4922    4.0819    1.4695 C   0  0  0  0  0  0  0  0  0  0  0  0
   -1.8728    4.0402    1.2177 C   0  0  0  0  0  0  0  0  0  0  0  0
   -2.6918    2.8607    1.5607 C   0  0  0  0  0  0  0  0  0  0  0  0
   -4.0311    2.8690    2.5770 S   0  0  0  0  0  0  0  0  0  0  0  0
   -4.4178    1.2432    2.3729 C   0  0  0  0  0  0  0  0  0  0  0  0
   -5.5367    0.5351    3.0747 C   0  0  0  0  0  0  0  0  0  0  0  0
   -5.0343   -0.1574    4.3370 C   0  0  0  0  0  0  0  0  0  0  0  0
   -3.4911    0.6662    1.5092 C   0  0  0  0  0  0  0  0  0  0  0  0
   -3.5159   -1.0321    1.0412 Cl  0  0  0  0  0  0  0  0  0  0  0  0
   -2.5319    1.5744    1.0399 C   0  0  0  0  0  0  0  0  0  0  0  0
   -1.2819    1.1338   -0.1203 Cl  0  0  0  0  0  0  0  0  0  0  0  0
   -2.4023    5.0777    0.4436 C   0  0  0  0  0  0  0  0  0  0  0  0
   -1.6094    6.0723   -0.1376 C   0  0  0  0  0  0  0  0  0  0  0  0
   -0.2196    6.1138    0.1210 C   0  0  0  0  0  0  0  0  0  0  0  0
    0.6586    7.1298   -0.4803 C   0  0  0  0  0  0  0  0  0  0  0  0
    1.4508    8.3345    0.3830 S   0  0  0  0  0  0  0  0  0  0  0  0
    2.2179    9.0278   -0.9423 C   0  0  0  0  0  0  0  0  0  0  0  0
    3.1763   10.1807   -0.8687 C   0  0  0  0  0  0  0  0  0  0  0  0
    4.5699    9.7066   -0.4703 C   0  0  0  0  0  0  0  0  0  0  0  0
    1.8825    8.2983   -2.0835 C   0  0  0  0  0  0  0  0  0  0  0  0
    1.0051    7.2352   -1.8240 C   0  0  0  0  0  0  0  0  0  0  0  0
    0.4342    6.1263   -3.0675 Cl  0  0  0  0  0  0  0  0  0  0  0  0
    2.5003    8.6657   -3.6916 Cl  0  0  0  0  0  0  0  0  0  0  0  0
    0.3079    5.0996    0.9424 C   0  0  0  0  0  0  0  0  0  0  0  0
    1.9285    4.7563    1.2948 S   0  0  0  0  0  0  0  0  0  0  0  0
   -2.3237    6.8787   -1.0502 C   0  0  0  0  0  0  0  0  0  0  0  0
   -3.6616    6.4897   -1.1896 C   0  0  0  0  0  0  0  0  0  0  0  0
   -3.9550    5.1881   -0.1614 S   0  0  0  0  0  0  0  0  0  0  0  0
   -4.5105    6.7338   -2.3636 C   0  0  0  0  0  0  0  0  0  0  0  0
   -4.0013    6.8725   -3.6578 C   0  0  0  0  0  0  0  0  0  0  0  0
   -4.8665    6.3765   -4.6520 C   0  0  0  0  0  0  0  0  0  0  0  0
   -4.5305    6.1568   -6.0043 C   0  0  0  0  0  0  0  0  0  0  0  0
   -3.2688    6.6673   -6.5810 C   0  0  0  0  0  0  0  0  0  0  0  0
   -2.0475    5.7203   -7.2506 S   0  0  0  0  0  0  0  0  0  0  0  0
   -1.0385    6.9953   -7.6848 C   0  0  0  0  0  0  0  0  0  0  0  0
    0.2268    6.8480   -8.4738 C   0  0  0  0  0  0  0  0  0  0  0  0
   -0.0566    6.9292   -9.9696 C   0  0  0  0  0  0  0  0  0  0  0  0
   -1.6536    8.1905   -7.3199 C   0  0  0  0  0  0  0  0  0  0  0  0
   -0.9607    9.7754   -7.6359 Cl  0  0  0  0  0  0  0  0  0  0  0  0
   -2.8972    8.0069   -6.6905 C   0  0  0  0  0  0  0  0  0  0  0  0
   -3.9061    9.3439   -6.1448 Cl  0  0  0  0  0  0  0  0  0  0  0  0
   -5.3856    5.3114   -6.7377 C   0  0  0  0  0  0  0  0  0  0  0  0
   -6.5402    4.7423   -6.1903 C   0  0  0  0  0  0  0  0  0  0  0  0
   -6.9354    5.0620   -4.8776 C   0  0  0  0  0  0  0  0  0  0  0  0
   -8.1232    4.4507   -4.2524 C   0  0  0  0  0  0  0  0  0  0  0  0
   -9.6982    4.9775   -4.5074 S   0  0  0  0  0  0  0  0  0  0  0  0
  -10.4182    3.9371   -3.3981 C   0  0  0  0  0  0  0  0  0  0  0  0
  -11.8722    3.9544   -3.0356 C   0  0  0  0  0  0  0  0  0  0  0  0
  -12.1247    4.8694   -1.8407 C   0  0  0  0  0  0  0  0  0  0  0  0
   -9.4182    3.1760   -2.7886 C   0  0  0  0  0  0  0  0  0  0  0  0
   -8.1318    3.4571   -3.2748 C   0  0  0  0  0  0  0  0  0  0  0  0
   -6.6830    2.6365   -2.7038 Cl  0  0  0  0  0  0  0  0  0  0  0  0
   -9.7266    2.0087   -1.5078 Cl  0  0  0  0  0  0  0  0  0  0  0  0
   -6.0659    5.8763   -4.1343 C   0  0  0  0  0  0  0  0  0  0  0  0
   -6.0649    6.0848   -2.4730 S   0  0  0  0  0  0  0  0  0  0  0  0
   -7.1044    3.7367   -6.9959 C   0  0  0  0  0  0  0  0  0  0  0  0
   -6.3781    3.5074   -8.1683 C   0  0  0  0  0  0  0  0  0  0  0  0
   -5.0888    4.5944   -8.2246 S   0  0  0  0  0  0  0  0  0  0  0  0
   -6.4194    2.2800   -8.9869 C   0  0  0  0  0  0  0  0  0  0  0  0
   -7.1222    1.1119   -8.6568 C   0  0  0  0  0  0  0  0  0  0  0  0
   -6.6513   -0.0086   -9.3543 C   0  0  0  0  0  0  0  0  0  0  0  0
   -5.6140    0.2602  -10.2117 C   0  0  0  0  0  0  0  0  0  0  0  0
   -5.2015    1.8755  -10.0909 S   0  0  0  0  0  0  0  0  0  0  0  0
   -4.7454   -0.8899  -10.2368 C   0  0  0  0  0  0  0  0  0  0  0  0
   -5.2836   -1.8644   -9.4288 C   0  0  0  0  0  0  0  0  0  0  0  0
   -6.6136   -1.4328   -8.8689 C   0  0  0  0  0  0  0  0  0  0  0  0
   -4.3326   -2.6998   -8.8288 C   0  0  0  0  0  0  0  0  0  0  0  0
   -3.0266   -2.3285   -9.1634 C   0  0  0  0  0  0  0  0  0  0  0  0
   -3.0679   -0.9480  -10.1394 S   0  0  0  0  0  0  0  0  0  0  0  0
   -1.8212   -2.8257   -8.4946 C   0  0  0  0  0  0  0  0  0  0  0  0
   -1.5485   -4.1536   -8.1793 C   0  0  0  0  0  0  0  0  0  0  0  0
   -0.3332   -4.3074   -7.4895 C   0  0  0  0  0  0  0  0  0  0  0  0
    0.2480   -5.5242   -7.0763 C   0  0  0  0  0  0  0  0  0  0  0  0
   -0.3366   -6.8293   -7.4259 C   0  0  0  0  0  0  0  0  0  0  0  0
   -0.8860   -7.9667   -6.3176 S   0  0  0  0  0  0  0  0  0  0  0  0
   -1.3556   -9.1182   -7.4545 C   0  0  0  0  0  0  0  0  0  0  0  0
   -2.0151  -10.4213   -7.1179 C   0  0  0  0  0  0  0  0  0  0  0  0
   -3.5333  -10.2831   -7.1254 C   0  0  0  0  0  0  0  0  0  0  0  0
   -1.0989   -8.6144   -8.7292 C   0  0  0  0  0  0  0  0  0  0  0  0
   -1.4583   -9.4905  -10.2109 Cl  0  0  0  0  0  0  0  0  0  0  0  0
   -0.5187   -7.3366   -8.7122 C   0  0  0  0  0  0  0  0  0  0  0  0
   -0.0234   -6.4870  -10.1712 Cl  0  0  0  0  0  0  0  0  0  0  0  0
    1.4523   -5.4396   -6.3515 C   0  0  0  0  0  0  0  0  0  0  0  0
    2.0733   -4.2202   -6.0597 C   0  0  0  0  0  0  0  0  0  0  0  0
    1.5014   -3.0080   -6.4918 C   0  0  0  0  0  0  0  0  0  0  0  0
    2.1191   -1.7034   -6.2018 C   0  0  0  0  0  0  0  0  0  0  0  0
    3.4865   -1.0996   -6.9741 S   0  0  0  0  0  0  0  0  0  0  0  0
    3.4774    0.4017   -6.2112 C   0  0  0  0  0  0  0  0  0  0  0  0
    4.4679    1.4937   -6.4800 C   0  0  0  0  0  0  0  0  0  0  0  0
    5.8539    1.1146   -5.9680 C   0  0  0  0  0  0  0  0  0  0  0  0
    2.3896    0.4479   -5.3369 C   0  0  0  0  0  0  0  0  0  0  0  0
    1.6267   -0.7320   -5.3337 C   0  0  0  0  0  0  0  0  0  0  0  0
    0.1961   -0.9576   -4.3353 Cl  0  0  0  0  0  0  0  0  0  0  0  0
    1.9783    1.8512   -4.3576 Cl  0  0  0  0  0  0  0  0  0  0  0  0
    0.3030   -3.0907   -7.2202 C   0  0  0  0  0  0  0  0  0  0  0  0
   -0.5907   -1.8372   -7.8941 S   0  0  0  0  0  0  0  0  0  0  0  0
    3.2701   -4.3649   -5.3388 C   0  0  0  0  0  0  0  0  0  0  0  0
    3.5936   -5.6919   -5.0777 C   0  0  0  0  0  0  0  0  0  0  0  0
    2.4005   -6.6837   -5.7360 S   0  0  0  0  0  0  0  0  0  0  0  0
    2.8638  -10.5064   12.4329 H   0  0  0  0  0  0  0  0  0  0  0  0
    4.9380   -8.9878   12.0220 H   0  0  0  0  0  0  0  0  0  0  0  0
    8.7148   -4.6868   13.1822 H   0  0  0  0  0  0  0  0  0  0  0  0
    9.8805   -6.0386   12.9918 H   0  0  0  0  0  0  0  0  0  0  0  0
   10.5652   -5.1731   10.7568 H   0  0  0  0  0  0  0  0  0  0  0  0
    9.3251   -3.8593   10.8670 H   0  0  0  0  0  0  0  0  0  0  0  0
   10.7251   -3.8763   12.0043 H   0  0  0  0  0  0  0  0  0  0  0  0
   -3.4753   -7.0224    8.7446 H   0  0  0  0  0  0  0  0  0  0  0  0
   -3.6535   -7.5518    7.0395 H   0  0  0  0  0  0  0  0  0  0  0  0
   -4.3887   -5.1938    7.3232 H   0  0  0  0  0  0  0  0  0  0  0  0
   -2.9413   -5.2734    6.2505 H   0  0  0  0  0  0  0  0  0  0  0  0
   -2.7667   -4.7425    7.9754 H   0  0  0  0  0  0  0  0  0  0  0  0
    2.0050   -5.4445    6.5769 H   0  0  0  0  0  0  0  0  0  0  0  0
    4.8981   -1.9580    7.1655 H   0  0  0  0  0  0  0  0  0  0  0  0
    6.2874    3.4962    9.7465 H   0  0  0  0  0  0  0  0  0  0  0  0
    4.5385    3.7691    9.4365 H   0  0  0  0  0  0  0  0  0  0  0  0
    4.0205    1.5929   10.6400 H   0  0  0  0  0  0  0  0  0  0  0  0
    5.7773    1.4393   11.0394 H   0  0  0  0  0  0  0  0  0  0  0  0
    4.8204    2.8221   11.6898 H   0  0  0  0  0  0  0  0  0  0  0  0
    0.3869   -3.5039   -2.0069 H   0  0  0  0  0  0  0  0  0  0  0  0
    2.0071   -2.8241   -2.3663 H   0  0  0  0  0  0  0  0  0  0  0  0
    3.1160   -4.8749   -1.5569 H   0  0  0  0  0  0  0  0  0  0  0  0
    1.8509   -5.3163   -2.7670 H   0  0  0  0  0  0  0  0  0  0  0  0
    1.5318   -5.5643   -1.0141 H   0  0  0  0  0  0  0  0  0  0  0  0
    1.7823    0.6542    1.3783 H   0  0  0  0  0  0  0  0  0  0  0  0
   -0.2105    2.2181    2.5926 H   0  0  0  0  0  0  0  0  0  0  0  0
   -5.9857   -0.2191    2.3930 H   0  0  0  0  0  0  0  0  0  0  0  0
   -6.3309    1.2637    3.3445 H   0  0  0  0  0  0  0  0  0  0  0  0
   -4.2086   -0.8586    4.0943 H   0  0  0  0  0  0  0  0  0  0  0  0
   -4.6709    0.5972    5.0666 H   0  0  0  0  0  0  0  0  0  0  0  0
   -5.8598   -0.7337    4.7990 H   0  0  0  0  0  0  0  0  0  0  0  0
    3.2191   10.7072   -1.8455 H   0  0  0  0  0  0  0  0  0  0  0  0
    2.8072   10.9091   -0.1100 H   0  0  0  0  0  0  0  0  0  0  0  0
    4.8854    8.8370   -1.0818 H   0  0  0  0  0  0  0  0  0  0  0  0
    5.2947   10.5348   -0.6219 H   0  0  0  0  0  0  0  0  0  0  0  0
    4.5796    9.4254    0.6064 H   0  0  0  0  0  0  0  0  0  0  0  0
   -1.8623    7.6406   -1.6657 H   0  0  0  0  0  0  0  0  0  0  0  0
   -2.9733    7.1455   -3.8544 H   0  0  0  0  0  0  0  0  0  0  0  0
    0.9432    7.6465   -8.1888 H   0  0  0  0  0  0  0  0  0  0  0  0
    0.6982    5.8663   -8.2451 H   0  0  0  0  0  0  0  0  0  0  0  0
   -0.6737    6.0629  -10.2883 H   0  0  0  0  0  0  0  0  0  0  0  0
   -0.5878    7.8714  -10.2244 H   0  0  0  0  0  0  0  0  0  0  0  0
    0.9008    6.9028  -10.5329 H   0  0  0  0  0  0  0  0  0  0  0  0
  -12.4624    4.3170   -3.9042 H   0  0  0  0  0  0  0  0  0  0  0  0
  -12.2120    2.9242   -2.7904 H   0  0  0  0  0  0  0  0  0  0  0  0
  -11.6353    4.4587   -0.9320 H   0  0  0  0  0  0  0  0  0  0  0  0
  -11.7354    5.8877   -2.0432 H   0  0  0  0  0  0  0  0  0  0  0  0
  -13.2191    4.9378   -1.6505 H   0  0  0  0  0  0  0  0  0  0  0  0
   -7.9316    3.1153   -6.6843 H   0  0  0  0  0  0  0  0  0  0  0  0
   -7.8024    1.0339   -7.8154 H   0  0  0  0  0  0  0  0  0  0  0  0
   -6.6075   -1.4760   -7.7585 H   0  0  0  0  0  0  0  0  0  0  0  0
   -7.4426   -2.0253   -9.3041 H   0  0  0  0  0  0  0  0  0  0  0  0
   -4.5701   -3.4147   -8.0487 H   0  0  0  0  0  0  0  0  0  0  0  0
   -2.2035   -4.9737   -8.4466 H   0  0  0  0  0  0  0  0  0  0  0  0
   -1.7099  -11.2052   -7.8441 H   0  0  0  0  0  0  0  0  0  0  0  0
   -1.6857  -10.7523   -6.1086 H   0  0  0  0  0  0  0  0  0  0  0  0
   -3.9959  -11.2322   -6.7800 H   0  0  0  0  0  0  0  0  0  0  0  0
   -3.8485   -9.4656   -6.4403 H   0  0  0  0  0  0  0  0  0  0  0  0
   -3.8950  -10.0616   -8.1536 H   0  0  0  0  0  0  0  0  0  0  0  0
    4.1515    2.4404   -5.9947 H   0  0  0  0  0  0  0  0  0  0  0  0
    4.5134    1.6757   -7.5727 H   0  0  0  0  0  0  0  0  0  0  0  0
    6.2225    0.2068   -6.4890 H   0  0  0  0  0  0  0  0  0  0  0  0
    5.8252    0.9228   -4.8741 H   0  0  0  0  0  0  0  0  0  0  0  0
    6.5598    1.9456   -6.1714 H   0  0  0  0  0  0  0  0  0  0  0  0
    3.8923   -3.5415   -5.0198 H   0  0  0  0  0  0  0  0  0  0  0  0
    4.4712   -6.0366   -4.5491 H   0  0  0  0  0  0  0  0  0  0  0  0
  1  2  2  0
  2  3  1  0
  3  4  2  0
  4  5  1  0
  5  6  1  0
  6  7  1  0
  7  8  1  0
  8  9  1  0
  7 10  2  0
 10 11  1  0
 10 12  1  0
 12 13  1  0
  4 14  1  0
 14 15  2  0
 15 16  1  0
 16 17  1  0
 17 18  1  0
 18 19  1  0
 19 20  1  0
 20 21  1  0
 19 22  2  0
 22 23  1  0
 23 24  1  0
 22 25  1  0
 16 26  2  0
 26 27  1  0
 15 28  1  0
 28 29  2  0
 29 30  1  0
 29 31  1  0
 31 32  2  0
 32 33  1  0
 33 34  2  0
 34 35  1  0
 35 36  1  0
 36 37  1  0
 37 38  1  0
 38 39  1  0
 37 40  2  0
 40 41  1  0
 40 42  1  0
 42 43  1  0
 34 44  1  0
 44 45  2  0
 45 46  1  0
 46 47  1  0
 47 48  1  0
 48 49  1  0
 49 50  1  0
 50 51  1  0
 49 52  2  0
 52 53  1  0
 53 54  1  0
 52 55  1  0
 46 56  2  0
 56 57  1  0
 45 58  1  0
 58 59  2  0
 59 60  1  0
 59 61  1  0
 61 62  2  0
 62 63  1  0
 63 64  2  0
 64 65  1  0
 65 66  1  0
 66 67  1  0
 67 68  1  0
 68 69  1  0
 67 70  2  0
 70 71  1  0
 70 72  1  0
 72 73  1  0
 64 74  1  0
 74 75  2  0
 75 76  1  0
 76 77  1  0
 77 78  1  0
 78 79  1  0
 79 80  1  0
 80 81  1  0
 79 82  2  0
 82 83  1  0
 83 84  1  0
 82 85  1  0
 76 86  2  0
 86 87  1  0
 75 88  1  0
 88 89  2  0
 89 90  1  0
 89 91  1  0
 91 92  2  0
 92 93  1  0
 93 94  2  0
 94 95  1  0
 95 96  1  0
 96 97  1  0
 97 98  1  0
 98 99  1  0
 97100  2  0
100101  1  0
100102  1  0
102103  1  0
 94104  1  0
104105  2  0
105106  1  0
106107  1  0
107108  1  0
108109  1  0
109110  1  0
110111  1  0
109112  2  0
112113  1  0
113114  1  0
112115  1  0
106116  2  0
116117  1  0
105118  1  0
118119  2  0
119120  1  0
119121  1  0
121122  2  0
122123  1  0
123124  2  0
124125  1  0
124126  1  0
126127  2  0
127128  1  0
127129  1  0
129130  2  0
130131  1  0
130132  1  0
132133  2  0
133134  1  0
134135  2  0
135136  1  0
136137  1  0
137138  1  0
138139  1  0
139140  1  0
138141  2  0
141142  1  0
141143  1  0
143144  1  0
135145  1  0
145146  2  0
146147  1  0
147148  1  0
148149  1  0
149150  1  0
150151  1  0
151152  1  0
150153  2  0
153154  1  0
154155  1  0
153156  1  0
147157  2  0
157158  1  0
146159  1  0
159160  2  0
160161  1  0
 27  1  1  0
 57 31  1  0
 87 61  1  0
117 91  1  0
125121  1  0
131126  1  0
158132  1  0
 26  3  1  0
 56 33  1  0
 86 63  1  0
116 93  1  0
128123  1  0
157134  1  0
 12  5  2  0
 30 14  1  0
 42 35  2  0
 60 44  1  0
 72 65  2  0
 90 74  1  0
102 95  2  0
120104  1  0
143136  2  0
161145  1  0
 23 17  2  0
 53 47  2  0
 83 77  2  0
113107  2  0
154148  2  0
  1162  1  0
  2163  1  0
  8164  1  0
  8165  1  0
  9166  1  0
  9167  1  0
  9168  1  0
 20169  1  0
 20170  1  0
 21171  1  0
 21172  1  0
 21173  1  0
 28174  1  0
 32175  1  0
 38176  1  0
 38177  1  0
 39178  1  0
 39179  1  0
 39180  1  0
 50181  1  0
 50182  1  0
 51183  1  0
 51184  1  0
 51185  1  0
 58186  1  0
 62187  1  0
 68188  1  0
 68189  1  0
 69190  1  0
 69191  1  0
 69192  1  0
 80193  1  0
 80194  1  0
 81195  1  0
 81196  1  0
 81197  1  0
 88198  1  0
 92199  1  0
 98200  1  0
 98201  1  0
 99202  1  0
 99203  1  0
 99204  1  0
110205  1  0
110206  1  0
111207  1  0
111208  1  0
111209  1  0
118210  1  0
122211  1  0
128212  1  0
128213  1  0
129214  1  0
133215  1  0
139216  1  0
139217  1  0
140218  1  0
140219  1  0
140220  1  0
151221  1  0
151222  1  0
152223  1  0
152224  1  0
152225  1  0
159226  1  0
160227  1  0
M  END

