
     RDKit          3D

107119  0  0  0  0  0  0  0  0999 V2000
    5.0011   -3.8984    3.1888 C   0  0  0  0  0  0  0  0  0  0  0  0
    6.5478   -4.2455    2.6296 S   0  0  0  0  0  0  0  0  0  0  0  0
    7.2708   -2.7759    3.0354 C   0  0  0  0  0  0  0  0  0  0  0  0
    6.2908   -1.9839    3.6345 C   0  0  0  0  0  0  0  0  0  0  0  0
    5.0355   -2.6109    3.7250 C   0  0  0  0  0  0  0  0  0  0  0  0
    3.9232   -1.9358    4.3458 N   0  0  0  0  0  0  0  0  0  0  0  0
    4.0847   -0.5241    4.7498 C   0  0  0  0  0  0  0  0  0  0  0  0
    5.5263   -0.2178    5.2039 C   0  0  0  0  0  0  0  0  0  0  0  0
    6.4972   -0.6699    4.1946 N   0  0  0  0  0  0  0  0  0  0  0  0
    7.6286    0.1494    3.8588 C   0  0  0  0  0  0  0  0  0  0  0  0
    8.2363   -0.0126    2.7648 O   0  0  0  0  0  0  0  0  0  0  0  0
    8.0618    1.1356    4.7431 O   0  0  0  0  0  0  0  0  0  0  0  0
    2.6845   -2.6259    4.5906 C   0  0  0  0  0  0  0  0  0  0  0  0
    2.5765   -3.9432    5.6383 S   0  0  0  0  0  0  0  0  0  0  0  0
    0.9420   -3.8122    5.9930 C   0  0  0  0  0  0  0  0  0  0  0  0
    0.4669   -2.6917    5.3074 C   0  0  0  0  0  0  0  0  0  0  0  0
    1.4061   -2.0648    4.5034 C   0  0  0  0  0  0  0  0  0  0  0  0
    1.0367   -0.8365    3.8717 N   0  0  0  0  0  0  0  0  0  0  0  0
    0.3471    0.1443    4.7358 C   0  0  0  0  0  0  0  0  0  0  0  0
   -0.5949   -0.5121    5.8015 C   0  0  0  0  0  0  0  0  0  0  0  0
   -0.7286   -1.9720    5.6397 N   0  0  0  0  0  0  0  0  0  0  0  0
   -1.9278   -2.6618    6.0346 C   0  0  0  0  0  0  0  0  0  0  0  0
   -2.8572   -2.0414    6.6212 O   0  0  0  0  0  0  0  0  0  0  0  0
   -2.0798   -4.0217    5.7451 O   0  0  0  0  0  0  0  0  0  0  0  0
    1.2297   -0.6465    2.4462 C   0  0  0  0  0  0  0  0  0  0  0  0
    2.6386   -1.0368    1.6183 S   0  0  0  0  0  0  0  0  0  0  0  0
    2.3007   -0.2301    0.1890 C   0  0  0  0  0  0  0  0  0  0  0  0
    1.0417    0.3513    0.3168 C   0  0  0  0  0  0  0  0  0  0  0  0
    0.4333    0.0921    1.5503 C   0  0  0  0  0  0  0  0  0  0  0  0
   -0.8626    0.6500    1.8077 N   0  0  0  0  0  0  0  0  0  0  0  0
   -1.1132    1.9728    1.2353 C   0  0  0  0  0  0  0  0  0  0  0  0
   -0.8268    1.9647   -0.2784 C   0  0  0  0  0  0  0  0  0  0  0  0
    0.4122    1.2369   -0.6450 N   0  0  0  0  0  0  0  0  0  0  0  0
    0.8559    1.3283   -2.0219 C   0  0  0  0  0  0  0  0  0  0  0  0
    0.4240    2.2476   -2.7694 O   0  0  0  0  0  0  0  0  0  0  0  0
    1.7214    0.3823   -2.5588 O   0  0  0  0  0  0  0  0  0  0  0  0
   -1.9401   -0.1454    2.3350 C   0  0  0  0  0  0  0  0  0  0  0  0
   -3.0634    0.3915    3.4687 S   0  0  0  0  0  0  0  0  0  0  0  0
   -3.8266   -1.0957    3.6990 C   0  0  0  0  0  0  0  0  0  0  0  0
   -3.2291   -2.0306    2.8466 C   0  0  0  0  0  0  0  0  0  0  0  0
   -2.1877   -1.4923    2.0864 C   0  0  0  0  0  0  0  0  0  0  0  0
   -1.6083   -2.2618    1.0351 N   0  0  0  0  0  0  0  0  0  0  0  0
   -1.5046   -3.6924    1.3246 C   0  0  0  0  0  0  0  0  0  0  0  0
   -2.8921   -4.2558    1.7034 C   0  0  0  0  0  0  0  0  0  0  0  0
   -3.6026   -3.4244    2.7005 N   0  0  0  0  0  0  0  0  0  0  0  0
   -4.7777   -3.9864    3.3257 C   0  0  0  0  0  0  0  0  0  0  0  0
   -4.8461   -5.2286    3.5356 O   0  0  0  0  0  0  0  0  0  0  0  0
   -5.8667   -3.1832    3.6567 O   0  0  0  0  0  0  0  0  0  0  0  0
   -1.8155   -1.8263   -0.3160 C   0  0  0  0  0  0  0  0  0  0  0  0
   -0.9776   -2.1319   -1.3941 C   0  0  0  0  0  0  0  0  0  0  0  0
   -1.4860   -1.5858   -2.5754 C   0  0  0  0  0  0  0  0  0  0  0  0
   -2.6627   -0.9167   -2.4178 C   0  0  0  0  0  0  0  0  0  0  0  0
   -3.1680   -0.9144   -0.8292 S   0  0  0  0  0  0  0  0  0  0  0  0
   -2.9971   -0.2857   -3.6579 C   0  0  0  0  0  0  0  0  0  0  0  0
   -2.0355   -0.5823   -4.5722 C   0  0  0  0  0  0  0  0  0  0  0  0
   -0.9753   -1.4904   -3.9989 C   0  0  0  0  0  0  0  0  0  0  0  0
   -2.2238    0.0429   -5.7974 C   0  0  0  0  0  0  0  0  0  0  0  0
   -3.3668    0.8573   -5.7778 C   0  0  0  0  0  0  0  0  0  0  0  0
   -4.1354    0.7852   -4.2554 S   0  0  0  0  0  0  0  0  0  0  0  0
   -3.8621    1.6535   -6.9126 C   0  0  0  0  0  0  0  0  0  0  0  0
   -5.4866    1.9683   -7.2368 S   0  0  0  0  0  0  0  0  0  0  0  0
   -5.2559    2.8674   -8.6401 C   0  0  0  0  0  0  0  0  0  0  0  0
   -3.8808    2.9219   -8.8863 C   0  0  0  0  0  0  0  0  0  0  0  0
   -3.1179    2.2504   -7.9267 C   0  0  0  0  0  0  0  0  0  0  0  0
   -1.6908    2.3700   -7.9415 N   0  0  0  0  0  0  0  0  0  0  0  0
   -1.0316    2.8325   -9.1600 C   0  0  0  0  0  0  0  0  0  0  0  0
   -1.8111    4.0028   -9.7860 C   0  0  0  0  0  0  0  0  0  0  0  0
   -3.2352    3.6622   -9.9500 N   0  0  0  0  0  0  0  0  0  0  0  0
   -3.9751    4.2209  -11.0593 C   0  0  0  0  0  0  0  0  0  0  0  0
   -5.0861    3.7362  -11.4135 O   0  0  0  0  0  0  0  0  0  0  0  0
   -3.4422    5.2810  -11.7847 O   0  0  0  0  0  0  0  0  0  0  0  0
    4.1457   -4.5578    3.1340 H   0  0  0  0  0  0  0  0  0  0  0  0
    8.3190   -2.5299    2.8995 H   0  0  0  0  0  0  0  0  0  0  0  0
    3.3982   -0.2838    5.5888 H   0  0  0  0  0  0  0  0  0  0  0  0
    3.8393    0.1435    3.8958 H   0  0  0  0  0  0  0  0  0  0  0  0
    5.6182    0.8748    5.3872 H   0  0  0  0  0  0  0  0  0  0  0  0
    5.7222   -0.7440    6.1644 H   0  0  0  0  0  0  0  0  0  0  0  0
    8.8573    1.7184    4.5165 H   0  0  0  0  0  0  0  0  0  0  0  0
    0.4008   -4.3923    6.7313 H   0  0  0  0  0  0  0  0  0  0  0  0
    1.1267    0.7221    5.2767 H   0  0  0  0  0  0  0  0  0  0  0  0
   -0.2129    0.8924    4.1527 H   0  0  0  0  0  0  0  0  0  0  0  0
   -0.1726   -0.3179    6.8143 H   0  0  0  0  0  0  0  0  0  0  0  0
   -1.5822   -0.0222    5.7862 H   0  0  0  0  0  0  0  0  0  0  0  0
   -2.9400   -4.5049    5.9880 H   0  0  0  0  0  0  0  0  0  0  0  0
    2.9885   -0.1458   -0.6317 H   0  0  0  0  0  0  0  0  0  0  0  0
   -0.4496    2.7092    1.7224 H   0  0  0  0  0  0  0  0  0  0  0  0
   -2.1591    2.2892    1.4151 H   0  0  0  0  0  0  0  0  0  0  0  0
   -1.6916    1.4990   -0.8085 H   0  0  0  0  0  0  0  0  0  0  0  0
   -0.7592    3.0220   -0.6177 H   0  0  0  0  0  0  0  0  0  0  0  0
    2.0231    0.4556   -3.5237 H   0  0  0  0  0  0  0  0  0  0  0  0
   -4.6346   -1.2645    4.4013 H   0  0  0  0  0  0  0  0  0  0  0  0
   -0.8037   -3.8410    2.1773 H   0  0  0  0  0  0  0  0  0  0  0  0
   -1.0835   -4.2410    0.4551 H   0  0  0  0  0  0  0  0  0  0  0  0
   -2.7573   -5.2916    2.0842 H   0  0  0  0  0  0  0  0  0  0  0  0
   -3.5067   -4.3137    0.7845 H   0  0  0  0  0  0  0  0  0  0  0  0
   -6.6874   -3.5773    4.1078 H   0  0  0  0  0  0  0  0  0  0  0  0
   -0.0569   -2.6950   -1.3246 H   0  0  0  0  0  0  0  0  0  0  0  0
   -0.9927   -2.4866   -4.5008 H   0  0  0  0  0  0  0  0  0  0  0  0
    0.0242   -1.0182   -4.0434 H   0  0  0  0  0  0  0  0  0  0  0  0
   -1.5716   -0.0842   -6.6440 H   0  0  0  0  0  0  0  0  0  0  0  0
   -6.0443    3.3405   -9.1996 H   0  0  0  0  0  0  0  0  0  0  0  0
   -1.1423    2.2418   -7.0656 H   0  0  0  0  0  0  0  0  0  0  0  0
   -0.9808    1.9928   -9.8838 H   0  0  0  0  0  0  0  0  0  0  0  0
    0.0048    3.1599   -8.9245 H   0  0  0  0  0  0  0  0  0  0  0  0
   -1.7319    4.8960   -9.1224 H   0  0  0  0  0  0  0  0  0  0  0  0
   -1.3450    4.2414  -10.7721 H   0  0  0  0  0  0  0  0  0  0  0  0
   -3.9420    5.6858  -12.5721 H   0  0  0  0  0  0  0  0  0  0  0  0
  1  2  1  0
  2  3  1  0
  3  4  2  0
  4  5  1  0
  5  6  1  0
  6  7  1  0
  7  8  1  0
  8  9  1  0
  9 10  1  0
 10 11  2  0
 10 12  1  0
  6 13  1  0
 13 14  1  0
 14 15  1  0
 15 16  2  0
 16 17  1  0
 17 18  1  0
 18 19  1  0
 19 20  1  0
 20 21  1  0
 21 22  1  0
 22 23  2  0
 22 24  1  0
 18 25  1  0
 25 26  1  0
 26 27  1  0
 27 28  2  0
 28 29  1  0
 29 30  1  0
 30 31  1  0
 31 32  1  0
 32 33  1  0
 33 34  1  0
 34 35  2  0
 34 36  1  0
 30 37  1  0
 37 38  1  0
 38 39  1  0
 39 40  2  0
 40 41  1  0
 41 42  1  0
 42 43  1  0
 43 44  1  0
 44 45  1  0
 45 46  1  0
 46 47  2  0
 46 48  1  0
 42 49  1  0
 49 50  2  0
 50 51  1  0
 51 52  2  0
 52 53  1  0
 52 54  1  0
 54 55  2  0
 55 56  1  0
 55 57  1  0
 57 58  2  0
 58 59  1  0
 58 60  1  0
 60 61  1  0
 61 62  1  0
 62 63  2  0
 63 64  1  0
 64 65  1  0
 65 66  1  0
 66 67  1  0
 67 68  1  0
 68 69  1  0
 69 70  2  0
 69 71  1  0
  5  1  2  0
 17 13  2  0
 29 25  2  0
 41 37  2  0
 53 49  1  0
 59 54  1  0
 64 60  2  0
  9  4  1  0
 21 16  1  0
 33 28  1  0
 45 40  1  0
 56 51  1  0
 68 63  1  0
  1 72  1  0
  3 73  1  0
  7 74  1  0
  7 75  1  0
  8 76  1  0
  8 77  1  0
 12 78  1  0
 15 79  1  0
 19 80  1  0
 19 81  1  0
 20 82  1  0
 20 83  1  0
 24 84  1  0
 27 85  1  0
 31 86  1  0
 31 87  1  0
 32 88  1  0
 32 89  1  0
 36 90  1  0
 39 91  1  0
 43 92  1  0
 43 93  1  0
 44 94  1  0
 44 95  1  0
 48 96  1  0
 50 97  1  0
 56 98  1  0
 56 99  1  0
 57100  1  0
 62101  1  0
 65102  1  0
 66103  1  0
 66104  1  0
 67105  1  0
 67106  1  0
 71107  1  0
M  END

