
     RDKit          3D

200225  0  0  0  0  0  0  0  0999 V2000
    2.9027    4.3931   11.6673 C   0  0  0  0  0  0  0  0  0  0  0  0
    4.1341    4.4289   11.0193 C   0  0  0  0  0  0  0  0  0  0  0  0
    4.2576    3.4557   10.0137 C   0  0  0  0  0  0  0  0  0  0  0  0
    5.3663    3.2641    9.1658 C   0  0  0  0  0  0  0  0  0  0  0  0
    6.5803    4.0909    9.2670 C   0  0  0  0  0  0  0  0  0  0  0  0
    7.6731    4.0468   10.5443 S   0  0  0  0  0  0  0  0  0  0  0  0
    8.7440    5.1723    9.8952 C   0  0  0  0  0  0  0  0  0  0  0  0
    9.9824    5.6632   10.5812 C   0  0  0  0  0  0  0  0  0  0  0  0
    9.6688    6.8647   11.4628 C   0  0  0  0  0  0  0  0  0  0  0  0
    8.2411    5.6160    8.6735 C   0  0  0  0  0  0  0  0  0  0  0  0
    9.0339    6.8321    7.6798 Cl  0  0  0  0  0  0  0  0  0  0  0  0
    7.0332    5.0008    8.3142 C   0  0  0  0  0  0  0  0  0  0  0  0
    6.1601    5.3649    6.8330 Cl  0  0  0  0  0  0  0  0  0  0  0  0
    5.2680    2.2381    8.2105 C   0  0  0  0  0  0  0  0  0  0  0  0
    4.1302    1.4362    8.0805 C   0  0  0  0  0  0  0  0  0  0  0  0
    3.0102    1.6459    8.9104 C   0  0  0  0  0  0  0  0  0  0  0  0
    1.7735    0.8623    8.7626 C   0  0  0  0  0  0  0  0  0  0  0  0
    1.2245   -0.2824    9.8650 S   0  0  0  0  0  0  0  0  0  0  0  0
   -0.1339   -0.7404    8.9832 C   0  0  0  0  0  0  0  0  0  0  0  0
   -1.0556   -1.8576    9.3640 C   0  0  0  0  0  0  0  0  0  0  0  0
   -0.5522   -3.1796    8.7943 C   0  0  0  0  0  0  0  0  0  0  0  0
   -0.1645   -0.0083    7.7961 C   0  0  0  0  0  0  0  0  0  0  0  0
    0.9053    0.8924    7.6744 C   0  0  0  0  0  0  0  0  0  0  0  0
    1.1176    1.9611    6.2938 Cl  0  0  0  0  0  0  0  0  0  0  0  0
   -1.4062   -0.1993    6.5686 Cl  0  0  0  0  0  0  0  0  0  0  0  0
    3.1172    2.6581    9.8794 C   0  0  0  0  0  0  0  0  0  0  0  0
    1.9651    3.1605   10.9977 S   0  0  0  0  0  0  0  0  0  0  0  0
    4.2611    0.4416    7.0964 C   0  0  0  0  0  0  0  0  0  0  0  0
    5.4988    0.4757    6.4539 C   0  0  0  0  0  0  0  0  0  0  0  0
    6.4276    1.7285    7.1028 S   0  0  0  0  0  0  0  0  0  0  0  0
    5.9525   -0.4348    5.3902 C   0  0  0  0  0  0  0  0  0  0  0  0
    5.3011   -1.6097    4.9831 C   0  0  0  0  0  0  0  0  0  0  0  0
    5.9573   -2.2066    3.9036 C   0  0  0  0  0  0  0  0  0  0  0  0
    7.0661   -1.5347    3.4843 C   0  0  0  0  0  0  0  0  0  0  0  0
    7.2729   -0.1215    4.3617 S   0  0  0  0  0  0  0  0  0  0  0  0
    7.3671   -1.9312    2.1368 C   0  0  0  0  0  0  0  0  0  0  0  0
    6.4314   -2.8544    1.7493 C   0  0  0  0  0  0  0  0  0  0  0  0
    5.4652   -3.1773    2.8633 C   0  0  0  0  0  0  0  0  0  0  0  0
    6.2225   -2.9121    0.3674 C   0  0  0  0  0  0  0  0  0  0  0  0
    7.0081   -1.9728   -0.3150 C   0  0  0  0  0  0  0  0  0  0  0  0
    7.8922   -1.0549    0.8087 S   0  0  0  0  0  0  0  0  0  0  0  0
    6.8377   -1.6013   -1.7273 C   0  0  0  0  0  0  0  0  0  0  0  0
    6.1483   -2.3330   -2.6954 C   0  0  0  0  0  0  0  0  0  0  0  0
    5.9592   -1.6176   -3.8920 C   0  0  0  0  0  0  0  0  0  0  0  0
    5.2594   -2.0604   -5.0338 C   0  0  0  0  0  0  0  0  0  0  0  0
    4.6682   -3.4073   -5.1170 C   0  0  0  0  0  0  0  0  0  0  0  0
    3.3862   -3.9624   -4.1789 S   0  0  0  0  0  0  0  0  0  0  0  0
    3.3079   -5.4939   -4.8767 C   0  0  0  0  0  0  0  0  0  0  0  0
    2.3011   -6.5446   -4.5159 C   0  0  0  0  0  0  0  0  0  0  0  0
    1.1838   -6.6100   -5.5517 C   0  0  0  0  0  0  0  0  0  0  0  0
    4.2859   -5.5837   -5.8676 C   0  0  0  0  0  0  0  0  0  0  0  0
    4.5497   -7.0221   -6.8444 Cl  0  0  0  0  0  0  0  0  0  0  0  0
    5.0479   -4.4117   -6.0017 C   0  0  0  0  0  0  0  0  0  0  0  0
    6.3657   -4.2401   -7.1521 Cl  0  0  0  0  0  0  0  0  0  0  0  0
    5.0896   -1.1320   -6.0741 C   0  0  0  0  0  0  0  0  0  0  0  0
    5.5932    0.1707   -6.0086 C   0  0  0  0  0  0  0  0  0  0  0  0
    6.3518    0.5904   -4.9012 C   0  0  0  0  0  0  0  0  0  0  0  0
    6.9216    1.9448   -4.8196 C   0  0  0  0  0  0  0  0  0  0  0  0
    8.1878    2.4957   -5.7785 S   0  0  0  0  0  0  0  0  0  0  0  0
    8.3083    4.0118   -5.0612 C   0  0  0  0  0  0  0  0  0  0  0  0
    9.3659    5.0211   -5.3942 C   0  0  0  0  0  0  0  0  0  0  0  0
   10.6654    4.6932   -4.6654 C   0  0  0  0  0  0  0  0  0  0  0  0
    7.3603    4.1014   -4.0416 C   0  0  0  0  0  0  0  0  0  0  0  0
    6.5749    2.9455   -3.9137 C   0  0  0  0  0  0  0  0  0  0  0  0
    5.2587    2.7923   -2.7573 Cl  0  0  0  0  0  0  0  0  0  0  0  0
    7.1722    5.5126   -3.0078 Cl  0  0  0  0  0  0  0  0  0  0  0  0
    6.5102   -0.3322   -3.8540 C   0  0  0  0  0  0  0  0  0  0  0  0
    7.2424   -0.0899   -2.3604 S   0  0  0  0  0  0  0  0  0  0  0  0
    5.1414    0.9934   -7.0498 C   0  0  0  0  0  0  0  0  0  0  0  0
    4.2774    0.3409   -7.9270 C   0  0  0  0  0  0  0  0  0  0  0  0
    4.0912   -1.2608   -7.4224 S   0  0  0  0  0  0  0  0  0  0  0  0
    3.3528    1.0252   -8.8411 C   0  0  0  0  0  0  0  0  0  0  0  0
    2.5542    0.3920   -9.7962 C   0  0  0  0  0  0  0  0  0  0  0  0
    1.4895    1.1981  -10.2170 C   0  0  0  0  0  0  0  0  0  0  0  0
    1.4326    2.4253   -9.5999 C   0  0  0  0  0  0  0  0  0  0  0  0
    2.6796    2.5382   -8.4848 S   0  0  0  0  0  0  0  0  0  0  0  0
    0.0395    2.7679   -9.4159 C   0  0  0  0  0  0  0  0  0  0  0  0
   -0.7254    1.7618   -9.9609 C   0  0  0  0  0  0  0  0  0  0  0  0
    0.1276    0.7345  -10.6518 C   0  0  0  0  0  0  0  0  0  0  0  0
   -1.9267    1.5203   -9.2843 C   0  0  0  0  0  0  0  0  0  0  0  0
   -2.0826    2.3425   -8.1627 C   0  0  0  0  0  0  0  0  0  0  0  0
   -0.7091    3.3250   -8.0196 S   0  0  0  0  0  0  0  0  0  0  0  0
   -3.0369    2.1053   -7.0663 C   0  0  0  0  0  0  0  0  0  0  0  0
   -4.1224    1.2270   -7.1017 C   0  0  0  0  0  0  0  0  0  0  0  0
   -4.6873    1.0002   -5.8330 C   0  0  0  0  0  0  0  0  0  0  0  0
   -5.7357    0.1066   -5.5269 C   0  0  0  0  0  0  0  0  0  0  0  0
   -6.4149   -0.6861   -6.5666 C   0  0  0  0  0  0  0  0  0  0  0  0
   -5.6879   -1.8856   -7.4956 S   0  0  0  0  0  0  0  0  0  0  0  0
   -7.0659   -2.2917   -8.3712 C   0  0  0  0  0  0  0  0  0  0  0  0
   -7.1017   -3.3031   -9.4786 C   0  0  0  0  0  0  0  0  0  0  0  0
   -6.6421   -2.6811  -10.7907 C   0  0  0  0  0  0  0  0  0  0  0  0
   -8.1162   -1.4733   -7.9553 C   0  0  0  0  0  0  0  0  0  0  0  0
   -9.7295   -1.5376   -8.6506 Cl  0  0  0  0  0  0  0  0  0  0  0  0
   -7.7535   -0.5814   -6.9348 C   0  0  0  0  0  0  0  0  0  0  0  0
   -8.8672    0.5797   -6.2230 Cl  0  0  0  0  0  0  0  0  0  0  0  0
   -6.0590   -0.0553   -4.1662 C   0  0  0  0  0  0  0  0  0  0  0  0
   -5.3768    0.6208   -3.1499 C   0  0  0  0  0  0  0  0  0  0  0  0
   -4.3697    1.5520   -3.4600 C   0  0  0  0  0  0  0  0  0  0  0  0
   -3.6459    2.2839   -2.4097 C   0  0  0  0  0  0  0  0  0  0  0  0
   -3.9119    3.8969   -2.0208 S   0  0  0  0  0  0  0  0  0  0  0  0
   -2.8775    3.9296   -0.6932 C   0  0  0  0  0  0  0  0  0  0  0  0
   -2.7286    5.0985    0.2313 C   0  0  0  0  0  0  0  0  0  0  0  0
   -3.7283    5.0050    1.3798 C   0  0  0  0  0  0  0  0  0  0  0  0
   -2.3248    2.6605   -0.5244 C   0  0  0  0  0  0  0  0  0  0  0  0
   -2.7543    1.7374   -1.4903 C   0  0  0  0  0  0  0  0  0  0  0  0
   -2.2438    0.0536   -1.5179 Cl  0  0  0  0  0  0  0  0  0  0  0  0
   -1.2309    2.2436    0.7878 Cl  0  0  0  0  0  0  0  0  0  0  0  0
   -4.0517    1.7190   -4.8160 C   0  0  0  0  0  0  0  0  0  0  0  0
   -2.7972    2.6206   -5.4737 S   0  0  0  0  0  0  0  0  0  0  0  0
   -5.7457    0.2037   -1.8630 C   0  0  0  0  0  0  0  0  0  0  0  0
   -6.7091   -0.7992   -1.8729 C   0  0  0  0  0  0  0  0  0  0  0  0
   -7.1160   -1.1703   -3.4704 S   0  0  0  0  0  0  0  0  0  0  0  0
   -7.0292   -1.6399   -0.7179 C   0  0  0  0  0  0  0  0  0  0  0  0
   -8.2688   -2.2034   -0.4229 C   0  0  0  0  0  0  0  0  0  0  0  0
   -8.2095   -3.0968    0.6613 C   0  0  0  0  0  0  0  0  0  0  0  0
   -9.2827   -3.8247    1.2111 C   0  0  0  0  0  0  0  0  0  0  0  0
  -10.6715   -3.6300    0.7664 C   0  0  0  0  0  0  0  0  0  0  0  0
  -11.2973   -4.1338   -0.7120 S   0  0  0  0  0  0  0  0  0  0  0  0
  -12.8764   -3.6314   -0.4099 C   0  0  0  0  0  0  0  0  0  0  0  0
  -14.0067   -3.7429   -1.3881 C   0  0  0  0  0  0  0  0  0  0  0  0
  -14.0894   -2.4947   -2.2589 C   0  0  0  0  0  0  0  0  0  0  0  0
  -12.9251   -3.0337    0.8498 C   0  0  0  0  0  0  0  0  0  0  0  0
  -14.3786   -2.3195    1.5323 Cl  0  0  0  0  0  0  0  0  0  0  0  0
  -11.6894   -3.0457    1.5140 C   0  0  0  0  0  0  0  0  0  0  0  0
  -11.4372   -2.3505    3.1100 Cl  0  0  0  0  0  0  0  0  0  0  0  0
   -8.9781   -4.7224    2.2505 C   0  0  0  0  0  0  0  0  0  0  0  0
   -7.6798   -4.9054    2.7327 C   0  0  0  0  0  0  0  0  0  0  0  0
   -6.6134   -4.1526    2.2086 C   0  0  0  0  0  0  0  0  0  0  0  0
   -5.2225   -4.3806    2.6284 C   0  0  0  0  0  0  0  0  0  0  0  0
   -4.3126   -5.7289    2.1989 S   0  0  0  0  0  0  0  0  0  0  0  0
   -2.8892   -5.2254    2.9441 C   0  0  0  0  0  0  0  0  0  0  0  0
   -1.6173   -6.0183    2.9648 C   0  0  0  0  0  0  0  0  0  0  0  0
   -1.6032   -6.9892    4.1371 C   0  0  0  0  0  0  0  0  0  0  0  0
   -3.1182   -3.9983    3.5645 C   0  0  0  0  0  0  0  0  0  0  0  0
   -4.4251   -3.5163    3.3720 C   0  0  0  0  0  0  0  0  0  0  0  0
   -5.0014   -1.9879    4.0199 Cl  0  0  0  0  0  0  0  0  0  0  0  0
   -1.9015   -3.1409    4.4987 Cl  0  0  0  0  0  0  0  0  0  0  0  0
   -6.9191   -3.2438    1.1829 C   0  0  0  0  0  0  0  0  0  0  0  0
   -5.8616   -2.2538    0.3335 S   0  0  0  0  0  0  0  0  0  0  0  0
   -7.5967   -5.8766    3.7443 C   0  0  0  0  0  0  0  0  0  0  0  0
   -8.8255   -6.4529    4.0510 C   0  0  0  0  0  0  0  0  0  0  0  0
  -10.0153   -5.7628    3.0726 S   0  0  0  0  0  0  0  0  0  0  0  0
    2.5965    5.0581   12.4633 H   0  0  0  0  0  0  0  0  0  0  0  0
    4.9040    5.1501   11.2642 H   0  0  0  0  0  0  0  0  0  0  0  0
   10.7481    5.9453    9.8275 H   0  0  0  0  0  0  0  0  0  0  0  0
   10.4072    4.8495   11.2058 H   0  0  0  0  0  0  0  0  0  0  0  0
    9.2372    7.6878   10.8560 H   0  0  0  0  0  0  0  0  0  0  0  0
   10.6037    7.2303   11.9398 H   0  0  0  0  0  0  0  0  0  0  0  0
    8.9492    6.5793   12.2592 H   0  0  0  0  0  0  0  0  0  0  0  0
   -1.1079   -1.9302   10.4720 H   0  0  0  0  0  0  0  0  0  0  0  0
   -2.0802   -1.6558    8.9861 H   0  0  0  0  0  0  0  0  0  0  0  0
   -1.2279   -4.0028    9.1045 H   0  0  0  0  0  0  0  0  0  0  0  0
    0.4687   -3.3997    9.1728 H   0  0  0  0  0  0  0  0  0  0  0  0
   -0.5290   -3.1392    7.6843 H   0  0  0  0  0  0  0  0  0  0  0  0
    3.4871   -0.2751    6.8617 H   0  0  0  0  0  0  0  0  0  0  0  0
    4.3647   -1.9688    5.3866 H   0  0  0  0  0  0  0  0  0  0  0  0
    4.4202   -2.9417    2.5655 H   0  0  0  0  0  0  0  0  0  0  0  0
    5.5778   -4.2261    3.2057 H   0  0  0  0  0  0  0  0  0  0  0  0
    5.4258   -3.4850   -0.0907 H   0  0  0  0  0  0  0  0  0  0  0  0
    5.7656   -3.3295   -2.5230 H   0  0  0  0  0  0  0  0  0  0  0  0
    1.8633   -6.3099   -3.5232 H   0  0  0  0  0  0  0  0  0  0  0  0
    2.8004   -7.5320   -4.4411 H   0  0  0  0  0  0  0  0  0  0  0  0
    0.4248   -7.3540   -5.2307 H   0  0  0  0  0  0  0  0  0  0  0  0
    0.6934   -5.6193   -5.6561 H   0  0  0  0  0  0  0  0  0  0  0  0
    1.5897   -6.9235   -6.5361 H   0  0  0  0  0  0  0  0  0  0  0  0
    9.0316    6.0423   -5.1148 H   0  0  0  0  0  0  0  0  0  0  0  0
    9.5494    5.0100   -6.4899 H   0  0  0  0  0  0  0  0  0  0  0  0
   11.4416    5.4405   -4.9326 H   0  0  0  0  0  0  0  0  0  0  0  0
   10.5107    4.7222   -3.5654 H   0  0  0  0  0  0  0  0  0  0  0  0
   11.0299    3.6846   -4.9584 H   0  0  0  0  0  0  0  0  0  0  0  0
    5.3490    2.0550   -7.1060 H   0  0  0  0  0  0  0  0  0  0  0  0
    2.6340   -0.6587  -10.0407 H   0  0  0  0  0  0  0  0  0  0  0  0
    0.0165    0.8094  -11.7551 H   0  0  0  0  0  0  0  0  0  0  0  0
   -0.0900   -0.2900  -10.2779 H   0  0  0  0  0  0  0  0  0  0  0  0
   -2.5450    0.6552   -9.4822 H   0  0  0  0  0  0  0  0  0  0  0  0
   -4.4534    0.7303   -8.0028 H   0  0  0  0  0  0  0  0  0  0  0  0
   -6.4339   -4.1541   -9.2225 H   0  0  0  0  0  0  0  0  0  0  0  0
   -8.1298   -3.7023   -9.6006 H   0  0  0  0  0  0  0  0  0  0  0  0
   -6.6992   -3.4368  -11.6042 H   0  0  0  0  0  0  0  0  0  0  0  0
   -5.5901   -2.3319  -10.7032 H   0  0  0  0  0  0  0  0  0  0  0  0
   -7.2885   -1.8182  -11.0604 H   0  0  0  0  0  0  0  0  0  0  0  0
   -2.9033    6.0401   -0.3319 H   0  0  0  0  0  0  0  0  0  0  0  0
   -1.6956    5.1310    0.6381 H   0  0  0  0  0  0  0  0  0  0  0  0
   -3.6168    5.8880    2.0430 H   0  0  0  0  0  0  0  0  0  0  0  0
   -4.7674    4.9833    0.9869 H   0  0  0  0  0  0  0  0  0  0  0  0
   -3.5450    4.0862    1.9779 H   0  0  0  0  0  0  0  0  0  0  0  0
   -5.2858    0.5647   -0.9529 H   0  0  0  0  0  0  0  0  0  0  0  0
   -9.1696   -1.9885   -0.9823 H   0  0  0  0  0  0  0  0  0  0  0  0
  -14.9670   -3.8796   -0.8459 H   0  0  0  0  0  0  0  0  0  0  0  0
  -13.8509   -4.6340   -2.0342 H   0  0  0  0  0  0  0  0  0  0  0  0
  -14.2877   -1.6003   -1.6271 H   0  0  0  0  0  0  0  0  0  0  0  0
  -14.9190   -2.6025   -2.9888 H   0  0  0  0  0  0  0  0  0  0  0  0
  -13.1377   -2.3453   -2.8156 H   0  0  0  0  0  0  0  0  0  0  0  0
   -0.7427   -5.3368    3.0317 H   0  0  0  0  0  0  0  0  0  0  0  0
   -1.5273   -6.5899    2.0157 H   0  0  0  0  0  0  0  0  0  0  0  0
   -1.6563   -6.4349    5.0991 H   0  0  0  0  0  0  0  0  0  0  0  0
   -0.6611   -7.5763    4.1188 H   0  0  0  0  0  0  0  0  0  0  0  0
   -2.4618   -7.6930    4.0708 H   0  0  0  0  0  0  0  0  0  0  0  0
   -6.6769   -6.1547    4.2413 H   0  0  0  0  0  0  0  0  0  0  0  0
   -8.9891   -7.2181    4.7946 H   0  0  0  0  0  0  0  0  0  0  0  0
  1  2  2  0
  2  3  1  0
  3  4  2  0
  4  5  1  0
  5  6  1  0
  6  7  1  0
  7  8  1  0
  8  9  1  0
  7 10  2  0
 10 11  1  0
 10 12  1  0
 12 13  1  0
  4 14  1  0
 14 15  2  0
 15 16  1  0
 16 17  1  0
 17 18  1  0
 18 19  1  0
 19 20  1  0
 20 21  1  0
 19 22  2  0
 22 23  1  0
 23 24  1  0
 22 25  1  0
 16 26  2  0
 26 27  1  0
 15 28  1  0
 28 29  2  0
 29 30  1  0
 29 31  1  0
 31 32  2  0
 32 33  1  0
 33 34  2  0
 34 35  1  0
 34 36  1  0
 36 37  2  0
 37 38  1  0
 37 39  1  0
 39 40  2  0
 40 41  1  0
 40 42  1  0
 42 43  2  0
 43 44  1  0
 44 45  2  0
 45 46  1  0
 46 47  1  0
 47 48  1  0
 48 49  1  0
 49 50  1  0
 48 51  2  0
 51 52  1  0
 51 53  1  0
 53 54  1  0
 45 55  1  0
 55 56  2  0
 56 57  1  0
 57 58  1  0
 58 59  1  0
 59 60  1  0
 60 61  1  0
 61 62  1  0
 60 63  2  0
 63 64  1  0
 64 65  1  0
 63 66  1  0
 57 67  2  0
 67 68  1  0
 56 69  1  0
 69 70  2  0
 70 71  1  0
 70 72  1  0
 72 73  2  0
 73 74  1  0
 74 75  2  0
 75 76  1  0
 75 77  1  0
 77 78  2  0
 78 79  1  0
 78 80  1  0
 80 81  2  0
 81 82  1  0
 81 83  1  0
 83 84  2  0
 84 85  1  0
 85 86  2  0
 86 87  1  0
 87 88  1  0
 88 89  1  0
 89 90  1  0
 90 91  1  0
 89 92  2  0
 92 93  1  0
 92 94  1  0
 94 95  1  0
 86 96  1  0
 96 97  2  0
 97 98  1  0
 98 99  1  0
 99100  1  0
100101  1  0
101102  1  0
102103  1  0
101104  2  0
104105  1  0
105106  1  0
104107  1  0
 98108  2  0
108109  1  0
 97110  1  0
110111  2  0
111112  1  0
111113  1  0
113114  2  0
114115  1  0
115116  2  0
116117  1  0
117118  1  0
118119  1  0
119120  1  0
120121  1  0
119122  2  0
122123  1  0
122124  1  0
124125  1  0
116126  1  0
126127  2  0
127128  1  0
128129  1  0
129130  1  0
130131  1  0
131132  1  0
132133  1  0
131134  2  0
134135  1  0
135136  1  0
134137  1  0
128138  2  0
138139  1  0
127140  1  0
140141  2  0
141142  1  0
 27  1  1  0
 35 31  1  0
 41 36  1  0
 68 42  1  0
 76 72  1  0
 82 77  1  0
109 83  1  0
139113  1  0
 26  3  1  0
 38 33  1  0
 67 44  1  0
 79 74  1  0
108 85  1  0
138115  1  0
 12  5  2  0
 30 14  1  0
 53 46  2  0
 71 55  1  0
 94 87  2  0
112 96  1  0
124117  2  0
142126  1  0
 23 17  2  0
 64 58  2  0
105 99  2  0
135129  2  0
  1143  1  0
  2144  1  0
  8145  1  0
  8146  1  0
  9147  1  0
  9148  1  0
  9149  1  0
 20150  1  0
 20151  1  0
 21152  1  0
 21153  1  0
 21154  1  0
 28155  1  0
 32156  1  0
 38157  1  0
 38158  1  0
 39159  1  0
 43160  1  0
 49161  1  0
 49162  1  0
 50163  1  0
 50164  1  0
 50165  1  0
 61166  1  0
 61167  1  0
 62168  1  0
 62169  1  0
 62170  1  0
 69171  1  0
 73172  1  0
 79173  1  0
 79174  1  0
 80175  1  0
 84176  1  0
 90177  1  0
 90178  1  0
 91179  1  0
 91180  1  0
 91181  1  0
102182  1  0
102183  1  0
103184  1  0
103185  1  0
103186  1  0
110187  1  0
114188  1  0
120189  1  0
120190  1  0
121191  1  0
121192  1  0
121193  1  0
132194  1  0
132195  1  0
133196  1  0
133197  1  0
133198  1  0
140199  1  0
141200  1  0
M  END

