
     RDKit          3D

107119  0  0  0  0  0  0  0  0999 V2000
   -1.1887    4.3245    4.3667 N   0  0  0  0  0  0  0  0  0  0  0  0
   -0.7985    3.1088    3.6328 C   0  0  2  0  0  0  0  0  0  0  0  0
   -1.6946    1.9138    3.9092 C   0  0  0  0  0  0  0  0  0  0  0  0
   -0.8225    0.4881    3.1795 S   0  0  0  0  0  0  0  0  0  0  0  0
    0.7627    1.2707    3.5294 C   0  0  0  0  0  0  0  0  0  0  0  0
    1.8668    0.4523    3.9639 S   0  0  0  0  0  0  0  0  0  0  0  0
    0.6095    2.6823    4.0376 C   0  0  1  0  0  0  0  0  0  0  0  0
    1.6142    3.6911    3.6019 N   0  0  0  0  0  0  0  0  0  0  0  0
    1.0376    5.0499    3.3799 C   0  0  0  0  0  0  0  0  0  0  0  0
   -0.0959    5.3334    4.4013 C   0  0  0  0  0  0  0  0  0  0  0  0
    2.4573    3.2079    2.5565 N   0  0  0  0  0  0  0  0  0  0  0  0
    3.9121    3.3350    2.8170 C   0  0  2  0  0  0  0  0  0  0  0  0
    4.3608    4.1156    4.0518 C   0  0  0  0  0  0  0  0  0  0  0  0
    6.1805    4.2678    3.9021 S   0  0  0  0  0  0  0  0  0  0  0  0
    6.0564    4.1856    2.1026 C   0  0  0  0  0  0  0  0  0  0  0  0
    6.9958    4.9226    1.2965 S   0  0  0  0  0  0  0  0  0  0  0  0
    4.6432    3.9846    1.6483 C   0  0  1  0  0  0  0  0  0  0  0  0
    4.4260    3.2178    0.4021 N   0  0  0  0  0  0  0  0  0  0  0  0
    3.0281    2.7308    0.1913 C   0  0  0  0  0  0  0  0  0  0  0  0
    2.0264    3.4075    1.1546 C   0  0  0  0  0  0  0  0  0  0  0  0
    5.4964    2.3513    0.0022 N   0  0  0  0  0  0  0  0  0  0  0  0
    5.5767    1.0522    0.7451 C   0  0  2  0  0  0  0  0  0  0  0  0
    6.6465    1.0142    1.8424 C   0  0  0  0  0  0  0  0  0  0  0  0
    6.7975   -0.7405    2.3465 S   0  0  0  0  0  0  0  0  0  0  0  0
    6.2224   -1.2633    0.7242 C   0  0  0  0  0  0  0  0  0  0  0  0
    6.6777   -2.5192    0.1909 S   0  0  0  0  0  0  0  0  0  0  0  0
    5.9780   -0.0899   -0.1714 C   0  0  1  0  0  0  0  0  0  0  0  0
    4.9610   -0.2111   -1.2177 N   0  0  0  0  0  0  0  0  0  0  0  0
    4.7228    0.9962   -2.0246 C   0  0  0  0  0  0  0  0  0  0  0  0
    5.5057    2.2330   -1.4851 C   0  0  0  0  0  0  0  0  0  0  0  0
    4.0057   -1.2790   -1.2561 C   0  0  0  0  0  0  0  0  0  0  0  0
    3.6374   -1.9491   -2.4243 C   0  0  0  0  0  0  0  0  0  0  0  0
    2.5977   -2.8391   -2.1732 C   0  0  0  0  0  0  0  0  0  0  0  0
    2.1703   -2.8433   -0.8753 C   0  0  0  0  0  0  0  0  0  0  0  0
    2.9806   -1.6919    0.0358 S   0  0  0  0  0  0  0  0  0  0  0  0
    0.8590   -3.4252   -0.8438 C   0  0  0  0  0  0  0  0  0  0  0  0
    0.5159   -3.7846   -2.1167 C   0  0  0  0  0  0  0  0  0  0  0  0
    1.6118   -3.4912   -3.1027 C   0  0  0  0  0  0  0  0  0  0  0  0
   -0.8495   -3.9740   -2.3055 C   0  0  0  0  0  0  0  0  0  0  0  0
   -1.5482   -3.7360   -1.1168 C   0  0  0  0  0  0  0  0  0  0  0  0
   -0.5035   -3.2187    0.1167 S   0  0  0  0  0  0  0  0  0  0  0  0
   -2.9746   -3.7781   -1.0044 N   0  0  0  0  0  0  0  0  0  0  0  0
   -3.7328   -2.5474   -1.2600 C   0  0  2  0  0  0  0  0  0  0  0  0
   -3.2132   -1.2913   -0.5665 C   0  0  0  0  0  0  0  0  0  0  0  0
   -4.5269   -0.0436   -0.7932 S   0  0  0  0  0  0  0  0  0  0  0  0
   -5.7667   -1.3458   -0.8420 C   0  0  0  0  0  0  0  0  0  0  0  0
   -7.0332   -1.0952   -0.2114 S   0  0  0  0  0  0  0  0  0  0  0  0
   -5.1457   -2.7079   -0.7540 C   0  0  1  0  0  0  0  0  0  0  0  0
   -5.8435   -3.8123   -1.4414 N   0  0  0  0  0  0  0  0  0  0  0  0
   -5.1645   -5.1009   -1.1495 C   0  0  0  0  0  0  0  0  0  0  0  0
   -3.6105   -5.0859   -1.2628 C   0  0  0  0  0  0  0  0  0  0  0  0
   -6.1861   -3.5100   -2.8002 N   0  0  0  0  0  0  0  0  0  0  0  0
   -7.6048   -3.7813   -3.1188 C   0  0  2  0  0  0  0  0  0  0  0  0
   -8.6370   -3.4690   -2.0367 C   0  0  0  0  0  0  0  0  0  0  0  0
  -10.2112   -4.2296   -2.5774 S   0  0  0  0  0  0  0  0  0  0  0  0
   -9.3147   -5.3391   -3.6684 C   0  0  0  0  0  0  0  0  0  0  0  0
   -9.9444   -6.5334   -4.1754 S   0  0  0  0  0  0  0  0  0  0  0  0
   -7.8327   -5.2259   -3.5222 C   0  0  1  0  0  0  0  0  0  0  0  0
   -7.0863   -5.5204   -4.7521 N   0  0  0  0  0  0  0  0  0  0  0  0
   -5.6487   -5.3625   -4.5068 C   0  0  0  0  0  0  0  0  0  0  0  0
   -5.2816   -3.9860   -3.8905 C   0  0  0  0  0  0  0  0  0  0  0  0
   -2.0082    4.7443    3.8665 H   0  0  0  0  0  0  0  0  0  0  0  0
   -0.8395    3.3084    2.5298 H   0  0  0  0  0  0  0  0  0  0  0  0
   -1.8180    1.7523    5.0033 H   0  0  0  0  0  0  0  0  0  0  0  0
   -2.6861    2.0443    3.4327 H   0  0  0  0  0  0  0  0  0  0  0  0
    0.6453    2.6426    5.1539 H   0  0  0  0  0  0  0  0  0  0  0  0
    0.5853    5.1539    2.3733 H   0  0  0  0  0  0  0  0  0  0  0  0
    1.8272    5.8240    3.4773 H   0  0  0  0  0  0  0  0  0  0  0  0
    0.3473    5.3360    5.4213 H   0  0  0  0  0  0  0  0  0  0  0  0
   -0.5094    6.3501    4.2107 H   0  0  0  0  0  0  0  0  0  0  0  0
    4.2794    2.2997    2.9563 H   0  0  0  0  0  0  0  0  0  0  0  0
    3.9284    5.1396    4.0625 H   0  0  0  0  0  0  0  0  0  0  0  0
    4.0964    3.5792    4.9864 H   0  0  0  0  0  0  0  0  0  0  0  0
    4.2138    5.0011    1.4948 H   0  0  0  0  0  0  0  0  0  0  0  0
    2.9333    1.6353    0.2847 H   0  0  0  0  0  0  0  0  0  0  0  0
    2.7165    2.9909   -0.8421 H   0  0  0  0  0  0  0  0  0  0  0  0
    1.0238    2.9671    1.0048 H   0  0  0  0  0  0  0  0  0  0  0  0
    1.9967    4.4862    0.8934 H   0  0  0  0  0  0  0  0  0  0  0  0
    4.6102    0.7988    1.2247 H   0  0  0  0  0  0  0  0  0  0  0  0
    7.6268    1.3762    1.4599 H   0  0  0  0  0  0  0  0  0  0  0  0
    6.3660    1.6026    2.7327 H   0  0  0  0  0  0  0  0  0  0  0  0
    6.9566    0.1439   -0.6601 H   0  0  0  0  0  0  0  0  0  0  0  0
    5.0328    0.8041   -3.0726 H   0  0  0  0  0  0  0  0  0  0  0  0
    3.6366    1.2230   -2.0437 H   0  0  0  0  0  0  0  0  0  0  0  0
    6.5667    2.1676   -1.8285 H   0  0  0  0  0  0  0  0  0  0  0  0
    5.0993    3.1599   -1.9559 H   0  0  0  0  0  0  0  0  0  0  0  0
    4.0372   -1.7396   -3.4074 H   0  0  0  0  0  0  0  0  0  0  0  0
    2.0260   -4.4215   -3.5494 H   0  0  0  0  0  0  0  0  0  0  0  0
    1.2662   -2.7779   -3.8773 H   0  0  0  0  0  0  0  0  0  0  0  0
   -1.3164   -4.1715   -3.2642 H   0  0  0  0  0  0  0  0  0  0  0  0
   -3.7276   -2.3290   -2.3513 H   0  0  0  0  0  0  0  0  0  0  0  0
   -3.0558   -1.4700    0.5201 H   0  0  0  0  0  0  0  0  0  0  0  0
   -2.2652   -0.9350   -1.0279 H   0  0  0  0  0  0  0  0  0  0  0  0
   -5.0952   -2.9576    0.3366 H   0  0  0  0  0  0  0  0  0  0  0  0
   -5.4080   -5.3726   -0.0977 H   0  0  0  0  0  0  0  0  0  0  0  0
   -5.5872   -5.9244   -1.7388 H   0  0  0  0  0  0  0  0  0  0  0  0
   -3.2036   -5.8333   -0.5369 H   0  0  0  0  0  0  0  0  0  0  0  0
   -3.3151   -5.4553   -2.2657 H   0  0  0  0  0  0  0  0  0  0  0  0
   -7.8718   -3.1302   -3.9788 H   0  0  0  0  0  0  0  0  0  0  0  0
   -8.3535   -3.8995   -1.0582 H   0  0  0  0  0  0  0  0  0  0  0  0
   -8.7919   -2.3789   -1.9491 H   0  0  0  0  0  0  0  0  0  0  0  0
   -7.5370   -5.9220   -2.7155 H   0  0  0  0  0  0  0  0  0  0  0  0
   -7.3802   -4.8529   -5.5057 H   0  0  0  0  0  0  0  0  0  0  0  0
   -5.2844   -6.1991   -3.8776 H   0  0  0  0  0  0  0  0  0  0  0  0
   -5.1032   -5.4770   -5.4778 H   0  0  0  0  0  0  0  0  0  0  0  0
   -4.2181   -3.9930   -3.5958 H   0  0  0  0  0  0  0  0  0  0  0  0
   -5.3350   -3.2355   -4.7066 H   0  0  0  0  0  0  0  0  0  0  0  0
  1  2  1  0
  2  3  1  0
  3  4  1  0
  4  5  1  0
  5  6  2  0
  5  7  1  0
  7  8  1  0
  8  9  1  0
  9 10  1  0
  8 11  1  0
 11 12  1  0
 12 13  1  0
 13 14  1  0
 14 15  1  0
 15 16  2  0
 15 17  1  0
 17 18  1  0
 18 19  1  0
 19 20  1  0
 18 21  1  0
 21 22  1  0
 22 23  1  0
 23 24  1  0
 24 25  1  0
 25 26  2  0
 25 27  1  0
 27 28  1  0
 28 29  1  0
 29 30  1  0
 28 31  1  0
 31 32  2  0
 32 33  1  0
 33 34  2  0
 34 35  1  0
 34 36  1  0
 36 37  2  0
 37 38  1  0
 37 39  1  0
 39 40  2  0
 40 41  1  0
 40 42  1  0
 42 43  1  0
 43 44  1  0
 44 45  1  0
 45 46  1  0
 46 47  2  0
 46 48  1  0
 48 49  1  0
 49 50  1  0
 50 51  1  0
 49 52  1  0
 52 53  1  0
 53 54  1  0
 54 55  1  0
 55 56  1  0
 56 57  2  0
 56 58  1  0
 58 59  1  0
 59 60  1  0
 60 61  1  0
 10  1  1  0
 20 11  1  0
 30 21  1  0
 35 31  1  0
 41 36  1  0
 51 42  1  0
 61 52  1  0
  7  2  1  0
 17 12  1  0
 27 22  1  0
 38 33  1  0
 48 43  1  0
 58 53  1  0
  1 62  1  0
  2 63  1  6
  3 64  1  0
  3 65  1  0
  7 66  1  1
  9 67  1  0
  9 68  1  0
 10 69  1  0
 10 70  1  0
 12 71  1  1
 13 72  1  0
 13 73  1  0
 17 74  1  6
 19 75  1  0
 19 76  1  0
 20 77  1  0
 20 78  1  0
 22 79  1  1
 23 80  1  0
 23 81  1  0
 27 82  1  6
 29 83  1  0
 29 84  1  0
 30 85  1  0
 30 86  1  0
 32 87  1  0
 38 88  1  0
 38 89  1  0
 39 90  1  0
 43 91  1  6
 44 92  1  0
 44 93  1  0
 48 94  1  1
 50 95  1  0
 50 96  1  0
 51 97  1  0
 51 98  1  0
 53 99  1  6
 54100  1  0
 54101  1  0
 58102  1  1
 59103  1  0
 60104  1  0
 60105  1  0
 61106  1  0
 61107  1  0
M  END

