
     RDKit          3D

173196  0  0  0  0  0  0  0  0999 V2000
  -10.9420    8.8608  -11.5184 C   0  0  0  0  0  0  0  0  0  0  0  0
  -10.1449    9.1971  -10.4295 C   0  0  0  0  0  0  0  0  0  0  0  0
   -9.4636    8.0988   -9.8804 C   0  0  0  0  0  0  0  0  0  0  0  0
   -8.5850    8.1235   -8.7776 C   0  0  0  0  0  0  0  0  0  0  0  0
   -8.3221    9.3545   -8.0087 C   0  0  0  0  0  0  0  0  0  0  0  0
   -6.8043   10.0443   -7.7860 S   0  0  0  0  0  0  0  0  0  0  0  0
   -7.3111   11.2703   -6.7521 C   0  0  0  0  0  0  0  0  0  0  0  0
   -6.3864   12.2111   -6.0405 C   0  0  0  0  0  0  0  0  0  0  0  0
   -5.9055   11.5971   -4.7295 C   0  0  0  0  0  0  0  0  0  0  0  0
   -8.6825   11.1371   -6.5413 C   0  0  0  0  0  0  0  0  0  0  0  0
   -9.6015   12.1684   -5.4538 Cl  0  0  0  0  0  0  0  0  0  0  0  0
   -9.2530   10.0685   -7.2536 C   0  0  0  0  0  0  0  0  0  0  0  0
  -10.9454    9.6086   -7.1028 Cl  0  0  0  0  0  0  0  0  0  0  0  0
   -7.9716    6.9065   -8.4291 C   0  0  0  0  0  0  0  0  0  0  0  0
   -8.2284    5.7083   -9.1037 C   0  0  0  0  0  0  0  0  0  0  0  0
   -9.1226    5.6818  -10.1927 C   0  0  0  0  0  0  0  0  0  0  0  0
   -9.4129    4.4421  -10.9346 C   0  0  0  0  0  0  0  0  0  0  0  0
   -9.0400    4.1885  -12.5558 S   0  0  0  0  0  0  0  0  0  0  0  0
   -9.6819    2.6353  -12.6435 C   0  0  0  0  0  0  0  0  0  0  0  0
   -9.6221    1.7606  -13.8604 C   0  0  0  0  0  0  0  0  0  0  0  0
   -8.3445    0.9305  -13.8563 C   0  0  0  0  0  0  0  0  0  0  0  0
  -10.1853    2.2860  -11.3919 C   0  0  0  0  0  0  0  0  0  0  0  0
  -10.0483    3.3041  -10.4368 C   0  0  0  0  0  0  0  0  0  0  0  0
  -10.6419    3.1706   -8.7873 Cl  0  0  0  0  0  0  0  0  0  0  0  0
  -10.9323    0.7323  -11.0392 Cl  0  0  0  0  0  0  0  0  0  0  0  0
   -9.7119    6.9038  -10.5619 C   0  0  0  0  0  0  0  0  0  0  0  0
  -10.7965    7.2062  -11.8122 S   0  0  0  0  0  0  0  0  0  0  0  0
   -7.4976    4.6190   -8.5973 C   0  0  0  0  0  0  0  0  0  0  0  0
   -6.6800    4.9718   -7.5253 C   0  0  0  0  0  0  0  0  0  0  0  0
   -6.8587    6.6175   -7.2025 S   0  0  0  0  0  0  0  0  0  0  0  0
   -5.7575    4.0801   -6.8117 C   0  0  0  0  0  0  0  0  0  0  0  0
   -4.7250    4.5019   -5.9782 C   0  0  0  0  0  0  0  0  0  0  0  0
   -3.9823    3.4384   -5.4476 C   0  0  0  0  0  0  0  0  0  0  0  0
   -2.8574    3.5547   -4.6098 C   0  0  0  0  0  0  0  0  0  0  0  0
   -2.3868    4.8600   -4.1144 C   0  0  0  0  0  0  0  0  0  0  0  0
   -0.9295    5.5850   -4.5418 S   0  0  0  0  0  0  0  0  0  0  0  0
   -1.1621    6.9863   -3.6364 C   0  0  0  0  0  0  0  0  0  0  0  0
   -0.2303    8.1594   -3.6301 C   0  0  0  0  0  0  0  0  0  0  0  0
   -0.5980    9.1382   -4.7379 C   0  0  0  0  0  0  0  0  0  0  0  0
   -2.3992    6.9091   -2.9983 C   0  0  0  0  0  0  0  0  0  0  0  0
   -3.0491    8.1842   -1.9757 Cl  0  0  0  0  0  0  0  0  0  0  0  0
   -3.0830    5.7138   -3.2616 C   0  0  0  0  0  0  0  0  0  0  0  0
   -4.6500    5.3230   -2.5669 Cl  0  0  0  0  0  0  0  0  0  0  0  0
   -2.2237    2.3616   -4.2300 C   0  0  0  0  0  0  0  0  0  0  0  0
   -2.7002    1.1007   -4.6055 C   0  0  0  0  0  0  0  0  0  0  0  0
   -3.8308    0.9861   -5.4421 C   0  0  0  0  0  0  0  0  0  0  0  0
   -4.3579   -0.3176   -5.8697 C   0  0  0  0  0  0  0  0  0  0  0  0
   -5.8274   -0.9684   -5.3715 S   0  0  0  0  0  0  0  0  0  0  0  0
   -5.7313   -2.3576   -6.3156 C   0  0  0  0  0  0  0  0  0  0  0  0
   -6.7559   -3.4507   -6.3255 C   0  0  0  0  0  0  0  0  0  0  0  0
   -6.3373   -4.5846   -5.3972 C   0  0  0  0  0  0  0  0  0  0  0  0
   -4.5344   -2.3332   -7.0305 C   0  0  0  0  0  0  0  0  0  0  0  0
   -3.7656   -1.1853   -6.7804 C   0  0  0  0  0  0  0  0  0  0  0  0
   -2.2339   -0.8549   -7.5760 Cl  0  0  0  0  0  0  0  0  0  0  0  0
   -4.0460   -3.5974   -8.1498 Cl  0  0  0  0  0  0  0  0  0  0  0  0
   -4.4409    2.1827   -5.8545 C   0  0  0  0  0  0  0  0  0  0  0  0
   -5.7561    2.3927   -6.8896 S   0  0  0  0  0  0  0  0  0  0  0  0
   -1.9688    0.0415   -4.0397 C   0  0  0  0  0  0  0  0  0  0  0  0
   -0.9081    0.4849   -3.2481 C   0  0  0  0  0  0  0  0  0  0  0  0
   -0.8889    2.1717   -3.2302 S   0  0  0  0  0  0  0  0  0  0  0  0
   -0.0088   -0.3559   -2.4469 C   0  0  0  0  0  0  0  0  0  0  0  0
    1.2296    0.0508   -1.9538 C   0  0  0  0  0  0  0  0  0  0  0  0
    1.7882   -0.8625   -1.0479 C   0  0  0  0  0  0  0  0  0  0  0  0
    2.9891   -0.6893   -0.3278 C   0  0  0  0  0  0  0  0  0  0  0  0
    3.9177    0.4233   -0.6144 C   0  0  0  0  0  0  0  0  0  0  0  0
    4.4647    1.5474    0.5156 S   0  0  0  0  0  0  0  0  0  0  0  0
    5.4881    2.3725   -0.5309 C   0  0  0  0  0  0  0  0  0  0  0  0
    6.3165    3.5633   -0.1521 C   0  0  0  0  0  0  0  0  0  0  0  0
    5.5661    4.8563   -0.4502 C   0  0  0  0  0  0  0  0  0  0  0  0
    5.4032    1.7902   -1.7945 C   0  0  0  0  0  0  0  0  0  0  0  0
    6.2956    2.3672   -3.1917 Cl  0  0  0  0  0  0  0  0  0  0  0  0
    4.5324    0.6896   -1.8387 C   0  0  0  0  0  0  0  0  0  0  0  0
    4.3056   -0.2968   -3.2783 Cl  0  0  0  0  0  0  0  0  0  0  0  0
    3.2589   -1.6299    0.6818 C   0  0  0  0  0  0  0  0  0  0  0  0
    2.4356   -2.7370    0.9216 C   0  0  0  0  0  0  0  0  0  0  0  0
    1.2723   -2.9413    0.1551 C   0  0  0  0  0  0  0  0  0  0  0  0
    0.3387   -4.0353    0.4529 C   0  0  0  0  0  0  0  0  0  0  0  0
    0.4314   -5.5840   -0.1866 S   0  0  0  0  0  0  0  0  0  0  0  0
   -0.8902   -6.1993    0.6563 C   0  0  0  0  0  0  0  0  0  0  0  0
   -1.3580   -7.6217    0.5870 C   0  0  0  0  0  0  0  0  0  0  0  0
   -0.8235   -8.4321    1.7613 C   0  0  0  0  0  0  0  0  0  0  0  0
   -1.4061   -5.1965    1.4752 C   0  0  0  0  0  0  0  0  0  0  0  0
   -0.7173   -3.9794    1.3564 C   0  0  0  0  0  0  0  0  0  0  0  0
   -1.1273   -2.5386    2.2759 Cl  0  0  0  0  0  0  0  0  0  0  0  0
   -2.7805   -5.4240    2.5506 Cl  0  0  0  0  0  0  0  0  0  0  0  0
    0.9705   -1.9746   -0.8180 C   0  0  0  0  0  0  0  0  0  0  0  0
   -0.4206   -1.8436   -1.7589 S   0  0  0  0  0  0  0  0  0  0  0  0
    2.8587   -3.5162    2.0117 C   0  0  0  0  0  0  0  0  0  0  0  0
    3.9899   -2.9981    2.6365 C   0  0  0  0  0  0  0  0  0  0  0  0
    4.4873   -1.6032    1.8308 S   0  0  0  0  0  0  0  0  0  0  0  0
    4.5622   -3.4832    3.8947 C   0  0  0  0  0  0  0  0  0  0  0  0
    5.0350   -2.6491    4.9205 C   0  0  0  0  0  0  0  0  0  0  0  0
    5.4347   -3.3966    6.0198 C   0  0  0  0  0  0  0  0  0  0  0  0
    5.3079   -4.7400    5.8494 C   0  0  0  0  0  0  0  0  0  0  0  0
    4.6469   -5.1269    4.3596 S   0  0  0  0  0  0  0  0  0  0  0  0
    5.6979   -5.3891    7.0645 C   0  0  0  0  0  0  0  0  0  0  0  0
    6.0680   -4.4342    7.9617 C   0  0  0  0  0  0  0  0  0  0  0  0
    5.9245   -3.0404    7.4007 C   0  0  0  0  0  0  0  0  0  0  0  0
    6.6907   -4.9370    9.0984 C   0  0  0  0  0  0  0  0  0  0  0  0
    6.8154   -6.3330    9.0272 C   0  0  0  0  0  0  0  0  0  0  0  0
    6.1805   -6.9149    7.5496 S   0  0  0  0  0  0  0  0  0  0  0  0
    7.4765   -7.1667   10.0389 C   0  0  0  0  0  0  0  0  0  0  0  0
    8.0133   -8.4434    9.8063 C   0  0  0  0  0  0  0  0  0  0  0  0
    8.6010   -8.9531   10.9585 C   0  0  0  0  0  0  0  0  0  0  0  0
    8.4940   -8.1321   12.0371 C   0  0  0  0  0  0  0  0  0  0  0  0
    7.7158   -6.7008   11.6658 S   0  0  0  0  0  0  0  0  0  0  0  0
    9.1297   -8.7609   13.1506 C   0  0  0  0  0  0  0  0  0  0  0  0
    9.6172   -9.9628   12.7501 C   0  0  0  0  0  0  0  0  0  0  0  0
    9.3474  -10.2258   11.2878 C   0  0  0  0  0  0  0  0  0  0  0  0
   10.1545  -10.7268   13.7813 C   0  0  0  0  0  0  0  0  0  0  0  0
   10.0335  -10.0612   15.0134 C   0  0  0  0  0  0  0  0  0  0  0  0
    9.2613   -8.5485   14.8025 S   0  0  0  0  0  0  0  0  0  0  0  0
   10.4458  -10.6065   16.3153 C   0  0  0  0  0  0  0  0  0  0  0  0
   10.0646  -10.0794   17.5602 C   0  0  0  0  0  0  0  0  0  0  0  0
   10.6168  -10.8176   18.6015 C   0  0  0  0  0  0  0  0  0  0  0  0
   11.3910  -11.8575   18.1936 C   0  0  0  0  0  0  0  0  0  0  0  0
   11.4642  -11.9673   16.5243 S   0  0  0  0  0  0  0  0  0  0  0  0
   11.9345  -12.4949   19.3529 C   0  0  0  0  0  0  0  0  0  0  0  0
   11.4856  -11.8406   20.4553 C   0  0  0  0  0  0  0  0  0  0  0  0
   10.5700  -10.6954   20.1044 C   0  0  0  0  0  0  0  0  0  0  0  0
   12.0202  -12.3157   21.6491 C   0  0  0  0  0  0  0  0  0  0  0  0
   12.9144  -13.3702   21.4179 C   0  0  0  0  0  0  0  0  0  0  0  0
   13.0372  -13.6891   19.7442 S   0  0  0  0  0  0  0  0  0  0  0  0
  -11.5494    9.5500  -12.0840 H   0  0  0  0  0  0  0  0  0  0  0  0
  -10.0612   10.2103  -10.0561 H   0  0  0  0  0  0  0  0  0  0  0  0
   -5.5123   12.4249   -6.6904 H   0  0  0  0  0  0  0  0  0  0  0  0
   -6.9021   13.1736   -5.8371 H   0  0  0  0  0  0  0  0  0  0  0  0
   -6.7676   11.4162   -4.0521 H   0  0  0  0  0  0  0  0  0  0  0  0
   -5.1985   12.2904   -4.2274 H   0  0  0  0  0  0  0  0  0  0  0  0
   -5.3828   10.6334   -4.9166 H   0  0  0  0  0  0  0  0  0  0  0  0
   -9.6460    2.3964  -14.7709 H   0  0  0  0  0  0  0  0  0  0  0  0
  -10.5065    1.0893  -13.8923 H   0  0  0  0  0  0  0  0  0  0  0  0
   -8.2975    0.3141  -14.7814 H   0  0  0  0  0  0  0  0  0  0  0  0
   -7.4497    1.5888  -13.8216 H   0  0  0  0  0  0  0  0  0  0  0  0
   -8.3341    0.2524  -12.9742 H   0  0  0  0  0  0  0  0  0  0  0  0
   -7.5416    3.6187   -9.0087 H   0  0  0  0  0  0  0  0  0  0  0  0
   -4.5044    5.5451   -5.7886 H   0  0  0  0  0  0  0  0  0  0  0  0
    0.8115    7.8052   -3.7842 H   0  0  0  0  0  0  0  0  0  0  0  0
   -0.2735    8.6744   -2.6460 H   0  0  0  0  0  0  0  0  0  0  0  0
   -0.5106    8.6484   -5.7303 H   0  0  0  0  0  0  0  0  0  0  0  0
   -1.6371    9.5091   -4.6010 H   0  0  0  0  0  0  0  0  0  0  0  0
    0.0925   10.0087   -4.7088 H   0  0  0  0  0  0  0  0  0  0  0  0
   -6.8833   -3.8389   -7.3574 H   0  0  0  0  0  0  0  0  0  0  0  0
   -7.7353   -3.0439   -5.9894 H   0  0  0  0  0  0  0  0  0  0  0  0
   -5.3877   -5.0406   -5.7485 H   0  0  0  0  0  0  0  0  0  0  0  0
   -6.1976   -4.2080   -4.3621 H   0  0  0  0  0  0  0  0  0  0  0  0
   -7.1247   -5.3681   -5.3885 H   0  0  0  0  0  0  0  0  0  0  0  0
   -2.2015   -1.0048   -4.1869 H   0  0  0  0  0  0  0  0  0  0  0  0
    1.6835    0.9998   -2.2092 H   0  0  0  0  0  0  0  0  0  0  0  0
    6.5576    3.5168    0.9315 H   0  0  0  0  0  0  0  0  0  0  0  0
    7.2742    3.5531   -0.7151 H   0  0  0  0  0  0  0  0  0  0  0  0
    5.3170    4.9150   -1.5306 H   0  0  0  0  0  0  0  0  0  0  0  0
    6.2072    5.7264   -0.1837 H   0  0  0  0  0  0  0  0  0  0  0  0
    4.6311    4.9050    0.1465 H   0  0  0  0  0  0  0  0  0  0  0  0
   -1.0085   -8.0787   -0.3642 H   0  0  0  0  0  0  0  0  0  0  0  0
   -2.4697   -7.6493    0.5944 H   0  0  0  0  0  0  0  0  0  0  0  0
   -1.1420   -9.4896    1.6579 H   0  0  0  0  0  0  0  0  0  0  0  0
    0.2854   -8.3952    1.7887 H   0  0  0  0  0  0  0  0  0  0  0  0
   -1.2219   -8.0373    2.7186 H   0  0  0  0  0  0  0  0  0  0  0  0
    2.3229   -4.3842    2.3766 H   0  0  0  0  0  0  0  0  0  0  0  0
    5.0439   -1.5681    4.8816 H   0  0  0  0  0  0  0  0  0  0  0  0
    6.9045   -2.5180    7.3526 H   0  0  0  0  0  0  0  0  0  0  0  0
    5.1610   -2.4590    7.9605 H   0  0  0  0  0  0  0  0  0  0  0  0
    7.0895   -4.3172    9.8939 H   0  0  0  0  0  0  0  0  0  0  0  0
    8.0100   -8.9522    8.8504 H   0  0  0  0  0  0  0  0  0  0  0  0
   10.2908  -10.2992   10.7065 H   0  0  0  0  0  0  0  0  0  0  0  0
    8.6956  -11.1138   11.1508 H   0  0  0  0  0  0  0  0  0  0  0  0
   10.5664  -11.7196   13.6519 H   0  0  0  0  0  0  0  0  0  0  0  0
    9.4279   -9.2159   17.7024 H   0  0  0  0  0  0  0  0  0  0  0  0
   10.9905   -9.7261   20.4424 H   0  0  0  0  0  0  0  0  0  0  0  0
    9.5445  -10.8708   20.4899 H   0  0  0  0  0  0  0  0  0  0  0  0
   11.7914  -11.9080   22.6244 H   0  0  0  0  0  0  0  0  0  0  0  0
   13.4589  -13.8929   22.1917 H   0  0  0  0  0  0  0  0  0  0  0  0
  1  2  2  0
  2  3  1  0
  3  4  2  0
  4  5  1  0
  5  6  1  0
  6  7  1  0
  7  8  1  0
  8  9  1  0
  7 10  2  0
 10 11  1  0
 10 12  1  0
 12 13  1  0
  4 14  1  0
 14 15  2  0
 15 16  1  0
 16 17  1  0
 17 18  1  0
 18 19  1  0
 19 20  1  0
 20 21  1  0
 19 22  2  0
 22 23  1  0
 23 24  1  0
 22 25  1  0
 16 26  2  0
 26 27  1  0
 15 28  1  0
 28 29  2  0
 29 30  1  0
 29 31  1  0
 31 32  2  0
 32 33  1  0
 33 34  2  0
 34 35  1  0
 35 36  1  0
 36 37  1  0
 37 38  1  0
 38 39  1  0
 37 40  2  0
 40 41  1  0
 40 42  1  0
 42 43  1  0
 34 44  1  0
 44 45  2  0
 45 46  1  0
 46 47  1  0
 47 48  1  0
 48 49  1  0
 49 50  1  0
 50 51  1  0
 49 52  2  0
 52 53  1  0
 53 54  1  0
 52 55  1  0
 46 56  2  0
 56 57  1  0
 45 58  1  0
 58 59  2  0
 59 60  1  0
 59 61  1  0
 61 62  2  0
 62 63  1  0
 63 64  2  0
 64 65  1  0
 65 66  1  0
 66 67  1  0
 67 68  1  0
 68 69  1  0
 67 70  2  0
 70 71  1  0
 70 72  1  0
 72 73  1  0
 64 74  1  0
 74 75  2  0
 75 76  1  0
 76 77  1  0
 77 78  1  0
 78 79  1  0
 79 80  1  0
 80 81  1  0
 79 82  2  0
 82 83  1  0
 83 84  1  0
 82 85  1  0
 76 86  2  0
 86 87  1  0
 75 88  1  0
 88 89  2  0
 89 90  1  0
 89 91  1  0
 91 92  2  0
 92 93  1  0
 93 94  2  0
 94 95  1  0
 94 96  1  0
 96 97  2  0
 97 98  1  0
 97 99  1  0
 99100  2  0
100101  1  0
100102  1  0
102103  2  0
103104  1  0
104105  2  0
105106  1  0
105107  1  0
107108  2  0
108109  1  0
108110  1  0
110111  2  0
111112  1  0
111113  1  0
113114  2  0
114115  1  0
115116  2  0
116117  1  0
116118  1  0
118119  2  0
119120  1  0
119121  1  0
121122  2  0
122123  1  0
 27  1  1  0
 57 31  1  0
 87 61  1  0
 95 91  1  0
101 96  1  0
106102  1  0
112107  1  0
117113  1  0
123118  1  0
 26  3  1  0
 56 33  1  0
 86 63  1  0
 98 93  1  0
109104  1  0
120115  1  0
 12  5  2  0
 30 14  1  0
 42 35  2  0
 60 44  1  0
 72 65  2  0
 90 74  1  0
 23 17  2  0
 53 47  2  0
 83 77  2  0
  1124  1  0
  2125  1  0
  8126  1  0
  8127  1  0
  9128  1  0
  9129  1  0
  9130  1  0
 20131  1  0
 20132  1  0
 21133  1  0
 21134  1  0
 21135  1  0
 28136  1  0
 32137  1  0
 38138  1  0
 38139  1  0
 39140  1  0
 39141  1  0
 39142  1  0
 50143  1  0
 50144  1  0
 51145  1  0
 51146  1  0
 51147  1  0
 58148  1  0
 62149  1  0
 68150  1  0
 68151  1  0
 69152  1  0
 69153  1  0
 69154  1  0
 80155  1  0
 80156  1  0
 81157  1  0
 81158  1  0
 81159  1  0
 88160  1  0
 92161  1  0
 98162  1  0
 98163  1  0
 99164  1  0
103165  1  0
109166  1  0
109167  1  0
110168  1  0
114169  1  0
120170  1  0
120171  1  0
121172  1  0
122173  1  0
M  END

