
     RDKit          3D

172189  0  0  0  0  0  0  0  0999 V2000
   -0.4230    7.8308    5.1394 C   0  0  0  0  0  0  0  0  0  0  0  0
    0.2752    7.9638    3.9317 C   0  0  0  0  0  0  0  0  0  0  0  0
    0.4956    6.7245    3.3337 C   0  0  0  0  0  0  0  0  0  0  0  0
    0.0079    5.6771    4.0491 C   0  0  0  0  0  0  0  0  0  0  0  0
   -0.7854    6.1896    5.4305 S   0  0  0  0  0  0  0  0  0  0  0  0
    0.1297    4.4852    3.2664 C   0  0  0  0  0  0  0  0  0  0  0  0
    0.6781    4.8114    2.0606 C   0  0  0  0  0  0  0  0  0  0  0  0
    1.0198    6.2945    1.9720 C   0  0  0  0  0  0  0  0  0  0  0  0
    2.5503    6.5350    1.9290 C   0  0  0  0  0  0  0  0  0  0  0  0
    3.2443    5.9679    0.6881 C   0  0  0  0  0  0  0  0  0  0  0  0
    0.2678    7.0069    0.8135 C   0  0  0  0  0  0  0  0  0  0  0  0
   -1.2612    6.9118    0.8956 C   0  0  0  0  0  0  0  0  0  0  0  0
    0.5286    3.8165    1.0919 C   0  0  0  0  0  0  0  0  0  0  0  0
   -0.1562    2.7034    1.5989 C   0  0  0  0  0  0  0  0  0  0  0  0
   -0.6236    2.9934    3.2168 S   0  0  0  0  0  0  0  0  0  0  0  0
   -0.5065    1.5183    0.7965 C   0  0  0  0  0  0  0  0  0  0  0  0
   -1.1965    0.4918    1.3054 C   0  0  0  0  0  0  0  0  0  0  0  0
   -1.5237   -0.7135    0.5237 C   0  0  0  0  0  0  0  0  0  0  0  0
   -2.0792   -1.8693    1.0845 C   0  0  0  0  0  0  0  0  0  0  0  0
   -2.1826   -2.9008    0.1468 C   0  0  0  0  0  0  0  0  0  0  0  0
   -1.7238   -2.5522   -1.0901 C   0  0  0  0  0  0  0  0  0  0  0  0
   -1.1164   -0.9942   -1.1100 S   0  0  0  0  0  0  0  0  0  0  0  0
   -1.4891   -3.7478   -1.8358 C   0  0  0  0  0  0  0  0  0  0  0  0
   -1.8419   -4.8194   -1.0746 C   0  0  0  0  0  0  0  0  0  0  0  0
   -2.3313   -4.4122    0.3080 C   0  0  0  0  0  0  0  0  0  0  0  0
   -3.8144   -4.8210    0.4902 C   0  0  0  0  0  0  0  0  0  0  0  0
   -4.4353   -4.3517    1.8092 C   0  0  0  0  0  0  0  0  0  0  0  0
   -1.3699   -4.9072    1.4259 C   0  0  0  0  0  0  0  0  0  0  0  0
   -1.4432   -6.4010    1.7536 C   0  0  0  0  0  0  0  0  0  0  0  0
   -1.5311   -6.0405   -1.6668 C   0  0  0  0  0  0  0  0  0  0  0  0
   -0.8223   -5.8614   -2.8632 C   0  0  0  0  0  0  0  0  0  0  0  0
   -0.6615   -4.2016   -3.2193 S   0  0  0  0  0  0  0  0  0  0  0  0
   -0.2577   -6.9409   -3.6899 C   0  0  0  0  0  0  0  0  0  0  0  0
    0.3183   -8.0486   -3.1977 C   0  0  0  0  0  0  0  0  0  0  0  0
    0.6625   -8.2548   -1.7770 C   0  0  0  0  0  0  0  0  0  0  0  0
    0.5641   -9.4879   -1.1169 C   0  0  0  0  0  0  0  0  0  0  0  0
    1.0166   -9.3909    0.1979 C   0  0  0  0  0  0  0  0  0  0  0  0
    1.4698   -8.1545    0.5373 C   0  0  0  0  0  0  0  0  0  0  0  0
    1.3910   -7.0902   -0.7505 S   0  0  0  0  0  0  0  0  0  0  0  0
    2.0308   -8.2120    1.8571 C   0  0  0  0  0  0  0  0  0  0  0  0
    1.9379   -9.4910    2.3131 C   0  0  0  0  0  0  0  0  0  0  0  0
    1.2688  -10.4075    1.2995 C   0  0  0  0  0  0  0  0  0  0  0  0
   -0.0465  -11.0124    1.8512 C   0  0  0  0  0  0  0  0  0  0  0  0
   -1.0836   -9.9761    2.2922 C   0  0  0  0  0  0  0  0  0  0  0  0
    2.2232  -11.5372    0.8290 C   0  0  0  0  0  0  0  0  0  0  0  0
    3.5615  -11.0487    0.2615 C   0  0  0  0  0  0  0  0  0  0  0  0
    2.6650   -9.7297    3.4797 C   0  0  0  0  0  0  0  0  0  0  0  0
    3.3339   -8.5767    3.9194 C   0  0  0  0  0  0  0  0  0  0  0  0
    3.0587   -7.2998    2.8093 S   0  0  0  0  0  0  0  0  0  0  0  0
    4.3156   -8.5923    5.0286 C   0  0  0  0  0  0  0  0  0  0  0  0
    4.8290   -7.5168    5.6443 C   0  0  0  0  0  0  0  0  0  0  0  0
    4.3636   -6.1443    5.4311 C   0  0  0  0  0  0  0  0  0  0  0  0
    3.0894   -5.6744    5.7657 C   0  0  0  0  0  0  0  0  0  0  0  0
    2.8975   -4.3695    5.3094 C   0  0  0  0  0  0  0  0  0  0  0  0
    4.0042   -3.8393    4.7110 C   0  0  0  0  0  0  0  0  0  0  0  0
    5.2448   -4.9584    4.5911 S   0  0  0  0  0  0  0  0  0  0  0  0
    3.6314   -2.6544    4.0018 C   0  0  0  0  0  0  0  0  0  0  0  0
    2.2831   -2.4788    4.1514 C   0  0  0  0  0  0  0  0  0  0  0  0
    1.6657   -3.4937    5.1129 C   0  0  0  0  0  0  0  0  0  0  0  0
    0.4915   -4.2419    4.4150 C   0  0  0  0  0  0  0  0  0  0  0  0
   -0.2760   -5.2504    5.2746 C   0  0  0  0  0  0  0  0  0  0  0  0
    1.2974   -2.8058    6.4526 C   0  0  0  0  0  0  0  0  0  0  0  0
    0.1436   -1.8033    6.3432 C   0  0  0  0  0  0  0  0  0  0  0  0
    1.7080   -1.7231    3.1245 C   0  0  0  0  0  0  0  0  0  0  0  0
    2.6603   -1.3145    2.1859 C   0  0  0  0  0  0  0  0  0  0  0  0
    4.1818   -1.9575    2.5811 S   0  0  0  0  0  0  0  0  0  0  0  0
    2.3265   -0.6987    0.9007 C   0  0  0  0  0  0  0  0  0  0  0  0
    3.1517    0.1434    0.2784 C   0  0  0  0  0  0  0  0  0  0  0  0
    2.7992    0.7169   -1.0254 C   0  0  0  0  0  0  0  0  0  0  0  0
    2.1374    0.0344   -2.0581 C   0  0  0  0  0  0  0  0  0  0  0  0
    1.8779    0.8778   -3.1308 C   0  0  0  0  0  0  0  0  0  0  0  0
    2.3035    2.1572   -2.9426 C   0  0  0  0  0  0  0  0  0  0  0  0
    2.9996    2.3581   -1.4311 S   0  0  0  0  0  0  0  0  0  0  0  0
    1.6650    2.9937   -3.9177 C   0  0  0  0  0  0  0  0  0  0  0  0
    0.8713    2.2053   -4.6987 C   0  0  0  0  0  0  0  0  0  0  0  0
    0.9433    0.7540   -4.3025 C   0  0  0  0  0  0  0  0  0  0  0  0
   -0.0810    2.9061   -5.4307 C   0  0  0  0  0  0  0  0  0  0  0  0
   -0.0090    4.2827   -5.1777 C   0  0  0  0  0  0  0  0  0  0  0  0
    1.1854    4.5977   -3.9990 S   0  0  0  0  0  0  0  0  0  0  0  0
   -0.9011    5.2897   -5.7729 C   0  0  0  0  0  0  0  0  0  0  0  0
   -0.9970    6.6311   -5.3694 C   0  0  0  0  0  0  0  0  0  0  0  0
   -1.9358    7.3221   -6.1361 C   0  0  0  0  0  0  0  0  0  0  0  0
   -2.5425    6.5467   -7.0760 C   0  0  0  0  0  0  0  0  0  0  0  0
   -2.0063    4.9673   -7.0351 S   0  0  0  0  0  0  0  0  0  0  0  0
   -3.6084    7.2886   -7.6689 C   0  0  0  0  0  0  0  0  0  0  0  0
   -3.6476    8.5230   -7.1058 C   0  0  0  0  0  0  0  0  0  0  0  0
   -2.5663    8.7076   -6.0501 C   0  0  0  0  0  0  0  0  0  0  0  0
   -3.1705    8.9957   -4.6493 C   0  0  0  0  0  0  0  0  0  0  0  0
   -4.2552    8.0029   -4.2133 C   0  0  0  0  0  0  0  0  0  0  0  0
   -1.5949    9.8204   -6.5230 C   0  0  0  0  0  0  0  0  0  0  0  0
   -0.3647   10.0189   -5.6347 C   0  0  0  0  0  0  0  0  0  0  0  0
   -4.6559    9.3394   -7.6166 C   0  0  0  0  0  0  0  0  0  0  0  0
   -5.4029    8.6657   -8.6039 C   0  0  0  0  0  0  0  0  0  0  0  0
   -4.8044    7.0811   -8.8166 S   0  0  0  0  0  0  0  0  0  0  0  0
   -6.5363    9.2005   -9.3786 C   0  0  0  0  0  0  0  0  0  0  0  0
   -6.9723   10.4541   -9.2708 C   0  0  0  0  0  0  0  0  0  0  0  0
   -0.7278    8.6557    5.7699 H   0  0  0  0  0  0  0  0  0  0  0  0
    0.5661    8.9110    3.4960 H   0  0  0  0  0  0  0  0  0  0  0  0
    2.7508    7.6278    1.9760 H   0  0  0  0  0  0  0  0  0  0  0  0
    3.0256    6.0763    2.8247 H   0  0  0  0  0  0  0  0  0  0  0  0
    2.8616    6.4430   -0.2374 H   0  0  0  0  0  0  0  0  0  0  0  0
    4.3317    6.1786    0.7513 H   0  0  0  0  0  0  0  0  0  0  0  0
    3.1115    4.8690    0.6292 H   0  0  0  0  0  0  0  0  0  0  0  0
    0.5749    6.5631   -0.1568 H   0  0  0  0  0  0  0  0  0  0  0  0
    0.5520    8.0812    0.7953 H   0  0  0  0  0  0  0  0  0  0  0  0
   -1.7072    7.4021    0.0046 H   0  0  0  0  0  0  0  0  0  0  0  0
   -1.6435    7.4306    1.7988 H   0  0  0  0  0  0  0  0  0  0  0  0
   -1.5938    5.8529    0.9123 H   0  0  0  0  0  0  0  0  0  0  0  0
    0.8258    3.9293    0.0572 H   0  0  0  0  0  0  0  0  0  0  0  0
   -0.1754    1.4913   -0.2347 H   0  0  0  0  0  0  0  0  0  0  0  0
   -1.5119    0.5117    2.3404 H   0  0  0  0  0  0  0  0  0  0  0  0
   -2.3027   -1.9822    2.1377 H   0  0  0  0  0  0  0  0  0  0  0  0
   -3.9055   -5.9260    0.4248 H   0  0  0  0  0  0  0  0  0  0  0  0
   -4.4184   -4.3982   -0.3437 H   0  0  0  0  0  0  0  0  0  0  0  0
   -4.4249   -3.2444    1.8781 H   0  0  0  0  0  0  0  0  0  0  0  0
   -3.9019   -4.7825    2.6803 H   0  0  0  0  0  0  0  0  0  0  0  0
   -5.4917   -4.6883    1.8532 H   0  0  0  0  0  0  0  0  0  0  0  0
   -1.5916   -4.3547    2.3595 H   0  0  0  0  0  0  0  0  0  0  0  0
   -0.3200   -4.6616    1.1476 H   0  0  0  0  0  0  0  0  0  0  0  0
   -0.6783   -6.6422    2.5193 H   0  0  0  0  0  0  0  0  0  0  0  0
   -2.4360   -6.6749    2.1622 H   0  0  0  0  0  0  0  0  0  0  0  0
   -1.2216   -7.0189    0.8699 H   0  0  0  0  0  0  0  0  0  0  0  0
   -1.7784   -7.0044   -1.2476 H   0  0  0  0  0  0  0  0  0  0  0  0
   -0.3422   -6.8396   -4.7634 H   0  0  0  0  0  0  0  0  0  0  0  0
    0.5791   -8.8400   -3.8899 H   0  0  0  0  0  0  0  0  0  0  0  0
    0.2059  -10.4021   -1.5707 H   0  0  0  0  0  0  0  0  0  0  0  0
    0.1889  -11.6626    2.7220 H   0  0  0  0  0  0  0  0  0  0  0  0
   -0.5096  -11.6547    1.0703 H   0  0  0  0  0  0  0  0  0  0  0  0
   -1.4310   -9.3800    1.4245 H   0  0  0  0  0  0  0  0  0  0  0  0
   -1.9651  -10.4979    2.7206 H   0  0  0  0  0  0  0  0  0  0  0  0
   -0.6691   -9.2991    3.0682 H   0  0  0  0  0  0  0  0  0  0  0  0
    2.4364  -12.2175    1.6834 H   0  0  0  0  0  0  0  0  0  0  0  0
    1.7161  -12.1390    0.0428 H   0  0  0  0  0  0  0  0  0  0  0  0
    3.4042  -10.4123   -0.6336 H   0  0  0  0  0  0  0  0  0  0  0  0
    4.1332  -10.4770    1.0214 H   0  0  0  0  0  0  0  0  0  0  0  0
    4.1723  -11.9243   -0.0409 H   0  0  0  0  0  0  0  0  0  0  0  0
    2.7658  -10.7049    3.9371 H   0  0  0  0  0  0  0  0  0  0  0  0
    4.6784   -9.5629    5.3439 H   0  0  0  0  0  0  0  0  0  0  0  0
    5.6207   -7.6643    6.3664 H   0  0  0  0  0  0  0  0  0  0  0  0
    2.3466   -6.2736    6.2663 H   0  0  0  0  0  0  0  0  0  0  0  0
   -0.2461   -3.4912    4.0636 H   0  0  0  0  0  0  0  0  0  0  0  0
    0.8770   -4.7676    3.5133 H   0  0  0  0  0  0  0  0  0  0  0  0
   -1.1823   -5.5775    4.7255 H   0  0  0  0  0  0  0  0  0  0  0  0
   -0.6110   -4.8068    6.2327 H   0  0  0  0  0  0  0  0  0  0  0  0
    0.3261   -6.1560    5.4617 H   0  0  0  0  0  0  0  0  0  0  0  0
    2.1863   -2.2592    6.8428 H   0  0  0  0  0  0  0  0  0  0  0  0
    1.0432   -3.5692    7.2171 H   0  0  0  0  0  0  0  0  0  0  0  0
    0.3749   -1.0188    5.5926 H   0  0  0  0  0  0  0  0  0  0  0  0
   -0.0034   -1.3071    7.3267 H   0  0  0  0  0  0  0  0  0  0  0  0
   -0.8026   -2.3137    6.0682 H   0  0  0  0  0  0  0  0  0  0  0  0
    0.6441   -1.5663    3.0068 H   0  0  0  0  0  0  0  0  0  0  0  0
    1.3594   -0.9235    0.4740 H   0  0  0  0  0  0  0  0  0  0  0  0
    4.0660    0.4660    0.7585 H   0  0  0  0  0  0  0  0  0  0  0  0
    1.8132   -0.9972   -2.0063 H   0  0  0  0  0  0  0  0  0  0  0  0
    1.3872    0.1358   -5.1091 H   0  0  0  0  0  0  0  0  0  0  0  0
   -0.0496    0.3764   -3.9792 H   0  0  0  0  0  0  0  0  0  0  0  0
   -0.8376    2.4336   -6.0446 H   0  0  0  0  0  0  0  0  0  0  0  0
   -0.4508    7.0614   -4.5407 H   0  0  0  0  0  0  0  0  0  0  0  0
   -3.6085   10.0180   -4.6394 H   0  0  0  0  0  0  0  0  0  0  0  0
   -2.3676    8.9678   -3.8834 H   0  0  0  0  0  0  0  0  0  0  0  0
   -5.1366    8.0623   -4.8842 H   0  0  0  0  0  0  0  0  0  0  0  0
   -4.5892    8.2524   -3.1842 H   0  0  0  0  0  0  0  0  0  0  0  0
   -3.8637    6.9645   -4.2090 H   0  0  0  0  0  0  0  0  0  0  0  0
   -2.1460   10.7859   -6.5755 H   0  0  0  0  0  0  0  0  0  0  0  0
   -1.2402    9.5902   -7.5527 H   0  0  0  0  0  0  0  0  0  0  0  0
    0.2583    9.1034   -5.6094 H   0  0  0  0  0  0  0  0  0  0  0  0
    0.2568   10.8375   -6.0534 H   0  0  0  0  0  0  0  0  0  0  0  0
   -0.6551   10.3091   -4.6048 H   0  0  0  0  0  0  0  0  0  0  0  0
   -4.8257   10.3538   -7.2823 H   0  0  0  0  0  0  0  0  0  0  0  0
   -7.0326    8.5407  -10.0792 H   0  0  0  0  0  0  0  0  0  0  0  0
   -6.5161   11.1680   -8.6004 H   0  0  0  0  0  0  0  0  0  0  0  0
   -7.8074   10.7849   -9.8749 H   0  0  0  0  0  0  0  0  0  0  0  0
  1  2  2  0
  2  3  1  0
  3  4  2  0
  4  5  1  0
  4  6  1  0
  6  7  2  0
  7  8  1  0
  8  9  1  0
  9 10  1  0
  8 11  1  0
 11 12  1  0
  7 13  1  0
 13 14  2  0
 14 15  1  0
 14 16  1  0
 16 17  2  3
 17 18  1  0
 18 19  2  0
 19 20  1  0
 20 21  2  0
 21 22  1  0
 21 23  1  0
 23 24  2  0
 24 25  1  0
 25 26  1  0
 26 27  1  0
 25 28  1  0
 28 29  1  0
 24 30  1  0
 30 31  2  0
 31 32  1  0
 31 33  1  0
 33 34  2  3
 34 35  1  0
 35 36  2  0
 36 37  1  0
 37 38  2  0
 38 39  1  0
 38 40  1  0
 40 41  2  0
 41 42  1  0
 42 43  1  0
 43 44  1  0
 42 45  1  0
 45 46  1  0
 41 47  1  0
 47 48  2  0
 48 49  1  0
 48 50  1  0
 50 51  2  3
 51 52  1  0
 52 53  2  0
 53 54  1  0
 54 55  2  0
 55 56  1  0
 55 57  1  0
 57 58  2  0
 58 59  1  0
 59 60  1  0
 60 61  1  0
 59 62  1  0
 62 63  1  0
 58 64  1  0
 64 65  2  0
 65 66  1  0
 65 67  1  0
 67 68  2  3
 68 69  1  0
 69 70  2  0
 70 71  1  0
 71 72  2  0
 72 73  1  0
 72 74  1  0
 74 75  2  0
 75 76  1  0
 75 77  1  0
 77 78  2  0
 78 79  1  0
 78 80  1  0
 80 81  2  0
 81 82  1  0
 82 83  2  0
 83 84  1  0
 83 85  1  0
 85 86  2  0
 86 87  1  0
 87 88  1  0
 88 89  1  0
 87 90  1  0
 90 91  1  0
 86 92  1  0
 92 93  2  0
 93 94  1  0
 93 95  1  0
 95 96  2  3
  5  1  1  0
 15  6  1  0
 22 18  1  0
 32 23  1  0
 39 35  1  0
 49 40  1  0
 56 52  1  0
 66 57  1  0
 73 69  1  0
 79 74  1  0
 84 80  1  0
 94 85  1  0
  8  3  1  0
 25 20  1  0
 42 37  1  0
 59 54  1  0
 76 71  1  0
 87 82  1  0
  1 97  1  0
  2 98  1  0
  9 99  1  0
  9100  1  0
 10101  1  0
 10102  1  0
 10103  1  0
 11104  1  0
 11105  1  0
 12106  1  0
 12107  1  0
 12108  1  0
 13109  1  0
 16110  1  0
 17111  1  0
 19112  1  0
 26113  1  0
 26114  1  0
 27115  1  0
 27116  1  0
 27117  1  0
 28118  1  0
 28119  1  0
 29120  1  0
 29121  1  0
 29122  1  0
 30123  1  0
 33124  1  0
 34125  1  0
 36126  1  0
 43127  1  0
 43128  1  0
 44129  1  0
 44130  1  0
 44131  1  0
 45132  1  0
 45133  1  0
 46134  1  0
 46135  1  0
 46136  1  0
 47137  1  0
 50138  1  0
 51139  1  0
 53140  1  0
 60141  1  0
 60142  1  0
 61143  1  0
 61144  1  0
 61145  1  0
 62146  1  0
 62147  1  0
 63148  1  0
 63149  1  0
 63150  1  0
 64151  1  0
 67152  1  0
 68153  1  0
 70154  1  0
 76155  1  0
 76156  1  0
 77157  1  0
 81158  1  0
 88159  1  0
 88160  1  0
 89161  1  0
 89162  1  0
 89163  1  0
 90164  1  0
 90165  1  0
 91166  1  0
 91167  1  0
 91168  1  0
 92169  1  0
 95170  1  0
 96171  1  0
 96172  1  0
M  END

