
     RDKit          3D

227254  0  0  0  0  0  0  0  0999 V2000
    0.7180   -7.6330   12.1998 C   0  0  0  0  0  0  0  0  0  0  0  0
    1.1302   -8.4953   11.1876 C   0  0  0  0  0  0  0  0  0  0  0  0
    0.5617   -8.1934    9.9386 C   0  0  0  0  0  0  0  0  0  0  0  0
    0.7906   -8.8775    8.7255 C   0  0  0  0  0  0  0  0  0  0  0  0
    1.6801  -10.0498    8.6476 C   0  0  0  0  0  0  0  0  0  0  0  0
    3.1371  -10.0940    7.8074 S   0  0  0  0  0  0  0  0  0  0  0  0
    3.5536  -11.6619    8.2566 C   0  0  0  0  0  0  0  0  0  0  0  0
    4.7918  -12.3790    7.8098 C   0  0  0  0  0  0  0  0  0  0  0  0
    4.5243  -13.1881    6.5448 C   0  0  0  0  0  0  0  0  0  0  0  0
    2.5358  -12.1839    9.0552 C   0  0  0  0  0  0  0  0  0  0  0  0
    2.5552  -13.8157    9.7100 Cl  0  0  0  0  0  0  0  0  0  0  0  0
    1.4887  -11.2768    9.2800 C   0  0  0  0  0  0  0  0  0  0  0  0
    0.0604  -11.6684   10.2287 Cl  0  0  0  0  0  0  0  0  0  0  0  0
    0.1444   -8.3782    7.5826 C   0  0  0  0  0  0  0  0  0  0  0  0
   -0.6934   -7.2591    7.6219 C   0  0  0  0  0  0  0  0  0  0  0  0
   -0.9307   -6.5823    8.8349 C   0  0  0  0  0  0  0  0  0  0  0  0
   -1.8504   -5.4321    8.9181 C   0  0  0  0  0  0  0  0  0  0  0  0
   -3.2937   -5.4289    9.7816 S   0  0  0  0  0  0  0  0  0  0  0  0
   -3.7686   -3.8801    9.3322 C   0  0  0  0  0  0  0  0  0  0  0  0
   -5.0101   -3.1989    9.8208 C   0  0  0  0  0  0  0  0  0  0  0  0
   -4.7280   -2.4209   11.1014 C   0  0  0  0  0  0  0  0  0  0  0  0
   -2.7854   -3.3307    8.5093 C   0  0  0  0  0  0  0  0  0  0  0  0
   -1.7120   -4.2040    8.2694 C   0  0  0  0  0  0  0  0  0  0  0  0
   -0.3152   -3.7688    7.2923 Cl  0  0  0  0  0  0  0  0  0  0  0  0
   -2.8755   -1.7064    7.8401 Cl  0  0  0  0  0  0  0  0  0  0  0  0
   -0.2869   -7.0835    9.9787 C   0  0  0  0  0  0  0  0  0  0  0  0
   -0.3347   -6.4862   11.5512 S   0  0  0  0  0  0  0  0  0  0  0  0
   -1.2650   -6.9530    6.3777 C   0  0  0  0  0  0  0  0  0  0  0  0
   -0.8790   -7.8357    5.3719 C   0  0  0  0  0  0  0  0  0  0  0  0
    0.1620   -8.9980    6.0173 S   0  0  0  0  0  0  0  0  0  0  0  0
   -1.3053   -7.7672    3.9676 C   0  0  0  0  0  0  0  0  0  0  0  0
   -1.7513   -6.6192    3.3133 C   0  0  0  0  0  0  0  0  0  0  0  0
   -2.0537   -6.8458    1.9628 C   0  0  0  0  0  0  0  0  0  0  0  0
   -2.4652   -5.8762    1.0273 C   0  0  0  0  0  0  0  0  0  0  0  0
   -2.6644   -4.4717    1.4129 C   0  0  0  0  0  0  0  0  0  0  0  0
   -3.9303   -3.9080    2.3672 S   0  0  0  0  0  0  0  0  0  0  0  0
   -3.4167   -2.3075    2.4186 C   0  0  0  0  0  0  0  0  0  0  0  0
   -4.1677   -1.1911    3.0782 C   0  0  0  0  0  0  0  0  0  0  0  0
   -4.9810   -0.4060    2.0523 C   0  0  0  0  0  0  0  0  0  0  0  0
   -2.2397   -2.1934    1.6771 C   0  0  0  0  0  0  0  0  0  0  0  0
   -1.3469   -0.6902    1.5037 Cl  0  0  0  0  0  0  0  0  0  0  0  0
   -1.8179   -3.4078    1.1158 C   0  0  0  0  0  0  0  0  0  0  0  0
   -0.3449   -3.5758    0.1677 Cl  0  0  0  0  0  0  0  0  0  0  0  0
   -2.6618   -6.3094   -0.2937 C   0  0  0  0  0  0  0  0  0  0  0  0
   -2.4847   -7.6442   -0.6855 C   0  0  0  0  0  0  0  0  0  0  0  0
   -2.0976   -8.6184    0.2584 C   0  0  0  0  0  0  0  0  0  0  0  0
   -1.9790  -10.0426   -0.0930 C   0  0  0  0  0  0  0  0  0  0  0  0
   -0.8168  -10.6941   -1.1190 S   0  0  0  0  0  0  0  0  0  0  0  0
   -1.3284  -12.2909   -0.9715 C   0  0  0  0  0  0  0  0  0  0  0  0
   -0.7363  -13.4441   -1.7219 C   0  0  0  0  0  0  0  0  0  0  0  0
   -1.3578  -13.5567   -3.1080 C   0  0  0  0  0  0  0  0  0  0  0  0
   -2.4367  -12.3317   -0.1248 C   0  0  0  0  0  0  0  0  0  0  0  0
   -2.7941  -11.0712    0.3755 C   0  0  0  0  0  0  0  0  0  0  0  0
   -4.1737  -10.8085    1.4364 Cl  0  0  0  0  0  0  0  0  0  0  0  0
   -3.3183  -13.8014    0.2610 Cl  0  0  0  0  0  0  0  0  0  0  0  0
   -1.8697   -8.1761    1.5725 C   0  0  0  0  0  0  0  0  0  0  0  0
   -1.2977   -9.0615    2.8837 S   0  0  0  0  0  0  0  0  0  0  0  0
   -2.7536   -7.8578   -2.0476 C   0  0  0  0  0  0  0  0  0  0  0  0
   -3.1350   -6.6934   -2.7066 C   0  0  0  0  0  0  0  0  0  0  0  0
   -3.1565   -5.4025   -1.6232 S   0  0  0  0  0  0  0  0  0  0  0  0
   -3.4620   -6.5918   -4.1273 C   0  0  0  0  0  0  0  0  0  0  0  0
   -4.7561   -6.4350   -4.6293 C   0  0  0  0  0  0  0  0  0  0  0  0
   -4.7441   -6.1306   -5.9922 C   0  0  0  0  0  0  0  0  0  0  0  0
   -3.4891   -6.0363   -6.5373 C   0  0  0  0  0  0  0  0  0  0  0  0
   -2.3292   -6.2386   -5.3398 S   0  0  0  0  0  0  0  0  0  0  0  0
   -3.5522   -5.1444   -7.6709 C   0  0  0  0  0  0  0  0  0  0  0  0
   -4.8484   -4.7099   -7.7974 C   0  0  0  0  0  0  0  0  0  0  0  0
   -5.7585   -5.3690   -6.7961 C   0  0  0  0  0  0  0  0  0  0  0  0
   -4.9712   -3.4317   -8.3476 C   0  0  0  0  0  0  0  0  0  0  0  0
   -3.7285   -2.8635   -8.6473 C   0  0  0  0  0  0  0  0  0  0  0  0
   -2.5006   -3.9318   -8.1587 S   0  0  0  0  0  0  0  0  0  0  0  0
   -3.5098   -1.4321   -8.9128 C   0  0  0  0  0  0  0  0  0  0  0  0
   -2.2651   -0.8202   -9.0857 C   0  0  0  0  0  0  0  0  0  0  0  0
   -2.3154    0.5783   -8.9485 C   0  0  0  0  0  0  0  0  0  0  0  0
   -1.2136    1.4597   -8.9428 C   0  0  0  0  0  0  0  0  0  0  0  0
    0.1674    1.0080   -9.1950 C   0  0  0  0  0  0  0  0  0  0  0  0
    1.0378   -0.0473   -8.2111 S   0  0  0  0  0  0  0  0  0  0  0  0
    2.4876    0.0723   -9.0598 C   0  0  0  0  0  0  0  0  0  0  0  0
    3.7649   -0.6102   -8.6681 C   0  0  0  0  0  0  0  0  0  0  0  0
    4.7176    0.3623   -7.9786 C   0  0  0  0  0  0  0  0  0  0  0  0
    2.3114    0.9616  -10.1199 C   0  0  0  0  0  0  0  0  0  0  0  0
    3.5873    1.3974  -11.2475 Cl  0  0  0  0  0  0  0  0  0  0  0  0
    1.0137    1.4881  -10.1915 C   0  0  0  0  0  0  0  0  0  0  0  0
    0.5057    2.6444  -11.4174 Cl  0  0  0  0  0  0  0  0  0  0  0  0
   -1.4685    2.7877   -8.5599 C   0  0  0  0  0  0  0  0  0  0  0  0
   -2.7485    3.2454   -8.2335 C   0  0  0  0  0  0  0  0  0  0  0  0
   -3.8653    2.3984   -8.3585 C   0  0  0  0  0  0  0  0  0  0  0  0
   -5.2285    2.8752   -8.0604 C   0  0  0  0  0  0  0  0  0  0  0  0
   -6.2278    2.2785   -6.8433 S   0  0  0  0  0  0  0  0  0  0  0  0
   -7.5199    3.3137   -7.1460 C   0  0  0  0  0  0  0  0  0  0  0  0
   -8.8044    3.3240   -6.3706 C   0  0  0  0  0  0  0  0  0  0  0  0
   -8.8723    4.5222   -5.4262 C   0  0  0  0  0  0  0  0  0  0  0  0
   -7.1789    4.1535   -8.2077 C   0  0  0  0  0  0  0  0  0  0  0  0
   -5.8948    3.9107   -8.7159 C   0  0  0  0  0  0  0  0  0  0  0  0
   -5.2048    4.8024  -10.0672 Cl  0  0  0  0  0  0  0  0  0  0  0  0
   -8.2505    5.3865   -8.8601 Cl  0  0  0  0  0  0  0  0  0  0  0  0
   -3.6060    1.0564   -8.6887 C   0  0  0  0  0  0  0  0  0  0  0  0
   -4.6734   -0.2397   -8.6452 S   0  0  0  0  0  0  0  0  0  0  0  0
   -2.7430    4.4892   -7.5848 C   0  0  0  0  0  0  0  0  0  0  0  0
   -1.4635    5.0023   -7.3879 C   0  0  0  0  0  0  0  0  0  0  0  0
   -0.3451    3.9264   -8.0489 S   0  0  0  0  0  0  0  0  0  0  0  0
   -1.1130    5.8116   -6.2211 C   0  0  0  0  0  0  0  0  0  0  0  0
   -1.4184    5.3976   -4.9288 C   0  0  0  0  0  0  0  0  0  0  0  0
   -0.5885    5.9647   -3.9562 C   0  0  0  0  0  0  0  0  0  0  0  0
   -0.5463    5.5878   -2.6028 C   0  0  0  0  0  0  0  0  0  0  0  0
   -1.4645    4.5729   -2.0614 C   0  0  0  0  0  0  0  0  0  0  0  0
   -3.0476    4.8720   -1.5819 S   0  0  0  0  0  0  0  0  0  0  0  0
   -3.4458    3.2661   -1.2728 C   0  0  0  0  0  0  0  0  0  0  0  0
   -4.7787    2.8066   -0.7592 C   0  0  0  0  0  0  0  0  0  0  0  0
   -4.9951    3.2571    0.6844 C   0  0  0  0  0  0  0  0  0  0  0  0
   -2.3358    2.4681   -1.5590 C   0  0  0  0  0  0  0  0  0  0  0  0
   -2.3424    0.7144   -1.4584 Cl  0  0  0  0  0  0  0  0  0  0  0  0
   -1.2266    3.2040   -2.0029 C   0  0  0  0  0  0  0  0  0  0  0  0
    0.2968    2.4654   -2.4809 Cl  0  0  0  0  0  0  0  0  0  0  0  0
    0.4827    6.1321   -1.8244 C   0  0  0  0  0  0  0  0  0  0  0  0
    1.4000    7.0616   -2.3300 C   0  0  0  0  0  0  0  0  0  0  0  0
    1.3290    7.4793   -3.6788 C   0  0  0  0  0  0  0  0  0  0  0  0
    2.2602    8.4815   -4.2358 C   0  0  0  0  0  0  0  0  0  0  0  0
    3.2373    8.2594   -5.5897 S   0  0  0  0  0  0  0  0  0  0  0  0
    3.8915    9.8090   -5.6039 C   0  0  0  0  0  0  0  0  0  0  0  0
    4.8070   10.3353   -6.6675 C   0  0  0  0  0  0  0  0  0  0  0  0
    4.0113   11.0368   -7.7637 C   0  0  0  0  0  0  0  0  0  0  0  0
    3.3294   10.5354   -4.5565 C   0  0  0  0  0  0  0  0  0  0  0  0
    2.4193    9.7938   -3.7877 C   0  0  0  0  0  0  0  0  0  0  0  0
    1.4935   10.4882   -2.4613 Cl  0  0  0  0  0  0  0  0  0  0  0  0
    3.6878   12.2324   -4.2512 Cl  0  0  0  0  0  0  0  0  0  0  0  0
    0.3414    6.8689   -4.4770 C   0  0  0  0  0  0  0  0  0  0  0  0
    0.1667    6.9130   -6.1536 S   0  0  0  0  0  0  0  0  0  0  0  0
    2.4058    7.3909   -1.4065 C   0  0  0  0  0  0  0  0  0  0  0  0
    2.2782    6.7071   -0.1974 C   0  0  0  0  0  0  0  0  0  0  0  0
    0.9163    5.7105   -0.2559 S   0  0  0  0  0  0  0  0  0  0  0  0
    3.2627    6.7082    0.8902 C   0  0  0  0  0  0  0  0  0  0  0  0
    3.4386    5.6776    1.8114 C   0  0  0  0  0  0  0  0  0  0  0  0
    4.5364    5.8846    2.6596 C   0  0  0  0  0  0  0  0  0  0  0  0
    5.0240    4.9795    3.6215 C   0  0  0  0  0  0  0  0  0  0  0  0
    4.3753    3.6809    3.8653 C   0  0  0  0  0  0  0  0  0  0  0  0
    2.8832    3.4781    4.6138 S   0  0  0  0  0  0  0  0  0  0  0  0
    2.8733    1.7978    4.5386 C   0  0  0  0  0  0  0  0  0  0  0  0
    1.7705    0.9257    5.0547 C   0  0  0  0  0  0  0  0  0  0  0  0
    0.7974    0.5600    3.9405 C   0  0  0  0  0  0  0  0  0  0  0  0
    4.0387    1.3720    3.9021 C   0  0  0  0  0  0  0  0  0  0  0  0
    4.4127   -0.3162    3.5822 Cl  0  0  0  0  0  0  0  0  0  0  0  0
    4.8830    2.4294    3.5294 C   0  0  0  0  0  0  0  0  0  0  0  0
    6.4102    2.1978    2.6860 Cl  0  0  0  0  0  0  0  0  0  0  0  0
    6.1827    5.3572    4.3203 C   0  0  0  0  0  0  0  0  0  0  0  0
    6.8403    6.5707    4.0896 C   0  0  0  0  0  0  0  0  0  0  0  0
    6.3573    7.4735    3.1209 C   0  0  0  0  0  0  0  0  0  0  0  0
    7.0492    8.7412    2.8243 C   0  0  0  0  0  0  0  0  0  0  0  0
    8.6086    8.8577    2.2021 S   0  0  0  0  0  0  0  0  0  0  0  0
    8.6404   10.5371    2.1094 C   0  0  0  0  0  0  0  0  0  0  0  0
    9.7683   11.3310    1.5270 C   0  0  0  0  0  0  0  0  0  0  0  0
    9.5851   11.5014    0.0224 C   0  0  0  0  0  0  0  0  0  0  0  0
    7.4121   11.0334    2.5483 C   0  0  0  0  0  0  0  0  0  0  0  0
    6.5240   10.0274    2.9600 C   0  0  0  0  0  0  0  0  0  0  0  0
    4.9285   10.3626    3.6230 Cl  0  0  0  0  0  0  0  0  0  0  0  0
    7.0094   12.7434    2.5769 Cl  0  0  0  0  0  0  0  0  0  0  0  0
    5.2025    7.0908    2.4159 C   0  0  0  0  0  0  0  0  0  0  0  0
    4.4601    7.8752    1.1241 S   0  0  0  0  0  0  0  0  0  0  0  0
    7.9635    6.7499    4.9122 C   0  0  0  0  0  0  0  0  0  0  0  0
    8.1876    5.6814    5.7745 C   0  0  0  0  0  0  0  0  0  0  0  0
    6.9918    4.5182    5.5328 S   0  0  0  0  0  0  0  0  0  0  0  0
    1.0308   -7.6869   13.2324 H   0  0  0  0  0  0  0  0  0  0  0  0
    1.8234   -9.3092   11.3609 H   0  0  0  0  0  0  0  0  0  0  0  0
    5.5971  -11.6418    7.6112 H   0  0  0  0  0  0  0  0  0  0  0  0
    5.1431  -13.0581    8.6145 H   0  0  0  0  0  0  0  0  0  0  0  0
    4.2541  -12.5108    5.7072 H   0  0  0  0  0  0  0  0  0  0  0  0
    5.4373  -13.7541    6.2676 H   0  0  0  0  0  0  0  0  0  0  0  0
    3.6957  -13.9091    6.7147 H   0  0  0  0  0  0  0  0  0  0  0  0
   -5.7933   -3.9603   10.0217 H   0  0  0  0  0  0  0  0  0  0  0  0
   -5.3965   -2.5072    9.0442 H   0  0  0  0  0  0  0  0  0  0  0  0
   -5.6593   -1.9266   11.4471 H   0  0  0  0  0  0  0  0  0  0  0  0
   -4.3751   -3.1084   11.8997 H   0  0  0  0  0  0  0  0  0  0  0  0
   -3.9560   -1.6421   10.9227 H   0  0  0  0  0  0  0  0  0  0  0  0
   -1.9553   -6.1364    6.2118 H   0  0  0  0  0  0  0  0  0  0  0  0
   -1.8187   -5.6497    3.7908 H   0  0  0  0  0  0  0  0  0  0  0  0
   -4.8528   -1.6065    3.8464 H   0  0  0  0  0  0  0  0  0  0  0  0
   -3.4571   -0.5078    3.5890 H   0  0  0  0  0  0  0  0  0  0  0  0
   -4.3079    0.0618    1.3030 H   0  0  0  0  0  0  0  0  0  0  0  0
   -5.5512    0.3976    2.5642 H   0  0  0  0  0  0  0  0  0  0  0  0
   -5.6989   -1.0798    1.5345 H   0  0  0  0  0  0  0  0  0  0  0  0
    0.3601  -13.2943   -1.8209 H   0  0  0  0  0  0  0  0  0  0  0  0
   -0.9041  -14.3903   -1.1658 H   0  0  0  0  0  0  0  0  0  0  0  0
   -0.9300  -14.4334   -3.6382 H   0  0  0  0  0  0  0  0  0  0  0  0
   -2.4596  -13.6897   -3.0293 H   0  0  0  0  0  0  0  0  0  0  0  0
   -1.1397  -12.6437   -3.7014 H   0  0  0  0  0  0  0  0  0  0  0  0
   -2.6837   -8.8186   -2.5413 H   0  0  0  0  0  0  0  0  0  0  0  0
   -5.6440   -6.4119   -4.0125 H   0  0  0  0  0  0  0  0  0  0  0  0
   -6.4710   -6.0583   -7.2975 H   0  0  0  0  0  0  0  0  0  0  0  0
   -6.2808   -4.6137   -6.1683 H   0  0  0  0  0  0  0  0  0  0  0  0
   -5.9040   -2.8863   -8.3685 H   0  0  0  0  0  0  0  0  0  0  0  0
   -1.3502   -1.3803   -9.2234 H   0  0  0  0  0  0  0  0  0  0  0  0
    4.2526   -1.0371   -9.5719 H   0  0  0  0  0  0  0  0  0  0  0  0
    3.5362   -1.4446   -7.9736 H   0  0  0  0  0  0  0  0  0  0  0  0
    4.2341    0.8178   -7.0896 H   0  0  0  0  0  0  0  0  0  0  0  0
    5.0235    1.1668   -8.6800 H   0  0  0  0  0  0  0  0  0  0  0  0
    5.6292   -0.1815   -7.6507 H   0  0  0  0  0  0  0  0  0  0  0  0
   -9.6659    3.3496   -7.0702 H   0  0  0  0  0  0  0  0  0  0  0  0
   -8.8799    2.3917   -5.7729 H   0  0  0  0  0  0  0  0  0  0  0  0
   -8.9181    5.4649   -6.0076 H   0  0  0  0  0  0  0  0  0  0  0  0
   -7.9856    4.5428   -4.7587 H   0  0  0  0  0  0  0  0  0  0  0  0
   -9.7920    4.4491   -4.8047 H   0  0  0  0  0  0  0  0  0  0  0  0
   -3.6194    4.9191   -7.1189 H   0  0  0  0  0  0  0  0  0  0  0  0
   -2.1210    4.6018   -4.7206 H   0  0  0  0  0  0  0  0  0  0  0  0
   -4.8617    1.7018   -0.8105 H   0  0  0  0  0  0  0  0  0  0  0  0
   -5.5787    3.2352   -1.3991 H   0  0  0  0  0  0  0  0  0  0  0  0
   -4.1988    2.8436    1.3411 H   0  0  0  0  0  0  0  0  0  0  0  0
   -5.9797    2.8928    1.0451 H   0  0  0  0  0  0  0  0  0  0  0  0
   -4.9834    4.3654    0.7486 H   0  0  0  0  0  0  0  0  0  0  0  0
    5.5307   11.0510   -6.2218 H   0  0  0  0  0  0  0  0  0  0  0  0
    5.3814    9.4956   -7.1095 H   0  0  0  0  0  0  0  0  0  0  0  0
    4.7069   11.4390   -8.5317 H   0  0  0  0  0  0  0  0  0  0  0  0
    3.4247   11.8815   -7.3388 H   0  0  0  0  0  0  0  0  0  0  0  0
    3.3158   10.3215   -8.2535 H   0  0  0  0  0  0  0  0  0  0  0  0
    3.2399    8.0438   -1.6303 H   0  0  0  0  0  0  0  0  0  0  0  0
    2.8277    4.7835    1.8267 H   0  0  0  0  0  0  0  0  0  0  0  0
    2.1951   -0.0018    5.4922 H   0  0  0  0  0  0  0  0  0  0  0  0
    1.2221    1.4631    5.8556 H   0  0  0  0  0  0  0  0  0  0  0  0
   -0.0343   -0.0458    4.3604 H   0  0  0  0  0  0  0  0  0  0  0  0
    0.3724    1.4786    3.4811 H   0  0  0  0  0  0  0  0  0  0  0  0
    1.3124   -0.0366    3.1574 H   0  0  0  0  0  0  0  0  0  0  0  0
    9.8264   12.3287    2.0101 H   0  0  0  0  0  0  0  0  0  0  0  0
   10.7266   10.8024    1.7218 H   0  0  0  0  0  0  0  0  0  0  0  0
    8.6437   12.0532   -0.1895 H   0  0  0  0  0  0  0  0  0  0  0  0
   10.4379   12.0774   -0.3947 H   0  0  0  0  0  0  0  0  0  0  0  0
    9.5456   10.5089   -0.4756 H   0  0  0  0  0  0  0  0  0  0  0  0
    8.5961    7.6269    4.8979 H   0  0  0  0  0  0  0  0  0  0  0  0
    8.9956    5.6105    6.4878 H   0  0  0  0  0  0  0  0  0  0  0  0
  1  2  2  0
  2  3  1  0
  3  4  2  0
  4  5  1  0
  5  6  1  0
  6  7  1  0
  7  8  1  0
  8  9  1  0
  7 10  2  0
 10 11  1  0
 10 12  1  0
 12 13  1  0
  4 14  1  0
 14 15  2  0
 15 16  1  0
 16 17  1  0
 17 18  1  0
 18 19  1  0
 19 20  1  0
 20 21  1  0
 19 22  2  0
 22 23  1  0
 23 24  1  0
 22 25  1  0
 16 26  2  0
 26 27  1  0
 15 28  1  0
 28 29  2  0
 29 30  1  0
 29 31  1  0
 31 32  2  0
 32 33  1  0
 33 34  2  0
 34 35  1  0
 35 36  1  0
 36 37  1  0
 37 38  1  0
 38 39  1  0
 37 40  2  0
 40 41  1  0
 40 42  1  0
 42 43  1  0
 34 44  1  0
 44 45  2  0
 45 46  1  0
 46 47  1  0
 47 48  1  0
 48 49  1  0
 49 50  1  0
 50 51  1  0
 49 52  2  0
 52 53  1  0
 53 54  1  0
 52 55  1  0
 46 56  2  0
 56 57  1  0
 45 58  1  0
 58 59  2  0
 59 60  1  0
 59 61  1  0
 61 62  2  0
 62 63  1  0
 63 64  2  0
 64 65  1  0
 64 66  1  0
 66 67  2  0
 67 68  1  0
 67 69  1  0
 69 70  2  0
 70 71  1  0
 70 72  1  0
 72 73  2  0
 73 74  1  0
 74 75  2  0
 75 76  1  0
 76 77  1  0
 77 78  1  0
 78 79  1  0
 79 80  1  0
 78 81  2  0
 81 82  1  0
 81 83  1  0
 83 84  1  0
 75 85  1  0
 85 86  2  0
 86 87  1  0
 87 88  1  0
 88 89  1  0
 89 90  1  0
 90 91  1  0
 91 92  1  0
 90 93  2  0
 93 94  1  0
 94 95  1  0
 93 96  1  0
 87 97  2  0
 97 98  1  0
 86 99  1  0
 99100  2  0
100101  1  0
100102  1  0
102103  2  0
103104  1  0
104105  2  0
105106  1  0
106107  1  0
107108  1  0
108109  1  0
109110  1  0
108111  2  0
111112  1  0
111113  1  0
113114  1  0
105115  1  0
115116  2  0
116117  1  0
117118  1  0
118119  1  0
119120  1  0
120121  1  0
121122  1  0
120123  2  0
123124  1  0
124125  1  0
123126  1  0
117127  2  0
127128  1  0
116129  1  0
129130  2  0
130131  1  0
130132  1  0
132133  2  0
133134  1  0
134135  2  0
135136  1  0
136137  1  0
137138  1  0
138139  1  0
139140  1  0
138141  2  0
141142  1  0
141143  1  0
143144  1  0
135145  1  0
145146  2  0
146147  1  0
147148  1  0
148149  1  0
149150  1  0
150151  1  0
151152  1  0
150153  2  0
153154  1  0
154155  1  0
153156  1  0
147157  2  0
157158  1  0
146159  1  0
159160  2  0
160161  1  0
 27  1  1  0
 57 31  1  0
 65 61  1  0
 71 66  1  0
 98 72  1  0
128102  1  0
158132  1  0
 26  3  1  0
 56 33  1  0
 68 63  1  0
 97 74  1  0
127104  1  0
157134  1  0
 12  5  2  0
 30 14  1  0
 42 35  2  0
 60 44  1  0
 83 76  2  0
101 85  1  0
113106  2  0
131115  1  0
143136  2  0
161145  1  0
 23 17  2  0
 53 47  2  0
 94 88  2  0
124118  2  0
154148  2  0
  1162  1  0
  2163  1  0
  8164  1  0
  8165  1  0
  9166  1  0
  9167  1  0
  9168  1  0
 20169  1  0
 20170  1  0
 21171  1  0
 21172  1  0
 21173  1  0
 28174  1  0
 32175  1  0
 38176  1  0
 38177  1  0
 39178  1  0
 39179  1  0
 39180  1  0
 50181  1  0
 50182  1  0
 51183  1  0
 51184  1  0
 51185  1  0
 58186  1  0
 62187  1  0
 68188  1  0
 68189  1  0
 69190  1  0
 73191  1  0
 79192  1  0
 79193  1  0
 80194  1  0
 80195  1  0
 80196  1  0
 91197  1  0
 91198  1  0
 92199  1  0
 92200  1  0
 92201  1  0
 99202  1  0
103203  1  0
109204  1  0
109205  1  0
110206  1  0
110207  1  0
110208  1  0
121209  1  0
121210  1  0
122211  1  0
122212  1  0
122213  1  0
129214  1  0
133215  1  0
139216  1  0
139217  1  0
140218  1  0
140219  1  0
140220  1  0
151221  1  0
151222  1  0
152223  1  0
152224  1  0
152225  1  0
159226  1  0
160227  1  0
M  END

