
     RDKit          3D

227254  0  0  0  0  0  0  0  0999 V2000
    2.5217   -8.3196   10.9014 C   0  0  0  0  0  0  0  0  0  0  0  0
    3.1448   -8.7057    9.7402 C   0  0  0  0  0  0  0  0  0  0  0  0
    2.3882   -8.4082    8.5299 C   0  0  0  0  0  0  0  0  0  0  0  0
    2.8314   -8.6913    7.2707 C   0  0  0  0  0  0  0  0  0  0  0  0
    4.0735   -9.4292    7.0419 C   0  0  0  0  0  0  0  0  0  0  0  0
    4.7368  -10.6698    7.9521 S   0  0  0  0  0  0  0  0  0  0  0  0
    6.1968  -10.8435    7.1848 C   0  0  0  0  0  0  0  0  0  0  0  0
    7.3596  -11.7633    7.5098 C   0  0  0  0  0  0  0  0  0  0  0  0
    8.4500  -10.9145    8.1274 C   0  0  0  0  0  0  0  0  0  0  0  0
    6.1907   -9.9241    6.1673 C   0  0  0  0  0  0  0  0  0  0  0  0
    7.5072   -9.7372    5.0532 Cl  0  0  0  0  0  0  0  0  0  0  0  0
    5.0258   -9.1272    6.0903 C   0  0  0  0  0  0  0  0  0  0  0  0
    4.9079   -7.8316    4.9473 Cl  0  0  0  0  0  0  0  0  0  0  0  0
    1.9989   -8.2854    6.1657 C   0  0  0  0  0  0  0  0  0  0  0  0
    0.8281   -7.6561    6.4149 C   0  0  0  0  0  0  0  0  0  0  0  0
    0.3518   -7.3975    7.6808 C   0  0  0  0  0  0  0  0  0  0  0  0
   -0.8745   -6.6446    7.9364 C   0  0  0  0  0  0  0  0  0  0  0  0
   -1.5487   -5.4198    7.0115 S   0  0  0  0  0  0  0  0  0  0  0  0
   -2.9863   -5.2049    7.8085 C   0  0  0  0  0  0  0  0  0  0  0  0
   -4.1132   -4.2754    7.4871 C   0  0  0  0  0  0  0  0  0  0  0  0
   -4.1613   -3.0471    8.3887 C   0  0  0  0  0  0  0  0  0  0  0  0
   -2.9878   -6.1149    8.8442 C   0  0  0  0  0  0  0  0  0  0  0  0
   -1.7992   -6.9172    8.9298 C   0  0  0  0  0  0  0  0  0  0  0  0
   -1.7301   -8.2104   10.1050 Cl  0  0  0  0  0  0  0  0  0  0  0  0
   -4.2745   -6.2340   10.0056 Cl  0  0  0  0  0  0  0  0  0  0  0  0
    1.1781   -7.7984    8.7995 C   0  0  0  0  0  0  0  0  0  0  0  0
    1.0740   -7.5998   10.4848 S   0  0  0  0  0  0  0  0  0  0  0  0
    0.0712   -7.3392    5.2160 C   0  0  0  0  0  0  0  0  0  0  0  0
    0.6821   -7.6906    4.0595 C   0  0  0  0  0  0  0  0  0  0  0  0
    2.1470   -8.4270    4.4803 S   0  0  0  0  0  0  0  0  0  0  0  0
    0.1111   -7.2324    2.7333 C   0  0  0  0  0  0  0  0  0  0  0  0
   -0.4215   -5.9618    2.6083 C   0  0  0  0  0  0  0  0  0  0  0  0
   -0.8882   -5.6379    1.2985 C   0  0  0  0  0  0  0  0  0  0  0  0
   -1.3969   -4.3924    0.9533 C   0  0  0  0  0  0  0  0  0  0  0  0
   -1.2904   -3.1371    1.7140 C   0  0  0  0  0  0  0  0  0  0  0  0
   -2.3697   -1.8210    1.6861 S   0  0  0  0  0  0  0  0  0  0  0  0
   -1.5097   -0.7325    2.6113 C   0  0  0  0  0  0  0  0  0  0  0  0
   -1.8356    0.6743    2.9960 C   0  0  0  0  0  0  0  0  0  0  0  0
   -1.0151    1.6837    2.2077 C   0  0  0  0  0  0  0  0  0  0  0  0
   -0.3326   -1.3828    2.9577 C   0  0  0  0  0  0  0  0  0  0  0  0
    0.8836   -0.6108    3.9457 Cl  0  0  0  0  0  0  0  0  0  0  0  0
   -0.1815   -2.7267    2.4789 C   0  0  0  0  0  0  0  0  0  0  0  0
    1.2837   -3.5521    2.7430 Cl  0  0  0  0  0  0  0  0  0  0  0  0
   -1.8483   -4.2570   -0.3889 C   0  0  0  0  0  0  0  0  0  0  0  0
   -1.7780   -5.2822   -1.3131 C   0  0  0  0  0  0  0  0  0  0  0  0
   -1.1946   -6.4948   -0.9586 C   0  0  0  0  0  0  0  0  0  0  0  0
   -0.9655   -7.5582   -1.9519 C   0  0  0  0  0  0  0  0  0  0  0  0
   -0.5645   -7.3416   -3.5596 S   0  0  0  0  0  0  0  0  0  0  0  0
   -0.5407   -8.9076   -4.0729 C   0  0  0  0  0  0  0  0  0  0  0  0
   -0.2865   -9.4541   -5.4396 C   0  0  0  0  0  0  0  0  0  0  0  0
   -1.6025   -9.8721   -6.0855 C   0  0  0  0  0  0  0  0  0  0  0  0
   -0.8555   -9.6746   -2.9759 C   0  0  0  0  0  0  0  0  0  0  0  0
   -1.1170   -8.9309   -1.7646 C   0  0  0  0  0  0  0  0  0  0  0  0
   -1.6135   -9.7131   -0.3045 Cl  0  0  0  0  0  0  0  0  0  0  0  0
   -0.9458  -11.4171   -3.0001 Cl  0  0  0  0  0  0  0  0  0  0  0  0
   -0.7441   -6.6428    0.4123 C   0  0  0  0  0  0  0  0  0  0  0  0
   -0.0137   -7.9274    1.2211 S   0  0  0  0  0  0  0  0  0  0  0  0
   -2.3228   -4.9609   -2.6326 C   0  0  0  0  0  0  0  0  0  0  0  0
   -2.8094   -3.6451   -2.6609 C   0  0  0  0  0  0  0  0  0  0  0  0
   -2.5800   -2.9967   -1.1705 S   0  0  0  0  0  0  0  0  0  0  0  0
   -3.4370   -2.9533   -3.8410 C   0  0  0  0  0  0  0  0  0  0  0  0
   -4.8086   -2.7774   -4.0302 C   0  0  0  0  0  0  0  0  0  0  0  0
   -5.1217   -1.7239   -4.9586 C   0  0  0  0  0  0  0  0  0  0  0  0
   -6.3965   -1.1859   -5.1948 C   0  0  0  0  0  0  0  0  0  0  0  0
   -7.6644   -1.8584   -4.9117 C   0  0  0  0  0  0  0  0  0  0  0  0
   -9.1405   -1.1570   -4.5329 S   0  0  0  0  0  0  0  0  0  0  0  0
  -10.1155   -2.5042   -4.5960 C   0  0  0  0  0  0  0  0  0  0  0  0
  -11.6196   -2.6398   -4.3735 C   0  0  0  0  0  0  0  0  0  0  0  0
  -11.8742   -3.2669   -3.0167 C   0  0  0  0  0  0  0  0  0  0  0  0
   -9.3074   -3.5556   -4.9454 C   0  0  0  0  0  0  0  0  0  0  0  0
   -9.8948   -5.1991   -5.1375 Cl  0  0  0  0  0  0  0  0  0  0  0  0
   -7.9275   -3.2108   -5.1288 C   0  0  0  0  0  0  0  0  0  0  0  0
   -6.8010   -4.3798   -5.6843 Cl  0  0  0  0  0  0  0  0  0  0  0  0
   -6.5195    0.0447   -5.9264 C   0  0  0  0  0  0  0  0  0  0  0  0
   -5.3869    0.6353   -6.4314 C   0  0  0  0  0  0  0  0  0  0  0  0
   -4.1456    0.1002   -6.2757 C   0  0  0  0  0  0  0  0  0  0  0  0
   -2.9109    0.5528   -6.9299 C   0  0  0  0  0  0  0  0  0  0  0  0
   -1.3212    0.5454   -6.3256 S   0  0  0  0  0  0  0  0  0  0  0  0
   -0.5253    1.0919   -7.6957 C   0  0  0  0  0  0  0  0  0  0  0  0
    0.9306    1.3700   -7.9108 C   0  0  0  0  0  0  0  0  0  0  0  0
    1.5645    0.2576   -8.7689 C   0  0  0  0  0  0  0  0  0  0  0  0
   -1.4925    1.2959   -8.6772 C   0  0  0  0  0  0  0  0  0  0  0  0
   -2.8329    0.9953   -8.2411 C   0  0  0  0  0  0  0  0  0  0  0  0
   -4.1495    1.0451   -9.3768 Cl  0  0  0  0  0  0  0  0  0  0  0  0
   -1.1331    1.8862  -10.2762 Cl  0  0  0  0  0  0  0  0  0  0  0  0
   -4.0301   -1.0844   -5.4880 C   0  0  0  0  0  0  0  0  0  0  0  0
   -2.6904   -1.8250   -4.7984 S   0  0  0  0  0  0  0  0  0  0  0  0
   -5.6267    1.9837   -6.9031 C   0  0  0  0  0  0  0  0  0  0  0  0
   -6.8728    2.4738   -6.7504 C   0  0  0  0  0  0  0  0  0  0  0  0
   -7.7638    1.1791   -6.0283 S   0  0  0  0  0  0  0  0  0  0  0  0
   -7.1055    3.9681   -6.7963 C   0  0  0  0  0  0  0  0  0  0  0  0
   -7.8435    4.6560   -5.8000 C   0  0  0  0  0  0  0  0  0  0  0  0
   -7.4321    6.0210   -5.6210 C   0  0  0  0  0  0  0  0  0  0  0  0
   -6.4243    6.4230   -6.3882 C   0  0  0  0  0  0  0  0  0  0  0  0
   -5.9940    5.1199   -7.3619 S   0  0  0  0  0  0  0  0  0  0  0  0
   -5.7393    7.5791   -5.6517 C   0  0  0  0  0  0  0  0  0  0  0  0
   -6.4289    7.7710   -4.5207 C   0  0  0  0  0  0  0  0  0  0  0  0
   -7.7407    7.1066   -4.6480 C   0  0  0  0  0  0  0  0  0  0  0  0
   -5.7196    8.3660   -3.4116 C   0  0  0  0  0  0  0  0  0  0  0  0
   -4.3664    8.7171   -3.7885 C   0  0  0  0  0  0  0  0  0  0  0  0
   -4.1942    8.2435   -5.3868 S   0  0  0  0  0  0  0  0  0  0  0  0
   -3.2546    8.7551   -2.7963 C   0  0  0  0  0  0  0  0  0  0  0  0
   -3.1274    7.8156   -1.8704 C   0  0  0  0  0  0  0  0  0  0  0  0
   -1.8060    7.5660   -1.3000 C   0  0  0  0  0  0  0  0  0  0  0  0
   -1.4930    6.4836   -0.5340 C   0  0  0  0  0  0  0  0  0  0  0  0
   -2.5371    5.6945    0.1378 C   0  0  0  0  0  0  0  0  0  0  0  0
   -2.7696    4.0366    0.3166 S   0  0  0  0  0  0  0  0  0  0  0  0
   -4.1588    4.0703    1.2628 C   0  0  0  0  0  0  0  0  0  0  0  0
   -5.0178    2.9744    1.8580 C   0  0  0  0  0  0  0  0  0  0  0  0
   -4.7752    2.8891    3.3701 C   0  0  0  0  0  0  0  0  0  0  0  0
   -4.4760    5.3894    1.4478 C   0  0  0  0  0  0  0  0  0  0  0  0
   -5.8319    5.9442    2.3678 Cl  0  0  0  0  0  0  0  0  0  0  0  0
   -3.5597    6.2904    0.8294 C   0  0  0  0  0  0  0  0  0  0  0  0
   -3.7204    8.0250    1.0393 Cl  0  0  0  0  0  0  0  0  0  0  0  0
   -0.1100    6.1798   -0.3459 C   0  0  0  0  0  0  0  0  0  0  0  0
    0.8460    7.0697   -0.7890 C   0  0  0  0  0  0  0  0  0  0  0  0
    0.5159    8.2028   -1.4857 C   0  0  0  0  0  0  0  0  0  0  0  0
    1.5141    9.1424   -1.9980 C   0  0  0  0  0  0  0  0  0  0  0  0
    3.0980    8.8218   -2.4593 S   0  0  0  0  0  0  0  0  0  0  0  0
    3.6270   10.3730   -2.7398 C   0  0  0  0  0  0  0  0  0  0  0  0
    4.9782   10.8727   -3.2258 C   0  0  0  0  0  0  0  0  0  0  0  0
    4.8720   11.0370   -4.7282 C   0  0  0  0  0  0  0  0  0  0  0  0
    2.5471   11.2045   -2.5170 C   0  0  0  0  0  0  0  0  0  0  0  0
    1.3400   10.5034   -2.1030 C   0  0  0  0  0  0  0  0  0  0  0  0
   -0.0777   11.3982   -1.6852 Cl  0  0  0  0  0  0  0  0  0  0  0  0
    2.5962   12.9312   -2.7376 Cl  0  0  0  0  0  0  0  0  0  0  0  0
   -0.8855    8.4463   -1.7918 C   0  0  0  0  0  0  0  0  0  0  0  0
   -1.6785    9.3972   -2.9346 S   0  0  0  0  0  0  0  0  0  0  0  0
    2.2105    6.5917   -0.5493 C   0  0  0  0  0  0  0  0  0  0  0  0
    2.2708    5.3394    0.0205 C   0  0  0  0  0  0  0  0  0  0  0  0
    0.6655    4.8506    0.3320 S   0  0  0  0  0  0  0  0  0  0  0  0
    3.5655    4.6161    0.3167 C   0  0  0  0  0  0  0  0  0  0  0  0
    3.5956    3.2497    0.4848 C   0  0  0  0  0  0  0  0  0  0  0  0
    4.9304    2.7229    0.6019 C   0  0  0  0  0  0  0  0  0  0  0  0
    5.2407    1.3727    0.7324 C   0  0  0  0  0  0  0  0  0  0  0  0
    4.5481    0.2309    0.1180 C   0  0  0  0  0  0  0  0  0  0  0  0
    4.7851   -1.4340    0.4139 S   0  0  0  0  0  0  0  0  0  0  0  0
    3.8217   -2.1081   -0.7386 C   0  0  0  0  0  0  0  0  0  0  0  0
    3.5903   -3.5685   -1.0425 C   0  0  0  0  0  0  0  0  0  0  0  0
    2.2516   -4.0939   -0.5452 C   0  0  0  0  0  0  0  0  0  0  0  0
    3.2852   -1.0624   -1.4499 C   0  0  0  0  0  0  0  0  0  0  0  0
    2.2411   -1.3109   -2.8218 Cl  0  0  0  0  0  0  0  0  0  0  0  0
    3.6951    0.2576   -1.0038 C   0  0  0  0  0  0  0  0  0  0  0  0
    3.1858    1.6374   -1.9147 Cl  0  0  0  0  0  0  0  0  0  0  0  0
    6.5924    1.0640    0.9562 C   0  0  0  0  0  0  0  0  0  0  0  0
    7.5922    1.9866    0.7277 C   0  0  0  0  0  0  0  0  0  0  0  0
    7.2858    3.3281    0.7005 C   0  0  0  0  0  0  0  0  0  0  0  0
    8.3235    4.3360    0.9885 C   0  0  0  0  0  0  0  0  0  0  0  0
    9.9973    4.1793    0.8219 S   0  0  0  0  0  0  0  0  0  0  0  0
   10.4752    5.7065    1.1869 C   0  0  0  0  0  0  0  0  0  0  0  0
   11.8325    6.3376    1.0220 C   0  0  0  0  0  0  0  0  0  0  0  0
   11.8352    7.1325   -0.2791 C   0  0  0  0  0  0  0  0  0  0  0  0
    9.3549    6.3775    1.6112 C   0  0  0  0  0  0  0  0  0  0  0  0
    8.1559    5.6167    1.5481 C   0  0  0  0  0  0  0  0  0  0  0  0
    6.7502    6.1677    2.3880 Cl  0  0  0  0  0  0  0  0  0  0  0  0
    9.3449    8.0157    2.1873 Cl  0  0  0  0  0  0  0  0  0  0  0  0
    5.9024    3.6819    0.5034 C   0  0  0  0  0  0  0  0  0  0  0  0
    5.1591    5.1347    0.2010 S   0  0  0  0  0  0  0  0  0  0  0  0
    8.8969    1.3671    0.6978 C   0  0  0  0  0  0  0  0  0  0  0  0
    8.9212    0.1165    1.2412 C   0  0  0  0  0  0  0  0  0  0  0  0
    7.3340   -0.3387    1.5507 S   0  0  0  0  0  0  0  0  0  0  0  0
    2.9540   -8.4711   11.8926 H   0  0  0  0  0  0  0  0  0  0  0  0
    4.1434   -9.1033    9.7478 H   0  0  0  0  0  0  0  0  0  0  0  0
    7.0058  -12.5257    8.2157 H   0  0  0  0  0  0  0  0  0  0  0  0
    7.7383  -12.2358    6.5921 H   0  0  0  0  0  0  0  0  0  0  0  0
    8.0128  -10.2092    8.8903 H   0  0  0  0  0  0  0  0  0  0  0  0
    9.2096  -11.5287    8.6258 H   0  0  0  0  0  0  0  0  0  0  0  0
    8.9276  -10.2732    7.3401 H   0  0  0  0  0  0  0  0  0  0  0  0
   -4.0316   -3.9675    6.4406 H   0  0  0  0  0  0  0  0  0  0  0  0
   -5.0492   -4.8258    7.5338 H   0  0  0  0  0  0  0  0  0  0  0  0
   -3.4864   -2.2886    7.9548 H   0  0  0  0  0  0  0  0  0  0  0  0
   -5.2010   -2.6774    8.4107 H   0  0  0  0  0  0  0  0  0  0  0  0
   -3.8613   -3.3288    9.4286 H   0  0  0  0  0  0  0  0  0  0  0  0
   -0.9096   -6.9475    5.2576 H   0  0  0  0  0  0  0  0  0  0  0  0
   -0.5043   -5.3224    3.4571 H   0  0  0  0  0  0  0  0  0  0  0  0
   -1.5505    0.7983    4.0575 H   0  0  0  0  0  0  0  0  0  0  0  0
   -2.9225    0.8141    2.8129 H   0  0  0  0  0  0  0  0  0  0  0  0
    0.0651    1.5949    2.4869 H   0  0  0  0  0  0  0  0  0  0  0  0
   -1.1277    1.4890    1.1195 H   0  0  0  0  0  0  0  0  0  0  0  0
   -1.3159    2.7089    2.5126 H   0  0  0  0  0  0  0  0  0  0  0  0
    0.1692   -8.6441   -6.0384 H   0  0  0  0  0  0  0  0  0  0  0  0
    0.4409  -10.2881   -5.3201 H   0  0  0  0  0  0  0  0  0  0  0  0
   -2.0344   -8.9563   -6.5336 H   0  0  0  0  0  0  0  0  0  0  0  0
   -1.4420  -10.6665   -6.8704 H   0  0  0  0  0  0  0  0  0  0  0  0
   -2.2993  -10.2657   -5.3157 H   0  0  0  0  0  0  0  0  0  0  0  0
   -2.3382   -5.6143   -3.4308 H   0  0  0  0  0  0  0  0  0  0  0  0
   -5.5149   -3.3416   -3.4940 H   0  0  0  0  0  0  0  0  0  0  0  0
  -12.0493   -3.2985   -5.1652 H   0  0  0  0  0  0  0  0  0  0  0  0
  -12.1144   -1.6480   -4.4866 H   0  0  0  0  0  0  0  0  0  0  0  0
  -11.2068   -4.1379   -2.8781 H   0  0  0  0  0  0  0  0  0  0  0  0
  -11.7087   -2.5387   -2.2139 H   0  0  0  0  0  0  0  0  0  0  0  0
  -12.9013   -3.6479   -2.9857 H   0  0  0  0  0  0  0  0  0  0  0  0
    1.4471    1.4608   -6.9207 H   0  0  0  0  0  0  0  0  0  0  0  0
    1.0245    2.3064   -8.4878 H   0  0  0  0  0  0  0  0  0  0  0  0
    1.0307   -0.7194   -8.6416 H   0  0  0  0  0  0  0  0  0  0  0  0
    1.4936    0.5098   -9.8481 H   0  0  0  0  0  0  0  0  0  0  0  0
    2.6476    0.1412   -8.5732 H   0  0  0  0  0  0  0  0  0  0  0  0
   -4.8358    2.5954   -7.3135 H   0  0  0  0  0  0  0  0  0  0  0  0
   -8.5857    4.1846   -5.2381 H   0  0  0  0  0  0  0  0  0  0  0  0
   -8.1752    6.7464   -3.7413 H   0  0  0  0  0  0  0  0  0  0  0  0
   -8.3661    7.8320   -5.2503 H   0  0  0  0  0  0  0  0  0  0  0  0
   -6.1047    8.4993   -2.4691 H   0  0  0  0  0  0  0  0  0  0  0  0
   -3.9871    7.1914   -1.6037 H   0  0  0  0  0  0  0  0  0  0  0  0
   -4.7692    2.0102    1.3442 H   0  0  0  0  0  0  0  0  0  0  0  0
   -6.1004    3.1853    1.6551 H   0  0  0  0  0  0  0  0  0  0  0  0
   -4.8333    1.8545    3.7241 H   0  0  0  0  0  0  0  0  0  0  0  0
   -5.5502    3.4833    3.9161 H   0  0  0  0  0  0  0  0  0  0  0  0
   -3.7823    3.3446    3.5894 H   0  0  0  0  0  0  0  0  0  0  0  0
    5.2445   11.8424   -2.7815 H   0  0  0  0  0  0  0  0  0  0  0  0
    5.7727   10.1387   -2.9528 H   0  0  0  0  0  0  0  0  0  0  0  0
    4.5583   12.0794   -4.9865 H   0  0  0  0  0  0  0  0  0  0  0  0
    5.8011   10.7557   -5.2422 H   0  0  0  0  0  0  0  0  0  0  0  0
    4.0797   10.3646   -5.1444 H   0  0  0  0  0  0  0  0  0  0  0  0
    3.0931    7.1111   -0.7989 H   0  0  0  0  0  0  0  0  0  0  0  0
    2.7240    2.6412    0.5607 H   0  0  0  0  0  0  0  0  0  0  0  0
    3.6223   -3.6618   -2.1172 H   0  0  0  0  0  0  0  0  0  0  0  0
    4.4157   -4.1546   -0.6035 H   0  0  0  0  0  0  0  0  0  0  0  0
    1.8066   -4.7377   -1.3316 H   0  0  0  0  0  0  0  0  0  0  0  0
    2.4326   -4.7347    0.3331 H   0  0  0  0  0  0  0  0  0  0  0  0
    1.5765   -3.2563   -0.2554 H   0  0  0  0  0  0  0  0  0  0  0  0
   12.5890    5.5204    0.9636 H   0  0  0  0  0  0  0  0  0  0  0  0
   12.0178    6.9947    1.8961 H   0  0  0  0  0  0  0  0  0  0  0  0
   12.8361    7.1273   -0.7610 H   0  0  0  0  0  0  0  0  0  0  0  0
   11.1106    6.6902   -0.9930 H   0  0  0  0  0  0  0  0  0  0  0  0
   11.5281    8.1822   -0.0878 H   0  0  0  0  0  0  0  0  0  0  0  0
    9.7816    1.7860    0.2284 H   0  0  0  0  0  0  0  0  0  0  0  0
    9.8824   -0.4164    1.4270 H   0  0  0  0  0  0  0  0  0  0  0  0
  1  2  2  0
  2  3  1  0
  3  4  2  0
  4  5  1  0
  5  6  1  0
  6  7  1  0
  7  8  1  0
  8  9  1  0
  7 10  2  0
 10 11  1  0
 10 12  1  0
 12 13  1  0
  4 14  1  0
 14 15  2  0
 15 16  1  0
 16 17  1  0
 17 18  1  0
 18 19  1  0
 19 20  1  0
 20 21  1  0
 19 22  2  0
 22 23  1  0
 23 24  1  0
 22 25  1  0
 16 26  2  0
 26 27  1  0
 15 28  1  0
 28 29  2  0
 29 30  1  0
 29 31  1  0
 31 32  2  0
 32 33  1  0
 33 34  2  0
 34 35  1  0
 35 36  1  0
 36 37  1  0
 37 38  1  0
 38 39  1  0
 37 40  2  0
 40 41  1  0
 40 42  1  0
 42 43  1  0
 34 44  1  0
 44 45  2  0
 45 46  1  0
 46 47  1  0
 47 48  1  0
 48 49  1  0
 49 50  1  0
 50 51  1  0
 49 52  2  0
 52 53  1  0
 53 54  1  0
 52 55  1  0
 46 56  2  0
 56 57  1  0
 45 58  1  0
 58 59  2  0
 59 60  1  0
 59 61  1  0
 61 62  2  0
 62 63  1  0
 63 64  2  0
 64 65  1  0
 65 66  1  0
 66 67  1  0
 67 68  1  0
 68 69  1  0
 67 70  2  0
 70 71  1  0
 70 72  1  0
 72 73  1  0
 64 74  1  0
 74 75  2  0
 75 76  1  0
 76 77  1  0
 77 78  1  0
 78 79  1  0
 79 80  1  0
 80 81  1  0
 79 82  2  0
 82 83  1  0
 83 84  1  0
 82 85  1  0
 76 86  2  0
 86 87  1  0
 75 88  1  0
 88 89  2  0
 89 90  1  0
 89 91  1  0
 91 92  2  0
 92 93  1  0
 93 94  2  0
 94 95  1  0
 94 96  1  0
 96 97  2  0
 97 98  1  0
 97 99  1  0
 99100  2  0
100101  1  0
100102  1  0
102103  2  0
103104  1  0
104105  2  0
105106  1  0
106107  1  0
107108  1  0
108109  1  0
109110  1  0
108111  2  0
111112  1  0
111113  1  0
113114  1  0
105115  1  0
115116  2  0
116117  1  0
117118  1  0
118119  1  0
119120  1  0
120121  1  0
121122  1  0
120123  2  0
123124  1  0
124125  1  0
123126  1  0
117127  2  0
127128  1  0
116129  1  0
129130  2  0
130131  1  0
130132  1  0
132133  2  0
133134  1  0
134135  2  0
135136  1  0
136137  1  0
137138  1  0
138139  1  0
139140  1  0
138141  2  0
141142  1  0
141143  1  0
143144  1  0
135145  1  0
145146  2  0
146147  1  0
147148  1  0
148149  1  0
149150  1  0
150151  1  0
151152  1  0
150153  2  0
153154  1  0
154155  1  0
153156  1  0
147157  2  0
157158  1  0
146159  1  0
159160  2  0
160161  1  0
 27  1  1  0
 57 31  1  0
 87 61  1  0
 95 91  1  0
101 96  1  0
128102  1  0
158132  1  0
 26  3  1  0
 56 33  1  0
 86 63  1  0
 98 93  1  0
127104  1  0
157134  1  0
 12  5  2  0
 30 14  1  0
 42 35  2  0
 60 44  1  0
 72 65  2  0
 90 74  1  0
113106  2  0
131115  1  0
143136  2  0
161145  1  0
 23 17  2  0
 53 47  2  0
 83 77  2  0
124118  2  0
154148  2  0
  1162  1  0
  2163  1  0
  8164  1  0
  8165  1  0
  9166  1  0
  9167  1  0
  9168  1  0
 20169  1  0
 20170  1  0
 21171  1  0
 21172  1  0
 21173  1  0
 28174  1  0
 32175  1  0
 38176  1  0
 38177  1  0
 39178  1  0
 39179  1  0
 39180  1  0
 50181  1  0
 50182  1  0
 51183  1  0
 51184  1  0
 51185  1  0
 58186  1  0
 62187  1  0
 68188  1  0
 68189  1  0
 69190  1  0
 69191  1  0
 69192  1  0
 80193  1  0
 80194  1  0
 81195  1  0
 81196  1  0
 81197  1  0
 88198  1  0
 92199  1  0
 98200  1  0
 98201  1  0
 99202  1  0
103203  1  0
109204  1  0
109205  1  0
110206  1  0
110207  1  0
110208  1  0
121209  1  0
121210  1  0
122211  1  0
122212  1  0
122213  1  0
129214  1  0
133215  1  0
139216  1  0
139217  1  0
140218  1  0
140219  1  0
140220  1  0
151221  1  0
151222  1  0
152223  1  0
152224  1  0
152225  1  0
159226  1  0
160227  1  0
M  END

