
     RDKit          3D

 72 84  0  0  0  0  0  0  0  0999 V2000
    2.9002   -3.2232  -16.0465 C   0  0  0  0  0  0  0  0  0  0  0  0
    4.3243   -2.5786  -15.3428 S   0  0  0  0  0  0  0  0  0  0  0  0
    3.4881   -1.9271  -14.0490 C   0  0  0  0  0  0  0  0  0  0  0  0
    2.1798   -2.1845  -14.1424 C   0  0  0  0  0  0  0  0  0  0  0  0
    1.7835   -2.9173  -15.2529 C   0  0  0  0  0  0  0  0  0  0  0  0
    1.4969   -1.6702  -13.1110 N   0  0  0  0  0  0  0  0  0  0  0  0
    2.4467   -1.0658  -12.3433 C   0  0  0  0  0  0  0  0  0  0  0  0
    3.7267   -1.2062  -12.9072 C   0  0  0  0  0  0  0  0  0  0  0  0
    2.1460   -0.3606  -11.0857 C   0  0  0  0  0  0  0  0  0  0  0  0
    3.0995    0.1750  -10.2047 C   0  0  0  0  0  0  0  0  0  0  0  0
    2.4902    0.7414   -9.0871 C   0  0  0  0  0  0  0  0  0  0  0  0
    1.1307    0.6566   -9.0947 C   0  0  0  0  0  0  0  0  0  0  0  0
    0.5790   -0.1829  -10.4321 S   0  0  0  0  0  0  0  0  0  0  0  0
    0.6527    0.9402   -7.7742 C   0  0  0  0  0  0  0  0  0  0  0  0
    1.7240    1.1922   -6.9722 C   0  0  0  0  0  0  0  0  0  0  0  0
    3.0263    1.1275   -7.7306 C   0  0  0  0  0  0  0  0  0  0  0  0
    1.4273    1.1784   -5.6121 C   0  0  0  0  0  0  0  0  0  0  0  0
    0.0673    0.9042   -5.3909 C   0  0  0  0  0  0  0  0  0  0  0  0
   -0.7237    0.6223   -6.8785 S   0  0  0  0  0  0  0  0  0  0  0  0
   -0.5763    0.7763   -4.0732 C   0  0  0  0  0  0  0  0  0  0  0  0
   -2.2513    0.4819   -3.8412 S   0  0  0  0  0  0  0  0  0  0  0  0
   -2.0989    0.4667   -2.1760 C   0  0  0  0  0  0  0  0  0  0  0  0
   -0.8317    0.6698   -1.8036 C   0  0  0  0  0  0  0  0  0  0  0  0
    0.0825    0.8541   -2.8317 C   0  0  0  0  0  0  0  0  0  0  0  0
   -0.6912    0.6212   -0.4721 N   0  0  0  0  0  0  0  0  0  0  0  0
   -1.9484    0.3749   -0.0072 C   0  0  0  0  0  0  0  0  0  0  0  0
   -2.8713    0.2715   -1.0602 C   0  0  0  0  0  0  0  0  0  0  0  0
   -2.2807    0.2095    1.4182 C   0  0  0  0  0  0  0  0  0  0  0  0
   -3.8648   -0.0645    2.0201 S   0  0  0  0  0  0  0  0  0  0  0  0
   -3.3315   -0.1658    3.6019 C   0  0  0  0  0  0  0  0  0  0  0  0
   -2.0073   -0.0041    3.6779 C   0  0  0  0  0  0  0  0  0  0  0  0
   -1.3513    0.2122    2.4739 C   0  0  0  0  0  0  0  0  0  0  0  0
   -1.5631   -0.1298    4.9355 N   0  0  0  0  0  0  0  0  0  0  0  0
   -2.6839   -0.3821    5.6681 C   0  0  0  0  0  0  0  0  0  0  0  0
   -3.8283   -0.4125    4.8556 C   0  0  0  0  0  0  0  0  0  0  0  0
   -2.6787   -0.6277    7.1206 C   0  0  0  0  0  0  0  0  0  0  0  0
   -4.0728   -1.0204    8.0429 S   0  0  0  0  0  0  0  0  0  0  0  0
   -3.1952   -1.1493    9.4601 C   0  0  0  0  0  0  0  0  0  0  0  0
   -1.8970   -0.9090    9.2504 C   0  0  0  0  0  0  0  0  0  0  0  0
   -1.5375   -0.6085    7.9435 C   0  0  0  0  0  0  0  0  0  0  0  0
   -1.1782   -1.0483   10.3725 N   0  0  0  0  0  0  0  0  0  0  0  0
   -2.0942   -1.3964   11.3199 C   0  0  0  0  0  0  0  0  0  0  0  0
   -3.3879   -1.4709   10.7784 C   0  0  0  0  0  0  0  0  0  0  0  0
   -1.7546   -1.6865   12.7232 C   0  0  0  0  0  0  0  0  0  0  0  0
   -2.8760   -2.2481   13.8961 S   0  0  0  0  0  0  0  0  0  0  0  0
   -1.7087   -2.3149   15.0925 C   0  0  0  0  0  0  0  0  0  0  0  0
   -0.5170   -1.9270   14.6292 C   0  0  0  0  0  0  0  0  0  0  0  0
   -0.4739   -1.5577   13.2918 C   0  0  0  0  0  0  0  0  0  0  0  0
    0.4245   -1.9830   15.5804 N   0  0  0  0  0  0  0  0  0  0  0  0
   -0.2303   -2.4312   16.6846 C   0  0  0  0  0  0  0  0  0  0  0  0
   -1.5872   -2.6538   16.4161 C   0  0  0  0  0  0  0  0  0  0  0  0
    2.8652   -3.7855  -16.9693 H   0  0  0  0  0  0  0  0  0  0  0  0
    0.7653   -3.2106  -15.4739 H   0  0  0  0  0  0  0  0  0  0  0  0
    0.4678   -1.7292  -12.9413 H   0  0  0  0  0  0  0  0  0  0  0  0
    4.6754   -0.8389  -12.5398 H   0  0  0  0  0  0  0  0  0  0  0  0
    4.1719    0.0937  -10.3300 H   0  0  0  0  0  0  0  0  0  0  0  0
    3.6857    0.3308   -7.3246 H   0  0  0  0  0  0  0  0  0  0  0  0
    3.5272    2.1183   -7.7593 H   0  0  0  0  0  0  0  0  0  0  0  0
    2.1685    1.3015   -4.8355 H   0  0  0  0  0  0  0  0  0  0  0  0
    1.1423    1.0152   -2.6864 H   0  0  0  0  0  0  0  0  0  0  0  0
    0.1916    0.7353    0.0726 H   0  0  0  0  0  0  0  0  0  0  0  0
   -3.9323    0.0667   -1.0129 H   0  0  0  0  0  0  0  0  0  0  0  0
   -0.2827    0.3398    2.3732 H   0  0  0  0  0  0  0  0  0  0  0  0
   -0.5742   -0.0704    5.2629 H   0  0  0  0  0  0  0  0  0  0  0  0
   -4.8536   -0.6066    5.1385 H   0  0  0  0  0  0  0  0  0  0  0  0
   -0.5267   -0.4039    7.6176 H   0  0  0  0  0  0  0  0  0  0  0  0
   -0.1449   -0.9368   10.4775 H   0  0  0  0  0  0  0  0  0  0  0  0
   -4.3141   -1.7384   11.2694 H   0  0  0  0  0  0  0  0  0  0  0  0
    0.4166   -1.2236   12.7761 H   0  0  0  0  0  0  0  0  0  0  0  0
    1.4356   -1.7394   15.4948 H   0  0  0  0  0  0  0  0  0  0  0  0
    0.2489   -2.5936   17.6408 H   0  0  0  0  0  0  0  0  0  0  0  0
   -2.3545   -3.0106   17.0899 H   0  0  0  0  0  0  0  0  0  0  0  0
  1  2  1  0
  2  3  1  0
  3  4  2  0
  4  5  1  0
  4  6  1  0
  6  7  1  0
  7  8  2  0
  7  9  1  0
  9 10  2  0
 10 11  1  0
 11 12  2  0
 12 13  1  0
 12 14  1  0
 14 15  2  0
 15 16  1  0
 15 17  1  0
 17 18  2  0
 18 19  1  0
 18 20  1  0
 20 21  1  0
 21 22  1  0
 22 23  2  0
 23 24  1  0
 23 25  1  0
 25 26  1  0
 26 27  2  0
 26 28  1  0
 28 29  1  0
 29 30  1  0
 30 31  2  0
 31 32  1  0
 31 33  1  0
 33 34  1  0
 34 35  2  0
 34 36  1  0
 36 37  1  0
 37 38  1  0
 38 39  2  0
 39 40  1  0
 39 41  1  0
 41 42  1  0
 42 43  2  0
 42 44  1  0
 44 45  1  0
 45 46  1  0
 46 47  2  0
 47 48  1  0
 47 49  1  0
 49 50  1  0
 50 51  2  0
  5  1  2  0
 13  9  1  0
 19 14  1  0
 24 20  2  0
 32 28  2  0
 40 36  2  0
 48 44  2  0
  8  3  1  0
 16 11  1  0
 27 22  1  0
 35 30  1  0
 43 38  1  0
 51 46  1  0
  1 52  1  0
  5 53  1  0
  6 54  1  0
  8 55  1  0
 10 56  1  0
 16 57  1  0
 16 58  1  0
 17 59  1  0
 24 60  1  0
 25 61  1  0
 27 62  1  0
 32 63  1  0
 33 64  1  0
 35 65  1  0
 40 66  1  0
 41 67  1  0
 43 68  1  0
 48 69  1  0
 49 70  1  0
 50 71  1  0
 51 72  1  0
M  END

