
     RDKit          3D

118135  0  0  0  0  0  0  0  0999 V2000
    0.1153   11.1519   -5.8460 C   0  0  0  0  0  0  0  0  0  0  0  0
    0.7403   10.4252   -6.8677 C   0  0  0  0  0  0  0  0  0  0  0  0
    0.0030    9.2937   -7.2053 C   0  0  0  0  0  0  0  0  0  0  0  0
   -1.1459    9.1525   -6.4913 C   0  0  0  0  0  0  0  0  0  0  0  0
   -1.3258   10.3718   -5.3643 S   0  0  0  0  0  0  0  0  0  0  0  0
   -1.7326    7.8899   -6.8205 C   0  0  0  0  0  0  0  0  0  0  0  0
   -0.9378    7.2696   -7.7338 C   0  0  0  0  0  0  0  0  0  0  0  0
    0.2591    8.1111   -8.1080 C   0  0  0  0  0  0  0  0  0  0  0  0
   -1.3746    5.9972   -8.0865 C   0  0  0  0  0  0  0  0  0  0  0  0
   -2.5479    5.6525   -7.3959 C   0  0  0  0  0  0  0  0  0  0  0  0
   -3.0247    6.9303   -6.3601 S   0  0  0  0  0  0  0  0  0  0  0  0
   -3.2770    4.3788   -7.5322 C   0  0  0  0  0  0  0  0  0  0  0  0
   -2.8189    3.2466   -8.2256 C   0  0  0  0  0  0  0  0  0  0  0  0
   -3.7341    2.2006   -8.1400 C   0  0  0  0  0  0  0  0  0  0  0  0
   -4.8508    2.5004   -7.4207 C   0  0  0  0  0  0  0  0  0  0  0  0
   -4.7795    4.0454   -6.7858 S   0  0  0  0  0  0  0  0  0  0  0  0
   -5.5824    1.2884   -7.1894 C   0  0  0  0  0  0  0  0  0  0  0  0
   -4.8977    0.2570   -7.7612 C   0  0  0  0  0  0  0  0  0  0  0  0
   -3.6407    0.7257   -8.4535 C   0  0  0  0  0  0  0  0  0  0  0  0
   -5.3185   -1.0007   -7.3396 C   0  0  0  0  0  0  0  0  0  0  0  0
   -6.3765   -0.9026   -6.4208 C   0  0  0  0  0  0  0  0  0  0  0  0
   -6.7214    0.7403   -6.0922 S   0  0  0  0  0  0  0  0  0  0  0  0
   -7.0048   -2.0445   -5.7345 C   0  0  0  0  0  0  0  0  0  0  0  0
   -8.0862   -1.9697   -4.8473 C   0  0  0  0  0  0  0  0  0  0  0  0
   -8.3686   -3.2075   -4.2662 C   0  0  0  0  0  0  0  0  0  0  0  0
   -7.5463   -4.2214   -4.6749 C   0  0  0  0  0  0  0  0  0  0  0  0
   -6.3735   -3.6236   -5.7160 S   0  0  0  0  0  0  0  0  0  0  0  0
   -7.4733   -5.2039   -3.6236 C   0  0  0  0  0  0  0  0  0  0  0  0
   -8.2686   -4.7731   -2.5862 C   0  0  0  0  0  0  0  0  0  0  0  0
   -8.9929   -3.5005   -2.9322 C   0  0  0  0  0  0  0  0  0  0  0  0
   -7.8212   -5.1652   -1.3223 C   0  0  0  0  0  0  0  0  0  0  0  0
   -6.6301   -5.8980   -1.3841 C   0  0  0  0  0  0  0  0  0  0  0  0
   -6.1378   -6.0050   -3.0068 S   0  0  0  0  0  0  0  0  0  0  0  0
   -5.7219   -6.0906   -0.2416 C   0  0  0  0  0  0  0  0  0  0  0  0
   -4.4230   -6.5923   -0.3272 C   0  0  0  0  0  0  0  0  0  0  0  0
   -3.6393   -6.2907    0.8016 C   0  0  0  0  0  0  0  0  0  0  0  0
   -2.2509   -6.5158    0.9417 C   0  0  0  0  0  0  0  0  0  0  0  0
   -1.4528   -7.2816   -0.0895 C   0  0  0  0  0  0  0  0  0  0  0  0
   -1.5742   -8.7809    0.1460 C   0  0  0  0  0  0  0  0  0  0  0  0
   -1.6310   -5.9444    2.0720 C   0  0  0  0  0  0  0  0  0  0  0  0
   -2.3332   -5.1904    3.0215 C   0  0  0  0  0  0  0  0  0  0  0  0
   -3.7321   -5.0376    2.9269 C   0  0  0  0  0  0  0  0  0  0  0  0
   -4.5292   -4.2348    3.9303 C   0  0  0  0  0  0  0  0  0  0  0  0
   -4.5282   -2.7514    3.5711 C   0  0  0  0  0  0  0  0  0  0  0  0
   -4.3461   -5.5820    1.7831 C   0  0  0  0  0  0  0  0  0  0  0  0
   -5.9169   -5.3267    1.2490 S   0  0  0  0  0  0  0  0  0  0  0  0
   -1.4949   -4.5398    3.9429 C   0  0  0  0  0  0  0  0  0  0  0  0
   -0.1408   -4.7765    3.7120 C   0  0  0  0  0  0  0  0  0  0  0  0
    0.0159   -5.8121    2.3894 S   0  0  0  0  0  0  0  0  0  0  0  0
    0.9648   -3.9687    4.2455 C   0  0  0  0  0  0  0  0  0  0  0  0
    0.8498   -2.6378    4.6559 C   0  0  0  0  0  0  0  0  0  0  0  0
    2.0893   -1.9838    4.7780 C   0  0  0  0  0  0  0  0  0  0  0  0
    2.2919   -0.6111    5.0500 C   0  0  0  0  0  0  0  0  0  0  0  0
    1.1484    0.3350    5.3387 C   0  0  0  0  0  0  0  0  0  0  0  0
    0.8033    0.3382    6.8233 C   0  0  0  0  0  0  0  0  0  0  0  0
    3.6240   -0.1572    5.0551 C   0  0  0  0  0  0  0  0  0  0  0  0
    4.7119   -0.9957    4.7870 C   0  0  0  0  0  0  0  0  0  0  0  0
    4.5087   -2.3671    4.4983 C   0  0  0  0  0  0  0  0  0  0  0  0
    5.6603   -3.3018    4.2073 C   0  0  0  0  0  0  0  0  0  0  0  0
    6.2902   -3.7923    5.5053 C   0  0  0  0  0  0  0  0  0  0  0  0
    3.1757   -2.8231    4.5023 C   0  0  0  0  0  0  0  0  0  0  0  0
    2.5995   -4.3459    4.0715 S   0  0  0  0  0  0  0  0  0  0  0  0
    5.9461   -0.3188    4.7956 C   0  0  0  0  0  0  0  0  0  0  0  0
    5.8202    1.0464    5.0549 C   0  0  0  0  0  0  0  0  0  0  0  0
    4.1903    1.4105    5.2952 S   0  0  0  0  0  0  0  0  0  0  0  0
    6.9133    2.0314    5.0410 C   0  0  0  0  0  0  0  0  0  0  0  0
    8.2606    1.7441    4.7619 C   0  0  0  0  0  0  0  0  0  0  0  0
    9.0279    2.9039    4.7486 C   0  0  0  0  0  0  0  0  0  0  0  0
    8.3224    4.0391    5.0076 C   0  0  0  0  0  0  0  0  0  0  0  0
    6.6931    3.7180    5.2084 S   0  0  0  0  0  0  0  0  0  0  0  0
    9.1431    5.1637    4.6729 C   0  0  0  0  0  0  0  0  0  0  0  0
   10.3426    4.7058    4.2195 C   0  0  0  0  0  0  0  0  0  0  0  0
   10.4146    3.2005    4.2300 C   0  0  0  0  0  0  0  0  0  0  0  0
   11.1377    5.6886    3.6348 C   0  0  0  0  0  0  0  0  0  0  0  0
   10.5038    6.9351    3.6539 C   0  0  0  0  0  0  0  0  0  0  0  0
    8.9479    6.7922    4.3406 S   0  0  0  0  0  0  0  0  0  0  0  0
    0.5073   12.0575   -5.4048 H   0  0  0  0  0  0  0  0  0  0  0  0
    1.6947   10.6839   -7.3068 H   0  0  0  0  0  0  0  0  0  0  0  0
    1.2092    7.6009   -7.8474 H   0  0  0  0  0  0  0  0  0  0  0  0
    0.2170    8.4109   -9.1758 H   0  0  0  0  0  0  0  0  0  0  0  0
   -0.8597    5.3586   -8.7912 H   0  0  0  0  0  0  0  0  0  0  0  0
   -1.8567    3.1656   -8.7126 H   0  0  0  0  0  0  0  0  0  0  0  0
   -2.7339    0.2744   -7.9922 H   0  0  0  0  0  0  0  0  0  0  0  0
   -3.6852    0.5394   -9.5469 H   0  0  0  0  0  0  0  0  0  0  0  0
   -4.8367   -1.9266   -7.6318 H   0  0  0  0  0  0  0  0  0  0  0  0
   -8.5667   -1.0452   -4.5496 H   0  0  0  0  0  0  0  0  0  0  0  0
   -8.7578   -2.6965   -2.2029 H   0  0  0  0  0  0  0  0  0  0  0  0
  -10.0869   -3.6704   -3.0251 H   0  0  0  0  0  0  0  0  0  0  0  0
   -8.2369   -4.7650   -0.4053 H   0  0  0  0  0  0  0  0  0  0  0  0
   -4.0439   -7.0713   -1.2186 H   0  0  0  0  0  0  0  0  0  0  0  0
   -0.3792   -7.0054   -0.0525 H   0  0  0  0  0  0  0  0  0  0  0  0
   -1.7872   -7.0327   -1.1200 H   0  0  0  0  0  0  0  0  0  0  0  0
   -1.2343   -9.0384    1.1721 H   0  0  0  0  0  0  0  0  0  0  0  0
   -0.9440   -9.3263   -0.5845 H   0  0  0  0  0  0  0  0  0  0  0  0
   -2.6279   -9.1074    0.0182 H   0  0  0  0  0  0  0  0  0  0  0  0
   -5.5810   -4.6012    3.9658 H   0  0  0  0  0  0  0  0  0  0  0  0
   -4.1173   -4.3747    4.9523 H   0  0  0  0  0  0  0  0  0  0  0  0
   -3.5145   -2.3247    3.6820 H   0  0  0  0  0  0  0  0  0  0  0  0
   -4.8833   -2.6008    2.5271 H   0  0  0  0  0  0  0  0  0  0  0  0
   -5.2200   -2.2130    4.2531 H   0  0  0  0  0  0  0  0  0  0  0  0
   -1.8484   -3.8518    4.6983 H   0  0  0  0  0  0  0  0  0  0  0  0
   -0.1038   -2.1439    4.7706 H   0  0  0  0  0  0  0  0  0  0  0  0
    0.2503    0.0682    4.7446 H   0  0  0  0  0  0  0  0  0  0  0  0
    1.4130    1.3670    5.0270 H   0  0  0  0  0  0  0  0  0  0  0  0
   -0.0321    1.0506    7.0066 H   0  0  0  0  0  0  0  0  0  0  0  0
    1.6818    0.6677    7.4225 H   0  0  0  0  0  0  0  0  0  0  0  0
    0.4945   -0.6760    7.1509 H   0  0  0  0  0  0  0  0  0  0  0  0
    5.3273   -4.1757    3.6130 H   0  0  0  0  0  0  0  0  0  0  0  0
    6.4267   -2.7896    3.5914 H   0  0  0  0  0  0  0  0  0  0  0  0
    7.1814   -4.4170    5.2802 H   0  0  0  0  0  0  0  0  0  0  0  0
    6.6152   -2.9283    6.1278 H   0  0  0  0  0  0  0  0  0  0  0  0
    5.5601   -4.4016    6.0831 H   0  0  0  0  0  0  0  0  0  0  0  0
    6.8957   -0.7992    4.6026 H   0  0  0  0  0  0  0  0  0  0  0  0
    8.6509    0.7644    4.5144 H   0  0  0  0  0  0  0  0  0  0  0  0
   10.5409    2.8028    3.2027 H   0  0  0  0  0  0  0  0  0  0  0  0
   11.1949    2.8314    4.9248 H   0  0  0  0  0  0  0  0  0  0  0  0
   12.1023    5.5007    3.1786 H   0  0  0  0  0  0  0  0  0  0  0  0
   10.9192    7.8434    3.2380 H   0  0  0  0  0  0  0  0  0  0  0  0
  1  2  2  0
  2  3  1  0
  3  4  2  0
  4  5  1  0
  4  6  1  0
  6  7  2  0
  7  8  1  0
  7  9  1  0
  9 10  2  0
 10 11  1  0
 10 12  1  0
 12 13  2  0
 13 14  1  0
 14 15  2  0
 15 16  1  0
 15 17  1  0
 17 18  2  0
 18 19  1  0
 18 20  1  0
 20 21  2  0
 21 22  1  0
 21 23  1  0
 23 24  2  0
 24 25  1  0
 25 26  2  0
 26 27  1  0
 26 28  1  0
 28 29  2  0
 29 30  1  0
 29 31  1  0
 31 32  2  0
 32 33  1  0
 32 34  1  0
 34 35  2  0
 35 36  1  0
 36 37  2  0
 37 38  1  0
 38 39  1  0
 37 40  1  0
 40 41  2  0
 41 42  1  0
 42 43  1  0
 43 44  1  0
 42 45  2  0
 45 46  1  0
 41 47  1  0
 47 48  2  0
 48 49  1  0
 48 50  1  0
 50 51  2  0
 51 52  1  0
 52 53  2  0
 53 54  1  0
 54 55  1  0
 53 56  1  0
 56 57  2  0
 57 58  1  0
 58 59  1  0
 59 60  1  0
 58 61  2  0
 61 62  1  0
 57 63  1  0
 63 64  2  0
 64 65  1  0
 64 66  1  0
 66 67  2  0
 67 68  1  0
 68 69  2  0
 69 70  1  0
 69 71  1  0
 71 72  2  0
 72 73  1  0
 72 74  1  0
 74 75  2  0
 75 76  1  0
  5  1  1  0
 11  6  1  0
 16 12  1  0
 22 17  1  0
 27 23  1  0
 33 28  1  0
 46 34  1  0
 62 50  1  0
 70 66  1  0
 76 71  1  0
  8  3  1  0
 19 14  1  0
 30 25  1  0
 45 36  1  0
 61 52  1  0
 73 68  1  0
 49 40  1  0
 65 56  1  0
  1 77  1  0
  2 78  1  0
  8 79  1  0
  8 80  1  0
  9 81  1  0
 13 82  1  0
 19 83  1  0
 19 84  1  0
 20 85  1  0
 24 86  1  0
 30 87  1  0
 30 88  1  0
 31 89  1  0
 35 90  1  0
 38 91  1  0
 38 92  1  0
 39 93  1  0
 39 94  1  0
 39 95  1  0
 43 96  1  0
 43 97  1  0
 44 98  1  0
 44 99  1  0
 44100  1  0
 47101  1  0
 51102  1  0
 54103  1  0
 54104  1  0
 55105  1  0
 55106  1  0
 55107  1  0
 59108  1  0
 59109  1  0
 60110  1  0
 60111  1  0
 60112  1  0
 63113  1  0
 67114  1  0
 73115  1  0
 73116  1  0
 74117  1  0
 75118  1  0
M  END

