
     RDKit          3D

173196  0  0  0  0  0  0  0  0999 V2000
   15.2604   -2.2440    9.1319 C   0  0  0  0  0  0  0  0  0  0  0  0
   15.2159   -3.6321    8.9530 C   0  0  0  0  0  0  0  0  0  0  0  0
   13.9086   -4.0832    8.7916 C   0  0  0  0  0  0  0  0  0  0  0  0
   12.9745   -3.0940    8.8429 C   0  0  0  0  0  0  0  0  0  0  0  0
   13.6897   -1.5919    9.0194 S   0  0  0  0  0  0  0  0  0  0  0  0
   11.7377   -3.6117    8.3378 C   0  0  0  0  0  0  0  0  0  0  0  0
   11.9295   -4.9135    7.9832 C   0  0  0  0  0  0  0  0  0  0  0  0
   13.3385   -5.3740    8.2606 C   0  0  0  0  0  0  0  0  0  0  0  0
   10.9132   -5.4380    7.1892 C   0  0  0  0  0  0  0  0  0  0  0  0
    9.9181   -4.4792    6.9376 C   0  0  0  0  0  0  0  0  0  0  0  0
   10.3478   -2.9860    7.6471 S   0  0  0  0  0  0  0  0  0  0  0  0
    8.7307   -4.6939    6.0958 C   0  0  0  0  0  0  0  0  0  0  0  0
    7.8046   -3.7153    5.7338 C   0  0  0  0  0  0  0  0  0  0  0  0
    6.7756   -4.2130    4.9179 C   0  0  0  0  0  0  0  0  0  0  0  0
    5.6855   -3.4804    4.4096 C   0  0  0  0  0  0  0  0  0  0  0  0
    5.5620   -2.0254    4.6042 C   0  0  0  0  0  0  0  0  0  0  0  0
    6.5900   -0.8864    3.9177 S   0  0  0  0  0  0  0  0  0  0  0  0
    5.7319    0.4648    4.4339 C   0  0  0  0  0  0  0  0  0  0  0  0
    6.0631    1.8777    4.0562 C   0  0  0  0  0  0  0  0  0  0  0  0
    5.4084    2.2456    2.7294 C   0  0  0  0  0  0  0  0  0  0  0  0
    4.6032    0.0357    5.1330 C   0  0  0  0  0  0  0  0  0  0  0  0
    3.3969    1.1292    5.7948 Cl  0  0  0  0  0  0  0  0  0  0  0  0
    4.5115   -1.3603    5.2324 C   0  0  0  0  0  0  0  0  0  0  0  0
    3.2092   -2.1850    6.0775 Cl  0  0  0  0  0  0  0  0  0  0  0  0
    4.7620   -4.1827    3.6172 C   0  0  0  0  0  0  0  0  0  0  0  0
    4.9030   -5.5418    3.3171 C   0  0  0  0  0  0  0  0  0  0  0  0
    5.9836   -6.2788    3.8404 C   0  0  0  0  0  0  0  0  0  0  0  0
    6.1495   -7.7140    3.5624 C   0  0  0  0  0  0  0  0  0  0  0  0
    5.1220   -8.9212    4.1229 S   0  0  0  0  0  0  0  0  0  0  0  0
    5.9541  -10.2019    3.4166 C   0  0  0  0  0  0  0  0  0  0  0  0
    5.5166  -11.6345    3.4760 C   0  0  0  0  0  0  0  0  0  0  0  0
    4.5861  -11.9613    2.3144 C   0  0  0  0  0  0  0  0  0  0  0  0
    7.0445   -9.6934    2.7109 C   0  0  0  0  0  0  0  0  0  0  0  0
    7.1585   -8.2967    2.7987 C   0  0  0  0  0  0  0  0  0  0  0  0
    8.3987   -7.3718    1.9639 Cl  0  0  0  0  0  0  0  0  0  0  0  0
    8.1447  -10.6901    1.7701 Cl  0  0  0  0  0  0  0  0  0  0  0  0
    6.9028   -5.5788    4.6405 C   0  0  0  0  0  0  0  0  0  0  0  0
    8.2749   -6.1726    5.4127 S   0  0  0  0  0  0  0  0  0  0  0  0
    3.9206   -6.0185    2.4320 C   0  0  0  0  0  0  0  0  0  0  0  0
    3.0045   -5.0336    2.0646 C   0  0  0  0  0  0  0  0  0  0  0  0
    3.4190   -3.5760    2.8071 S   0  0  0  0  0  0  0  0  0  0  0  0
    1.9180   -5.1817    1.0912 C   0  0  0  0  0  0  0  0  0  0  0  0
    1.8977   -6.0727    0.0183 C   0  0  0  0  0  0  0  0  0  0  0  0
    0.8242   -5.8418   -0.8595 C   0  0  0  0  0  0  0  0  0  0  0  0
    0.5967   -6.4780   -2.0994 C   0  0  0  0  0  0  0  0  0  0  0  0
    1.4831   -7.5439   -2.6064 C   0  0  0  0  0  0  0  0  0  0  0  0
    3.1254   -7.3677   -2.9307 S   0  0  0  0  0  0  0  0  0  0  0  0
    3.3856   -8.9592   -3.4136 C   0  0  0  0  0  0  0  0  0  0  0  0
    4.6982   -9.5040   -3.8906 C   0  0  0  0  0  0  0  0  0  0  0  0
    4.8383   -9.3273   -5.3987 C   0  0  0  0  0  0  0  0  0  0  0  0
    2.1740   -9.6472   -3.3534 C   0  0  0  0  0  0  0  0  0  0  0  0
    1.9975  -11.3411   -3.7910 Cl  0  0  0  0  0  0  0  0  0  0  0  0
    1.1095   -8.8568   -2.8925 C   0  0  0  0  0  0  0  0  0  0  0  0
   -0.5129   -9.4831   -2.6368 Cl  0  0  0  0  0  0  0  0  0  0  0  0
   -0.4922   -6.0107   -2.8616 C   0  0  0  0  0  0  0  0  0  0  0  0
   -1.3507   -5.0045   -2.4056 C   0  0  0  0  0  0  0  0  0  0  0  0
   -1.1285   -4.3793   -1.1655 C   0  0  0  0  0  0  0  0  0  0  0  0
   -1.9535   -3.2497   -0.7043 C   0  0  0  0  0  0  0  0  0  0  0  0
   -2.9679   -3.2870    0.6351 S   0  0  0  0  0  0  0  0  0  0  0  0
   -3.5151   -1.7034    0.4829 C   0  0  0  0  0  0  0  0  0  0  0  0
   -4.4505   -1.0317    1.4405 C   0  0  0  0  0  0  0  0  0  0  0  0
   -3.6745   -0.3227    2.5436 C   0  0  0  0  0  0  0  0  0  0  0  0
   -2.8820   -1.1132   -0.6109 C   0  0  0  0  0  0  0  0  0  0  0  0
   -2.0098   -1.9829   -1.2802 C   0  0  0  0  0  0  0  0  0  0  0  0
   -1.0421   -1.5043   -2.6679 Cl  0  0  0  0  0  0  0  0  0  0  0  0
   -3.1299    0.5602   -1.0920 Cl  0  0  0  0  0  0  0  0  0  0  0  0
   -0.0210   -4.8143   -0.4258 C   0  0  0  0  0  0  0  0  0  0  0  0
    0.5921   -4.1455    0.9872 S   0  0  0  0  0  0  0  0  0  0  0  0
   -2.3385   -4.6535   -3.3326 C   0  0  0  0  0  0  0  0  0  0  0  0
   -2.2123   -5.3299   -4.5418 C   0  0  0  0  0  0  0  0  0  0  0  0
   -0.8983   -6.3909   -4.4539 S   0  0  0  0  0  0  0  0  0  0  0  0
   -2.9371   -4.9573   -5.7613 C   0  0  0  0  0  0  0  0  0  0  0  0
   -2.3132   -4.6434   -6.9708 C   0  0  0  0  0  0  0  0  0  0  0  0
   -3.1571   -3.9304   -7.8294 C   0  0  0  0  0  0  0  0  0  0  0  0
   -4.4229   -3.7257   -7.3311 C   0  0  0  0  0  0  0  0  0  0  0  0
   -4.4989   -4.2990   -5.7586 S   0  0  0  0  0  0  0  0  0  0  0  0
   -4.9175   -2.4840   -7.8663 C   0  0  0  0  0  0  0  0  0  0  0  0
   -3.9442   -1.9317   -8.6541 C   0  0  0  0  0  0  0  0  0  0  0  0
   -2.7596   -2.8451   -8.7963 C   0  0  0  0  0  0  0  0  0  0  0  0
   -3.9935   -0.5360   -8.7291 C   0  0  0  0  0  0  0  0  0  0  0  0
   -5.0557   -0.0120   -7.9808 C   0  0  0  0  0  0  0  0  0  0  0  0
   -5.8522   -1.2765   -7.1754 S   0  0  0  0  0  0  0  0  0  0  0  0
   -5.3230    1.4152   -7.7421 C   0  0  0  0  0  0  0  0  0  0  0  0
   -4.3995    2.4580   -7.9131 C   0  0  0  0  0  0  0  0  0  0  0  0
   -4.9237    3.6779   -7.4844 C   0  0  0  0  0  0  0  0  0  0  0  0
   -6.2062    3.5999   -7.0188 C   0  0  0  0  0  0  0  0  0  0  0  0
   -6.7370    2.0130   -6.9998 S   0  0  0  0  0  0  0  0  0  0  0  0
   -6.4602    4.7561   -6.2097 C   0  0  0  0  0  0  0  0  0  0  0  0
   -5.3380    5.5261   -6.1835 C   0  0  0  0  0  0  0  0  0  0  0  0
   -4.2353    4.9416   -7.0295 C   0  0  0  0  0  0  0  0  0  0  0  0
   -5.3362    6.4902   -5.1787 C   0  0  0  0  0  0  0  0  0  0  0  0
   -6.5205    6.4435   -4.4256 C   0  0  0  0  0  0  0  0  0  0  0  0
   -7.5080    5.1622   -4.9683 S   0  0  0  0  0  0  0  0  0  0  0  0
   -6.8265    7.3087   -3.2756 C   0  0  0  0  0  0  0  0  0  0  0  0
   -8.0304    7.3315   -2.5702 C   0  0  0  0  0  0  0  0  0  0  0  0
   -8.0345    8.2688   -1.5222 C   0  0  0  0  0  0  0  0  0  0  0  0
   -9.1086    8.5502   -0.6510 C   0  0  0  0  0  0  0  0  0  0  0  0
  -10.3946    7.8318   -0.7376 C   0  0  0  0  0  0  0  0  0  0  0  0
  -10.5870    6.1742   -0.5076 S   0  0  0  0  0  0  0  0  0  0  0  0
  -12.2579    6.1580   -0.7057 C   0  0  0  0  0  0  0  0  0  0  0  0
  -13.1189    4.9369   -0.5752 C   0  0  0  0  0  0  0  0  0  0  0  0
  -13.4314    4.6532    0.8893 C   0  0  0  0  0  0  0  0  0  0  0  0
  -12.6941    7.4627   -0.9322 C   0  0  0  0  0  0  0  0  0  0  0  0
  -14.3834    7.8976   -1.1532 Cl  0  0  0  0  0  0  0  0  0  0  0  0
  -11.6488    8.3988   -0.9645 C   0  0  0  0  0  0  0  0  0  0  0  0
  -11.8990   10.1013   -1.3287 Cl  0  0  0  0  0  0  0  0  0  0  0  0
   -8.8911    9.5446    0.3220 C   0  0  0  0  0  0  0  0  0  0  0  0
   -7.6889   10.2522    0.4236 C   0  0  0  0  0  0  0  0  0  0  0  0
   -6.6257    9.9866   -0.4608 C   0  0  0  0  0  0  0  0  0  0  0  0
   -5.3527   10.7283   -0.3996 C   0  0  0  0  0  0  0  0  0  0  0  0
   -3.8532   10.0343   -0.0855 S   0  0  0  0  0  0  0  0  0  0  0  0
   -2.9648   11.4562   -0.2365 C   0  0  0  0  0  0  0  0  0  0  0  0
   -1.4704   11.5359   -0.1537 C   0  0  0  0  0  0  0  0  0  0  0  0
   -0.8437   11.4046   -1.5373 C   0  0  0  0  0  0  0  0  0  0  0  0
   -3.8362   12.4951   -0.5634 C   0  0  0  0  0  0  0  0  0  0  0  0
   -5.1761   12.0870   -0.6498 C   0  0  0  0  0  0  0  0  0  0  0  0
   -6.4854   13.1659   -1.1136 Cl  0  0  0  0  0  0  0  0  0  0  0  0
   -3.3074   14.1412   -0.8803 Cl  0  0  0  0  0  0  0  0  0  0  0  0
   -6.8315    8.9772   -1.4159 C   0  0  0  0  0  0  0  0  0  0  0  0
   -5.7732    8.4514   -2.6132 S   0  0  0  0  0  0  0  0  0  0  0  0
   -7.6789   11.1706    1.4872 C   0  0  0  0  0  0  0  0  0  0  0  0
   -8.8655   11.1837    2.2135 C   0  0  0  0  0  0  0  0  0  0  0  0
   -9.9242   10.0505    1.5503 S   0  0  0  0  0  0  0  0  0  0  0  0
   16.1659   -1.6631    9.2447 H   0  0  0  0  0  0  0  0  0  0  0  0
   16.0911   -4.2619    8.8778 H   0  0  0  0  0  0  0  0  0  0  0  0
   13.3587   -6.1743    9.0299 H   0  0  0  0  0  0  0  0  0  0  0  0
   13.8477   -5.6771    7.3215 H   0  0  0  0  0  0  0  0  0  0  0  0
   10.9333   -6.4317    6.7618 H   0  0  0  0  0  0  0  0  0  0  0  0
    7.8717   -2.6835    6.0524 H   0  0  0  0  0  0  0  0  0  0  0  0
    7.1647    1.9871    3.9647 H   0  0  0  0  0  0  0  0  0  0  0  0
    5.7174    2.5742    4.8501 H   0  0  0  0  0  0  0  0  0  0  0  0
    5.8024    1.5994    1.9143 H   0  0  0  0  0  0  0  0  0  0  0  0
    4.3061    2.1233    2.7955 H   0  0  0  0  0  0  0  0  0  0  0  0
    5.6353    3.3047    2.4838 H   0  0  0  0  0  0  0  0  0  0  0  0
    6.4025  -12.3044    3.4429 H   0  0  0  0  0  0  0  0  0  0  0  0
    4.9860  -11.8172    4.4340 H   0  0  0  0  0  0  0  0  0  0  0  0
    4.2673  -13.0221    2.3835 H   0  0  0  0  0  0  0  0  0  0  0  0
    3.6819  -11.3147    2.3470 H   0  0  0  0  0  0  0  0  0  0  0  0
    5.1086  -11.8089    1.3459 H   0  0  0  0  0  0  0  0  0  0  0  0
    3.8868   -7.0322    2.0535 H   0  0  0  0  0  0  0  0  0  0  0  0
    2.6706   -6.8110   -0.1480 H   0  0  0  0  0  0  0  0  0  0  0  0
    5.5284   -8.9713   -3.3774 H   0  0  0  0  0  0  0  0  0  0  0  0
    4.7773  -10.5818   -3.6345 H   0  0  0  0  0  0  0  0  0  0  0  0
    5.8003   -9.7689   -5.7368 H   0  0  0  0  0  0  0  0  0  0  0  0
    4.0066   -9.8417   -5.9267 H   0  0  0  0  0  0  0  0  0  0  0  0
    4.8289   -8.2477   -5.6621 H   0  0  0  0  0  0  0  0  0  0  0  0
   -5.1230   -1.7903    1.8957 H   0  0  0  0  0  0  0  0  0  0  0  0
   -5.0845   -0.2976    0.8981 H   0  0  0  0  0  0  0  0  0  0  0  0
   -4.3847    0.1801    3.2329 H   0  0  0  0  0  0  0  0  0  0  0  0
   -2.9962    0.4454    2.1137 H   0  0  0  0  0  0  0  0  0  0  0  0
   -3.0761   -1.0570    3.1246 H   0  0  0  0  0  0  0  0  0  0  0  0
   -3.0659   -3.8691   -3.1684 H   0  0  0  0  0  0  0  0  0  0  0  0
   -1.2474   -4.7385   -7.1324 H   0  0  0  0  0  0  0  0  0  0  0  0
   -2.6790   -3.2401   -9.8313 H   0  0  0  0  0  0  0  0  0  0  0  0
   -1.8283   -2.3384   -8.4663 H   0  0  0  0  0  0  0  0  0  0  0  0
   -3.2329    0.0641   -9.2109 H   0  0  0  0  0  0  0  0  0  0  0  0
   -3.3713    2.3201   -8.2177 H   0  0  0  0  0  0  0  0  0  0  0  0
   -3.9904    5.6018   -7.8876 H   0  0  0  0  0  0  0  0  0  0  0  0
   -3.3438    4.7084   -6.4091 H   0  0  0  0  0  0  0  0  0  0  0  0
   -4.4985    7.1417   -4.9702 H   0  0  0  0  0  0  0  0  0  0  0  0
   -8.8741    6.7046   -2.8219 H   0  0  0  0  0  0  0  0  0  0  0  0
  -12.5890    4.0644   -1.0158 H   0  0  0  0  0  0  0  0  0  0  0  0
  -14.0680    5.0744   -1.1366 H   0  0  0  0  0  0  0  0  0  0  0  0
  -12.4948    4.4299    1.4456 H   0  0  0  0  0  0  0  0  0  0  0  0
  -13.9366    5.5267    1.3552 H   0  0  0  0  0  0  0  0  0  0  0  0
  -14.1047    3.7731    0.9618 H   0  0  0  0  0  0  0  0  0  0  0  0
   -1.0926   10.7182    0.4965 H   0  0  0  0  0  0  0  0  0  0  0  0
   -1.1676   12.5014    0.3067 H   0  0  0  0  0  0  0  0  0  0  0  0
   -1.1102   10.4254   -1.9908 H   0  0  0  0  0  0  0  0  0  0  0  0
    0.2617   11.4680   -1.4538 H   0  0  0  0  0  0  0  0  0  0  0  0
   -1.1957   12.2219   -2.2007 H   0  0  0  0  0  0  0  0  0  0  0  0
   -6.8361   11.8009    1.7367 H   0  0  0  0  0  0  0  0  0  0  0  0
   -9.0696   11.8113    3.0696 H   0  0  0  0  0  0  0  0  0  0  0  0
  1  2  2  0
  2  3  1  0
  3  4  2  0
  4  5  1  0
  4  6  1  0
  6  7  2  0
  7  8  1  0
  7  9  1  0
  9 10  2  0
 10 11  1  0
 10 12  1  0
 12 13  2  0
 13 14  1  0
 14 15  2  0
 15 16  1  0
 16 17  1  0
 17 18  1  0
 18 19  1  0
 19 20  1  0
 18 21  2  0
 21 22  1  0
 21 23  1  0
 23 24  1  0
 15 25  1  0
 25 26  2  0
 26 27  1  0
 27 28  1  0
 28 29  1  0
 29 30  1  0
 30 31  1  0
 31 32  1  0
 30 33  2  0
 33 34  1  0
 34 35  1  0
 33 36  1  0
 27 37  2  0
 37 38  1  0
 26 39  1  0
 39 40  2  0
 40 41  1  0
 40 42  1  0
 42 43  2  0
 43 44  1  0
 44 45  2  0
 45 46  1  0
 46 47  1  0
 47 48  1  0
 48 49  1  0
 49 50  1  0
 48 51  2  0
 51 52  1  0
 51 53  1  0
 53 54  1  0
 45 55  1  0
 55 56  2  0
 56 57  1  0
 57 58  1  0
 58 59  1  0
 59 60  1  0
 60 61  1  0
 61 62  1  0
 60 63  2  0
 63 64  1  0
 64 65  1  0
 63 66  1  0
 57 67  2  0
 67 68  1  0
 56 69  1  0
 69 70  2  0
 70 71  1  0
 70 72  1  0
 72 73  2  0
 73 74  1  0
 74 75  2  0
 75 76  1  0
 75 77  1  0
 77 78  2  0
 78 79  1  0
 78 80  1  0
 80 81  2  0
 81 82  1  0
 81 83  1  0
 83 84  2  0
 84 85  1  0
 85 86  2  0
 86 87  1  0
 86 88  1  0
 88 89  2  0
 89 90  1  0
 89 91  1  0
 91 92  2  0
 92 93  1  0
 92 94  1  0
 94 95  2  0
 95 96  1  0
 96 97  2  0
 97 98  1  0
 98 99  1  0
 99100  1  0
100101  1  0
101102  1  0
100103  2  0
103104  1  0
103105  1  0
105106  1  0
 97107  1  0
107108  2  0
108109  1  0
109110  1  0
110111  1  0
111112  1  0
112113  1  0
113114  1  0
112115  2  0
115116  1  0
116117  1  0
115118  1  0
109119  2  0
119120  1  0
108121  1  0
121122  2  0
122123  1  0
  5  1  1  0
 11  6  1  0
 38 12  1  0
 68 42  1  0
 76 72  1  0
 82 77  1  0
 87 83  1  0
 93 88  1  0
120 94  1  0
  8  3  1  0
 37 14  1  0
 67 44  1  0
 79 74  1  0
 90 85  1  0
119 96  1  0
 23 16  2  0
 41 25  1  0
 53 46  2  0
 71 55  1  0
105 98  2  0
123107  1  0
 34 28  2  0
 64 58  2  0
116110  2  0
  1124  1  0
  2125  1  0
  8126  1  0
  8127  1  0
  9128  1  0
 13129  1  0
 19130  1  0
 19131  1  0
 20132  1  0
 20133  1  0
 20134  1  0
 31135  1  0
 31136  1  0
 32137  1  0
 32138  1  0
 32139  1  0
 39140  1  0
 43141  1  0
 49142  1  0
 49143  1  0
 50144  1  0
 50145  1  0
 50146  1  0
 61147  1  0
 61148  1  0
 62149  1  0
 62150  1  0
 62151  1  0
 69152  1  0
 73153  1  0
 79154  1  0
 79155  1  0
 80156  1  0
 84157  1  0
 90158  1  0
 90159  1  0
 91160  1  0
 95161  1  0
101162  1  0
101163  1  0
102164  1  0
102165  1  0
102166  1  0
113167  1  0
113168  1  0
114169  1  0
114170  1  0
114171  1  0
121172  1  0
122173  1  0
M  END

