
     RDKit          3D

 87 94  0  0  0  0  0  0  0  0999 V2000
   11.2977   -0.2128   -5.0978 C   0  0  0  0  0  0  0  0  0  0  0  0
   10.2356   -1.4467   -4.6977 S   0  0  0  0  0  0  0  0  0  0  0  0
    9.4982   -0.6683   -3.4013 C   0  0  0  0  0  0  0  0  0  0  0  0
   10.0895    0.5940   -3.2457 C   0  0  0  0  0  0  0  0  0  0  0  0
   11.0846    0.8475   -4.2166 C   0  0  0  0  0  0  0  0  0  0  0  0
   11.7791    2.0646   -4.2807 O   0  0  0  0  0  0  0  0  0  0  0  0
   12.7611    2.3621   -5.2693 C   0  0  0  0  0  0  0  0  0  0  0  0
    9.6924    1.5913   -2.1799 C   0  0  0  0  0  0  0  0  0  0  0  0
   10.7172    2.4824   -1.9245 F   0  0  0  0  0  0  0  0  0  0  0  0
    8.5816    2.2969   -2.6032 F   0  0  0  0  0  0  0  0  0  0  0  0
    9.4003    0.9390   -0.9958 F   0  0  0  0  0  0  0  0  0  0  0  0
    8.3560   -1.2269   -2.6528 C   0  0  0  0  0  0  0  0  0  0  0  0
    6.9293   -0.4004   -2.3397 S   0  0  0  0  0  0  0  0  0  0  0  0
    6.0592   -1.7085   -1.7424 C   0  0  0  0  0  0  0  0  0  0  0  0
    6.8884   -2.8440   -1.7615 C   0  0  0  0  0  0  0  0  0  0  0  0
    8.1662   -2.5651   -2.2959 C   0  0  0  0  0  0  0  0  0  0  0  0
    9.1423   -3.5531   -2.4572 O   0  0  0  0  0  0  0  0  0  0  0  0
   10.3950   -3.4954   -1.7835 C   0  0  0  0  0  0  0  0  0  0  0  0
    6.4848   -4.2169   -1.2808 C   0  0  0  0  0  0  0  0  0  0  0  0
    5.6016   -4.1305   -0.2189 F   0  0  0  0  0  0  0  0  0  0  0  0
    5.8911   -4.9112   -2.3195 F   0  0  0  0  0  0  0  0  0  0  0  0
    7.5887   -4.9275   -0.8405 F   0  0  0  0  0  0  0  0  0  0  0  0
    4.6458   -1.6096   -1.3372 C   0  0  0  0  0  0  0  0  0  0  0  0
    3.6460   -2.5635   -1.5966 C   0  0  0  0  0  0  0  0  0  0  0  0
    2.4099   -2.1302   -1.1286 C   0  0  0  0  0  0  0  0  0  0  0  0
    2.4385   -0.8989   -0.5544 C   0  0  0  0  0  0  0  0  0  0  0  0
    3.9705   -0.2312   -0.5856 S   0  0  0  0  0  0  0  0  0  0  0  0
    1.1027   -0.5406   -0.1843 C   0  0  0  0  0  0  0  0  0  0  0  0
    0.2731   -1.5612   -0.5281 C   0  0  0  0  0  0  0  0  0  0  0  0
    1.0152   -2.7041   -1.1783 C   0  0  0  0  0  0  0  0  0  0  0  0
   -1.0618   -1.3354   -0.2081 C   0  0  0  0  0  0  0  0  0  0  0  0
   -1.2318   -0.0735    0.3833 C   0  0  0  0  0  0  0  0  0  0  0  0
    0.2738    0.7270    0.5233 S   0  0  0  0  0  0  0  0  0  0  0  0
   -2.5201    0.4543    0.8627 C   0  0  0  0  0  0  0  0  0  0  0  0
   -3.7859   -0.4986    1.4144 S   0  0  0  0  0  0  0  0  0  0  0  0
   -4.8126    0.7555    1.8618 C   0  0  0  0  0  0  0  0  0  0  0  0
   -4.1925    1.9756    1.5325 C   0  0  0  0  0  0  0  0  0  0  0  0
   -2.8985    1.7915    0.9936 C   0  0  0  0  0  0  0  0  0  0  0  0
   -2.0846    2.8605    0.6109 O   0  0  0  0  0  0  0  0  0  0  0  0
   -1.8043    3.1378   -0.7579 C   0  0  0  0  0  0  0  0  0  0  0  0
   -4.8185    3.3441    1.6803 C   0  0  0  0  0  0  0  0  0  0  0  0
   -4.3966    3.9195    2.8658 F   0  0  0  0  0  0  0  0  0  0  0  0
   -6.1971    3.2719    1.6676 F   0  0  0  0  0  0  0  0  0  0  0  0
   -4.4410    4.1633    0.6307 F   0  0  0  0  0  0  0  0  0  0  0  0
   -6.1495    0.5208    2.4404 C   0  0  0  0  0  0  0  0  0  0  0  0
   -7.2116   -0.6411    1.8741 S   0  0  0  0  0  0  0  0  0  0  0  0
   -8.4890   -0.3131    2.9214 C   0  0  0  0  0  0  0  0  0  0  0  0
   -8.0984    0.7653    3.7469 C   0  0  0  0  0  0  0  0  0  0  0  0
   -6.7624    1.1728    3.5131 C   0  0  0  0  0  0  0  0  0  0  0  0
   -6.1134    2.1145    4.3181 O   0  0  0  0  0  0  0  0  0  0  0  0
   -4.9442    1.7943    5.0648 C   0  0  0  0  0  0  0  0  0  0  0  0
   -8.9795    1.4120    4.7928 C   0  0  0  0  0  0  0  0  0  0  0  0
   -8.4837    2.6426    5.1809 F   0  0  0  0  0  0  0  0  0  0  0  0
  -10.2479    1.6194    4.2800 F   0  0  0  0  0  0  0  0  0  0  0  0
   -9.0519    0.5975    5.9070 F   0  0  0  0  0  0  0  0  0  0  0  0
   -9.7457   -1.1093    2.9573 C   0  0  0  0  0  0  0  0  0  0  0  0
  -10.7878   -1.2613    4.2720 S   0  0  0  0  0  0  0  0  0  0  0  0
  -11.8652   -2.3443    3.5814 C   0  0  0  0  0  0  0  0  0  0  0  0
  -11.4283   -2.6286    2.2912 C   0  0  0  0  0  0  0  0  0  0  0  0
  -10.2203   -1.9696    1.9571 C   0  0  0  0  0  0  0  0  0  0  0  0
   -9.5575   -2.1423    0.7376 O   0  0  0  0  0  0  0  0  0  0  0  0
   -8.8690   -3.3482    0.4199 C   0  0  0  0  0  0  0  0  0  0  0  0
  -12.1677   -3.5768    1.3858 C   0  0  0  0  0  0  0  0  0  0  0  0
  -11.6996   -4.8617    1.5871 F   0  0  0  0  0  0  0  0  0  0  0  0
  -13.5223   -3.5456    1.6635 F   0  0  0  0  0  0  0  0  0  0  0  0
  -11.9939   -3.2240    0.0595 F   0  0  0  0  0  0  0  0  0  0  0  0
   12.0119   -0.2398   -5.9105 H   0  0  0  0  0  0  0  0  0  0  0  0
   13.6083    1.6506   -5.1888 H   0  0  0  0  0  0  0  0  0  0  0  0
   12.3122    2.3065   -6.2826 H   0  0  0  0  0  0  0  0  0  0  0  0
   13.1438    3.3914   -5.1057 H   0  0  0  0  0  0  0  0  0  0  0  0
   11.0022   -4.3756   -2.0763 H   0  0  0  0  0  0  0  0  0  0  0  0
   10.9522   -2.5717   -2.0495 H   0  0  0  0  0  0  0  0  0  0  0  0
   10.2329   -3.5181   -0.6820 H   0  0  0  0  0  0  0  0  0  0  0  0
    3.7949   -3.4946   -2.1244 H   0  0  0  0  0  0  0  0  0  0  0  0
    0.6787   -2.8519   -2.2242 H   0  0  0  0  0  0  0  0  0  0  0  0
    0.9440   -3.6310   -0.5749 H   0  0  0  0  0  0  0  0  0  0  0  0
   -1.8586   -2.0427   -0.4022 H   0  0  0  0  0  0  0  0  0  0  0  0
   -1.0060    3.9069   -0.8180 H   0  0  0  0  0  0  0  0  0  0  0  0
   -1.4646    2.2241   -1.2863 H   0  0  0  0  0  0  0  0  0  0  0  0
   -2.7128    3.5221   -1.2610 H   0  0  0  0  0  0  0  0  0  0  0  0
   -5.1628    0.9628    5.7685 H   0  0  0  0  0  0  0  0  0  0  0  0
   -4.1100    1.5009    4.3976 H   0  0  0  0  0  0  0  0  0  0  0  0
   -4.6327    2.6833    5.6486 H   0  0  0  0  0  0  0  0  0  0  0  0
  -12.7454   -2.7478    4.0646 H   0  0  0  0  0  0  0  0  0  0  0  0
   -9.5735   -4.1967    0.3630 H   0  0  0  0  0  0  0  0  0  0  0  0
   -8.0987   -3.5587    1.1896 H   0  0  0  0  0  0  0  0  0  0  0  0
   -8.3763   -3.2309   -0.5664 H   0  0  0  0  0  0  0  0  0  0  0  0
  1  2  1  0
  2  3  1  0
  3  4  2  0
  4  5  1  0
  5  6  1  0
  6  7  1  0
  4  8  1  0
  8  9  1  0
  8 10  1  0
  8 11  1  0
  3 12  1  0
 12 13  1  0
 13 14  1  0
 14 15  2  0
 15 16  1  0
 16 17  1  0
 17 18  1  0
 15 19  1  0
 19 20  1  0
 19 21  1  0
 19 22  1  0
 14 23  1  0
 23 24  2  0
 24 25  1  0
 25 26  2  0
 26 27  1  0
 26 28  1  0
 28 29  2  0
 29 30  1  0
 29 31  1  0
 31 32  2  0
 32 33  1  0
 32 34  1  0
 34 35  1  0
 35 36  1  0
 36 37  2  0
 37 38  1  0
 38 39  1  0
 39 40  1  0
 37 41  1  0
 41 42  1  0
 41 43  1  0
 41 44  1  0
 36 45  1  0
 45 46  1  0
 46 47  1  0
 47 48  2  0
 48 49  1  0
 49 50  1  0
 50 51  1  0
 48 52  1  0
 52 53  1  0
 52 54  1  0
 52 55  1  0
 47 56  1  0
 56 57  1  0
 57 58  1  0
 58 59  2  0
 59 60  1  0
 60 61  1  0
 61 62  1  0
 59 63  1  0
 63 64  1  0
 63 65  1  0
 63 66  1  0
  5  1  2  0
 16 12  2  0
 27 23  1  0
 33 28  1  0
 38 34  2  0
 49 45  2  0
 60 56  2  0
 30 25  1  0
  1 67  1  0
  7 68  1  0
  7 69  1  0
  7 70  1  0
 18 71  1  0
 18 72  1  0
 18 73  1  0
 24 74  1  0
 30 75  1  0
 30 76  1  0
 31 77  1  0
 40 78  1  0
 40 79  1  0
 40 80  1  0
 51 81  1  0
 51 82  1  0
 51 83  1  0
 58 84  1  0
 62 85  1  0
 62 86  1  0
 62 87  1  0
M  END

