
     RDKit          3D

227254  0  0  0  0  0  0  0  0999 V2000
   -0.2644  -11.5818    7.5899 C   0  0  0  0  0  0  0  0  0  0  0  0
    0.5201  -10.7385    6.8089 C   0  0  0  0  0  0  0  0  0  0  0  0
   -0.2192  -10.0174    5.8557 C   0  0  0  0  0  0  0  0  0  0  0  0
    0.2954   -9.1043    4.9117 C   0  0  0  0  0  0  0  0  0  0  0  0
    1.7356   -8.8132    4.8166 C   0  0  0  0  0  0  0  0  0  0  0  0
    2.6429   -8.0266    5.9938 S   0  0  0  0  0  0  0  0  0  0  0  0
    4.1076   -8.1043    5.1670 C   0  0  0  0  0  0  0  0  0  0  0  0
    5.3948   -7.5127    5.6547 C   0  0  0  0  0  0  0  0  0  0  0  0
    5.6375   -6.1480    5.0165 C   0  0  0  0  0  0  0  0  0  0  0  0
    3.8988   -8.7425    3.9443 C   0  0  0  0  0  0  0  0  0  0  0  0
    5.1718   -9.0303    2.7636 Cl  0  0  0  0  0  0  0  0  0  0  0  0
    2.5687   -9.1429    3.7497 C   0  0  0  0  0  0  0  0  0  0  0  0
    2.0171  -10.0112    2.3212 Cl  0  0  0  0  0  0  0  0  0  0  0  0
   -0.6261   -8.5126    4.0293 C   0  0  0  0  0  0  0  0  0  0  0  0
   -1.9892   -8.8267    4.0443 C   0  0  0  0  0  0  0  0  0  0  0  0
   -2.5042   -9.7333    4.9934 C   0  0  0  0  0  0  0  0  0  0  0  0
   -3.9453  -10.0232    5.0900 C   0  0  0  0  0  0  0  0  0  0  0  0
   -4.8575  -10.8031    3.9096 S   0  0  0  0  0  0  0  0  0  0  0  0
   -6.3270  -10.7041    4.7269 C   0  0  0  0  0  0  0  0  0  0  0  0
   -7.6437  -11.1624    4.1788 C   0  0  0  0  0  0  0  0  0  0  0  0
   -8.2500  -10.0952    3.2694 C   0  0  0  0  0  0  0  0  0  0  0  0
   -6.1235  -10.0273    5.9307 C   0  0  0  0  0  0  0  0  0  0  0  0
   -4.7863   -9.6586    6.1401 C   0  0  0  0  0  0  0  0  0  0  0  0
   -4.2423   -8.7492    7.5456 Cl  0  0  0  0  0  0  0  0  0  0  0  0
   -7.4122   -9.6476    7.0659 Cl  0  0  0  0  0  0  0  0  0  0  0  0
   -1.5850  -10.3083    5.8897 C   0  0  0  0  0  0  0  0  0  0  0  0
   -1.8719  -11.4445    7.0980 S   0  0  0  0  0  0  0  0  0  0  0  0
   -2.7227   -8.1347    3.0692 C   0  0  0  0  0  0  0  0  0  0  0  0
   -1.9362   -7.2624    2.3244 C   0  0  0  0  0  0  0  0  0  0  0  0
   -0.3378   -7.3446    2.8494 S   0  0  0  0  0  0  0  0  0  0  0  0
   -2.4073   -6.4684    1.1892 C   0  0  0  0  0  0  0  0  0  0  0  0
   -2.1051   -5.1292    0.9460 C   0  0  0  0  0  0  0  0  0  0  0  0
   -2.6969   -4.6472   -0.2359 C   0  0  0  0  0  0  0  0  0  0  0  0
   -2.6164   -3.3347   -0.7474 C   0  0  0  0  0  0  0  0  0  0  0  0
   -1.9748   -2.2239   -0.0080 C   0  0  0  0  0  0  0  0  0  0  0  0
   -0.8532   -1.1500   -0.6649 S   0  0  0  0  0  0  0  0  0  0  0  0
   -0.8210   -0.0811    0.6309 C   0  0  0  0  0  0  0  0  0  0  0  0
   -0.1105    1.2419    0.6340 C   0  0  0  0  0  0  0  0  0  0  0  0
   -1.0292    2.3519    0.1313 C   0  0  0  0  0  0  0  0  0  0  0  0
   -1.7113   -0.5422    1.5979 C   0  0  0  0  0  0  0  0  0  0  0  0
   -2.0557    0.3341    3.0836 Cl  0  0  0  0  0  0  0  0  0  0  0  0
   -2.3596   -1.7363    1.2432 C   0  0  0  0  0  0  0  0  0  0  0  0
   -3.6385   -2.4492    2.2190 Cl  0  0  0  0  0  0  0  0  0  0  0  0
   -3.2387   -3.1089   -1.9899 C   0  0  0  0  0  0  0  0  0  0  0  0
   -3.9074   -4.1086   -2.7099 C   0  0  0  0  0  0  0  0  0  0  0  0
   -4.0073   -5.4063   -2.1795 C   0  0  0  0  0  0  0  0  0  0  0  0
   -4.6561   -6.4987   -2.9171 C   0  0  0  0  0  0  0  0  0  0  0  0
   -3.9736   -7.2947   -4.2300 S   0  0  0  0  0  0  0  0  0  0  0  0
   -5.1980   -8.4374   -4.3969 C   0  0  0  0  0  0  0  0  0  0  0  0
   -5.2083   -9.5235   -5.4297 C   0  0  0  0  0  0  0  0  0  0  0  0
   -5.5510   -8.9604   -6.8054 C   0  0  0  0  0  0  0  0  0  0  0  0
   -6.1659   -8.2018   -3.4190 C   0  0  0  0  0  0  0  0  0  0  0  0
   -5.8556   -7.1190   -2.5833 C   0  0  0  0  0  0  0  0  0  0  0  0
   -6.8761   -6.5946   -1.2533 Cl  0  0  0  0  0  0  0  0  0  0  0  0
   -7.6288   -9.1627   -3.2419 Cl  0  0  0  0  0  0  0  0  0  0  0  0
   -3.4054   -5.6368   -0.9324 C   0  0  0  0  0  0  0  0  0  0  0  0
   -3.3594   -7.0759   -0.0623 S   0  0  0  0  0  0  0  0  0  0  0  0
   -4.4639   -3.6514   -3.9221 C   0  0  0  0  0  0  0  0  0  0  0  0
   -4.2362   -2.2932   -4.1236 C   0  0  0  0  0  0  0  0  0  0  0  0
   -3.3625   -1.6643   -2.8315 S   0  0  0  0  0  0  0  0  0  0  0  0
   -4.6550   -1.4642   -5.2529 C   0  0  0  0  0  0  0  0  0  0  0  0
   -5.6114   -0.4660   -5.0743 C   0  0  0  0  0  0  0  0  0  0  0  0
   -5.3164    0.7330   -5.7501 C   0  0  0  0  0  0  0  0  0  0  0  0
   -5.9504    1.9764   -5.5419 C   0  0  0  0  0  0  0  0  0  0  0  0
   -7.1603    2.1149   -4.7062 C   0  0  0  0  0  0  0  0  0  0  0  0
   -7.2635    1.7606   -3.0628 S   0  0  0  0  0  0  0  0  0  0  0  0
   -8.8871    2.1664   -2.8957 C   0  0  0  0  0  0  0  0  0  0  0  0
   -9.6842    1.9699   -1.6424 C   0  0  0  0  0  0  0  0  0  0  0  0
  -10.3469    0.5970   -1.6351 C   0  0  0  0  0  0  0  0  0  0  0  0
   -9.3738    2.5823   -4.1356 C   0  0  0  0  0  0  0  0  0  0  0  0
  -11.0450    3.0505   -4.4181 Cl  0  0  0  0  0  0  0  0  0  0  0  0
   -8.3992    2.5711   -5.1457 C   0  0  0  0  0  0  0  0  0  0  0  0
   -8.7220    3.0308   -6.8133 Cl  0  0  0  0  0  0  0  0  0  0  0  0
   -5.2816    3.1151   -6.0211 C   0  0  0  0  0  0  0  0  0  0  0  0
   -4.0868    3.0397   -6.7428 C   0  0  0  0  0  0  0  0  0  0  0  0
   -3.5305    1.7881   -7.0764 C   0  0  0  0  0  0  0  0  0  0  0  0
   -2.2515    1.6858   -7.8122 C   0  0  0  0  0  0  0  0  0  0  0  0
   -0.8472    0.9507   -7.2412 S   0  0  0  0  0  0  0  0  0  0  0  0
    0.0885    1.2506   -8.6035 C   0  0  0  0  0  0  0  0  0  0  0  0
    1.4782    0.7301   -8.8096 C   0  0  0  0  0  0  0  0  0  0  0  0
    1.4490   -0.6260   -9.5064 C   0  0  0  0  0  0  0  0  0  0  0  0
   -0.6943    1.9271   -9.5391 C   0  0  0  0  0  0  0  0  0  0  0  0
   -2.0005    2.1785   -9.0921 C   0  0  0  0  0  0  0  0  0  0  0  0
   -3.2128    2.9881  -10.0779 Cl  0  0  0  0  0  0  0  0  0  0  0  0
   -0.1143    2.3893  -11.1363 Cl  0  0  0  0  0  0  0  0  0  0  0  0
   -4.1521    0.6532   -6.5201 C   0  0  0  0  0  0  0  0  0  0  0  0
   -3.5007   -0.8852   -6.3333 S   0  0  0  0  0  0  0  0  0  0  0  0
   -3.3970    4.2637   -6.7974 C   0  0  0  0  0  0  0  0  0  0  0  0
   -4.0006    5.2804   -6.0507 C   0  0  0  0  0  0  0  0  0  0  0  0
   -5.4625    4.6824   -5.4447 S   0  0  0  0  0  0  0  0  0  0  0  0
   -3.1975    6.2862   -5.3245 C   0  0  0  0  0  0  0  0  0  0  0  0
   -3.3389    6.4820   -3.9481 C   0  0  0  0  0  0  0  0  0  0  0  0
   -2.1498    6.8643   -3.3093 C   0  0  0  0  0  0  0  0  0  0  0  0
   -1.9283    6.8186   -1.9173 C   0  0  0  0  0  0  0  0  0  0  0  0
   -3.0370    6.6018   -0.9658 C   0  0  0  0  0  0  0  0  0  0  0  0
   -3.1591    5.3113    0.1119 S   0  0  0  0  0  0  0  0  0  0  0  0
   -4.6375    5.7664    0.7732 C   0  0  0  0  0  0  0  0  0  0  0  0
   -5.3714    4.9921    1.8271 C   0  0  0  0  0  0  0  0  0  0  0  0
   -6.3689    4.0291    1.1934 C   0  0  0  0  0  0  0  0  0  0  0  0
   -5.0745    6.9280    0.1371 C   0  0  0  0  0  0  0  0  0  0  0  0
   -6.5979    7.7242    0.5084 Cl  0  0  0  0  0  0  0  0  0  0  0  0
   -4.1748    7.3990   -0.8326 C   0  0  0  0  0  0  0  0  0  0  0  0
   -4.4446    8.8729   -1.7542 Cl  0  0  0  0  0  0  0  0  0  0  0  0
   -0.5878    6.8435   -1.4909 C   0  0  0  0  0  0  0  0  0  0  0  0
    0.4873    7.0048   -2.3748 C   0  0  0  0  0  0  0  0  0  0  0  0
    0.2511    7.1673   -3.7581 C   0  0  0  0  0  0  0  0  0  0  0  0
    1.3409    7.3553   -4.7365 C   0  0  0  0  0  0  0  0  0  0  0  0
    2.6116    6.2836   -5.0168 S   0  0  0  0  0  0  0  0  0  0  0  0
    3.3621    7.2032   -6.2089 C   0  0  0  0  0  0  0  0  0  0  0  0
    4.6785    6.8671   -6.8442 C   0  0  0  0  0  0  0  0  0  0  0  0
    5.8311    7.4370   -6.0233 C   0  0  0  0  0  0  0  0  0  0  0  0
    2.6297    8.3739   -6.3996 C   0  0  0  0  0  0  0  0  0  0  0  0
    1.4904    8.4521   -5.5843 C   0  0  0  0  0  0  0  0  0  0  0  0
    0.3990    9.8307   -5.5844 Cl  0  0  0  0  0  0  0  0  0  0  0  0
    3.0960    9.6410   -7.5279 Cl  0  0  0  0  0  0  0  0  0  0  0  0
   -1.0830    7.0474   -4.1921 C   0  0  0  0  0  0  0  0  0  0  0  0
   -1.6128    6.6928   -5.7491 S   0  0  0  0  0  0  0  0  0  0  0  0
    1.7388    6.8212   -1.7534 C   0  0  0  0  0  0  0  0  0  0  0  0
    1.6410    6.4785   -0.4050 C   0  0  0  0  0  0  0  0  0  0  0  0
    0.0148    6.4503    0.0271 S   0  0  0  0  0  0  0  0  0  0  0  0
    2.6398    5.6712    0.2935 C   0  0  0  0  0  0  0  0  0  0  0  0
    3.8167    6.1187    0.8918 C   0  0  0  0  0  0  0  0  0  0  0  0
    4.5418    5.0676    1.4914 C   0  0  0  0  0  0  0  0  0  0  0  0
    5.7378    5.1809    2.2306 C   0  0  0  0  0  0  0  0  0  0  0  0
    6.4086    6.4750    2.4319 C   0  0  0  0  0  0  0  0  0  0  0  0
    7.1833    7.3498    1.2202 S   0  0  0  0  0  0  0  0  0  0  0  0
    7.7654    8.5689    2.2264 C   0  0  0  0  0  0  0  0  0  0  0  0
    8.6745    9.6792    1.7868 C   0  0  0  0  0  0  0  0  0  0  0  0
   10.1306    9.3134    2.0478 C   0  0  0  0  0  0  0  0  0  0  0  0
    7.3704    8.2925    3.5372 C   0  0  0  0  0  0  0  0  0  0  0  0
    7.7985    9.2997    4.9144 Cl  0  0  0  0  0  0  0  0  0  0  0  0
    6.6083    7.1196    3.6520 C   0  0  0  0  0  0  0  0  0  0  0  0
    5.9542    6.5351    5.1771 Cl  0  0  0  0  0  0  0  0  0  0  0  0
    6.2698    3.9949    2.7679 C   0  0  0  0  0  0  0  0  0  0  0  0
    5.6612    2.7467    2.5976 C   0  0  0  0  0  0  0  0  0  0  0  0
    4.4689    2.6324    1.8622 C   0  0  0  0  0  0  0  0  0  0  0  0
    3.8169    1.3313    1.6280 C   0  0  0  0  0  0  0  0  0  0  0  0
    3.0214    0.4242    2.8020 S   0  0  0  0  0  0  0  0  0  0  0  0
    2.5481   -0.8216    1.7702 C   0  0  0  0  0  0  0  0  0  0  0  0
    1.7684   -2.0337    2.1836 C   0  0  0  0  0  0  0  0  0  0  0  0
    2.6979   -3.1333    2.6887 C   0  0  0  0  0  0  0  0  0  0  0  0
    3.0364   -0.5506    0.4907 C   0  0  0  0  0  0  0  0  0  0  0  0
    3.7319    0.6662    0.4080 C   0  0  0  0  0  0  0  0  0  0  0  0
    4.4538    1.2727   -1.0766 Cl  0  0  0  0  0  0  0  0  0  0  0  0
    2.8019   -1.6152   -0.8909 Cl  0  0  0  0  0  0  0  0  0  0  0  0
    3.9330    3.8161    1.3317 C   0  0  0  0  0  0  0  0  0  0  0  0
    2.5001    4.0035    0.4796 S   0  0  0  0  0  0  0  0  0  0  0  0
    6.3759    1.6928    3.1902 C   0  0  0  0  0  0  0  0  0  0  0  0
    7.5382    2.1202    3.8333 C   0  0  0  0  0  0  0  0  0  0  0  0
    7.6888    3.7923    3.6506 S   0  0  0  0  0  0  0  0  0  0  0  0
    8.4878    1.2606    4.5592 C   0  0  0  0  0  0  0  0  0  0  0  0
    8.3363   -0.1208    4.7746 C   0  0  0  0  0  0  0  0  0  0  0  0
    9.3928   -0.6299    5.5242 C   0  0  0  0  0  0  0  0  0  0  0  0
   10.3204    0.3017    5.8743 C   0  0  0  0  0  0  0  0  0  0  0  0
    9.8994    1.8287    5.3400 S   0  0  0  0  0  0  0  0  0  0  0  0
   11.2282   -0.2927    6.8090 C   0  0  0  0  0  0  0  0  0  0  0  0
   10.8452   -1.5816    7.0173 C   0  0  0  0  0  0  0  0  0  0  0  0
    9.6300   -1.9548    6.2039 C   0  0  0  0  0  0  0  0  0  0  0  0
   11.5372   -2.2148    8.0458 C   0  0  0  0  0  0  0  0  0  0  0  0
   12.4788   -1.3546    8.6280 C   0  0  0  0  0  0  0  0  0  0  0  0
   12.4107    0.1822    7.8928 S   0  0  0  0  0  0  0  0  0  0  0  0
    0.1024  -12.2236    8.3774 H   0  0  0  0  0  0  0  0  0  0  0  0
    1.5938  -10.6649    6.9271 H   0  0  0  0  0  0  0  0  0  0  0  0
    5.3540   -7.3945    6.7567 H   0  0  0  0  0  0  0  0  0  0  0  0
    6.2398   -8.1932    5.4134 H   0  0  0  0  0  0  0  0  0  0  0  0
    4.8196   -5.4459    5.2865 H   0  0  0  0  0  0  0  0  0  0  0  0
    6.5979   -5.7326    5.3877 H   0  0  0  0  0  0  0  0  0  0  0  0
    5.6908   -6.2381    3.9116 H   0  0  0  0  0  0  0  0  0  0  0  0
   -8.3462  -11.3832    5.0109 H   0  0  0  0  0  0  0  0  0  0  0  0
   -7.4985  -12.1001    3.6005 H   0  0  0  0  0  0  0  0  0  0  0  0
   -9.2983  -10.3698    3.0229 H   0  0  0  0  0  0  0  0  0  0  0  0
   -8.2392   -9.0995    3.7608 H   0  0  0  0  0  0  0  0  0  0  0  0
   -7.6726  -10.0414    2.3238 H   0  0  0  0  0  0  0  0  0  0  0  0
   -3.7868   -8.2488    2.9147 H   0  0  0  0  0  0  0  0  0  0  0  0
   -1.4936   -4.5272    1.6072 H   0  0  0  0  0  0  0  0  0  0  0  0
    0.2342    1.4793    1.6635 H   0  0  0  0  0  0  0  0  0  0  0  0
    0.7829    1.1864   -0.0229 H   0  0  0  0  0  0  0  0  0  0  0  0
   -1.2757    2.1924   -0.9391 H   0  0  0  0  0  0  0  0  0  0  0  0
   -1.9666    2.3784    0.7255 H   0  0  0  0  0  0  0  0  0  0  0  0
   -0.5145    3.3274    0.2353 H   0  0  0  0  0  0  0  0  0  0  0  0
   -4.2047  -10.0021   -5.4655 H   0  0  0  0  0  0  0  0  0  0  0  0
   -5.9464  -10.3093   -5.1610 H   0  0  0  0  0  0  0  0  0  0  0  0
   -6.5688   -8.5143   -6.7916 H   0  0  0  0  0  0  0  0  0  0  0  0
   -5.5329   -9.7804   -7.5502 H   0  0  0  0  0  0  0  0  0  0  0  0
   -4.8113   -8.1853   -7.1030 H   0  0  0  0  0  0  0  0  0  0  0  0
   -5.0188   -4.2736   -4.6097 H   0  0  0  0  0  0  0  0  0  0  0  0
   -6.3851   -0.5525   -4.3252 H   0  0  0  0  0  0  0  0  0  0  0  0
  -10.4629    2.7589   -1.5581 H   0  0  0  0  0  0  0  0  0  0  0  0
   -9.0093    2.0564   -0.7632 H   0  0  0  0  0  0  0  0  0  0  0  0
  -11.1000    0.5307   -2.4511 H   0  0  0  0  0  0  0  0  0  0  0  0
   -9.5849   -0.2023   -1.7778 H   0  0  0  0  0  0  0  0  0  0  0  0
  -10.8596    0.4257   -0.6616 H   0  0  0  0  0  0  0  0  0  0  0  0
    2.0656    1.4500   -9.4187 H   0  0  0  0  0  0  0  0  0  0  0  0
    1.9823    0.6275   -7.8249 H   0  0  0  0  0  0  0  0  0  0  0  0
    0.8874   -1.3626   -8.8927 H   0  0  0  0  0  0  0  0  0  0  0  0
    0.9644   -0.5363  -10.5023 H   0  0  0  0  0  0  0  0  0  0  0  0
    2.4866   -0.9961   -9.6454 H   0  0  0  0  0  0  0  0  0  0  0  0
   -2.3862    4.3421   -7.1743 H   0  0  0  0  0  0  0  0  0  0  0  0
   -4.2158    6.1660   -3.3991 H   0  0  0  0  0  0  0  0  0  0  0  0
   -4.6391    4.4182    2.4376 H   0  0  0  0  0  0  0  0  0  0  0  0
   -5.9062    5.6935    2.5056 H   0  0  0  0  0  0  0  0  0  0  0  0
   -5.8522    3.3469    0.4847 H   0  0  0  0  0  0  0  0  0  0  0  0
   -6.8508    3.4208    1.9852 H   0  0  0  0  0  0  0  0  0  0  0  0
   -7.1530    4.5959    0.6480 H   0  0  0  0  0  0  0  0  0  0  0  0
    4.7855    5.7642   -6.9158 H   0  0  0  0  0  0  0  0  0  0  0  0
    4.7205    7.2822   -7.8723 H   0  0  0  0  0  0  0  0  0  0  0  0
    5.8300    6.9985   -5.0004 H   0  0  0  0  0  0  0  0  0  0  0  0
    5.7420    8.5425   -5.9468 H   0  0  0  0  0  0  0  0  0  0  0  0
    6.7970    7.1924   -6.5145 H   0  0  0  0  0  0  0  0  0  0  0  0
    2.6780    6.8011   -2.2849 H   0  0  0  0  0  0  0  0  0  0  0  0
    4.1189    7.1574    0.9131 H   0  0  0  0  0  0  0  0  0  0  0  0
    8.5326    9.8633    0.7019 H   0  0  0  0  0  0  0  0  0  0  0  0
    8.4200   10.6129    2.3314 H   0  0  0  0  0  0  0  0  0  0  0  0
   10.7862   10.1504    1.7284 H   0  0  0  0  0  0  0  0  0  0  0  0
   10.4073    8.4049    1.4697 H   0  0  0  0  0  0  0  0  0  0  0  0
   10.3012    9.1231    3.1296 H   0  0  0  0  0  0  0  0  0  0  0  0
    1.0492   -1.7567    2.9833 H   0  0  0  0  0  0  0  0  0  0  0  0
    1.1843   -2.4148    1.3215 H   0  0  0  0  0  0  0  0  0  0  0  0
    3.1040   -2.8619    3.6849 H   0  0  0  0  0  0  0  0  0  0  0  0
    2.1245   -4.0789    2.7906 H   0  0  0  0  0  0  0  0  0  0  0  0
    3.5331   -3.2983    1.9741 H   0  0  0  0  0  0  0  0  0  0  0  0
    6.0635    0.6604    3.1449 H   0  0  0  0  0  0  0  0  0  0  0  0
    7.4910   -0.7125    4.4508 H   0  0  0  0  0  0  0  0  0  0  0  0
    9.8657   -2.7504    5.4645 H   0  0  0  0  0  0  0  0  0  0  0  0
    8.7760   -2.2222    6.8634 H   0  0  0  0  0  0  0  0  0  0  0  0
   11.3418   -3.2252    8.3810 H   0  0  0  0  0  0  0  0  0  0  0  0
   13.1247   -1.6216    9.4558 H   0  0  0  0  0  0  0  0  0  0  0  0
  1  2  2  0
  2  3  1  0
  3  4  2  0
  4  5  1  0
  5  6  1  0
  6  7  1  0
  7  8  1  0
  8  9  1  0
  7 10  2  0
 10 11  1  0
 10 12  1  0
 12 13  1  0
  4 14  1  0
 14 15  2  0
 15 16  1  0
 16 17  1  0
 17 18  1  0
 18 19  1  0
 19 20  1  0
 20 21  1  0
 19 22  2  0
 22 23  1  0
 23 24  1  0
 22 25  1  0
 16 26  2  0
 26 27  1  0
 15 28  1  0
 28 29  2  0
 29 30  1  0
 29 31  1  0
 31 32  2  0
 32 33  1  0
 33 34  2  0
 34 35  1  0
 35 36  1  0
 36 37  1  0
 37 38  1  0
 38 39  1  0
 37 40  2  0
 40 41  1  0
 40 42  1  0
 42 43  1  0
 34 44  1  0
 44 45  2  0
 45 46  1  0
 46 47  1  0
 47 48  1  0
 48 49  1  0
 49 50  1  0
 50 51  1  0
 49 52  2  0
 52 53  1  0
 53 54  1  0
 52 55  1  0
 46 56  2  0
 56 57  1  0
 45 58  1  0
 58 59  2  0
 59 60  1  0
 59 61  1  0
 61 62  2  0
 62 63  1  0
 63 64  2  0
 64 65  1  0
 65 66  1  0
 66 67  1  0
 67 68  1  0
 68 69  1  0
 67 70  2  0
 70 71  1  0
 70 72  1  0
 72 73  1  0
 64 74  1  0
 74 75  2  0
 75 76  1  0
 76 77  1  0
 77 78  1  0
 78 79  1  0
 79 80  1  0
 80 81  1  0
 79 82  2  0
 82 83  1  0
 83 84  1  0
 82 85  1  0
 76 86  2  0
 86 87  1  0
 75 88  1  0
 88 89  2  0
 89 90  1  0
 89 91  1  0
 91 92  2  0
 92 93  1  0
 93 94  2  0
 94 95  1  0
 95 96  1  0
 96 97  1  0
 97 98  1  0
 98 99  1  0
 97100  2  0
100101  1  0
100102  1  0
102103  1  0
 94104  1  0
104105  2  0
105106  1  0
106107  1  0
107108  1  0
108109  1  0
109110  1  0
110111  1  0
109112  2  0
112113  1  0
113114  1  0
112115  1  0
106116  2  0
116117  1  0
105118  1  0
118119  2  0
119120  1  0
119121  1  0
121122  2  0
122123  1  0
123124  2  0
124125  1  0
125126  1  0
126127  1  0
127128  1  0
128129  1  0
127130  2  0
130131  1  0
130132  1  0
132133  1  0
124134  1  0
134135  2  0
135136  1  0
136137  1  0
137138  1  0
138139  1  0
139140  1  0
140141  1  0
139142  2  0
142143  1  0
143144  1  0
142145  1  0
136146  2  0
146147  1  0
135148  1  0
148149  2  0
149150  1  0
149151  1  0
151152  2  0
152153  1  0
153154  2  0
154155  1  0
154156  1  0
156157  2  0
157158  1  0
157159  1  0
159160  2  0
160161  1  0
 27  1  1  0
 57 31  1  0
 87 61  1  0
117 91  1  0
147121  1  0
155151  1  0
161156  1  0
 26  3  1  0
 56 33  1  0
 86 63  1  0
116 93  1  0
146123  1  0
158153  1  0
 12  5  2  0
 30 14  1  0
 42 35  2  0
 60 44  1  0
 72 65  2  0
 90 74  1  0
102 95  2  0
120104  1  0
132125  2  0
150134  1  0
 23 17  2  0
 53 47  2  0
 83 77  2  0
113107  2  0
143137  2  0
  1162  1  0
  2163  1  0
  8164  1  0
  8165  1  0
  9166  1  0
  9167  1  0
  9168  1  0
 20169  1  0
 20170  1  0
 21171  1  0
 21172  1  0
 21173  1  0
 28174  1  0
 32175  1  0
 38176  1  0
 38177  1  0
 39178  1  0
 39179  1  0
 39180  1  0
 50181  1  0
 50182  1  0
 51183  1  0
 51184  1  0
 51185  1  0
 58186  1  0
 62187  1  0
 68188  1  0
 68189  1  0
 69190  1  0
 69191  1  0
 69192  1  0
 80193  1  0
 80194  1  0
 81195  1  0
 81196  1  0
 81197  1  0
 88198  1  0
 92199  1  0
 98200  1  0
 98201  1  0
 99202  1  0
 99203  1  0
 99204  1  0
110205  1  0
110206  1  0
111207  1  0
111208  1  0
111209  1  0
118210  1  0
122211  1  0
128212  1  0
128213  1  0
129214  1  0
129215  1  0
129216  1  0
140217  1  0
140218  1  0
141219  1  0
141220  1  0
141221  1  0
148222  1  0
152223  1  0
158224  1  0
158225  1  0
159226  1  0
160227  1  0
M  END

