
     RDKit          3D

202223  0  0  0  0  0  0  0  0999 V2000
    7.5704   -1.1677    8.0114 C   0  0  0  0  0  0  0  0  0  0  0  0
    7.1242   -2.4664    8.2360 C   0  0  0  0  0  0  0  0  0  0  0  0
    5.8348   -2.7007    7.7343 C   0  0  0  0  0  0  0  0  0  0  0  0
    5.1318   -3.9218    7.7758 C   0  0  0  0  0  0  0  0  0  0  0  0
    5.6639   -5.0964    8.4784 C   0  0  0  0  0  0  0  0  0  0  0  0
    5.7297   -5.2507   10.1494 S   0  0  0  0  0  0  0  0  0  0  0  0
    6.3909   -6.7982   10.1579 C   0  0  0  0  0  0  0  0  0  0  0  0
    6.7631   -7.5531   11.3984 C   0  0  0  0  0  0  0  0  0  0  0  0
    8.0559   -7.0112   11.9946 C   0  0  0  0  0  0  0  0  0  0  0  0
    6.5781   -7.2101    8.8366 C   0  0  0  0  0  0  0  0  0  0  0  0
    7.2785   -8.7607    8.3880 Cl  0  0  0  0  0  0  0  0  0  0  0  0
    6.1588   -6.2585    7.8945 C   0  0  0  0  0  0  0  0  0  0  0  0
    6.2799   -6.4922    6.1534 Cl  0  0  0  0  0  0  0  0  0  0  0  0
    3.8596   -3.9488    7.1788 C   0  0  0  0  0  0  0  0  0  0  0  0
    3.2859   -2.8108    6.6049 C   0  0  0  0  0  0  0  0  0  0  0  0
    3.9962   -1.5960    6.5313 C   0  0  0  0  0  0  0  0  0  0  0  0
    3.4151   -0.4034    5.8810 C   0  0  0  0  0  0  0  0  0  0  0  0
    2.9918    1.0083    6.6889 S   0  0  0  0  0  0  0  0  0  0  0  0
    2.1969    1.7367    5.3925 C   0  0  0  0  0  0  0  0  0  0  0  0
    1.5832    3.1092    5.4140 C   0  0  0  0  0  0  0  0  0  0  0  0
    0.7519    3.3329    6.6754 C   0  0  0  0  0  0  0  0  0  0  0  0
    2.2757    0.8806    4.2923 C   0  0  0  0  0  0  0  0  0  0  0  0
    2.9545   -0.3162    4.5660 C   0  0  0  0  0  0  0  0  0  0  0  0
    3.2205   -1.5712    3.3592 Cl  0  0  0  0  0  0  0  0  0  0  0  0
    1.5891    1.2555    2.7135 Cl  0  0  0  0  0  0  0  0  0  0  0  0
    5.2721   -1.5762    7.1174 C   0  0  0  0  0  0  0  0  0  0  0  0
    6.3690   -0.3037    7.1948 S   0  0  0  0  0  0  0  0  0  0  0  0
    1.9847   -3.0295    6.1457 C   0  0  0  0  0  0  0  0  0  0  0  0
    1.5626   -4.3465    6.3002 C   0  0  0  0  0  0  0  0  0  0  0  0
    2.7855   -5.2463    7.0420 S   0  0  0  0  0  0  0  0  0  0  0  0
    0.3004   -4.8520    5.7541 C   0  0  0  0  0  0  0  0  0  0  0  0
   -0.8144   -4.0404    5.5821 C   0  0  0  0  0  0  0  0  0  0  0  0
   -1.6959   -4.5099    4.6037 C   0  0  0  0  0  0  0  0  0  0  0  0
   -2.7693   -3.7789    4.0702 C   0  0  0  0  0  0  0  0  0  0  0  0
   -3.0650   -2.4201    4.5451 C   0  0  0  0  0  0  0  0  0  0  0  0
   -4.2009   -2.0371    5.7206 S   0  0  0  0  0  0  0  0  0  0  0  0
   -3.7642   -0.4161    5.8619 C   0  0  0  0  0  0  0  0  0  0  0  0
   -4.3345    0.5378    6.8676 C   0  0  0  0  0  0  0  0  0  0  0  0
   -3.5491    0.4731    8.1734 C   0  0  0  0  0  0  0  0  0  0  0  0
   -2.6950   -0.1660    5.0014 C   0  0  0  0  0  0  0  0  0  0  0  0
   -1.8826    1.3868    4.8789 Cl  0  0  0  0  0  0  0  0  0  0  0  0
   -2.3026   -1.2911    4.2657 C   0  0  0  0  0  0  0  0  0  0  0  0
   -0.9480   -1.2935    3.1434 Cl  0  0  0  0  0  0  0  0  0  0  0  0
   -3.3816   -4.2996    2.9256 C   0  0  0  0  0  0  0  0  0  0  0  0
   -2.9802   -5.5000    2.3278 C   0  0  0  0  0  0  0  0  0  0  0  0
   -1.9418   -6.2671    2.9050 C   0  0  0  0  0  0  0  0  0  0  0  0
   -1.4568   -7.5192    2.2975 C   0  0  0  0  0  0  0  0  0  0  0  0
   -0.6796   -7.6341    0.8098 S   0  0  0  0  0  0  0  0  0  0  0  0
   -0.3792   -9.2874    0.8924 C   0  0  0  0  0  0  0  0  0  0  0  0
    0.3887  -10.0674   -0.1322 C   0  0  0  0  0  0  0  0  0  0  0  0
    1.8559  -10.1849    0.2663 C   0  0  0  0  0  0  0  0  0  0  0  0
   -0.8648   -9.7697    2.1068 C   0  0  0  0  0  0  0  0  0  0  0  0
   -1.4662   -8.7784    2.8954 C   0  0  0  0  0  0  0  0  0  0  0  0
   -2.1734   -9.0968    4.4749 Cl  0  0  0  0  0  0  0  0  0  0  0  0
   -0.7283  -11.4491    2.6101 Cl  0  0  0  0  0  0  0  0  0  0  0  0
   -1.3034   -5.7247    4.0383 C   0  0  0  0  0  0  0  0  0  0  0  0
    0.1667   -6.1907    4.7301 S   0  0  0  0  0  0  0  0  0  0  0  0
   -3.6275   -5.7438    1.1002 C   0  0  0  0  0  0  0  0  0  0  0  0
   -4.4989   -4.7130    0.7346 C   0  0  0  0  0  0  0  0  0  0  0  0
   -4.5047   -3.5398    1.9446 S   0  0  0  0  0  0  0  0  0  0  0  0
   -5.1348   -4.5285   -0.5812 C   0  0  0  0  0  0  0  0  0  0  0  0
   -5.1416   -5.4440   -1.5708 N   0  0  0  0  0  0  0  0  0  0  0  0
   -5.6790   -4.8464   -2.6566 C   0  0  0  0  0  0  0  0  0  0  0  0
   -5.7157   -5.4630   -3.9988 C   0  0  0  0  0  0  0  0  0  0  0  0
   -5.7139   -6.7817   -4.1776 C   0  0  0  0  0  0  0  0  0  0  0  0
   -6.0253   -3.5315   -2.3437 C   0  0  0  0  0  0  0  0  0  0  0  0
   -5.6724   -3.3369   -1.0257 C   0  0  0  0  0  0  0  0  0  0  0  0
   -6.5652   -2.4601   -3.2017 C   0  0  0  0  0  0  0  0  0  0  0  0
   -7.4228   -2.6799   -4.2071 C   0  0  0  0  0  0  0  0  0  0  0  0
   -7.9765   -1.5833   -5.0241 C   0  0  0  0  0  0  0  0  0  0  0  0
   -8.6198   -1.7860   -6.1870 N   0  0  0  0  0  0  0  0  0  0  0  0
   -9.0219   -0.5808   -6.6366 C   0  0  0  0  0  0  0  0  0  0  0  0
   -9.8001   -0.4248   -7.8819 C   0  0  0  0  0  0  0  0  0  0  0  0
   -9.7654    0.6739   -8.6330 C   0  0  0  0  0  0  0  0  0  0  0  0
   -8.6347    0.4110   -5.7394 C   0  0  0  0  0  0  0  0  0  0  0  0
   -7.9769   -0.2340   -4.7067 C   0  0  0  0  0  0  0  0  0  0  0  0
   -9.0898    1.8173   -5.7271 C   0  0  0  0  0  0  0  0  0  0  0  0
   -8.3303    2.8707   -5.4023 C   0  0  0  0  0  0  0  0  0  0  0  0
   -6.8923    2.7961   -5.1155 C   0  0  0  0  0  0  0  0  0  0  0  0
   -5.8927    3.1739   -6.0063 C   0  0  0  0  0  0  0  0  0  0  0  0
   -4.6136    3.1720   -5.4249 C   0  0  0  0  0  0  0  0  0  0  0  0
   -3.4014    3.5170   -6.0598 C   0  0  0  0  0  0  0  0  0  0  0  0
   -3.3606    4.0542   -7.4336 C   0  0  0  0  0  0  0  0  0  0  0  0
   -2.4782    3.3940   -8.7043 S   0  0  0  0  0  0  0  0  0  0  0  0
   -2.8494    4.5911   -9.8255 C   0  0  0  0  0  0  0  0  0  0  0  0
   -2.2930    4.6549  -11.2142 C   0  0  0  0  0  0  0  0  0  0  0  0
   -1.0065    5.4712  -11.2458 C   0  0  0  0  0  0  0  0  0  0  0  0
   -3.6548    5.5465   -9.2061 C   0  0  0  0  0  0  0  0  0  0  0  0
   -4.2197    7.0068  -10.0087 Cl  0  0  0  0  0  0  0  0  0  0  0  0
   -3.9446    5.2441   -7.8656 C   0  0  0  0  0  0  0  0  0  0  0  0
   -4.8719    6.3160   -6.8188 Cl  0  0  0  0  0  0  0  0  0  0  0  0
   -2.2261    3.3968   -5.2964 C   0  0  0  0  0  0  0  0  0  0  0  0
   -2.2380    3.0117   -3.9517 C   0  0  0  0  0  0  0  0  0  0  0  0
   -3.4552    2.7094   -3.3066 C   0  0  0  0  0  0  0  0  0  0  0  0
   -3.5036    2.2975   -1.8947 C   0  0  0  0  0  0  0  0  0  0  0  0
   -3.9975    0.7818   -1.3568 S   0  0  0  0  0  0  0  0  0  0  0  0
   -3.7114    1.0769    0.2743 C   0  0  0  0  0  0  0  0  0  0  0  0
   -3.9570    0.0910    1.3700 C   0  0  0  0  0  0  0  0  0  0  0  0
   -5.4330    0.0386    1.7405 C   0  0  0  0  0  0  0  0  0  0  0  0
   -3.2393    2.3813    0.4191 C   0  0  0  0  0  0  0  0  0  0  0  0
   -3.1160    3.0628   -0.8000 C   0  0  0  0  0  0  0  0  0  0  0  0
   -2.5701    4.7333   -0.9231 Cl  0  0  0  0  0  0  0  0  0  0  0  0
   -2.8311    3.1087    1.9652 Cl  0  0  0  0  0  0  0  0  0  0  0  0
   -4.6243    2.7885   -4.0813 C   0  0  0  0  0  0  0  0  0  0  0  0
   -6.2115    2.5120   -3.5975 S   0  0  0  0  0  0  0  0  0  0  0  0
   -0.9537    2.9575   -3.3795 C   0  0  0  0  0  0  0  0  0  0  0  0
    0.0524    3.3077   -4.2781 C   0  0  0  0  0  0  0  0  0  0  0  0
   -0.6387    3.6822   -5.7711 S   0  0  0  0  0  0  0  0  0  0  0  0
    1.4911    3.3495   -3.9877 C   0  0  0  0  0  0  0  0  0  0  0  0
    2.4974    3.3058   -4.9489 C   0  0  0  0  0  0  0  0  0  0  0  0
    3.7848    3.3803   -4.3978 C   0  0  0  0  0  0  0  0  0  0  0  0
    4.9992    3.3562   -5.1139 C   0  0  0  0  0  0  0  0  0  0  0  0
    5.0379    3.1366   -6.5723 C   0  0  0  0  0  0  0  0  0  0  0  0
    5.6114    4.2490   -7.6962 S   0  0  0  0  0  0  0  0  0  0  0  0
    5.2908    3.3103   -9.0555 C   0  0  0  0  0  0  0  0  0  0  0  0
    5.5014    3.7603  -10.4695 C   0  0  0  0  0  0  0  0  0  0  0  0
    4.2392    4.4155  -11.0180 C   0  0  0  0  0  0  0  0  0  0  0  0
    4.7076    2.1113   -8.6444 C   0  0  0  0  0  0  0  0  0  0  0  0
    4.1841    0.8532   -9.7563 Cl  0  0  0  0  0  0  0  0  0  0  0  0
    4.5751    2.0098   -7.2510 C   0  0  0  0  0  0  0  0  0  0  0  0
    3.9249    0.5849   -6.4474 Cl  0  0  0  0  0  0  0  0  0  0  0  0
    6.1765    3.5332   -4.3696 C   0  0  0  0  0  0  0  0  0  0  0  0
    6.1725    3.6955   -2.9814 C   0  0  0  0  0  0  0  0  0  0  0  0
    4.9607    3.6886   -2.2615 C   0  0  0  0  0  0  0  0  0  0  0  0
    4.9296    3.9064   -0.8074 C   0  0  0  0  0  0  0  0  0  0  0  0
    5.1566    5.3964   -0.0619 S   0  0  0  0  0  0  0  0  0  0  0  0
    5.1125    4.8144    1.5163 C   0  0  0  0  0  0  0  0  0  0  0  0
    5.3168    5.6529    2.7398 C   0  0  0  0  0  0  0  0  0  0  0  0
    6.7995    5.7764    3.0676 C   0  0  0  0  0  0  0  0  0  0  0  0
    4.9499    3.4291    1.4751 C   0  0  0  0  0  0  0  0  0  0  0  0
    4.8269    2.9231    0.1710 C   0  0  0  0  0  0  0  0  0  0  0  0
    4.5976    1.2172   -0.1913 Cl  0  0  0  0  0  0  0  0  0  0  0  0
    4.9719    2.4101    2.9076 Cl  0  0  0  0  0  0  0  0  0  0  0  0
    3.7795    3.5188   -3.0044 C   0  0  0  0  0  0  0  0  0  0  0  0
    2.1860    3.5038   -2.4537 S   0  0  0  0  0  0  0  0  0  0  0  0
    7.4607    3.8353   -2.4401 C   0  0  0  0  0  0  0  0  0  0  0  0
    8.4664    3.7845   -3.4011 C   0  0  0  0  0  0  0  0  0  0  0  0
    7.7659    3.5589   -4.9191 S   0  0  0  0  0  0  0  0  0  0  0  0
    8.5349   -0.7785    8.3100 H   0  0  0  0  0  0  0  0  0  0  0  0
    7.7263   -3.2110    8.7408 H   0  0  0  0  0  0  0  0  0  0  0  0
    6.8807   -8.6358   11.1776 H   0  0  0  0  0  0  0  0  0  0  0  0
    5.9458   -7.4495   12.1430 H   0  0  0  0  0  0  0  0  0  0  0  0
    8.8930   -7.1308   11.2745 H   0  0  0  0  0  0  0  0  0  0  0  0
    8.3008   -7.5698   12.9234 H   0  0  0  0  0  0  0  0  0  0  0  0
    7.9441   -5.9344   12.2468 H   0  0  0  0  0  0  0  0  0  0  0  0
    0.9215    3.2458    4.5324 H   0  0  0  0  0  0  0  0  0  0  0  0
    2.3937    3.8650    5.3570 H   0  0  0  0  0  0  0  0  0  0  0  0
    1.4092    3.3738    7.5703 H   0  0  0  0  0  0  0  0  0  0  0  0
    0.2074    4.2965    6.5926 H   0  0  0  0  0  0  0  0  0  0  0  0
    0.0146    2.5166    6.8033 H   0  0  0  0  0  0  0  0  0  0  0  0
    1.3745   -2.2683    5.6791 H   0  0  0  0  0  0  0  0  0  0  0  0
   -0.9145   -3.0744    6.0600 H   0  0  0  0  0  0  0  0  0  0  0  0
   -4.3054    1.5740    6.4680 H   0  0  0  0  0  0  0  0  0  0  0  0
   -5.3970    0.2807    7.0653 H   0  0  0  0  0  0  0  0  0  0  0  0
   -3.9717    1.1965    8.9034 H   0  0  0  0  0  0  0  0  0  0  0  0
   -3.6093   -0.5487    8.6074 H   0  0  0  0  0  0  0  0  0  0  0  0
   -2.4841    0.7352    7.9917 H   0  0  0  0  0  0  0  0  0  0  0  0
    0.3159   -9.5596   -1.1169 H   0  0  0  0  0  0  0  0  0  0  0  0
   -0.0501  -11.0818   -0.2382 H   0  0  0  0  0  0  0  0  0  0  0  0
    1.9525  -10.7312    1.2282 H   0  0  0  0  0  0  0  0  0  0  0  0
    2.3084   -9.1775    0.3721 H   0  0  0  0  0  0  0  0  0  0  0  0
    2.4105  -10.7446   -0.5159 H   0  0  0  0  0  0  0  0  0  0  0  0
   -3.4136   -6.5931    0.4673 H   0  0  0  0  0  0  0  0  0  0  0  0
   -4.7312   -6.4031   -1.5250 H   0  0  0  0  0  0  0  0  0  0  0  0
   -5.7626   -4.8277   -4.8753 H   0  0  0  0  0  0  0  0  0  0  0  0
   -5.7480   -7.1900   -5.1790 H   0  0  0  0  0  0  0  0  0  0  0  0
   -5.6917   -7.4710   -3.3405 H   0  0  0  0  0  0  0  0  0  0  0  0
   -5.7547   -2.4122   -0.4702 H   0  0  0  0  0  0  0  0  0  0  0  0
   -6.2870   -1.4451   -2.9424 H   0  0  0  0  0  0  0  0  0  0  0  0
   -7.7386   -3.6866   -4.4404 H   0  0  0  0  0  0  0  0  0  0  0  0
   -8.7897   -2.7057   -6.6501 H   0  0  0  0  0  0  0  0  0  0  0  0
  -10.3702   -1.2751   -8.2350 H   0  0  0  0  0  0  0  0  0  0  0  0
   -9.1511    1.5229   -8.3741 H   0  0  0  0  0  0  0  0  0  0  0  0
  -10.3400    0.7126   -9.5498 H   0  0  0  0  0  0  0  0  0  0  0  0
   -7.6478    0.2038   -3.7774 H   0  0  0  0  0  0  0  0  0  0  0  0
  -10.1031    2.0116   -6.0526 H   0  0  0  0  0  0  0  0  0  0  0  0
   -8.7664    3.8584   -5.4793 H   0  0  0  0  0  0  0  0  0  0  0  0
   -6.0928    3.4522   -7.0327 H   0  0  0  0  0  0  0  0  0  0  0  0
   -2.0817    3.6243  -11.5733 H   0  0  0  0  0  0  0  0  0  0  0  0
   -3.0385    5.1105  -11.9009 H   0  0  0  0  0  0  0  0  0  0  0  0
   -1.1962    6.5094  -10.8942 H   0  0  0  0  0  0  0  0  0  0  0  0
   -0.2373    5.0022  -10.5944 H   0  0  0  0  0  0  0  0  0  0  0  0
   -0.6200    5.5115  -12.2831 H   0  0  0  0  0  0  0  0  0  0  0  0
   -3.6169   -0.9093    1.0344 H   0  0  0  0  0  0  0  0  0  0  0  0
   -3.3668    0.3657    2.2679 H   0  0  0  0  0  0  0  0  0  0  0  0
   -6.0412   -0.2886    0.8674 H   0  0  0  0  0  0  0  0  0  0  0  0
   -5.7779    1.0417    2.0719 H   0  0  0  0  0  0  0  0  0  0  0  0
   -5.5835   -0.6791    2.5731 H   0  0  0  0  0  0  0  0  0  0  0  0
   -0.7548    2.6612   -2.3573 H   0  0  0  0  0  0  0  0  0  0  0  0
    2.2989    3.2260   -6.0101 H   0  0  0  0  0  0  0  0  0  0  0  0
    5.7783    2.8932  -11.1059 H   0  0  0  0  0  0  0  0  0  0  0  0
    6.3358    4.4918  -10.5033 H   0  0  0  0  0  0  0  0  0  0  0  0
    3.3906    3.6988  -10.9975 H   0  0  0  0  0  0  0  0  0  0  0  0
    3.9768    5.3120  -10.4158 H   0  0  0  0  0  0  0  0  0  0  0  0
    4.4114    4.7313  -12.0689 H   0  0  0  0  0  0  0  0  0  0  0  0
    4.7803    5.2050    3.6048 H   0  0  0  0  0  0  0  0  0  0  0  0
    4.8908    6.6631    2.5658 H   0  0  0  0  0  0  0  0  0  0  0  0
    7.3429    6.2533    2.2244 H   0  0  0  0  0  0  0  0  0  0  0  0
    7.2347    4.7740    3.2599 H   0  0  0  0  0  0  0  0  0  0  0  0
    6.9328    6.4027    3.9758 H   0  0  0  0  0  0  0  0  0  0  0  0
    7.6628    3.9586   -1.3854 H   0  0  0  0  0  0  0  0  0  0  0  0
    9.5260    3.8664   -3.2018 H   0  0  0  0  0  0  0  0  0  0  0  0
  1  2  2  0
  2  3  1  0
  3  4  2  0
  4  5  1  0
  5  6  1  0
  6  7  1  0
  7  8  1  0
  8  9  1  0
  7 10  2  0
 10 11  1  0
 10 12  1  0
 12 13  1  0
  4 14  1  0
 14 15  2  0
 15 16  1  0
 16 17  1  0
 17 18  1  0
 18 19  1  0
 19 20  1  0
 20 21  1  0
 19 22  2  0
 22 23  1  0
 23 24  1  0
 22 25  1  0
 16 26  2  0
 26 27  1  0
 15 28  1  0
 28 29  2  0
 29 30  1  0
 29 31  1  0
 31 32  2  0
 32 33  1  0
 33 34  2  0
 34 35  1  0
 35 36  1  0
 36 37  1  0
 37 38  1  0
 38 39  1  0
 37 40  2  0
 40 41  1  0
 40 42  1  0
 42 43  1  0
 34 44  1  0
 44 45  2  0
 45 46  1  0
 46 47  1  0
 47 48  1  0
 48 49  1  0
 49 50  1  0
 50 51  1  0
 49 52  2  0
 52 53  1  0
 53 54  1  0
 52 55  1  0
 46 56  2  0
 56 57  1  0
 45 58  1  0
 58 59  2  0
 59 60  1  0
 59 61  1  0
 61 62  1  0
 62 63  1  0
 63 64  1  0
 64 65  2  3
 63 66  2  0
 66 67  1  0
 66 68  1  0
 68 69  2  3
 69 70  1  0
 70 71  1  0
 71 72  1  0
 72 73  1  0
 73 74  2  3
 72 75  2  0
 75 76  1  0
 75 77  1  0
 77 78  2  3
 78 79  1  0
 79 80  2  0
 80 81  1  0
 81 82  2  0
 82 83  1  0
 83 84  1  0
 84 85  1  0
 85 86  1  0
 86 87  1  0
 85 88  2  0
 88 89  1  0
 88 90  1  0
 90 91  1  0
 82 92  1  0
 92 93  2  0
 93 94  1  0
 94 95  1  0
 95 96  1  0
 96 97  1  0
 97 98  1  0
 98 99  1  0
 97100  2  0
100101  1  0
101102  1  0
100103  1  0
 94104  2  0
104105  1  0
 93106  1  0
106107  2  0
107108  1  0
107109  1  0
109110  2  0
110111  1  0
111112  2  0
112113  1  0
113114  1  0
114115  1  0
115116  1  0
116117  1  0
115118  2  0
118119  1  0
118120  1  0
120121  1  0
112122  1  0
122123  2  0
123124  1  0
124125  1  0
125126  1  0
126127  1  0
127128  1  0
128129  1  0
127130  2  0
130131  1  0
131132  1  0
130133  1  0
124134  2  0
134135  1  0
123136  1  0
136137  2  0
137138  1  0
 27  1  1  0
 57 31  1  0
 67 61  2  0
 76 70  2  0
105 79  1  0
135109  1  0
 26  3  1  0
 56 33  1  0
104 81  1  0
134111  1  0
 12  5  2  0
 30 14  1  0
 42 35  2  0
 60 44  1  0
 90 83  2  0
108 92  1  0
120113  2  0
138122  1  0
 23 17  2  0
 53 47  2  0
101 95  2  0
131125  2  0
  1139  1  0
  2140  1  0
  8141  1  0
  8142  1  0
  9143  1  0
  9144  1  0
  9145  1  0
 20146  1  0
 20147  1  0
 21148  1  0
 21149  1  0
 21150  1  0
 28151  1  0
 32152  1  0
 38153  1  0
 38154  1  0
 39155  1  0
 39156  1  0
 39157  1  0
 50158  1  0
 50159  1  0
 51160  1  0
 51161  1  0
 51162  1  0
 58163  1  0
 62164  1  0
 64165  1  0
 65166  1  0
 65167  1  0
 67168  1  0
 68169  1  0
 69170  1  0
 71171  1  0
 73172  1  0
 74173  1  0
 74174  1  0
 76175  1  0
 77176  1  0
 78177  1  0
 80178  1  0
 86179  1  0
 86180  1  0
 87181  1  0
 87182  1  0
 87183  1  0
 98184  1  0
 98185  1  0
 99186  1  0
 99187  1  0
 99188  1  0
106189  1  0
110190  1  0
116191  1  0
116192  1  0
117193  1  0
117194  1  0
117195  1  0
128196  1  0
128197  1  0
129198  1  0
129199  1  0
129200  1  0
136201  1  0
137202  1  0
M  END

