
     RDKit          3D

234255  0  0  0  0  0  0  0  0999 V2000
    1.2196   -3.9374   11.4602 C   0  0  0  0  0  0  0  0  0  0  0  0
    2.4509   -3.6340   10.8830 C   0  0  0  0  0  0  0  0  0  0  0  0
    3.2285   -4.4968    9.9789 C   0  0  0  0  0  0  0  0  0  0  0  0
    4.3074   -4.0677    9.4861 O   0  0  0  0  0  0  0  0  0  0  0  0
    2.7570   -5.8739    9.6246 C   0  0  0  0  0  0  0  0  0  0  0  0
    2.8996   -2.0916   11.3817 S   0  0  0  0  0  0  0  0  0  0  0  0
    1.5409   -1.7840   12.3184 C   0  0  0  0  0  0  0  0  0  0  0  0
    0.6975   -2.8978   12.2489 C   0  0  0  0  0  0  0  0  0  0  0  0
   -0.6159   -3.0389   12.9143 C   0  0  0  0  0  0  0  0  0  0  0  0
   -1.5180   -2.0591   13.0868 C   0  0  0  0  0  0  0  0  0  0  0  0
   -1.3151   -0.6415   12.7326 C   0  0  0  0  0  0  0  0  0  0  0  0
   -0.8716    0.3081   13.6642 C   0  0  0  0  0  0  0  0  0  0  0  0
   -0.3992    0.0637   15.0456 C   0  0  0  0  0  0  0  0  0  0  0  0
   -0.3074   -1.1114   15.4905 O   0  0  0  0  0  0  0  0  0  0  0  0
   -0.0156    1.2051   15.9336 C   0  0  0  0  0  0  0  0  0  0  0  0
   -0.9858    1.8314   12.9626 S   0  0  0  0  0  0  0  0  0  0  0  0
   -1.6275    1.3292   11.4979 C   0  0  0  0  0  0  0  0  0  0  0  0
   -1.7548   -0.0562   11.5182 C   0  0  0  0  0  0  0  0  0  0  0  0
   -2.3886   -0.7506   10.3778 C   0  0  0  0  0  0  0  0  0  0  0  0
   -1.9615   -1.9234    9.8999 C   0  0  0  0  0  0  0  0  0  0  0  0
   -2.4951   -2.5371    8.6725 C   0  0  0  0  0  0  0  0  0  0  0  0
   -3.3762   -1.9692    7.7505 C   0  0  0  0  0  0  0  0  0  0  0  0
   -3.5952   -2.7834    6.6282 C   0  0  0  0  0  0  0  0  0  0  0  0
   -4.3799   -2.4535    5.5084 C   0  0  0  0  0  0  0  0  0  0  0  0
   -5.0114   -1.1323    5.3675 C   0  0  0  0  0  0  0  0  0  0  0  0
   -4.2393   -0.0297    4.9757 C   0  0  0  0  0  0  0  0  0  0  0  0
   -4.8313    1.2274    4.8363 C   0  0  0  0  0  0  0  0  0  0  0  0
   -6.1987    1.3929    5.0863 C   0  0  0  0  0  0  0  0  0  0  0  0
   -6.9367    3.0237    4.9240 S   0  0  0  0  0  0  0  0  0  0  0  0
   -7.1876    2.9189    3.1141 C   0  0  0  0  0  0  0  0  0  0  0  0
   -8.4984    2.2155    2.7921 C   0  0  0  0  0  0  0  0  0  0  0  0
   -6.9732    0.2950    5.4887 C   0  0  0  0  0  0  0  0  0  0  0  0
   -8.2901    0.4451    5.7741 F   0  0  0  0  0  0  0  0  0  0  0  0
   -6.3818   -0.9679    5.6202 C   0  0  0  0  0  0  0  0  0  0  0  0
   -4.4088   -3.3787    4.4550 C   0  0  0  0  0  0  0  0  0  0  0  0
   -3.6722   -4.5691    4.4723 C   0  0  0  0  0  0  0  0  0  0  0  0
   -2.9131   -4.9187    5.6107 C   0  0  0  0  0  0  0  0  0  0  0  0
   -2.1330   -6.1689    5.6931 C   0  0  0  0  0  0  0  0  0  0  0  0
   -1.0350   -6.3857    4.8476 C   0  0  0  0  0  0  0  0  0  0  0  0
   -0.2579   -7.5375    4.9867 C   0  0  0  0  0  0  0  0  0  0  0  0
   -0.5670   -8.4815    5.9745 C   0  0  0  0  0  0  0  0  0  0  0  0
    0.4548   -9.9476    6.1574 S   0  0  0  0  0  0  0  0  0  0  0  0
    1.6849   -9.1613    7.2627 C   0  0  0  0  0  0  0  0  0  0  0  0
    1.1868   -9.1185    8.7015 C   0  0  0  0  0  0  0  0  0  0  0  0
   -1.6883   -8.2894    6.7942 C   0  0  0  0  0  0  0  0  0  0  0  0
   -2.4606   -7.1311    6.6603 C   0  0  0  0  0  0  0  0  0  0  0  0
   -2.0248   -9.2157    7.7276 F   0  0  0  0  0  0  0  0  0  0  0  0
   -2.8987   -3.9925    6.6737 C   0  0  0  0  0  0  0  0  0  0  0  0
   -1.9975   -4.0450    8.0947 S   0  0  0  0  0  0  0  0  0  0  0  0
   -3.7300   -5.2672    3.2512 C   0  0  0  0  0  0  0  0  0  0  0  0
   -4.5165   -4.6216    2.2927 C   0  0  0  0  0  0  0  0  0  0  0  0
   -5.1329   -3.1969    2.9532 S   0  0  0  0  0  0  0  0  0  0  0  0
   -4.4881   -4.8792    0.8467 C   0  0  0  0  0  0  0  0  0  0  0  0
   -5.4109   -4.3497   -0.0557 C   0  0  0  0  0  0  0  0  0  0  0  0
   -4.9067   -4.2309   -1.3624 C   0  0  0  0  0  0  0  0  0  0  0  0
   -5.5329   -3.5689   -2.4386 C   0  0  0  0  0  0  0  0  0  0  0  0
   -6.9254   -3.0803   -2.3685 C   0  0  0  0  0  0  0  0  0  0  0  0
   -7.8934   -3.6272   -3.2268 C   0  0  0  0  0  0  0  0  0  0  0  0
   -9.2168   -3.1875   -3.1645 C   0  0  0  0  0  0  0  0  0  0  0  0
   -9.5927   -2.2122   -2.2364 C   0  0  0  0  0  0  0  0  0  0  0  0
  -11.2983   -1.6468   -2.1776 S   0  0  0  0  0  0  0  0  0  0  0  0
  -11.8930   -3.0041   -1.1065 C   0  0  0  0  0  0  0  0  0  0  0  0
  -11.6702   -2.6745    0.3635 C   0  0  0  0  0  0  0  0  0  0  0  0
   -8.6267   -1.6439   -1.3906 C   0  0  0  0  0  0  0  0  0  0  0  0
   -8.9703   -0.6742   -0.5069 F   0  0  0  0  0  0  0  0  0  0  0  0
   -7.2982   -2.0766   -1.4585 C   0  0  0  0  0  0  0  0  0  0  0  0
   -4.7425   -3.3223   -3.5748 C   0  0  0  0  0  0  0  0  0  0  0  0
   -3.4173   -3.7596   -3.6822 C   0  0  0  0  0  0  0  0  0  0  0  0
   -2.8272   -4.5110   -2.6457 C   0  0  0  0  0  0  0  0  0  0  0  0
   -1.4111   -4.9199   -2.6992 C   0  0  0  0  0  0  0  0  0  0  0  0
   -0.4621   -4.2882   -1.8833 C   0  0  0  0  0  0  0  0  0  0  0  0
    0.8779   -4.6786   -1.9309 C   0  0  0  0  0  0  0  0  0  0  0  0
    1.2821   -5.6993   -2.8003 C   0  0  0  0  0  0  0  0  0  0  0  0
    3.0081   -6.1907   -2.8538 S   0  0  0  0  0  0  0  0  0  0  0  0
    3.4326   -4.9825   -4.1509 C   0  0  0  0  0  0  0  0  0  0  0  0
    4.9099   -5.0898   -4.4977 C   0  0  0  0  0  0  0  0  0  0  0  0
    0.3362   -6.3324   -3.6200 C   0  0  0  0  0  0  0  0  0  0  0  0
   -1.0045   -5.9371   -3.5751 C   0  0  0  0  0  0  0  0  0  0  0  0
    0.7119   -7.3269   -4.4635 F   0  0  0  0  0  0  0  0  0  0  0  0
   -3.5974   -4.7063   -1.4868 C   0  0  0  0  0  0  0  0  0  0  0  0
   -3.0718   -5.2629    0.0135 S   0  0  0  0  0  0  0  0  0  0  0  0
   -2.7216   -3.1740   -4.7560 C   0  0  0  0  0  0  0  0  0  0  0  0
   -3.4774   -2.2292   -5.4559 C   0  0  0  0  0  0  0  0  0  0  0  0
   -5.0252   -2.1823   -4.7740 S   0  0  0  0  0  0  0  0  0  0  0  0
   -2.8472   -1.0345   -6.0249 C   0  0  0  0  0  0  0  0  0  0  0  0
   -1.7683   -1.0286   -6.9161 C   0  0  0  0  0  0  0  0  0  0  0  0
   -1.0150    0.1624   -6.8636 C   0  0  0  0  0  0  0  0  0  0  0  0
    0.2007    0.4155   -7.5414 C   0  0  0  0  0  0  0  0  0  0  0  0
    0.6646   -0.4531   -8.6493 C   0  0  0  0  0  0  0  0  0  0  0  0
   -0.1686   -0.6711   -9.7599 C   0  0  0  0  0  0  0  0  0  0  0  0
    0.2417   -1.5146  -10.7967 C   0  0  0  0  0  0  0  0  0  0  0  0
    1.4922   -2.1440  -10.7411 C   0  0  0  0  0  0  0  0  0  0  0  0
    1.9845   -3.2934  -12.0315 S   0  0  0  0  0  0  0  0  0  0  0  0
    2.7618   -2.0404  -13.1140 C   0  0  0  0  0  0  0  0  0  0  0  0
    1.7657   -1.5552  -14.1601 C   0  0  0  0  0  0  0  0  0  0  0  0
    2.3299   -1.9268   -9.6390 C   0  0  0  0  0  0  0  0  0  0  0  0
    3.5331   -2.5503   -9.5565 F   0  0  0  0  0  0  0  0  0  0  0  0
    1.9170   -1.0880   -8.5959 C   0  0  0  0  0  0  0  0  0  0  0  0
    0.9467    1.5322   -7.1062 C   0  0  0  0  0  0  0  0  0  0  0  0
    0.4989    2.3795   -6.0868 C   0  0  0  0  0  0  0  0  0  0  0  0
   -0.7543    2.1784   -5.4766 C   0  0  0  0  0  0  0  0  0  0  0  0
   -1.2177    2.9923   -4.3277 C   0  0  0  0  0  0  0  0  0  0  0  0
   -0.4821    3.0115   -3.1307 C   0  0  0  0  0  0  0  0  0  0  0  0
   -0.9378    3.7513   -2.0363 C   0  0  0  0  0  0  0  0  0  0  0  0
   -2.1289    4.4807   -2.1271 C   0  0  0  0  0  0  0  0  0  0  0  0
   -2.7021    5.4313   -0.7123 S   0  0  0  0  0  0  0  0  0  0  0  0
   -1.6771    6.9037   -1.0671 C   0  0  0  0  0  0  0  0  0  0  0  0
   -2.2625    7.7246   -2.2099 C   0  0  0  0  0  0  0  0  0  0  0  0
   -2.8837    4.4390   -3.3095 C   0  0  0  0  0  0  0  0  0  0  0  0
   -2.4251    3.7035   -4.4061 C   0  0  0  0  0  0  0  0  0  0  0  0
   -4.0582    5.1098   -3.3984 F   0  0  0  0  0  0  0  0  0  0  0  0
   -1.4886    1.0634   -5.9034 C   0  0  0  0  0  0  0  0  0  0  0  0
   -2.8487    0.4165   -5.1705 S   0  0  0  0  0  0  0  0  0  0  0  0
    1.4395    3.3486   -5.7175 C   0  0  0  0  0  0  0  0  0  0  0  0
    2.6309    3.2578   -6.4267 C   0  0  0  0  0  0  0  0  0  0  0  0
    2.5067    2.0029   -7.5512 S   0  0  0  0  0  0  0  0  0  0  0  0
    3.8675    3.9490   -6.0348 C   0  0  0  0  0  0  0  0  0  0  0  0
    5.0158    4.1123   -6.8120 C   0  0  0  0  0  0  0  0  0  0  0  0
    6.0700    4.7200   -6.0981 C   0  0  0  0  0  0  0  0  0  0  0  0
    7.3560    5.0361   -6.5905 C   0  0  0  0  0  0  0  0  0  0  0  0
    7.7437    4.7967   -7.9947 C   0  0  0  0  0  0  0  0  0  0  0  0
    8.0643    5.8827   -8.8227 C   0  0  0  0  0  0  0  0  0  0  0  0
    8.4853    5.6658  -10.1350 C   0  0  0  0  0  0  0  0  0  0  0  0
    8.6057    4.3612  -10.6280 C   0  0  0  0  0  0  0  0  0  0  0  0
    9.1793    4.0938  -12.3085 S   0  0  0  0  0  0  0  0  0  0  0  0
   10.9348    3.8436  -11.8564 C   0  0  0  0  0  0  0  0  0  0  0  0
   11.6240    5.1661  -11.5371 C   0  0  0  0  0  0  0  0  0  0  0  0
    8.2618    3.2732   -9.8114 C   0  0  0  0  0  0  0  0  0  0  0  0
    8.3619    2.0025  -10.2816 F   0  0  0  0  0  0  0  0  0  0  0  0
    7.8340    3.4911   -8.4974 C   0  0  0  0  0  0  0  0  0  0  0  0
    8.2602    5.6207   -5.6834 C   0  0  0  0  0  0  0  0  0  0  0  0
    7.9339    5.8770   -4.3483 C   0  0  0  0  0  0  0  0  0  0  0  0
    6.6487    5.5766   -3.8590 C   0  0  0  0  0  0  0  0  0  0  0  0
    6.2738    5.7948   -2.4484 C   0  0  0  0  0  0  0  0  0  0  0  0
    6.8409    4.9970   -1.4430 C   0  0  0  0  0  0  0  0  0  0  0  0
    6.4471    5.1596   -0.1136 C   0  0  0  0  0  0  0  0  0  0  0  0
    5.4932    6.1266    0.2260 C   0  0  0  0  0  0  0  0  0  0  0  0
    5.0041    6.3282    1.9434 S   0  0  0  0  0  0  0  0  0  0  0  0
    3.5647    5.2114    1.8056 C   0  0  0  0  0  0  0  0  0  0  0  0
    3.0381    4.8769    3.1939 C   0  0  0  0  0  0  0  0  0  0  0  0
    4.9376    6.9398   -0.7732 C   0  0  0  0  0  0  0  0  0  0  0  0
    5.3244    6.7703   -2.1077 C   0  0  0  0  0  0  0  0  0  0  0  0
    4.0231    7.8901   -0.4601 F   0  0  0  0  0  0  0  0  0  0  0  0
    5.7370    5.0127   -4.7697 C   0  0  0  0  0  0  0  0  0  0  0  0
    4.1577    4.5351   -4.4787 S   0  0  0  0  0  0  0  0  0  0  0  0
    8.9867    6.4519   -3.6199 C   0  0  0  0  0  0  0  0  0  0  0  0
   10.1363    6.6441   -4.3806 C   0  0  0  0  0  0  0  0  0  0  0  0
    9.8495    6.1026   -5.9510 S   0  0  0  0  0  0  0  0  0  0  0  0
    0.6938   -4.8668   11.2901 H   0  0  0  0  0  0  0  0  0  0  0  0
    2.6586   -6.4803   10.5504 H   0  0  0  0  0  0  0  0  0  0  0  0
    1.7742   -5.8137    9.1096 H   0  0  0  0  0  0  0  0  0  0  0  0
    3.4848   -6.3756    8.9511 H   0  0  0  0  0  0  0  0  0  0  0  0
    1.3854   -0.8848   12.8917 H   0  0  0  0  0  0  0  0  0  0  0  0
   -0.9253   -4.0426   13.1773 H   0  0  0  0  0  0  0  0  0  0  0  0
   -2.4724   -2.3176   13.5292 H   0  0  0  0  0  0  0  0  0  0  0  0
   -0.8900    1.8769   16.0753 H   0  0  0  0  0  0  0  0  0  0  0  0
    0.8157    1.7781   15.4692 H   0  0  0  0  0  0  0  0  0  0  0  0
    0.3136    0.8334   16.9264 H   0  0  0  0  0  0  0  0  0  0  0  0
   -1.9133    1.9770   10.6832 H   0  0  0  0  0  0  0  0  0  0  0  0
   -3.1642   -0.2072    9.8544 H   0  0  0  0  0  0  0  0  0  0  0  0
   -1.1363   -2.4258   10.3693 H   0  0  0  0  0  0  0  0  0  0  0  0
   -3.8174   -0.9873    7.8609 H   0  0  0  0  0  0  0  0  0  0  0  0
   -3.1805   -0.1461    4.7827 H   0  0  0  0  0  0  0  0  0  0  0  0
   -4.2261    2.0703    4.5318 H   0  0  0  0  0  0  0  0  0  0  0  0
   -7.2267    3.9529    2.7132 H   0  0  0  0  0  0  0  0  0  0  0  0
   -6.3441    2.3899    2.6226 H   0  0  0  0  0  0  0  0  0  0  0  0
   -8.6568    2.2094    1.6912 H   0  0  0  0  0  0  0  0  0  0  0  0
   -8.4826    1.1655    3.1519 H   0  0  0  0  0  0  0  0  0  0  0  0
   -9.3433    2.7515    3.2697 H   0  0  0  0  0  0  0  0  0  0  0  0
   -6.9869   -1.8153    5.9211 H   0  0  0  0  0  0  0  0  0  0  0  0
   -0.7726   -5.6546    4.0935 H   0  0  0  0  0  0  0  0  0  0  0  0
    0.5967   -7.6910    4.3386 H   0  0  0  0  0  0  0  0  0  0  0  0
    1.9302   -8.1344    6.9155 H   0  0  0  0  0  0  0  0  0  0  0  0
    2.6136   -9.7649    7.2232 H   0  0  0  0  0  0  0  0  0  0  0  0
    0.8636  -10.1315    9.0284 H   0  0  0  0  0  0  0  0  0  0  0  0
    2.0060   -8.7785    9.3665 H   0  0  0  0  0  0  0  0  0  0  0  0
    0.3389   -8.4116    8.7978 H   0  0  0  0  0  0  0  0  0  0  0  0
   -3.3128   -6.9831    7.3120 H   0  0  0  0  0  0  0  0  0  0  0  0
   -3.1677   -6.1686    3.0394 H   0  0  0  0  0  0  0  0  0  0  0  0
   -6.3689   -3.9556    0.2597 H   0  0  0  0  0  0  0  0  0  0  0  0
   -7.6181   -4.3969   -3.9373 H   0  0  0  0  0  0  0  0  0  0  0  0
   -9.9580   -3.6212   -3.8249 H   0  0  0  0  0  0  0  0  0  0  0  0
  -12.9797   -3.1357   -1.2847 H   0  0  0  0  0  0  0  0  0  0  0  0
  -11.3901   -3.9599   -1.3647 H   0  0  0  0  0  0  0  0  0  0  0  0
  -10.5841   -2.6367    0.5898 H   0  0  0  0  0  0  0  0  0  0  0  0
  -12.1373   -3.4569    0.9978 H   0  0  0  0  0  0  0  0  0  0  0  0
  -12.1321   -1.6946    0.6148 H   0  0  0  0  0  0  0  0  0  0  0  0
   -6.5569   -1.6328   -0.8049 H   0  0  0  0  0  0  0  0  0  0  0  0
   -0.7604   -3.4895   -1.2133 H   0  0  0  0  0  0  0  0  0  0  0  0
    1.6015   -4.1866   -1.2942 H   0  0  0  0  0  0  0  0  0  0  0  0
    2.8262   -5.1818   -5.0592 H   0  0  0  0  0  0  0  0  0  0  0  0
    3.2202   -3.9550   -3.7868 H   0  0  0  0  0  0  0  0  0  0  0  0
    5.5270   -4.8522   -3.6044 H   0  0  0  0  0  0  0  0  0  0  0  0
    5.1554   -4.3696   -5.3079 H   0  0  0  0  0  0  0  0  0  0  0  0
    5.1528   -6.1163   -4.8462 H   0  0  0  0  0  0  0  0  0  0  0  0
   -1.7285   -6.4266   -4.2158 H   0  0  0  0  0  0  0  0  0  0  0  0
   -1.6536   -3.2743   -4.8877 H   0  0  0  0  0  0  0  0  0  0  0  0
   -1.4740   -1.8993   -7.4872 H   0  0  0  0  0  0  0  0  0  0  0  0
   -1.1387   -0.1952   -9.8174 H   0  0  0  0  0  0  0  0  0  0  0  0
   -0.4177   -1.6847  -11.6385 H   0  0  0  0  0  0  0  0  0  0  0  0
    3.1480   -1.1800  -12.5273 H   0  0  0  0  0  0  0  0  0  0  0  0
    3.6205   -2.5178  -13.6313 H   0  0  0  0  0  0  0  0  0  0  0  0
    0.9300   -1.0125  -13.6748 H   0  0  0  0  0  0  0  0  0  0  0  0
    2.2704   -0.8692  -14.8684 H   0  0  0  0  0  0  0  0  0  0  0  0
    1.3652   -2.4221  -14.7288 H   0  0  0  0  0  0  0  0  0  0  0  0
    2.5680   -0.9485   -7.7408 H   0  0  0  0  0  0  0  0  0  0  0  0
    0.4404    2.4510   -3.0446 H   0  0  0  0  0  0  0  0  0  0  0  0
   -0.3605    3.7629   -1.1209 H   0  0  0  0  0  0  0  0  0  0  0  0
   -1.6483    7.5346   -0.1543 H   0  0  0  0  0  0  0  0  0  0  0  0
   -0.6338    6.6040   -1.3070 H   0  0  0  0  0  0  0  0  0  0  0  0
   -1.6948    8.6757   -2.3144 H   0  0  0  0  0  0  0  0  0  0  0  0
   -3.3265    7.9677   -2.0015 H   0  0  0  0  0  0  0  0  0  0  0  0
   -2.1910    7.1690   -3.1653 H   0  0  0  0  0  0  0  0  0  0  0  0
   -3.0138    3.6805   -5.3144 H   0  0  0  0  0  0  0  0  0  0  0  0
    1.2846    4.0644   -4.9216 H   0  0  0  0  0  0  0  0  0  0  0  0
    5.0818    3.7950   -7.8453 H   0  0  0  0  0  0  0  0  0  0  0  0
    7.9993    6.8952   -8.4464 H   0  0  0  0  0  0  0  0  0  0  0  0
    8.7347    6.5082  -10.7618 H   0  0  0  0  0  0  0  0  0  0  0  0
   11.0210    3.1495  -10.9940 H   0  0  0  0  0  0  0  0  0  0  0  0
   11.4481    3.3748  -12.7245 H   0  0  0  0  0  0  0  0  0  0  0  0
   11.2295    5.5932  -10.5903 H   0  0  0  0  0  0  0  0  0  0  0  0
   11.4663    5.8918  -12.3622 H   0  0  0  0  0  0  0  0  0  0  0  0
   12.7154    4.9970  -11.4132 H   0  0  0  0  0  0  0  0  0  0  0  0
    7.5909    2.6432   -7.8665 H   0  0  0  0  0  0  0  0  0  0  0  0
    7.5704    4.2358   -1.6937 H   0  0  0  0  0  0  0  0  0  0  0  0
    6.8800    4.5297    0.6528 H   0  0  0  0  0  0  0  0  0  0  0  0
    2.7693    5.7166    1.2193 H   0  0  0  0  0  0  0  0  0  0  0  0
    3.8522    4.2695    1.2932 H   0  0  0  0  0  0  0  0  0  0  0  0
    2.1418    4.2259    3.1095 H   0  0  0  0  0  0  0  0  0  0  0  0
    3.8144    4.3367    3.7762 H   0  0  0  0  0  0  0  0  0  0  0  0
    2.7528    5.8068    3.7320 H   0  0  0  0  0  0  0  0  0  0  0  0
    4.8845    7.3909   -2.8772 H   0  0  0  0  0  0  0  0  0  0  0  0
    8.9229    6.7295   -2.5734 H   0  0  0  0  0  0  0  0  0  0  0  0
   11.0616    7.0752   -4.0236 H   0  0  0  0  0  0  0  0  0  0  0  0
  1  2  2  0
  2  3  1  0
  3  4  2  0
  3  5  1  0
  2  6  1  0
  6  7  1  0
  7  8  2  0
  8  9  1  0
  9 10  2  3
 10 11  1  0
 11 12  2  0
 12 13  1  0
 13 14  2  0
 13 15  1  0
 12 16  1  0
 16 17  1  0
 17 18  2  0
 18 19  1  0
 19 20  2  3
 20 21  1  0
 21 22  2  0
 22 23  1  0
 23 24  2  0
 24 25  1  0
 25 26  2  0
 26 27  1  0
 27 28  2  0
 28 29  1  0
 29 30  1  0
 30 31  1  0
 28 32  1  0
 32 33  1  0
 32 34  2  0
 24 35  1  0
 35 36  2  0
 36 37  1  0
 37 38  1  0
 38 39  2  0
 39 40  1  0
 40 41  2  0
 41 42  1  0
 42 43  1  0
 43 44  1  0
 41 45  1  0
 45 46  2  0
 45 47  1  0
 37 48  2  0
 48 49  1  0
 36 50  1  0
 50 51  2  0
 51 52  1  0
 51 53  1  0
 53 54  2  0
 54 55  1  0
 55 56  2  0
 56 57  1  0
 57 58  2  0
 58 59  1  0
 59 60  2  0
 60 61  1  0
 61 62  1  0
 62 63  1  0
 60 64  1  0
 64 65  1  0
 64 66  2  0
 56 67  1  0
 67 68  2  0
 68 69  1  0
 69 70  1  0
 70 71  2  0
 71 72  1  0
 72 73  2  0
 73 74  1  0
 74 75  1  0
 75 76  1  0
 73 77  1  0
 77 78  2  0
 77 79  1  0
 69 80  2  0
 80 81  1  0
 68 82  1  0
 82 83  2  0
 83 84  1  0
 83 85  1  0
 85 86  2  0
 86 87  1  0
 87 88  2  0
 88 89  1  0
 89 90  2  0
 90 91  1  0
 91 92  2  0
 92 93  1  0
 93 94  1  0
 94 95  1  0
 92 96  1  0
 96 97  1  0
 96 98  2  0
 88 99  1  0
 99100  2  0
100101  1  0
101102  1  0
102103  2  0
103104  1  0
104105  2  0
105106  1  0
106107  1  0
107108  1  0
105109  1  0
109110  2  0
109111  1  0
101112  2  0
112113  1  0
100114  1  0
114115  2  0
115116  1  0
115117  1  0
117118  2  0
118119  1  0
119120  2  0
120121  1  0
121122  2  0
122123  1  0
123124  2  0
124125  1  0
125126  1  0
126127  1  0
124128  1  0
128129  1  0
128130  2  0
120131  1  0
131132  2  0
132133  1  0
133134  1  0
134135  2  0
135136  1  0
136137  2  0
137138  1  0
138139  1  0
139140  1  0
137141  1  0
141142  2  0
141143  1  0
133144  2  0
144145  1  0
132146  1  0
146147  2  0
147148  1  0
  8  1  1  0
 18 11  1  0
 49 21  1  0
 81 53  1  0
113 85  1  0
145117  1  0
 48 23  1  0
 80 55  1  0
112 87  1  0
144119  1  0
 34 25  1  0
 52 35  1  0
 66 57  1  0
 84 67  1  0
 98 89  1  0
116 99  1  0
130121  1  0
148131  1  0
 46 38  1  0
 78 70  1  0
110102  1  0
142134  1  0
  1149  1  0
  5150  1  0
  5151  1  0
  5152  1  0
  7153  1  0
  9154  1  0
 10155  1  0
 15156  1  0
 15157  1  0
 15158  1  0
 17159  1  0
 19160  1  0
 20161  1  0
 22162  1  0
 26163  1  0
 27164  1  0
 30165  1  0
 30166  1  0
 31167  1  0
 31168  1  0
 31169  1  0
 34170  1  0
 39171  1  0
 40172  1  0
 43173  1  0
 43174  1  0
 44175  1  0
 44176  1  0
 44177  1  0
 46178  1  0
 50179  1  0
 54180  1  0
 58181  1  0
 59182  1  0
 62183  1  0
 62184  1  0
 63185  1  0
 63186  1  0
 63187  1  0
 66188  1  0
 71189  1  0
 72190  1  0
 75191  1  0
 75192  1  0
 76193  1  0
 76194  1  0
 76195  1  0
 78196  1  0
 82197  1  0
 86198  1  0
 90199  1  0
 91200  1  0
 94201  1  0
 94202  1  0
 95203  1  0
 95204  1  0
 95205  1  0
 98206  1  0
103207  1  0
104208  1  0
107209  1  0
107210  1  0
108211  1  0
108212  1  0
108213  1  0
110214  1  0
114215  1  0
118216  1  0
122217  1  0
123218  1  0
126219  1  0
126220  1  0
127221  1  0
127222  1  0
127223  1  0
130224  1  0
135225  1  0
136226  1  0
139227  1  0
139228  1  0
140229  1  0
140230  1  0
140231  1  0
142232  1  0
146233  1  0
147234  1  0
M  END

