
     RDKit          3D

231257  0  0  0  0  0  0  0  0999 V2000
    4.2277   -0.3684   12.2815 C   0  0  0  0  0  0  0  0  0  0  0  0
    4.5531    0.8074   11.6126 C   0  0  0  0  0  0  0  0  0  0  0  0
    4.8090    0.6122   10.2441 C   0  0  0  0  0  0  0  0  0  0  0  0
    5.1366    1.6112    9.3047 C   0  0  0  0  0  0  0  0  0  0  0  0
    5.1906    3.0426    9.6590 C   0  0  0  0  0  0  0  0  0  0  0  0
    6.5371    4.0328    9.4629 S   0  0  0  0  0  0  0  0  0  0  0  0
    5.7918    5.4584    9.9516 C   0  0  0  0  0  0  0  0  0  0  0  0
    6.4384    6.8106    9.9121 C   0  0  0  0  0  0  0  0  0  0  0  0
    6.1587    7.5014    8.5807 C   0  0  0  0  0  0  0  0  0  0  0  0
    4.4562    5.1827   10.2452 C   0  0  0  0  0  0  0  0  0  0  0  0
    3.2913    6.4125   10.7196 Cl  0  0  0  0  0  0  0  0  0  0  0  0
    4.1220    3.8296   10.0842 C   0  0  0  0  0  0  0  0  0  0  0  0
    2.4880    3.2101   10.3036 Cl  0  0  0  0  0  0  0  0  0  0  0  0
    5.3540    1.1871    7.9825 C   0  0  0  0  0  0  0  0  0  0  0  0
    5.2282   -0.1478    7.5838 C   0  0  0  0  0  0  0  0  0  0  0  0
    4.8857   -1.1430    8.5211 C   0  0  0  0  0  0  0  0  0  0  0  0
    4.7115   -2.5522    8.1279 C   0  0  0  0  0  0  0  0  0  0  0  0
    5.7432   -3.8023    8.5701 S   0  0  0  0  0  0  0  0  0  0  0  0
    4.9936   -4.9909    7.6414 C   0  0  0  0  0  0  0  0  0  0  0  0
    5.4984   -6.3926    7.4892 C   0  0  0  0  0  0  0  0  0  0  0  0
    6.5602   -6.4651    6.3970 C   0  0  0  0  0  0  0  0  0  0  0  0
    3.9327   -4.4119    6.9472 C   0  0  0  0  0  0  0  0  0  0  0  0
    3.7657   -3.0486    7.2283 C   0  0  0  0  0  0  0  0  0  0  0  0
    2.4960   -2.0629    6.5092 Cl  0  0  0  0  0  0  0  0  0  0  0  0
    2.9236   -5.2914    5.8014 Cl  0  0  0  0  0  0  0  0  0  0  0  0
    4.7001   -0.7259    9.8517 C   0  0  0  0  0  0  0  0  0  0  0  0
    4.2654   -1.6520   11.1854 S   0  0  0  0  0  0  0  0  0  0  0  0
    5.4358   -0.3376    6.2063 C   0  0  0  0  0  0  0  0  0  0  0  0
    5.6979    0.8519    5.5298 C   0  0  0  0  0  0  0  0  0  0  0  0
    5.6911    2.1294    6.6318 S   0  0  0  0  0  0  0  0  0  0  0  0
    5.7893    1.0106    4.0726 C   0  0  0  0  0  0  0  0  0  0  0  0
    6.0764    2.2089    3.4243 C   0  0  0  0  0  0  0  0  0  0  0  0
    5.8697    2.1441    2.0397 C   0  0  0  0  0  0  0  0  0  0  0  0
    5.9506    3.2253    1.1493 C   0  0  0  0  0  0  0  0  0  0  0  0
    6.4468    4.5404    1.5862 C   0  0  0  0  0  0  0  0  0  0  0  0
    5.4907    5.8969    1.8568 S   0  0  0  0  0  0  0  0  0  0  0  0
    6.7257    6.8594    2.4778 C   0  0  0  0  0  0  0  0  0  0  0  0
    6.5623    8.2859    2.9030 C   0  0  0  0  0  0  0  0  0  0  0  0
    6.8490    9.2286    1.7415 C   0  0  0  0  0  0  0  0  0  0  0  0
    7.9133    6.1284    2.4670 C   0  0  0  0  0  0  0  0  0  0  0  0
    9.4562    6.7666    3.0187 Cl  0  0  0  0  0  0  0  0  0  0  0  0
    7.7516    4.8228    1.9808 C   0  0  0  0  0  0  0  0  0  0  0  0
    9.0684    3.6585    1.8757 Cl  0  0  0  0  0  0  0  0  0  0  0  0
    5.4992    3.0060   -0.1605 C   0  0  0  0  0  0  0  0  0  0  0  0
    5.0516    1.7566   -0.6078 C   0  0  0  0  0  0  0  0  0  0  0  0
    5.0350    0.6508    0.2725 C   0  0  0  0  0  0  0  0  0  0  0  0
    4.5514   -0.6826   -0.1326 C   0  0  0  0  0  0  0  0  0  0  0  0
    2.9448   -1.0753   -0.4368 S   0  0  0  0  0  0  0  0  0  0  0  0
    3.1989   -2.7286   -0.6391 C   0  0  0  0  0  0  0  0  0  0  0  0
    2.1153   -3.7349   -0.8940 C   0  0  0  0  0  0  0  0  0  0  0  0
    1.6998   -4.4267    0.3989 C   0  0  0  0  0  0  0  0  0  0  0  0
    4.5525   -2.9972   -0.4484 C   0  0  0  0  0  0  0  0  0  0  0  0
    5.3097   -1.8518   -0.1614 C   0  0  0  0  0  0  0  0  0  0  0  0
    7.0401   -1.8852    0.1515 Cl  0  0  0  0  0  0  0  0  0  0  0  0
    5.2405   -4.6135   -0.5308 Cl  0  0  0  0  0  0  0  0  0  0  0  0
    5.4336    0.8916    1.6001 C   0  0  0  0  0  0  0  0  0  0  0  0
    5.2997   -0.1355    2.9295 S   0  0  0  0  0  0  0  0  0  0  0  0
    4.5645    1.7903   -1.9275 C   0  0  0  0  0  0  0  0  0  0  0  0
    4.5975    3.0718   -2.4828 C   0  0  0  0  0  0  0  0  0  0  0  0
    5.2562    4.1487   -1.3626 S   0  0  0  0  0  0  0  0  0  0  0  0
    3.7779    3.4986   -3.6196 C   0  0  0  0  0  0  0  0  0  0  0  0
    2.7920    4.4723   -3.5175 C   0  0  0  0  0  0  0  0  0  0  0  0
    1.9007    4.4698   -4.5995 C   0  0  0  0  0  0  0  0  0  0  0  0
    0.7082    5.2117   -4.6791 C   0  0  0  0  0  0  0  0  0  0  0  0
    0.2186    5.9991   -3.5336 C   0  0  0  0  0  0  0  0  0  0  0  0
   -0.1937    5.3367   -2.0442 S   0  0  0  0  0  0  0  0  0  0  0  0
   -0.6440    6.7867   -1.3192 C   0  0  0  0  0  0  0  0  0  0  0  0
   -1.0322    6.9177    0.1237 C   0  0  0  0  0  0  0  0  0  0  0  0
    0.2054    6.9275    1.0135 C   0  0  0  0  0  0  0  0  0  0  0  0
   -0.4583    7.8197   -2.2390 C   0  0  0  0  0  0  0  0  0  0  0  0
   -0.7656    9.5122   -1.8712 Cl  0  0  0  0  0  0  0  0  0  0  0  0
    0.0108    7.3741   -3.4863 C   0  0  0  0  0  0  0  0  0  0  0  0
    0.3524    8.4478   -4.8349 Cl  0  0  0  0  0  0  0  0  0  0  0  0
   -0.1257    4.9561   -5.7751 C   0  0  0  0  0  0  0  0  0  0  0  0
    0.1909    4.0167   -6.7623 C   0  0  0  0  0  0  0  0  0  0  0  0
    1.4136    3.3083   -6.7138 C   0  0  0  0  0  0  0  0  0  0  0  0
    1.7894    2.3283   -7.7561 C   0  0  0  0  0  0  0  0  0  0  0  0
    2.2383    0.7290   -7.4761 S   0  0  0  0  0  0  0  0  0  0  0  0
    2.5945    0.3487   -9.0732 C   0  0  0  0  0  0  0  0  0  0  0  0
    3.2410   -0.9321   -9.5081 C   0  0  0  0  0  0  0  0  0  0  0  0
    4.7532   -0.8473   -9.3274 C   0  0  0  0  0  0  0  0  0  0  0  0
    2.3851    1.4833   -9.8564 C   0  0  0  0  0  0  0  0  0  0  0  0
    1.9242    2.5880   -9.1209 C   0  0  0  0  0  0  0  0  0  0  0  0
    1.6592    4.1694   -9.8437 Cl  0  0  0  0  0  0  0  0  0  0  0  0
    2.7071    1.5454  -11.5843 Cl  0  0  0  0  0  0  0  0  0  0  0  0
    2.2273    3.5321   -5.5858 C   0  0  0  0  0  0  0  0  0  0  0  0
    3.5853    2.6639   -5.0726 S   0  0  0  0  0  0  0  0  0  0  0  0
   -0.8985    3.7090   -7.5986 C   0  0  0  0  0  0  0  0  0  0  0  0
   -2.0801    4.3691   -7.2413 C   0  0  0  0  0  0  0  0  0  0  0  0
   -1.7405    5.3854   -5.9340 S   0  0  0  0  0  0  0  0  0  0  0  0
   -3.4371    3.8420   -7.4999 C   0  0  0  0  0  0  0  0  0  0  0  0
   -3.6925    2.6525   -8.1855 C   0  0  0  0  0  0  0  0  0  0  0  0
   -4.8677    2.0042   -7.7664 C   0  0  0  0  0  0  0  0  0  0  0  0
   -5.2283    0.6809   -8.0944 C   0  0  0  0  0  0  0  0  0  0  0  0
   -4.5165   -0.0695   -9.1495 C   0  0  0  0  0  0  0  0  0  0  0  0
   -3.5685   -1.4412   -8.9011 S   0  0  0  0  0  0  0  0  0  0  0  0
   -3.0300   -1.5808  -10.4892 C   0  0  0  0  0  0  0  0  0  0  0  0
   -2.0369   -2.5960  -10.9666 C   0  0  0  0  0  0  0  0  0  0  0  0
   -0.6146   -2.0515  -10.8737 C   0  0  0  0  0  0  0  0  0  0  0  0
   -3.5668   -0.5324  -11.2352 C   0  0  0  0  0  0  0  0  0  0  0  0
   -3.2017   -0.2635  -12.9358 Cl  0  0  0  0  0  0  0  0  0  0  0  0
   -4.4033    0.3077  -10.4868 C   0  0  0  0  0  0  0  0  0  0  0  0
   -5.2260    1.7059  -11.1696 Cl  0  0  0  0  0  0  0  0  0  0  0  0
   -6.1906    0.0692   -7.2698 C   0  0  0  0  0  0  0  0  0  0  0  0
   -6.8250    0.7465   -6.2245 C   0  0  0  0  0  0  0  0  0  0  0  0
   -6.5951    2.1224   -6.0177 C   0  0  0  0  0  0  0  0  0  0  0  0
   -7.3474    2.8830   -4.9958 C   0  0  0  0  0  0  0  0  0  0  0  0
   -6.6827    3.7034   -3.6843 S   0  0  0  0  0  0  0  0  0  0  0  0
   -8.1457    4.2266   -3.0325 C   0  0  0  0  0  0  0  0  0  0  0  0
   -8.2783    5.1092   -1.8280 C   0  0  0  0  0  0  0  0  0  0  0  0
   -8.2514    6.5787   -2.2287 C   0  0  0  0  0  0  0  0  0  0  0  0
   -9.1815    3.7777   -3.8488 C   0  0  0  0  0  0  0  0  0  0  0  0
   -8.7352    3.0152   -4.9387 C   0  0  0  0  0  0  0  0  0  0  0  0
   -9.8275    2.3302   -6.1394 Cl  0  0  0  0  0  0  0  0  0  0  0  0
  -10.8786    4.1351   -3.5540 Cl  0  0  0  0  0  0  0  0  0  0  0  0
   -5.5639    2.7065   -6.7770 C   0  0  0  0  0  0  0  0  0  0  0  0
   -4.7306    4.1265   -6.4494 S   0  0  0  0  0  0  0  0  0  0  0  0
   -7.4961   -0.1090   -5.3309 C   0  0  0  0  0  0  0  0  0  0  0  0
   -7.4111   -1.4627   -5.6756 C   0  0  0  0  0  0  0  0  0  0  0  0
   -6.5203   -1.5689   -7.1165 S   0  0  0  0  0  0  0  0  0  0  0  0
   -7.5478   -2.5809   -4.6972 C   0  0  0  0  0  0  0  0  0  0  0  0
   -6.5382   -3.5598   -4.6893 C   0  0  0  0  0  0  0  0  0  0  0  0
   -6.4022   -4.4471   -3.6299 C   0  0  0  0  0  0  0  0  0  0  0  0
   -7.2721   -4.3947   -2.5310 C   0  0  0  0  0  0  0  0  0  0  0  0
   -8.3479   -3.4850   -2.5558 C   0  0  0  0  0  0  0  0  0  0  0  0
   -8.5118   -2.5948   -3.6558 C   0  0  0  0  0  0  0  0  0  0  0  0
   -9.6443   -1.7572   -3.6688 C   0  0  0  0  0  0  0  0  0  0  0  0
  -10.5396   -1.7681   -2.6003 C   0  0  0  0  0  0  0  0  0  0  0  0
  -10.3163   -2.6244   -1.5246 C   0  0  0  0  0  0  0  0  0  0  0  0
   -9.2432   -3.4583   -1.5292 N   0  0  0  0  0  0  0  0  0  0  0  0
   -6.9465   -5.1680   -1.3030 C   0  0  0  0  0  0  0  0  0  0  0  0
   -6.3289   -6.3559   -1.3614 C   0  0  0  0  0  0  0  0  0  0  0  0
   -5.6025   -6.9545   -0.2251 C   0  0  0  0  0  0  0  0  0  0  0  0
   -5.2801   -6.3424    0.9907 C   0  0  0  0  0  0  0  0  0  0  0  0
   -4.3204   -7.0626    1.7272 C   0  0  0  0  0  0  0  0  0  0  0  0
   -3.7137   -6.6543    2.9335 C   0  0  0  0  0  0  0  0  0  0  0  0
   -4.0942   -5.4095    3.6200 C   0  0  0  0  0  0  0  0  0  0  0  0
   -3.1000   -4.0631    3.7834 S   0  0  0  0  0  0  0  0  0  0  0  0
   -4.1737   -3.1654    4.7185 C   0  0  0  0  0  0  0  0  0  0  0  0
   -3.8656   -1.8224    5.3092 C   0  0  0  0  0  0  0  0  0  0  0  0
   -3.1299   -1.9746    6.6338 C   0  0  0  0  0  0  0  0  0  0  0  0
   -5.3203   -3.9292    4.9413 C   0  0  0  0  0  0  0  0  0  0  0  0
   -6.6636   -3.3981    5.9424 Cl  0  0  0  0  0  0  0  0  0  0  0  0
   -5.2768   -5.1849    4.3150 C   0  0  0  0  0  0  0  0  0  0  0  0
   -6.5576   -6.3842    4.4506 Cl  0  0  0  0  0  0  0  0  0  0  0  0
   -2.6929   -7.4740    3.4429 C   0  0  0  0  0  0  0  0  0  0  0  0
   -2.2775   -8.6444    2.8059 C   0  0  0  0  0  0  0  0  0  0  0  0
   -2.8727   -9.0489    1.5947 C   0  0  0  0  0  0  0  0  0  0  0  0
   -2.3862  -10.2177    0.8409 C   0  0  0  0  0  0  0  0  0  0  0  0
   -3.2541  -11.6379    0.5987 S   0  0  0  0  0  0  0  0  0  0  0  0
   -2.0517  -12.4287   -0.2770 C   0  0  0  0  0  0  0  0  0  0  0  0
   -2.1401  -13.8460   -0.7561 C   0  0  0  0  0  0  0  0  0  0  0  0
   -1.4918  -14.7933    0.2471 C   0  0  0  0  0  0  0  0  0  0  0  0
   -0.9449  -11.5887   -0.3785 C   0  0  0  0  0  0  0  0  0  0  0  0
   -1.1356  -10.3460    0.2439 C   0  0  0  0  0  0  0  0  0  0  0  0
    0.0775   -9.0709    0.2493 Cl  0  0  0  0  0  0  0  0  0  0  0  0
    0.5507  -12.0407   -1.1887 Cl  0  0  0  0  0  0  0  0  0  0  0  0
   -3.9042   -8.2377    1.0915 C   0  0  0  0  0  0  0  0  0  0  0  0
   -4.7089   -8.3772   -0.3768 S   0  0  0  0  0  0  0  0  0  0  0  0
   -1.2524   -9.3128    3.4957 C   0  0  0  0  0  0  0  0  0  0  0  0
   -0.8654   -8.6635    4.6638 C   0  0  0  0  0  0  0  0  0  0  0  0
   -1.7937   -7.2686    4.8503 S   0  0  0  0  0  0  0  0  0  0  0  0
    3.9812   -0.4446   13.3330 H   0  0  0  0  0  0  0  0  0  0  0  0
    4.5924    1.7735   12.1071 H   0  0  0  0  0  0  0  0  0  0  0  0
    6.0590    7.4391   10.7438 H   0  0  0  0  0  0  0  0  0  0  0  0
    7.5361    6.6993   10.0387 H   0  0  0  0  0  0  0  0  0  0  0  0
    6.6696    8.4867    8.5586 H   0  0  0  0  0  0  0  0  0  0  0  0
    5.0673    7.6651    8.4509 H   0  0  0  0  0  0  0  0  0  0  0  0
    6.5377    6.8838    7.7373 H   0  0  0  0  0  0  0  0  0  0  0  0
    4.6584   -7.0759    7.2400 H   0  0  0  0  0  0  0  0  0  0  0  0
    5.9379   -6.7341    8.4504 H   0  0  0  0  0  0  0  0  0  0  0  0
    6.1476   -6.1141    5.4261 H   0  0  0  0  0  0  0  0  0  0  0  0
    7.4377   -5.8372    6.6679 H   0  0  0  0  0  0  0  0  0  0  0  0
    6.9035   -7.5142    6.2810 H   0  0  0  0  0  0  0  0  0  0  0  0
    5.3704   -1.2965    5.7089 H   0  0  0  0  0  0  0  0  0  0  0  0
    6.3537    3.1169    3.9464 H   0  0  0  0  0  0  0  0  0  0  0  0
    7.2481    8.5137    3.7478 H   0  0  0  0  0  0  0  0  0  0  0  0
    5.5230    8.4452    3.2603 H   0  0  0  0  0  0  0  0  0  0  0  0
    6.1574    9.0215    0.8970 H   0  0  0  0  0  0  0  0  0  0  0  0
    7.8977    9.1044    1.3935 H   0  0  0  0  0  0  0  0  0  0  0  0
    6.7070   10.2791    2.0734 H   0  0  0  0  0  0  0  0  0  0  0  0
    2.4757   -4.4938   -1.6220 H   0  0  0  0  0  0  0  0  0  0  0  0
    1.2319   -3.2261   -1.3370 H   0  0  0  0  0  0  0  0  0  0  0  0
    1.3782   -3.6770    1.1530 H   0  0  0  0  0  0  0  0  0  0  0  0
    0.8478   -5.1133    0.1953 H   0  0  0  0  0  0  0  0  0  0  0  0
    2.5423   -5.0215    0.8109 H   0  0  0  0  0  0  0  0  0  0  0  0
    4.1014    0.9452   -2.4194 H   0  0  0  0  0  0  0  0  0  0  0  0
    2.6699    5.0941   -2.6399 H   0  0  0  0  0  0  0  0  0  0  0  0
   -1.6752    6.0548    0.4028 H   0  0  0  0  0  0  0  0  0  0  0  0
   -1.6227    7.8460    0.2850 H   0  0  0  0  0  0  0  0  0  0  0  0
    0.8532    7.7941    0.7689 H   0  0  0  0  0  0  0  0  0  0  0  0
   -0.1022    6.9992    2.0795 H   0  0  0  0  0  0  0  0  0  0  0  0
    0.7853    5.9891    0.8797 H   0  0  0  0  0  0  0  0  0  0  0  0
    2.9976   -1.1445  -10.5707 H   0  0  0  0  0  0  0  0  0  0  0  0
    2.8423   -1.7662   -8.8939 H   0  0  0  0  0  0  0  0  0  0  0  0
    5.0053   -0.6364   -8.2654 H   0  0  0  0  0  0  0  0  0  0  0  0
    5.1761   -0.0394   -9.9651 H   0  0  0  0  0  0  0  0  0  0  0  0
    5.2193   -1.8134   -9.6165 H   0  0  0  0  0  0  0  0  0  0  0  0
   -0.8663    2.9083   -8.3249 H   0  0  0  0  0  0  0  0  0  0  0  0
   -2.9693    2.1834   -8.8418 H   0  0  0  0  0  0  0  0  0  0  0  0
   -2.2612   -2.8750  -12.0185 H   0  0  0  0  0  0  0  0  0  0  0  0
   -2.1182   -3.5146  -10.3470 H   0  0  0  0  0  0  0  0  0  0  0  0
    0.0969   -2.8186  -11.2471 H   0  0  0  0  0  0  0  0  0  0  0  0
   -0.5077   -1.1352  -11.4921 H   0  0  0  0  0  0  0  0  0  0  0  0
   -0.3556   -1.8127   -9.8185 H   0  0  0  0  0  0  0  0  0  0  0  0
   -7.4433    4.9021   -1.1278 H   0  0  0  0  0  0  0  0  0  0  0  0
   -9.2291    4.8884   -1.2982 H   0  0  0  0  0  0  0  0  0  0  0  0
   -7.2841    6.8277   -2.7218 H   0  0  0  0  0  0  0  0  0  0  0  0
   -8.3706    7.2145   -1.3260 H   0  0  0  0  0  0  0  0  0  0  0  0
   -9.0836    6.8058   -2.9324 H   0  0  0  0  0  0  0  0  0  0  0  0
   -7.8868    0.2356   -4.3810 H   0  0  0  0  0  0  0  0  0  0  0  0
   -5.7803   -3.5904   -5.4633 H   0  0  0  0  0  0  0  0  0  0  0  0
   -5.5486   -5.1141   -3.6299 H   0  0  0  0  0  0  0  0  0  0  0  0
   -9.8569   -1.1075   -4.5064 H   0  0  0  0  0  0  0  0  0  0  0  0
  -11.4024   -1.1143   -2.6055 H   0  0  0  0  0  0  0  0  0  0  0  0
  -11.0026   -2.6338   -0.6890 H   0  0  0  0  0  0  0  0  0  0  0  0
   -7.1117   -4.6932   -0.3448 H   0  0  0  0  0  0  0  0  0  0  0  0
   -6.2391   -6.8639   -2.3130 H   0  0  0  0  0  0  0  0  0  0  0  0
   -5.6564   -5.3745    1.2985 H   0  0  0  0  0  0  0  0  0  0  0  0
   -3.2328   -1.2472    4.6009 H   0  0  0  0  0  0  0  0  0  0  0  0
   -4.8057   -1.2501    5.4684 H   0  0  0  0  0  0  0  0  0  0  0  0
   -2.9159   -0.9704    7.0592 H   0  0  0  0  0  0  0  0  0  0  0  0
   -3.7521   -2.5399    7.3600 H   0  0  0  0  0  0  0  0  0  0  0  0
   -2.1673   -2.5130    6.4846 H   0  0  0  0  0  0  0  0  0  0  0  0
   -1.6372  -13.9437   -1.7416 H   0  0  0  0  0  0  0  0  0  0  0  0
   -3.2046  -14.1295   -0.8854 H   0  0  0  0  0  0  0  0  0  0  0  0
   -2.0048  -14.7253    1.2318 H   0  0  0  0  0  0  0  0  0  0  0  0
   -0.4172  -14.5467    0.3803 H   0  0  0  0  0  0  0  0  0  0  0  0
   -1.5716  -15.8360   -0.1262 H   0  0  0  0  0  0  0  0  0  0  0  0
   -0.8060  -10.2428    3.1678 H   0  0  0  0  0  0  0  0  0  0  0  0
   -0.0982   -9.0038    5.3458 H   0  0  0  0  0  0  0  0  0  0  0  0
  1  2  2  0
  2  3  1  0
  3  4  2  0
  4  5  1  0
  5  6  1  0
  6  7  1  0
  7  8  1  0
  8  9  1  0
  7 10  2  0
 10 11  1  0
 10 12  1  0
 12 13  1  0
  4 14  1  0
 14 15  2  0
 15 16  1  0
 16 17  1  0
 17 18  1  0
 18 19  1  0
 19 20  1  0
 20 21  1  0
 19 22  2  0
 22 23  1  0
 23 24  1  0
 22 25  1  0
 16 26  2  0
 26 27  1  0
 15 28  1  0
 28 29  2  0
 29 30  1  0
 29 31  1  0
 31 32  2  0
 32 33  1  0
 33 34  2  0
 34 35  1  0
 35 36  1  0
 36 37  1  0
 37 38  1  0
 38 39  1  0
 37 40  2  0
 40 41  1  0
 40 42  1  0
 42 43  1  0
 34 44  1  0
 44 45  2  0
 45 46  1  0
 46 47  1  0
 47 48  1  0
 48 49  1  0
 49 50  1  0
 50 51  1  0
 49 52  2  0
 52 53  1  0
 53 54  1  0
 52 55  1  0
 46 56  2  0
 56 57  1  0
 45 58  1  0
 58 59  2  0
 59 60  1  0
 59 61  1  0
 61 62  2  0
 62 63  1  0
 63 64  2  0
 64 65  1  0
 65 66  1  0
 66 67  1  0
 67 68  1  0
 68 69  1  0
 67 70  2  0
 70 71  1  0
 70 72  1  0
 72 73  1  0
 64 74  1  0
 74 75  2  0
 75 76  1  0
 76 77  1  0
 77 78  1  0
 78 79  1  0
 79 80  1  0
 80 81  1  0
 79 82  2  0
 82 83  1  0
 83 84  1  0
 82 85  1  0
 76 86  2  0
 86 87  1  0
 75 88  1  0
 88 89  2  0
 89 90  1  0
 89 91  1  0
 91 92  2  0
 92 93  1  0
 93 94  2  0
 94 95  1  0
 95 96  1  0
 96 97  1  0
 97 98  1  0
 98 99  1  0
 97100  2  0
100101  1  0
100102  1  0
102103  1  0
 94104  1  0
104105  2  0
105106  1  0
106107  1  0
107108  1  0
108109  1  0
109110  1  0
110111  1  0
109112  2  0
112113  1  0
113114  1  0
112115  1  0
106116  2  0
116117  1  0
105118  1  0
118119  2  0
119120  1  0
119121  1  0
121122  2  0
122123  1  0
123124  2  0
124125  1  0
125126  2  0
126127  1  0
127128  2  0
128129  1  0
129130  2  0
124131  1  0
131132  2  3
132133  1  0
133134  2  0
134135  1  0
135136  2  0
136137  1  0
137138  1  0
138139  1  0
139140  1  0
140141  1  0
139142  2  0
142143  1  0
142144  1  0
144145  1  0
136146  1  0
146147  2  0
147148  1  0
148149  1  0
149150  1  0
150151  1  0
151152  1  0
152153  1  0
151154  2  0
154155  1  0
155156  1  0
154157  1  0
148158  2  0
158159  1  0
147160  1  0
160161  2  0
161162  1  0
 27  1  1  0
 57 31  1  0
 87 61  1  0
117 91  1  0
126121  1  0
159133  1  0
 26  3  1  0
 56 33  1  0
 86 63  1  0
116 93  1  0
130125  1  0
158135  1  0
 12  5  2  0
 30 14  1  0
 42 35  2  0
 60 44  1  0
 72 65  2  0
 90 74  1  0
102 95  2  0
120104  1  0
144137  2  0
162146  1  0
 23 17  2  0
 53 47  2  0
 83 77  2  0
113107  2  0
155149  2  0
  1163  1  0
  2164  1  0
  8165  1  0
  8166  1  0
  9167  1  0
  9168  1  0
  9169  1  0
 20170  1  0
 20171  1  0
 21172  1  0
 21173  1  0
 21174  1  0
 28175  1  0
 32176  1  0
 38177  1  0
 38178  1  0
 39179  1  0
 39180  1  0
 39181  1  0
 50182  1  0
 50183  1  0
 51184  1  0
 51185  1  0
 51186  1  0
 58187  1  0
 62188  1  0
 68189  1  0
 68190  1  0
 69191  1  0
 69192  1  0
 69193  1  0
 80194  1  0
 80195  1  0
 81196  1  0
 81197  1  0
 81198  1  0
 88199  1  0
 92200  1  0
 98201  1  0
 98202  1  0
 99203  1  0
 99204  1  0
 99205  1  0
110206  1  0
110207  1  0
111208  1  0
111209  1  0
111210  1  0
118211  1  0
122212  1  0
123213  1  0
127214  1  0
128215  1  0
129216  1  0
131217  1  0
132218  1  0
134219  1  0
140220  1  0
140221  1  0
141222  1  0
141223  1  0
141224  1  0
152225  1  0
152226  1  0
153227  1  0
153228  1  0
153229  1  0
160230  1  0
161231  1  0
M  END

