
     RDKit          3D

198219  0  0  0  0  0  0  0  0999 V2000
    1.8601   -3.2621   13.8263 C   0  0  0  0  0  0  0  0  0  0  0  0
    2.5247   -3.6931   12.6812 C   0  0  0  0  0  0  0  0  0  0  0  0
    2.0269   -3.1122   11.5023 C   0  0  0  0  0  0  0  0  0  0  0  0
    2.4878   -3.3560   10.1943 C   0  0  0  0  0  0  0  0  0  0  0  0
    3.6778   -4.1835    9.9232 C   0  0  0  0  0  0  0  0  0  0  0  0
    3.6962   -5.5662    8.9707 S   0  0  0  0  0  0  0  0  0  0  0  0
    5.3561   -5.8377    9.0683 C   0  0  0  0  0  0  0  0  0  0  0  0
    6.0870   -6.9150    8.3211 C   0  0  0  0  0  0  0  0  0  0  0  0
    6.3437   -6.4879    6.8817 C   0  0  0  0  0  0  0  0  0  0  0  0
    5.9264   -4.8205    9.8349 C   0  0  0  0  0  0  0  0  0  0  0  0
    7.6554   -4.6753   10.1280 Cl  0  0  0  0  0  0  0  0  0  0  0  0
    4.9859   -3.8969   10.3203 C   0  0  0  0  0  0  0  0  0  0  0  0
    5.4269   -2.4751   11.2577 Cl  0  0  0  0  0  0  0  0  0  0  0  0
    1.8082   -2.7024    9.1512 C   0  0  0  0  0  0  0  0  0  0  0  0
    0.7753   -1.7872    9.3847 C   0  0  0  0  0  0  0  0  0  0  0  0
    0.3276   -1.5290   10.6942 C   0  0  0  0  0  0  0  0  0  0  0  0
   -0.7509   -0.5634   10.9707 C   0  0  0  0  0  0  0  0  0  0  0  0
   -0.6401    1.0979   10.7301 S   0  0  0  0  0  0  0  0  0  0  0  0
   -2.1986    1.4554   11.2556 C   0  0  0  0  0  0  0  0  0  0  0  0
   -2.8006    2.8270   11.2502 C   0  0  0  0  0  0  0  0  0  0  0  0
   -3.4430    3.1277    9.9018 C   0  0  0  0  0  0  0  0  0  0  0  0
   -2.8363    0.2665   11.6108 C   0  0  0  0  0  0  0  0  0  0  0  0
   -2.0192   -0.8657   11.4598 C   0  0  0  0  0  0  0  0  0  0  0  0
   -2.5578   -2.5029   11.7994 Cl  0  0  0  0  0  0  0  0  0  0  0  0
   -4.5015    0.1815   12.1714 Cl  0  0  0  0  0  0  0  0  0  0  0  0
    0.9665   -2.2281   11.7307 C   0  0  0  0  0  0  0  0  0  0  0  0
    0.6631   -2.1570   13.3848 S   0  0  0  0  0  0  0  0  0  0  0  0
    0.2830   -1.1953    8.2094 C   0  0  0  0  0  0  0  0  0  0  0  0
    0.9152   -1.6711    7.0657 C   0  0  0  0  0  0  0  0  0  0  0  0
    2.0976   -2.7934    7.4957 S   0  0  0  0  0  0  0  0  0  0  0  0
    0.7252   -1.1440    5.7134 C   0  0  0  0  0  0  0  0  0  0  0  0
    0.7584    0.2037    5.3889 C   0  0  0  0  0  0  0  0  0  0  0  0
    0.7919    0.4261    4.0029 C   0  0  0  0  0  0  0  0  0  0  0  0
    0.9466    1.6733    3.3932 C   0  0  0  0  0  0  0  0  0  0  0  0
    1.0846    2.9101    4.1795 C   0  0  0  0  0  0  0  0  0  0  0  0
   -0.1891    3.7605    4.8673 S   0  0  0  0  0  0  0  0  0  0  0  0
    0.7512    5.0123    5.4947 C   0  0  0  0  0  0  0  0  0  0  0  0
    0.2173    6.1752    6.2741 C   0  0  0  0  0  0  0  0  0  0  0  0
    0.2487    5.8863    7.7698 C   0  0  0  0  0  0  0  0  0  0  0  0
    2.0882    4.7661    5.1815 C   0  0  0  0  0  0  0  0  0  0  0  0
    3.4107    5.8233    5.6583 Cl  0  0  0  0  0  0  0  0  0  0  0  0
    2.2712    3.5906    4.4357 C   0  0  0  0  0  0  0  0  0  0  0  0
    3.8461    3.0256    3.8906 Cl  0  0  0  0  0  0  0  0  0  0  0  0
    1.0869    1.6903    2.0041 C   0  0  0  0  0  0  0  0  0  0  0  0
    1.0525    0.5329    1.2129 C   0  0  0  0  0  0  0  0  0  0  0  0
    0.8116   -0.7379    1.8087 C   0  0  0  0  0  0  0  0  0  0  0  0
    0.5309   -1.9744    1.0145 C   0  0  0  0  0  0  0  0  0  0  0  0
    0.9180   -3.5479    1.4982 S   0  0  0  0  0  0  0  0  0  0  0  0
   -0.0842   -4.3780    0.4382 C   0  0  0  0  0  0  0  0  0  0  0  0
   -0.4392   -5.8320    0.5695 C   0  0  0  0  0  0  0  0  0  0  0  0
    0.0158   -6.6584   -0.6267 C   0  0  0  0  0  0  0  0  0  0  0  0
   -0.7454   -3.4320   -0.3380 C   0  0  0  0  0  0  0  0  0  0  0  0
   -0.4061   -2.1042   -0.0256 C   0  0  0  0  0  0  0  0  0  0  0  0
   -1.2427   -0.7589   -0.7777 Cl  0  0  0  0  0  0  0  0  0  0  0  0
   -1.9995   -3.8512   -1.5025 Cl  0  0  0  0  0  0  0  0  0  0  0  0
    0.7424   -0.7454    3.2305 C   0  0  0  0  0  0  0  0  0  0  0  0
    0.7016   -2.0551    4.2965 S   0  0  0  0  0  0  0  0  0  0  0  0
    1.3573    0.8059   -0.1396 C   0  0  0  0  0  0  0  0  0  0  0  0
    1.5486    2.1717   -0.3928 C   0  0  0  0  0  0  0  0  0  0  0  0
    1.4250    3.0230    1.0508 S   0  0  0  0  0  0  0  0  0  0  0  0
    2.0859    2.7921   -1.6212 C   0  0  0  0  0  0  0  0  0  0  0  0
    3.3386    2.3608   -2.0969 C   0  0  0  0  0  0  0  0  0  0  0  0
    3.9354    1.2605   -1.5739 F   0  0  0  0  0  0  0  0  0  0  0  0
    4.0230    3.1035   -3.0592 C   0  0  0  0  0  0  0  0  0  0  0  0
    3.4891    4.3003   -3.5295 C   0  0  0  0  0  0  0  0  0  0  0  0
    2.2418    4.7317   -3.0844 C   0  0  0  0  0  0  0  0  0  0  0  0
    1.4867    3.9497   -2.1897 C   0  0  0  0  0  0  0  0  0  0  0  0
    0.0913    4.3474   -1.8376 C   0  0  0  0  0  0  0  0  0  0  0  0
   -0.8290    4.8816   -2.6669 C   0  0  0  0  0  0  0  0  0  0  0  0
   -0.6825    5.1176   -4.1324 C   0  0  0  0  0  0  0  0  0  0  0  0
   -0.0296    4.1823   -4.9652 C   0  0  0  0  0  0  0  0  0  0  0  0
    0.2743    2.9405   -4.5106 F   0  0  0  0  0  0  0  0  0  0  0  0
    0.3094    4.5197   -6.2765 C   0  0  0  0  0  0  0  0  0  0  0  0
   -0.0769    5.7490   -6.8065 C   0  0  0  0  0  0  0  0  0  0  0  0
   -0.8562    6.6221   -6.0462 C   0  0  0  0  0  0  0  0  0  0  0  0
   -1.2122    6.2954   -4.7295 C   0  0  0  0  0  0  0  0  0  0  0  0
   -2.2332    7.1376   -4.0616 C   0  0  0  0  0  0  0  0  0  0  0  0
   -3.4802    6.6984   -3.7898 C   0  0  0  0  0  0  0  0  0  0  0  0
   -3.9325    5.3357   -4.1191 C   0  0  0  0  0  0  0  0  0  0  0  0
   -3.7114    4.7042   -5.3420 C   0  0  0  0  0  0  0  0  0  0  0  0
   -3.7216    3.3042   -5.2481 C   0  0  0  0  0  0  0  0  0  0  0  0
   -3.3495    2.4144   -6.2727 C   0  0  0  0  0  0  0  0  0  0  0  0
   -3.0772    2.8842   -7.6471 C   0  0  0  0  0  0  0  0  0  0  0  0
   -1.5869    2.7823   -8.4205 S   0  0  0  0  0  0  0  0  0  0  0  0
   -2.0269    3.6416   -9.7949 C   0  0  0  0  0  0  0  0  0  0  0  0
   -1.1039    3.9597  -10.9287 C   0  0  0  0  0  0  0  0  0  0  0  0
   -1.0958    2.8343  -11.9547 C   0  0  0  0  0  0  0  0  0  0  0  0
   -3.3707    3.9981   -9.6818 C   0  0  0  0  0  0  0  0  0  0  0  0
   -4.2470    4.8925  -10.9187 Cl  0  0  0  0  0  0  0  0  0  0  0  0
   -3.9569    3.5802   -8.4750 C   0  0  0  0  0  0  0  0  0  0  0  0
   -5.6413    3.8836   -8.0676 Cl  0  0  0  0  0  0  0  0  0  0  0  0
   -3.1114    1.0869   -5.8959 C   0  0  0  0  0  0  0  0  0  0  0  0
   -3.2627    0.6377   -4.5794 C   0  0  0  0  0  0  0  0  0  0  0  0
   -3.7797    1.4956   -3.5802 C   0  0  0  0  0  0  0  0  0  0  0  0
   -4.0344    1.0277   -2.1958 C   0  0  0  0  0  0  0  0  0  0  0  0
   -3.4605    1.7676   -0.7884 S   0  0  0  0  0  0  0  0  0  0  0  0
   -4.1027    0.6496    0.2900 C   0  0  0  0  0  0  0  0  0  0  0  0
   -3.9603    0.7190    1.7821 C   0  0  0  0  0  0  0  0  0  0  0  0
   -5.1352    1.4631    2.4058 C   0  0  0  0  0  0  0  0  0  0  0  0
   -4.8149   -0.3053   -0.4339 C   0  0  0  0  0  0  0  0  0  0  0  0
   -4.7801   -0.0928   -1.8223 C   0  0  0  0  0  0  0  0  0  0  0  0
   -5.6724   -1.0969   -2.9585 Cl  0  0  0  0  0  0  0  0  0  0  0  0
   -5.6653   -1.6495    0.3138 Cl  0  0  0  0  0  0  0  0  0  0  0  0
   -3.9683    2.8417   -3.9515 C   0  0  0  0  0  0  0  0  0  0  0  0
   -4.2324    4.1641   -2.9471 S   0  0  0  0  0  0  0  0  0  0  0  0
   -2.7649   -0.6635   -4.3886 C   0  0  0  0  0  0  0  0  0  0  0  0
   -2.2949   -1.2363   -5.5661 C   0  0  0  0  0  0  0  0  0  0  0  0
   -2.4591   -0.1434   -6.8351 S   0  0  0  0  0  0  0  0  0  0  0  0
   -1.5805   -2.5052   -5.6672 C   0  0  0  0  0  0  0  0  0  0  0  0
   -1.7529   -3.4438   -6.6752 C   0  0  0  0  0  0  0  0  0  0  0  0
   -0.8784   -4.5388   -6.5552 C   0  0  0  0  0  0  0  0  0  0  0  0
   -0.8135   -5.6525   -7.4147 C   0  0  0  0  0  0  0  0  0  0  0  0
   -1.6678   -5.7612   -8.6114 C   0  0  0  0  0  0  0  0  0  0  0  0
   -3.3514   -5.7618   -8.6056 S   0  0  0  0  0  0  0  0  0  0  0  0
   -3.5396   -5.7137  -10.2800 C   0  0  0  0  0  0  0  0  0  0  0  0
   -4.8557   -5.5545  -10.9839 C   0  0  0  0  0  0  0  0  0  0  0  0
   -5.1886   -4.0775  -11.1729 C   0  0  0  0  0  0  0  0  0  0  0  0
   -2.2746   -5.6819  -10.8689 C   0  0  0  0  0  0  0  0  0  0  0  0
   -2.0145   -5.5461  -12.6022 Cl  0  0  0  0  0  0  0  0  0  0  0  0
   -1.2292   -5.7110   -9.9318 C   0  0  0  0  0  0  0  0  0  0  0  0
    0.4655   -5.5748  -10.3843 Cl  0  0  0  0  0  0  0  0  0  0  0  0
    0.1505   -6.6294   -7.1143 C   0  0  0  0  0  0  0  0  0  0  0  0
    1.0584   -6.4942   -6.0569 C   0  0  0  0  0  0  0  0  0  0  0  0
    1.0479   -5.3406   -5.2433 C   0  0  0  0  0  0  0  0  0  0  0  0
    2.1091   -5.0579   -4.2513 C   0  0  0  0  0  0  0  0  0  0  0  0
    1.8447   -4.5913   -2.6580 S   0  0  0  0  0  0  0  0  0  0  0  0
    3.4568   -4.3567   -2.2504 C   0  0  0  0  0  0  0  0  0  0  0  0
    3.9375   -3.9658   -0.8858 C   0  0  0  0  0  0  0  0  0  0  0  0
    4.1909   -5.1978   -0.0266 C   0  0  0  0  0  0  0  0  0  0  0  0
    4.2386   -4.6426   -3.3676 C   0  0  0  0  0  0  0  0  0  0  0  0
    3.4852   -5.0130   -4.4955 C   0  0  0  0  0  0  0  0  0  0  0  0
    4.2118   -5.2741   -6.0767 Cl  0  0  0  0  0  0  0  0  0  0  0  0
    5.9934   -4.5186   -3.3777 Cl  0  0  0  0  0  0  0  0  0  0  0  0
    0.0173   -4.4105   -5.4854 C   0  0  0  0  0  0  0  0  0  0  0  0
   -0.3091   -2.9740   -4.6698 S   0  0  0  0  0  0  0  0  0  0  0  0
    1.9016   -7.6099   -5.9148 C   0  0  0  0  0  0  0  0  0  0  0  0
    1.6647   -8.6031   -6.8622 C   0  0  0  0  0  0  0  0  0  0  0  0
    0.4045   -8.1111   -7.8709 S   0  0  0  0  0  0  0  0  0  0  0  0
    2.0782   -3.5843   14.8364 H   0  0  0  0  0  0  0  0  0  0  0  0
    3.3325   -4.4105   12.7101 H   0  0  0  0  0  0  0  0  0  0  0  0
    7.0506   -7.1494    8.8221 H   0  0  0  0  0  0  0  0  0  0  0  0
    5.4688   -7.8380    8.3243 H   0  0  0  0  0  0  0  0  0  0  0  0
    5.3880   -6.2210    6.3865 H   0  0  0  0  0  0  0  0  0  0  0  0
    6.8075   -7.3254    6.3213 H   0  0  0  0  0  0  0  0  0  0  0  0
    7.0282   -5.6141    6.8570 H   0  0  0  0  0  0  0  0  0  0  0  0
   -2.0088    3.5774   11.4527 H   0  0  0  0  0  0  0  0  0  0  0  0
   -3.5612    2.9127   12.0564 H   0  0  0  0  0  0  0  0  0  0  0  0
   -4.2504    2.3950    9.6821 H   0  0  0  0  0  0  0  0  0  0  0  0
   -3.8861    4.1456    9.9232 H   0  0  0  0  0  0  0  0  0  0  0  0
   -2.6850    3.0858    9.0921 H   0  0  0  0  0  0  0  0  0  0  0  0
   -0.4985   -0.4443    8.1808 H   0  0  0  0  0  0  0  0  0  0  0  0
    0.8408    0.9873    6.1292 H   0  0  0  0  0  0  0  0  0  0  0  0
    0.8141    7.0844    6.0576 H   0  0  0  0  0  0  0  0  0  0  0  0
   -0.8291    6.3708    5.9591 H   0  0  0  0  0  0  0  0  0  0  0  0
    1.3040    5.8004    8.1179 H   0  0  0  0  0  0  0  0  0  0  0  0
   -0.2321    6.7215    8.3159 H   0  0  0  0  0  0  0  0  0  0  0  0
   -0.2906    4.9402    7.9991 H   0  0  0  0  0  0  0  0  0  0  0  0
   -1.5430   -5.9251    0.6806 H   0  0  0  0  0  0  0  0  0  0  0  0
    0.0264   -6.2464    1.4931 H   0  0  0  0  0  0  0  0  0  0  0  0
    1.1235   -6.6604   -0.6914 H   0  0  0  0  0  0  0  0  0  0  0  0
   -0.4130   -6.2618   -1.5692 H   0  0  0  0  0  0  0  0  0  0  0  0
   -0.3289   -7.7039   -0.5092 H   0  0  0  0  0  0  0  0  0  0  0  0
    1.4886    0.0384   -0.8932 H   0  0  0  0  0  0  0  0  0  0  0  0
    4.9967    2.7773   -3.4082 H   0  0  0  0  0  0  0  0  0  0  0  0
    4.0475    4.9004   -4.2373 H   0  0  0  0  0  0  0  0  0  0  0  0
    1.8603    5.6751   -3.4508 H   0  0  0  0  0  0  0  0  0  0  0  0
   -0.2321    4.1966   -0.8181 H   0  0  0  0  0  0  0  0  0  0  0  0
   -1.7429    5.2133   -2.1999 H   0  0  0  0  0  0  0  0  0  0  0  0
    0.8616    3.8180   -6.8879 H   0  0  0  0  0  0  0  0  0  0  0  0
    0.1859    6.0008   -7.8255 H   0  0  0  0  0  0  0  0  0  0  0  0
   -1.2248    7.5305   -6.5066 H   0  0  0  0  0  0  0  0  0  0  0  0
   -1.9817    8.1632   -3.8274 H   0  0  0  0  0  0  0  0  0  0  0  0
   -4.1570    7.3444   -3.2465 H   0  0  0  0  0  0  0  0  0  0  0  0
   -3.4194    5.2425   -6.2327 H   0  0  0  0  0  0  0  0  0  0  0  0
   -1.4107    4.9095  -11.4175 H   0  0  0  0  0  0  0  0  0  0  0  0
   -0.0755    4.1026  -10.5340 H   0  0  0  0  0  0  0  0  0  0  0  0
   -0.4334    3.1137  -12.7974 H   0  0  0  0  0  0  0  0  0  0  0  0
   -0.7144    1.8982  -11.4945 H   0  0  0  0  0  0  0  0  0  0  0  0
   -2.1194    2.6626  -12.3512 H   0  0  0  0  0  0  0  0  0  0  0  0
   -3.9050   -0.3069    2.2047 H   0  0  0  0  0  0  0  0  0  0  0  0
   -3.0109    1.2389    2.0404 H   0  0  0  0  0  0  0  0  0  0  0  0
   -5.1342    2.5217    2.0748 H   0  0  0  0  0  0  0  0  0  0  0  0
   -5.0426    1.4340    3.5106 H   0  0  0  0  0  0  0  0  0  0  0  0
   -6.0981    0.9876    2.1163 H   0  0  0  0  0  0  0  0  0  0  0  0
   -2.7138   -1.1642   -3.4299 H   0  0  0  0  0  0  0  0  0  0  0  0
   -2.4851   -3.3315   -7.4642 H   0  0  0  0  0  0  0  0  0  0  0  0
   -5.6568   -6.0364  -10.3823 H   0  0  0  0  0  0  0  0  0  0  0  0
   -4.8176   -6.0563  -11.9735 H   0  0  0  0  0  0  0  0  0  0  0  0
   -5.2301   -3.5679  -10.1877 H   0  0  0  0  0  0  0  0  0  0  0  0
   -6.1746   -3.9795  -11.6707 H   0  0  0  0  0  0  0  0  0  0  0  0
   -4.4202   -3.5870  -11.8073 H   0  0  0  0  0  0  0  0  0  0  0  0
    4.8718   -3.3669   -0.9646 H   0  0  0  0  0  0  0  0  0  0  0  0
    3.1681   -3.3256   -0.4039 H   0  0  0  0  0  0  0  0  0  0  0  0
    5.0869   -5.7428   -0.3951 H   0  0  0  0  0  0  0  0  0  0  0  0
    3.3184   -5.8825   -0.0625 H   0  0  0  0  0  0  0  0  0  0  0  0
    4.3557   -4.8907    1.0263 H   0  0  0  0  0  0  0  0  0  0  0  0
    2.6501   -7.7104   -5.1403 H   0  0  0  0  0  0  0  0  0  0  0  0
    2.1904   -9.5476   -6.9260 H   0  0  0  0  0  0  0  0  0  0  0  0
  1  2  2  0
  2  3  1  0
  3  4  2  0
  4  5  1  0
  5  6  1  0
  6  7  1  0
  7  8  1  0
  8  9  1  0
  7 10  2  0
 10 11  1  0
 10 12  1  0
 12 13  1  0
  4 14  1  0
 14 15  2  0
 15 16  1  0
 16 17  1  0
 17 18  1  0
 18 19  1  0
 19 20  1  0
 20 21  1  0
 19 22  2  0
 22 23  1  0
 23 24  1  0
 22 25  1  0
 16 26  2  0
 26 27  1  0
 15 28  1  0
 28 29  2  0
 29 30  1  0
 29 31  1  0
 31 32  2  0
 32 33  1  0
 33 34  2  0
 34 35  1  0
 35 36  1  0
 36 37  1  0
 37 38  1  0
 38 39  1  0
 37 40  2  0
 40 41  1  0
 40 42  1  0
 42 43  1  0
 34 44  1  0
 44 45  2  0
 45 46  1  0
 46 47  1  0
 47 48  1  0
 48 49  1  0
 49 50  1  0
 50 51  1  0
 49 52  2  0
 52 53  1  0
 53 54  1  0
 52 55  1  0
 46 56  2  0
 56 57  1  0
 45 58  1  0
 58 59  2  0
 59 60  1  0
 59 61  1  0
 61 62  2  0
 62 63  1  0
 62 64  1  0
 64 65  2  0
 65 66  1  0
 66 67  2  0
 67 68  1  0
 68 69  2  3
 69 70  1  0
 70 71  2  0
 71 72  1  0
 71 73  1  0
 73 74  2  0
 74 75  1  0
 75 76  2  0
 76 77  1  0
 77 78  2  3
 78 79  1  0
 79 80  2  0
 80 81  1  0
 81 82  2  0
 82 83  1  0
 83 84  1  0
 84 85  1  0
 85 86  1  0
 86 87  1  0
 85 88  2  0
 88 89  1  0
 88 90  1  0
 90 91  1  0
 82 92  1  0
 92 93  2  0
 93 94  1  0
 94 95  1  0
 95 96  1  0
 96 97  1  0
 97 98  1  0
 98 99  1  0
 97100  2  0
100101  1  0
101102  1  0
100103  1  0
 94104  2  0
104105  1  0
 93106  1  0
106107  2  0
107108  1  0
107109  1  0
109110  2  0
110111  1  0
111112  2  0
112113  1  0
113114  1  0
114115  1  0
115116  1  0
116117  1  0
115118  2  0
118119  1  0
118120  1  0
120121  1  0
112122  1  0
122123  2  0
123124  1  0
124125  1  0
125126  1  0
126127  1  0
127128  1  0
128129  1  0
127130  2  0
130131  1  0
131132  1  0
130133  1  0
124134  2  0
134135  1  0
123136  1  0
136137  2  0
137138  1  0
 27  1  1  0
 57 31  1  0
 67 61  1  0
 76 70  1  0
105 79  1  0
135109  1  0
 26  3  1  0
 56 33  1  0
104 81  1  0
134111  1  0
 12  5  2  0
 30 14  1  0
 42 35  2  0
 60 44  1  0
 90 83  2  0
108 92  1  0
120113  2  0
138122  1  0
 23 17  2  0
 53 47  2  0
101 95  2  0
131125  2  0
  1139  1  0
  2140  1  0
  8141  1  0
  8142  1  0
  9143  1  0
  9144  1  0
  9145  1  0
 20146  1  0
 20147  1  0
 21148  1  0
 21149  1  0
 21150  1  0
 28151  1  0
 32152  1  0
 38153  1  0
 38154  1  0
 39155  1  0
 39156  1  0
 39157  1  0
 50158  1  0
 50159  1  0
 51160  1  0
 51161  1  0
 51162  1  0
 58163  1  0
 64164  1  0
 65165  1  0
 66166  1  0
 68167  1  0
 69168  1  0
 73169  1  0
 74170  1  0
 75171  1  0
 77172  1  0
 78173  1  0
 80174  1  0
 86175  1  0
 86176  1  0
 87177  1  0
 87178  1  0
 87179  1  0
 98180  1  0
 98181  1  0
 99182  1  0
 99183  1  0
 99184  1  0
106185  1  0
110186  1  0
116187  1  0
116188  1  0
117189  1  0
117190  1  0
117191  1  0
128192  1  0
128193  1  0
129194  1  0
129195  1  0
129196  1  0
136197  1  0
137198  1  0
M  END

