
     RDKit          3D

 76 81  0  0  0  0  0  0  0  0999 V2000
    4.5171   -3.4341   -3.5747 C   0  0  0  0  0  0  0  0  0  0  0  0
    3.0249   -3.7688   -4.2680 S   0  0  0  0  0  0  0  0  0  0  0  0
    3.1795   -2.7330   -5.5794 C   0  0  0  0  0  0  0  0  0  0  0  0
    4.4363   -2.1252   -5.5205 C   0  0  0  0  0  0  0  0  0  0  0  0
    5.1832   -2.5108   -4.3823 C   0  0  0  0  0  0  0  0  0  0  0  0
    6.5094   -2.0428   -4.0722 N   0  0  0  0  0  4  0  0  0  0  0  0
    7.1477   -1.1132   -4.8647 O   0  0  0  0  0  1  0  0  0  0  0  0
    7.1103   -2.4913   -3.0766 O   0  0  0  0  0  0  0  0  0  0  0  0
    4.9248   -1.2499   -6.5584 C   0  0  0  0  0  0  0  0  0  0  0  0
    5.3130   -0.5476   -7.3915 N   0  0  0  0  0  0  0  0  0  0  0  0
    2.1802   -2.6234   -6.6567 C   0  0  0  0  0  0  0  0  0  0  0  0
    1.6521   -1.4777   -7.1065 C   0  0  0  0  0  0  0  0  0  0  0  0
    1.8460   -0.1415   -6.5001 C   0  0  0  0  0  0  0  0  0  0  0  0
    2.0916    0.1607   -4.8621 S   0  0  0  0  0  0  0  0  0  0  0  0
    1.9251    1.8312   -4.9071 C   0  0  0  0  0  0  0  0  0  0  0  0
    1.6391    2.1918   -6.2370 C   0  0  0  0  0  0  0  0  0  0  0  0
    1.5865    1.0860   -7.1219 C   0  0  0  0  0  0  0  0  0  0  0  0
    1.2536    1.2075   -8.5185 N   0  0  0  0  0  4  0  0  0  0  0  0
    1.7892    0.3370   -9.4430 O   0  0  0  0  0  1  0  0  0  0  0  0
    0.4031    2.0412   -8.8953 O   0  0  0  0  0  0  0  0  0  0  0  0
    1.4707    3.5458   -6.7016 C   0  0  0  0  0  0  0  0  0  0  0  0
    1.3368    4.6273   -7.0887 N   0  0  0  0  0  0  0  0  0  0  0  0
    1.9546    2.6280   -3.6590 C   0  0  0  0  0  0  0  0  0  0  0  0
    1.7447    3.9475   -3.5536 C   0  0  0  0  0  0  0  0  0  0  0  0
    1.5711    4.5963   -2.2389 C   0  0  0  0  0  0  0  0  0  0  0  0
    1.4210    3.8037   -0.7583 S   0  0  0  0  0  0  0  0  0  0  0  0
    0.9804    5.1538    0.1314 C   0  0  0  0  0  0  0  0  0  0  0  0
    0.9157    6.2495   -0.7222 C   0  0  0  0  0  0  0  0  0  0  0  0
    1.2602    5.9410   -2.0478 C   0  0  0  0  0  0  0  0  0  0  0  0
    0.3547    5.0484    1.4191 C   0  0  0  0  0  0  0  0  0  0  0  0
   -0.2401    4.8202    2.4414 C   0  0  0  0  0  0  0  0  0  0  0  0
   -1.0206    4.3759    3.5611 C   0  0  0  0  0  0  0  0  0  0  0  0
   -0.9502    2.7877    4.1093 S   0  0  0  0  0  0  0  0  0  0  0  0
   -2.4597    2.7779    4.8384 C   0  0  0  0  0  0  0  0  0  0  0  0
   -3.0609    4.0179    4.6389 C   0  0  0  0  0  0  0  0  0  0  0  0
   -2.2529    4.9157    3.9233 C   0  0  0  0  0  0  0  0  0  0  0  0
   -3.1604    1.5558    5.1139 C   0  0  0  0  0  0  0  0  0  0  0  0
   -3.7009    0.4832    5.2188 C   0  0  0  0  0  0  0  0  0  0  0  0
   -4.2795   -0.8339    5.2105 C   0  0  0  0  0  0  0  0  0  0  0  0
   -4.0870   -1.8789    3.9178 S   0  0  0  0  0  0  0  0  0  0  0  0
   -4.8653   -3.1970    4.6130 C   0  0  0  0  0  0  0  0  0  0  0  0
   -5.3402   -2.8102    5.8693 C   0  0  0  0  0  0  0  0  0  0  0  0
   -4.9968   -1.4792    6.2213 C   0  0  0  0  0  0  0  0  0  0  0  0
   -5.3510   -0.8471    7.4695 N   0  0  0  0  0  4  0  0  0  0  0  0
   -5.1472    0.5016    7.6499 O   0  0  0  0  0  1  0  0  0  0  0  0
   -5.8945   -1.4933    8.3883 O   0  0  0  0  0  0  0  0  0  0  0  0
   -6.0946   -3.7035    6.7132 C   0  0  0  0  0  0  0  0  0  0  0  0
   -6.7029   -4.4247    7.3889 N   0  0  0  0  0  0  0  0  0  0  0  0
   -5.1158   -4.4956    3.9514 C   0  0  0  0  0  0  0  0  0  0  0  0
   -4.3049   -5.0734    3.0530 C   0  0  0  0  0  0  0  0  0  0  0  0
   -2.9359   -4.6122    2.7476 C   0  0  0  0  0  0  0  0  0  0  0  0
   -1.7566   -4.3533    3.9224 S   0  0  0  0  0  0  0  0  0  0  0  0
   -0.5165   -3.9242    2.8714 C   0  0  0  0  0  0  0  0  0  0  0  0
   -1.0077   -3.9937    1.5636 C   0  0  0  0  0  0  0  0  0  0  0  0
   -2.3652   -4.3987    1.4813 C   0  0  0  0  0  0  0  0  0  0  0  0
   -3.0890   -4.5455    0.2361 N   0  0  0  0  0  4  0  0  0  0  0  0
   -4.3416   -5.1055    0.2134 O   0  0  0  0  0  1  0  0  0  0  0  0
   -2.5341   -4.2991   -0.8559 O   0  0  0  0  0  0  0  0  0  0  0  0
   -0.1894   -3.6593    0.4212 C   0  0  0  0  0  0  0  0  0  0  0  0
    0.4729   -3.3826   -0.4882 N   0  0  0  0  0  0  0  0  0  0  0  0
    0.8462   -3.5111    3.2682 C   0  0  0  0  0  0  0  0  0  0  0  0
    1.2279   -3.4096    4.5412 C   0  0  0  0  0  0  0  0  0  0  0  0
    4.8978   -3.8743   -2.6612 H   0  0  0  0  0  0  0  0  0  0  0  0
    1.8341   -3.5478   -7.0991 H   0  0  0  0  0  0  0  0  0  0  0  0
    0.9756   -1.5468   -7.9480 H   0  0  0  0  0  0  0  0  0  0  0  0
    2.0966    2.0488   -2.7544 H   0  0  0  0  0  0  0  0  0  0  0  0
    1.6225    4.5678   -4.4227 H   0  0  0  0  0  0  0  0  0  0  0  0
    0.5561    7.2229   -0.4236 H   0  0  0  0  0  0  0  0  0  0  0  0
    1.2078    6.6668   -2.8534 H   0  0  0  0  0  0  0  0  0  0  0  0
   -4.0919    4.2361    4.8974 H   0  0  0  0  0  0  0  0  0  0  0  0
   -2.6149    5.8726    3.5745 H   0  0  0  0  0  0  0  0  0  0  0  0
   -6.0418   -5.0025    4.1902 H   0  0  0  0  0  0  0  0  0  0  0  0
   -4.6494   -5.9794    2.5710 H   0  0  0  0  0  0  0  0  0  0  0  0
    1.5675   -3.2614    2.4968 H   0  0  0  0  0  0  0  0  0  0  0  0
    2.2362   -3.0968    4.7799 H   0  0  0  0  0  0  0  0  0  0  0  0
    0.5514   -3.6326    5.3552 H   0  0  0  0  0  0  0  0  0  0  0  0
  1  2  1  0
  2  3  1  0
  3  4  2  0
  4  5  1  0
  5  6  1  0
  6  7  1  0
  6  8  2  0
  4  9  1  0
  9 10  3  0
  3 11  1  0
 11 12  2  3
 12 13  1  0
 13 14  1  0
 14 15  1  0
 15 16  2  0
 16 17  1  0
 17 18  1  0
 18 19  1  0
 18 20  2  0
 16 21  1  0
 21 22  3  0
 15 23  1  0
 23 24  2  3
 24 25  1  0
 25 26  1  0
 26 27  1  0
 27 28  2  0
 28 29  1  0
 27 30  1  0
 30 31  3  0
 31 32  1  0
 32 33  1  0
 33 34  1  0
 34 35  2  0
 35 36  1  0
 34 37  1  0
 37 38  3  0
 38 39  1  0
 39 40  1  0
 40 41  1  0
 41 42  2  0
 42 43  1  0
 43 44  1  0
 44 45  1  0
 44 46  2  0
 42 47  1  0
 47 48  3  0
 41 49  1  0
 49 50  2  3
 50 51  1  0
 51 52  1  0
 52 53  1  0
 53 54  2  0
 54 55  1  0
 55 56  1  0
 56 57  1  0
 56 58  2  0
 54 59  1  0
 59 60  3  0
 53 61  1  0
 61 62  2  3
  5  1  2  0
 17 13  2  0
 29 25  2  0
 36 32  2  0
 43 39  2  0
 55 51  2  0
  1 63  1  0
 11 64  1  0
 12 65  1  0
 23 66  1  0
 24 67  1  0
 28 68  1  0
 29 69  1  0
 35 70  1  0
 36 71  1  0
 49 72  1  0
 50 73  1  0
 61 74  1  0
 62 75  1  0
 62 76  1  0
M  CHG  8   6   1   7  -1  18   1  19  -1  44   1  45  -1  56   1  57  -1
M  END

