
     RDKit          3D

270295  0  0  0  0  0  0  0  0999 V2000
    2.0514    2.7994   10.1382 C   0  0  0  0  0  0  0  0  0  0  0  0
    2.8174    1.6429   10.0330 C   0  0  0  0  0  0  0  0  0  0  0  0
    2.0549    0.4671   10.1192 C   0  0  0  0  0  0  0  0  0  0  0  0
    2.5413   -0.8529   10.0460 C   0  0  0  0  0  0  0  0  0  0  0  0
    3.9749   -1.1417    9.8612 C   0  0  0  0  0  0  0  0  0  0  0  0
    4.8582   -1.0382   10.9433 C   0  0  0  0  0  0  0  0  0  0  0  0
    6.2171   -1.3118   10.7656 C   0  0  0  0  0  0  0  0  0  0  0  0
    6.6990   -1.6911    9.5070 C   0  0  0  0  0  0  0  0  0  0  0  0
    8.4440   -2.0499    9.2887 S   0  0  0  0  0  0  0  0  0  0  0  0
    8.2710   -3.8592    9.4732 C   0  0  0  0  0  0  0  0  0  0  0  0
    8.2690   -4.2592   10.9422 C   0  0  0  0  0  0  0  0  0  0  0  0
    5.8174   -1.7760    8.4203 C   0  0  0  0  0  0  0  0  0  0  0  0
    6.2774   -2.1231    7.1892 F   0  0  0  0  0  0  0  0  0  0  0  0
    4.4569   -1.5116    8.5993 C   0  0  0  0  0  0  0  0  0  0  0  0
    1.5998   -1.8887   10.1548 C   0  0  0  0  0  0  0  0  0  0  0  0
    0.2353   -1.6473   10.3195 C   0  0  0  0  0  0  0  0  0  0  0  0
   -0.2537   -0.3259   10.3951 C   0  0  0  0  0  0  0  0  0  0  0  0
   -1.6813   -0.0392   10.6160 C   0  0  0  0  0  0  0  0  0  0  0  0
   -2.6163   -0.2798    9.5997 C   0  0  0  0  0  0  0  0  0  0  0  0
   -3.9770   -0.0611    9.8313 C   0  0  0  0  0  0  0  0  0  0  0  0
   -4.4111    0.4016   11.0815 C   0  0  0  0  0  0  0  0  0  0  0  0
   -6.1649    0.6411   11.3895 S   0  0  0  0  0  0  0  0  0  0  0  0
   -6.2021    2.3836   10.8290 C   0  0  0  0  0  0  0  0  0  0  0  0
   -6.7347    2.4648    9.4047 C   0  0  0  0  0  0  0  0  0  0  0  0
   -3.4790    0.6497   12.0969 C   0  0  0  0  0  0  0  0  0  0  0  0
   -2.1186    0.4357   11.8632 C   0  0  0  0  0  0  0  0  0  0  0  0
   -3.8895    1.0861   13.3140 F   0  0  0  0  0  0  0  0  0  0  0  0
    0.6914    0.7093   10.2939 C   0  0  0  0  0  0  0  0  0  0  0  0
    0.4316    2.3697   10.3352 S   0  0  0  0  0  0  0  0  0  0  0  0
   -0.5238   -2.8210   10.4448 C   0  0  0  0  0  0  0  0  0  0  0  0
    0.2450   -3.9891   10.3871 C   0  0  0  0  0  0  0  0  0  0  0  0
    1.8690   -3.5478   10.1860 S   0  0  0  0  0  0  0  0  0  0  0  0
   -0.2666   -5.3727   10.5682 C   0  0  0  0  0  0  0  0  0  0  0  0
   -1.3202   -5.5736   11.3729 C   0  0  0  0  0  0  0  0  0  0  0  0
    0.3767   -6.5207    9.8685 C   0  0  0  0  0  0  0  0  0  0  0  0
    1.4732   -6.4013    8.5953 S   0  0  0  0  0  0  0  0  0  0  0  0
    1.7160   -8.0453    8.3741 C   0  0  0  0  0  0  0  0  0  0  0  0
    2.7046   -8.6074    7.4051 C   0  0  0  0  0  0  0  0  0  0  0  0
    0.8926   -8.7375    9.2713 C   0  0  0  0  0  0  0  0  0  0  0  0
    0.1756   -7.8814   10.1240 C   0  0  0  0  0  0  0  0  0  0  0  0
    0.7887  -10.2083    9.3832 C   0  0  0  0  0  0  0  0  0  0  0  0
    0.5282  -11.0323    8.3588 C   0  0  0  0  0  0  0  0  0  0  0  0
    0.1895  -10.5656    7.0063 C   0  0  0  0  0  0  0  0  0  0  0  0
    0.8575  -10.9563    5.8508 C   0  0  0  0  0  0  0  0  0  0  0  0
    0.4702  -10.2153    4.7222 C   0  0  0  0  0  0  0  0  0  0  0  0
    1.0838  -10.2511    3.4530 C   0  0  0  0  0  0  0  0  0  0  0  0
    2.2689  -11.0908    3.1780 C   0  0  0  0  0  0  0  0  0  0  0  0
    3.4692  -10.8597    3.8691 C   0  0  0  0  0  0  0  0  0  0  0  0
    4.5906  -11.6519    3.6093 C   0  0  0  0  0  0  0  0  0  0  0  0
    4.5295  -12.6710    2.6510 C   0  0  0  0  0  0  0  0  0  0  0  0
    5.9633  -13.7184    2.3775 S   0  0  0  0  0  0  0  0  0  0  0  0
    6.7628  -12.6198    1.1547 C   0  0  0  0  0  0  0  0  0  0  0  0
    6.2158  -12.8671   -0.2442 C   0  0  0  0  0  0  0  0  0  0  0  0
    3.3317  -12.9016    1.9557 C   0  0  0  0  0  0  0  0  0  0  0  0
    3.2508  -13.8985    1.0402 F   0  0  0  0  0  0  0  0  0  0  0  0
    2.2096  -12.1059    2.2112 C   0  0  0  0  0  0  0  0  0  0  0  0
    0.6035   -9.3457    2.4913 C   0  0  0  0  0  0  0  0  0  0  0  0
   -0.4120   -8.4261    2.7698 C   0  0  0  0  0  0  0  0  0  0  0  0
   -1.0163   -8.3763    4.0406 C   0  0  0  0  0  0  0  0  0  0  0  0
   -1.9992   -7.3313    4.4042 C   0  0  0  0  0  0  0  0  0  0  0  0
   -3.3033   -7.6856    4.7725 C   0  0  0  0  0  0  0  0  0  0  0  0
   -4.2343   -6.6950    5.1045 C   0  0  0  0  0  0  0  0  0  0  0  0
   -3.8650   -5.3455    5.0817 C   0  0  0  0  0  0  0  0  0  0  0  0
   -5.0837   -4.0806    5.4728 S   0  0  0  0  0  0  0  0  0  0  0  0
   -4.8053   -4.1118    7.2804 C   0  0  0  0  0  0  0  0  0  0  0  0
   -3.5979   -3.2665    7.6640 C   0  0  0  0  0  0  0  0  0  0  0  0
   -2.5624   -4.9868    4.7162 C   0  0  0  0  0  0  0  0  0  0  0  0
   -1.6296   -5.9750    4.3890 C   0  0  0  0  0  0  0  0  0  0  0  0
   -2.1959   -3.6803    4.6730 F   0  0  0  0  0  0  0  0  0  0  0  0
   -0.5501   -9.2951    4.9954 C   0  0  0  0  0  0  0  0  0  0  0  0
   -0.9299   -9.3590    6.6310 S   0  0  0  0  0  0  0  0  0  0  0  0
   -0.6354   -7.5237    1.7202 C   0  0  0  0  0  0  0  0  0  0  0  0
    0.2246   -7.7056    0.6439 C   0  0  0  0  0  0  0  0  0  0  0  0
    1.2589   -8.9955    0.9764 S   0  0  0  0  0  0  0  0  0  0  0  0
    0.5438   -6.6229   -0.2838 C   0  0  0  0  0  0  0  0  0  0  0  0
    1.0470   -5.3995    0.1303 C   0  0  0  0  0  0  0  0  0  0  0  0
    1.1399   -4.4676   -0.9090 C   0  0  0  0  0  0  0  0  0  0  0  0
    1.5882   -3.1381   -0.7886 C   0  0  0  0  0  0  0  0  0  0  0  0
    1.9947   -2.5693    0.5174 C   0  0  0  0  0  0  0  0  0  0  0  0
    3.3150   -2.1379    0.7258 C   0  0  0  0  0  0  0  0  0  0  0  0
    3.7151   -1.6783    1.9847 C   0  0  0  0  0  0  0  0  0  0  0  0
    2.7990   -1.6370    3.0433 C   0  0  0  0  0  0  0  0  0  0  0  0
    3.3333   -1.0853    4.6677 S   0  0  0  0  0  0  0  0  0  0  0  0
    2.7927    0.6458    4.4478 C   0  0  0  0  0  0  0  0  0  0  0  0
    3.8124    1.4412    3.6423 C   0  0  0  0  0  0  0  0  0  0  0  0
    1.4811   -2.0641    2.8408 C   0  0  0  0  0  0  0  0  0  0  0  0
    0.5927   -2.0653    3.8657 F   0  0  0  0  0  0  0  0  0  0  0  0
    1.0798   -2.5211    1.5823 C   0  0  0  0  0  0  0  0  0  0  0  0
    1.5838   -2.3613   -1.9608 C   0  0  0  0  0  0  0  0  0  0  0  0
    1.1362   -2.8533   -3.1920 C   0  0  0  0  0  0  0  0  0  0  0  0
    0.6907   -4.1893   -3.3101 C   0  0  0  0  0  0  0  0  0  0  0  0
    0.1992   -4.7458   -4.5881 C   0  0  0  0  0  0  0  0  0  0  0  0
    0.8679   -5.8212   -5.1924 C   0  0  0  0  0  0  0  0  0  0  0  0
    0.4016   -6.3462   -6.3999 C   0  0  0  0  0  0  0  0  0  0  0  0
   -0.7406   -5.8133   -7.0089 C   0  0  0  0  0  0  0  0  0  0  0  0
   -1.3083   -6.4742   -8.5812 S   0  0  0  0  0  0  0  0  0  0  0  0
   -2.2364   -7.8755   -7.8656 C   0  0  0  0  0  0  0  0  0  0  0  0
   -3.6072   -7.4342   -7.3722 C   0  0  0  0  0  0  0  0  0  0  0  0
   -1.4156   -4.7426   -6.4051 C   0  0  0  0  0  0  0  0  0  0  0  0
   -0.9480   -4.2140   -5.1977 C   0  0  0  0  0  0  0  0  0  0  0  0
   -2.5215   -4.2095   -6.9833 F   0  0  0  0  0  0  0  0  0  0  0  0
    0.7130   -4.9726   -2.1396 C   0  0  0  0  0  0  0  0  0  0  0  0
    0.1987   -6.5705   -1.9342 S   0  0  0  0  0  0  0  0  0  0  0  0
    1.1527   -1.8819   -4.2142 C   0  0  0  0  0  0  0  0  0  0  0  0
    1.6011   -0.6345   -3.7695 C   0  0  0  0  0  0  0  0  0  0  0  0
    1.9889   -0.7398   -2.1304 S   0  0  0  0  0  0  0  0  0  0  0  0
    1.5779    0.6218   -4.5340 C   0  0  0  0  0  0  0  0  0  0  0  0
    0.8510    0.8597   -5.7036 C   0  0  0  0  0  0  0  0  0  0  0  0
    0.8218    2.2184   -6.0638 C   0  0  0  0  0  0  0  0  0  0  0  0
    0.0685    2.7921   -7.1078 C   0  0  0  0  0  0  0  0  0  0  0  0
   -0.6919    1.9657   -8.0618 C   0  0  0  0  0  0  0  0  0  0  0  0
   -2.0948    1.9818   -8.0577 C   0  0  0  0  0  0  0  0  0  0  0  0
   -2.8083    1.2403   -9.0023 C   0  0  0  0  0  0  0  0  0  0  0  0
   -2.1277    0.4897   -9.9683 C   0  0  0  0  0  0  0  0  0  0  0  0
   -3.0582   -0.4167  -11.2114 S   0  0  0  0  0  0  0  0  0  0  0  0
   -3.2992    1.0174  -12.3236 C   0  0  0  0  0  0  0  0  0  0  0  0
   -2.0639    1.2697  -13.1780 C   0  0  0  0  0  0  0  0  0  0  0  0
   -0.7266    0.4443   -9.9568 C   0  0  0  0  0  0  0  0  0  0  0  0
   -0.0553   -0.3018  -10.8725 F   0  0  0  0  0  0  0  0  0  0  0  0
   -0.0109    1.1754   -9.0025 C   0  0  0  0  0  0  0  0  0  0  0  0
    0.0559    4.1985   -7.1900 C   0  0  0  0  0  0  0  0  0  0  0  0
    0.7888    5.0111   -6.3178 C   0  0  0  0  0  0  0  0  0  0  0  0
    1.5671    4.4334   -5.2971 C   0  0  0  0  0  0  0  0  0  0  0  0
    2.3194    5.2408   -4.3233 C   0  0  0  0  0  0  0  0  0  0  0  0
    3.6162    5.6794   -4.6286 C   0  0  0  0  0  0  0  0  0  0  0  0
    4.3740    6.3464   -3.6617 C   0  0  0  0  0  0  0  0  0  0  0  0
    3.8449    6.5784   -2.3868 C   0  0  0  0  0  0  0  0  0  0  0  0
    4.8340    7.4221   -1.1460 S   0  0  0  0  0  0  0  0  0  0  0  0
    5.4180    5.8980   -0.3192 C   0  0  0  0  0  0  0  0  0  0  0  0
    6.5562    5.2518   -1.0986 C   0  0  0  0  0  0  0  0  0  0  0  0
    2.5381    6.1640   -2.0892 C   0  0  0  0  0  0  0  0  0  0  0  0
    1.7819    5.4914   -3.0548 C   0  0  0  0  0  0  0  0  0  0  0  0
    2.0097    6.3921   -0.8605 F   0  0  0  0  0  0  0  0  0  0  0  0
    1.5429    3.0332   -5.1893 C   0  0  0  0  0  0  0  0  0  0  0  0
    2.2025    2.0850   -3.9694 S   0  0  0  0  0  0  0  0  0  0  0  0
    0.5835    6.3839   -6.5348 C   0  0  0  0  0  0  0  0  0  0  0  0
   -0.3272    6.6447   -7.5637 C   0  0  0  0  0  0  0  0  0  0  0  0
   -0.8550    5.1773   -8.2112 S   0  0  0  0  0  0  0  0  0  0  0  0
   -0.8796    7.9703   -7.9109 C   0  0  0  0  0  0  0  0  0  0  0  0
   -0.3587    9.2016   -7.5104 C   0  0  0  0  0  0  0  0  0  0  0  0
   -1.1919   10.2841   -7.8448 C   0  0  0  0  0  0  0  0  0  0  0  0
   -0.9500   11.6366   -7.5404 C   0  0  0  0  0  0  0  0  0  0  0  0
    0.2874   12.0936   -6.8896 C   0  0  0  0  0  0  0  0  0  0  0  0
    1.4518   12.2754   -7.6511 C   0  0  0  0  0  0  0  0  0  0  0  0
    2.5774   12.8726   -7.0757 C   0  0  0  0  0  0  0  0  0  0  0  0
    2.5486   13.2925   -5.7423 C   0  0  0  0  0  0  0  0  0  0  0  0
    3.9540   14.1652   -5.0504 S   0  0  0  0  0  0  0  0  0  0  0  0
    4.7675   12.6527   -4.4465 C   0  0  0  0  0  0  0  0  0  0  0  0
    6.0615   13.0157   -3.7333 C   0  0  0  0  0  0  0  0  0  0  0  0
    1.3945   13.0918   -4.9720 C   0  0  0  0  0  0  0  0  0  0  0  0
    1.3519   13.4986   -3.6803 F   0  0  0  0  0  0  0  0  0  0  0  0
    0.2665   12.4968   -5.5474 C   0  0  0  0  0  0  0  0  0  0  0  0
   -1.9555   12.5562   -7.8752 C   0  0  0  0  0  0  0  0  0  0  0  0
   -3.1504   12.1806   -8.4892 C   0  0  0  0  0  0  0  0  0  0  0  0
   -3.3823   10.8301   -8.8452 C   0  0  0  0  0  0  0  0  0  0  0  0
   -4.6520   10.4103   -9.4953 C   0  0  0  0  0  0  0  0  0  0  0  0
   -5.1166   11.0755  -10.6432 C   0  0  0  0  0  0  0  0  0  0  0  0
   -6.4051   10.8303  -11.1295 C   0  0  0  0  0  0  0  0  0  0  0  0
   -7.2251    9.8873  -10.4995 C   0  0  0  0  0  0  0  0  0  0  0  0
   -8.9271    9.6886  -11.0272 S   0  0  0  0  0  0  0  0  0  0  0  0
   -8.5351    8.5145  -12.3639 C   0  0  0  0  0  0  0  0  0  0  0  0
   -9.8253    7.9364  -12.9285 C   0  0  0  0  0  0  0  0  0  0  0  0
   -6.7370    9.1554   -9.4137 C   0  0  0  0  0  0  0  0  0  0  0  0
   -5.4636    9.4291   -8.9004 C   0  0  0  0  0  0  0  0  0  0  0  0
   -7.5154    8.2261   -8.8078 F   0  0  0  0  0  0  0  0  0  0  0  0
   -2.3734    9.9029   -8.4947 C   0  0  0  0  0  0  0  0  0  0  0  0
   -2.3597    8.2291   -8.6899 S   0  0  0  0  0  0  0  0  0  0  0  0
   -4.0351   13.2632   -8.6477 C   0  0  0  0  0  0  0  0  0  0  0  0
   -3.5214   14.4744   -8.1938 C   0  0  0  0  0  0  0  0  0  0  0  0
   -1.9797   14.2121   -7.5738 S   0  0  0  0  0  0  0  0  0  0  0  0
    2.4350    3.8111   10.0943 H   0  0  0  0  0  0  0  0  0  0  0  0
    3.8897    1.6581    9.8996 H   0  0  0  0  0  0  0  0  0  0  0  0
    4.4941   -0.7464   11.9215 H   0  0  0  0  0  0  0  0  0  0  0  0
    6.8937   -1.2292   11.6061 H   0  0  0  0  0  0  0  0  0  0  0  0
    7.3399   -4.2186    8.9795 H   0  0  0  0  0  0  0  0  0  0  0  0
    9.1335   -4.3475    8.9698 H   0  0  0  0  0  0  0  0  0  0  0  0
    7.4182   -3.7821   11.4723 H   0  0  0  0  0  0  0  0  0  0  0  0
    8.1730   -5.3624   11.0280 H   0  0  0  0  0  0  0  0  0  0  0  0
    9.2195   -3.9377   11.4221 H   0  0  0  0  0  0  0  0  0  0  0  0
    3.7788   -1.5833    7.7586 H   0  0  0  0  0  0  0  0  0  0  0  0
   -2.2882   -0.6453    8.6347 H   0  0  0  0  0  0  0  0  0  0  0  0
   -4.6950   -0.2627    9.0440 H   0  0  0  0  0  0  0  0  0  0  0  0
   -5.1936    2.8501   10.8763 H   0  0  0  0  0  0  0  0  0  0  0  0
   -6.8767    2.9562   11.5010 H   0  0  0  0  0  0  0  0  0  0  0  0
   -7.7619    2.0430    9.3607 H   0  0  0  0  0  0  0  0  0  0  0  0
   -6.7721    3.5276    9.0788 H   0  0  0  0  0  0  0  0  0  0  0  0
   -6.0758    1.8931    8.7144 H   0  0  0  0  0  0  0  0  0  0  0  0
   -1.4039    0.6131   12.6605 H   0  0  0  0  0  0  0  0  0  0  0  0
   -1.5955   -2.8219   10.5815 H   0  0  0  0  0  0  0  0  0  0  0  0
   -1.7497   -6.5515   11.5267 H   0  0  0  0  0  0  0  0  0  0  0  0
   -1.7781   -4.7581   11.9212 H   0  0  0  0  0  0  0  0  0  0  0  0
    3.6518   -8.0327    7.4755 H   0  0  0  0  0  0  0  0  0  0  0  0
    2.3060   -8.5087    6.3757 H   0  0  0  0  0  0  0  0  0  0  0  0
    2.9261   -9.6737    7.6287 H   0  0  0  0  0  0  0  0  0  0  0  0
   -0.4737   -8.2587   10.8969 H   0  0  0  0  0  0  0  0  0  0  0  0
    0.9339  -10.6445   10.3633 H   0  0  0  0  0  0  0  0  0  0  0  0
    0.5807  -12.1003    8.5247 H   0  0  0  0  0  0  0  0  0  0  0  0
    1.6554  -11.6863    5.8530 H   0  0  0  0  0  0  0  0  0  0  0  0
    3.5319  -10.0722    4.6073 H   0  0  0  0  0  0  0  0  0  0  0  0
    5.5092  -11.4741    4.1565 H   0  0  0  0  0  0  0  0  0  0  0  0
    6.6343  -11.5496    1.4349 H   0  0  0  0  0  0  0  0  0  0  0  0
    7.8500  -12.8468    1.1540 H   0  0  0  0  0  0  0  0  0  0  0  0
    6.8288  -12.3098   -0.9858 H   0  0  0  0  0  0  0  0  0  0  0  0
    5.1646  -12.5188   -0.3150 H   0  0  0  0  0  0  0  0  0  0  0  0
    6.2673  -13.9517   -0.4879 H   0  0  0  0  0  0  0  0  0  0  0  0
    1.2898  -12.2855    1.6642 H   0  0  0  0  0  0  0  0  0  0  0  0
   -3.6028   -8.7244    4.7963 H   0  0  0  0  0  0  0  0  0  0  0  0
   -5.2425   -6.9773    5.3804 H   0  0  0  0  0  0  0  0  0  0  0  0
   -5.7056   -3.6905    7.7731 H   0  0  0  0  0  0  0  0  0  0  0  0
   -4.6726   -5.1540    7.6401 H   0  0  0  0  0  0  0  0  0  0  0  0
   -3.6823   -2.2503    7.2224 H   0  0  0  0  0  0  0  0  0  0  0  0
   -3.5461   -3.1719    8.7689 H   0  0  0  0  0  0  0  0  0  0  0  0
   -2.6624   -3.7471    7.3112 H   0  0  0  0  0  0  0  0  0  0  0  0
   -0.6223   -5.6859    4.1187 H   0  0  0  0  0  0  0  0  0  0  0  0
   -1.3303   -6.6979    1.7723 H   0  0  0  0  0  0  0  0  0  0  0  0
    1.3233   -5.1982    1.1570 H   0  0  0  0  0  0  0  0  0  0  0  0
    4.0390   -2.1862   -0.0779 H   0  0  0  0  0  0  0  0  0  0  0  0
    4.7394   -1.3646    2.1411 H   0  0  0  0  0  0  0  0  0  0  0  0
    1.7969    0.6821    3.9544 H   0  0  0  0  0  0  0  0  0  0  0  0
    2.6942    1.1079    5.4530 H   0  0  0  0  0  0  0  0  0  0  0  0
    3.4911    2.5019    3.5803 H   0  0  0  0  0  0  0  0  0  0  0  0
    3.8947    1.0373    2.6126 H   0  0  0  0  0  0  0  0  0  0  0  0
    4.8087    1.3997    4.1330 H   0  0  0  0  0  0  0  0  0  0  0  0
    0.0638   -2.8623    1.4393 H   0  0  0  0  0  0  0  0  0  0  0  0
    1.7507   -6.2439   -4.7342 H   0  0  0  0  0  0  0  0  0  0  0  0
    0.9254   -7.1755   -6.8601 H   0  0  0  0  0  0  0  0  0  0  0  0
   -2.3695   -8.6411   -8.6589 H   0  0  0  0  0  0  0  0  0  0  0  0
   -1.6658   -8.3403   -7.0349 H   0  0  0  0  0  0  0  0  0  0  0  0
   -4.1934   -8.3231   -7.0600 H   0  0  0  0  0  0  0  0  0  0  0  0
   -3.5056   -6.7551   -6.5004 H   0  0  0  0  0  0  0  0  0  0  0  0
   -4.1580   -6.9148   -8.1835 H   0  0  0  0  0  0  0  0  0  0  0  0
   -1.4797   -3.3903   -4.7340 H   0  0  0  0  0  0  0  0  0  0  0  0
    0.8270   -2.0681   -5.2278 H   0  0  0  0  0  0  0  0  0  0  0  0
    0.2994    0.0895   -6.2260 H   0  0  0  0  0  0  0  0  0  0  0  0
   -2.6315    2.5694   -7.3235 H   0  0  0  0  0  0  0  0  0  0  0  0
   -3.8894    1.2647   -8.9936 H   0  0  0  0  0  0  0  0  0  0  0  0
   -4.1552    0.7952  -12.9911 H   0  0  0  0  0  0  0  0  0  0  0  0
   -3.5510    1.9278  -11.7385 H   0  0  0  0  0  0  0  0  0  0  0  0
   -1.7950    0.3536  -13.7478 H   0  0  0  0  0  0  0  0  0  0  0  0
   -2.2712    2.0880  -13.8971 H   0  0  0  0  0  0  0  0  0  0  0  0
   -1.2071    1.5740  -12.5405 H   0  0  0  0  0  0  0  0  0  0  0  0
    1.0712    1.1430   -9.0067 H   0  0  0  0  0  0  0  0  0  0  0  0
    4.0486    5.4810   -5.6009 H   0  0  0  0  0  0  0  0  0  0  0  0
    5.3804    6.6701   -3.8994 H   0  0  0  0  0  0  0  0  0  0  0  0
    5.7878    6.1741    0.6919 H   0  0  0  0  0  0  0  0  0  0  0  0
    4.5856    5.1728   -0.1924 H   0  0  0  0  0  0  0  0  0  0  0  0
    6.9809    4.4138   -0.5065 H   0  0  0  0  0  0  0  0  0  0  0  0
    6.1865    4.8476   -2.0638 H   0  0  0  0  0  0  0  0  0  0  0  0
    7.3598    5.9931   -1.2914 H   0  0  0  0  0  0  0  0  0  0  0  0
    0.7854    5.1452   -2.8065 H   0  0  0  0  0  0  0  0  0  0  0  0
    1.0379    7.1555   -5.9285 H   0  0  0  0  0  0  0  0  0  0  0  0
    0.5721    9.3056   -6.9678 H   0  0  0  0  0  0  0  0  0  0  0  0
    1.4702   11.9966   -8.6984 H   0  0  0  0  0  0  0  0  0  0  0  0
    3.4607   13.0354   -7.6795 H   0  0  0  0  0  0  0  0  0  0  0  0
    4.0963   12.1190   -3.7369 H   0  0  0  0  0  0  0  0  0  0  0  0
    4.9962   11.9879   -5.3078 H   0  0  0  0  0  0  0  0  0  0  0  0
    5.8378   13.6463   -2.8445 H   0  0  0  0  0  0  0  0  0  0  0  0
    6.7312   13.5778   -4.4200 H   0  0  0  0  0  0  0  0  0  0  0  0
    6.5807   12.0935   -3.3999 H   0  0  0  0  0  0  0  0  0  0  0  0
   -0.6362   12.3764   -4.9578 H   0  0  0  0  0  0  0  0  0  0  0  0
   -4.5006   11.8212  -11.1314 H   0  0  0  0  0  0  0  0  0  0  0  0
   -6.7713   11.3927  -11.9794 H   0  0  0  0  0  0  0  0  0  0  0  0
   -7.8938    7.6901  -11.9788 H   0  0  0  0  0  0  0  0  0  0  0  0
   -7.9925    9.0529  -13.1693 H   0  0  0  0  0  0  0  0  0  0  0  0
   -9.5959    7.3171  -13.8223 H   0  0  0  0  0  0  0  0  0  0  0  0
  -10.5166    8.7578  -13.2251 H   0  0  0  0  0  0  0  0  0  0  0  0
  -10.3206    7.2970  -12.1650 H   0  0  0  0  0  0  0  0  0  0  0  0
   -5.1336    8.9131   -8.0088 H   0  0  0  0  0  0  0  0  0  0  0  0
   -5.0332   13.1849   -9.0540 H   0  0  0  0  0  0  0  0  0  0  0  0
   -4.0338   15.4263   -8.2135 H   0  0  0  0  0  0  0  0  0  0  0  0
  1  2  2  0
  2  3  1  0
  3  4  2  0
  4  5  1  0
  5  6  2  0
  6  7  1  0
  7  8  2  0
  8  9  1  0
  9 10  1  0
 10 11  1  0
  8 12  1  0
 12 13  1  0
 12 14  2  0
  4 15  1  0
 15 16  2  0
 16 17  1  0
 17 18  1  0
 18 19  2  0
 19 20  1  0
 20 21  2  0
 21 22  1  0
 22 23  1  0
 23 24  1  0
 21 25  1  0
 25 26  2  0
 25 27  1  0
 17 28  2  0
 28 29  1  0
 16 30  1  0
 30 31  2  0
 31 32  1  0
 31 33  1  0
 33 34  2  3
 33 35  1  0
 35 36  1  0
 36 37  1  0
 37 38  1  0
 37 39  2  0
 39 40  1  0
 39 41  1  0
 41 42  2  3
 42 43  1  0
 43 44  2  0
 44 45  1  0
 45 46  2  0
 46 47  1  0
 47 48  2  0
 48 49  1  0
 49 50  2  0
 50 51  1  0
 51 52  1  0
 52 53  1  0
 50 54  1  0
 54 55  1  0
 54 56  2  0
 46 57  1  0
 57 58  2  0
 58 59  1  0
 59 60  1  0
 60 61  2  0
 61 62  1  0
 62 63  2  0
 63 64  1  0
 64 65  1  0
 65 66  1  0
 63 67  1  0
 67 68  2  0
 67 69  1  0
 59 70  2  0
 70 71  1  0
 58 72  1  0
 72 73  2  0
 73 74  1  0
 73 75  1  0
 75 76  2  0
 76 77  1  0
 77 78  2  0
 78 79  1  0
 79 80  2  0
 80 81  1  0
 81 82  2  0
 82 83  1  0
 83 84  1  0
 84 85  1  0
 82 86  1  0
 86 87  1  0
 86 88  2  0
 78 89  1  0
 89 90  2  0
 90 91  1  0
 91 92  1  0
 92 93  2  0
 93 94  1  0
 94 95  2  0
 95 96  1  0
 96 97  1  0
 97 98  1  0
 95 99  1  0
 99100  2  0
 99101  1  0
 91102  2  0
102103  1  0
 90104  1  0
104105  2  0
105106  1  0
105107  1  0
107108  2  0
108109  1  0
109110  2  0
110111  1  0
111112  2  0
112113  1  0
113114  2  0
114115  1  0
115116  1  0
116117  1  0
114118  1  0
118119  1  0
118120  2  0
110121  1  0
121122  2  0
122123  1  0
123124  1  0
124125  2  0
125126  1  0
126127  2  0
127128  1  0
128129  1  0
129130  1  0
127131  1  0
131132  2  0
131133  1  0
123134  2  0
134135  1  0
122136  1  0
136137  2  0
137138  1  0
137139  1  0
139140  2  0
140141  1  0
141142  2  0
142143  1  0
143144  2  0
144145  1  0
145146  2  0
146147  1  0
147148  1  0
148149  1  0
146150  1  0
150151  1  0
150152  2  0
142153  1  0
153154  2  0
154155  1  0
155156  1  0
156157  2  0
157158  1  0
158159  2  0
159160  1  0
160161  1  0
161162  1  0
159163  1  0
163164  2  0
163165  1  0
155166  2  0
166167  1  0
154168  1  0
168169  2  0
169170  1  0
 29  1  1  0
 40 35  2  0
 71 43  1  0
103 75  1  0
135107  1  0
167139  1  0
 28  3  1  0
 70 45  1  0
102 77  1  0
134109  1  0
166141  1  0
 14  5  1  0
 32 15  1  0
 56 47  1  0
 74 57  1  0
 88 79  1  0
106 89  1  0
120111  1  0
138121  1  0
152143  1  0
170153  1  0
 26 18  1  0
 68 60  1  0
100 92  1  0
132124  1  0
164156  1  0
  1171  1  0
  2172  1  0
  6173  1  0
  7174  1  0
 10175  1  0
 10176  1  0
 11177  1  0
 11178  1  0
 11179  1  0
 14180  1  0
 19181  1  0
 20182  1  0
 23183  1  0
 23184  1  0
 24185  1  0
 24186  1  0
 24187  1  0
 26188  1  0
 30189  1  0
 34190  1  0
 34191  1  0
 38192  1  0
 38193  1  0
 38194  1  0
 40195  1  0
 41196  1  0
 42197  1  0
 44198  1  0
 48199  1  0
 49200  1  0
 52201  1  0
 52202  1  0
 53203  1  0
 53204  1  0
 53205  1  0
 56206  1  0
 61207  1  0
 62208  1  0
 65209  1  0
 65210  1  0
 66211  1  0
 66212  1  0
 66213  1  0
 68214  1  0
 72215  1  0
 76216  1  0
 80217  1  0
 81218  1  0
 84219  1  0
 84220  1  0
 85221  1  0
 85222  1  0
 85223  1  0
 88224  1  0
 93225  1  0
 94226  1  0
 97227  1  0
 97228  1  0
 98229  1  0
 98230  1  0
 98231  1  0
100232  1  0
104233  1  0
108234  1  0
112235  1  0
113236  1  0
116237  1  0
116238  1  0
117239  1  0
117240  1  0
117241  1  0
120242  1  0
125243  1  0
126244  1  0
129245  1  0
129246  1  0
130247  1  0
130248  1  0
130249  1  0
132250  1  0
136251  1  0
140252  1  0
144253  1  0
145254  1  0
148255  1  0
148256  1  0
149257  1  0
149258  1  0
149259  1  0
152260  1  0
157261  1  0
158262  1  0
161263  1  0
161264  1  0
162265  1  0
162266  1  0
162267  1  0
164268  1  0
168269  1  0
169270  1  0
M  END

