
     RDKit          3D

 92103  0  0  0  0  0  0  0  0999 V2000
    4.3587    5.4954   -0.7353 C   0  0  0  0  0  0  0  0  0  0  0  0
    4.3963    6.8955   -0.6470 C   0  0  0  0  0  0  0  0  0  0  0  0
    5.5296    7.6654   -0.8750 O   0  0  0  0  0  0  0  0  0  0  0  0
    2.8680    7.5590   -0.2389 S   0  0  0  0  0  0  0  0  0  0  0  0
    2.1823    6.0298   -0.1602 C   0  0  0  0  0  0  0  0  0  0  0  0
    3.0778    5.0527   -0.4380 C   0  0  0  0  0  0  0  0  0  0  0  0
    2.5206    3.8203   -0.4634 N   0  0  0  0  0  0  0  0  0  0  0  0
    1.2223    4.0868   -0.1743 C   0  0  0  0  0  0  0  0  0  0  0  0
    0.9843    5.4041    0.0079 C   0  0  0  0  0  0  0  0  0  0  0  0
   -0.6449    5.7282    0.2138 S   0  0  0  0  0  0  0  0  0  0  0  0
   -1.0534    4.0595    0.0660 C   0  0  0  0  0  0  0  0  0  0  0  0
    0.0965    3.2784   -0.1415 C   0  0  0  0  0  0  0  0  0  0  0  0
   -2.4215    3.5213    0.0911 C   0  0  0  0  0  0  0  0  0  0  0  0
   -3.5271    4.0212   -0.6326 C   0  0  0  0  0  0  0  0  0  0  0  0
   -3.5049    5.1203   -1.4902 O   0  0  0  0  0  0  0  0  0  0  0  0
   -4.9316    3.0753   -0.3605 S   0  0  0  0  0  0  0  0  0  0  0  0
   -4.1099    2.0307    0.6554 C   0  0  0  0  0  0  0  0  0  0  0  0
   -2.8066    2.3863    0.8004 C   0  0  0  0  0  0  0  0  0  0  0  0
   -2.1382    1.5880    1.6721 N   0  0  0  0  0  0  0  0  0  0  0  0
   -3.1026    0.7149    2.0529 C   0  0  0  0  0  0  0  0  0  0  0  0
   -4.2961    0.9439    1.4514 C   0  0  0  0  0  0  0  0  0  0  0  0
   -5.4597   -0.1400    1.9710 S   0  0  0  0  0  0  0  0  0  0  0  0
   -4.3609   -0.9458    3.0188 C   0  0  0  0  0  0  0  0  0  0  0  0
   -3.0877   -0.3390    2.9531 C   0  0  0  0  0  0  0  0  0  0  0  0
   -4.6700   -2.1595    3.8009 C   0  0  0  0  0  0  0  0  0  0  0  0
   -5.9029   -2.4850    4.4143 C   0  0  0  0  0  0  0  0  0  0  0  0
   -7.0332   -1.6714    4.4663 O   0  0  0  0  0  0  0  0  0  0  0  0
   -5.8430   -4.0372    5.1387 S   0  0  0  0  0  0  0  0  0  0  0  0
   -4.2345   -4.2446    4.7374 C   0  0  0  0  0  0  0  0  0  0  0  0
   -3.7555   -3.1897    4.0277 C   0  0  0  0  0  0  0  0  0  0  0  0
   -2.5331   -3.4421    3.4950 N   0  0  0  0  0  0  0  0  0  0  0  0
   -2.2657   -4.6899    3.9438 C   0  0  0  0  0  0  0  0  0  0  0  0
   -3.2703   -5.2122    4.6870 C   0  0  0  0  0  0  0  0  0  0  0  0
   -3.0494   -6.8560    4.9418 S   0  0  0  0  0  0  0  0  0  0  0  0
   -1.5385   -6.8591    4.1226 C   0  0  0  0  0  0  0  0  0  0  0  0
   -1.2746   -5.5845    3.5856 C   0  0  0  0  0  0  0  0  0  0  0  0
   -0.7811   -8.0844    3.7972 C   0  0  0  0  0  0  0  0  0  0  0  0
    0.5153   -8.1142    3.6878 N   0  0  0  0  0  0  0  0  0  0  0  0
    1.3426   -7.0444    4.0679 N   0  0  0  0  0  0  0  0  0  0  0  0
    1.9941   -6.2099    3.0972 C   0  0  0  0  0  0  0  0  0  0  0  0
    1.7469   -6.3783    1.7256 C   0  0  0  0  0  0  0  0  0  0  0  0
    2.1885   -5.4252    0.8096 C   0  0  0  0  0  0  0  0  0  0  0  0
    2.9102   -4.3005    1.2462 C   0  0  0  0  0  0  0  0  0  0  0  0
    3.2399   -4.1825    2.6018 C   0  0  0  0  0  0  0  0  0  0  0  0
    2.7652   -5.1192    3.5251 C   0  0  0  0  0  0  0  0  0  0  0  0
    3.2678   -3.2223    0.3072 C   0  0  0  0  0  0  0  0  0  0  0  0
    2.5818   -3.0657   -0.7762 N   0  0  0  0  0  0  0  0  0  0  0  0
    2.8290   -2.0314   -1.6940 N   0  0  0  0  0  0  0  0  0  0  0  0
    1.9685   -1.8553   -2.8269 C   0  0  0  0  0  0  0  0  0  0  0  0
    2.4037   -1.1153   -3.9350 C   0  0  0  0  0  0  0  0  0  0  0  0
    1.5873   -0.9785   -5.0623 C   0  0  0  0  0  0  0  0  0  0  0  0
    0.3015   -1.5509   -5.0786 C   0  0  0  0  0  0  0  0  0  0  0  0
   -0.1270   -2.2899   -3.9695 C   0  0  0  0  0  0  0  0  0  0  0  0
    0.6929   -2.4416   -2.8516 C   0  0  0  0  0  0  0  0  0  0  0  0
   -0.5867   -1.4707   -6.2667 C   0  0  0  0  0  0  0  0  0  0  0  0
   -0.6662   -0.4470   -7.0691 N   0  0  0  0  0  0  0  0  0  0  0  0
   -0.0122    0.7840   -6.8751 N   0  0  0  0  0  0  0  0  0  0  0  0
   -0.2134    1.6060   -5.7090 C   0  0  0  0  0  0  0  0  0  0  0  0
   -1.2666    1.3672   -4.8026 C   0  0  0  0  0  0  0  0  0  0  0  0
   -1.4718    2.2213   -3.7151 C   0  0  0  0  0  0  0  0  0  0  0  0
   -0.6334    3.3203   -3.5304 C   0  0  0  0  0  0  0  0  0  0  0  0
    0.4319    3.5532   -4.4049 C   0  0  0  0  0  0  0  0  0  0  0  0
    0.6387    2.7042   -5.4901 C   0  0  0  0  0  0  0  0  0  0  0  0
    5.1966    4.8655   -1.0116 H   0  0  0  0  0  0  0  0  0  0  0  0
    6.4084    7.2319   -1.1272 H   0  0  0  0  0  0  0  0  0  0  0  0
    2.9665    2.9145   -0.7249 H   0  0  0  0  0  0  0  0  0  0  0  0
    0.1054    2.2103   -0.3032 H   0  0  0  0  0  0  0  0  0  0  0  0
   -2.6577    5.6147   -1.7047 H   0  0  0  0  0  0  0  0  0  0  0  0
   -1.1453    1.6460    1.9935 H   0  0  0  0  0  0  0  0  0  0  0  0
   -2.2147   -0.6360    3.5211 H   0  0  0  0  0  0  0  0  0  0  0  0
   -7.0315   -0.7161    4.1327 H   0  0  0  0  0  0  0  0  0  0  0  0
   -1.9884   -2.8844    2.8011 H   0  0  0  0  0  0  0  0  0  0  0  0
   -0.4940   -5.3390    2.8843 H   0  0  0  0  0  0  0  0  0  0  0  0
   -1.3431   -8.9755    3.5650 H   0  0  0  0  0  0  0  0  0  0  0  0
    1.4074   -6.7952    5.0827 H   0  0  0  0  0  0  0  0  0  0  0  0
    1.1562   -7.2091    1.3647 H   0  0  0  0  0  0  0  0  0  0  0  0
    1.9413   -5.5549   -0.2354 H   0  0  0  0  0  0  0  0  0  0  0  0
    3.8060   -3.3297    2.9526 H   0  0  0  0  0  0  0  0  0  0  0  0
    2.9671   -4.9693    4.5785 H   0  0  0  0  0  0  0  0  0  0  0  0
    4.0406   -2.5082    0.5751 H   0  0  0  0  0  0  0  0  0  0  0  0
    3.6613   -1.4128   -1.5769 H   0  0  0  0  0  0  0  0  0  0  0  0
    3.3883   -0.6705   -3.9381 H   0  0  0  0  0  0  0  0  0  0  0  0
    1.9786   -0.4572   -5.9268 H   0  0  0  0  0  0  0  0  0  0  0  0
   -1.1138   -2.7420   -3.9648 H   0  0  0  0  0  0  0  0  0  0  0  0
    0.3244   -3.0144   -2.0077 H   0  0  0  0  0  0  0  0  0  0  0  0
   -1.2167   -2.3252   -6.4766 H   0  0  0  0  0  0  0  0  0  0  0  0
    0.4694    1.2108   -7.6955 H   0  0  0  0  0  0  0  0  0  0  0  0
   -1.9425    0.5407   -4.9401 H   0  0  0  0  0  0  0  0  0  0  0  0
   -2.2947    2.0498   -3.0276 H   0  0  0  0  0  0  0  0  0  0  0  0
   -0.8028    3.9997   -2.7150 H   0  0  0  0  0  0  0  0  0  0  0  0
    1.0843    4.4039   -4.2459 H   0  0  0  0  0  0  0  0  0  0  0  0
    1.4555    2.8972   -6.1729 H   0  0  0  0  0  0  0  0  0  0  0  0
  1  2  2  0
  2  3  1  0
  2  4  1  0
  4  5  1  0
  5  6  2  0
  6  7  1  0
  7  8  1  0
  8  9  2  0
  9 10  1  0
 10 11  1  0
 11 12  2  0
 11 13  1  0
 13 14  2  0
 14 15  1  0
 14 16  1  0
 16 17  1  0
 17 18  2  0
 18 19  1  0
 19 20  1  0
 20 21  2  0
 21 22  1  0
 22 23  1  0
 23 24  2  0
 23 25  1  0
 25 26  2  0
 26 27  1  0
 26 28  1  0
 28 29  1  0
 29 30  2  0
 30 31  1  0
 31 32  1  0
 32 33  2  0
 33 34  1  0
 34 35  1  0
 35 36  2  0
 35 37  1  0
 37 38  2  3
 38 39  1  0
 39 40  1  0
 40 41  2  0
 41 42  1  0
 42 43  2  0
 43 44  1  0
 44 45  2  0
 43 46  1  0
 46 47  2  3
 47 48  1  0
 48 49  1  0
 49 50  2  0
 50 51  1  0
 51 52  2  0
 52 53  1  0
 53 54  2  0
 52 55  1  0
 55 56  2  3
 56 57  1  0
 57 58  1  0
 58 59  2  0
 59 60  1  0
 60 61  2  0
 61 62  1  0
 62 63  2  0
  6  1  1  0
 12  8  1  0
 18 13  1  0
 24 20  1  0
 30 25  1  0
 36 32  1  0
 45 40  1  0
 54 49  1  0
 63 58  1  0
  9  5  1  0
 21 17  1  0
 33 29  1  0
  1 64  1  0
  3 65  1  0
  7 66  1  0
 12 67  1  0
 15 68  1  0
 19 69  1  0
 24 70  1  0
 27 71  1  0
 31 72  1  0
 36 73  1  0
 37 74  1  0
 39 75  1  0
 41 76  1  0
 42 77  1  0
 44 78  1  0
 45 79  1  0
 46 80  1  0
 48 81  1  0
 50 82  1  0
 51 83  1  0
 53 84  1  0
 54 85  1  0
 55 86  1  0
 57 87  1  0
 59 88  1  0
 60 89  1  0
 61 90  1  0
 62 91  1  0
 63 92  1  0
M  END

