
     RDKit          3D

277303  0  0  0  0  0  0  0  0999 V2000
   -3.6363   -3.8130    9.6863 C   0  0  0  0  0  0  0  0  0  0  0  0
   -3.3592   -3.0426    8.5605 C   0  0  0  0  0  0  0  0  0  0  0  0
   -3.5044   -3.7528    7.3563 C   0  0  0  0  0  0  0  0  0  0  0  0
   -3.2983   -3.2480    6.0564 C   0  0  0  0  0  0  0  0  0  0  0  0
   -2.9882   -1.8249    5.8104 C   0  0  0  0  0  0  0  0  0  0  0  0
   -1.7702   -1.4458    5.2246 C   0  0  0  0  0  0  0  0  0  0  0  0
   -1.4845   -0.0925    5.0113 C   0  0  0  0  0  0  0  0  0  0  0  0
   -2.4146    0.8889    5.3773 C   0  0  0  0  0  0  0  0  0  0  0  0
   -2.0429    2.6233    5.1068 S   0  0  0  0  0  0  0  0  0  0  0  0
   -1.2847    2.8534    6.7472 C   0  0  0  0  0  0  0  0  0  0  0  0
   -0.7603    4.2768    6.8802 C   0  0  0  0  0  0  0  0  0  0  0  0
   -3.6418    0.5111    5.9398 C   0  0  0  0  0  0  0  0  0  0  0  0
   -4.5547    1.4519    6.2883 F   0  0  0  0  0  0  0  0  0  0  0  0
   -3.9248   -0.8383    6.1591 C   0  0  0  0  0  0  0  0  0  0  0  0
   -3.4673   -4.1522    4.9928 C   0  0  0  0  0  0  0  0  0  0  0  0
   -3.8607   -5.4804    5.1820 C   0  0  0  0  0  0  0  0  0  0  0  0
   -4.0874   -5.9761    6.4809 C   0  0  0  0  0  0  0  0  0  0  0  0
   -4.5595   -7.3509    6.7227 C   0  0  0  0  0  0  0  0  0  0  0  0
   -5.9004   -7.6847    6.4778 C   0  0  0  0  0  0  0  0  0  0  0  0
   -6.3707   -8.9666    6.7830 C   0  0  0  0  0  0  0  0  0  0  0  0
   -5.5023   -9.9264    7.3169 C   0  0  0  0  0  0  0  0  0  0  0  0
   -6.1276  -11.5514    7.7606 S   0  0  0  0  0  0  0  0  0  0  0  0
   -5.7706  -12.3243    6.1428 C   0  0  0  0  0  0  0  0  0  0  0  0
   -6.9287  -12.1135    5.1762 C   0  0  0  0  0  0  0  0  0  0  0  0
   -4.1587   -9.5980    7.5515 C   0  0  0  0  0  0  0  0  0  0  0  0
   -3.6898   -8.3134    7.2585 C   0  0  0  0  0  0  0  0  0  0  0  0
   -3.3100  -10.5162    8.0782 F   0  0  0  0  0  0  0  0  0  0  0  0
   -3.8828   -5.0844    7.5465 C   0  0  0  0  0  0  0  0  0  0  0  0
   -4.0565   -5.3721    9.1966 S   0  0  0  0  0  0  0  0  0  0  0  0
   -3.9894   -6.2040    3.9816 C   0  0  0  0  0  0  0  0  0  0  0  0
   -3.6925   -5.4425    2.8431 C   0  0  0  0  0  0  0  0  0  0  0  0
   -3.2934   -3.8764    3.3506 S   0  0  0  0  0  0  0  0  0  0  0  0
   -3.7042   -5.8400    1.4135 C   0  0  0  0  0  0  0  0  0  0  0  0
   -3.3907   -4.7186    0.2034 S   0  0  0  0  0  0  0  0  0  0  0  0
   -3.4760   -5.7507   -1.1016 C   0  0  0  0  0  0  0  0  0  0  0  0
   -3.7363   -7.0347   -0.6246 C   0  0  0  0  0  0  0  0  0  0  0  0
   -3.8804   -7.0966    0.7889 C   0  0  0  0  0  0  0  0  0  0  0  0
   -4.0790   -8.4175    1.5084 C   0  0  2  0  0  0  0  0  0  0  0  0
   -2.8190   -8.7901    2.2600 C   0  0  0  0  0  0  0  0  0  0  0  0
   -2.8468   -9.6287    3.2994 C   0  0  0  0  0  0  0  0  0  0  0  0
   -4.4787   -9.5513    0.5384 C   0  0  0  0  0  0  0  0  0  0  0  0
   -3.6200   -9.5381   -0.7312 C   0  0  0  0  0  0  0  0  0  0  0  0
   -3.8456   -8.2432   -1.5140 C   0  0  0  0  0  0  0  0  0  0  0  0
   -3.2320   -5.2851   -2.4714 C   0  0  0  0  0  0  0  0  0  0  0  0
   -4.0581   -5.5579   -3.4903 C   0  0  0  0  0  0  0  0  0  0  0  0
   -4.1349   -4.6459   -4.6498 C   0  0  0  0  0  0  0  0  0  0  0  0
   -3.1484   -3.7279   -5.0112 C   0  0  0  0  0  0  0  0  0  0  0  0
   -3.6554   -2.5848   -5.6518 C   0  0  0  0  0  0  0  0  0  0  0  0
   -2.9332   -1.3932   -5.8638 C   0  0  0  0  0  0  0  0  0  0  0  0
   -1.4950   -1.3001   -5.5141 C   0  0  0  0  0  0  0  0  0  0  0  0
   -0.5397   -2.0284   -6.2408 C   0  0  0  0  0  0  0  0  0  0  0  0
    0.8129   -1.9653   -5.8876 C   0  0  0  0  0  0  0  0  0  0  0  0
    1.2263   -1.1559   -4.8212 C   0  0  0  0  0  0  0  0  0  0  0  0
    2.9671   -1.0763   -4.3745 S   0  0  0  0  0  0  0  0  0  0  0  0
    3.3191    0.4220   -5.3610 C   0  0  0  0  0  0  0  0  0  0  0  0
    3.5685    0.0680   -6.8225 C   0  0  0  0  0  0  0  0  0  0  0  0
    0.2758   -0.4328   -4.0874 C   0  0  0  0  0  0  0  0  0  0  0  0
    0.6590    0.3600   -3.0568 F   0  0  0  0  0  0  0  0  0  0  0  0
   -1.0783   -0.5218   -4.4187 C   0  0  0  0  0  0  0  0  0  0  0  0
   -3.6901   -0.2442   -6.1608 C   0  0  0  0  0  0  0  0  0  0  0  0
   -5.0834   -0.2616   -6.2495 C   0  0  0  0  0  0  0  0  0  0  0  0
   -5.7921   -1.4806   -6.1888 C   0  0  0  0  0  0  0  0  0  0  0  0
   -7.2668   -1.5171   -6.3795 C   0  0  0  0  0  0  0  0  0  0  0  0
   -7.8277   -0.9780   -7.5512 C   0  0  0  0  0  0  0  0  0  0  0  0
   -9.2142   -0.9803   -7.7392 C   0  0  0  0  0  0  0  0  0  0  0  0
  -10.0548   -1.5276   -6.7620 C   0  0  0  0  0  0  0  0  0  0  0  0
  -11.8369   -1.4857   -6.9794 S   0  0  0  0  0  0  0  0  0  0  0  0
  -11.9504   -3.0967   -7.8357 C   0  0  0  0  0  0  0  0  0  0  0  0
  -12.0687   -2.8856   -9.3393 C   0  0  0  0  0  0  0  0  0  0  0  0
   -9.5019   -2.0692   -5.5938 C   0  0  0  0  0  0  0  0  0  0  0  0
   -8.1176   -2.0456   -5.3964 C   0  0  0  0  0  0  0  0  0  0  0  0
  -10.3040   -2.6148   -4.6473 F   0  0  0  0  0  0  0  0  0  0  0  0
   -5.0421   -2.6264   -5.8460 C   0  0  0  0  0  0  0  0  0  0  0  0
   -5.6140   -4.0874   -5.2336 S   0  0  0  0  0  0  0  0  0  0  0  0
   -5.6614    1.0147   -6.0925 C   0  0  0  0  0  0  0  0  0  0  0  0
   -4.7333    2.0244   -5.8082 C   0  0  0  0  0  0  0  0  0  0  0  0
   -3.1986    1.3438   -5.9672 S   0  0  0  0  0  0  0  0  0  0  0  0
   -4.9330    2.9218   -4.6561 C   0  0  0  0  0  0  0  0  0  0  0  0
   -5.3523    2.3609   -3.4427 C   0  0  0  0  0  0  0  0  0  0  0  0
   -4.6681    2.8470   -2.3199 C   0  0  0  0  0  0  0  0  0  0  0  0
   -4.5994    2.1907   -1.0740 C   0  0  0  0  0  0  0  0  0  0  0  0
   -5.4014    0.9903   -0.7894 C   0  0  0  0  0  0  0  0  0  0  0  0
   -6.6110    1.1070   -0.0931 C   0  0  0  0  0  0  0  0  0  0  0  0
   -7.3679   -0.0320    0.1938 C   0  0  0  0  0  0  0  0  0  0  0  0
   -6.9275   -1.2951   -0.2272 C   0  0  0  0  0  0  0  0  0  0  0  0
   -7.8870   -2.7586    0.1859 S   0  0  0  0  0  0  0  0  0  0  0  0
   -8.8263   -2.7902   -1.3802 C   0  0  0  0  0  0  0  0  0  0  0  0
   -9.9917   -1.8087   -1.3437 C   0  0  0  0  0  0  0  0  0  0  0  0
   -5.7215   -1.4123   -0.9336 C   0  0  0  0  0  0  0  0  0  0  0  0
   -5.2897   -2.6272   -1.3591 F   0  0  0  0  0  0  0  0  0  0  0  0
   -4.9573   -0.2739   -1.2106 C   0  0  0  0  0  0  0  0  0  0  0  0
   -3.5932    2.6064   -0.1885 C   0  0  0  0  0  0  0  0  0  0  0  0
   -2.7367    3.6702   -0.4777 C   0  0  0  0  0  0  0  0  0  0  0  0
   -2.8401    4.3635   -1.7024 C   0  0  0  0  0  0  0  0  0  0  0  0
   -1.8486    5.3798   -2.1011 C   0  0  0  0  0  0  0  0  0  0  0  0
   -0.5379    4.9990   -2.4283 C   0  0  0  0  0  0  0  0  0  0  0  0
    0.4062    5.9676   -2.7823 C   0  0  0  0  0  0  0  0  0  0  0  0
    0.0495    7.3212   -2.8064 C   0  0  0  0  0  0  0  0  0  0  0  0
    1.2666    8.5553   -3.2782 S   0  0  0  0  0  0  0  0  0  0  0  0
    1.7919    8.9469   -1.5715 C   0  0  0  0  0  0  0  0  0  0  0  0
    2.7194    7.8726   -1.0171 C   0  0  0  0  0  0  0  0  0  0  0  0
   -1.2650    7.7011   -2.5001 C   0  0  0  0  0  0  0  0  0  0  0  0
   -2.2113    6.7326   -2.1491 C   0  0  0  0  0  0  0  0  0  0  0  0
   -1.6291    9.0087   -2.5352 F   0  0  0  0  0  0  0  0  0  0  0  0
   -3.8013    3.9012   -2.6160 C   0  0  0  0  0  0  0  0  0  0  0  0
   -3.8232    4.1476   -4.2820 S   0  0  0  0  0  0  0  0  0  0  0  0
   -1.6924    3.7992    0.4501 C   0  0  0  0  0  0  0  0  0  0  0  0
   -1.6869    2.7968    1.4186 C   0  0  0  0  0  0  0  0  0  0  0  0
   -3.0077    1.7783    1.1580 S   0  0  0  0  0  0  0  0  0  0  0  0
   -0.4605    2.4067    2.1221 C   0  0  0  0  0  0  0  0  0  0  0  0
    0.2112    1.2138    1.8526 C   0  0  0  0  0  0  0  0  0  0  0  0
    1.5994    1.2980    2.0668 C   0  0  0  0  0  0  0  0  0  0  0  0
    2.5730    0.3535    1.6596 C   0  0  0  0  0  0  0  0  0  0  0  0
    2.2370   -0.9443    1.0224 C   0  0  0  0  0  0  0  0  0  0  0  0
    1.4633   -0.9938   -0.1479 C   0  0  0  0  0  0  0  0  0  0  0  0
    1.2684   -2.2081   -0.8161 C   0  0  0  0  0  0  0  0  0  0  0  0
    1.8663   -3.3790   -0.3365 C   0  0  0  0  0  0  0  0  0  0  0  0
    1.7073   -4.9068   -1.2639 S   0  0  0  0  0  0  0  0  0  0  0  0
    0.3082   -5.5189   -0.2725 C   0  0  0  0  0  0  0  0  0  0  0  0
   -0.1553   -6.8615   -0.8142 C   0  0  0  0  0  0  0  0  0  0  0  0
    2.6344   -3.3388    0.8355 C   0  0  0  0  0  0  0  0  0  0  0  0
    3.2316   -4.4639    1.3065 F   0  0  0  0  0  0  0  0  0  0  0  0
    2.8098   -2.1312    1.5163 C   0  0  0  0  0  0  0  0  0  0  0  0
    3.9173    0.7619    1.7491 C   0  0  0  0  0  0  0  0  0  0  0  0
    4.3012    1.9993    2.2754 C   0  0  0  0  0  0  0  0  0  0  0  0
    3.3387    2.9061    2.7552 C   0  0  0  0  0  0  0  0  0  0  0  0
    3.7298    4.2297    3.2901 C   0  0  0  0  0  0  0  0  0  0  0  0
    4.5467    4.3070    4.4312 C   0  0  0  0  0  0  0  0  0  0  0  0
    4.9895    5.5479    4.8965 C   0  0  0  0  0  0  0  0  0  0  0  0
    4.6064    6.7232    4.2396 C   0  0  0  0  0  0  0  0  0  0  0  0
    5.2342    8.3108    4.8041 S   0  0  0  0  0  0  0  0  0  0  0  0
    3.8313    8.6685    5.9194 C   0  0  0  0  0  0  0  0  0  0  0  0
    4.0296    7.9959    7.2723 C   0  0  0  0  0  0  0  0  0  0  0  0
    3.7817    6.6533    3.1082 C   0  0  0  0  0  0  0  0  0  0  0  0
    3.3562    5.4111    2.6281 C   0  0  0  0  0  0  0  0  0  0  0  0
    3.4066    7.7870    2.4630 F   0  0  0  0  0  0  0  0  0  0  0  0
    1.9913    2.5360    2.5955 C   0  0  0  0  0  0  0  0  0  0  0  0
    0.6432    3.5283    2.7275 S   0  0  0  0  0  0  0  0  0  0  0  0
    5.6584    2.2910    2.0757 C   0  0  0  0  0  0  0  0  0  0  0  0
    6.3310    1.3103    1.3480 C   0  0  0  0  0  0  0  0  0  0  0  0
    5.2542    0.0578    1.0006 S   0  0  0  0  0  0  0  0  0  0  0  0
    7.6284    1.5098    0.6823 C   0  0  0  0  0  0  0  0  0  0  0  0
    8.4754    2.5952    0.8938 C   0  0  0  0  0  0  0  0  0  0  0  0
    9.4907    2.6985   -0.0694 C   0  0  0  0  0  0  0  0  0  0  0  0
   10.4530    3.7258   -0.1538 C   0  0  0  0  0  0  0  0  0  0  0  0
   10.4541    4.8749    0.7790 C   0  0  0  0  0  0  0  0  0  0  0  0
    9.3295    5.7116    0.8681 C   0  0  0  0  0  0  0  0  0  0  0  0
    9.3227    6.7912    1.7552 C   0  0  0  0  0  0  0  0  0  0  0  0
   10.4461    7.0598    2.5455 C   0  0  0  0  0  0  0  0  0  0  0  0
   10.4316    8.4594    3.6735 S   0  0  0  0  0  0  0  0  0  0  0  0
   11.2152    9.6241    2.5007 C   0  0  0  0  0  0  0  0  0  0  0  0
   10.1910   10.2035    1.5335 C   0  0  0  0  0  0  0  0  0  0  0  0
   11.5717    6.2247    2.4645 C   0  0  0  0  0  0  0  0  0  0  0  0
   12.6626    6.4667    3.2349 F   0  0  0  0  0  0  0  0  0  0  0  0
   11.5749    5.1378    1.5832 C   0  0  0  0  0  0  0  0  0  0  0  0
   11.3691    3.6457   -1.2167 C   0  0  0  0  0  0  0  0  0  0  0  0
   11.3309    2.6265   -2.1748 C   0  0  0  0  0  0  0  0  0  0  0  0
   10.3563    1.6079   -2.1001 C   0  0  0  0  0  0  0  0  0  0  0  0
   10.2438    0.5550   -3.1341 C   0  0  0  0  0  0  0  0  0  0  0  0
   11.3041   -0.3360   -3.3553 C   0  0  0  0  0  0  0  0  0  0  0  0
   11.2062   -1.3129   -4.3519 C   0  0  0  0  0  0  0  0  0  0  0  0
   10.0512   -1.4038   -5.1375 C   0  0  0  0  0  0  0  0  0  0  0  0
    9.9356   -2.6602   -6.4159 S   0  0  0  0  0  0  0  0  0  0  0  0
   10.4695   -1.5660   -7.7804 C   0  0  0  0  0  0  0  0  0  0  0  0
   11.9886   -1.4694   -7.8447 C   0  0  0  0  0  0  0  0  0  0  0  0
    8.9794   -0.5296   -4.9053 C   0  0  0  0  0  0  0  0  0  0  0  0
    9.0784    0.4485   -3.9110 C   0  0  0  0  0  0  0  0  0  0  0  0
    7.8489   -0.6157   -5.6504 F   0  0  0  0  0  0  0  0  0  0  0  0
    9.4543    1.6745   -1.0212 C   0  0  0  0  0  0  0  0  0  0  0  0
    8.1577    0.6560   -0.6766 S   0  0  0  0  0  0  0  0  0  0  0  0
   12.2879    2.7930   -3.1912 C   0  0  0  0  0  0  0  0  0  0  0  0
   13.0770    3.9267   -3.0240 C   0  0  0  0  0  0  0  0  0  0  0  0
   12.5833    4.7359   -1.6296 S   0  0  0  0  0  0  0  0  0  0  0  0
   -3.5850   -3.4663   10.7091 H   0  0  0  0  0  0  0  0  0  0  0  0
   -3.0575   -2.0062    8.6242 H   0  0  0  0  0  0  0  0  0  0  0  0
   -1.0389   -2.1957    4.9477 H   0  0  0  0  0  0  0  0  0  0  0  0
   -0.5354    0.1911    4.5714 H   0  0  0  0  0  0  0  0  0  0  0  0
   -0.4434    2.1397    6.8803 H   0  0  0  0  0  0  0  0  0  0  0  0
   -2.0492    2.6712    7.5326 H   0  0  0  0  0  0  0  0  0  0  0  0
    0.0512    4.4544    6.1437 H   0  0  0  0  0  0  0  0  0  0  0  0
   -1.5815    5.0031    6.7055 H   0  0  0  0  0  0  0  0  0  0  0  0
   -0.3573    4.4333    7.9028 H   0  0  0  0  0  0  0  0  0  0  0  0
   -4.8721   -1.1196    6.6003 H   0  0  0  0  0  0  0  0  0  0  0  0
   -6.5835   -6.9471    6.0740 H   0  0  0  0  0  0  0  0  0  0  0  0
   -7.4123   -9.2075    6.6117 H   0  0  0  0  0  0  0  0  0  0  0  0
   -4.8303  -11.9233    5.7048 H   0  0  0  0  0  0  0  0  0  0  0  0
   -5.6366  -13.4146    6.3032 H   0  0  0  0  0  0  0  0  0  0  0  0
   -7.0190  -11.0410    4.9082 H   0  0  0  0  0  0  0  0  0  0  0  0
   -7.8806  -12.4580    5.6344 H   0  0  0  0  0  0  0  0  0  0  0  0
   -6.7517  -12.6973    4.2476 H   0  0  0  0  0  0  0  0  0  0  0  0
   -2.6550   -8.0605    7.4547 H   0  0  0  0  0  0  0  0  0  0  0  0
   -4.2930   -7.2341    3.9726 H   0  0  0  0  0  0  0  0  0  0  0  0
   -4.9249   -8.3037    2.2169 H   0  0  0  0  0  0  0  0  0  0  0  0
   -1.8638   -8.3777    1.9467 H   0  0  0  0  0  0  0  0  0  0  0  0
   -3.7817  -10.0623    3.6437 H   0  0  0  0  0  0  0  0  0  0  0  0
   -1.9285   -9.8808    3.8182 H   0  0  0  0  0  0  0  0  0  0  0  0
   -4.3846  -10.5411    1.0378 H   0  0  0  0  0  0  0  0  0  0  0  0
   -5.5486   -9.4327    0.2564 H   0  0  0  0  0  0  0  0  0  0  0  0
   -2.5440   -9.6352   -0.4647 H   0  0  0  0  0  0  0  0  0  0  0  0
   -3.8959  -10.4048   -1.3701 H   0  0  0  0  0  0  0  0  0  0  0  0
   -4.8605   -8.2639   -1.9655 H   0  0  0  0  0  0  0  0  0  0  0  0
   -3.0949   -8.1825   -2.3296 H   0  0  0  0  0  0  0  0  0  0  0  0
   -2.5149   -4.4802   -2.5579 H   0  0  0  0  0  0  0  0  0  0  0  0
   -4.8705   -6.2584   -3.3437 H   0  0  0  0  0  0  0  0  0  0  0  0
   -2.1188   -3.8125   -4.6885 H   0  0  0  0  0  0  0  0  0  0  0  0
   -0.8431   -2.6522   -7.0737 H   0  0  0  0  0  0  0  0  0  0  0  0
    1.5405   -2.5434   -6.4445 H   0  0  0  0  0  0  0  0  0  0  0  0
    4.2298    0.9022   -4.9500 H   0  0  0  0  0  0  0  0  0  0  0  0
    2.4824    1.1504   -5.2855 H   0  0  0  0  0  0  0  0  0  0  0  0
    4.4176   -0.6453   -6.9020 H   0  0  0  0  0  0  0  0  0  0  0  0
    3.8240    0.9899   -7.3869 H   0  0  0  0  0  0  0  0  0  0  0  0
    2.6617   -0.3795   -7.2753 H   0  0  0  0  0  0  0  0  0  0  0  0
   -1.8027    0.0158   -3.8188 H   0  0  0  0  0  0  0  0  0  0  0  0
   -7.1909   -0.5547   -8.3186 H   0  0  0  0  0  0  0  0  0  0  0  0
   -9.6338   -0.5497   -8.6388 H   0  0  0  0  0  0  0  0  0  0  0  0
  -11.0733   -3.7461   -7.6156 H   0  0  0  0  0  0  0  0  0  0  0  0
  -12.8586   -3.6215   -7.4716 H   0  0  0  0  0  0  0  0  0  0  0  0
  -12.1884   -3.8669   -9.8435 H   0  0  0  0  0  0  0  0  0  0  0  0
  -12.9573   -2.2572   -9.5703 H   0  0  0  0  0  0  0  0  0  0  0  0
  -11.1566   -2.3919   -9.7341 H   0  0  0  0  0  0  0  0  0  0  0  0
   -7.7109   -2.4288   -4.4711 H   0  0  0  0  0  0  0  0  0  0  0  0
   -6.7212    1.1497   -5.9156 H   0  0  0  0  0  0  0  0  0  0  0  0
   -5.9437    1.4539   -3.4039 H   0  0  0  0  0  0  0  0  0  0  0  0
   -6.9650    2.0804    0.2276 H   0  0  0  0  0  0  0  0  0  0  0  0
   -8.2974    0.0684    0.7402 H   0  0  0  0  0  0  0  0  0  0  0  0
   -8.1583   -2.5589   -2.2334 H   0  0  0  0  0  0  0  0  0  0  0  0
   -9.2253   -3.8161   -1.5262 H   0  0  0  0  0  0  0  0  0  0  0  0
   -9.6208   -0.7644   -1.3380 H   0  0  0  0  0  0  0  0  0  0  0  0
  -10.6141   -1.9880   -0.4411 H   0  0  0  0  0  0  0  0  0  0  0  0
  -10.6268   -1.9480   -2.2421 H   0  0  0  0  0  0  0  0  0  0  0  0
   -4.0242   -0.3712   -1.7533 H   0  0  0  0  0  0  0  0  0  0  0  0
   -0.2485    3.9552   -2.4053 H   0  0  0  0  0  0  0  0  0  0  0  0
    1.4154    5.6652   -3.0322 H   0  0  0  0  0  0  0  0  0  0  0  0
    2.3425    9.9109   -1.5964 H   0  0  0  0  0  0  0  0  0  0  0  0
    0.9101    9.0732   -0.9067 H   0  0  0  0  0  0  0  0  0  0  0  0
    2.1503    6.9485   -0.7897 H   0  0  0  0  0  0  0  0  0  0  0  0
    3.1849    8.2375   -0.0792 H   0  0  0  0  0  0  0  0  0  0  0  0
    3.5266    7.6445   -1.7448 H   0  0  0  0  0  0  0  0  0  0  0  0
   -3.2227    7.0346   -1.9030 H   0  0  0  0  0  0  0  0  0  0  0  0
   -0.8793    4.5034    0.3345 H   0  0  0  0  0  0  0  0  0  0  0  0
   -0.2776    0.3713    1.3809 H   0  0  0  0  0  0  0  0  0  0  0  0
    1.0467   -0.0868   -0.5647 H   0  0  0  0  0  0  0  0  0  0  0  0
    0.6818   -2.2302   -1.7261 H   0  0  0  0  0  0  0  0  0  0  0  0
   -0.5238   -4.7888   -0.3227 H   0  0  0  0  0  0  0  0  0  0  0  0
    0.6260   -5.6416    0.7864 H   0  0  0  0  0  0  0  0  0  0  0  0
    0.6834   -7.5879   -0.8277 H   0  0  0  0  0  0  0  0  0  0  0  0
   -0.9605   -7.2634   -0.1657 H   0  0  0  0  0  0  0  0  0  0  0  0
   -0.5538   -6.7410   -1.8448 H   0  0  0  0  0  0  0  0  0  0  0  0
    3.4244   -2.1094    2.4084 H   0  0  0  0  0  0  0  0  0  0  0  0
    4.8546    3.4045    4.9454 H   0  0  0  0  0  0  0  0  0  0  0  0
    5.6381    5.5948    5.7625 H   0  0  0  0  0  0  0  0  0  0  0  0
    3.7897    9.7671    6.0690 H   0  0  0  0  0  0  0  0  0  0  0  0
    2.8672    8.3443    5.4708 H   0  0  0  0  0  0  0  0  0  0  0  0
    5.0262    8.2553    7.6891 H   0  0  0  0  0  0  0  0  0  0  0  0
    3.9403    6.8957    7.1741 H   0  0  0  0  0  0  0  0  0  0  0  0
    3.2463    8.3429    7.9781 H   0  0  0  0  0  0  0  0  0  0  0  0
    2.7527    5.3648    1.7296 H   0  0  0  0  0  0  0  0  0  0  0  0
    6.0995    3.2441    2.3323 H   0  0  0  0  0  0  0  0  0  0  0  0
    8.3358    3.3086    1.6939 H   0  0  0  0  0  0  0  0  0  0  0  0
    8.4577    5.5257    0.2509 H   0  0  0  0  0  0  0  0  0  0  0  0
    8.4459    7.4242    1.8207 H   0  0  0  0  0  0  0  0  0  0  0  0
   12.0346    9.1263    1.9370 H   0  0  0  0  0  0  0  0  0  0  0  0
   11.6616   10.4545    3.0866 H   0  0  0  0  0  0  0  0  0  0  0  0
   10.6748   10.9789    0.9018 H   0  0  0  0  0  0  0  0  0  0  0  0
    9.7924    9.4099    0.8700 H   0  0  0  0  0  0  0  0  0  0  0  0
    9.3532   10.6709    2.0942 H   0  0  0  0  0  0  0  0  0  0  0  0
   12.4463    4.4952    1.5319 H   0  0  0  0  0  0  0  0  0  0  0  0
   12.2068   -0.2727   -2.7588 H   0  0  0  0  0  0  0  0  0  0  0  0
   12.0322   -1.9935   -4.5152 H   0  0  0  0  0  0  0  0  0  0  0  0
   10.0985   -1.9991   -8.7339 H   0  0  0  0  0  0  0  0  0  0  0  0
   10.0278   -0.5528   -7.6722 H   0  0  0  0  0  0  0  0  0  0  0  0
   12.4297   -2.4798   -7.9759 H   0  0  0  0  0  0  0  0  0  0  0  0
   12.2823   -0.8385   -8.7094 H   0  0  0  0  0  0  0  0  0  0  0  0
   12.3922   -1.0100   -6.9195 H   0  0  0  0  0  0  0  0  0  0  0  0
    8.2508    1.1302   -3.7549 H   0  0  0  0  0  0  0  0  0  0  0  0
   12.4010    2.1286   -4.0376 H   0  0  0  0  0  0  0  0  0  0  0  0
   13.8688    4.2436   -3.6909 H   0  0  0  0  0  0  0  0  0  0  0  0
  1  2  2  0
  2  3  1  0
  3  4  2  0
  4  5  1  0
  5  6  2  0
  6  7  1  0
  7  8  2  0
  8  9  1  0
  9 10  1  0
 10 11  1  0
  8 12  1  0
 12 13  1  0
 12 14  2  0
  4 15  1  0
 15 16  2  0
 16 17  1  0
 17 18  1  0
 18 19  2  0
 19 20  1  0
 20 21  2  0
 21 22  1  0
 22 23  1  0
 23 24  1  0
 21 25  1  0
 25 26  2  0
 25 27  1  0
 17 28  2  0
 28 29  1  0
 16 30  1  0
 30 31  2  0
 31 32  1  0
 31 33  1  0
 33 34  1  0
 34 35  1  0
 35 36  2  0
 36 37  1  0
 37 38  1  0
 38 39  1  0
 39 40  2  3
 38 41  1  0
 41 42  1  0
 42 43  1  0
 35 44  1  0
 44 45  2  3
 45 46  1  0
 46 47  2  0
 47 48  1  0
 48 49  2  0
 49 50  1  0
 50 51  2  0
 51 52  1  0
 52 53  2  0
 53 54  1  0
 54 55  1  0
 55 56  1  0
 53 57  1  0
 57 58  1  0
 57 59  2  0
 49 60  1  0
 60 61  2  0
 61 62  1  0
 62 63  1  0
 63 64  2  0
 64 65  1  0
 65 66  2  0
 66 67  1  0
 67 68  1  0
 68 69  1  0
 66 70  1  0
 70 71  2  0
 70 72  1  0
 62 73  2  0
 73 74  1  0
 61 75  1  0
 75 76  2  0
 76 77  1  0
 76 78  1  0
 78 79  2  0
 79 80  1  0
 80 81  2  0
 81 82  1  0
 82 83  2  0
 83 84  1  0
 84 85  2  0
 85 86  1  0
 86 87  1  0
 87 88  1  0
 85 89  1  0
 89 90  1  0
 89 91  2  0
 81 92  1  0
 92 93  2  0
 93 94  1  0
 94 95  1  0
 95 96  2  0
 96 97  1  0
 97 98  2  0
 98 99  1  0
 99100  1  0
100101  1  0
 98102  1  0
102103  2  0
102104  1  0
 94105  2  0
105106  1  0
 93107  1  0
107108  2  0
108109  1  0
108110  1  0
110111  2  0
111112  1  0
112113  2  0
113114  1  0
114115  2  0
115116  1  0
116117  2  0
117118  1  0
118119  1  0
119120  1  0
117121  1  0
121122  1  0
121123  2  0
113124  1  0
124125  2  0
125126  1  0
126127  1  0
127128  2  0
128129  1  0
129130  2  0
130131  1  0
131132  1  0
132133  1  0
130134  1  0
134135  2  0
134136  1  0
126137  2  0
137138  1  0
125139  1  0
139140  2  0
140141  1  0
140142  1  0
142143  2  0
143144  1  0
144145  2  0
145146  1  0
146147  2  0
147148  1  0
148149  2  0
149150  1  0
150151  1  0
151152  1  0
149153  1  0
153154  1  0
153155  2  0
145156  1  0
156157  2  0
157158  1  0
158159  1  0
159160  2  0
160161  1  0
161162  2  0
162163  1  0
163164  1  0
164165  1  0
162166  1  0
166167  2  0
166168  1  0
158169  2  0
169170  1  0
157171  1  0
171172  2  0
172173  1  0
 29  1  1  0
 37 33  2  0
 74 46  1  0
106 78  1  0
138110  1  0
170142  1  0
 28  3  1  0
 43 36  1  0
 73 48  1  0
105 80  1  0
137112  1  0
169144  1  0
 14  5  1  0
 32 15  1  0
 59 50  1  0
 77 60  1  0
 91 82  1  0
109 92  1  0
123114  1  0
141124  1  0
155146  1  0
173156  1  0
 26 18  1  0
 71 63  1  0
103 95  1  0
135127  1  0
167159  1  0
  1174  1  0
  2175  1  0
  6176  1  0
  7177  1  0
 10178  1  0
 10179  1  0
 11180  1  0
 11181  1  0
 11182  1  0
 14183  1  0
 19184  1  0
 20185  1  0
 23186  1  0
 23187  1  0
 24188  1  0
 24189  1  0
 24190  1  0
 26191  1  0
 30192  1  0
 38193  1  1
 39194  1  0
 40195  1  0
 40196  1  0
 41197  1  0
 41198  1  0
 42199  1  0
 42200  1  0
 43201  1  0
 43202  1  0
 44203  1  0
 45204  1  0
 47205  1  0
 51206  1  0
 52207  1  0
 55208  1  0
 55209  1  0
 56210  1  0
 56211  1  0
 56212  1  0
 59213  1  0
 64214  1  0
 65215  1  0
 68216  1  0
 68217  1  0
 69218  1  0
 69219  1  0
 69220  1  0
 71221  1  0
 75222  1  0
 79223  1  0
 83224  1  0
 84225  1  0
 87226  1  0
 87227  1  0
 88228  1  0
 88229  1  0
 88230  1  0
 91231  1  0
 96232  1  0
 97233  1  0
100234  1  0
100235  1  0
101236  1  0
101237  1  0
101238  1  0
103239  1  0
107240  1  0
111241  1  0
115242  1  0
116243  1  0
119244  1  0
119245  1  0
120246  1  0
120247  1  0
120248  1  0
123249  1  0
128250  1  0
129251  1  0
132252  1  0
132253  1  0
133254  1  0
133255  1  0
133256  1  0
135257  1  0
139258  1  0
143259  1  0
147260  1  0
148261  1  0
151262  1  0
151263  1  0
152264  1  0
152265  1  0
152266  1  0
155267  1  0
160268  1  0
161269  1  0
164270  1  0
164271  1  0
165272  1  0
165273  1  0
165274  1  0
167275  1  0
171276  1  0
172277  1  0
M  END

