
     RDKit          3D

234257  0  0  0  0  0  0  0  0999 V2000
    1.4317    1.3483   11.3267 C   0  0  0  0  0  0  0  0  0  0  0  0
    0.6895    2.2585   10.5820 C   0  0  0  0  0  0  0  0  0  0  0  0
   -0.1065    1.6522    9.5968 C   0  0  0  0  0  0  0  0  0  0  0  0
   -0.9838    2.3051    8.7010 C   0  0  0  0  0  0  0  0  0  0  0  0
   -1.0722    3.7816    8.6107 C   0  0  0  0  0  0  0  0  0  0  0  0
    0.0786    4.5436    8.3344 C   0  0  0  0  0  0  0  0  0  0  0  0
   -0.0203    5.9293    8.1723 C   0  0  0  0  0  0  0  0  0  0  0  0
   -1.2641    6.5640    8.2627 C   0  0  0  0  0  0  0  0  0  0  0  0
   -1.3863    8.3416    8.0440 S   0  0  0  0  0  0  0  0  0  0  0  0
   -1.5741    8.2823    6.2234 C   0  0  0  0  0  0  0  0  0  0  0  0
   -0.2442    8.5888    5.5450 C   0  0  0  0  0  0  0  0  0  0  0  0
   -2.4116    5.8130    8.5564 C   0  0  0  0  0  0  0  0  0  0  0  0
   -3.6224    6.4086    8.6421 F   0  0  0  0  0  0  0  0  0  0  0  0
   -2.3137    4.4274    8.7277 C   0  0  0  0  0  0  0  0  0  0  0  0
   -1.7367    1.4805    7.8406 C   0  0  0  0  0  0  0  0  0  0  0  0
   -1.6133    0.0856    7.8263 C   0  0  0  0  0  0  0  0  0  0  0  0
   -0.7117   -0.5591    8.6981 C   0  0  0  0  0  0  0  0  0  0  0  0
   -0.5092   -2.0203    8.6875 C   0  0  0  0  0  0  0  0  0  0  0  0
    0.6612   -2.5618    8.1352 C   0  0  0  0  0  0  0  0  0  0  0  0
    0.8996   -3.9385    8.2058 C   0  0  0  0  0  0  0  0  0  0  0  0
   -0.0292   -4.7833    8.8261 C   0  0  0  0  0  0  0  0  0  0  0  0
    0.3522   -6.5288    9.0026 S   0  0  0  0  0  0  0  0  0  0  0  0
   -0.5042   -7.0216    7.4661 C   0  0  0  0  0  0  0  0  0  0  0  0
   -0.1376   -8.4520    7.1011 C   0  0  0  0  0  0  0  0  0  0  0  0
   -1.2106   -4.2481    9.3594 C   0  0  0  0  0  0  0  0  0  0  0  0
   -1.4543   -2.8699    9.2787 C   0  0  0  0  0  0  0  0  0  0  0  0
   -2.1118   -5.0551    9.9742 F   0  0  0  0  0  0  0  0  0  0  0  0
    0.0189    0.2607    9.5784 C   0  0  0  0  0  0  0  0  0  0  0  0
    1.1101   -0.2110   10.7717 S   0  0  0  0  0  0  0  0  0  0  0  0
   -2.4223   -0.5332    6.8603 C   0  0  0  0  0  0  0  0  0  0  0  0
   -3.1866    0.3791    6.1303 C   0  0  0  0  0  0  0  0  0  0  0  0
   -2.8406    1.9386    6.6617 S   0  0  0  0  0  0  0  0  0  0  0  0
   -4.0770    0.0648    5.0024 C   0  0  0  0  0  0  0  0  0  0  0  0
   -4.1877   -1.1743    4.3749 C   0  0  0  0  0  0  0  0  0  0  0  0
   -4.9668   -1.1315    3.2069 C   0  0  0  0  0  0  0  0  0  0  0  0
   -5.1251   -2.1842    2.2843 C   0  0  0  0  0  0  0  0  0  0  0  0
   -4.5236   -3.5154    2.5184 C   0  0  0  0  0  0  0  0  0  0  0  0
   -3.5087   -3.9962    1.6739 C   0  0  0  0  0  0  0  0  0  0  0  0
   -2.9325   -5.2492    1.9069 C   0  0  0  0  0  0  0  0  0  0  0  0
   -3.3597   -6.0282    2.9862 C   0  0  0  0  0  0  0  0  0  0  0  0
   -2.6128   -7.6341    3.2770 S   0  0  0  0  0  0  0  0  0  0  0  0
   -3.8911   -8.5792    2.3731 C   0  0  0  0  0  0  0  0  0  0  0  0
   -3.5998   -8.5954    0.8769 C   0  0  0  0  0  0  0  0  0  0  0  0
   -4.3506   -5.5427    3.8483 C   0  0  0  0  0  0  0  0  0  0  0  0
   -4.7589   -6.2822    4.9095 F   0  0  0  0  0  0  0  0  0  0  0  0
   -4.9356   -4.2944    3.6113 C   0  0  0  0  0  0  0  0  0  0  0  0
   -5.7552   -1.8688    1.0666 C   0  0  0  0  0  0  0  0  0  0  0  0
   -6.2295   -0.5878    0.7683 C   0  0  0  0  0  0  0  0  0  0  0  0
   -6.1342    0.4495    1.7232 C   0  0  0  0  0  0  0  0  0  0  0  0
   -6.5944    1.8270    1.4464 C   0  0  0  0  0  0  0  0  0  0  0  0
   -6.0160    2.5811    0.4131 C   0  0  0  0  0  0  0  0  0  0  0  0
   -6.4772    3.8731    0.1439 C   0  0  0  0  0  0  0  0  0  0  0  0
   -7.5203    4.4229    0.9026 C   0  0  0  0  0  0  0  0  0  0  0  0
   -8.1264    6.0697    0.5243 S   0  0  0  0  0  0  0  0  0  0  0  0
   -9.2389    5.5414   -0.8290 C   0  0  0  0  0  0  0  0  0  0  0  0
  -10.5419    4.9752   -0.2803 C   0  0  0  0  0  0  0  0  0  0  0  0
   -8.0770    3.6841    1.9564 C   0  0  0  0  0  0  0  0  0  0  0  0
   -7.6178    2.3902    2.2238 C   0  0  0  0  0  0  0  0  0  0  0  0
   -9.0650    4.2147    2.7194 F   0  0  0  0  0  0  0  0  0  0  0  0
   -5.4766    0.1422    2.9280 C   0  0  0  0  0  0  0  0  0  0  0  0
   -4.9544    1.2083    4.1212 S   0  0  0  0  0  0  0  0  0  0  0  0
   -6.6395   -0.4522   -0.5696 C   0  0  0  0  0  0  0  0  0  0  0  0
   -6.4229   -1.6004   -1.3387 C   0  0  0  0  0  0  0  0  0  0  0  0
   -5.8329   -2.8117   -0.3172 S   0  0  0  0  0  0  0  0  0  0  0  0
   -6.1170   -1.5654   -2.7828 C   0  0  0  0  0  0  0  0  0  0  0  0
   -5.2958   -2.5113   -3.4030 C   0  0  0  0  0  0  0  0  0  0  0  0
   -4.5568   -1.9931   -4.4809 C   0  0  0  0  0  0  0  0  0  0  0  0
   -3.4596   -2.6231   -5.1142 C   0  0  0  0  0  0  0  0  0  0  0  0
   -3.0207   -3.9917   -4.7514 C   0  0  0  0  0  0  0  0  0  0  0  0
   -2.6240   -4.2894   -3.4339 C   0  0  0  0  0  0  0  0  0  0  0  0
   -2.2586   -5.5913   -3.0863 C   0  0  0  0  0  0  0  0  0  0  0  0
   -2.2431   -6.6010   -4.0544 C   0  0  0  0  0  0  0  0  0  0  0  0
   -1.8520   -8.2900   -3.5733 S   0  0  0  0  0  0  0  0  0  0  0  0
   -0.0386   -8.0988   -3.6870 C   0  0  0  0  0  0  0  0  0  0  0  0
    0.4256   -8.1535   -5.1388 C   0  0  0  0  0  0  0  0  0  0  0  0
   -2.6018   -6.3035   -5.3815 C   0  0  0  0  0  0  0  0  0  0  0  0
   -2.5930   -7.2701   -6.3302 F   0  0  0  0  0  0  0  0  0  0  0  0
   -2.9759   -4.9987   -5.7260 C   0  0  0  0  0  0  0  0  0  0  0  0
   -2.6935   -1.8285   -5.9859 C   0  0  0  0  0  0  0  0  0  0  0  0
   -2.9927   -0.4834   -6.2356 C   0  0  0  0  0  0  0  0  0  0  0  0
   -4.1303    0.1195   -5.6654 C   0  0  0  0  0  0  0  0  0  0  0  0
   -4.4351    1.5508   -5.8794 C   0  0  0  0  0  0  0  0  0  0  0  0
   -4.2892    2.4724   -4.8325 C   0  0  0  0  0  0  0  0  0  0  0  0
   -4.5912    3.8231   -5.0362 C   0  0  0  0  0  0  0  0  0  0  0  0
   -5.0445    4.2609   -6.2854 C   0  0  0  0  0  0  0  0  0  0  0  0
   -5.4448    5.9941   -6.5377 S   0  0  0  0  0  0  0  0  0  0  0  0
   -7.2291    5.8045   -6.1859 C   0  0  0  0  0  0  0  0  0  0  0  0
   -7.4985    5.8462   -4.6860 C   0  0  0  0  0  0  0  0  0  0  0  0
   -5.1588    3.3460   -7.3444 C   0  0  0  0  0  0  0  0  0  0  0  0
   -4.8551    1.9953   -7.1403 C   0  0  0  0  0  0  0  0  0  0  0  0
   -5.5751    3.7592   -8.5654 F   0  0  0  0  0  0  0  0  0  0  0  0
   -4.8743   -0.6629   -4.7674 C   0  0  0  0  0  0  0  0  0  0  0  0
   -6.0209   -0.1243   -3.6633 S   0  0  0  0  0  0  0  0  0  0  0  0
   -1.9409    0.2081   -6.8575 C   0  0  0  0  0  0  0  0  0  0  0  0
   -0.8090   -0.5781   -7.0804 C   0  0  0  0  0  0  0  0  0  0  0  0
   -1.1321   -2.1392   -6.5287 S   0  0  0  0  0  0  0  0  0  0  0  0
    0.5460   -0.0175   -7.0160 C   0  0  0  0  0  0  0  0  0  0  0  0
    0.9527    0.8028   -5.9717 C   0  0  0  0  0  0  0  0  0  0  0  0
    2.3433    0.8707   -5.8291 C   0  0  0  0  0  0  0  0  0  0  0  0
    3.0208    1.4787   -4.7583 C   0  0  0  0  0  0  0  0  0  0  0  0
    2.2870    2.1598   -3.6781 C   0  0  0  0  0  0  0  0  0  0  0  0
    1.8519    3.4790   -3.8516 C   0  0  0  0  0  0  0  0  0  0  0  0
    1.0643    4.0926   -2.8759 C   0  0  0  0  0  0  0  0  0  0  0  0
    0.6896    3.3845   -1.7262 C   0  0  0  0  0  0  0  0  0  0  0  0
   -0.3839    4.1589   -0.5097 S   0  0  0  0  0  0  0  0  0  0  0  0
   -1.9442    3.7615   -1.3836 C   0  0  0  0  0  0  0  0  0  0  0  0
   -2.3423    2.3077   -1.1604 C   0  0  0  0  0  0  0  0  0  0  0  0
    1.1548    2.0757   -1.5319 C   0  0  0  0  0  0  0  0  0  0  0  0
    0.8233    1.3886   -0.4113 F   0  0  0  0  0  0  0  0  0  0  0  0
    1.9475    1.4629   -2.5076 C   0  0  0  0  0  0  0  0  0  0  0  0
    4.4071    1.2907   -4.6949 C   0  0  0  0  0  0  0  0  0  0  0  0
    5.1161    0.5775   -5.6630 C   0  0  0  0  0  0  0  0  0  0  0  0
    4.4474    0.0141   -6.7753 C   0  0  0  0  0  0  0  0  0  0  0  0
    5.1952   -0.6509   -7.8707 C   0  0  0  0  0  0  0  0  0  0  0  0
    6.2048    0.0591   -8.5438 C   0  0  0  0  0  0  0  0  0  0  0  0
    6.9217   -0.5438   -9.5770 C   0  0  0  0  0  0  0  0  0  0  0  0
    6.6283   -1.8544   -9.9694 C   0  0  0  0  0  0  0  0  0  0  0  0
    7.5609   -2.6165  -11.3043 S   0  0  0  0  0  0  0  0  0  0  0  0
    6.3798   -2.1600  -12.6250 C   0  0  0  0  0  0  0  0  0  0  0  0
    6.6144   -0.7315  -13.0994 C   0  0  0  0  0  0  0  0  0  0  0  0
    5.6275   -2.5713   -9.2972 C   0  0  0  0  0  0  0  0  0  0  0  0
    4.9179   -1.9740   -8.2487 C   0  0  0  0  0  0  0  0  0  0  0  0
    5.3463   -3.8499   -9.6558 F   0  0  0  0  0  0  0  0  0  0  0  0
    3.0423    0.1397   -6.7971 C   0  0  0  0  0  0  0  0  0  0  0  0
    1.9182   -0.6348   -7.7881 S   0  0  0  0  0  0  0  0  0  0  0  0
    6.4663    0.3849   -5.3183 C   0  0  0  0  0  0  0  0  0  0  0  0
    6.7969    0.9488   -4.0851 C   0  0  0  0  0  0  0  0  0  0  0  0
    5.4311    1.6803   -3.4233 S   0  0  0  0  0  0  0  0  0  0  0  0
    8.0073    0.6496   -3.3050 C   0  0  0  0  0  0  0  0  0  0  0  0
    7.9611    0.2406   -1.6809 S   0  0  0  0  0  0  0  0  0  0  0  0
    9.5897   -0.1370   -1.5050 C   0  0  0  0  0  0  0  0  0  0  0  0
   10.2255    0.0663   -2.7368 C   0  0  0  0  0  0  0  0  0  0  0  0
    9.3262    0.5097   -3.7539 C   0  0  0  0  0  0  0  0  0  0  0  0
    9.7494    0.8299   -5.1317 C   0  0  0  0  0  0  0  0  0  0  0  0
   11.3145    0.6241   -5.5033 S   0  0  0  0  0  3  0  0  0  0  0  0
   12.2859    0.0196   -4.1305 C   0  0  0  0  0  0  0  0  0  0  0  0
   11.6827   -0.1864   -2.9562 C   0  0  0  0  0  0  0  0  0  0  0  0
   10.2075   -0.6136   -0.2451 C   0  0  0  0  0  0  0  0  0  0  0  0
    9.4652   -1.0423    0.7854 C   0  0  0  0  0  0  0  0  0  0  0  0
   10.0529   -1.5192    2.0579 C   0  0  0  0  0  0  0  0  0  0  0  0
   11.6858   -1.4588    2.4589 S   0  0  0  0  0  0  0  0  0  0  0  0
   11.5519   -2.1322    3.9871 C   0  0  0  0  0  0  0  0  0  0  0  0
   10.2000   -2.3981    4.2486 C   0  0  0  0  0  0  0  0  0  0  0  0
    9.3556   -2.0625    3.1479 C   0  0  0  0  0  0  0  0  0  0  0  0
    7.8899   -2.2680    3.1625 C   0  0  0  0  0  0  0  0  0  0  0  0
    7.2253   -2.8545    4.5199 S   0  0  0  0  0  3  0  0  0  0  0  0
    8.4204   -3.1487    5.8161 C   0  0  0  0  0  0  0  0  0  0  0  0
    9.7074   -2.8980    5.5678 C   0  0  0  0  0  0  0  0  0  0  0  0
   12.7167   -2.3665    4.8564 C   0  0  0  0  0  0  0  0  0  0  0  0
   12.9032   -3.5092    5.5166 C   0  0  0  0  0  0  0  0  0  0  0  0
    2.0992    1.5998   12.1408 H   0  0  0  0  0  0  0  0  0  0  0  0
    0.7149    3.3225   10.7729 H   0  0  0  0  0  0  0  0  0  0  0  0
    1.0443    4.0635    8.2366 H   0  0  0  0  0  0  0  0  0  0  0  0
    0.8700    6.5062    7.9562 H   0  0  0  0  0  0  0  0  0  0  0  0
   -1.9567    7.2947    5.8837 H   0  0  0  0  0  0  0  0  0  0  0  0
   -2.3162    9.0582    5.9285 H   0  0  0  0  0  0  0  0  0  0  0  0
   -0.3846    8.6116    4.4458 H   0  0  0  0  0  0  0  0  0  0  0  0
    0.5063    7.8086    5.7948 H   0  0  0  0  0  0  0  0  0  0  0  0
    0.1286    9.5794    5.8729 H   0  0  0  0  0  0  0  0  0  0  0  0
   -3.2076    3.8560    8.9497 H   0  0  0  0  0  0  0  0  0  0  0  0
    1.3929   -1.9152    7.6659 H   0  0  0  0  0  0  0  0  0  0  0  0
    1.8121   -4.3455    7.7848 H   0  0  0  0  0  0  0  0  0  0  0  0
   -0.2214   -6.3489    6.6259 H   0  0  0  0  0  0  0  0  0  0  0  0
   -1.6024   -6.9498    7.6270 H   0  0  0  0  0  0  0  0  0  0  0  0
   -0.7593   -8.7904    6.2462 H   0  0  0  0  0  0  0  0  0  0  0  0
   -0.3161   -9.1308    7.9610 H   0  0  0  0  0  0  0  0  0  0  0  0
    0.9306   -8.5060    6.8075 H   0  0  0  0  0  0  0  0  0  0  0  0
   -2.3574   -2.4606    9.7166 H   0  0  0  0  0  0  0  0  0  0  0  0
   -2.4409   -1.6016    6.6934 H   0  0  0  0  0  0  0  0  0  0  0  0
   -3.6577   -2.0574    4.7089 H   0  0  0  0  0  0  0  0  0  0  0  0
   -3.1559   -3.3956    0.8441 H   0  0  0  0  0  0  0  0  0  0  0  0
   -2.1530   -5.6085    1.2455 H   0  0  0  0  0  0  0  0  0  0  0  0
   -3.8787   -9.6211    2.7540 H   0  0  0  0  0  0  0  0  0  0  0  0
   -4.9010   -8.1576    2.5618 H   0  0  0  0  0  0  0  0  0  0  0  0
   -4.3145   -9.2786    0.3692 H   0  0  0  0  0  0  0  0  0  0  0  0
   -2.5687   -8.9594    0.6931 H   0  0  0  0  0  0  0  0  0  0  0  0
   -3.7119   -7.5806    0.4456 H   0  0  0  0  0  0  0  0  0  0  0  0
   -5.7093   -3.9324    4.2782 H   0  0  0  0  0  0  0  0  0  0  0  0
   -5.2186    2.1665   -0.1853 H   0  0  0  0  0  0  0  0  0  0  0  0
   -6.0370    4.4400   -0.6662 H   0  0  0  0  0  0  0  0  0  0  0  0
   -8.7383    4.7884   -1.4730 H   0  0  0  0  0  0  0  0  0  0  0  0
   -9.4697    6.4303   -1.4537 H   0  0  0  0  0  0  0  0  0  0  0  0
  -10.3528    4.0648    0.3206 H   0  0  0  0  0  0  0  0  0  0  0  0
  -11.2087    4.7018   -1.1211 H   0  0  0  0  0  0  0  0  0  0  0  0
  -11.0550    5.7298    0.3483 H   0  0  0  0  0  0  0  0  0  0  0  0
   -8.0628    1.8236    3.0324 H   0  0  0  0  0  0  0  0  0  0  0  0
   -6.9439    0.4882   -1.0059 H   0  0  0  0  0  0  0  0  0  0  0  0
   -5.1264   -3.4960   -2.9859 H   0  0  0  0  0  0  0  0  0  0  0  0
   -2.6356   -3.5211   -2.6733 H   0  0  0  0  0  0  0  0  0  0  0  0
   -1.9903   -5.8153   -2.0619 H   0  0  0  0  0  0  0  0  0  0  0  0
    0.2908   -7.1478   -3.2187 H   0  0  0  0  0  0  0  0  0  0  0  0
    0.4240   -8.9394   -3.1323 H   0  0  0  0  0  0  0  0  0  0  0  0
    1.5308   -8.2723   -5.1705 H   0  0  0  0  0  0  0  0  0  0  0  0
    0.1551   -7.2138   -5.6655 H   0  0  0  0  0  0  0  0  0  0  0  0
   -0.0400   -9.0159   -5.6627 H   0  0  0  0  0  0  0  0  0  0  0  0
   -3.2589   -4.7785   -6.7486 H   0  0  0  0  0  0  0  0  0  0  0  0
   -3.9374    2.1502   -3.8618 H   0  0  0  0  0  0  0  0  0  0  0  0
   -4.4774    4.5259   -4.2209 H   0  0  0  0  0  0  0  0  0  0  0  0
   -7.7689    6.6501   -6.6657 H   0  0  0  0  0  0  0  0  0  0  0  0
   -7.6240    4.8585   -6.6174 H   0  0  0  0  0  0  0  0  0  0  0  0
   -7.0484    4.9665   -4.1850 H   0  0  0  0  0  0  0  0  0  0  0  0
   -7.0803    6.7765   -4.2465 H   0  0  0  0  0  0  0  0  0  0  0  0
   -8.5940    5.8303   -4.5012 H   0  0  0  0  0  0  0  0  0  0  0  0
   -4.9575    1.2925   -7.9577 H   0  0  0  0  0  0  0  0  0  0  0  0
   -1.9319    1.2839   -6.9834 H   0  0  0  0  0  0  0  0  0  0  0  0
    0.2548    1.2345   -5.2637 H   0  0  0  0  0  0  0  0  0  0  0  0
    2.1084    4.0278   -4.7505 H   0  0  0  0  0  0  0  0  0  0  0  0
    0.7231    5.1125   -3.0231 H   0  0  0  0  0  0  0  0  0  0  0  0
   -2.7434    4.4157   -0.9749 H   0  0  0  0  0  0  0  0  0  0  0  0
   -1.8474    3.9672   -2.4699 H   0  0  0  0  0  0  0  0  0  0  0  0
   -1.6086    1.6270   -1.6369 H   0  0  0  0  0  0  0  0  0  0  0  0
   -3.3308    2.1186   -1.6186 H   0  0  0  0  0  0  0  0  0  0  0  0
   -2.4035    2.0841   -0.0771 H   0  0  0  0  0  0  0  0  0  0  0  0
    2.2751    0.4408   -2.3682 H   0  0  0  0  0  0  0  0  0  0  0  0
    6.4320    1.0811   -8.2691 H   0  0  0  0  0  0  0  0  0  0  0  0
    7.7038    0.0117  -10.0791 H   0  0  0  0  0  0  0  0  0  0  0  0
    5.3331   -2.2768  -12.2757 H   0  0  0  0  0  0  0  0  0  0  0  0
    6.5370   -2.8492  -13.4824 H   0  0  0  0  0  0  0  0  0  0  0  0
    6.3890   -0.0097  -12.2883 H   0  0  0  0  0  0  0  0  0  0  0  0
    5.9472   -0.5107  -13.9598 H   0  0  0  0  0  0  0  0  0  0  0  0
    7.6676   -0.6039  -13.4230 H   0  0  0  0  0  0  0  0  0  0  0  0
    4.1599   -2.5494   -7.7279 H   0  0  0  0  0  0  0  0  0  0  0  0
    7.1429   -0.2379   -5.8877 H   0  0  0  0  0  0  0  0  0  0  0  0
    9.0639    1.2144   -5.8751 H   0  0  0  0  0  0  0  0  0  0  0  0
   13.3408   -0.1751   -4.2514 H   0  0  0  0  0  0  0  0  0  0  0  0
   12.2919   -0.5556   -2.1425 H   0  0  0  0  0  0  0  0  0  0  0  0
   11.2846   -0.6184   -0.1574 H   0  0  0  0  0  0  0  0  0  0  0  0
    8.3900   -1.0561    0.6836 H   0  0  0  0  0  0  0  0  0  0  0  0
    7.2597   -2.0580    2.3118 H   0  0  0  0  0  0  0  0  0  0  0  0
    8.0984   -3.5011    6.7857 H   0  0  0  0  0  0  0  0  0  0  0  0
   10.4064   -3.0410    6.3792 H   0  0  0  0  0  0  0  0  0  0  0  0
   13.5066   -1.6258    4.8686 H   0  0  0  0  0  0  0  0  0  0  0  0
   13.8010   -3.6558    6.1044 H   0  0  0  0  0  0  0  0  0  0  0  0
   12.1906   -4.3191    5.4545 H   0  0  0  0  0  0  0  0  0  0  0  0
  1  2  2  0
  2  3  1  0
  3  4  2  0
  4  5  1  0
  5  6  2  0
  6  7  1  0
  7  8  2  0
  8  9  1  0
  9 10  1  0
 10 11  1  0
  8 12  1  0
 12 13  1  0
 12 14  2  0
  4 15  1  0
 15 16  2  0
 16 17  1  0
 17 18  1  0
 18 19  2  0
 19 20  1  0
 20 21  2  0
 21 22  1  0
 22 23  1  0
 23 24  1  0
 21 25  1  0
 25 26  2  0
 25 27  1  0
 17 28  2  0
 28 29  1  0
 16 30  1  0
 30 31  2  0
 31 32  1  0
 31 33  1  0
 33 34  2  0
 34 35  1  0
 35 36  2  0
 36 37  1  0
 37 38  2  0
 38 39  1  0
 39 40  2  0
 40 41  1  0
 41 42  1  0
 42 43  1  0
 40 44  1  0
 44 45  1  0
 44 46  2  0
 36 47  1  0
 47 48  2  0
 48 49  1  0
 49 50  1  0
 50 51  2  0
 51 52  1  0
 52 53  2  0
 53 54  1  0
 54 55  1  0
 55 56  1  0
 53 57  1  0
 57 58  2  0
 57 59  1  0
 49 60  2  0
 60 61  1  0
 48 62  1  0
 62 63  2  0
 63 64  1  0
 63 65  1  0
 65 66  2  0
 66 67  1  0
 67 68  2  0
 68 69  1  0
 69 70  2  0
 70 71  1  0
 71 72  2  0
 72 73  1  0
 73 74  1  0
 74 75  1  0
 72 76  1  0
 76 77  1  0
 76 78  2  0
 68 79  1  0
 79 80  2  0
 80 81  1  0
 81 82  1  0
 82 83  2  0
 83 84  1  0
 84 85  2  0
 85 86  1  0
 86 87  1  0
 87 88  1  0
 85 89  1  0
 89 90  2  0
 89 91  1  0
 81 92  2  0
 92 93  1  0
 80 94  1  0
 94 95  2  0
 95 96  1  0
 95 97  1  0
 97 98  2  0
 98 99  1  0
 99100  2  0
100101  1  0
101102  2  0
102103  1  0
103104  2  0
104105  1  0
105106  1  0
106107  1  0
104108  1  0
108109  1  0
108110  2  0
100111  1  0
111112  2  0
112113  1  0
113114  1  0
114115  2  0
115116  1  0
116117  2  0
117118  1  0
118119  1  0
119120  1  0
117121  1  0
121122  2  0
121123  1  0
113124  2  0
124125  1  0
112126  1  0
126127  2  0
127128  1  0
127129  1  0
129130  1  0
130131  1  0
131132  2  0
132133  1  0
133134  1  0
134135  2  0
135136  1  0
136137  2  0
131138  1  0
138139  2  3
139140  1  0
140141  1  0
141142  1  0
142143  2  0
143144  1  0
144145  1  0
145146  2  0
146147  1  0
147148  2  0
142149  1  0
149150  2  3
 29  1  1  0
 61 33  1  0
 93 65  1  0
125 97  1  0
133129  2  0
144140  2  0
 28  3  1  0
 60 35  1  0
 92 67  1  0
124 99  1  0
137132  1  0
148143  1  0
 14  5  1  0
 32 15  1  0
 46 37  1  0
 64 47  1  0
 78 69  1  0
 96 79  1  0
110101  1  0
128111  1  0
 26 18  1  0
 58 50  1  0
 90 82  1  0
122114  1  0
  1151  1  0
  2152  1  0
  6153  1  0
  7154  1  0
 10155  1  0
 10156  1  0
 11157  1  0
 11158  1  0
 11159  1  0
 14160  1  0
 19161  1  0
 20162  1  0
 23163  1  0
 23164  1  0
 24165  1  0
 24166  1  0
 24167  1  0
 26168  1  0
 30169  1  0
 34170  1  0
 38171  1  0
 39172  1  0
 42173  1  0
 42174  1  0
 43175  1  0
 43176  1  0
 43177  1  0
 46178  1  0
 51179  1  0
 52180  1  0
 55181  1  0
 55182  1  0
 56183  1  0
 56184  1  0
 56185  1  0
 58186  1  0
 62187  1  0
 66188  1  0
 70189  1  0
 71190  1  0
 74191  1  0
 74192  1  0
 75193  1  0
 75194  1  0
 75195  1  0
 78196  1  0
 83197  1  0
 84198  1  0
 87199  1  0
 87200  1  0
 88201  1  0
 88202  1  0
 88203  1  0
 90204  1  0
 94205  1  0
 98206  1  0
102207  1  0
103208  1  0
106209  1  0
106210  1  0
107211  1  0
107212  1  0
107213  1  0
110214  1  0
115215  1  0
116216  1  0
119217  1  0
119218  1  0
120219  1  0
120220  1  0
120221  1  0
122222  1  0
126223  1  0
134224  1  0
136225  1  0
137226  1  0
138227  1  0
139228  1  0
145229  1  0
147230  1  0
148231  1  0
149232  1  0
150233  1  0
150234  1  0
M  RAD  2 135   2 146   2
M  END

