
     RDKit          3D

228255  0  0  0  0  0  0  0  0999 V2000
    4.8677   -3.0849   15.0080 C   0  0  0  0  0  0  0  0  0  0  0  0
    4.8355   -2.2179   13.9214 C   0  0  0  0  0  0  0  0  0  0  0  0
    3.7541   -2.4528   13.0541 C   0  0  0  0  0  0  0  0  0  0  0  0
    3.4767   -1.7699   11.8527 C   0  0  0  0  0  0  0  0  0  0  0  0
    4.3362   -0.6803   11.3639 C   0  0  0  0  0  0  0  0  0  0  0  0
    5.9448   -0.8547   10.9065 S   0  0  0  0  0  0  0  0  0  0  0  0
    6.1895    0.7596   10.4948 C   0  0  0  0  0  0  0  0  0  0  0  0
    7.4596    1.3101    9.9270 C   0  0  0  0  0  0  0  0  0  0  0  0
    7.4151    1.3061    8.4037 C   0  0  0  0  0  0  0  0  0  0  0  0
    4.9979    1.4555   10.6879 C   0  0  0  0  0  0  0  0  0  0  0  0
    4.8063    3.1700   10.3506 Cl  0  0  0  0  0  0  0  0  0  0  0  0
    3.9607    0.6526   11.1867 C   0  0  0  0  0  0  0  0  0  0  0  0
    2.3665    1.2754   11.5863 Cl  0  0  0  0  0  0  0  0  0  0  0  0
    2.3486   -2.1927   11.1271 C   0  0  0  0  0  0  0  0  0  0  0  0
    1.5047   -3.2211   11.5686 C   0  0  0  0  0  0  0  0  0  0  0  0
    1.7820   -3.9011   12.7702 C   0  0  0  0  0  0  0  0  0  0  0  0
    0.9777   -5.0474   13.2251 C   0  0  0  0  0  0  0  0  0  0  0  0
    0.8928   -6.5284   12.4292 S   0  0  0  0  0  0  0  0  0  0  0  0
   -0.0632   -7.2970   13.5805 C   0  0  0  0  0  0  0  0  0  0  0  0
   -0.5815   -8.6958   13.4572 C   0  0  0  0  0  0  0  0  0  0  0  0
   -1.9212   -8.7076   12.7315 C   0  0  0  0  0  0  0  0  0  0  0  0
   -0.3465   -6.3897   14.6030 C   0  0  0  0  0  0  0  0  0  0  0  0
    0.2474   -5.1326   14.4085 C   0  0  0  0  0  0  0  0  0  0  0  0
    0.0500   -3.7898   15.5250 Cl  0  0  0  0  0  0  0  0  0  0  0  0
   -1.3506   -6.7720   15.9936 Cl  0  0  0  0  0  0  0  0  0  0  0  0
    2.9231   -3.4910   13.4877 C   0  0  0  0  0  0  0  0  0  0  0  0
    3.5526   -4.1374   14.9090 S   0  0  0  0  0  0  0  0  0  0  0  0
    0.4409   -3.4808   10.6877 C   0  0  0  0  0  0  0  0  0  0  0  0
    0.4899   -2.6919    9.5412 C   0  0  0  0  0  0  0  0  0  0  0  0
    1.8264   -1.6638    9.6178 S   0  0  0  0  0  0  0  0  0  0  0  0
   -0.4040   -2.8089    8.3863 C   0  0  0  0  0  0  0  0  0  0  0  0
   -2.0951   -2.9292    8.4538 S   0  0  0  0  0  0  0  0  0  0  0  0
   -2.3000   -3.0195    6.7859 C   0  0  0  0  0  0  0  0  0  0  0  0
   -3.4966   -3.1112    6.0547 C   0  0  0  0  0  0  0  0  0  0  0  0
   -3.3854   -3.2097    4.6576 C   0  0  0  0  0  0  0  0  0  0  0  0
   -4.4466   -3.2964    3.7434 C   0  0  0  0  0  0  0  0  0  0  0  0
   -3.9970   -3.4214    2.4229 C   0  0  0  0  0  0  0  0  0  0  0  0
   -2.3045   -3.4091    2.3987 S   0  0  0  0  0  0  0  0  0  0  0  0
   -2.1260   -3.2404    4.0529 C   0  0  0  0  0  0  0  0  0  0  0  0
   -0.9369   -3.1136    4.7771 C   0  0  0  0  0  0  0  0  0  0  0  0
   -1.0482   -2.9888    6.1663 C   0  0  0  0  0  0  0  0  0  0  0  0
    0.0173   -2.8503    7.0602 C   0  0  0  0  0  0  0  0  0  0  0  0
   -4.8265   -3.4681    1.2087 C   0  0  0  0  0  0  0  0  0  0  0  0
   -6.0533   -2.8308    1.0177 C   0  0  0  0  0  0  0  0  0  0  0  0
   -6.4518   -2.8090   -0.3359 C   0  0  0  0  0  0  0  0  0  0  0  0
   -7.5260   -2.0663   -0.8813 C   0  0  0  0  0  0  0  0  0  0  0  0
   -8.4960   -1.3557   -0.0232 C   0  0  0  0  0  0  0  0  0  0  0  0
   -8.8211    0.2972   -0.0819 S   0  0  0  0  0  0  0  0  0  0  0  0
  -10.0224    0.2869    1.0924 C   0  0  0  0  0  0  0  0  0  0  0  0
  -10.8358    1.4817    1.4876 C   0  0  0  0  0  0  0  0  0  0  0  0
  -12.0799    1.5997    0.6147 C   0  0  0  0  0  0  0  0  0  0  0  0
  -10.2036   -1.0227    1.5360 C   0  0  0  0  0  0  0  0  0  0  0  0
  -11.4161   -1.4879    2.7231 Cl  0  0  0  0  0  0  0  0  0  0  0  0
   -9.3430   -1.9434    0.9167 C   0  0  0  0  0  0  0  0  0  0  0  0
   -9.3962   -3.6726    1.2278 Cl  0  0  0  0  0  0  0  0  0  0  0  0
   -7.5793   -1.9652   -2.2870 C   0  0  0  0  0  0  0  0  0  0  0  0
   -6.6729   -2.6250   -3.1216 C   0  0  0  0  0  0  0  0  0  0  0  0
   -5.6370   -3.4057   -2.5799 C   0  0  0  0  0  0  0  0  0  0  0  0
   -4.5777   -3.9898   -3.4202 C   0  0  0  0  0  0  0  0  0  0  0  0
   -4.2937   -5.6401   -3.5864 S   0  0  0  0  0  0  0  0  0  0  0  0
   -2.9379   -5.4889   -4.5689 C   0  0  0  0  0  0  0  0  0  0  0  0
   -2.1889   -6.6407   -5.1660 C   0  0  0  0  0  0  0  0  0  0  0  0
   -2.6862   -6.9433   -6.5763 C   0  0  0  0  0  0  0  0  0  0  0  0
   -2.6887   -4.1327   -4.7818 C   0  0  0  0  0  0  0  0  0  0  0  0
   -3.6059   -3.2918   -4.1345 C   0  0  0  0  0  0  0  0  0  0  0  0
   -3.5051   -1.5337   -4.1863 Cl  0  0  0  0  0  0  0  0  0  0  0  0
   -1.3241   -3.5311   -5.7092 Cl  0  0  0  0  0  0  0  0  0  0  0  0
   -5.5482   -3.4589   -1.1811 C   0  0  0  0  0  0  0  0  0  0  0  0
   -4.2573   -4.0315   -0.2762 S   0  0  0  0  0  0  0  0  0  0  0  0
   -6.8010   -2.2738   -4.4733 C   0  0  0  0  0  0  0  0  0  0  0  0
   -7.7268   -1.2539   -4.7039 C   0  0  0  0  0  0  0  0  0  0  0  0
   -8.4831   -0.8989   -3.2306 S   0  0  0  0  0  0  0  0  0  0  0  0
   -7.5507   -0.2642   -5.7865 C   0  0  0  0  0  0  0  0  0  0  0  0
   -6.6472   -0.4486   -6.8377 C   0  0  0  0  0  0  0  0  0  0  0  0
   -6.0325    0.7393   -7.2674 C   0  0  0  0  0  0  0  0  0  0  0  0
   -4.8552    0.8089   -8.0437 C   0  0  0  0  0  0  0  0  0  0  0  0
   -4.2854   -0.3958   -8.6827 C   0  0  0  0  0  0  0  0  0  0  0  0
   -2.8050   -1.1018   -8.2840 S   0  0  0  0  0  0  0  0  0  0  0  0
   -2.9552   -2.4333   -9.3005 C   0  0  0  0  0  0  0  0  0  0  0  0
   -1.9314   -3.5168   -9.4581 C   0  0  0  0  0  0  0  0  0  0  0  0
   -1.0356   -3.2569  -10.6645 C   0  0  0  0  0  0  0  0  0  0  0  0
   -4.1730   -2.3417   -9.9752 C   0  0  0  0  0  0  0  0  0  0  0  0
   -4.7305   -3.5325  -11.1417 Cl  0  0  0  0  0  0  0  0  0  0  0  0
   -4.9180   -1.2036   -9.6232 C   0  0  0  0  0  0  0  0  0  0  0  0
   -6.4850   -0.8243  -10.3220 Cl  0  0  0  0  0  0  0  0  0  0  0  0
   -4.1519    2.0287   -8.0148 C   0  0  0  0  0  0  0  0  0  0  0  0
   -4.6117    3.1457   -7.3120 C   0  0  0  0  0  0  0  0  0  0  0  0
   -5.8517    3.1051   -6.6430 C   0  0  0  0  0  0  0  0  0  0  0  0
   -6.3636    4.2579   -5.8841 C   0  0  0  0  0  0  0  0  0  0  0  0
   -7.6748    5.1959   -6.3674 S   0  0  0  0  0  0  0  0  0  0  0  0
   -7.6297    6.2543   -5.0609 C   0  0  0  0  0  0  0  0  0  0  0  0
   -8.6032    7.3719   -4.8439 C   0  0  0  0  0  0  0  0  0  0  0  0
   -9.8179    6.8892   -4.0572 C   0  0  0  0  0  0  0  0  0  0  0  0
   -6.5988    5.8612   -4.2030 C   0  0  0  0  0  0  0  0  0  0  0  0
   -5.8828    4.7443   -4.6692 C   0  0  0  0  0  0  0  0  0  0  0  0
   -4.5575    4.0039   -3.7823 Cl  0  0  0  0  0  0  0  0  0  0  0  0
   -6.2465    6.6616   -2.6779 Cl  0  0  0  0  0  0  0  0  0  0  0  0
   -6.5222    1.8735   -6.6143 C   0  0  0  0  0  0  0  0  0  0  0  0
   -7.6822    1.3950   -5.4970 S   0  0  0  0  0  0  0  0  0  0  0  0
   -3.6479    4.1613   -7.1898 C   0  0  0  0  0  0  0  0  0  0  0  0
   -2.4187    3.8262   -7.7560 C   0  0  0  0  0  0  0  0  0  0  0  0
   -2.5635    2.3094   -8.4841 S   0  0  0  0  0  0  0  0  0  0  0  0
   -1.1322    4.2984   -7.2256 C   0  0  0  0  0  0  0  0  0  0  0  0
   -0.9194    4.4717   -5.8563 C   0  0  0  0  0  0  0  0  0  0  0  0
    0.4223    4.3207   -5.4737 C   0  0  0  0  0  0  0  0  0  0  0  0
    0.8863    4.2246   -4.1454 C   0  0  0  0  0  0  0  0  0  0  0  0
   -0.0087    4.4486   -2.9905 C   0  0  0  0  0  0  0  0  0  0  0  0
   -0.3623    3.3122   -1.8016 S   0  0  0  0  0  0  0  0  0  0  0  0
   -1.4191    4.2825   -0.9272 C   0  0  0  0  0  0  0  0  0  0  0  0
   -2.0613    3.8923    0.3696 C   0  0  0  0  0  0  0  0  0  0  0  0
   -1.2202    4.3642    1.5523 C   0  0  0  0  0  0  0  0  0  0  0  0
   -1.5025    5.5269   -1.5528 C   0  0  0  0  0  0  0  0  0  0  0  0
   -2.4731    6.8568   -0.9398 Cl  0  0  0  0  0  0  0  0  0  0  0  0
   -0.7147    5.6176   -2.7108 C   0  0  0  0  0  0  0  0  0  0  0  0
   -0.5855    7.0841   -3.6731 Cl  0  0  0  0  0  0  0  0  0  0  0  0
    2.2099    3.7768   -3.9728 C   0  0  0  0  0  0  0  0  0  0  0  0
    3.0609    3.5069   -5.0482 C   0  0  0  0  0  0  0  0  0  0  0  0
    2.6276    3.7150   -6.3768 C   0  0  0  0  0  0  0  0  0  0  0  0
    3.5477    3.5620   -7.5228 C   0  0  0  0  0  0  0  0  0  0  0  0
    3.2955    2.5667   -8.8574 S   0  0  0  0  0  0  0  0  0  0  0  0
    4.6807    3.0298   -9.6924 C   0  0  0  0  0  0  0  0  0  0  0  0
    5.0970    2.4813  -11.0230 C   0  0  0  0  0  0  0  0  0  0  0  0
    6.0976    1.3448  -10.8495 C   0  0  0  0  0  0  0  0  0  0  0  0
    5.3741    3.9621   -8.9249 C   0  0  0  0  0  0  0  0  0  0  0  0
    4.7366    4.2669   -7.7147 C   0  0  0  0  0  0  0  0  0  0  0  0
    5.3450    5.4756   -6.5866 Cl  0  0  0  0  0  0  0  0  0  0  0  0
    6.8790    4.7145   -9.4333 Cl  0  0  0  0  0  0  0  0  0  0  0  0
    1.2780    4.0696   -6.5506 C   0  0  0  0  0  0  0  0  0  0  0  0
    0.3600    4.0122   -7.9617 S   0  0  0  0  0  0  0  0  0  0  0  0
    4.2680    2.8985   -4.6603 C   0  0  0  0  0  0  0  0  0  0  0  0
    4.3600    2.7002   -3.2806 C   0  0  0  0  0  0  0  0  0  0  0  0
    2.9660    3.3036   -2.5472 S   0  0  0  0  0  0  0  0  0  0  0  0
    5.3500    1.8528   -2.5993 C   0  0  0  0  0  0  0  0  0  0  0  0
    6.1640    0.9043   -3.2181 C   0  0  0  0  0  0  0  0  0  0  0  0
    6.8737    0.1071   -2.3028 C   0  0  0  0  0  0  0  0  0  0  0  0
    7.7385   -0.9617   -2.6184 C   0  0  0  0  0  0  0  0  0  0  0  0
    8.0291   -1.3454   -4.0119 C   0  0  0  0  0  0  0  0  0  0  0  0
    8.7719   -0.3487   -5.1455 S   0  0  0  0  0  0  0  0  0  0  0  0
    8.7686   -1.4679   -6.4004 C   0  0  0  0  0  0  0  0  0  0  0  0
    9.2059   -1.1778   -7.8039 C   0  0  0  0  0  0  0  0  0  0  0  0
    8.0287   -0.6722   -8.6339 C   0  0  0  0  0  0  0  0  0  0  0  0
    8.1595   -2.6408   -5.9507 C   0  0  0  0  0  0  0  0  0  0  0  0
    7.9151   -4.0569   -6.9630 Cl  0  0  0  0  0  0  0  0  0  0  0  0
    7.7532   -2.5741   -4.6106 C   0  0  0  0  0  0  0  0  0  0  0  0
    6.8925   -3.8780   -3.8047 Cl  0  0  0  0  0  0  0  0  0  0  0  0
    8.3110   -1.6561   -1.5373 C   0  0  0  0  0  0  0  0  0  0  0  0
    8.0497   -1.3252   -0.2054 C   0  0  0  0  0  0  0  0  0  0  0  0
    7.1796   -0.2629    0.1099 C   0  0  0  0  0  0  0  0  0  0  0  0
    6.8825    0.1112    1.5044 C   0  0  0  0  0  0  0  0  0  0  0  0
    5.3991   -0.1089    2.2660 S   0  0  0  0  0  0  0  0  0  0  0  0
    5.8854    0.4736    3.7702 C   0  0  0  0  0  0  0  0  0  0  0  0
    5.0283    0.4813    5.0004 C   0  0  0  0  0  0  0  0  0  0  0  0
    5.1059   -0.8604    5.7253 C   0  0  0  0  0  0  0  0  0  0  0  0
    7.2322    0.8335    3.6911 C   0  0  0  0  0  0  0  0  0  0  0  0
    7.7888    0.6353    2.4202 C   0  0  0  0  0  0  0  0  0  0  0  0
    9.4544    1.0305    2.0208 Cl  0  0  0  0  0  0  0  0  0  0  0  0
    8.1473    1.4876    5.0389 Cl  0  0  0  0  0  0  0  0  0  0  0  0
    6.6033    0.4296   -0.9689 C   0  0  0  0  0  0  0  0  0  0  0  0
    5.4991    1.6985   -0.9211 S   0  0  0  0  0  0  0  0  0  0  0  0
    8.7208   -2.1531    0.7093 C   0  0  0  0  0  0  0  0  0  0  0  0
    9.5230   -3.1101    0.0985 C   0  0  0  0  0  0  0  0  0  0  0  0
    9.3957   -2.9407   -1.5729 S   0  0  0  0  0  0  0  0  0  0  0  0
    5.6166   -3.0871   15.7874 H   0  0  0  0  0  0  0  0  0  0  0  0
    5.5792   -1.4465   13.7667 H   0  0  0  0  0  0  0  0  0  0  0  0
    8.3182    0.6904   10.2688 H   0  0  0  0  0  0  0  0  0  0  0  0
    7.6202    2.3463   10.2933 H   0  0  0  0  0  0  0  0  0  0  0  0
    7.3079    0.2645    8.0240 H   0  0  0  0  0  0  0  0  0  0  0  0
    8.3583    1.7380    8.0099 H   0  0  0  0  0  0  0  0  0  0  0  0
    6.5614    1.9177    8.0373 H   0  0  0  0  0  0  0  0  0  0  0  0
    0.1493   -9.3101   12.8917 H   0  0  0  0  0  0  0  0  0  0  0  0
   -0.6991   -9.1466   14.4650 H   0  0  0  0  0  0  0  0  0  0  0  0
   -2.6678   -8.1015   13.2888 H   0  0  0  0  0  0  0  0  0  0  0  0
   -2.2957   -9.7481   12.6521 H   0  0  0  0  0  0  0  0  0  0  0  0
   -1.8024   -8.2937   11.7073 H   0  0  0  0  0  0  0  0  0  0  0  0
   -0.3121   -4.2410   10.8530 H   0  0  0  0  0  0  0  0  0  0  0  0
   -4.4585   -3.1080    6.5499 H   0  0  0  0  0  0  0  0  0  0  0  0
   -5.4890   -3.2666    4.0244 H   0  0  0  0  0  0  0  0  0  0  0  0
    0.0246   -3.1211    4.2795 H   0  0  0  0  0  0  0  0  0  0  0  0
    1.0549   -2.8044    6.7573 H   0  0  0  0  0  0  0  0  0  0  0  0
   -6.5713   -2.3027    1.8066 H   0  0  0  0  0  0  0  0  0  0  0  0
  -11.1332    1.4024    2.5560 H   0  0  0  0  0  0  0  0  0  0  0  0
  -10.2213    2.4016    1.3765 H   0  0  0  0  0  0  0  0  0  0  0  0
  -12.6810    2.4739    0.9424 H   0  0  0  0  0  0  0  0  0  0  0  0
  -12.7058    0.6871    0.7057 H   0  0  0  0  0  0  0  0  0  0  0  0
  -11.7908    1.7429   -0.4480 H   0  0  0  0  0  0  0  0  0  0  0  0
   -1.1025   -6.4122   -5.1952 H   0  0  0  0  0  0  0  0  0  0  0  0
   -2.3294   -7.5404   -4.5300 H   0  0  0  0  0  0  0  0  0  0  0  0
   -2.1409   -7.8210   -6.9824 H   0  0  0  0  0  0  0  0  0  0  0  0
   -2.5050   -6.0740   -7.2439 H   0  0  0  0  0  0  0  0  0  0  0  0
   -3.7737   -7.1769   -6.5596 H   0  0  0  0  0  0  0  0  0  0  0  0
   -6.1168   -2.6304   -5.2290 H   0  0  0  0  0  0  0  0  0  0  0  0
   -6.3009   -1.4251   -7.1463 H   0  0  0  0  0  0  0  0  0  0  0  0
   -2.4388   -4.4991   -9.5743 H   0  0  0  0  0  0  0  0  0  0  0  0
   -1.2995   -3.5720   -8.5486 H   0  0  0  0  0  0  0  0  0  0  0  0
   -1.6430   -3.1580  -11.5885 H   0  0  0  0  0  0  0  0  0  0  0  0
   -0.4436   -2.3297  -10.5092 H   0  0  0  0  0  0  0  0  0  0  0  0
   -0.3351   -4.1101  -10.7910 H   0  0  0  0  0  0  0  0  0  0  0  0
   -8.1122    8.2056   -4.2968 H   0  0  0  0  0  0  0  0  0  0  0  0
   -8.9395    7.7606   -5.8291 H   0  0  0  0  0  0  0  0  0  0  0  0
   -9.5072    6.5258   -3.0537 H   0  0  0  0  0  0  0  0  0  0  0  0
  -10.3271    6.0681   -4.6047 H   0  0  0  0  0  0  0  0  0  0  0  0
  -10.5349    7.7276   -3.9305 H   0  0  0  0  0  0  0  0  0  0  0  0
   -3.7821    5.0351   -6.5672 H   0  0  0  0  0  0  0  0  0  0  0  0
   -1.7313    4.5378   -5.1446 H   0  0  0  0  0  0  0  0  0  0  0  0
   -3.0790    4.3309    0.4351 H   0  0  0  0  0  0  0  0  0  0  0  0
   -2.1629    2.7867    0.4120 H   0  0  0  0  0  0  0  0  0  0  0  0
   -0.1925    3.9474    1.4858 H   0  0  0  0  0  0  0  0  0  0  0  0
   -1.6856    4.0155    2.4987 H   0  0  0  0  0  0  0  0  0  0  0  0
   -1.1684    5.4734    1.5702 H   0  0  0  0  0  0  0  0  0  0  0  0
    5.5512    3.2901  -11.6356 H   0  0  0  0  0  0  0  0  0  0  0  0
    4.2042    2.1030  -11.5637 H   0  0  0  0  0  0  0  0  0  0  0  0
    7.0163    1.7139  -10.3434 H   0  0  0  0  0  0  0  0  0  0  0  0
    6.3819    0.9425  -11.8465 H   0  0  0  0  0  0  0  0  0  0  0  0
    5.6457    0.5259  -10.2489 H   0  0  0  0  0  0  0  0  0  0  0  0
    5.0102    2.5452   -5.3609 H   0  0  0  0  0  0  0  0  0  0  0  0
    6.1920    0.7583   -4.2890 H   0  0  0  0  0  0  0  0  0  0  0  0
   10.0018   -0.4017   -7.7881 H   0  0  0  0  0  0  0  0  0  0  0  0
    9.6266   -2.0958   -8.2662 H   0  0  0  0  0  0  0  0  0  0  0  0
    8.3593   -0.4824   -9.6756 H   0  0  0  0  0  0  0  0  0  0  0  0
    7.2121   -1.4246   -8.6475 H   0  0  0  0  0  0  0  0  0  0  0  0
    7.6452    0.2762   -8.2057 H   0  0  0  0  0  0  0  0  0  0  0  0
    3.9727    0.6848    4.7115 H   0  0  0  0  0  0  0  0  0  0  0  0
    5.3532    1.2928    5.6867 H   0  0  0  0  0  0  0  0  0  0  0  0
    4.7009   -1.6680    5.0794 H   0  0  0  0  0  0  0  0  0  0  0  0
    4.5051   -0.8098    6.6578 H   0  0  0  0  0  0  0  0  0  0  0  0
    6.1573   -1.0961    5.9917 H   0  0  0  0  0  0  0  0  0  0  0  0
    8.6302   -2.0644    1.7860 H   0  0  0  0  0  0  0  0  0  0  0  0
   10.1264   -3.8444    0.6158 H   0  0  0  0  0  0  0  0  0  0  0  0
  1  2  2  0
  2  3  1  0
  3  4  2  0
  4  5  1  0
  5  6  1  0
  6  7  1  0
  7  8  1  0
  8  9  1  0
  7 10  2  0
 10 11  1  0
 10 12  1  0
 12 13  1  0
  4 14  1  0
 14 15  2  0
 15 16  1  0
 16 17  1  0
 17 18  1  0
 18 19  1  0
 19 20  1  0
 20 21  1  0
 19 22  2  0
 22 23  1  0
 23 24  1  0
 22 25  1  0
 16 26  2  0
 26 27  1  0
 15 28  1  0
 28 29  2  0
 29 30  1  0
 29 31  1  0
 31 32  1  0
 32 33  1  0
 33 34  2  0
 34 35  1  0
 35 36  1  0
 36 37  2  0
 37 38  1  0
 38 39  1  0
 39 40  1  0
 40 41  2  0
 41 42  1  0
 37 43  1  0
 43 44  2  0
 44 45  1  0
 45 46  2  0
 46 47  1  0
 47 48  1  0
 48 49  1  0
 49 50  1  0
 50 51  1  0
 49 52  2  0
 52 53  1  0
 52 54  1  0
 54 55  1  0
 46 56  1  0
 56 57  2  0
 57 58  1  0
 58 59  1  0
 59 60  1  0
 60 61  1  0
 61 62  1  0
 62 63  1  0
 61 64  2  0
 64 65  1  0
 65 66  1  0
 64 67  1  0
 58 68  2  0
 68 69  1  0
 57 70  1  0
 70 71  2  0
 71 72  1  0
 71 73  1  0
 73 74  2  0
 74 75  1  0
 75 76  2  0
 76 77  1  0
 77 78  1  0
 78 79  1  0
 79 80  1  0
 80 81  1  0
 79 82  2  0
 82 83  1  0
 82 84  1  0
 84 85  1  0
 76 86  1  0
 86 87  2  0
 87 88  1  0
 88 89  1  0
 89 90  1  0
 90 91  1  0
 91 92  1  0
 92 93  1  0
 91 94  2  0
 94 95  1  0
 95 96  1  0
 94 97  1  0
 88 98  2  0
 98 99  1  0
 87100  1  0
100101  2  0
101102  1  0
101103  1  0
103104  2  0
104105  1  0
105106  2  0
106107  1  0
107108  1  0
108109  1  0
109110  1  0
110111  1  0
109112  2  0
112113  1  0
112114  1  0
114115  1  0
106116  1  0
116117  2  0
117118  1  0
118119  1  0
119120  1  0
120121  1  0
121122  1  0
122123  1  0
121124  2  0
124125  1  0
125126  1  0
124127  1  0
118128  2  0
128129  1  0
117130  1  0
130131  2  0
131132  1  0
131133  1  0
133134  2  0
134135  1  0
135136  2  0
136137  1  0
137138  1  0
138139  1  0
139140  1  0
140141  1  0
139142  2  0
142143  1  0
142144  1  0
144145  1  0
136146  1  0
146147  2  0
147148  1  0
148149  1  0
149150  1  0
150151  1  0
151152  1  0
152153  1  0
151154  2  0
154155  1  0
155156  1  0
154157  1  0
148158  2  0
158159  1  0
147160  1  0
160161  2  0
161162  1  0
 27  1  1  0
 42 31  2  0
 69 43  1  0
 99 73  1  0
129103  1  0
159133  1  0
 26  3  1  0
 41 33  1  0
 68 45  1  0
 98 75  1  0
128105  1  0
158135  1  0
 12  5  2  0
 30 14  1  0
 39 35  2  0
 54 47  2  0
 72 56  1  0
 84 77  2  0
102 86  1  0
114107  2  0
132116  1  0
144137  2  0
162146  1  0
 23 17  2  0
 65 59  2  0
 95 89  2  0
125119  2  0
155149  2  0
  1163  1  0
  2164  1  0
  8165  1  0
  8166  1  0
  9167  1  0
  9168  1  0
  9169  1  0
 20170  1  0
 20171  1  0
 21172  1  0
 21173  1  0
 21174  1  0
 28175  1  0
 34176  1  0
 36177  1  0
 40178  1  0
 42179  1  0
 44180  1  0
 50181  1  0
 50182  1  0
 51183  1  0
 51184  1  0
 51185  1  0
 62186  1  0
 62187  1  0
 63188  1  0
 63189  1  0
 63190  1  0
 70191  1  0
 74192  1  0
 80193  1  0
 80194  1  0
 81195  1  0
 81196  1  0
 81197  1  0
 92198  1  0
 92199  1  0
 93200  1  0
 93201  1  0
 93202  1  0
100203  1  0
104204  1  0
110205  1  0
110206  1  0
111207  1  0
111208  1  0
111209  1  0
122210  1  0
122211  1  0
123212  1  0
123213  1  0
123214  1  0
130215  1  0
134216  1  0
140217  1  0
140218  1  0
141219  1  0
141220  1  0
141221  1  0
152222  1  0
152223  1  0
153224  1  0
153225  1  0
153226  1  0
160227  1  0
161228  1  0
M  END

