
     RDKit          3D

254283  0  0  0  0  0  0  0  0999 V2000
    2.2247  -12.1674    3.0221 C   0  0  0  0  0  0  0  0  0  0  0  0
    3.0003  -11.6040    2.0182 C   0  0  0  0  0  0  0  0  0  0  0  0
    2.2501  -10.8607    1.0900 C   0  0  0  0  0  0  0  0  0  0  0  0
    2.7506  -10.1825   -0.0380 C   0  0  0  0  0  0  0  0  0  0  0  0
    4.2004  -10.0486   -0.2920 C   0  0  0  0  0  0  0  0  0  0  0  0
    5.0011  -10.5950   -1.6656 S   0  0  0  0  0  0  0  0  0  0  0  0
    6.5185  -10.0068   -1.2331 C   0  0  0  0  0  0  0  0  0  0  0  0
    7.7485  -10.1022   -2.0833 C   0  0  0  0  0  0  0  0  0  0  0  0
    7.9084   -8.8487   -2.9390 C   0  0  0  0  0  0  0  0  0  0  0  0
    6.4059   -9.3477   -0.0117 C   0  0  0  0  0  0  0  0  0  0  0  0
    7.7418   -8.5119    0.7625 Cl  0  0  0  0  0  0  0  0  0  0  0  0
    5.1106   -9.3754    0.5224 C   0  0  0  0  0  0  0  0  0  0  0  0
    4.6574   -8.5598    2.0121 Cl  0  0  0  0  0  0  0  0  0  0  0  0
    1.8159   -9.5321   -0.8531 C   0  0  0  0  0  0  0  0  0  0  0  0
    0.4489   -9.4942   -0.5700 C   0  0  0  0  0  0  0  0  0  0  0  0
   -0.0496  -10.1595    0.5762 C   0  0  0  0  0  0  0  0  0  0  0  0
   -1.4726  -10.1008    0.9727 C   0  0  0  0  0  0  0  0  0  0  0  0
   -2.0142   -9.5787    2.4747 S   0  0  0  0  0  0  0  0  0  0  0  0
   -3.6435   -9.8975    2.2117 C   0  0  0  0  0  0  0  0  0  0  0  0
   -4.7061   -9.7670    3.2582 C   0  0  0  0  0  0  0  0  0  0  0  0
   -4.8318  -11.0660    4.0525 C   0  0  0  0  0  0  0  0  0  0  0  0
   -3.7847  -10.4414    0.9315 C   0  0  0  0  0  0  0  0  0  0  0  0
   -2.5665  -10.5499    0.2365 C   0  0  0  0  0  0  0  0  0  0  0  0
   -2.4321  -11.2918   -1.3519 Cl  0  0  0  0  0  0  0  0  0  0  0  0
   -5.3194  -10.9856    0.2775 Cl  0  0  0  0  0  0  0  0  0  0  0  0
    0.8818  -10.8461    1.3702 C   0  0  0  0  0  0  0  0  0  0  0  0
    0.6142  -11.7551    2.7615 S   0  0  0  0  0  0  0  0  0  0  0  0
   -0.2824   -8.6859   -1.4683 C   0  0  0  0  0  0  0  0  0  0  0  0
    0.5168   -8.1224   -2.4608 C   0  0  0  0  0  0  0  0  0  0  0  0
    2.1173   -8.5978   -2.2104 S   0  0  0  0  0  0  0  0  0  0  0  0
    0.1124   -7.1165   -3.4547 C   0  0  0  0  0  0  0  0  0  0  0  0
    1.0147   -6.4319   -4.2474 C   0  0  0  0  0  0  0  0  0  0  0  0
    0.4472   -5.3373   -4.9104 C   0  0  0  0  0  0  0  0  0  0  0  0
    1.1670   -4.3787   -5.6392 C   0  0  0  0  0  0  0  0  0  0  0  0
    2.6301   -4.4090   -5.6661 C   0  0  0  0  0  0  0  0  0  0  0  0
    3.5620   -5.2731   -6.7622 S   0  0  0  0  0  0  0  0  0  0  0  0
    5.0473   -4.8492   -6.0848 C   0  0  0  0  0  0  0  0  0  0  0  0
    6.3689   -5.3603   -6.5630 C   0  0  0  0  0  0  0  0  0  0  0  0
    6.7394   -6.6343   -5.8181 C   0  0  0  0  0  0  0  0  0  0  0  0
    4.8242   -4.0399   -4.9728 C   0  0  0  0  0  0  0  0  0  0  0  0
    6.0902   -3.4101   -3.9345 Cl  0  0  0  0  0  0  0  0  0  0  0  0
    3.4632   -3.7824   -4.7509 C   0  0  0  0  0  0  0  0  0  0  0  0
    2.8570   -2.8508   -3.3930 Cl  0  0  0  0  0  0  0  0  0  0  0  0
    0.4698   -3.2479   -6.0691 C   0  0  0  0  0  0  0  0  0  0  0  0
   -0.8864   -3.0443   -5.8088 C   0  0  0  0  0  0  0  0  0  0  0  0
   -1.6416   -4.0542   -5.1472 C   0  0  0  0  0  0  0  0  0  0  0  0
   -3.1092   -3.9720   -4.9952 C   0  0  0  0  0  0  0  0  0  0  0  0
   -3.9800   -4.3339   -3.5964 S   0  0  0  0  0  0  0  0  0  0  0  0
   -5.5066   -4.3140   -4.3022 C   0  0  0  0  0  0  0  0  0  0  0  0
   -6.7875   -4.6507   -3.5992 C   0  0  0  0  0  0  0  0  0  0  0  0
   -7.5358   -3.3902   -3.1968 C   0  0  0  0  0  0  0  0  0  0  0  0
   -5.3630   -4.0016   -5.6486 C   0  0  0  0  0  0  0  0  0  0  0  0
   -4.0248   -3.8173   -6.0451 C   0  0  0  0  0  0  0  0  0  0  0  0
   -3.5636   -3.5621   -7.7213 Cl  0  0  0  0  0  0  0  0  0  0  0  0
   -6.7093   -3.9485   -6.7757 Cl  0  0  0  0  0  0  0  0  0  0  0  0
   -0.9210   -5.1784   -4.6785 C   0  0  0  0  0  0  0  0  0  0  0  0
   -1.4092   -6.4049   -3.6226 S   0  0  0  0  0  0  0  0  0  0  0  0
   -1.2993   -1.7250   -6.1025 C   0  0  0  0  0  0  0  0  0  0  0  0
   -0.2529   -0.9122   -6.5777 C   0  0  0  0  0  0  0  0  0  0  0  0
    1.1481   -1.8454   -6.6781 S   0  0  0  0  0  0  0  0  0  0  0  0
   -0.2069    0.5580   -6.5722 C   0  0  0  0  0  0  0  0  0  0  0  0
    0.9636    1.2829   -6.3660 C   0  0  0  0  0  0  0  0  0  0  0  0
    0.7424    2.6313   -6.0590 C   0  0  0  0  0  0  0  0  0  0  0  0
    1.7366    3.5595   -5.6661 C   0  0  0  0  0  0  0  0  0  0  0  0
    3.1680    3.2047   -5.6234 C   0  0  0  0  0  0  0  0  0  0  0  0
    4.1445    3.2905   -4.2533 S   0  0  0  0  0  0  0  0  0  0  0  0
    5.5721    2.8288   -5.0122 C   0  0  0  0  0  0  0  0  0  0  0  0
    6.9185    2.8260   -4.3561 C   0  0  0  0  0  0  0  0  0  0  0  0
    7.6399    4.1501   -4.5894 C   0  0  0  0  0  0  0  0  0  0  0  0
    5.3058    2.6086   -6.3648 C   0  0  0  0  0  0  0  0  0  0  0  0
    6.5433    2.1697   -7.5302 Cl  0  0  0  0  0  0  0  0  0  0  0  0
    3.9601    2.8195   -6.7062 C   0  0  0  0  0  0  0  0  0  0  0  0
    3.3576    2.6992   -8.3511 Cl  0  0  0  0  0  0  0  0  0  0  0  0
    1.2911    4.8144   -5.2313 C   0  0  0  0  0  0  0  0  0  0  0  0
   -0.0591    5.1630   -5.1938 C   0  0  0  0  0  0  0  0  0  0  0  0
   -1.0534    4.2501   -5.6183 C   0  0  0  0  0  0  0  0  0  0  0  0
   -2.4760    4.6288   -5.6094 C   0  0  0  0  0  0  0  0  0  0  0  0
   -3.1112    5.9334   -6.4659 S   0  0  0  0  0  0  0  0  0  0  0  0
   -4.7167    5.6908   -6.0313 C   0  0  0  0  0  0  0  0  0  0  0  0
   -5.8709    6.4719   -6.5748 C   0  0  0  0  0  0  0  0  0  0  0  0
   -6.2315    5.9894   -7.9766 C   0  0  0  0  0  0  0  0  0  0  0  0
   -4.7847    4.5395   -5.2400 C   0  0  0  0  0  0  0  0  0  0  0  0
   -3.5326    3.9578   -4.9845 C   0  0  0  0  0  0  0  0  0  0  0  0
   -3.3268    2.5746   -3.9155 Cl  0  0  0  0  0  0  0  0  0  0  0  0
   -6.2885    3.8662   -4.6334 Cl  0  0  0  0  0  0  0  0  0  0  0  0
   -0.6107    2.9831   -6.0475 C   0  0  0  0  0  0  0  0  0  0  0  0
   -1.5206    1.6163   -6.4290 S   0  0  0  0  0  0  0  0  0  0  0  0
   -0.2888    6.4049   -4.5768 C   0  0  0  0  0  0  0  0  0  0  0  0
    0.8765    7.0155   -4.0887 C   0  0  0  0  0  0  0  0  0  0  0  0
    2.1846    6.0370   -4.5018 S   0  0  0  0  0  0  0  0  0  0  0  0
    0.9073    8.0006   -2.9833 C   0  0  0  0  0  0  0  0  0  0  0  0
   -0.2245    8.3313   -2.2524 C   0  0  0  0  0  0  0  0  0  0  0  0
    0.0403    8.6566   -0.9146 C   0  0  0  0  0  0  0  0  0  0  0  0
   -0.9310    8.6591    0.1088 C   0  0  0  0  0  0  0  0  0  0  0  0
   -2.2562    8.0957   -0.1814 C   0  0  0  0  0  0  0  0  0  0  0  0
   -3.4469    8.8806   -1.0670 S   0  0  0  0  0  0  0  0  0  0  0  0
   -4.2885    7.5056   -1.5688 C   0  0  0  0  0  0  0  0  0  0  0  0
   -5.2279    7.4764   -2.7382 C   0  0  0  0  0  0  0  0  0  0  0  0
   -6.4011    8.4298   -2.5602 C   0  0  0  0  0  0  0  0  0  0  0  0
   -3.6222    6.3992   -1.0401 C   0  0  0  0  0  0  0  0  0  0  0  0
   -4.1124    4.7337   -1.3428 Cl  0  0  0  0  0  0  0  0  0  0  0  0
   -2.4858    6.7224   -0.2852 C   0  0  0  0  0  0  0  0  0  0  0  0
   -1.2817    5.5207    0.1645 Cl  0  0  0  0  0  0  0  0  0  0  0  0
   -0.4602    8.6978    1.4307 C   0  0  0  0  0  0  0  0  0  0  0  0
    0.9055    8.6824    1.7485 C   0  0  0  0  0  0  0  0  0  0  0  0
    1.8801    8.7319    0.7197 C   0  0  0  0  0  0  0  0  0  0  0  0
    3.3323    8.6628    1.0211 C   0  0  0  0  0  0  0  0  0  0  0  0
    4.4225    7.5444    0.3783 S   0  0  0  0  0  0  0  0  0  0  0  0
    5.7950    8.1588    1.1177 C   0  0  0  0  0  0  0  0  0  0  0  0
    7.1959    7.6813    0.8552 C   0  0  0  0  0  0  0  0  0  0  0  0
    7.8217    8.4888   -0.2796 C   0  0  0  0  0  0  0  0  0  0  0  0
    5.4281    9.2748    1.8693 C   0  0  0  0  0  0  0  0  0  0  0  0
    4.0501    9.5521    1.8242 C   0  0  0  0  0  0  0  0  0  0  0  0
    3.3359   10.9343    2.6291 Cl  0  0  0  0  0  0  0  0  0  0  0  0
    6.5822   10.2650    2.7414 Cl  0  0  0  0  0  0  0  0  0  0  0  0
    1.4030    8.7007   -0.6049 C   0  0  0  0  0  0  0  0  0  0  0  0
    2.2521    8.2562   -1.9939 S   0  0  0  0  0  0  0  0  0  0  0  0
    1.1491    8.3408    3.0970 C   0  0  0  0  0  0  0  0  0  0  0  0
   -0.0144    8.0627    3.8215 C   0  0  0  0  0  0  0  0  0  0  0  0
   -1.3346    8.3040    2.8066 S   0  0  0  0  0  0  0  0  0  0  0  0
   -0.1079    7.1631    4.9921 C   0  0  0  0  0  0  0  0  0  0  0  0
    0.8718    6.2096    5.3014 C   0  0  0  0  0  0  0  0  0  0  0  0
    0.3562    5.0433    5.8920 C   0  0  0  0  0  0  0  0  0  0  0  0
    1.0440    3.8231    6.0246 C   0  0  0  0  0  0  0  0  0  0  0  0
    2.5184    3.7710    6.0695 C   0  0  0  0  0  0  0  0  0  0  0  0
    3.5100    2.7346    5.1819 S   0  0  0  0  0  0  0  0  0  0  0  0
    4.9520    3.1839    5.9253 C   0  0  0  0  0  0  0  0  0  0  0  0
    6.2867    2.5496    5.6696 C   0  0  0  0  0  0  0  0  0  0  0  0
    6.4896    1.3418    6.5788 C   0  0  0  0  0  0  0  0  0  0  0  0
    4.6723    4.1282    6.9092 C   0  0  0  0  0  0  0  0  0  0  0  0
    5.8924    4.8033    7.9764 Cl  0  0  0  0  0  0  0  0  0  0  0  0
    3.3129    4.4667    6.9832 C   0  0  0  0  0  0  0  0  0  0  0  0
    2.6735    5.5707    8.1883 Cl  0  0  0  0  0  0  0  0  0  0  0  0
    0.2573    2.6629    6.1624 C   0  0  0  0  0  0  0  0  0  0  0  0
   -1.1339    2.7044    6.3276 C   0  0  0  0  0  0  0  0  0  0  0  0
   -1.7864    3.9595    6.4281 C   0  0  0  0  0  0  0  0  0  0  0  0
   -3.1943    4.1074    6.8537 C   0  0  0  0  0  0  0  0  0  0  0  0
   -4.5529    3.3583    6.1862 S   0  0  0  0  0  0  0  0  0  0  0  0
   -5.6730    4.0432    7.2365 C   0  0  0  0  0  0  0  0  0  0  0  0
   -7.1403    3.7453    7.2487 C   0  0  0  0  0  0  0  0  0  0  0  0
   -7.4734    2.6697    8.2822 C   0  0  0  0  0  0  0  0  0  0  0  0
   -4.9991    4.8712    8.1336 C   0  0  0  0  0  0  0  0  0  0  0  0
   -3.6126    4.9033    7.9188 C   0  0  0  0  0  0  0  0  0  0  0  0
   -2.5195    5.8047    8.9626 Cl  0  0  0  0  0  0  0  0  0  0  0  0
   -5.7914    5.7391    9.4328 Cl  0  0  0  0  0  0  0  0  0  0  0  0
   -1.0162    5.0963    6.1193 C   0  0  0  0  0  0  0  0  0  0  0  0
   -1.5875    6.5841    5.5759 S   0  0  0  0  0  0  0  0  0  0  0  0
   -1.7389    1.4281    6.2502 C   0  0  0  0  0  0  0  0  0  0  0  0
   -0.8297    0.4189    5.9352 C   0  0  0  0  0  0  0  0  0  0  0  0
    0.7162    1.0817    5.8725 S   0  0  0  0  0  0  0  0  0  0  0  0
   -1.1773   -0.8470    5.2732 C   0  0  0  0  0  0  0  0  0  0  0  0
   -0.4882   -1.3503    4.1708 C   0  0  0  0  0  0  0  0  0  0  0  0
   -1.0880   -2.4813    3.6024 C   0  0  0  0  0  0  0  0  0  0  0  0
   -0.6579   -3.1505    2.4373 C   0  0  0  0  0  0  0  0  0  0  0  0
    0.4170   -2.6095    1.5892 C   0  0  0  0  0  0  0  0  0  0  0  0
    1.9240   -3.3187    1.3478 S   0  0  0  0  0  0  0  0  0  0  0  0
    2.5199   -2.1181    0.3293 C   0  0  0  0  0  0  0  0  0  0  0  0
    3.9313   -2.0443   -0.1652 C   0  0  0  0  0  0  0  0  0  0  0  0
    4.8164   -1.3337    0.8512 C   0  0  0  0  0  0  0  0  0  0  0  0
    1.5396   -1.1423    0.1688 C   0  0  0  0  0  0  0  0  0  0  0  0
    1.7630    0.3009   -0.8081 Cl  0  0  0  0  0  0  0  0  0  0  0  0
    0.3605   -1.4163    0.8745 C   0  0  0  0  0  0  0  0  0  0  0  0
   -1.0540   -0.3710    0.8540 Cl  0  0  0  0  0  0  0  0  0  0  0  0
   -1.3933   -4.2771    2.0445 C   0  0  0  0  0  0  0  0  0  0  0  0
   -2.5327   -4.7090    2.7271 C   0  0  0  0  0  0  0  0  0  0  0  0
   -2.9976   -4.0045    3.8588 C   0  0  0  0  0  0  0  0  0  0  0  0
   -4.2757   -4.3525    4.5023 C   0  0  0  0  0  0  0  0  0  0  0  0
   -5.7669   -4.3552    3.7241 S   0  0  0  0  0  0  0  0  0  0  0  0
   -6.6675   -4.8911    5.0369 C   0  0  0  0  0  0  0  0  0  0  0  0
   -8.1330   -5.2125    4.9897 C   0  0  0  0  0  0  0  0  0  0  0  0
   -8.3505   -6.6919    4.6899 C   0  0  0  0  0  0  0  0  0  0  0  0
   -5.8020   -5.0959    6.1130 C   0  0  0  0  0  0  0  0  0  0  0  0
   -4.4647   -4.7896    5.8125 C   0  0  0  0  0  0  0  0  0  0  0  0
   -3.1488   -5.0094    6.9574 Cl  0  0  0  0  0  0  0  0  0  0  0  0
   -6.3282   -5.7037    7.6764 Cl  0  0  0  0  0  0  0  0  0  0  0  0
   -2.2375   -2.8959    4.2814 C   0  0  0  0  0  0  0  0  0  0  0  0
   -2.5432   -1.8080    5.5378 S   0  0  0  0  0  0  0  0  0  0  0  0
   -3.1248   -5.8453    2.1472 C   0  0  0  0  0  0  0  0  0  0  0  0
   -2.4612   -6.2835    1.0043 C   0  0  0  0  0  0  0  0  0  0  0  0
   -1.1423   -5.2738    0.7143 S   0  0  0  0  0  0  0  0  0  0  0  0
    2.6054  -12.7750    3.8350 H   0  0  0  0  0  0  0  0  0  0  0  0
    4.0676  -11.7294    1.9627 H   0  0  0  0  0  0  0  0  0  0  0  0
    8.6479  -10.2363   -1.4402 H   0  0  0  0  0  0  0  0  0  0  0  0
    7.6734  -10.9891   -2.7452 H   0  0  0  0  0  0  0  0  0  0  0  0
    8.0387   -7.9563   -2.2923 H   0  0  0  0  0  0  0  0  0  0  0  0
    7.0154   -8.7060   -3.5857 H   0  0  0  0  0  0  0  0  0  0  0  0
    8.8056   -8.9502   -3.5882 H   0  0  0  0  0  0  0  0  0  0  0  0
   -5.6790   -9.5214    2.7824 H   0  0  0  0  0  0  0  0  0  0  0  0
   -4.4428   -8.9393    3.9485 H   0  0  0  0  0  0  0  0  0  0  0  0
   -3.8491  -11.3572    4.4798 H   0  0  0  0  0  0  0  0  0  0  0  0
   -5.2087  -11.8834    3.3996 H   0  0  0  0  0  0  0  0  0  0  0  0
   -5.5442  -10.9223    4.8887 H   0  0  0  0  0  0  0  0  0  0  0  0
   -1.3360   -8.4793   -1.3751 H   0  0  0  0  0  0  0  0  0  0  0  0
    2.0686   -6.6575   -4.2779 H   0  0  0  0  0  0  0  0  0  0  0  0
    7.1579   -4.5912   -6.4123 H   0  0  0  0  0  0  0  0  0  0  0  0
    6.3135   -5.5811   -7.6498 H   0  0  0  0  0  0  0  0  0  0  0  0
    5.9632   -7.4125   -5.9772 H   0  0  0  0  0  0  0  0  0  0  0  0
    7.7169   -7.0119   -6.1905 H   0  0  0  0  0  0  0  0  0  0  0  0
    6.8240   -6.4345   -4.7288 H   0  0  0  0  0  0  0  0  0  0  0  0
   -6.5715   -5.2483   -2.6866 H   0  0  0  0  0  0  0  0  0  0  0  0
   -7.4289   -5.2639   -4.2713 H   0  0  0  0  0  0  0  0  0  0  0  0
   -8.4935   -3.6618   -2.7098 H   0  0  0  0  0  0  0  0  0  0  0  0
   -6.9174   -2.7895   -2.4911 H   0  0  0  0  0  0  0  0  0  0  0  0
   -7.7630   -2.7718   -4.0920 H   0  0  0  0  0  0  0  0  0  0  0  0
   -2.2783   -1.3418   -5.8572 H   0  0  0  0  0  0  0  0  0  0  0  0
    1.9441    0.8298   -6.3234 H   0  0  0  0  0  0  0  0  0  0  0  0
    7.5312    1.9894   -4.7528 H   0  0  0  0  0  0  0  0  0  0  0  0
    6.7976    2.6662   -3.2615 H   0  0  0  0  0  0  0  0  0  0  0  0
    7.8313    4.2957   -5.6727 H   0  0  0  0  0  0  0  0  0  0  0  0
    8.6077    4.1471   -4.0475 H   0  0  0  0  0  0  0  0  0  0  0  0
    7.0233    4.9982   -4.2148 H   0  0  0  0  0  0  0  0  0  0  0  0
   -5.6080    7.5509   -6.6178 H   0  0  0  0  0  0  0  0  0  0  0  0
   -6.7552    6.3635   -5.9093 H   0  0  0  0  0  0  0  0  0  0  0  0
   -7.1643    6.4830   -8.3181 H   0  0  0  0  0  0  0  0  0  0  0  0
   -5.4229    6.2457   -8.6881 H   0  0  0  0  0  0  0  0  0  0  0  0
   -6.3937    4.8921   -7.9865 H   0  0  0  0  0  0  0  0  0  0  0  0
   -1.2794    6.7673   -4.3619 H   0  0  0  0  0  0  0  0  0  0  0  0
   -1.2109    8.1722   -2.6337 H   0  0  0  0  0  0  0  0  0  0  0  0
   -4.6672    7.7561   -3.6546 H   0  0  0  0  0  0  0  0  0  0  0  0
   -5.6349    6.4524   -2.8849 H   0  0  0  0  0  0  0  0  0  0  0  0
   -6.0506    9.4533   -2.3182 H   0  0  0  0  0  0  0  0  0  0  0  0
   -6.9569    8.4825   -3.5164 H   0  0  0  0  0  0  0  0  0  0  0  0
   -7.0670    8.0555   -1.7565 H   0  0  0  0  0  0  0  0  0  0  0  0
    7.8110    7.7944    1.7704 H   0  0  0  0  0  0  0  0  0  0  0  0
    7.1815    6.6071    0.5638 H   0  0  0  0  0  0  0  0  0  0  0  0
    7.2182    8.3953   -1.2158 H   0  0  0  0  0  0  0  0  0  0  0  0
    8.8543    8.1306   -0.4864 H   0  0  0  0  0  0  0  0  0  0  0  0
    7.8770    9.5631    0.0083 H   0  0  0  0  0  0  0  0  0  0  0  0
    2.1374    8.1477    3.4872 H   0  0  0  0  0  0  0  0  0  0  0  0
    1.8879    6.2681    4.9342 H   0  0  0  0  0  0  0  0  0  0  0  0
    6.3480    2.2245    4.6060 H   0  0  0  0  0  0  0  0  0  0  0  0
    7.0984    3.2930    5.8394 H   0  0  0  0  0  0  0  0  0  0  0  0
    6.2553    1.5944    7.6358 H   0  0  0  0  0  0  0  0  0  0  0  0
    5.8319    0.5112    6.2510 H   0  0  0  0  0  0  0  0  0  0  0  0
    7.5431    1.0050    6.5175 H   0  0  0  0  0  0  0  0  0  0  0  0
   -7.4539    3.3901    6.2451 H   0  0  0  0  0  0  0  0  0  0  0  0
   -7.7190    4.6699    7.4716 H   0  0  0  0  0  0  0  0  0  0  0  0
   -8.5718    2.4935    8.3029 H   0  0  0  0  0  0  0  0  0  0  0  0
   -6.9676    1.7165    8.0160 H   0  0  0  0  0  0  0  0  0  0  0  0
   -7.1470    2.9848    9.2976 H   0  0  0  0  0  0  0  0  0  0  0  0
   -2.7973    1.2703    6.2512 H   0  0  0  0  0  0  0  0  0  0  0  0
    0.4019   -0.8883    3.7647 H   0  0  0  0  0  0  0  0  0  0  0  0
    4.3183   -3.0715   -0.3454 H   0  0  0  0  0  0  0  0  0  0  0  0
    3.9724   -1.4929   -1.1276 H   0  0  0  0  0  0  0  0  0  0  0  0
    5.8623   -1.3144    0.4798 H   0  0  0  0  0  0  0  0  0  0  0  0
    4.4676   -0.2909    0.9993 H   0  0  0  0  0  0  0  0  0  0  0  0
    4.7927   -1.8681    1.8239 H   0  0  0  0  0  0  0  0  0  0  0  0
   -8.6167   -4.9464    5.9560 H   0  0  0  0  0  0  0  0  0  0  0  0
   -8.6144   -4.6093    4.1890 H   0  0  0  0  0  0  0  0  0  0  0  0
   -7.8665   -6.9695    3.7305 H   0  0  0  0  0  0  0  0  0  0  0  0
   -7.9185   -7.3161    5.5055 H   0  0  0  0  0  0  0  0  0  0  0  0
   -9.4372   -6.9046    4.6057 H   0  0  0  0  0  0  0  0  0  0  0  0
   -4.0027   -6.3412    2.5394 H   0  0  0  0  0  0  0  0  0  0  0  0
   -2.7548   -7.1320    0.3982 H   0  0  0  0  0  0  0  0  0  0  0  0
  1  2  2  0
  2  3  1  0
  3  4  2  0
  4  5  1  0
  5  6  1  0
  6  7  1  0
  7  8  1  0
  8  9  1  0
  7 10  2  0
 10 11  1  0
 10 12  1  0
 12 13  1  0
  4 14  1  0
 14 15  2  0
 15 16  1  0
 16 17  1  0
 17 18  1  0
 18 19  1  0
 19 20  1  0
 20 21  1  0
 19 22  2  0
 22 23  1  0
 23 24  1  0
 22 25  1  0
 16 26  2  0
 26 27  1  0
 15 28  1  0
 28 29  2  0
 29 30  1  0
 29 31  1  0
 31 32  2  0
 32 33  1  0
 33 34  2  0
 34 35  1  0
 35 36  1  0
 36 37  1  0
 37 38  1  0
 38 39  1  0
 37 40  2  0
 40 41  1  0
 40 42  1  0
 42 43  1  0
 34 44  1  0
 44 45  2  0
 45 46  1  0
 46 47  1  0
 47 48  1  0
 48 49  1  0
 49 50  1  0
 50 51  1  0
 49 52  2  0
 52 53  1  0
 53 54  1  0
 52 55  1  0
 46 56  2  0
 56 57  1  0
 45 58  1  0
 58 59  2  0
 59 60  1  0
 59 61  1  0
 61 62  2  0
 62 63  1  0
 63 64  2  0
 64 65  1  0
 65 66  1  0
 66 67  1  0
 67 68  1  0
 68 69  1  0
 67 70  2  0
 70 71  1  0
 70 72  1  0
 72 73  1  0
 64 74  1  0
 74 75  2  0
 75 76  1  0
 76 77  1  0
 77 78  1  0
 78 79  1  0
 79 80  1  0
 80 81  1  0
 79 82  2  0
 82 83  1  0
 83 84  1  0
 82 85  1  0
 76 86  2  0
 86 87  1  0
 75 88  1  0
 88 89  2  0
 89 90  1  0
 89 91  1  0
 91 92  2  0
 92 93  1  0
 93 94  2  0
 94 95  1  0
 95 96  1  0
 96 97  1  0
 97 98  1  0
 98 99  1  0
 97100  2  0
100101  1  0
100102  1  0
102103  1  0
 94104  1  0
104105  2  0
105106  1  0
106107  1  0
107108  1  0
108109  1  0
109110  1  0
110111  1  0
109112  2  0
112113  1  0
113114  1  0
112115  1  0
106116  2  0
116117  1  0
105118  1  0
118119  2  0
119120  1  0
119121  1  0
121122  2  0
122123  1  0
123124  2  0
124125  1  0
125126  1  0
126127  1  0
127128  1  0
128129  1  0
127130  2  0
130131  1  0
130132  1  0
132133  1  0
124134  1  0
134135  2  0
135136  1  0
136137  1  0
137138  1  0
138139  1  0
139140  1  0
140141  1  0
139142  2  0
142143  1  0
143144  1  0
142145  1  0
136146  2  0
146147  1  0
135148  1  0
148149  2  0
149150  1  0
149151  1  0
151152  2  0
152153  1  0
153154  2  0
154155  1  0
155156  1  0
156157  1  0
157158  1  0
158159  1  0
157160  2  0
160161  1  0
160162  1  0
162163  1  0
154164  1  0
164165  2  0
165166  1  0
166167  1  0
167168  1  0
168169  1  0
169170  1  0
170171  1  0
169172  2  0
172173  1  0
173174  1  0
172175  1  0
166176  2  0
176177  1  0
165178  1  0
178179  2  0
179180  1  0
 27  1  1  0
 57 31  1  0
 87 61  1  0
117 91  1  0
147121  1  0
177151  1  0
 26  3  1  0
 56 33  1  0
 86 63  1  0
116 93  1  0
146123  1  0
176153  1  0
 12  5  2  0
 30 14  1  0
 42 35  2  0
 60 44  1  0
 72 65  2  0
 90 74  1  0
102 95  2  0
120104  1  0
132125  2  0
150134  1  0
162155  2  0
180164  1  0
 23 17  2  0
 53 47  2  0
 83 77  2  0
113107  2  0
143137  2  0
173167  2  0
  1181  1  0
  2182  1  0
  8183  1  0
  8184  1  0
  9185  1  0
  9186  1  0
  9187  1  0
 20188  1  0
 20189  1  0
 21190  1  0
 21191  1  0
 21192  1  0
 28193  1  0
 32194  1  0
 38195  1  0
 38196  1  0
 39197  1  0
 39198  1  0
 39199  1  0
 50200  1  0
 50201  1  0
 51202  1  0
 51203  1  0
 51204  1  0
 58205  1  0
 62206  1  0
 68207  1  0
 68208  1  0
 69209  1  0
 69210  1  0
 69211  1  0
 80212  1  0
 80213  1  0
 81214  1  0
 81215  1  0
 81216  1  0
 88217  1  0
 92218  1  0
 98219  1  0
 98220  1  0
 99221  1  0
 99222  1  0
 99223  1  0
110224  1  0
110225  1  0
111226  1  0
111227  1  0
111228  1  0
118229  1  0
122230  1  0
128231  1  0
128232  1  0
129233  1  0
129234  1  0
129235  1  0
140236  1  0
140237  1  0
141238  1  0
141239  1  0
141240  1  0
148241  1  0
152242  1  0
158243  1  0
158244  1  0
159245  1  0
159246  1  0
159247  1  0
170248  1  0
170249  1  0
171250  1  0
171251  1  0
171252  1  0
178253  1  0
179254  1  0
M  END

