
     RDKit          3D

116125  0  0  0  0  0  0  0  0999 V2000
    3.6441   -3.8734    4.6119 C   0  0  0  0  0  0  0  0  0  0  0  0
    3.1200   -4.8795    5.8728 S   0  0  0  0  0  0  0  0  0  0  0  0
    3.1884   -3.7706    7.1557 C   0  0  0  0  0  0  0  0  0  0  0  0
    3.6177   -2.5946    6.5756 C   0  0  0  0  0  0  0  0  0  0  0  0
    3.8718   -2.6513    5.2146 C   0  0  0  0  0  0  0  0  0  0  0  0
    4.2751   -1.4256    4.7207 C   0  0  0  0  0  0  0  0  0  0  0  0
    4.3172   -0.4411    5.6632 C   0  0  0  0  0  0  0  0  0  0  0  0
    3.8764   -1.0291    7.1921 S   0  0  0  0  0  0  0  0  0  0  0  0
    4.6560    0.8194    5.1869 C   0  0  0  0  0  0  0  0  0  0  0  0
    4.8493    0.7833    3.7955 C   0  0  0  0  0  0  0  0  0  0  0  0
    4.6564   -0.8110    3.2144 S   0  0  0  0  0  0  0  0  0  0  0  0
    5.1166    1.9228    2.8983 C   0  0  0  0  0  0  0  0  0  0  0  0
    4.7281    3.1932    3.0918 C   0  0  0  0  0  0  0  0  0  0  0  0
    3.8971    3.6785    4.2077 C   0  0  0  0  0  0  0  0  0  0  0  0
    4.2510    5.0445    5.1469 S   0  0  0  0  0  0  0  0  0  0  0  0
    2.8463    5.0788    6.0952 C   0  0  0  0  0  0  0  0  0  0  0  0
    2.0829    4.0196    5.6458 C   0  0  0  0  0  0  0  0  0  0  0  0
    2.6301    3.2679    4.6136 C   0  0  0  0  0  0  0  0  0  0  0  0
    1.7482    2.2807    4.1999 C   0  0  0  0  0  0  0  0  0  0  0  0
    0.5732    2.2567    4.8974 C   0  0  0  0  0  0  0  0  0  0  0  0
    0.5303    3.4758    6.0745 S   0  0  0  0  0  0  0  0  0  0  0  0
   -0.3298    1.2716    4.5093 C   0  0  0  0  0  0  0  0  0  0  0  0
    0.2024    0.4944    3.4725 C   0  0  0  0  0  0  0  0  0  0  0  0
    1.7425    1.0802    3.0408 S   0  0  0  0  0  0  0  0  0  0  0  0
   -0.4857   -0.6366    2.8336 C   0  0  0  0  0  0  0  0  0  0  0  0
    0.1794   -1.5550    2.1227 C   0  0  0  0  0  0  0  0  0  0  0  0
   -0.5044   -2.6611    1.4268 C   0  0  0  0  0  0  0  0  0  0  0  0
   -2.1353   -3.0407    1.6068 S   0  0  0  0  0  0  0  0  0  0  0  0
   -2.1019   -4.4949    0.7832 C   0  0  0  0  0  0  0  0  0  0  0  0
   -3.2470   -5.2845    0.6203 O   0  0  0  0  0  0  0  0  0  0  0  0
   -3.2917   -6.5422   -0.0444 C   0  0  0  0  0  0  0  0  0  0  0  0
   -0.7921   -4.7266    0.3436 C   0  0  0  0  0  0  0  0  0  0  0  0
   -0.3194   -6.0087   -0.2168 C   0  0  0  0  0  0  0  0  0  0  0  0
   -0.2798   -6.1812   -1.4643 O   0  0  0  0  0  0  0  0  0  0  0  0
    0.2107   -7.0739    0.6850 C   0  0  0  0  0  0  0  0  0  0  0  0
    0.0920   -3.6585    0.6353 C   0  0  0  0  0  0  0  0  0  0  0  0
    1.5037   -3.7041    0.1775 C   0  0  0  0  0  0  0  0  0  0  0  0
    2.2469   -2.7289   -0.3747 C   0  0  0  0  0  0  0  0  0  0  0  0
    1.9618   -1.2838   -0.4900 C   0  0  0  0  0  0  0  0  0  0  0  0
    3.1709   -0.1672   -0.1593 S   0  0  0  0  0  0  0  0  0  0  0  0
    2.2403    1.2086   -0.2798 C   0  0  0  0  0  0  0  0  0  0  0  0
    2.7662    2.4837   -0.0285 O   0  0  0  0  0  0  0  0  0  0  0  0
    2.0013    3.6441    0.2710 C   0  0  0  0  0  0  0  0  0  0  0  0
    0.9341    0.8289   -0.6198 C   0  0  0  0  0  0  0  0  0  0  0  0
   -0.1587    1.7860   -0.8511 C   0  0  0  0  0  0  0  0  0  0  0  0
   -0.1055    2.5614   -1.8404 O   0  0  0  0  0  0  0  0  0  0  0  0
   -1.2864    1.9081    0.1244 C   0  0  0  0  0  0  0  0  0  0  0  0
    0.7845   -0.5744   -0.7948 C   0  0  0  0  0  0  0  0  0  0  0  0
   -0.4691   -1.1574   -1.3307 C   0  0  0  0  0  0  0  0  0  0  0  0
   -0.4976   -2.1644   -2.2122 C   0  0  0  0  0  0  0  0  0  0  0  0
   -1.7699   -2.6776   -2.7632 C   0  0  0  0  0  0  0  0  0  0  0  0
   -2.0692   -4.3087   -2.9957 S   0  0  0  0  0  0  0  0  0  0  0  0
   -3.6823   -4.1723   -3.4154 C   0  0  0  0  0  0  0  0  0  0  0  0
   -4.4821   -5.2917   -3.6840 O   0  0  0  0  0  0  0  0  0  0  0  0
   -5.8828   -5.2632   -3.9234 C   0  0  0  0  0  0  0  0  0  0  0  0
   -4.0261   -2.8124   -3.4233 C   0  0  0  0  0  0  0  0  0  0  0  0
   -5.3389   -2.2901   -3.8314 C   0  0  0  0  0  0  0  0  0  0  0  0
   -5.5994   -2.1511   -5.0560 O   0  0  0  0  0  0  0  0  0  0  0  0
   -6.3379   -1.8596   -2.8072 C   0  0  0  0  0  0  0  0  0  0  0  0
   -2.9421   -1.9678   -3.0842 C   0  0  0  0  0  0  0  0  0  0  0  0
   -3.0268   -0.4946   -3.2101 C   0  0  0  0  0  0  0  0  0  0  0  0
   -2.0615    0.2124   -3.8076 C   0  0  0  0  0  0  0  0  0  0  0  0
   -2.1549    1.6697   -4.0273 C   0  0  0  0  0  0  0  0  0  0  0  0
   -3.2726    2.6849   -3.2855 S   0  0  0  0  0  0  0  0  0  0  0  0
   -2.6210    4.1238   -3.8550 C   0  0  0  0  0  0  0  0  0  0  0  0
   -3.1081    5.4051   -3.5824 O   0  0  0  0  0  0  0  0  0  0  0  0
   -4.2904    5.6364   -2.8279 C   0  0  0  0  0  0  0  0  0  0  0  0
   -1.5177    3.8460   -4.6575 C   0  0  0  0  0  0  0  0  0  0  0  0
   -0.7497    4.9199   -5.3303 C   0  0  0  0  0  0  0  0  0  0  0  0
   -0.6042    6.0248   -4.7488 O   0  0  0  0  0  0  0  0  0  0  0  0
   -0.1598    4.7431   -6.6960 C   0  0  0  0  0  0  0  0  0  0  0  0
   -1.2524    2.4577   -4.7607 C   0  0  0  0  0  0  0  0  0  0  0  0
   -0.0773    1.9130   -5.4702 C   0  0  0  0  0  0  0  0  0  0  0  0
   -0.1765    0.9081   -6.3375 C   0  0  0  0  0  0  0  0  0  0  0  0
    3.7653   -4.1293    3.5656 H   0  0  0  0  0  0  0  0  0  0  0  0
    2.9292   -3.9382    8.1921 H   0  0  0  0  0  0  0  0  0  0  0  0
    4.7322    1.6993    5.8079 H   0  0  0  0  0  0  0  0  0  0  0  0
    5.6615    1.7022    1.9877 H   0  0  0  0  0  0  0  0  0  0  0  0
    5.0806    3.9396    2.3892 H   0  0  0  0  0  0  0  0  0  0  0  0
    2.5900    5.7898    6.8677 H   0  0  0  0  0  0  0  0  0  0  0  0
   -1.3006    1.1172    4.9608 H   0  0  0  0  0  0  0  0  0  0  0  0
   -1.5598   -0.7091    2.9618 H   0  0  0  0  0  0  0  0  0  0  0  0
    1.2588   -1.5078    2.0639 H   0  0  0  0  0  0  0  0  0  0  0  0
   -2.6888   -7.2902    0.5104 H   0  0  0  0  0  0  0  0  0  0  0  0
   -2.9355   -6.4430   -1.0882 H   0  0  0  0  0  0  0  0  0  0  0  0
   -4.3419   -6.9005   -0.0797 H   0  0  0  0  0  0  0  0  0  0  0  0
   -0.3346   -8.0237    0.4996 H   0  0  0  0  0  0  0  0  0  0  0  0
    1.2900   -7.2320    0.4744 H   0  0  0  0  0  0  0  0  0  0  0  0
    0.0897   -6.7887    1.7501 H   0  0  0  0  0  0  0  0  0  0  0  0
    1.9672   -4.6843    0.1904 H   0  0  0  0  0  0  0  0  0  0  0  0
    3.2578   -3.0099   -0.6448 H   0  0  0  0  0  0  0  0  0  0  0  0
    2.6854    4.4344    0.6428 H   0  0  0  0  0  0  0  0  0  0  0  0
    1.2648    3.4258    1.0704 H   0  0  0  0  0  0  0  0  0  0  0  0
    1.5058    4.0303   -0.6386 H   0  0  0  0  0  0  0  0  0  0  0  0
   -1.4792    0.9443    0.6351 H   0  0  0  0  0  0  0  0  0  0  0  0
   -2.2148    2.2186   -0.4020 H   0  0  0  0  0  0  0  0  0  0  0  0
   -1.0355    2.6672    0.8948 H   0  0  0  0  0  0  0  0  0  0  0  0
   -1.4000   -0.6860   -1.0509 H   0  0  0  0  0  0  0  0  0  0  0  0
    0.4188   -2.6690   -2.4907 H   0  0  0  0  0  0  0  0  0  0  0  0
   -6.2545   -6.3064   -3.9841 H   0  0  0  0  0  0  0  0  0  0  0  0
   -6.1021   -4.7565   -4.8869 H   0  0  0  0  0  0  0  0  0  0  0  0
   -6.4043   -4.7612   -3.0841 H   0  0  0  0  0  0  0  0  0  0  0  0
   -6.1399   -2.3614   -1.8375 H   0  0  0  0  0  0  0  0  0  0  0  0
   -7.3606   -2.1315   -3.1440 H   0  0  0  0  0  0  0  0  0  0  0  0
   -6.2823   -0.7601   -2.6689 H   0  0  0  0  0  0  0  0  0  0  0  0
   -3.9469   -0.0060   -2.9203 H   0  0  0  0  0  0  0  0  0  0  0  0
   -1.1802   -0.3041   -4.1579 H   0  0  0  0  0  0  0  0  0  0  0  0
   -5.1666    5.2587   -3.3849 H   0  0  0  0  0  0  0  0  0  0  0  0
   -4.4101    6.7256   -2.6654 H   0  0  0  0  0  0  0  0  0  0  0  0
   -4.2280    5.1289   -1.8419 H   0  0  0  0  0  0  0  0  0  0  0  0
    0.9049    4.4445   -6.6121 H   0  0  0  0  0  0  0  0  0  0  0  0
   -0.2160    5.6990   -7.2598 H   0  0  0  0  0  0  0  0  0  0  0  0
   -0.7228    3.9774   -7.2726 H   0  0  0  0  0  0  0  0  0  0  0  0
    0.8830    2.3965   -5.3390 H   0  0  0  0  0  0  0  0  0  0  0  0
   -1.1299    0.4348   -6.5398 H   0  0  0  0  0  0  0  0  0  0  0  0
    0.7024    0.5580   -6.8636 H   0  0  0  0  0  0  0  0  0  0  0  0
  1  2  1  0
  2  3  1  0
  3  4  2  0
  4  5  1  0
  5  6  1  0
  6  7  2  0
  7  8  1  0
  7  9  1  0
  9 10  2  0
 10 11  1  0
 10 12  1  0
 12 13  2  3
 13 14  1  0
 14 15  1  0
 15 16  1  0
 16 17  2  0
 17 18  1  0
 18 19  1  0
 19 20  2  0
 20 21  1  0
 20 22  1  0
 22 23  2  0
 23 24  1  0
 23 25  1  0
 25 26  2  3
 26 27  1  0
 27 28  1  0
 28 29  1  0
 29 30  1  0
 30 31  1  0
 29 32  2  0
 32 33  1  0
 33 34  2  0
 33 35  1  0
 32 36  1  0
 36 37  1  0
 37 38  2  3
 38 39  1  0
 39 40  1  0
 40 41  1  0
 41 42  1  0
 42 43  1  0
 41 44  2  0
 44 45  1  0
 45 46  2  0
 45 47  1  0
 44 48  1  0
 48 49  1  0
 49 50  2  3
 50 51  1  0
 51 52  1  0
 52 53  1  0
 53 54  1  0
 54 55  1  0
 53 56  2  0
 56 57  1  0
 57 58  2  0
 57 59  1  0
 56 60  1  0
 60 61  1  0
 61 62  2  3
 62 63  1  0
 63 64  1  0
 64 65  1  0
 65 66  1  0
 66 67  1  0
 65 68  2  0
 68 69  1  0
 69 70  2  0
 69 71  1  0
 68 72  1  0
 72 73  1  0
 73 74  2  3
  5  1  2  0
 11  6  1  0
 18 14  2  0
 24 19  1  0
 36 27  2  0
 48 39  2  0
 60 51  2  0
 72 63  2  0
  8  4  1  0
 21 17  1  0
  1 75  1  0
  3 76  1  0
  9 77  1  0
 12 78  1  0
 13 79  1  0
 16 80  1  0
 22 81  1  0
 25 82  1  0
 26 83  1  0
 31 84  1  0
 31 85  1  0
 31 86  1  0
 35 87  1  0
 35 88  1  0
 35 89  1  0
 37 90  1  0
 38 91  1  0
 43 92  1  0
 43 93  1  0
 43 94  1  0
 47 95  1  0
 47 96  1  0
 47 97  1  0
 49 98  1  0
 50 99  1  0
 55100  1  0
 55101  1  0
 55102  1  0
 59103  1  0
 59104  1  0
 59105  1  0
 61106  1  0
 62107  1  0
 67108  1  0
 67109  1  0
 67110  1  0
 71111  1  0
 71112  1  0
 71113  1  0
 73114  1  0
 74115  1  0
 74116  1  0
M  END

