
     RDKit          3D

266293  0  0  0  0  0  0  0  0999 V2000
    1.0592   -2.5774   10.8167 C   0  0  0  0  0  0  0  0  0  0  0  0
    1.7407   -1.3577   10.6841 C   0  0  0  0  0  0  0  0  0  0  0  0
    2.4063   -1.0907    9.4843 C   0  0  0  0  0  0  0  0  0  0  0  0
    2.3228   -1.9662    8.4230 C   0  0  0  0  0  0  0  0  0  0  0  0
    2.8964   -1.3305    7.2401 C   0  0  0  0  0  0  0  0  0  0  0  0
    3.2977   -0.1061    7.5638 C   0  0  0  0  0  0  0  0  0  0  0  0
    3.0438    0.1383    8.9946 C   0  0  0  0  0  0  0  0  0  0  0  0
    3.4534    1.2067    9.6991 C   0  0  0  0  0  0  0  0  0  0  0  0
    3.7465    1.2419   11.1447 C   0  0  0  0  0  0  0  0  0  0  0  0
    4.3861    2.3705   11.4489 C   0  0  0  0  0  0  0  0  0  0  0  0
    4.5195    3.1694   10.2384 C   0  0  0  0  0  0  0  0  0  0  0  0
    3.9505    2.4898    9.1855 C   0  0  0  0  0  0  0  0  0  0  0  0
    3.7790    3.1129    7.9427 C   0  0  0  0  0  0  0  0  0  0  0  0
    4.3016    4.4040    7.7643 C   0  0  0  0  0  0  0  0  0  0  0  0
    4.9439    5.0662    8.8282 C   0  0  0  0  0  0  0  0  0  0  0  0
    5.0409    4.4524   10.0881 C   0  0  0  0  0  0  0  0  0  0  0  0
    1.6249   -3.1790    8.5158 C   0  0  0  0  0  0  0  0  0  0  0  0
    1.0046   -3.4883    9.7421 C   0  0  0  0  0  0  0  0  0  0  0  0
    1.5015   -4.0479    7.3289 C   0  0  0  0  0  0  0  0  0  0  0  0
    0.3496   -4.6317    6.9890 C   0  0  0  0  0  0  0  0  0  0  0  0
    0.1383   -5.1889    5.6398 C   0  0  0  0  0  0  0  0  0  0  0  0
   -1.1109   -5.4554    5.0910 C   0  0  0  0  0  0  0  0  0  0  0  0
   -1.0744   -5.6722    3.6989 C   0  0  0  0  0  0  0  0  0  0  0  0
   -2.1829   -5.8645    2.8460 C   0  0  0  0  0  0  0  0  0  0  0  0
   -3.5638   -5.9846    3.3672 C   0  0  0  0  0  0  0  0  0  0  0  0
   -4.1302   -4.9672    4.1531 C   0  0  0  0  0  0  0  0  0  0  0  0
   -5.3906   -5.1428    4.7299 C   0  0  0  0  0  0  0  0  0  0  0  0
   -6.1107   -6.3205    4.5032 C   0  0  0  0  0  0  0  0  0  0  0  0
   -7.7065   -6.5595    5.2922 S   0  0  0  0  0  0  0  0  0  0  0  0
   -8.6825   -5.8421    3.9257 C   0  0  0  0  0  0  0  0  0  0  0  0
   -8.8524   -4.3424    4.1254 C   0  0  0  0  0  0  0  0  0  0  0  0
   -5.5661   -7.3259    3.6904 C   0  0  0  0  0  0  0  0  0  0  0  0
   -6.2511   -8.4774    3.4721 F   0  0  0  0  0  0  0  0  0  0  0  0
   -4.2990   -7.1578    3.1245 C   0  0  0  0  0  0  0  0  0  0  0  0
   -1.9111   -5.9566    1.4665 C   0  0  0  0  0  0  0  0  0  0  0  0
   -0.6099   -5.9118    0.9457 C   0  0  0  0  0  0  0  0  0  0  0  0
    0.5019   -5.7445    1.8008 C   0  0  0  0  0  0  0  0  0  0  0  0
    1.8892   -5.6132    1.2870 C   0  0  0  0  0  0  0  0  0  0  0  0
    2.6644   -4.4875    1.6271 C   0  0  0  0  0  0  0  0  0  0  0  0
    4.0142   -4.4321    1.2874 C   0  0  0  0  0  0  0  0  0  0  0  0
    4.6004   -5.4712    0.5535 C   0  0  0  0  0  0  0  0  0  0  0  0
    6.3606   -5.4159    0.1905 S   0  0  0  0  0  0  0  0  0  0  0  0
    6.2269   -4.1653   -1.1388 C   0  0  0  0  0  0  0  0  0  0  0  0
    7.1913   -3.0187   -0.8766 C   0  0  0  0  0  0  0  0  0  0  0  0
    3.8168   -6.5631    0.1465 C   0  0  0  0  0  0  0  0  0  0  0  0
    2.4716   -6.6394    0.5265 C   0  0  0  0  0  0  0  0  0  0  0  0
    4.3705   -7.5719   -0.5742 F   0  0  0  0  0  0  0  0  0  0  0  0
    0.2224   -5.6200    3.1749 C   0  0  0  0  0  0  0  0  0  0  0  0
    1.2989   -5.2916    4.4208 S   0  0  0  0  0  0  0  0  0  0  0  0
   -0.5817   -5.8910   -0.4580 C   0  0  0  0  0  0  0  0  0  0  0  0
   -1.8489   -5.8751   -1.0334 C   0  0  0  0  0  0  0  0  0  0  0  0
   -3.0102   -5.8980    0.1926 S   0  0  0  0  0  0  0  0  0  0  0  0
   -2.0935   -5.3892   -2.3931 C   0  0  0  0  0  0  0  0  0  0  0  0
   -2.6217   -4.1291   -2.6394 C   0  0  0  0  0  0  0  0  0  0  0  0
   -2.2978   -3.6155   -3.9062 C   0  0  0  0  0  0  0  0  0  0  0  0
   -2.4582   -2.2715   -4.3156 C   0  0  0  0  0  0  0  0  0  0  0  0
   -3.0968   -1.2751   -3.4279 C   0  0  0  0  0  0  0  0  0  0  0  0
   -2.5442   -0.9889   -2.1675 C   0  0  0  0  0  0  0  0  0  0  0  0
   -3.2304   -0.1839   -1.2604 C   0  0  0  0  0  0  0  0  0  0  0  0
   -4.4736    0.3546   -1.6003 C   0  0  0  0  0  0  0  0  0  0  0  0
   -5.4165    1.2562   -0.3662 S   0  0  0  0  0  0  0  0  0  0  0  0
   -4.6058    2.8503   -0.7185 C   0  0  0  0  0  0  0  0  0  0  0  0
   -5.2540    3.9433    0.1219 C   0  0  0  0  0  0  0  0  0  0  0  0
   -5.0172    0.1079   -2.8713 C   0  0  0  0  0  0  0  0  0  0  0  0
   -6.2388    0.5960   -3.2042 F   0  0  0  0  0  0  0  0  0  0  0  0
   -4.3252   -0.6994   -3.7851 C   0  0  0  0  0  0  0  0  0  0  0  0
   -1.8071   -1.8897   -5.5077 C   0  0  0  0  0  0  0  0  0  0  0  0
   -1.0743   -2.7979   -6.2797 C   0  0  0  0  0  0  0  0  0  0  0  0
   -0.9565   -4.1533   -5.8917 C   0  0  0  0  0  0  0  0  0  0  0  0
   -0.0418   -5.0962   -6.5745 C   0  0  0  0  0  0  0  0  0  0  0  0
    1.3405   -4.8505   -6.5997 C   0  0  0  0  0  0  0  0  0  0  0  0
    2.2092   -5.7605   -7.2066 C   0  0  0  0  0  0  0  0  0  0  0  0
    1.7022   -6.9266   -7.7959 C   0  0  0  0  0  0  0  0  0  0  0  0
    2.8331   -8.1019   -8.5475 S   0  0  0  0  0  0  0  0  0  0  0  0
    2.9704   -7.2277  -10.1480 C   0  0  0  0  0  0  0  0  0  0  0  0
    1.7490   -7.4759  -11.0222 C   0  0  0  0  0  0  0  0  0  0  0  0
    0.3239   -7.1830   -7.7634 C   0  0  0  0  0  0  0  0  0  0  0  0
   -0.5445   -6.2716   -7.1528 C   0  0  0  0  0  0  0  0  0  0  0  0
   -0.1763   -8.3208   -8.3097 F   0  0  0  0  0  0  0  0  0  0  0  0
   -1.5612   -4.5168   -4.6791 C   0  0  0  0  0  0  0  0  0  0  0  0
   -1.2404   -5.8935   -3.7568 S   0  0  0  0  0  0  0  0  0  0  0  0
   -0.2934   -2.1821   -7.2643 C   0  0  0  0  0  0  0  0  0  0  0  0
   -0.2938   -0.7847   -7.2060 C   0  0  0  0  0  0  0  0  0  0  0  0
   -1.4051   -0.3289   -6.0113 S   0  0  0  0  0  0  0  0  0  0  0  0
    0.7857    0.0828   -7.7665 C   0  0  0  0  0  0  0  0  0  0  0  0
    1.8147   -0.5013   -8.5386 C   0  0  0  0  0  0  0  0  0  0  0  0
    2.9254    0.2544   -8.8889 C   0  0  0  0  0  0  0  0  0  0  0  0
    2.9785    1.5966   -8.6222 C   0  0  0  0  0  0  0  0  0  0  0  0
    4.1344    2.1619   -9.3210 C   0  0  0  0  0  0  0  0  0  0  0  0
    4.7519    1.1910   -9.9910 C   0  0  0  0  0  0  0  0  0  0  0  0
    4.0653   -0.0896   -9.7398 C   0  0  0  0  0  0  0  0  0  0  0  0
    4.5354   -1.3175  -10.0249 C   0  0  0  0  0  0  0  0  0  0  0  0
    4.2563   -2.5548   -9.2655 C   0  0  0  0  0  0  0  0  0  0  0  0
    5.0575   -3.5313   -9.6887 C   0  0  0  0  0  0  0  0  0  0  0  0
    5.8838   -3.0164  -10.7728 C   0  0  0  0  0  0  0  0  0  0  0  0
    5.5808   -1.6882  -10.9829 C   0  0  0  0  0  0  0  0  0  0  0  0
    6.0881   -1.0068  -12.0915 C   0  0  0  0  0  0  0  0  0  0  0  0
    6.9890   -1.6811  -12.9367 C   0  0  0  0  0  0  0  0  0  0  0  0
    7.3365   -3.0224  -12.6838 C   0  0  0  0  0  0  0  0  0  0  0  0
    6.7687   -3.7082  -11.5990 C   0  0  0  0  0  0  0  0  0  0  0  0
    1.9837    2.2400   -7.8740 C   0  0  0  0  0  0  0  0  0  0  0  0
    0.8695    1.4681   -7.4576 C   0  0  0  0  0  0  0  0  0  0  0  0
    2.0339    3.7115   -7.7504 C   0  0  0  0  0  0  0  0  0  0  0  0
    1.9255    4.4630   -6.6436 C   0  0  0  0  0  0  0  0  0  0  0  0
    1.6828    4.0457   -5.2469 C   0  0  0  0  0  0  0  0  0  0  0  0
    1.3555    4.9640   -4.2530 C   0  0  0  0  0  0  0  0  0  0  0  0
    1.0179    4.3748   -3.0257 C   0  0  0  0  0  0  0  0  0  0  0  0
    0.5760    5.0488   -1.8679 C   0  0  0  0  0  0  0  0  0  0  0  0
    0.6347    6.5213   -1.7327 C   0  0  0  0  0  0  0  0  0  0  0  0
    1.4586    7.0902   -0.7484 C   0  0  0  0  0  0  0  0  0  0  0  0
    1.5899    8.4762   -0.6533 C   0  0  0  0  0  0  0  0  0  0  0  0
    0.9046    9.3089   -1.5454 C   0  0  0  0  0  0  0  0  0  0  0  0
    1.1327   11.0906   -1.4576 S   0  0  0  0  0  0  0  0  0  0  0  0
    2.5050   11.1398   -2.6663 C   0  0  0  0  0  0  0  0  0  0  0  0
    3.8494   10.9409   -1.9715 C   0  0  0  0  0  0  0  0  0  0  0  0
    0.0476    8.7513   -2.5039 C   0  0  0  0  0  0  0  0  0  0  0  0
   -0.6308    9.5529   -3.3666 F   0  0  0  0  0  0  0  0  0  0  0  0
   -0.0929    7.3611   -2.5915 C   0  0  0  0  0  0  0  0  0  0  0  0
    0.1254    4.2466   -0.8092 C   0  0  0  0  0  0  0  0  0  0  0  0
    0.1934    2.8506   -0.8338 C   0  0  0  0  0  0  0  0  0  0  0  0
    0.7909    2.1827   -1.9263 C   0  0  0  0  0  0  0  0  0  0  0  0
    1.1025    0.7377   -1.8895 C   0  0  0  0  0  0  0  0  0  0  0  0
    1.9666    0.2246   -0.9049 C   0  0  0  0  0  0  0  0  0  0  0  0
    2.3388   -1.1271   -0.9300 C   0  0  0  0  0  0  0  0  0  0  0  0
    1.8358   -1.9719   -1.9264 C   0  0  0  0  0  0  0  0  0  0  0  0
    2.3052   -3.7030   -1.9860 S   0  0  0  0  0  0  0  0  0  0  0  0
    3.4134   -3.4984   -3.4287 C   0  0  0  0  0  0  0  0  0  0  0  0
    3.8576   -4.8616   -3.9361 C   0  0  0  0  0  0  0  0  0  0  0  0
    0.9586   -1.4660   -2.8901 C   0  0  0  0  0  0  0  0  0  0  0  0
    0.6035   -0.1145   -2.8780 C   0  0  0  0  0  0  0  0  0  0  0  0
    0.4963   -2.2750   -3.8649 F   0  0  0  0  0  0  0  0  0  0  0  0
    1.1369    2.9816   -3.0365 C   0  0  0  0  0  0  0  0  0  0  0  0
    1.6694    2.4980   -4.5656 S   0  0  0  0  0  0  0  0  0  0  0  0
   -0.4436    2.2525    0.2681 C   0  0  0  0  0  0  0  0  0  0  0  0
   -0.9862    3.1864    1.1487 C   0  0  0  0  0  0  0  0  0  0  0  0
   -0.6713    4.7429    0.5837 S   0  0  0  0  0  0  0  0  0  0  0  0
   -1.7791    2.8982    2.3477 C   0  0  0  0  0  0  0  0  0  0  0  0
   -2.6044    1.7919    2.5445 C   0  0  0  0  0  0  0  0  0  0  0  0
   -3.2475    1.8017    3.7950 C   0  0  0  0  0  0  0  0  0  0  0  0
   -4.1788    0.8507    4.2787 C   0  0  0  0  0  0  0  0  0  0  0  0
   -4.6931   -0.2753    3.4554 C   0  0  0  0  0  0  0  0  0  0  0  0
   -3.8252   -1.2037    2.8563 C   0  0  0  0  0  0  0  0  0  0  0  0
   -4.3414   -2.2921    2.1394 C   0  0  0  0  0  0  0  0  0  0  0  0
   -5.7263   -2.4918    2.0608 C   0  0  0  0  0  0  0  0  0  0  0  0
   -6.3780   -3.9933    1.3138 S   0  0  0  0  0  0  0  0  0  0  0  0
   -6.9030   -3.2059   -0.2481 C   0  0  0  0  0  0  0  0  0  0  0  0
   -5.7354   -3.1020   -1.2112 C   0  0  0  0  0  0  0  0  0  0  0  0
   -6.5955   -1.5601    2.6436 C   0  0  0  0  0  0  0  0  0  0  0  0
   -7.9402   -1.7272    2.5649 F   0  0  0  0  0  0  0  0  0  0  0  0
   -6.0824   -0.4494    3.3171 C   0  0  0  0  0  0  0  0  0  0  0  0
   -4.6675    1.0612    5.5865 C   0  0  0  0  0  0  0  0  0  0  0  0
   -4.3217    2.1751    6.3599 C   0  0  0  0  0  0  0  0  0  0  0  0
   -3.4531    3.1598    5.8491 C   0  0  0  0  0  0  0  0  0  0  0  0
   -3.1652    4.4159    6.5832 C   0  0  0  0  0  0  0  0  0  0  0  0
   -4.2217    5.2527    6.9810 C   0  0  0  0  0  0  0  0  0  0  0  0
   -3.9584    6.4506    7.6501 C   0  0  0  0  0  0  0  0  0  0  0  0
   -2.6404    6.8417    7.9021 C   0  0  0  0  0  0  0  0  0  0  0  0
   -2.3226    8.3976    8.7367 S   0  0  0  0  0  0  0  0  0  0  0  0
   -2.4054    9.3857    7.2032 C   0  0  0  0  0  0  0  0  0  0  0  0
   -2.4115   10.8688    7.5450 C   0  0  0  0  0  0  0  0  0  0  0  0
   -1.5782    6.0126    7.5083 C   0  0  0  0  0  0  0  0  0  0  0  0
   -1.8423    4.8038    6.8558 C   0  0  0  0  0  0  0  0  0  0  0  0
   -0.2926    6.3766    7.7573 F   0  0  0  0  0  0  0  0  0  0  0  0
   -2.9177    2.9233    4.5693 C   0  0  0  0  0  0  0  0  0  0  0  0
   -1.8741    3.9093    3.6934 S   0  0  0  0  0  0  0  0  0  0  0  0
   -4.9017    2.1601    7.6407 C   0  0  0  0  0  0  0  0  0  0  0  0
   -5.6991    1.0434    7.8694 C   0  0  0  0  0  0  0  0  0  0  0  0
   -5.6812    0.0709    6.4974 S   0  0  0  0  0  0  0  0  0  0  0  0
    0.5430   -2.8062   11.7418 H   0  0  0  0  0  0  0  0  0  0  0  0
    1.6941   -0.6354   11.4846 H   0  0  0  0  0  0  0  0  0  0  0  0
    2.9958   -1.7729    6.2568 H   0  0  0  0  0  0  0  0  0  0  0  0
    3.8261    0.5404    6.8776 H   0  0  0  0  0  0  0  0  0  0  0  0
    3.5937    0.4451   11.8562 H   0  0  0  0  0  0  0  0  0  0  0  0
    4.7566    2.6319   12.4313 H   0  0  0  0  0  0  0  0  0  0  0  0
    3.2208    2.6497    7.1450 H   0  0  0  0  0  0  0  0  0  0  0  0
    4.1916    4.9013    6.8077 H   0  0  0  0  0  0  0  0  0  0  0  0
    5.3369    6.0649    8.6828 H   0  0  0  0  0  0  0  0  0  0  0  0
    5.4908    4.9725   10.9230 H   0  0  0  0  0  0  0  0  0  0  0  0
    0.4633   -4.4205    9.8652 H   0  0  0  0  0  0  0  0  0  0  0  0
    2.3325   -4.0620    6.6392 H   0  0  0  0  0  0  0  0  0  0  0  0
   -0.5093   -4.5535    7.6418 H   0  0  0  0  0  0  0  0  0  0  0  0
   -2.0154   -5.4177    5.6768 H   0  0  0  0  0  0  0  0  0  0  0  0
   -3.5854   -4.0494    4.3398 H   0  0  0  0  0  0  0  0  0  0  0  0
   -5.8008   -4.3643    5.3627 H   0  0  0  0  0  0  0  0  0  0  0  0
   -8.2069   -6.0482    2.9413 H   0  0  0  0  0  0  0  0  0  0  0  0
   -9.6847   -6.3234    3.9293 H   0  0  0  0  0  0  0  0  0  0  0  0
   -7.8648   -3.8441    4.1596 H   0  0  0  0  0  0  0  0  0  0  0  0
   -9.3921   -4.1402    5.0753 H   0  0  0  0  0  0  0  0  0  0  0  0
   -9.4410   -3.9206    3.2838 H   0  0  0  0  0  0  0  0  0  0  0  0
   -3.8766   -7.9539    2.5252 H   0  0  0  0  0  0  0  0  0  0  0  0
    2.2258   -3.6661    2.1800 H   0  0  0  0  0  0  0  0  0  0  0  0
    4.6070   -3.5773    1.5857 H   0  0  0  0  0  0  0  0  0  0  0  0
    6.4729   -4.6399   -2.1103 H   0  0  0  0  0  0  0  0  0  0  0  0
    5.2018   -3.7493   -1.1940 H   0  0  0  0  0  0  0  0  0  0  0  0
    7.1126   -2.2688   -1.6941 H   0  0  0  0  0  0  0  0  0  0  0  0
    8.2346   -3.3956   -0.8333 H   0  0  0  0  0  0  0  0  0  0  0  0
    6.9383   -2.5234    0.0869 H   0  0  0  0  0  0  0  0  0  0  0  0
    1.8915   -7.5148    0.2562 H   0  0  0  0  0  0  0  0  0  0  0  0
    0.3199   -5.7615   -1.0365 H   0  0  0  0  0  0  0  0  0  0  0  0
   -3.0779   -3.5472   -1.8551 H   0  0  0  0  0  0  0  0  0  0  0  0
   -1.6121   -1.4460   -1.8628 H   0  0  0  0  0  0  0  0  0  0  0  0
   -2.8099   -0.0191   -0.2780 H   0  0  0  0  0  0  0  0  0  0  0  0
   -4.7136    3.1036   -1.7964 H   0  0  0  0  0  0  0  0  0  0  0  0
   -3.5268    2.7835   -0.4621 H   0  0  0  0  0  0  0  0  0  0  0  0
   -4.7626    4.9183   -0.0822 H   0  0  0  0  0  0  0  0  0  0  0  0
   -6.3333    4.0272   -0.1344 H   0  0  0  0  0  0  0  0  0  0  0  0
   -5.1514    3.7069    1.2041 H   0  0  0  0  0  0  0  0  0  0  0  0
   -4.7762   -0.9266   -4.7438 H   0  0  0  0  0  0  0  0  0  0  0  0
    1.7468   -3.9589   -6.1403 H   0  0  0  0  0  0  0  0  0  0  0  0
    3.2758   -5.5624   -7.2124 H   0  0  0  0  0  0  0  0  0  0  0  0
    3.1138   -6.1387   -9.9872 H   0  0  0  0  0  0  0  0  0  0  0  0
    3.8672   -7.6165  -10.6760 H   0  0  0  0  0  0  0  0  0  0  0  0
    1.5810   -8.5676  -11.1466 H   0  0  0  0  0  0  0  0  0  0  0  0
    1.9112   -7.0212  -12.0224 H   0  0  0  0  0  0  0  0  0  0  0  0
    0.8479   -7.0118  -10.5704 H   0  0  0  0  0  0  0  0  0  0  0  0
   -1.6033   -6.4845   -7.1207 H   0  0  0  0  0  0  0  0  0  0  0  0
    0.3508   -2.7537   -7.9095 H   0  0  0  0  0  0  0  0  0  0  0  0
    1.7492   -1.5111   -8.9018 H   0  0  0  0  0  0  0  0  0  0  0  0
    4.4591    3.1946   -9.2965 H   0  0  0  0  0  0  0  0  0  0  0  0
    5.6792    1.3292  -10.5294 H   0  0  0  0  0  0  0  0  0  0  0  0
    3.5980   -2.6579   -8.4132 H   0  0  0  0  0  0  0  0  0  0  0  0
    5.0939   -4.5278   -9.2697 H   0  0  0  0  0  0  0  0  0  0  0  0
    5.7654   -0.0079  -12.3423 H   0  0  0  0  0  0  0  0  0  0  0  0
    7.3962   -1.1745  -13.8016 H   0  0  0  0  0  0  0  0  0  0  0  0
    8.0140   -3.5400  -13.3502 H   0  0  0  0  0  0  0  0  0  0  0  0
    6.9836   -4.7559  -11.4264 H   0  0  0  0  0  0  0  0  0  0  0  0
    0.0653    1.9504   -6.9188 H   0  0  0  0  0  0  0  0  0  0  0  0
    2.2588    4.2461   -8.6643 H   0  0  0  0  0  0  0  0  0  0  0  0
    2.0140    5.5328   -6.7944 H   0  0  0  0  0  0  0  0  0  0  0  0
    1.3211    6.0284   -4.4402 H   0  0  0  0  0  0  0  0  0  0  0  0
    2.0166    6.4565   -0.0695 H   0  0  0  0  0  0  0  0  0  0  0  0
    2.2425    8.8998    0.1009 H   0  0  0  0  0  0  0  0  0  0  0  0
    2.5012   12.1370   -3.1560 H   0  0  0  0  0  0  0  0  0  0  0  0
    2.3717   10.3721   -3.4574 H   0  0  0  0  0  0  0  0  0  0  0  0
    4.0037   11.7248   -1.1986 H   0  0  0  0  0  0  0  0  0  0  0  0
    4.6716   11.0129   -2.7170 H   0  0  0  0  0  0  0  0  0  0  0  0
    3.8979    9.9412   -1.4934 H   0  0  0  0  0  0  0  0  0  0  0  0
   -0.7519    6.9379   -3.3416 H   0  0  0  0  0  0  0  0  0  0  0  0
    2.3745    0.8736   -0.1385 H   0  0  0  0  0  0  0  0  0  0  0  0
    3.0161   -1.5153   -0.1769 H   0  0  0  0  0  0  0  0  0  0  0  0
    4.2970   -2.8885   -3.1458 H   0  0  0  0  0  0  0  0  0  0  0  0
    2.8863   -2.9720   -4.2513 H   0  0  0  0  0  0  0  0  0  0  0  0
    4.4275   -5.3975   -3.1495 H   0  0  0  0  0  0  0  0  0  0  0  0
    2.9712   -5.4710   -4.2145 H   0  0  0  0  0  0  0  0  0  0  0  0
    4.5012   -4.7327   -4.8333 H   0  0  0  0  0  0  0  0  0  0  0  0
   -0.0615    0.2672   -3.6370 H   0  0  0  0  0  0  0  0  0  0  0  0
   -0.5312    1.1832    0.4066 H   0  0  0  0  0  0  0  0  0  0  0  0
   -2.7519    1.0331    1.7943 H   0  0  0  0  0  0  0  0  0  0  0  0
   -2.7531   -1.1051    2.9659 H   0  0  0  0  0  0  0  0  0  0  0  0
   -3.6639   -3.0108    1.6949 H   0  0  0  0  0  0  0  0  0  0  0  0
   -7.6914   -3.8389   -0.7043 H   0  0  0  0  0  0  0  0  0  0  0  0
   -7.3322   -2.1989   -0.0655 H   0  0  0  0  0  0  0  0  0  0  0  0
   -6.0693   -2.6226   -2.1547 H   0  0  0  0  0  0  0  0  0  0  0  0
   -4.9277   -2.4884   -0.7618 H   0  0  0  0  0  0  0  0  0  0  0  0
   -5.3550   -4.1207   -1.4451 H   0  0  0  0  0  0  0  0  0  0  0  0
   -6.7720    0.2625    3.7526 H   0  0  0  0  0  0  0  0  0  0  0  0
   -5.2481    4.9860    6.7652 H   0  0  0  0  0  0  0  0  0  0  0  0
   -4.7825    7.0859    7.9570 H   0  0  0  0  0  0  0  0  0  0  0  0
   -1.5252    9.1549    6.5651 H   0  0  0  0  0  0  0  0  0  0  0  0
   -3.3330    9.1453    6.6417 H   0  0  0  0  0  0  0  0  0  0  0  0
   -1.4758   11.1439    8.0754 H   0  0  0  0  0  0  0  0  0  0  0  0
   -2.4879   11.4685    6.6128 H   0  0  0  0  0  0  0  0  0  0  0  0
   -3.2837   11.1069    8.1907 H   0  0  0  0  0  0  0  0  0  0  0  0
   -1.0139    4.1691    6.5612 H   0  0  0  0  0  0  0  0  0  0  0  0
   -4.7375    2.9184    8.3905 H   0  0  0  0  0  0  0  0  0  0  0  0
   -6.2324    0.8331    8.7863 H   0  0  0  0  0  0  0  0  0  0  0  0
  1  2  2  0
  2  3  1  0
  3  4  2  0
  4  5  1  0
  5  6  2  0
  6  7  1  0
  7  8  2  0
  8  9  1  0
  9 10  2  0
 10 11  1  0
 11 12  2  0
 12 13  1  0
 13 14  2  0
 14 15  1  0
 15 16  2  0
  4 17  1  0
 17 18  2  0
 17 19  1  0
 19 20  2  3
 20 21  1  0
 21 22  2  0
 22 23  1  0
 23 24  2  0
 24 25  1  0
 25 26  2  0
 26 27  1  0
 27 28  2  0
 28 29  1  0
 29 30  1  0
 30 31  1  0
 28 32  1  0
 32 33  1  0
 32 34  2  0
 24 35  1  0
 35 36  2  0
 36 37  1  0
 37 38  1  0
 38 39  2  0
 39 40  1  0
 40 41  2  0
 41 42  1  0
 42 43  1  0
 43 44  1  0
 41 45  1  0
 45 46  2  0
 45 47  1  0
 37 48  2  0
 48 49  1  0
 36 50  1  0
 50 51  2  0
 51 52  1  0
 51 53  1  0
 53 54  2  0
 54 55  1  0
 55 56  2  0
 56 57  1  0
 57 58  2  0
 58 59  1  0
 59 60  2  0
 60 61  1  0
 61 62  1  0
 62 63  1  0
 60 64  1  0
 64 65  1  0
 64 66  2  0
 56 67  1  0
 67 68  2  0
 68 69  1  0
 69 70  1  0
 70 71  2  0
 71 72  1  0
 72 73  2  0
 73 74  1  0
 74 75  1  0
 75 76  1  0
 73 77  1  0
 77 78  2  0
 77 79  1  0
 69 80  2  0
 80 81  1  0
 68 82  1  0
 82 83  2  0
 83 84  1  0
 83 85  1  0
 85 86  2  0
 86 87  1  0
 87 88  2  0
 88 89  1  0
 89 90  2  0
 90 91  1  0
 91 92  2  0
 92 93  1  0
 93 94  2  0
 94 95  1  0
 95 96  2  0
 96 97  1  0
 97 98  2  0
 98 99  1  0
 99100  2  0
 88101  1  0
101102  2  0
101103  1  0
103104  2  3
104105  1  0
105106  2  0
106107  1  0
107108  2  0
108109  1  0
109110  2  0
110111  1  0
111112  2  0
112113  1  0
113114  1  0
114115  1  0
112116  1  0
116117  1  0
116118  2  0
108119  1  0
119120  2  0
120121  1  0
121122  1  0
122123  2  0
123124  1  0
124125  2  0
125126  1  0
126127  1  0
127128  1  0
125129  1  0
129130  2  0
129131  1  0
121132  2  0
132133  1  0
120134  1  0
134135  2  0
135136  1  0
135137  1  0
137138  2  0
138139  1  0
139140  2  0
140141  1  0
141142  2  0
142143  1  0
143144  2  0
144145  1  0
145146  1  0
146147  1  0
144148  1  0
148149  1  0
148150  2  0
140151  1  0
151152  2  0
152153  1  0
153154  1  0
154155  2  0
155156  1  0
156157  2  0
157158  1  0
158159  1  0
159160  1  0
157161  1  0
161162  2  0
161163  1  0
153164  2  0
164165  1  0
152166  1  0
166167  2  0
167168  1  0
 18  1  1  0
 49 21  1  0
 81 53  1  0
102 85  1  0
133105  1  0
165137  1  0
  7  3  1  0
 12  8  1  0
 48 23  1  0
 80 55  1  0
 91 87  1  0
 96 92  1  0
132107  1  0
164139  1  0
 16 11  1  0
 34 25  1  0
 52 35  1  0
 66 57  1  0
 84 67  1  0
100 95  1  0
118109  1  0
136119  1  0
150141  1  0
168151  1  0
 46 38  1  0
 78 70  1  0
130122  1  0
162154  1  0
  1169  1  0
  2170  1  0
  5171  1  0
  6172  1  0
  9173  1  0
 10174  1  0
 13175  1  0
 14176  1  0
 15177  1  0
 16178  1  0
 18179  1  0
 19180  1  0
 20181  1  0
 22182  1  0
 26183  1  0
 27184  1  0
 30185  1  0
 30186  1  0
 31187  1  0
 31188  1  0
 31189  1  0
 34190  1  0
 39191  1  0
 40192  1  0
 43193  1  0
 43194  1  0
 44195  1  0
 44196  1  0
 44197  1  0
 46198  1  0
 50199  1  0
 54200  1  0
 58201  1  0
 59202  1  0
 62203  1  0
 62204  1  0
 63205  1  0
 63206  1  0
 63207  1  0
 66208  1  0
 71209  1  0
 72210  1  0
 75211  1  0
 75212  1  0
 76213  1  0
 76214  1  0
 76215  1  0
 78216  1  0
 82217  1  0
 86218  1  0
 89219  1  0
 90220  1  0
 93221  1  0
 94222  1  0
 97223  1  0
 98224  1  0
 99225  1  0
100226  1  0
102227  1  0
103228  1  0
104229  1  0
106230  1  0
110231  1  0
111232  1  0
114233  1  0
114234  1  0
115235  1  0
115236  1  0
115237  1  0
118238  1  0
123239  1  0
124240  1  0
127241  1  0
127242  1  0
128243  1  0
128244  1  0
128245  1  0
130246  1  0
134247  1  0
138248  1  0
142249  1  0
143250  1  0
146251  1  0
146252  1  0
147253  1  0
147254  1  0
147255  1  0
150256  1  0
155257  1  0
156258  1  0
159259  1  0
159260  1  0
160261  1  0
160262  1  0
160263  1  0
162264  1  0
166265  1  0
167266  1  0
M  END

