
     RDKit          3D

259284  0  0  0  0  0  0  0  0999 V2000
    0.8204    5.1063    5.7404 C   0  0  0  0  0  0  0  0  0  0  0  0
   -0.0510    5.5981    4.8039 C   0  0  0  0  0  0  0  0  0  0  0  0
   -1.0994    4.8130    4.4680 C   0  0  0  0  0  0  0  0  0  0  0  0
   -2.0976    5.0941    3.5079 C   0  0  0  0  0  0  0  0  0  0  0  0
   -2.0806    6.3412    2.7844 C   0  0  0  0  0  0  0  0  0  0  0  0
   -1.1817    6.5292    1.7694 C   0  0  0  0  0  0  0  0  0  0  0  0
   -1.1059    7.7362    1.0712 C   0  0  0  0  0  0  0  0  0  0  0  0
   -1.9547    8.7659    1.4100 C   0  0  0  0  0  0  0  0  0  0  0  0
   -1.8619   10.3487    0.5566 S   0  0  0  0  0  0  0  0  0  0  0  0
   -0.5004   10.3809   -0.6169 C   0  0  0  0  0  0  0  0  0  0  0  0
    0.8514   10.3099    0.0776 C   0  0  0  0  0  0  0  0  0  0  0  0
   -2.8712    8.5885    2.4331 C   0  0  0  0  0  0  0  0  0  0  0  0
   -3.7150    9.6086    2.7545 F   0  0  0  0  0  0  0  0  0  0  0  0
   -2.9161    7.3660    3.1086 C   0  0  0  0  0  0  0  0  0  0  0  0
   -3.0877    4.1324    3.2714 C   0  0  0  0  0  0  0  0  0  0  0  0
   -3.1800    2.9292    3.8882 C   0  0  0  0  0  0  0  0  0  0  0  0
   -2.2079    2.6619    4.8332 C   0  0  0  0  0  0  0  0  0  0  0  0
   -2.1114    1.4827    5.6802 C   0  0  0  0  0  0  0  0  0  0  0  0
   -2.8615    1.4589    6.8626 C   0  0  0  0  0  0  0  0  0  0  0  0
   -2.7565    0.4482    7.7796 C   0  0  0  0  0  0  0  0  0  0  0  0
   -1.8955   -0.6132    7.5758 C   0  0  0  0  0  0  0  0  0  0  0  0
   -1.6888   -1.9135    8.7639 S   0  0  0  0  0  0  0  0  0  0  0  0
   -2.8052   -3.3060    8.5138 C   0  0  0  0  0  0  0  0  0  0  0  0
   -2.4134   -4.0807    7.2499 C   0  0  0  0  0  0  0  0  0  0  0  0
   -1.1547   -0.5953    6.4075 C   0  0  0  0  0  0  0  0  0  0  0  0
   -1.2522    0.4300    5.4638 C   0  0  0  0  0  0  0  0  0  0  0  0
   -0.2997   -1.6208    6.2055 F   0  0  0  0  0  0  0  0  0  0  0  0
   -1.2101    3.6148    5.0774 C   0  0  0  0  0  0  0  0  0  0  0  0
    0.1545    3.5782    6.1225 S   0  0  0  0  0  0  0  0  0  0  0  0
   -4.1805    2.1000    3.4884 C   0  0  0  0  0  0  0  0  0  0  0  0
   -5.0071    2.5237    2.5144 C   0  0  0  0  0  0  0  0  0  0  0  0
   -4.3789    4.1108    2.1588 S   0  0  0  0  0  0  0  0  0  0  0  0
   -6.0697    1.9114    1.7589 C   0  0  0  0  0  0  0  0  0  0  0  0
   -6.9485    2.4147    0.8743 C   0  0  0  0  0  0  0  0  0  0  0  0
   -7.6503    1.6579    0.0293 C   0  0  0  0  0  0  0  0  0  0  0  0
   -7.5722    0.3491   -0.0487 C   0  0  0  0  0  0  0  0  0  0  0  0
   -6.2478    0.0142    1.3753 Se  0  0  0  0  0  2  0  0  0  0  0  0
   -7.8794   -0.6402   -1.0992 C   0  0  0  0  0  0  0  0  0  0  0  0
   -7.4150   -1.9135   -1.2032 C   0  0  0  0  0  0  0  0  0  0  0  0
   -7.4377   -2.4982   -2.4464 C   0  0  0  0  0  0  0  0  0  0  0  0
   -6.7075   -3.6493   -2.8261 C   0  0  0  0  0  0  0  0  0  0  0  0
   -6.0157   -4.5374   -1.9198 C   0  0  0  0  0  0  0  0  0  0  0  0
   -6.4822   -5.6826   -1.3487 C   0  0  0  0  0  0  0  0  0  0  0  0
   -5.6636   -6.4840   -0.5261 C   0  0  0  0  0  0  0  0  0  0  0  0
   -4.3606   -6.1271   -0.2763 C   0  0  0  0  0  0  0  0  0  0  0  0
   -3.2648   -7.1522    0.7428 S   0  0  0  0  0  0  0  0  0  0  0  0
   -3.3167   -6.6505    2.4834 C   0  0  0  0  0  0  0  0  0  0  0  0
   -4.6673   -6.9395    3.1016 C   0  0  0  0  0  0  0  0  0  0  0  0
   -3.8840   -4.9699   -0.8504 C   0  0  0  0  0  0  0  0  0  0  0  0
   -2.5863   -4.6295   -0.5997 F   0  0  0  0  0  0  0  0  0  0  0  0
   -4.6893   -4.2001   -1.6450 C   0  0  0  0  0  0  0  0  0  0  0  0
   -6.5185   -3.9375   -4.1955 C   0  0  0  0  0  0  0  0  0  0  0  0
   -6.9872   -3.2008   -5.2059 C   0  0  0  0  0  0  0  0  0  0  0  0
   -7.7594   -2.0614   -4.8175 C   0  0  0  0  0  0  0  0  0  0  0  0
   -8.4143   -1.2672   -5.8152 C   0  0  0  0  0  0  0  0  0  0  0  0
   -9.5023   -1.9290   -6.4366 C   0  0  0  0  0  0  0  0  0  0  0  0
  -10.2141   -1.3548   -7.4544 C   0  0  0  0  0  0  0  0  0  0  0  0
   -9.8962   -0.0833   -7.9291 C   0  0  0  0  0  0  0  0  0  0  0  0
  -10.8078    0.5782   -9.3073 S   0  0  0  0  0  0  0  0  0  0  0  0
  -12.3195    1.3609   -8.7572 C   0  0  0  0  0  0  0  0  0  0  0  0
  -12.0385    2.6045   -7.9970 C   0  0  0  0  0  0  0  0  0  0  0  0
   -8.8361    0.5617   -7.3249 C   0  0  0  0  0  0  0  0  0  0  0  0
   -8.1173   -0.0356   -6.2836 C   0  0  0  0  0  0  0  0  0  0  0  0
   -8.4843    1.7777   -7.7669 F   0  0  0  0  0  0  0  0  0  0  0  0
   -7.9354   -1.7689   -3.4692 C   0  0  0  0  0  0  0  0  0  0  0  0
   -8.3822   -0.2707   -2.7101 S   0  0  0  0  0  0  0  0  0  0  0  0
   -6.4019   -3.3860   -6.4522 C   0  0  0  0  0  0  0  0  0  0  0  0
   -5.4176   -4.2617   -6.5638 C   0  0  0  0  0  0  0  0  0  0  0  0
   -5.2978   -4.9069   -4.9268 S   0  0  0  0  0  0  0  0  0  0  0  0
   -4.0628   -4.1431   -7.3571 C   0  0  0  0  0  0  0  0  0  0  0  0
   -2.9676   -4.8567   -7.1497 C   0  0  0  0  0  0  0  0  0  0  0  0
   -1.7449   -4.2081   -7.3077 C   0  0  0  0  0  0  0  0  0  0  0  0
   -0.5342   -4.6508   -6.7160 C   0  0  0  0  0  0  0  0  0  0  0  0
   -0.3158   -6.0346   -6.3751 C   0  0  0  0  0  0  0  0  0  0  0  0
    0.0579   -6.9371   -7.3717 C   0  0  0  0  0  0  0  0  0  0  0  0
    0.2408   -8.2855   -7.1216 C   0  0  0  0  0  0  0  0  0  0  0  0
    0.0590   -8.7965   -5.8582 C   0  0  0  0  0  0  0  0  0  0  0  0
    0.2765  -10.5473   -5.5378 S   0  0  0  0  0  0  0  0  0  0  0  0
    2.0167  -10.9045   -5.1404 C   0  0  0  0  0  0  0  0  0  0  0  0
    2.9317  -10.6549   -6.3007 C   0  0  0  0  0  0  0  0  0  0  0  0
   -0.3095   -7.9283   -4.8600 C   0  0  0  0  0  0  0  0  0  0  0  0
   -0.4937   -8.3956   -3.6011 F   0  0  0  0  0  0  0  0  0  0  0  0
   -0.4934   -6.5544   -5.1247 C   0  0  0  0  0  0  0  0  0  0  0  0
    0.4913   -3.7416   -6.5315 C   0  0  0  0  0  0  0  0  0  0  0  0
    0.5015   -2.4377   -6.8736 C   0  0  0  0  0  0  0  0  0  0  0  0
   -0.6947   -2.0090   -7.5005 C   0  0  0  0  0  0  0  0  0  0  0  0
   -0.9595   -0.6900   -8.0125 C   0  0  0  0  0  0  0  0  0  0  0  0
   -0.7965   -0.4704   -9.3625 C   0  0  0  0  0  0  0  0  0  0  0  0
   -1.1002    0.7230   -9.9847 C   0  0  0  0  0  0  0  0  0  0  0  0
   -1.5932    1.7475   -9.2151 C   0  0  0  0  0  0  0  0  0  0  0  0
   -2.0671    3.2664  -10.0257 S   0  0  0  0  0  0  0  0  0  0  0  0
   -1.9398    3.1762  -11.8091 C   0  0  0  0  0  0  0  0  0  0  0  0
   -0.5392    3.0386  -12.3280 C   0  0  0  0  0  0  0  0  0  0  0  0
   -1.7570    1.5432   -7.8630 C   0  0  0  0  0  0  0  0  0  0  0  0
   -1.4522    0.3473   -7.2429 C   0  0  0  0  0  0  0  0  0  0  0  0
   -2.2365    2.5558   -7.1066 F   0  0  0  0  0  0  0  0  0  0  0  0
   -1.7628   -2.9331   -7.6737 C   0  0  0  0  0  0  0  0  0  0  0  0
   -3.4672   -2.5814   -7.8298 S   0  0  0  0  0  0  0  0  0  0  0  0
    1.4584   -1.6357   -6.2766 C   0  0  0  0  0  0  0  0  0  0  0  0
    2.3003   -2.1796   -5.3931 C   0  0  0  0  0  0  0  0  0  0  0  0
    1.8016   -3.8490   -5.3970 S   0  0  0  0  0  0  0  0  0  0  0  0
    3.1762   -1.6254   -4.2999 C   0  0  0  0  0  0  0  0  0  0  0  0
    3.4726   -0.4396   -3.7858 C   0  0  0  0  0  0  0  0  0  0  0  0
    4.0336   -0.3806   -2.5431 C   0  0  0  0  0  0  0  0  0  0  0  0
    4.2508    0.7488   -1.7426 C   0  0  0  0  0  0  0  0  0  0  0  0
    4.1474    2.1237   -2.1981 C   0  0  0  0  0  0  0  0  0  0  0  0
    3.0036    2.8075   -2.4405 C   0  0  0  0  0  0  0  0  0  0  0  0
    2.9673    4.1209   -2.8829 C   0  0  0  0  0  0  0  0  0  0  0  0
    4.1355    4.8261   -3.1076 C   0  0  0  0  0  0  0  0  0  0  0  0
    4.0985    6.5074   -3.7036 S   0  0  0  0  0  0  0  0  0  0  0  0
    5.7074    7.2722   -3.8101 C   0  0  0  0  0  0  0  0  0  0  0  0
    6.3476    7.5161   -2.4657 C   0  0  0  0  0  0  0  0  0  0  0  0
    5.3272    4.1528   -2.8702 C   0  0  0  0  0  0  0  0  0  0  0  0
    6.4844    4.7984   -3.1126 F   0  0  0  0  0  0  0  0  0  0  0  0
    5.3440    2.8522   -2.4309 C   0  0  0  0  0  0  0  0  0  0  0  0
    4.6583    0.6055   -0.3987 C   0  0  0  0  0  0  0  0  0  0  0  0
    4.8762   -0.5970    0.2056 C   0  0  0  0  0  0  0  0  0  0  0  0
    4.6685   -1.7397   -0.5956 C   0  0  0  0  0  0  0  0  0  0  0  0
    4.6727   -3.0769   -0.0619 C   0  0  0  0  0  0  0  0  0  0  0  0
    3.4398   -3.5859    0.3607 C   0  0  0  0  0  0  0  0  0  0  0  0
    3.3140   -4.8521    0.8602 C   0  0  0  0  0  0  0  0  0  0  0  0
    4.4128   -5.6630    0.9559 C   0  0  0  0  0  0  0  0  0  0  0  0
    4.3026   -7.3302    1.5798 S   0  0  0  0  0  0  0  0  0  0  0  0
    4.4006   -7.2936    3.3814 C   0  0  0  0  0  0  0  0  0  0  0  0
    3.2301   -6.5966    4.0287 C   0  0  0  0  0  0  0  0  0  0  0  0
    5.6522   -5.1951    0.5475 C   0  0  0  0  0  0  0  0  0  0  0  0
    5.7416   -3.8813    0.0380 C   0  0  0  0  0  0  0  0  0  0  0  0
    6.7383   -5.9793    0.6237 F   0  0  0  0  0  0  0  0  0  0  0  0
    4.2641   -1.5454   -1.9092 C   0  0  0  0  0  0  0  0  0  0  0  0
    3.7224   -2.7082   -3.0199 S   0  0  0  0  0  0  0  0  0  0  0  0
    5.1535   -0.5994    1.5314 C   0  0  0  0  0  0  0  0  0  0  0  0
    5.1913    0.6122    2.1679 C   0  0  0  0  0  0  0  0  0  0  0  0
    4.8578    1.6919    0.9370 S   0  0  0  0  0  0  0  0  0  0  0  0
    5.4045    0.7687    3.6421 C   0  0  0  0  0  0  0  0  0  0  0  0
    5.8998   -0.2024    4.4658 C   0  0  0  0  0  0  0  0  0  0  0  0
    5.9868    0.0779    5.7653 C   0  0  0  0  0  0  0  0  0  0  0  0
    6.4382   -0.7877    6.7873 C   0  0  0  0  0  0  0  0  0  0  0  0
    6.9493   -2.1147    6.4967 C   0  0  0  0  0  0  0  0  0  0  0  0
    6.0342   -3.1326    6.3681 C   0  0  0  0  0  0  0  0  0  0  0  0
    6.4042   -4.4284    6.0730 C   0  0  0  0  0  0  0  0  0  0  0  0
    7.7458   -4.7083    5.8996 C   0  0  0  0  0  0  0  0  0  0  0  0
    8.2070   -6.3857    5.4881 S   0  0  0  0  0  0  0  0  0  0  0  0
    8.2634   -6.5204    3.6919 C   0  0  0  0  0  0  0  0  0  0  0  0
    8.4235   -7.9385    3.2148 C   0  0  0  0  0  0  0  0  0  0  0  0
    8.6720   -3.6856    6.0267 C   0  0  0  0  0  0  0  0  0  0  0  0
    9.9718   -3.9892    5.8468 F   0  0  0  0  0  0  0  0  0  0  0  0
    8.2782   -2.3984    6.3242 C   0  0  0  0  0  0  0  0  0  0  0  0
    6.4342   -0.3721    8.1017 C   0  0  0  0  0  0  0  0  0  0  0  0
    6.0160    0.8531    8.5269 C   0  0  0  0  0  0  0  0  0  0  0  0
    5.5681    1.7258    7.4957 C   0  0  0  0  0  0  0  0  0  0  0  0
    5.0400    3.0139    7.8864 C   0  0  0  0  0  0  0  0  0  0  0  0
    3.6786    3.2062    7.9900 C   0  0  0  0  0  0  0  0  0  0  0  0
    3.1754    4.4123    8.4834 C   0  0  0  0  0  0  0  0  0  0  0  0
    3.9664    5.4562    8.8837 C   0  0  0  0  0  0  0  0  0  0  0  0
    3.3823    6.9629    9.6189 S   0  0  0  0  0  0  0  0  0  0  0  0
    2.7864    8.1862    8.4859 C   0  0  0  0  0  0  0  0  0  0  0  0
    1.4428    7.7706    7.9215 C   0  0  0  0  0  0  0  0  0  0  0  0
    5.3612    5.2255    8.7594 C   0  0  0  0  0  0  0  0  0  0  0  0
    5.8587    4.0359    8.2753 C   0  0  0  0  0  0  0  0  0  0  0  0
    6.1436    6.2536    9.1716 F   0  0  0  0  0  0  0  0  0  0  0  0
    5.5734    1.3163    6.1841 C   0  0  0  0  0  0  0  0  0  0  0  0
    5.0813    2.0458    4.7067 S   0  0  0  0  0  0  0  0  0  0  0  0
    6.0853    1.0957    9.8660 C   0  0  0  0  0  0  0  0  0  0  0  0
    6.5611    0.1025   10.6594 C   0  0  0  0  0  0  0  0  0  0  0  0
    6.9094   -1.1502    9.5688 S   0  0  0  0  0  0  0  0  0  0  0  0
    1.7328    5.5767    6.1400 H   0  0  0  0  0  0  0  0  0  0  0  0
    0.1657    6.6091    4.3960 H   0  0  0  0  0  0  0  0  0  0  0  0
   -0.4912    5.7671    1.4572 H   0  0  0  0  0  0  0  0  0  0  0  0
   -0.4113    7.8975    0.2610 H   0  0  0  0  0  0  0  0  0  0  0  0
   -0.4964   11.3367   -1.1684 H   0  0  0  0  0  0  0  0  0  0  0  0
   -0.6240    9.5957   -1.3447 H   0  0  0  0  0  0  0  0  0  0  0  0
    1.5767    9.6735   -0.4543 H   0  0  0  0  0  0  0  0  0  0  0  0
    0.7442    9.9156    1.1160 H   0  0  0  0  0  0  0  0  0  0  0  0
    1.3396   11.3045    0.1732 H   0  0  0  0  0  0  0  0  0  0  0  0
   -3.6545    7.3002    3.8817 H   0  0  0  0  0  0  0  0  0  0  0  0
   -3.5486    2.3022    7.0033 H   0  0  0  0  0  0  0  0  0  0  0  0
   -3.3333    0.4570    8.7027 H   0  0  0  0  0  0  0  0  0  0  0  0
   -2.7448   -4.0129    9.3552 H   0  0  0  0  0  0  0  0  0  0  0  0
   -3.8537   -3.0047    8.3625 H   0  0  0  0  0  0  0  0  0  0  0  0
   -2.8814   -5.0766    7.2821 H   0  0  0  0  0  0  0  0  0  0  0  0
   -2.8129   -3.5494    6.3476 H   0  0  0  0  0  0  0  0  0  0  0  0
   -1.3072   -4.2256    7.1807 H   0  0  0  0  0  0  0  0  0  0  0  0
   -0.6580    0.3952    4.5495 H   0  0  0  0  0  0  0  0  0  0  0  0
   -4.3515    1.0816    3.9253 H   0  0  0  0  0  0  0  0  0  0  0  0
   -7.0465    3.5549    0.8953 H   0  0  0  0  0  0  0  0  0  0  0  0
   -8.3811    2.1774   -0.6883 H   0  0  0  0  0  0  0  0  0  0  0  0
   -7.0469   -2.4643   -0.3038 H   0  0  0  0  0  0  0  0  0  0  0  0
   -7.4941   -5.9640   -1.5667 H   0  0  0  0  0  0  0  0  0  0  0  0
   -6.0632   -7.3872   -0.0796 H   0  0  0  0  0  0  0  0  0  0  0  0
   -2.4834   -7.1140    3.0152 H   0  0  0  0  0  0  0  0  0  0  0  0
   -3.1681   -5.5374    2.5460 H   0  0  0  0  0  0  0  0  0  0  0  0
   -4.6176   -7.0344    4.1901 H   0  0  0  0  0  0  0  0  0  0  0  0
   -5.0439   -7.9007    2.6547 H   0  0  0  0  0  0  0  0  0  0  0  0
   -5.3859   -6.1331    2.8564 H   0  0  0  0  0  0  0  0  0  0  0  0
   -4.3035   -3.2709   -2.0950 H   0  0  0  0  0  0  0  0  0  0  0  0
   -9.7825   -2.9263   -6.1138 H   0  0  0  0  0  0  0  0  0  0  0  0
  -11.0629   -1.8494   -7.9399 H   0  0  0  0  0  0  0  0  0  0  0  0
  -12.9703    1.6032   -9.6365 H   0  0  0  0  0  0  0  0  0  0  0  0
  -12.9484    0.6851   -8.1236 H   0  0  0  0  0  0  0  0  0  0  0  0
  -11.0107    2.6509   -7.6296 H   0  0  0  0  0  0  0  0  0  0  0  0
  -12.7175    2.7505   -7.1184 H   0  0  0  0  0  0  0  0  0  0  0  0
  -12.1936    3.4798   -8.6714 H   0  0  0  0  0  0  0  0  0  0  0  0
   -7.2855    0.4980   -5.8193 H   0  0  0  0  0  0  0  0  0  0  0  0
   -6.7566   -2.7959   -7.3285 H   0  0  0  0  0  0  0  0  0  0  0  0
   -3.0178   -5.9190   -6.8822 H   0  0  0  0  0  0  0  0  0  0  0  0
    0.2099   -6.5182   -8.3678 H   0  0  0  0  0  0  0  0  0  0  0  0
    0.5275   -8.9452   -7.9192 H   0  0  0  0  0  0  0  0  0  0  0  0
    2.1026  -11.9925   -4.8752 H   0  0  0  0  0  0  0  0  0  0  0  0
    2.3627  -10.3637   -4.2608 H   0  0  0  0  0  0  0  0  0  0  0  0
    3.5889  -11.5233   -6.5536 H   0  0  0  0  0  0  0  0  0  0  0  0
    2.3466  -10.3565   -7.1970 H   0  0  0  0  0  0  0  0  0  0  0  0
    3.6049   -9.7904   -6.0966 H   0  0  0  0  0  0  0  0  0  0  0  0
   -0.7816   -5.8765   -4.3384 H   0  0  0  0  0  0  0  0  0  0  0  0
   -0.4060   -1.2569  -10.0083 H   0  0  0  0  0  0  0  0  0  0  0  0
   -0.9703    0.8514  -11.0636 H   0  0  0  0  0  0  0  0  0  0  0  0
   -2.3819    4.1190  -12.2409 H   0  0  0  0  0  0  0  0  0  0  0  0
   -2.5998    2.3589  -12.2290 H   0  0  0  0  0  0  0  0  0  0  0  0
   -0.4882    2.2115  -13.1003 H   0  0  0  0  0  0  0  0  0  0  0  0
   -0.2145    3.9438  -12.9035 H   0  0  0  0  0  0  0  0  0  0  0  0
    0.2070    2.8684  -11.5421 H   0  0  0  0  0  0  0  0  0  0  0  0
   -1.5746    0.1749   -6.2013 H   0  0  0  0  0  0  0  0  0  0  0  0
    1.5126   -0.5589   -6.5385 H   0  0  0  0  0  0  0  0  0  0  0  0
    3.2658    0.4811   -4.3797 H   0  0  0  0  0  0  0  0  0  0  0  0
    2.0584    2.2672   -2.2748 H   0  0  0  0  0  0  0  0  0  0  0  0
    2.0460    4.6623   -3.0659 H   0  0  0  0  0  0  0  0  0  0  0  0
    6.3601    6.6335   -4.4535 H   0  0  0  0  0  0  0  0  0  0  0  0
    5.6272    8.2421   -4.3076 H   0  0  0  0  0  0  0  0  0  0  0  0
    5.7278    6.9690   -1.7204 H   0  0  0  0  0  0  0  0  0  0  0  0
    7.3987    7.2290   -2.5073 H   0  0  0  0  0  0  0  0  0  0  0  0
    6.3373    8.6101   -2.2073 H   0  0  0  0  0  0  0  0  0  0  0  0
    6.2498    2.3034   -2.2200 H   0  0  0  0  0  0  0  0  0  0  0  0
    2.5896   -2.9136    0.2746 H   0  0  0  0  0  0  0  0  0  0  0  0
    2.3648   -5.2302    1.1879 H   0  0  0  0  0  0  0  0  0  0  0  0
    5.3038   -6.8005    3.7848 H   0  0  0  0  0  0  0  0  0  0  0  0
    4.3395   -8.3634    3.7723 H   0  0  0  0  0  0  0  0  0  0  0  0
    3.2199   -6.9029    5.1069 H   0  0  0  0  0  0  0  0  0  0  0  0
    3.4053   -5.4895    4.0411 H   0  0  0  0  0  0  0  0  0  0  0  0
    2.2981   -6.8597    3.5070 H   0  0  0  0  0  0  0  0  0  0  0  0
    6.7515   -3.5910   -0.2595 H   0  0  0  0  0  0  0  0  0  0  0  0
    5.3476   -1.5221    2.1462 H   0  0  0  0  0  0  0  0  0  0  0  0
    6.1953   -1.1828    4.0133 H   0  0  0  0  0  0  0  0  0  0  0  0
    4.9513   -2.9484    6.4819 H   0  0  0  0  0  0  0  0  0  0  0  0
    5.6619   -5.2319    5.9766 H   0  0  0  0  0  0  0  0  0  0  0  0
    7.4092   -6.0186    3.2094 H   0  0  0  0  0  0  0  0  0  0  0  0
    9.2213   -5.9911    3.3699 H   0  0  0  0  0  0  0  0  0  0  0  0
    9.0433   -8.5564    3.8812 H   0  0  0  0  0  0  0  0  0  0  0  0
    7.4588   -8.4685    3.0456 H   0  0  0  0  0  0  0  0  0  0  0  0
    8.9233   -7.9058    2.2272 H   0  0  0  0  0  0  0  0  0  0  0  0
    9.0015   -1.5924    6.4361 H   0  0  0  0  0  0  0  0  0  0  0  0
    2.9286    2.4699    7.6981 H   0  0  0  0  0  0  0  0  0  0  0  0
    2.0855    4.5361    8.5504 H   0  0  0  0  0  0  0  0  0  0  0  0
    2.6952    9.1570    9.0259 H   0  0  0  0  0  0  0  0  0  0  0  0
    3.5424    8.2851    7.6562 H   0  0  0  0  0  0  0  0  0  0  0  0
    1.3102    7.9313    6.8475 H   0  0  0  0  0  0  0  0  0  0  0  0
    0.6535    8.3352    8.5054 H   0  0  0  0  0  0  0  0  0  0  0  0
    1.2627    6.7040    8.1674 H   0  0  0  0  0  0  0  0  0  0  0  0
    6.9493    3.9695    8.2253 H   0  0  0  0  0  0  0  0  0  0  0  0
    5.7717    2.0600   10.3362 H   0  0  0  0  0  0  0  0  0  0  0  0
    6.6758    0.1582   11.7637 H   0  0  0  0  0  0  0  0  0  0  0  0
  1  2  2  0
  2  3  1  0
  3  4  2  0
  4  5  1  0
  5  6  2  0
  6  7  1  0
  7  8  2  0
  8  9  1  0
  9 10  1  0
 10 11  1  0
  8 12  1  0
 12 13  1  0
 12 14  2  0
  4 15  1  0
 15 16  2  0
 16 17  1  0
 17 18  1  0
 18 19  2  0
 19 20  1  0
 20 21  2  0
 21 22  1  0
 22 23  1  0
 23 24  1  0
 21 25  1  0
 25 26  2  0
 25 27  1  0
 17 28  2  0
 28 29  1  0
 16 30  1  0
 30 31  2  0
 31 32  1  0
 31 33  1  0
 33 34  2  0
 34 35  1  0
 35 36  2  0
 36 37  1  0
 36 38  1  0
 38 39  2  0
 39 40  1  0
 40 41  2  0
 41 42  1  0
 42 43  2  0
 43 44  1  0
 44 45  2  0
 45 46  1  0
 46 47  1  0
 47 48  1  0
 45 49  1  0
 49 50  1  0
 49 51  2  0
 41 52  1  0
 52 53  2  0
 53 54  1  0
 54 55  1  0
 55 56  2  0
 56 57  1  0
 57 58  2  0
 58 59  1  0
 59 60  1  0
 60 61  1  0
 58 62  1  0
 62 63  2  0
 62 64  1  0
 54 65  2  0
 65 66  1  0
 53 67  1  0
 67 68  2  0
 68 69  1  0
 68 70  1  0
 70 71  2  0
 71 72  1  0
 72 73  2  0
 73 74  1  0
 74 75  2  0
 75 76  1  0
 76 77  2  0
 77 78  1  0
 78 79  1  0
 79 80  1  0
 77 81  1  0
 81 82  1  0
 81 83  2  0
 73 84  1  0
 84 85  2  0
 85 86  1  0
 86 87  1  0
 87 88  2  0
 88 89  1  0
 89 90  2  0
 90 91  1  0
 91 92  1  0
 92 93  1  0
 90 94  1  0
 94 95  2  0
 94 96  1  0
 86 97  2  0
 97 98  1  0
 85 99  1  0
 99100  2  0
100101  1  0
100102  1  0
102103  2  0
103104  1  0
104105  2  0
105106  1  0
106107  2  0
107108  1  0
108109  2  0
109110  1  0
110111  1  0
111112  1  0
109113  1  0
113114  1  0
113115  2  0
105116  1  0
116117  2  0
117118  1  0
118119  1  0
119120  2  0
120121  1  0
121122  2  0
122123  1  0
123124  1  0
124125  1  0
122126  1  0
126127  2  0
126128  1  0
118129  2  0
129130  1  0
117131  1  0
131132  2  0
132133  1  0
132134  1  0
134135  2  0
135136  1  0
136137  2  0
137138  1  0
138139  2  0
139140  1  0
140141  2  0
141142  1  0
142143  1  0
143144  1  0
141145  1  0
145146  1  0
145147  2  0
137148  1  0
148149  2  0
149150  1  0
150151  1  0
151152  2  0
152153  1  0
153154  2  0
154155  1  0
155156  1  0
156157  1  0
154158  1  0
158159  2  0
158160  1  0
150161  2  0
161162  1  0
149163  1  0
163164  2  0
164165  1  0
 29  1  1  0
 37 33  1  0
 66 38  1  0
 98 70  1  0
130102  1  0
162134  1  0
 28  3  1  0
 65 40  1  0
 97 72  1  0
129104  1  0
161136  1  0
 14  5  1  0
 32 15  1  0
 51 42  1  0
 69 52  1  0
 83 74  1  0
101 84  1  0
115106  1  0
133116  1  0
147138  1  0
165148  1  0
 26 18  1  0
 63 55  1  0
 95 87  1  0
127119  1  0
159151  1  0
  1166  1  0
  2167  1  0
  6168  1  0
  7169  1  0
 10170  1  0
 10171  1  0
 11172  1  0
 11173  1  0
 11174  1  0
 14175  1  0
 19176  1  0
 20177  1  0
 23178  1  0
 23179  1  0
 24180  1  0
 24181  1  0
 24182  1  0
 26183  1  0
 30184  1  0
 34185  1  0
 35186  1  0
 39187  1  0
 43188  1  0
 44189  1  0
 47190  1  0
 47191  1  0
 48192  1  0
 48193  1  0
 48194  1  0
 51195  1  0
 56196  1  0
 57197  1  0
 60198  1  0
 60199  1  0
 61200  1  0
 61201  1  0
 61202  1  0
 63203  1  0
 67204  1  0
 71205  1  0
 75206  1  0
 76207  1  0
 79208  1  0
 79209  1  0
 80210  1  0
 80211  1  0
 80212  1  0
 83213  1  0
 88214  1  0
 89215  1  0
 92216  1  0
 92217  1  0
 93218  1  0
 93219  1  0
 93220  1  0
 95221  1  0
 99222  1  0
103223  1  0
107224  1  0
108225  1  0
111226  1  0
111227  1  0
112228  1  0
112229  1  0
112230  1  0
115231  1  0
120232  1  0
121233  1  0
124234  1  0
124235  1  0
125236  1  0
125237  1  0
125238  1  0
127239  1  0
131240  1  0
135241  1  0
139242  1  0
140243  1  0
143244  1  0
143245  1  0
144246  1  0
144247  1  0
144248  1  0
147249  1  0
152250  1  0
153251  1  0
156252  1  0
156253  1  0
157254  1  0
157255  1  0
157256  1  0
159257  1  0
163258  1  0
164259  1  0
M  END

