
     RDKit          3D

288316  0  0  0  0  0  0  0  0999 V2000
   -2.2444   -7.1275    6.6471 C   0  0  0  0  0  0  0  0  0  0  0  0
   -2.4267   -5.7481    6.6546 C   0  0  0  0  0  0  0  0  0  0  0  0
   -3.5812   -5.3346    5.9643 C   0  0  0  0  0  0  0  0  0  0  0  0
   -4.0056   -4.0024    5.7561 C   0  0  0  0  0  0  0  0  0  0  0  0
   -3.2223   -2.8380    6.2385 C   0  0  0  0  0  0  0  0  0  0  0  0
   -2.7663   -1.8717    5.3271 C   0  0  0  0  0  0  0  0  0  0  0  0
   -2.0224   -0.7758    5.7700 C   0  0  0  0  0  0  0  0  0  0  0  0
   -1.6804   -0.6558    7.1202 C   0  0  0  0  0  0  0  0  0  0  0  0
   -0.6983    0.7424    7.6746 S   0  0  0  0  0  0  0  0  0  0  0  0
    0.9266   -0.0182    7.3197 C   0  0  0  0  0  0  0  0  0  0  0  0
    1.4072    0.3769    5.9281 C   0  0  0  0  0  0  0  0  0  0  0  0
   -2.1270   -1.6174    8.0373 C   0  0  0  0  0  0  0  0  0  0  0  0
   -1.8149   -1.5067    9.3537 F   0  0  0  0  0  0  0  0  0  0  0  0
   -2.9084   -2.6960    7.6003 C   0  0  0  0  0  0  0  0  0  0  0  0
   -5.1676   -3.8291    4.9775 C   0  0  0  0  0  0  0  0  0  0  0  0
   -5.8631   -4.8991    4.4012 C   0  0  0  0  0  0  0  0  0  0  0  0
   -5.4258   -6.2243    4.5948 C   0  0  0  0  0  0  0  0  0  0  0  0
   -6.0733   -7.3689    3.9170 C   0  0  0  0  0  0  0  0  0  0  0  0
   -6.1132   -7.4295    2.5138 C   0  0  0  0  0  0  0  0  0  0  0  0
   -6.7387   -8.5008    1.8725 C   0  0  0  0  0  0  0  0  0  0  0  0
   -7.3138   -9.5305    2.6254 C   0  0  0  0  0  0  0  0  0  0  0  0
   -8.0835  -10.9137    1.7833 S   0  0  0  0  0  0  0  0  0  0  0  0
   -6.5224  -11.8501    1.6677 C   0  0  0  0  0  0  0  0  0  0  0  0
   -6.7617  -13.1727    0.9585 C   0  0  0  0  0  0  0  0  0  0  0  0
   -7.2707   -9.4818    4.0256 C   0  0  0  0  0  0  0  0  0  0  0  0
   -6.6507   -8.4050    4.6690 C   0  0  0  0  0  0  0  0  0  0  0  0
   -7.8229  -10.4775    4.7646 F   0  0  0  0  0  0  0  0  0  0  0  0
   -4.2885   -6.4041    5.4031 C   0  0  0  0  0  0  0  0  0  0  0  0
   -3.4933   -7.8417    5.7644 S   0  0  0  0  0  0  0  0  0  0  0  0
   -6.9469   -4.4933    3.6002 C   0  0  0  0  0  0  0  0  0  0  0  0
   -7.0869   -3.1099    3.5281 C   0  0  0  0  0  0  0  0  0  0  0  0
   -5.8946   -2.3906    4.4866 S   0  0  0  0  0  0  0  0  0  0  0  0
   -7.8631   -2.3994    2.4998 C   0  0  0  0  0  0  0  0  0  0  0  0
   -7.8046   -1.0228    2.2952 C   0  0  0  0  0  0  0  0  0  0  0  0
   -8.1578   -0.6428    0.9897 C   0  0  0  0  0  0  0  0  0  0  0  0
   -7.9557    0.6327    0.4262 C   0  0  0  0  0  0  0  0  0  0  0  0
   -7.3945    1.7510    1.2139 C   0  0  0  0  0  0  0  0  0  0  0  0
   -6.1143    1.6485    1.7809 C   0  0  0  0  0  0  0  0  0  0  0  0
   -5.6086    2.6856    2.5649 C   0  0  0  0  0  0  0  0  0  0  0  0
   -6.3640    3.8433    2.7745 C   0  0  0  0  0  0  0  0  0  0  0  0
   -5.6853    5.1794    3.7657 S   0  0  0  0  0  0  0  0  0  0  0  0
   -6.4527    4.6463    5.3371 C   0  0  0  0  0  0  0  0  0  0  0  0
   -5.6579    3.5206    5.9863 C   0  0  0  0  0  0  0  0  0  0  0  0
   -7.6315    3.9636    2.1864 C   0  0  0  0  0  0  0  0  0  0  0  0
   -8.3731    5.0824    2.3755 F   0  0  0  0  0  0  0  0  0  0  0  0
   -8.1444    2.9187    1.4093 C   0  0  0  0  0  0  0  0  0  0  0  0
   -8.0929    0.7369   -0.9690 C   0  0  0  0  0  0  0  0  0  0  0  0
   -8.4486   -0.3511   -1.7749 C   0  0  0  0  0  0  0  0  0  0  0  0
   -8.7358   -1.6073   -1.1996 C   0  0  0  0  0  0  0  0  0  0  0  0
   -8.9587   -2.7997   -2.0473 C   0  0  0  0  0  0  0  0  0  0  0  0
  -10.1122   -2.8933   -2.8419 C   0  0  0  0  0  0  0  0  0  0  0  0
  -10.2874   -3.9795   -3.7061 C   0  0  0  0  0  0  0  0  0  0  0  0
   -9.3068   -4.9737   -3.7928 C   0  0  0  0  0  0  0  0  0  0  0  0
   -9.5118   -6.3467   -4.9353 S   0  0  0  0  0  0  0  0  0  0  0  0
   -8.5477   -5.5775   -6.2890 C   0  0  0  0  0  0  0  0  0  0  0  0
   -9.4485   -4.7292   -7.1772 C   0  0  0  0  0  0  0  0  0  0  0  0
   -8.1628   -4.8952   -2.9848 C   0  0  0  0  0  0  0  0  0  0  0  0
   -7.9874   -3.8087   -2.1242 C   0  0  0  0  0  0  0  0  0  0  0  0
   -7.2076   -5.8548   -3.0557 F   0  0  0  0  0  0  0  0  0  0  0  0
   -8.5561   -1.7215    0.1911 C   0  0  0  0  0  0  0  0  0  0  0  0
   -8.4443   -3.1348    1.0947 S   0  0  0  0  0  0  0  0  0  0  0  0
   -8.1874   -0.1369   -3.1395 C   0  0  0  0  0  0  0  0  0  0  0  0
   -7.5308    1.0687   -3.4013 C   0  0  0  0  0  0  0  0  0  0  0  0
   -7.4212    1.9242   -1.9462 S   0  0  0  0  0  0  0  0  0  0  0  0
   -6.5013    1.1868   -4.4562 C   0  0  0  0  0  0  0  0  0  0  0  0
   -5.4666    2.1280   -4.4135 C   0  0  0  0  0  0  0  0  0  0  0  0
   -4.2683    1.6762   -4.9979 C   0  0  0  0  0  0  0  0  0  0  0  0
   -3.0017    2.2814   -4.8390 C   0  0  0  0  0  0  0  0  0  0  0  0
   -2.8485    3.6026   -4.1840 C   0  0  0  0  0  0  0  0  0  0  0  0
   -2.0752    3.7345   -3.0183 C   0  0  0  0  0  0  0  0  0  0  0  0
   -1.9146    4.9851   -2.4150 C   0  0  0  0  0  0  0  0  0  0  0  0
   -2.5361    6.1138   -2.9623 C   0  0  0  0  0  0  0  0  0  0  0  0
   -2.3288    7.7146   -2.1750 S   0  0  0  0  0  0  0  0  0  0  0  0
   -0.9569    8.2594   -3.2547 C   0  0  0  0  0  0  0  0  0  0  0  0
    0.3832    7.7907   -2.7085 C   0  0  0  0  0  0  0  0  0  0  0  0
   -3.3371    5.9831   -4.1044 C   0  0  0  0  0  0  0  0  0  0  0  0
   -3.9612    7.0648   -4.6305 F   0  0  0  0  0  0  0  0  0  0  0  0
   -3.4842    4.7354   -4.7184 C   0  0  0  0  0  0  0  0  0  0  0  0
   -1.8792    1.5066   -5.1999 C   0  0  0  0  0  0  0  0  0  0  0  0
   -1.9936    0.2047   -5.7007 C   0  0  0  0  0  0  0  0  0  0  0  0
   -3.2620   -0.3808   -5.9026 C   0  0  0  0  0  0  0  0  0  0  0  0
   -3.4159   -1.8178   -6.2200 C   0  0  0  0  0  0  0  0  0  0  0  0
   -2.9133   -2.7893   -5.3386 C   0  0  0  0  0  0  0  0  0  0  0  0
   -3.0762   -4.1476   -5.6204 C   0  0  0  0  0  0  0  0  0  0  0  0
   -3.7505   -4.5498   -6.7796 C   0  0  0  0  0  0  0  0  0  0  0  0
   -3.9436   -6.2995   -7.1391 S   0  0  0  0  0  0  0  0  0  0  0  0
   -2.4226   -6.4317   -8.1453 C   0  0  0  0  0  0  0  0  0  0  0  0
   -1.2315   -6.8128   -7.2784 C   0  0  0  0  0  0  0  0  0  0  0  0
   -4.2809   -3.5832   -7.6473 C   0  0  0  0  0  0  0  0  0  0  0  0
   -4.1103   -2.2211   -7.3686 C   0  0  0  0  0  0  0  0  0  0  0  0
   -4.9511   -3.9593   -8.7640 F   0  0  0  0  0  0  0  0  0  0  0  0
   -4.3803    0.3940   -5.5486 C   0  0  0  0  0  0  0  0  0  0  0  0
   -5.9409   -0.1639   -5.3044 S   0  0  0  0  0  0  0  0  0  0  0  0
   -0.7569   -0.4470   -5.8369 C   0  0  0  0  0  0  0  0  0  0  0  0
    0.3208    0.3236   -5.4103 C   0  0  0  0  0  0  0  0  0  0  0  0
   -0.2480    1.8383   -4.9236 S   0  0  0  0  0  0  0  0  0  0  0  0
    1.6582   -0.2119   -5.1062 C   0  0  0  0  0  0  0  0  0  0  0  0
    2.7372    0.5232   -4.6147 C   0  0  0  0  0  0  0  0  0  0  0  0
    3.7981   -0.2897   -4.1715 C   0  0  0  0  0  0  0  0  0  0  0  0
    4.9910    0.1473   -3.5590 C   0  0  0  0  0  0  0  0  0  0  0  0
    5.2399    1.5668   -3.2291 C   0  0  0  0  0  0  0  0  0  0  0  0
    4.3817    2.2456   -2.3482 C   0  0  0  0  0  0  0  0  0  0  0  0
    4.6674    3.5568   -1.9581 C   0  0  0  0  0  0  0  0  0  0  0  0
    5.8079    4.2034   -2.4466 C   0  0  0  0  0  0  0  0  0  0  0  0
    6.1831    5.8791   -1.9118 S   0  0  0  0  0  0  0  0  0  0  0  0
    5.3989    6.6922   -3.3497 C   0  0  0  0  0  0  0  0  0  0  0  0
    3.9027    6.8664   -3.1325 C   0  0  0  0  0  0  0  0  0  0  0  0
    6.6691    3.5313   -3.3241 C   0  0  0  0  0  0  0  0  0  0  0  0
    7.7855    4.1414   -3.7945 F   0  0  0  0  0  0  0  0  0  0  0  0
    6.3840    2.2190   -3.7160 C   0  0  0  0  0  0  0  0  0  0  0  0
    5.8773   -0.8538   -3.1214 C   0  0  0  0  0  0  0  0  0  0  0  0
    5.6029   -2.2219   -3.2353 C   0  0  0  0  0  0  0  0  0  0  0  0
    4.4058   -2.6536   -3.8369 C   0  0  0  0  0  0  0  0  0  0  0  0
    3.9644   -4.0563   -3.7619 C   0  0  0  0  0  0  0  0  0  0  0  0
    4.3305   -4.9779   -4.7511 C   0  0  0  0  0  0  0  0  0  0  0  0
    3.8642   -6.2969   -4.6835 C   0  0  0  0  0  0  0  0  0  0  0  0
    3.0362   -6.6989   -3.6276 C   0  0  0  0  0  0  0  0  0  0  0  0
    2.4431   -8.3931   -3.5502 S   0  0  0  0  0  0  0  0  0  0  0  0
    0.9414   -8.0991   -4.5524 C   0  0  0  0  0  0  0  0  0  0  0  0
   -0.1712   -7.4816   -3.7123 C   0  0  0  0  0  0  0  0  0  0  0  0
    2.6996   -5.7835   -2.6192 C   0  0  0  0  0  0  0  0  0  0  0  0
    3.1560   -4.4658   -2.6937 C   0  0  0  0  0  0  0  0  0  0  0  0
    1.9310   -6.1647   -1.5676 F   0  0  0  0  0  0  0  0  0  0  0  0
    3.5390   -1.6584   -4.3198 C   0  0  0  0  0  0  0  0  0  0  0  0
    2.0105   -1.8604   -4.9876 S   0  0  0  0  0  0  0  0  0  0  0  0
    6.5429   -3.0392   -2.5779 C   0  0  0  0  0  0  0  0  0  0  0  0
    7.5388   -2.3061   -1.9361 C   0  0  0  0  0  0  0  0  0  0  0  0
    7.2558   -0.6626   -2.1885 S   0  0  0  0  0  0  0  0  0  0  0  0
    8.4347   -2.7614   -0.8624 C   0  0  0  0  0  0  0  0  0  0  0  0
    9.8071   -2.4772   -0.9947 C   0  0  0  0  0  0  0  0  0  0  0  0
   10.5873   -2.1808    0.1360 C   0  0  0  0  0  0  0  0  0  0  0  0
    9.9830   -2.0669    1.3948 C   0  0  0  0  0  0  0  0  0  0  0  0
    8.6338   -2.4059    1.5221 C   0  0  0  0  0  0  0  0  0  0  0  0
    7.9166   -2.8962    0.4406 C   0  0  0  0  0  0  0  0  0  0  0  0
    6.5394   -3.0806    0.7708 N   0  0  0  0  0  0  0  0  0  0  0  0
    5.7072   -4.1788    0.2915 C   0  0  0  0  0  0  0  0  0  0  0  0
    6.4036   -2.5250    2.0745 C   0  0  0  0  0  0  0  0  0  0  0  0
    5.2915   -2.4439    2.6639 O   0  0  0  0  0  0  0  0  0  0  0  0
    7.6775   -1.8894    2.5563 C   0  0  0  0  0  0  0  0  0  0  0  0
    8.1167   -2.0911    4.0473 C   0  0  0  0  0  0  0  0  0  0  0  0
    7.0315   -2.6860    4.8995 C   0  0  0  0  0  0  0  0  0  0  0  0
    6.7153   -3.9047    4.8850 O   0  0  0  0  0  0  0  0  0  0  0  0
    6.3502   -1.7102    5.6831 N   0  0  0  0  0  0  0  0  0  0  0  0
    4.9797   -1.8328    6.1655 C   0  0  0  0  0  0  0  0  0  0  0  0
    7.0399   -0.4939    5.4098 C   0  0  0  0  0  0  0  0  0  0  0  0
    6.4871    0.7936    5.4707 C   0  0  0  0  0  0  0  0  0  0  0  0
    7.1558    1.8545    4.8210 C   0  0  0  0  0  0  0  0  0  0  0  0
    8.4497    1.6300    4.2913 C   0  0  0  0  0  0  0  0  0  0  0  0
    8.9667    0.3362    4.2097 C   0  0  0  0  0  0  0  0  0  0  0  0
    8.1898   -0.7248    4.6777 C   0  0  0  0  0  0  0  0  0  0  0  0
    6.4159    3.0807    4.4378 C   0  0  0  0  0  0  0  0  0  0  0  0
    6.9792    4.2426    3.9012 C   0  0  0  0  0  0  0  0  0  0  0  0
    6.0474    5.0803    3.2632 C   0  0  0  0  0  0  0  0  0  0  0  0
    6.3494    6.2418    2.5211 C   0  0  0  0  0  0  0  0  0  0  0  0
    7.7458    6.6680    2.2590 C   0  0  0  0  0  0  0  0  0  0  0  0
    8.1861    7.9483    2.6290 C   0  0  0  0  0  0  0  0  0  0  0  0
    9.4965    8.3514    2.3485 C   0  0  0  0  0  0  0  0  0  0  0  0
   10.3720    7.4855    1.6838 C   0  0  0  0  0  0  0  0  0  0  0  0
   12.0621    8.0054    1.3553 S   0  0  0  0  0  0  0  0  0  0  0  0
   11.6779    8.9309   -0.1739 C   0  0  0  0  0  0  0  0  0  0  0  0
   11.4545    7.9907   -1.3519 C   0  0  0  0  0  0  0  0  0  0  0  0
    9.9380    6.2054    1.3099 C   0  0  0  0  0  0  0  0  0  0  0  0
   10.7809    5.3471    0.6862 F   0  0  0  0  0  0  0  0  0  0  0  0
    8.6279    5.8052    1.5878 C   0  0  0  0  0  0  0  0  0  0  0  0
    5.2638    6.9150    1.9359 C   0  0  0  0  0  0  0  0  0  0  0  0
    3.9483    6.4487    2.0227 C   0  0  0  0  0  0  0  0  0  0  0  0
    3.6529    5.2481    2.7068 C   0  0  0  0  0  0  0  0  0  0  0  0
    2.3078    4.6228    2.6398 C   0  0  0  0  0  0  0  0  0  0  0  0
    1.7192    4.3762    1.3884 C   0  0  0  0  0  0  0  0  0  0  0  0
    0.4540    3.7990    1.3017 C   0  0  0  0  0  0  0  0  0  0  0  0
   -0.2306    3.4345    2.4641 C   0  0  0  0  0  0  0  0  0  0  0  0
   -1.8563    2.6971    2.3278 S   0  0  0  0  0  0  0  0  0  0  0  0
   -1.2110    1.0062    2.1159 C   0  0  0  0  0  0  0  0  0  0  0  0
   -2.3602    0.0421    1.8766 C   0  0  0  0  0  0  0  0  0  0  0  0
    0.3491    3.6627    3.7201 C   0  0  0  0  0  0  0  0  0  0  0  0
    1.6188    4.2525    3.8066 C   0  0  0  0  0  0  0  0  0  0  0  0
   -0.3147    3.3245    4.8550 F   0  0  0  0  0  0  0  0  0  0  0  0
    4.7337    4.6043    3.3416 C   0  0  0  0  0  0  0  0  0  0  0  0
    4.7483    3.1233    4.1436 S   0  0  0  0  0  0  0  0  0  0  0  0
    3.0305    7.2728    1.3446 C   0  0  0  0  0  0  0  0  0  0  0  0
    3.6273    8.3537    0.7031 C   0  0  0  0  0  0  0  0  0  0  0  0
    5.2891    8.3017    0.9807 S   0  0  0  0  0  0  0  0  0  0  0  0
   -1.4225   -7.6551    7.1113 H   0  0  0  0  0  0  0  0  0  0  0  0
   -1.7275   -5.0790    7.1304 H   0  0  0  0  0  0  0  0  0  0  0  0
   -2.9829   -1.9684    4.2738 H   0  0  0  0  0  0  0  0  0  0  0  0
   -1.7058   -0.0250    5.0622 H   0  0  0  0  0  0  0  0  0  0  0  0
    0.8880   -1.1253    7.4125 H   0  0  0  0  0  0  0  0  0  0  0  0
    1.6552    0.3596    8.0682 H   0  0  0  0  0  0  0  0  0  0  0  0
    0.7454   -0.0622    5.1532 H   0  0  0  0  0  0  0  0  0  0  0  0
    1.4180    1.4830    5.8249 H   0  0  0  0  0  0  0  0  0  0  0  0
    2.4371   -0.0003    5.7702 H   0  0  0  0  0  0  0  0  0  0  0  0
   -3.2650   -3.4199    8.3220 H   0  0  0  0  0  0  0  0  0  0  0  0
   -5.6604   -6.6465    1.9201 H   0  0  0  0  0  0  0  0  0  0  0  0
   -6.7637   -8.5357    0.7917 H   0  0  0  0  0  0  0  0  0  0  0  0
   -5.7719  -11.2581    1.0972 H   0  0  0  0  0  0  0  0  0  0  0  0
   -6.1305  -12.0461    2.6910 H   0  0  0  0  0  0  0  0  0  0  0  0
   -7.5031  -13.7784    1.5230 H   0  0  0  0  0  0  0  0  0  0  0  0
   -7.1414  -12.9915   -0.0702 H   0  0  0  0  0  0  0  0  0  0  0  0
   -5.8070  -13.7368    0.8958 H   0  0  0  0  0  0  0  0  0  0  0  0
   -6.6243   -8.3747    5.7521 H   0  0  0  0  0  0  0  0  0  0  0  0
   -7.5684   -5.1753    3.0388 H   0  0  0  0  0  0  0  0  0  0  0  0
   -7.3926   -0.3444    3.0293 H   0  0  0  0  0  0  0  0  0  0  0  0
   -5.5206    0.7572    1.6303 H   0  0  0  0  0  0  0  0  0  0  0  0
   -4.6359    2.5829    3.0193 H   0  0  0  0  0  0  0  0  0  0  0  0
   -7.5055    4.3292    5.1753 H   0  0  0  0  0  0  0  0  0  0  0  0
   -6.4601    5.5183    6.0241 H   0  0  0  0  0  0  0  0  0  0  0  0
   -5.7359    2.5912    5.3855 H   0  0  0  0  0  0  0  0  0  0  0  0
   -4.5904    3.8089    6.0835 H   0  0  0  0  0  0  0  0  0  0  0  0
   -6.0647    3.3194    6.9994 H   0  0  0  0  0  0  0  0  0  0  0  0
   -9.1311    3.0124    0.9721 H   0  0  0  0  0  0  0  0  0  0  0  0
  -10.8664   -2.1180   -2.8010 H   0  0  0  0  0  0  0  0  0  0  0  0
  -11.1803   -4.0379   -4.3142 H   0  0  0  0  0  0  0  0  0  0  0  0
   -8.1025   -6.3909   -6.9003 H   0  0  0  0  0  0  0  0  0  0  0  0
   -7.7130   -4.9585   -5.8918 H   0  0  0  0  0  0  0  0  0  0  0  0
   -9.9075   -3.9061   -6.5932 H   0  0  0  0  0  0  0  0  0  0  0  0
  -10.2514   -5.3575   -7.6181 H   0  0  0  0  0  0  0  0  0  0  0  0
   -8.8467   -4.2896   -8.0015 H   0  0  0  0  0  0  0  0  0  0  0  0
   -7.0806   -3.7399   -1.5369 H   0  0  0  0  0  0  0  0  0  0  0  0
   -8.2734   -0.9208   -3.8794 H   0  0  0  0  0  0  0  0  0  0  0  0
   -5.5263    3.0257   -3.8140 H   0  0  0  0  0  0  0  0  0  0  0  0
   -1.6027    2.8679   -2.5695 H   0  0  0  0  0  0  0  0  0  0  0  0
   -1.3094    5.0740   -1.5213 H   0  0  0  0  0  0  0  0  0  0  0  0
   -0.9612    9.3707   -3.2846 H   0  0  0  0  0  0  0  0  0  0  0  0
   -1.0963    7.8911   -4.2951 H   0  0  0  0  0  0  0  0  0  0  0  0
    0.5287    8.1711   -1.6755 H   0  0  0  0  0  0  0  0  0  0  0  0
    1.1974    8.1883   -3.3502 H   0  0  0  0  0  0  0  0  0  0  0  0
    0.4403    6.6810   -2.7072 H   0  0  0  0  0  0  0  0  0  0  0  0
   -4.0912    4.6512   -5.6106 H   0  0  0  0  0  0  0  0  0  0  0  0
   -2.4002   -2.4924   -4.4321 H   0  0  0  0  0  0  0  0  0  0  0  0
   -2.6747   -4.8861   -4.9371 H   0  0  0  0  0  0  0  0  0  0  0  0
   -2.5816   -7.2267   -8.9018 H   0  0  0  0  0  0  0  0  0  0  0  0
   -2.2113   -5.4834   -8.6854 H   0  0  0  0  0  0  0  0  0  0  0  0
   -0.3261   -6.9138   -7.9137 H   0  0  0  0  0  0  0  0  0  0  0  0
   -1.0398   -6.0353   -6.5128 H   0  0  0  0  0  0  0  0  0  0  0  0
   -1.4239   -7.7854   -6.7790 H   0  0  0  0  0  0  0  0  0  0  0  0
   -4.5208   -1.4834   -8.0460 H   0  0  0  0  0  0  0  0  0  0  0  0
   -0.6518   -1.4729   -6.1598 H   0  0  0  0  0  0  0  0  0  0  0  0
    2.7334    1.6020   -4.5390 H   0  0  0  0  0  0  0  0  0  0  0  0
    3.5090    1.7499   -1.9396 H   0  0  0  0  0  0  0  0  0  0  0  0
    4.0103    4.0629   -1.2620 H   0  0  0  0  0  0  0  0  0  0  0  0
    5.8623    7.6946   -3.4729 H   0  0  0  0  0  0  0  0  0  0  0  0
    5.5834    6.1147   -4.2808 H   0  0  0  0  0  0  0  0  0  0  0  0
    3.7166    7.4770   -2.2242 H   0  0  0  0  0  0  0  0  0  0  0  0
    3.4030    5.8807   -3.0283 H   0  0  0  0  0  0  0  0  0  0  0  0
    3.4675    7.3902   -4.0107 H   0  0  0  0  0  0  0  0  0  0  0  0
    7.0634    1.6999   -4.3827 H   0  0  0  0  0  0  0  0  0  0  0  0
    4.9639   -4.6745   -5.5749 H   0  0  0  0  0  0  0  0  0  0  0  0
    4.1443   -7.0041   -5.4537 H   0  0  0  0  0  0  0  0  0  0  0  0
    0.5926   -9.0809   -4.9391 H   0  0  0  0  0  0  0  0  0  0  0  0
    1.1736   -7.4516   -5.4265 H   0  0  0  0  0  0  0  0  0  0  0  0
   -1.1200   -7.4772   -4.2879 H   0  0  0  0  0  0  0  0  0  0  0  0
    0.0775   -6.4332   -3.4478 H   0  0  0  0  0  0  0  0  0  0  0  0
   -0.3235   -8.0719   -2.7833 H   0  0  0  0  0  0  0  0  0  0  0  0
    2.8732   -3.7602   -1.9201 H   0  0  0  0  0  0  0  0  0  0  0  0
    6.4634   -4.1138   -2.5157 H   0  0  0  0  0  0  0  0  0  0  0  0
   10.2446   -2.3527   -1.9773 H   0  0  0  0  0  0  0  0  0  0  0  0
   11.6293   -1.9096    0.0167 H   0  0  0  0  0  0  0  0  0  0  0  0
   10.5415   -1.6655    2.2315 H   0  0  0  0  0  0  0  0  0  0  0  0
    5.2891   -4.7494    1.1495 H   0  0  0  0  0  0  0  0  0  0  0  0
    6.3075   -4.8840   -0.3189 H   0  0  0  0  0  0  0  0  0  0  0  0
    4.8681   -3.7684   -0.3087 H   0  0  0  0  0  0  0  0  0  0  0  0
    7.5392   -0.8065    2.3214 H   0  0  0  0  0  0  0  0  0  0  0  0
    9.0753   -2.6407    4.1602 H   0  0  0  0  0  0  0  0  0  0  0  0
    4.8420   -1.2119    7.0726 H   0  0  0  0  0  0  0  0  0  0  0  0
    4.2765   -1.5123    5.3734 H   0  0  0  0  0  0  0  0  0  0  0  0
    4.7625   -2.8890    6.4316 H   0  0  0  0  0  0  0  0  0  0  0  0
    5.4952    0.9334    5.8787 H   0  0  0  0  0  0  0  0  0  0  0  0
    8.9940    2.4220    3.7916 H   0  0  0  0  0  0  0  0  0  0  0  0
    9.8606    0.1511    3.6360 H   0  0  0  0  0  0  0  0  0  0  0  0
    8.0403    4.4491    3.9230 H   0  0  0  0  0  0  0  0  0  0  0  0
    7.5200    8.6288    3.1451 H   0  0  0  0  0  0  0  0  0  0  0  0
    9.8267    9.3408    2.6414 H   0  0  0  0  0  0  0  0  0  0  0  0
   10.7868    9.5763   -0.0224 H   0  0  0  0  0  0  0  0  0  0  0  0
   12.5448    9.5874   -0.4034 H   0  0  0  0  0  0  0  0  0  0  0  0
   10.5358    7.3879   -1.2013 H   0  0  0  0  0  0  0  0  0  0  0  0
   12.3264    7.3140   -1.4709 H   0  0  0  0  0  0  0  0  0  0  0  0
   11.3338    8.5857   -2.2815 H   0  0  0  0  0  0  0  0  0  0  0  0
    8.3002    4.8198    1.2816 H   0  0  0  0  0  0  0  0  0  0  0  0
    2.2382    4.6364    0.4760 H   0  0  0  0  0  0  0  0  0  0  0  0
    0.0056    3.6279    0.3307 H   0  0  0  0  0  0  0  0  0  0  0  0
   -0.5192    0.9730    1.2454 H   0  0  0  0  0  0  0  0  0  0  0  0
   -0.6551    0.7060    3.0285 H   0  0  0  0  0  0  0  0  0  0  0  0
   -3.0849    0.0901    2.7185 H   0  0  0  0  0  0  0  0  0  0  0  0
   -2.8835    0.3042    0.9324 H   0  0  0  0  0  0  0  0  0  0  0  0
   -1.9696   -0.9949    1.7935 H   0  0  0  0  0  0  0  0  0  0  0  0
    2.0539    4.4319    4.7809 H   0  0  0  0  0  0  0  0  0  0  0  0
    1.9639    7.0996    1.3120 H   0  0  0  0  0  0  0  0  0  0  0  0
    3.1059    9.1006    0.1209 H   0  0  0  0  0  0  0  0  0  0  0  0
  1  2  2  0
  2  3  1  0
  3  4  2  0
  4  5  1  0
  5  6  2  0
  6  7  1  0
  7  8  2  0
  8  9  1  0
  9 10  1  0
 10 11  1  0
  8 12  1  0
 12 13  1  0
 12 14  2  0
  4 15  1  0
 15 16  2  0
 16 17  1  0
 17 18  1  0
 18 19  2  0
 19 20  1  0
 20 21  2  0
 21 22  1  0
 22 23  1  0
 23 24  1  0
 21 25  1  0
 25 26  2  0
 25 27  1  0
 17 28  2  0
 28 29  1  0
 16 30  1  0
 30 31  2  0
 31 32  1  0
 31 33  1  0
 33 34  2  0
 34 35  1  0
 35 36  2  0
 36 37  1  0
 37 38  2  0
 38 39  1  0
 39 40  2  0
 40 41  1  0
 41 42  1  0
 42 43  1  0
 40 44  1  0
 44 45  1  0
 44 46  2  0
 36 47  1  0
 47 48  2  0
 48 49  1  0
 49 50  1  0
 50 51  2  0
 51 52  1  0
 52 53  2  0
 53 54  1  0
 54 55  1  0
 55 56  1  0
 53 57  1  0
 57 58  2  0
 57 59  1  0
 49 60  2  0
 60 61  1  0
 48 62  1  0
 62 63  2  0
 63 64  1  0
 63 65  1  0
 65 66  2  0
 66 67  1  0
 67 68  2  0
 68 69  1  0
 69 70  2  0
 70 71  1  0
 71 72  2  0
 72 73  1  0
 73 74  1  0
 74 75  1  0
 72 76  1  0
 76 77  1  0
 76 78  2  0
 68 79  1  0
 79 80  2  0
 80 81  1  0
 81 82  1  0
 82 83  2  0
 83 84  1  0
 84 85  2  0
 85 86  1  0
 86 87  1  0
 87 88  1  0
 85 89  1  0
 89 90  2  0
 89 91  1  0
 81 92  2  0
 92 93  1  0
 80 94  1  0
 94 95  2  0
 95 96  1  0
 95 97  1  0
 97 98  2  0
 98 99  1  0
 99100  2  0
100101  1  0
101102  2  0
102103  1  0
103104  2  0
104105  1  0
105106  1  0
106107  1  0
104108  1  0
108109  1  0
108110  2  0
100111  1  0
111112  2  0
112113  1  0
113114  1  0
114115  2  0
115116  1  0
116117  2  0
117118  1  0
118119  1  0
119120  1  0
117121  1  0
121122  2  0
121123  1  0
113124  2  0
124125  1  0
112126  1  0
126127  2  0
127128  1  0
127129  1  0
129130  2  0
130131  1  0
131132  2  0
132133  1  0
133134  2  0
134135  1  0
135136  1  0
135137  1  0
137138  2  0
137139  1  0
139140  1  0
140141  1  0
141142  2  0
141143  1  0
143144  1  0
143145  1  0
145146  2  0
146147  1  0
147148  2  0
148149  1  0
149150  2  0
147151  1  0
151152  2  0
152153  1  0
153154  2  0
154155  1  0
155156  2  0
156157  1  0
157158  2  0
158159  1  0
159160  1  0
160161  1  0
158162  1  0
162163  1  0
162164  2  0
154165  1  0
165166  2  0
166167  1  0
167168  1  0
168169  2  0
169170  1  0
170171  2  0
171172  1  0
172173  1  0
173174  1  0
171175  1  0
175176  2  0
175177  1  0
167178  2  0
178179  1  0
166180  1  0
180181  2  0
181182  1  0
 29  1  1  0
 61 33  1  0
 93 65  1  0
125 97  1  0
134129  1  0
150140  1  0
179151  1  0
 28  3  1  0
 60 35  1  0
 92 67  1  0
124 99  1  0
139133  1  0
150145  1  0
178153  1  0
 14  5  1  0
 32 15  1  0
 46 37  1  0
 64 47  1  0
 78 69  1  0
 96 79  1  0
110101  1  0
128111  1  0
164155  1  0
182165  1  0
 26 18  1  0
 58 50  1  0
 90 82  1  0
122114  1  0
176168  1  0
  1183  1  0
  2184  1  0
  6185  1  0
  7186  1  0
 10187  1  0
 10188  1  0
 11189  1  0
 11190  1  0
 11191  1  0
 14192  1  0
 19193  1  0
 20194  1  0
 23195  1  0
 23196  1  0
 24197  1  0
 24198  1  0
 24199  1  0
 26200  1  0
 30201  1  0
 34202  1  0
 38203  1  0
 39204  1  0
 42205  1  0
 42206  1  0
 43207  1  0
 43208  1  0
 43209  1  0
 46210  1  0
 51211  1  0
 52212  1  0
 55213  1  0
 55214  1  0
 56215  1  0
 56216  1  0
 56217  1  0
 58218  1  0
 62219  1  0
 66220  1  0
 70221  1  0
 71222  1  0
 74223  1  0
 74224  1  0
 75225  1  0
 75226  1  0
 75227  1  0
 78228  1  0
 83229  1  0
 84230  1  0
 87231  1  0
 87232  1  0
 88233  1  0
 88234  1  0
 88235  1  0
 90236  1  0
 94237  1  0
 98238  1  0
102239  1  0
103240  1  0
106241  1  0
106242  1  0
107243  1  0
107244  1  0
107245  1  0
110246  1  0
115247  1  0
116248  1  0
119249  1  0
119250  1  0
120251  1  0
120252  1  0
120253  1  0
122254  1  0
126255  1  0
130256  1  0
131257  1  0
132258  1  0
136259  1  0
136260  1  0
136261  1  0
139262  1  0
140263  1  0
144264  1  0
144265  1  0
144266  1  0
146267  1  0
148268  1  0
149269  1  0
152270  1  0
156271  1  0
157272  1  0
160273  1  0
160274  1  0
161275  1  0
161276  1  0
161277  1  0
164278  1  0
169279  1  0
170280  1  0
173281  1  0
173282  1  0
174283  1  0
174284  1  0
174285  1  0
176286  1  0
180287  1  0
181288  1  0
M  END

