
     RDKit          3D

226247  0  0  0  0  0  0  0  0999 V2000
    5.3409   -4.8291    9.4832 C   0  0  0  0  0  0  0  0  0  0  0  0
    4.5959   -3.6676    9.3183 C   0  0  0  0  0  0  0  0  0  0  0  0
    3.4842   -3.8377    8.4762 C   0  0  0  0  0  0  0  0  0  0  0  0
    2.5365   -2.8538    8.1319 C   0  0  0  0  0  0  0  0  0  0  0  0
    2.6368   -1.4565    8.6091 C   0  0  0  0  0  0  0  0  0  0  0  0
    3.7462   -0.6679    8.2669 C   0  0  0  0  0  0  0  0  0  0  0  0
    3.8145    0.6674    8.6751 C   0  0  0  0  0  0  0  0  0  0  0  0
    2.7630    1.2339    9.4075 C   0  0  0  0  0  0  0  0  0  0  0  0
    2.8487    2.9601    9.8995 S   0  0  0  0  0  0  0  0  0  0  0  0
    1.8539    3.5810    8.4969 C   0  0  0  0  0  0  0  0  0  0  0  0
    2.6893    3.6785    7.2266 C   0  0  0  0  0  0  0  0  0  0  0  0
    1.6612    0.4459    9.7680 C   0  0  0  0  0  0  0  0  0  0  0  0
    0.6407    0.9765   10.4879 F   0  0  0  0  0  0  0  0  0  0  0  0
    1.5953   -0.8895    9.3630 C   0  0  0  0  0  0  0  0  0  0  0  0
    1.5002   -3.2482    7.2702 C   0  0  0  0  0  0  0  0  0  0  0  0
    1.3926   -4.5423    6.7542 C   0  0  0  0  0  0  0  0  0  0  0  0
    2.3219   -5.5387    7.1247 C   0  0  0  0  0  0  0  0  0  0  0  0
    2.1916   -6.9391    6.6592 C   0  0  0  0  0  0  0  0  0  0  0  0
    1.0208   -7.6622    6.9405 C   0  0  0  0  0  0  0  0  0  0  0  0
    0.8841   -8.9804    6.5031 C   0  0  0  0  0  0  0  0  0  0  0  0
    1.9227   -9.6016    5.7990 C   0  0  0  0  0  0  0  0  0  0  0  0
    1.7201  -11.2843    5.2015 S   0  0  0  0  0  0  0  0  0  0  0  0
    2.1488  -12.0968    6.7813 C   0  0  0  0  0  0  0  0  0  0  0  0
    3.6476  -12.0368    7.0557 C   0  0  0  0  0  0  0  0  0  0  0  0
    3.0959   -8.8848    5.5164 C   0  0  0  0  0  0  0  0  0  0  0  0
    3.2339   -7.5621    5.9543 C   0  0  0  0  0  0  0  0  0  0  0  0
    4.1011   -9.4650    4.8100 F   0  0  0  0  0  0  0  0  0  0  0  0
    3.3655   -5.1413    7.9805 C   0  0  0  0  0  0  0  0  0  0  0  0
    4.6216   -6.0742    8.5991 S   0  0  0  0  0  0  0  0  0  0  0  0
    0.3426   -4.6785    5.8276 C   0  0  0  0  0  0  0  0  0  0  0  0
   -0.3721   -3.4956    5.6414 C   0  0  0  0  0  0  0  0  0  0  0  0
    0.2977   -2.2844    6.6029 S   0  0  0  0  0  0  0  0  0  0  0  0
   -1.3998   -3.2560    4.6193 C   0  0  0  0  0  0  0  0  0  0  0  0
   -2.1726   -2.0999    4.5254 C   0  0  0  0  0  0  0  0  0  0  0  0
   -2.8505   -1.9921    3.3013 C   0  0  0  0  0  0  0  0  0  0  0  0
   -3.5959   -0.8794    2.8651 C   0  0  0  0  0  0  0  0  0  0  0  0
   -3.8922    0.2506    3.7649 C   0  0  0  0  0  0  0  0  0  0  0  0
   -4.7304    0.0530    4.8723 C   0  0  0  0  0  0  0  0  0  0  0  0
   -4.9990    1.1085    5.7479 C   0  0  0  0  0  0  0  0  0  0  0  0
   -4.4139    2.3635    5.5359 C   0  0  0  0  0  0  0  0  0  0  0  0
   -4.7583    3.7067    6.6774 S   0  0  0  0  0  0  0  0  0  0  0  0
   -3.5567    3.1709    7.9474 C   0  0  0  0  0  0  0  0  0  0  0  0
   -2.1276    3.5085    7.5413 C   0  0  0  0  0  0  0  0  0  0  0  0
   -3.5792    2.5653    4.4273 C   0  0  0  0  0  0  0  0  0  0  0  0
   -3.0148    3.7799    4.2040 F   0  0  0  0  0  0  0  0  0  0  0  0
   -3.3199    1.5127    3.5439 C   0  0  0  0  0  0  0  0  0  0  0  0
   -3.9962   -0.8788    1.5199 C   0  0  0  0  0  0  0  0  0  0  0  0
   -3.7143   -1.9349    0.6494 C   0  0  0  0  0  0  0  0  0  0  0  0
   -3.0484   -3.0839    1.1154 C   0  0  0  0  0  0  0  0  0  0  0  0
   -2.7557   -4.2254    0.2340 C   0  0  0  0  0  0  0  0  0  0  0  0
   -3.5999   -5.3447    0.2353 C   0  0  0  0  0  0  0  0  0  0  0  0
   -3.3406   -6.4208   -0.6174 C   0  0  0  0  0  0  0  0  0  0  0  0
   -2.2305   -6.3880   -1.4718 C   0  0  0  0  0  0  0  0  0  0  0  0
   -1.9262   -7.7565   -2.5947 S   0  0  0  0  0  0  0  0  0  0  0  0
   -2.8066   -7.0093   -4.0119 C   0  0  0  0  0  0  0  0  0  0  0  0
   -4.3126   -7.2168   -3.8997 C   0  0  0  0  0  0  0  0  0  0  0  0
   -1.3532   -5.2938   -1.4302 C   0  0  0  0  0  0  0  0  0  0  0  0
   -1.6270   -4.2057   -0.5959 C   0  0  0  0  0  0  0  0  0  0  0  0
   -0.2307   -5.2842   -2.1893 F   0  0  0  0  0  0  0  0  0  0  0  0
   -2.6077   -3.0705    2.4452 C   0  0  0  0  0  0  0  0  0  0  0  0
   -1.5721   -4.1589    3.1992 S   0  0  0  0  0  0  0  0  0  0  0  0
   -4.0649   -1.6651   -0.6831 C   0  0  0  0  0  0  0  0  0  0  0  0
   -4.6108   -0.3923   -0.8512 C   0  0  0  0  0  0  0  0  0  0  0  0
   -4.6973    0.3769    0.6493 S   0  0  0  0  0  0  0  0  0  0  0  0
   -4.7031    0.3179   -2.1302 C   0  0  0  0  0  0  0  0  0  0  0  0
   -3.8240    0.1210   -3.1951 C   0  0  0  0  0  0  0  0  0  0  0  0
   -3.8704    1.1547   -4.1438 C   0  0  0  0  0  0  0  0  0  0  0  0
   -3.0333    1.2835   -5.2717 C   0  0  0  0  0  0  0  0  0  0  0  0
   -1.9605    0.3109   -5.5864 C   0  0  0  0  0  0  0  0  0  0  0  0
   -0.9393    0.0383   -4.6617 C   0  0  0  0  0  0  0  0  0  0  0  0
    0.0792   -0.8654   -4.9772 C   0  0  0  0  0  0  0  0  0  0  0  0
    0.0944   -1.4977   -6.2299 C   0  0  0  0  0  0  0  0  0  0  0  0
    1.4408   -2.6085   -6.6534 S   0  0  0  0  0  0  0  0  0  0  0  0
    0.4970   -4.1519   -6.4013 C   0  0  0  0  0  0  0  0  0  0  0  0
    0.3701   -4.4832   -4.9229 C   0  0  0  0  0  0  0  0  0  0  0  0
   -0.9071   -1.2109   -7.1644 C   0  0  0  0  0  0  0  0  0  0  0  0
   -0.9009   -1.8079   -8.3837 F   0  0  0  0  0  0  0  0  0  0  0  0
   -1.9369   -0.3249   -6.8397 C   0  0  0  0  0  0  0  0  0  0  0  0
   -3.2208    2.4294   -6.0642 C   0  0  0  0  0  0  0  0  0  0  0  0
   -4.1810    3.4086   -5.7773 C   0  0  0  0  0  0  0  0  0  0  0  0
   -5.0334    3.2684   -4.6593 C   0  0  0  0  0  0  0  0  0  0  0  0
   -6.0863    4.2673   -4.3425 C   0  0  0  0  0  0  0  0  0  0  0  0
   -6.1490    4.8812   -3.0778 C   0  0  0  0  0  0  0  0  0  0  0  0
   -7.1506    5.8076   -2.7881 C   0  0  0  0  0  0  0  0  0  0  0  0
   -8.1179    6.1235   -3.7469 C   0  0  0  0  0  0  0  0  0  0  0  0
   -9.4098    7.3109   -3.3566 S   0  0  0  0  0  0  0  0  0  0  0  0
  -10.6088    6.0677   -2.7586 C   0  0  0  0  0  0  0  0  0  0  0  0
  -10.3139    5.6725   -1.3165 C   0  0  0  0  0  0  0  0  0  0  0  0
   -8.0592    5.5300   -5.0161 C   0  0  0  0  0  0  0  0  0  0  0  0
   -7.0512    4.6027   -5.3089 C   0  0  0  0  0  0  0  0  0  0  0  0
   -8.9806    5.8392   -5.9630 F   0  0  0  0  0  0  0  0  0  0  0  0
   -4.8274    2.1337   -3.8493 C   0  0  0  0  0  0  0  0  0  0  0  0
   -5.5708    1.7398   -2.3876 S   0  0  0  0  0  0  0  0  0  0  0  0
   -4.0972    4.5241   -6.6282 C   0  0  0  0  0  0  0  0  0  0  0  0
   -3.0843    4.4112   -7.5810 C   0  0  0  0  0  0  0  0  0  0  0  0
   -2.2707    2.9503   -7.3466 S   0  0  0  0  0  0  0  0  0  0  0  0
   -2.5967    5.5422   -8.4440 C   0  0  0  0  0  0  0  0  0  0  0  0
   -2.1291    5.0354  -10.0023 S   0  0  0  0  0  0  0  0  0  0  0  0
   -0.6433    5.7103   -9.2146 C   0  0  0  0  0  0  0  0  0  0  0  0
   -1.2555    6.0025   -8.0037 C   0  0  0  0  0  0  0  0  0  0  0  0
   -0.7763    6.5196   -6.7255 C   0  0  0  0  0  0  0  0  0  0  0  0
    0.4560    6.7050   -6.5454 O   0  0  0  0  0  0  0  0  0  0  0  0
   -1.6951    6.7795   -5.7033 O   0  0  0  0  0  0  0  0  0  0  0  0
   -1.3340    6.8103   -4.3258 C   0  0  0  0  0  0  0  0  0  0  0  0
   -1.4257    5.3870   -3.7380 C   0  0  0  0  0  0  0  0  0  0  0  0
   -2.6621    5.2543   -2.5632 S   0  0  0  0  0  0  0  0  0  0  0  0
   -1.1009    4.9533   -1.6997 C   0  0  0  0  0  0  0  0  0  0  0  0
   -0.2935    5.0640   -2.8265 C   0  0  0  0  0  0  0  0  0  0  0  0
    1.1434    4.9051   -3.0381 C   0  0  0  0  0  0  0  0  0  0  0  0
    1.6062    4.9482   -4.2097 O   0  0  0  0  0  0  0  0  0  0  0  0
    1.9842    4.7022   -1.9420 O   0  0  0  0  0  0  0  0  0  0  0  0
    3.3888    4.4970   -2.0575 C   0  0  0  0  0  0  0  0  0  0  0  0
    3.6747    3.0817   -2.4558 C   0  0  0  0  0  0  0  0  0  0  0  0
    3.8341    2.6283   -3.7628 C   0  0  0  0  0  0  0  0  0  0  0  0
    4.0482    1.2398   -3.8367 C   0  0  0  0  0  0  0  0  0  0  0  0
    4.2824    0.4910   -5.0134 C   0  0  0  0  0  0  0  0  0  0  0  0
    4.1941    1.0908   -6.3675 C   0  0  0  0  0  0  0  0  0  0  0  0
    5.2598    0.9662   -7.2744 C   0  0  0  0  0  0  0  0  0  0  0  0
    5.1471    1.4712   -8.5754 C   0  0  0  0  0  0  0  0  0  0  0  0
    3.9695    2.1086   -8.9779 C   0  0  0  0  0  0  0  0  0  0  0  0
    3.7811    2.6539  -10.6827 S   0  0  0  0  0  0  0  0  0  0  0  0
    4.4452    4.3341  -10.4146 C   0  0  0  0  0  0  0  0  0  0  0  0
    5.8717    4.4257  -10.9393 C   0  0  0  0  0  0  0  0  0  0  0  0
    2.9101    2.2558   -8.0734 C   0  0  0  0  0  0  0  0  0  0  0  0
    1.7631    2.8721   -8.4539 F   0  0  0  0  0  0  0  0  0  0  0  0
    3.0225    1.7506   -6.7727 C   0  0  0  0  0  0  0  0  0  0  0  0
    4.5386   -0.8836   -4.8424 C   0  0  0  0  0  0  0  0  0  0  0  0
    4.5285   -1.5046   -3.5886 C   0  0  0  0  0  0  0  0  0  0  0  0
    4.2909   -0.7553   -2.4170 C   0  0  0  0  0  0  0  0  0  0  0  0
    4.3230   -1.3851   -1.0780 C   0  0  0  0  0  0  0  0  0  0  0  0
    5.4864   -2.0290   -0.6284 C   0  0  0  0  0  0  0  0  0  0  0  0
    5.4835   -2.7241    0.5808 C   0  0  0  0  0  0  0  0  0  0  0  0
    4.3246   -2.7649    1.3671 C   0  0  0  0  0  0  0  0  0  0  0  0
    4.3066   -3.7618    2.8623 S   0  0  0  0  0  0  0  0  0  0  0  0
    4.9873   -2.4477    3.9285 C   0  0  0  0  0  0  0  0  0  0  0  0
    5.3509   -3.0333    5.2850 C   0  0  0  0  0  0  0  0  0  0  0  0
    3.1707   -2.0902    0.9423 C   0  0  0  0  0  0  0  0  0  0  0  0
    3.1724   -1.4000   -0.2748 C   0  0  0  0  0  0  0  0  0  0  0  0
    2.0366   -2.1364    1.6858 F   0  0  0  0  0  0  0  0  0  0  0  0
    4.0499    0.6189   -2.5820 C   0  0  0  0  0  0  0  0  0  0  0  0
    3.7763    1.7781   -1.3912 S   0  0  0  0  0  0  0  0  0  0  0  0
    4.7474   -2.8909   -3.6620 C   0  0  0  0  0  0  0  0  0  0  0  0
    4.9607   -3.3511   -4.9556 C   0  0  0  0  0  0  0  0  0  0  0  0
    4.8536   -2.0489   -6.0160 S   0  0  0  0  0  0  0  0  0  0  0  0
    6.2321   -4.9225   10.0896 H   0  0  0  0  0  0  0  0  0  0  0  0
    4.8563   -2.7350    9.8005 H   0  0  0  0  0  0  0  0  0  0  0  0
    4.5534   -1.0840    7.6822 H   0  0  0  0  0  0  0  0  0  0  0  0
    4.6763    1.2655    8.4032 H   0  0  0  0  0  0  0  0  0  0  0  0
    0.9757    2.9235    8.3199 H   0  0  0  0  0  0  0  0  0  0  0  0
    1.4802    4.5922    8.7587 H   0  0  0  0  0  0  0  0  0  0  0  0
    2.9919    2.6696    6.8784 H   0  0  0  0  0  0  0  0  0  0  0  0
    2.0870    4.1579    6.4254 H   0  0  0  0  0  0  0  0  0  0  0  0
    3.5966    4.2934    7.4053 H   0  0  0  0  0  0  0  0  0  0  0  0
    0.7296   -1.4846    9.6258 H   0  0  0  0  0  0  0  0  0  0  0  0
    0.2110   -7.2015    7.4911 H   0  0  0  0  0  0  0  0  0  0  0  0
   -0.0276   -9.5248    6.7181 H   0  0  0  0  0  0  0  0  0  0  0  0
    1.5854  -11.6351    7.6231 H   0  0  0  0  0  0  0  0  0  0  0  0
    1.8411  -13.1621    6.7129 H   0  0  0  0  0  0  0  0  0  0  0  0
    3.9547  -10.9980    7.2982 H   0  0  0  0  0  0  0  0  0  0  0  0
    4.2160  -12.3978    6.1719 H   0  0  0  0  0  0  0  0  0  0  0  0
    3.8917  -12.6871    7.9223 H   0  0  0  0  0  0  0  0  0  0  0  0
    4.1407   -7.0188    5.7266 H   0  0  0  0  0  0  0  0  0  0  0  0
    0.1314   -5.5847    5.2771 H   0  0  0  0  0  0  0  0  0  0  0  0
   -2.1793   -1.3293    5.2865 H   0  0  0  0  0  0  0  0  0  0  0  0
   -5.1727   -0.9186    5.0584 H   0  0  0  0  0  0  0  0  0  0  0  0
   -5.6506    0.9462    6.5963 H   0  0  0  0  0  0  0  0  0  0  0  0
   -3.6510    2.0798    8.1391 H   0  0  0  0  0  0  0  0  0  0  0  0
   -3.7955    3.7064    8.8899 H   0  0  0  0  0  0  0  0  0  0  0  0
   -1.8150    2.8963    6.6695 H   0  0  0  0  0  0  0  0  0  0  0  0
   -2.0438    4.5869    7.2867 H   0  0  0  0  0  0  0  0  0  0  0  0
   -1.4458    3.2874    8.3899 H   0  0  0  0  0  0  0  0  0  0  0  0
   -2.6634    1.6724    2.6967 H   0  0  0  0  0  0  0  0  0  0  0  0
   -4.4607   -5.3774    0.8902 H   0  0  0  0  0  0  0  0  0  0  0  0
   -4.0054   -7.2760   -0.6197 H   0  0  0  0  0  0  0  0  0  0  0  0
   -2.4467   -7.5008   -4.9397 H   0  0  0  0  0  0  0  0  0  0  0  0
   -2.5796   -5.9228   -4.0894 H   0  0  0  0  0  0  0  0  0  0  0  0
   -4.5454   -8.2921   -3.7442 H   0  0  0  0  0  0  0  0  0  0  0  0
   -4.8044   -6.8772   -4.8384 H   0  0  0  0  0  0  0  0  0  0  0  0
   -4.7250   -6.6241   -3.0579 H   0  0  0  0  0  0  0  0  0  0  0  0
   -0.9596   -3.3549   -0.5904 H   0  0  0  0  0  0  0  0  0  0  0  0
   -3.8428   -2.3335   -1.5075 H   0  0  0  0  0  0  0  0  0  0  0  0
   -3.1240   -0.7055   -3.2375 H   0  0  0  0  0  0  0  0  0  0  0  0
   -0.9263    0.5374   -3.6982 H   0  0  0  0  0  0  0  0  0  0  0  0
    0.8606   -1.0674   -4.2555 H   0  0  0  0  0  0  0  0  0  0  0  0
   -0.5130   -4.0766   -6.8590 H   0  0  0  0  0  0  0  0  0  0  0  0
    1.0407   -4.9775   -6.9083 H   0  0  0  0  0  0  0  0  0  0  0  0
    1.3748   -4.5333   -4.4519 H   0  0  0  0  0  0  0  0  0  0  0  0
   -0.1247   -5.4709   -4.8170 H   0  0  0  0  0  0  0  0  0  0  0  0
   -0.2506   -3.7207   -4.4049 H   0  0  0  0  0  0  0  0  0  0  0  0
   -2.7122   -0.1240   -7.5701 H   0  0  0  0  0  0  0  0  0  0  0  0
   -5.4233    4.6418   -2.3137 H   0  0  0  0  0  0  0  0  0  0  0  0
   -7.1831    6.2740   -1.8110 H   0  0  0  0  0  0  0  0  0  0  0  0
  -10.6052    5.1683   -3.4104 H   0  0  0  0  0  0  0  0  0  0  0  0
  -11.6222    6.5184   -2.8039 H   0  0  0  0  0  0  0  0  0  0  0  0
  -10.2425    6.5769   -0.6763 H   0  0  0  0  0  0  0  0  0  0  0  0
   -9.3692    5.0966   -1.2551 H   0  0  0  0  0  0  0  0  0  0  0  0
  -11.1339    5.0308   -0.9316 H   0  0  0  0  0  0  0  0  0  0  0  0
   -7.0261    4.1415   -6.2870 H   0  0  0  0  0  0  0  0  0  0  0  0
   -4.6975    5.4143   -6.5146 H   0  0  0  0  0  0  0  0  0  0  0  0
   -3.3148    6.3872   -8.4953 H   0  0  0  0  0  0  0  0  0  0  0  0
    0.3800    5.8016   -9.5610 H   0  0  0  0  0  0  0  0  0  0  0  0
   -0.3127    7.2404   -4.2115 H   0  0  0  0  0  0  0  0  0  0  0  0
   -2.0280    7.5134   -3.8095 H   0  0  0  0  0  0  0  0  0  0  0  0
   -1.5313    4.6039   -4.5180 H   0  0  0  0  0  0  0  0  0  0  0  0
   -0.8807    4.7291   -0.6641 H   0  0  0  0  0  0  0  0  0  0  0  0
    3.8286    5.2073   -2.7931 H   0  0  0  0  0  0  0  0  0  0  0  0
    3.8652    4.6986   -1.0745 H   0  0  0  0  0  0  0  0  0  0  0  0
    3.8267    3.2892   -4.6163 H   0  0  0  0  0  0  0  0  0  0  0  0
    6.1745    0.4652   -6.9788 H   0  0  0  0  0  0  0  0  0  0  0  0
    5.9661    1.3438   -9.2695 H   0  0  0  0  0  0  0  0  0  0  0  0
    3.8087    5.0478  -10.9776 H   0  0  0  0  0  0  0  0  0  0  0  0
    4.4251    4.6265   -9.3420 H   0  0  0  0  0  0  0  0  0  0  0  0
    6.5413    3.7573  -10.3579 H   0  0  0  0  0  0  0  0  0  0  0  0
    5.9067    4.1344  -12.0119 H   0  0  0  0  0  0  0  0  0  0  0  0
    6.2402    5.4693  -10.8454 H   0  0  0  0  0  0  0  0  0  0  0  0
    2.1890    1.8544   -6.0925 H   0  0  0  0  0  0  0  0  0  0  0  0
    6.3850   -2.0165   -1.2341 H   0  0  0  0  0  0  0  0  0  0  0  0
    6.3770   -3.2484    0.8989 H   0  0  0  0  0  0  0  0  0  0  0  0
    5.9016   -2.0148    3.4655 H   0  0  0  0  0  0  0  0  0  0  0  0
    4.2263   -1.6455    4.0593 H   0  0  0  0  0  0  0  0  0  0  0  0
    5.7934   -2.2447    5.9288 H   0  0  0  0  0  0  0  0  0  0  0  0
    6.0954   -3.8495    5.1619 H   0  0  0  0  0  0  0  0  0  0  0  0
    4.4440   -3.4392    5.7801 H   0  0  0  0  0  0  0  0  0  0  0  0
    2.2668   -0.9094   -0.6106 H   0  0  0  0  0  0  0  0  0  0  0  0
    4.7355   -3.5540   -2.8076 H   0  0  0  0  0  0  0  0  0  0  0  0
    5.1531   -4.3750   -5.2351 H   0  0  0  0  0  0  0  0  0  0  0  0
  1  2  2  0
  2  3  1  0
  3  4  2  0
  4  5  1  0
  5  6  2  0
  6  7  1  0
  7  8  2  0
  8  9  1  0
  9 10  1  0
 10 11  1  0
  8 12  1  0
 12 13  1  0
 12 14  2  0
  4 15  1  0
 15 16  2  0
 16 17  1  0
 17 18  1  0
 18 19  2  0
 19 20  1  0
 20 21  2  0
 21 22  1  0
 22 23  1  0
 23 24  1  0
 21 25  1  0
 25 26  2  0
 25 27  1  0
 17 28  2  0
 28 29  1  0
 16 30  1  0
 30 31  2  0
 31 32  1  0
 31 33  1  0
 33 34  2  0
 34 35  1  0
 35 36  2  0
 36 37  1  0
 37 38  2  0
 38 39  1  0
 39 40  2  0
 40 41  1  0
 41 42  1  0
 42 43  1  0
 40 44  1  0
 44 45  1  0
 44 46  2  0
 36 47  1  0
 47 48  2  0
 48 49  1  0
 49 50  1  0
 50 51  2  0
 51 52  1  0
 52 53  2  0
 53 54  1  0
 54 55  1  0
 55 56  1  0
 53 57  1  0
 57 58  2  0
 57 59  1  0
 49 60  2  0
 60 61  1  0
 48 62  1  0
 62 63  2  0
 63 64  1  0
 63 65  1  0
 65 66  2  0
 66 67  1  0
 67 68  2  0
 68 69  1  0
 69 70  2  0
 70 71  1  0
 71 72  2  0
 72 73  1  0
 73 74  1  0
 74 75  1  0
 72 76  1  0
 76 77  1  0
 76 78  2  0
 68 79  1  0
 79 80  2  0
 80 81  1  0
 81 82  1  0
 82 83  2  0
 83 84  1  0
 84 85  2  0
 85 86  1  0
 86 87  1  0
 87 88  1  0
 85 89  1  0
 89 90  2  0
 89 91  1  0
 81 92  2  0
 92 93  1  0
 80 94  1  0
 94 95  2  0
 95 96  1  0
 95 97  1  0
 97 98  1  0
 98 99  1  0
 99100  2  0
100101  1  0
101102  2  0
101103  1  0
103104  1  0
104105  1  0
105106  1  0
106107  1  0
107108  2  0
108109  1  0
109110  2  0
109111  1  0
111112  1  0
112113  1  0
113114  2  0
114115  1  0
115116  2  0
116117  1  0
117118  2  0
118119  1  0
119120  2  0
120121  1  0
121122  1  0
122123  1  0
120124  1  0
124125  1  0
124126  2  0
116127  1  0
127128  2  0
128129  1  0
129130  1  0
130131  2  0
131132  1  0
132133  2  0
133134  1  0
134135  1  0
135136  1  0
133137  1  0
137138  2  0
137139  1  0
129140  2  0
140141  1  0
128142  1  0
142143  2  0
143144  1  0
 29  1  1  0
 61 33  1  0
 93 65  1  0
100 97  1  0
108105  1  0
141113  1  0
 28  3  1  0
 60 35  1  0
 92 67  1  0
140115  1  0
 14  5  1  0
 32 15  1  0
 46 37  1  0
 64 47  1  0
 78 69  1  0
 96 79  1  0
126117  1  0
144127  1  0
 26 18  1  0
 58 50  1  0
 90 82  1  0
138130  1  0
  1145  1  0
  2146  1  0
  6147  1  0
  7148  1  0
 10149  1  0
 10150  1  0
 11151  1  0
 11152  1  0
 11153  1  0
 14154  1  0
 19155  1  0
 20156  1  0
 23157  1  0
 23158  1  0
 24159  1  0
 24160  1  0
 24161  1  0
 26162  1  0
 30163  1  0
 34164  1  0
 38165  1  0
 39166  1  0
 42167  1  0
 42168  1  0
 43169  1  0
 43170  1  0
 43171  1  0
 46172  1  0
 51173  1  0
 52174  1  0
 55175  1  0
 55176  1  0
 56177  1  0
 56178  1  0
 56179  1  0
 58180  1  0
 62181  1  0
 66182  1  0
 70183  1  0
 71184  1  0
 74185  1  0
 74186  1  0
 75187  1  0
 75188  1  0
 75189  1  0
 78190  1  0
 83191  1  0
 84192  1  0
 87193  1  0
 87194  1  0
 88195  1  0
 88196  1  0
 88197  1  0
 90198  1  0
 94199  1  0
 97200  1  0
 99201  1  0
104202  1  0
104203  1  0
105204  1  0
107205  1  0
112206  1  0
112207  1  0
114208  1  0
118209  1  0
119210  1  0
122211  1  0
122212  1  0
123213  1  0
123214  1  0
123215  1  0
126216  1  0
131217  1  0
132218  1  0
135219  1  0
135220  1  0
136221  1  0
136222  1  0
136223  1  0
138224  1  0
142225  1  0
143226  1  0
M  END

