
     RDKit          3D

228253  0  0  0  0  0  0  0  0999 V2000
    0.8834   -7.5019   11.4983 C   0  0  0  0  0  0  0  0  0  0  0  0
    1.5596   -6.5647   10.7215 C   0  0  0  0  0  0  0  0  0  0  0  0
    1.1571   -6.5675    9.3749 C   0  0  0  0  0  0  0  0  0  0  0  0
    1.6029   -5.6884    8.3686 C   0  0  0  0  0  0  0  0  0  0  0  0
    2.5840   -4.6212    8.6369 C   0  0  0  0  0  0  0  0  0  0  0  0
    2.2345   -2.9766    8.6134 S   0  0  0  0  0  0  0  0  0  0  0  0
    3.7683   -2.4592    9.0669 C   0  0  0  0  0  0  0  0  0  0  0  0
    4.1669   -1.0234    9.2361 C   0  0  0  0  0  0  0  0  0  0  0  0
    4.7508   -0.4657    7.9444 C   0  0  0  0  0  0  0  0  0  0  0  0
    4.5907   -3.5767    9.2147 C   0  0  0  0  0  0  0  0  0  0  0  0
    6.2922   -3.4779    9.6467 Cl  0  0  0  0  0  0  0  0  0  0  0  0
    3.9242   -4.7894    8.9815 C   0  0  0  0  0  0  0  0  0  0  0  0
    4.7079   -6.3611    9.0798 Cl  0  0  0  0  0  0  0  0  0  0  0  0
    1.0061   -5.8192    7.1052 C   0  0  0  0  0  0  0  0  0  0  0  0
    0.0191   -6.7690    6.8231 C   0  0  0  0  0  0  0  0  0  0  0  0
   -0.4412   -7.6364    7.8352 C   0  0  0  0  0  0  0  0  0  0  0  0
   -1.5760   -8.5493    7.6177 C   0  0  0  0  0  0  0  0  0  0  0  0
   -3.1345   -8.0528    7.2228 S   0  0  0  0  0  0  0  0  0  0  0  0
   -3.8143   -9.5920    7.2007 C   0  0  0  0  0  0  0  0  0  0  0  0
   -5.2361   -9.8831    6.8252 C   0  0  0  0  0  0  0  0  0  0  0  0
   -5.3477  -10.1904    5.3351 C   0  0  0  0  0  0  0  0  0  0  0  0
   -2.8156  -10.5245    7.4840 C   0  0  0  0  0  0  0  0  0  0  0  0
   -1.5621   -9.9392    7.7301 C   0  0  0  0  0  0  0  0  0  0  0  0
   -0.1074  -10.8721    8.0546 Cl  0  0  0  0  0  0  0  0  0  0  0  0
   -3.0882  -12.2593    7.5075 Cl  0  0  0  0  0  0  0  0  0  0  0  0
    0.1615   -7.5118    9.1013 C   0  0  0  0  0  0  0  0  0  0  0  0
   -0.2216   -8.3234   10.5254 S   0  0  0  0  0  0  0  0  0  0  0  0
   -0.4407   -6.7121    5.4951 C   0  0  0  0  0  0  0  0  0  0  0  0
    0.1728   -5.7005    4.7585 C   0  0  0  0  0  0  0  0  0  0  0  0
    1.2879   -4.8935    5.7366 S   0  0  0  0  0  0  0  0  0  0  0  0
   -0.1960   -5.2664    3.4052 C   0  0  0  0  0  0  0  0  0  0  0  0
    0.0862   -4.0075    2.8922 C   0  0  0  0  0  0  0  0  0  0  0  0
   -0.4928   -3.7778    1.6384 C   0  0  0  0  0  0  0  0  0  0  0  0
   -0.4382   -2.5716    0.9192 C   0  0  0  0  0  0  0  0  0  0  0  0
    0.0700   -1.3401    1.5514 C   0  0  0  0  0  0  0  0  0  0  0  0
   -0.4962   -0.7415    3.0220 S   0  0  0  0  0  0  0  0  0  0  0  0
    0.7060    0.4089    3.2333 C   0  0  0  0  0  0  0  0  0  0  0  0
    0.9135    1.1931    4.4944 C   0  0  0  0  0  0  0  0  0  0  0  0
    1.6580    0.3526    5.5253 C   0  0  0  0  0  0  0  0  0  0  0  0
    1.5857    0.3310    2.1558 C   0  0  0  0  0  0  0  0  0  0  0  0
    3.0680    1.2639    2.0882 Cl  0  0  0  0  0  0  0  0  0  0  0  0
    1.2183   -0.6352    1.1996 C   0  0  0  0  0  0  0  0  0  0  0  0
    2.1537   -0.9923   -0.2424 Cl  0  0  0  0  0  0  0  0  0  0  0  0
   -1.0384   -2.5640   -0.3496 C   0  0  0  0  0  0  0  0  0  0  0  0
   -1.7445   -3.6627   -0.8560 C   0  0  0  0  0  0  0  0  0  0  0  0
   -1.8456   -4.8556   -0.1059 C   0  0  0  0  0  0  0  0  0  0  0  0
   -2.6000   -6.0211   -0.5979 C   0  0  0  0  0  0  0  0  0  0  0  0
   -2.2193   -6.8949   -1.9852 S   0  0  0  0  0  0  0  0  0  0  0  0
   -3.4911   -7.9898   -1.8636 C   0  0  0  0  0  0  0  0  0  0  0  0
   -3.7285   -9.1266   -2.8107 C   0  0  0  0  0  0  0  0  0  0  0  0
   -3.1015  -10.4130   -2.2836 C   0  0  0  0  0  0  0  0  0  0  0  0
   -4.2276   -7.6928   -0.7166 C   0  0  0  0  0  0  0  0  0  0  0  0
   -3.7333   -6.5835   -0.0125 C   0  0  0  0  0  0  0  0  0  0  0  0
   -4.5139   -5.9286    1.4212 Cl  0  0  0  0  0  0  0  0  0  0  0  0
   -5.6462   -8.6010   -0.2110 Cl  0  0  0  0  0  0  0  0  0  0  0  0
   -1.1898   -4.8809    1.1404 C   0  0  0  0  0  0  0  0  0  0  0  0
   -1.1283   -6.1247    2.2829 S   0  0  0  0  0  0  0  0  0  0  0  0
   -2.4001   -3.3798   -2.0702 C   0  0  0  0  0  0  0  0  0  0  0  0
   -2.1611   -2.0844   -2.5244 C   0  0  0  0  0  0  0  0  0  0  0  0
   -1.2017   -1.2682   -1.4011 S   0  0  0  0  0  0  0  0  0  0  0  0
   -2.9587   -1.3652   -3.5156 C   0  0  0  0  0  0  0  0  0  0  0  0
   -4.1943   -0.8192   -3.1763 C   0  0  0  0  0  0  0  0  0  0  0  0
   -4.4879    0.3595   -3.8767 C   0  0  0  0  0  0  0  0  0  0  0  0
   -5.5067    1.2663   -3.5440 C   0  0  0  0  0  0  0  0  0  0  0  0
   -6.5983    0.9009   -2.6330 C   0  0  0  0  0  0  0  0  0  0  0  0
   -7.9689    0.0595   -3.1145 S   0  0  0  0  0  0  0  0  0  0  0  0
   -8.7128    0.0573   -1.6061 C   0  0  0  0  0  0  0  0  0  0  0  0
  -10.0210   -0.6162   -1.3166 C   0  0  0  0  0  0  0  0  0  0  0  0
   -9.8245   -2.1142   -1.1220 C   0  0  0  0  0  0  0  0  0  0  0  0
   -7.8756    0.7018   -0.6931 C   0  0  0  0  0  0  0  0  0  0  0  0
   -8.2458    0.8674    1.0177 Cl  0  0  0  0  0  0  0  0  0  0  0  0
   -6.6925    1.1857   -1.2736 C   0  0  0  0  0  0  0  0  0  0  0  0
   -5.4303    2.0123   -0.3746 Cl  0  0  0  0  0  0  0  0  0  0  0  0
   -5.4024    2.5605   -4.0686 C   0  0  0  0  0  0  0  0  0  0  0  0
   -4.4228    2.9139   -5.0031 C   0  0  0  0  0  0  0  0  0  0  0  0
   -3.5143    1.9415   -5.4917 C   0  0  0  0  0  0  0  0  0  0  0  0
   -2.6650    2.1462   -6.6916 C   0  0  0  0  0  0  0  0  0  0  0  0
   -1.7369    3.5054   -7.0511 S   0  0  0  0  0  0  0  0  0  0  0  0
   -1.3091    3.0565   -8.6110 C   0  0  0  0  0  0  0  0  0  0  0  0
   -0.6163    3.9516   -9.5936 C   0  0  0  0  0  0  0  0  0  0  0  0
   -1.6263    4.7459  -10.4102 C   0  0  0  0  0  0  0  0  0  0  0  0
   -1.8999    1.8260   -8.8880 C   0  0  0  0  0  0  0  0  0  0  0  0
   -2.6555    1.3174   -7.8200 C   0  0  0  0  0  0  0  0  0  0  0  0
   -3.6296   -0.1395   -7.9682 Cl  0  0  0  0  0  0  0  0  0  0  0  0
   -1.7929    1.0359  -10.4542 Cl  0  0  0  0  0  0  0  0  0  0  0  0
   -3.5205    0.7017   -4.8249 C   0  0  0  0  0  0  0  0  0  0  0  0
   -2.2636   -0.4137   -4.7295 S   0  0  0  0  0  0  0  0  0  0  0  0
   -4.3754    4.2990   -5.2264 C   0  0  0  0  0  0  0  0  0  0  0  0
   -5.2559    5.0202   -4.4242 C   0  0  0  0  0  0  0  0  0  0  0  0
   -6.1792    3.9435   -3.5134 S   0  0  0  0  0  0  0  0  0  0  0  0
   -5.0237    6.4152   -4.0258 C   0  0  0  0  0  0  0  0  0  0  0  0
   -3.5123    7.1426   -4.0495 S   0  0  0  0  0  0  0  0  0  0  0  0
   -3.8924    8.4513   -3.0694 C   0  0  0  0  0  0  0  0  0  0  0  0
   -5.2507    8.3523   -2.7295 C   0  0  0  0  0  0  0  0  0  0  0  0
   -5.8678    7.1973   -3.2490 C   0  0  0  0  0  0  0  0  0  0  0  0
   -5.9514    9.2896   -1.8218 C   0  0  0  0  0  0  0  0  0  0  0  0
   -5.3256    9.8009   -0.8594 O   0  0  0  0  0  0  0  0  0  0  0  0
   -7.4281    9.5363   -1.9503 C   0  0  0  0  0  0  0  0  0  0  0  0
   -8.1227    8.5404   -1.2935 F   0  0  0  0  0  0  0  0  0  0  0  0
   -7.7968    9.5551   -3.2850 F   0  0  0  0  0  0  0  0  0  0  0  0
   -7.7527   10.7586   -1.3861 F   0  0  0  0  0  0  0  0  0  0  0  0
   -2.9716    9.5505   -2.6906 C   0  0  0  0  0  0  0  0  0  0  0  0
   -1.6531    9.4364   -2.4629 C   0  0  0  0  0  0  0  0  0  0  0  0
   -0.8837    8.1828   -2.5108 C   0  0  0  0  0  0  0  0  0  0  0  0
   -0.3419    7.5492   -1.3929 C   0  0  0  0  0  0  0  0  0  0  0  0
    0.5431    6.5051   -1.7245 C   0  0  0  0  0  0  0  0  0  0  0  0
    1.2494    5.6831   -0.8189 C   0  0  0  0  0  0  0  0  0  0  0  0
    1.1130    5.8331    0.6404 C   0  0  0  0  0  0  0  0  0  0  0  0
   -0.3142    5.6061    1.5056 S   0  0  0  0  0  0  0  0  0  0  0  0
    0.3268    6.0048    3.0092 C   0  0  0  0  0  0  0  0  0  0  0  0
   -0.4352    5.9752    4.2982 C   0  0  0  0  0  0  0  0  0  0  0  0
   -0.2646    4.6303    4.9948 C   0  0  0  0  0  0  0  0  0  0  0  0
    1.6804    6.3032    2.8569 C   0  0  0  0  0  0  0  0  0  0  0  0
    2.7299    6.7630    4.1899 Cl  0  0  0  0  0  0  0  0  0  0  0  0
    2.1198    6.2138    1.5265 C   0  0  0  0  0  0  0  0  0  0  0  0
    3.7554    6.6202    1.0242 Cl  0  0  0  0  0  0  0  0  0  0  0  0
    2.1185    4.7239   -1.3716 C   0  0  0  0  0  0  0  0  0  0  0  0
    2.3002    4.5861   -2.7508 C   0  0  0  0  0  0  0  0  0  0  0  0
    1.5747    5.3852   -3.6603 C   0  0  0  0  0  0  0  0  0  0  0  0
    1.7243    5.2203   -5.1204 C   0  0  0  0  0  0  0  0  0  0  0  0
    2.3756    6.3887   -6.1369 S   0  0  0  0  0  0  0  0  0  0  0  0
    2.5253    5.3938   -7.4871 C   0  0  0  0  0  0  0  0  0  0  0  0
    3.1889    5.8011   -8.7665 C   0  0  0  0  0  0  0  0  0  0  0  0
    4.6973    5.6161   -8.6660 C   0  0  0  0  0  0  0  0  0  0  0  0
    2.1036    4.1108   -7.1438 C   0  0  0  0  0  0  0  0  0  0  0  0
    1.6224    4.0194   -5.8308 C   0  0  0  0  0  0  0  0  0  0  0  0
    0.9841    2.5241   -5.1484 Cl  0  0  0  0  0  0  0  0  0  0  0  0
    2.2519    2.7192   -8.2064 Cl  0  0  0  0  0  0  0  0  0  0  0  0
    0.7185    6.3537   -3.1058 C   0  0  0  0  0  0  0  0  0  0  0  0
   -0.2096    7.5093   -3.9071 S   0  0  0  0  0  0  0  0  0  0  0  0
    3.2239    3.5855   -3.0869 C   0  0  0  0  0  0  0  0  0  0  0  0
    3.6939    2.8758   -1.9888 C   0  0  0  0  0  0  0  0  0  0  0  0
    3.0315    3.5426   -0.5839 S   0  0  0  0  0  0  0  0  0  0  0  0
    4.4526    1.6186   -2.0878 C   0  0  0  0  0  0  0  0  0  0  0  0
    4.8699    0.8138   -1.0285 C   0  0  0  0  0  0  0  0  0  0  0  0
    5.3792   -0.4309   -1.4441 C   0  0  0  0  0  0  0  0  0  0  0  0
    5.7593   -1.5123   -0.6151 C   0  0  0  0  0  0  0  0  0  0  0  0
    5.5975   -1.4828    0.8553 C   0  0  0  0  0  0  0  0  0  0  0  0
    4.6504   -2.5739    1.7210 S   0  0  0  0  0  0  0  0  0  0  0  0
    4.9676   -1.9446    3.2459 C   0  0  0  0  0  0  0  0  0  0  0  0
    4.3913   -2.4747    4.5288 C   0  0  0  0  0  0  0  0  0  0  0  0
    4.6174   -3.9784    4.6665 C   0  0  0  0  0  0  0  0  0  0  0  0
    5.8131   -0.8429    3.0969 C   0  0  0  0  0  0  0  0  0  0  0  0
    6.3644    0.1495    4.4389 Cl  0  0  0  0  0  0  0  0  0  0  0  0
    6.1748   -0.5937    1.7587 C   0  0  0  0  0  0  0  0  0  0  0  0
    7.3044    0.6711    1.2916 Cl  0  0  0  0  0  0  0  0  0  0  0  0
    6.1546   -2.6979   -1.2672 C   0  0  0  0  0  0  0  0  0  0  0  0
    6.1352   -2.8410   -2.6580 C   0  0  0  0  0  0  0  0  0  0  0  0
    5.7168   -1.7781   -3.4775 C   0  0  0  0  0  0  0  0  0  0  0  0
    5.5261   -1.9347   -4.9300 C   0  0  0  0  0  0  0  0  0  0  0  0
    6.3276   -1.0407   -6.1067 S   0  0  0  0  0  0  0  0  0  0  0  0
    5.4417   -1.6254   -7.4119 C   0  0  0  0  0  0  0  0  0  0  0  0
    5.5786   -1.1249   -8.8179 C   0  0  0  0  0  0  0  0  0  0  0  0
    4.6777    0.0846   -9.0495 C   0  0  0  0  0  0  0  0  0  0  0  0
    4.4708   -2.5034   -6.9329 C   0  0  0  0  0  0  0  0  0  0  0  0
    4.5194   -2.6789   -5.5420 C   0  0  0  0  0  0  0  0  0  0  0  0
    3.3575   -3.6558   -4.6520 Cl  0  0  0  0  0  0  0  0  0  0  0  0
    3.2584   -3.2604   -7.9572 Cl  0  0  0  0  0  0  0  0  0  0  0  0
    5.3680   -0.5803   -2.8364 C   0  0  0  0  0  0  0  0  0  0  0  0
    4.7210    0.7991   -3.5376 S   0  0  0  0  0  0  0  0  0  0  0  0
    6.5560   -4.1095   -3.0933 C   0  0  0  0  0  0  0  0  0  0  0  0
    6.9046   -4.9579   -2.0480 C   0  0  0  0  0  0  0  0  0  0  0  0
    6.6913   -4.1415   -0.5875 S   0  0  0  0  0  0  0  0  0  0  0  0
    1.0279   -7.6572   12.5593 H   0  0  0  0  0  0  0  0  0  0  0  0
    2.2976   -5.8911   11.1345 H   0  0  0  0  0  0  0  0  0  0  0  0
    4.9113   -0.9298   10.0543 H   0  0  0  0  0  0  0  0  0  0  0  0
    3.2754   -0.4246    9.5213 H   0  0  0  0  0  0  0  0  0  0  0  0
    5.6700   -1.0215    7.6643 H   0  0  0  0  0  0  0  0  0  0  0  0
    5.0056    0.6048    8.0832 H   0  0  0  0  0  0  0  0  0  0  0  0
    4.0078   -0.5466    7.1252 H   0  0  0  0  0  0  0  0  0  0  0  0
   -5.8699   -9.0014    7.0629 H   0  0  0  0  0  0  0  0  0  0  0  0
   -5.6143  -10.7445    7.4157 H   0  0  0  0  0  0  0  0  0  0  0  0
   -4.9843   -9.3286    4.7347 H   0  0  0  0  0  0  0  0  0  0  0  0
   -4.7485  -11.0904    5.0796 H   0  0  0  0  0  0  0  0  0  0  0  0
   -6.4085  -10.3817    5.0736 H   0  0  0  0  0  0  0  0  0  0  0  0
   -1.2179   -7.3472    5.0925 H   0  0  0  0  0  0  0  0  0  0  0  0
    0.6779   -3.2784    3.4266 H   0  0  0  0  0  0  0  0  0  0  0  0
    1.4927    2.1145    4.2807 H   0  0  0  0  0  0  0  0  0  0  0  0
   -0.0704    1.4926    4.9068 H   0  0  0  0  0  0  0  0  0  0  0  0
    2.6379    0.0284    5.1195 H   0  0  0  0  0  0  0  0  0  0  0  0
    1.0606   -0.5428    5.7975 H   0  0  0  0  0  0  0  0  0  0  0  0
    1.8327    0.9568    6.4421 H   0  0  0  0  0  0  0  0  0  0  0  0
   -4.8190   -9.2746   -2.9526 H   0  0  0  0  0  0  0  0  0  0  0  0
   -3.2814   -8.8856   -3.7975 H   0  0  0  0  0  0  0  0  0  0  0  0
   -2.0092  -10.2745   -2.1347 H   0  0  0  0  0  0  0  0  0  0  0  0
   -3.5656  -10.7000   -1.3161 H   0  0  0  0  0  0  0  0  0  0  0  0
   -3.2589  -11.2311   -3.0163 H   0  0  0  0  0  0  0  0  0  0  0  0
   -3.0820   -4.0590   -2.5645 H   0  0  0  0  0  0  0  0  0  0  0  0
   -4.7602   -1.1519   -2.3170 H   0  0  0  0  0  0  0  0  0  0  0  0
  -10.7117   -0.4467   -2.1710 H   0  0  0  0  0  0  0  0  0  0  0  0
  -10.4889   -0.1793   -0.4087 H   0  0  0  0  0  0  0  0  0  0  0  0
   -9.1475   -2.3040   -0.2620 H   0  0  0  0  0  0  0  0  0  0  0  0
   -9.3846   -2.5663   -2.0359 H   0  0  0  0  0  0  0  0  0  0  0  0
  -10.8044   -2.5979   -0.9272 H   0  0  0  0  0  0  0  0  0  0  0  0
    0.0429    4.6588   -9.0496 H   0  0  0  0  0  0  0  0  0  0  0  0
    0.0152    3.3441  -10.2749 H   0  0  0  0  0  0  0  0  0  0  0  0
   -2.2664    5.3625   -9.7422 H   0  0  0  0  0  0  0  0  0  0  0  0
   -1.0902    5.4211  -11.1111 H   0  0  0  0  0  0  0  0  0  0  0  0
   -2.2710    4.0599  -11.0013 H   0  0  0  0  0  0  0  0  0  0  0  0
   -3.6397    4.7996   -5.8299 H   0  0  0  0  0  0  0  0  0  0  0  0
   -6.8858    6.9074   -3.0176 H   0  0  0  0  0  0  0  0  0  0  0  0
   -3.4167   10.5218   -2.5119 H   0  0  0  0  0  0  0  0  0  0  0  0
   -1.1263   10.3148   -2.1112 H   0  0  0  0  0  0  0  0  0  0  0  0
   -0.5581    7.8597   -0.3803 H   0  0  0  0  0  0  0  0  0  0  0  0
   -0.0767    6.7870    4.9679 H   0  0  0  0  0  0  0  0  0  0  0  0
   -1.5146    6.1493    4.0988 H   0  0  0  0  0  0  0  0  0  0  0  0
    0.8083    4.4421    5.2115 H   0  0  0  0  0  0  0  0  0  0  0  0
   -0.6578    3.8178    4.3468 H   0  0  0  0  0  0  0  0  0  0  0  0
   -0.8291    4.6276    5.9491 H   0  0  0  0  0  0  0  0  0  0  0  0
    2.7909    5.1983   -9.6101 H   0  0  0  0  0  0  0  0  0  0  0  0
    2.9613    6.8691   -8.9728 H   0  0  0  0  0  0  0  0  0  0  0  0
    4.9427    4.5503   -8.4695 H   0  0  0  0  0  0  0  0  0  0  0  0
    5.1759    5.9248   -9.6182 H   0  0  0  0  0  0  0  0  0  0  0  0
    5.1093    6.2403   -7.8427 H   0  0  0  0  0  0  0  0  0  0  0  0
    3.5167    3.3478   -4.0981 H   0  0  0  0  0  0  0  0  0  0  0  0
    4.7653    1.1075    0.0002 H   0  0  0  0  0  0  0  0  0  0  0  0
    3.3011   -2.2643    4.5556 H   0  0  0  0  0  0  0  0  0  0  0  0
    4.8708   -1.9786    5.3960 H   0  0  0  0  0  0  0  0  0  0  0  0
    4.0341   -4.5277    3.8967 H   0  0  0  0  0  0  0  0  0  0  0  0
    5.6954   -4.2200    4.5534 H   0  0  0  0  0  0  0  0  0  0  0  0
    4.2831   -4.3138    5.6711 H   0  0  0  0  0  0  0  0  0  0  0  0
    5.3134   -1.9298   -9.5355 H   0  0  0  0  0  0  0  0  0  0  0  0
    6.6350   -0.8381   -9.0048 H   0  0  0  0  0  0  0  0  0  0  0  0
    4.8149    0.4567  -10.0858 H   0  0  0  0  0  0  0  0  0  0  0  0
    3.6123   -0.1953   -8.9076 H   0  0  0  0  0  0  0  0  0  0  0  0
    4.9378    0.9018   -8.3419 H   0  0  0  0  0  0  0  0  0  0  0  0
    6.6087   -4.4055   -4.1323 H   0  0  0  0  0  0  0  0  0  0  0  0
    7.2582   -5.9737   -2.1567 H   0  0  0  0  0  0  0  0  0  0  0  0
  1  2  2  0
  2  3  1  0
  3  4  2  0
  4  5  1  0
  5  6  1  0
  6  7  1  0
  7  8  1  0
  8  9  1  0
  7 10  2  0
 10 11  1  0
 10 12  1  0
 12 13  1  0
  4 14  1  0
 14 15  2  0
 15 16  1  0
 16 17  1  0
 17 18  1  0
 18 19  1  0
 19 20  1  0
 20 21  1  0
 19 22  2  0
 22 23  1  0
 23 24  1  0
 22 25  1  0
 16 26  2  0
 26 27  1  0
 15 28  1  0
 28 29  2  0
 29 30  1  0
 29 31  1  0
 31 32  2  0
 32 33  1  0
 33 34  2  0
 34 35  1  0
 35 36  1  0
 36 37  1  0
 37 38  1  0
 38 39  1  0
 37 40  2  0
 40 41  1  0
 40 42  1  0
 42 43  1  0
 34 44  1  0
 44 45  2  0
 45 46  1  0
 46 47  1  0
 47 48  1  0
 48 49  1  0
 49 50  1  0
 50 51  1  0
 49 52  2  0
 52 53  1  0
 53 54  1  0
 52 55  1  0
 46 56  2  0
 56 57  1  0
 45 58  1  0
 58 59  2  0
 59 60  1  0
 59 61  1  0
 61 62  2  0
 62 63  1  0
 63 64  2  0
 64 65  1  0
 65 66  1  0
 66 67  1  0
 67 68  1  0
 68 69  1  0
 67 70  2  0
 70 71  1  0
 70 72  1  0
 72 73  1  0
 64 74  1  0
 74 75  2  0
 75 76  1  0
 76 77  1  0
 77 78  1  0
 78 79  1  0
 79 80  1  0
 80 81  1  0
 79 82  2  0
 82 83  1  0
 83 84  1  0
 82 85  1  0
 76 86  2  0
 86 87  1  0
 75 88  1  0
 88 89  2  0
 89 90  1  0
 89 91  1  0
 91 92  1  0
 92 93  1  0
 93 94  2  0
 94 95  1  0
 94 96  1  0
 96 97  2  0
 96 98  1  0
 98 99  1  0
 98100  1  0
 98101  1  0
 93102  1  0
102103  2  3
103104  1  0
104105  2  0
105106  1  0
106107  2  0
107108  1  0
108109  1  0
109110  1  0
110111  1  0
111112  1  0
110113  2  0
113114  1  0
113115  1  0
115116  1  0
107117  1  0
117118  2  0
118119  1  0
119120  1  0
120121  1  0
121122  1  0
122123  1  0
123124  1  0
122125  2  0
125126  1  0
126127  1  0
125128  1  0
119129  2  0
129130  1  0
118131  1  0
131132  2  0
132133  1  0
132134  1  0
134135  2  0
135136  1  0
136137  2  0
137138  1  0
138139  1  0
139140  1  0
140141  1  0
141142  1  0
140143  2  0
143144  1  0
143145  1  0
145146  1  0
137147  1  0
147148  2  0
148149  1  0
149150  1  0
150151  1  0
151152  1  0
152153  1  0
153154  1  0
152155  2  0
155156  1  0
156157  1  0
155158  1  0
149159  2  0
159160  1  0
148161  1  0
161162  2  0
162163  1  0
 27  1  1  0
 57 31  1  0
 87 61  1  0
 95 91  2  0
130104  1  0
160134  1  0
 26  3  1  0
 56 33  1  0
 86 63  1  0
129106  1  0
159136  1  0
 12  5  2  0
 30 14  1  0
 42 35  2  0
 60 44  1  0
 72 65  2  0
 90 74  1  0
115108  2  0
133117  1  0
145138  2  0
163147  1  0
 23 17  2  0
 53 47  2  0
 83 77  2  0
126120  2  0
156150  2  0
  1164  1  0
  2165  1  0
  8166  1  0
  8167  1  0
  9168  1  0
  9169  1  0
  9170  1  0
 20171  1  0
 20172  1  0
 21173  1  0
 21174  1  0
 21175  1  0
 28176  1  0
 32177  1  0
 38178  1  0
 38179  1  0
 39180  1  0
 39181  1  0
 39182  1  0
 50183  1  0
 50184  1  0
 51185  1  0
 51186  1  0
 51187  1  0
 58188  1  0
 62189  1  0
 68190  1  0
 68191  1  0
 69192  1  0
 69193  1  0
 69194  1  0
 80195  1  0
 80196  1  0
 81197  1  0
 81198  1  0
 81199  1  0
 88200  1  0
 95201  1  0
102202  1  0
103203  1  0
105204  1  0
111205  1  0
111206  1  0
112207  1  0
112208  1  0
112209  1  0
123210  1  0
123211  1  0
124212  1  0
124213  1  0
124214  1  0
131215  1  0
135216  1  0
141217  1  0
141218  1  0
142219  1  0
142220  1  0
142221  1  0
153222  1  0
153223  1  0
154224  1  0
154225  1  0
154226  1  0
161227  1  0
162228  1  0
M  END

