
     RDKit          3D

132147  0  0  0  0  0  0  0  0999 V2000
    0.1983   -0.3270   11.0616 C   0  0  0  0  0  0  0  0  0  0  0  0
   -1.1818   -0.5542   11.0151 C   0  0  0  0  0  0  0  0  0  0  0  0
   -1.8954   -0.4855    9.7735 C   0  0  0  0  0  0  0  0  0  0  0  0
   -3.2307   -0.7249    9.8290 N   0  0  0  0  0  0  0  0  0  0  0  0
   -3.4111   -1.0112   11.4484 S   0  0  0  0  0  0  0  0  0  0  0  0
   -1.9082   -0.8534   12.1204 N   0  0  0  0  0  0  0  0  0  0  0  0
   -1.2192   -0.1834    8.5767 C   0  0  0  0  0  0  0  0  0  0  0  0
    0.1716    0.0325    8.6415 C   0  0  0  0  0  0  0  0  0  0  0  0
    1.0202    0.3067    7.5580 C   0  0  0  0  0  0  0  0  0  0  0  0
    2.3517    0.4485    7.9393 C   0  0  0  0  0  0  0  0  0  0  0  0
    3.4688    0.7036    7.0206 C   0  0  0  0  0  0  0  0  0  0  0  0
    4.6383    0.8428    7.4733 O   0  0  0  0  0  0  0  0  0  0  0  0
    3.2240    0.7793    5.6447 O   0  0  0  0  0  0  0  0  0  0  0  0
    4.2550    0.9952    4.6880 C   0  0  0  0  0  0  0  0  0  0  0  0
    3.6580    0.9796    3.2889 C   0  0  0  0  0  0  0  0  0  0  0  0
    2.4849    0.2394    9.6129 S   0  0  0  0  0  0  0  0  0  0  0  0
    0.8459   -0.0385    9.8595 C   0  0  0  0  0  0  0  0  0  0  0  0
   -1.9276   -0.1151    7.2847 C   0  0  0  0  0  0  0  0  0  0  0  0
   -2.2282    1.1222    6.6910 C   0  0  0  0  0  0  0  0  0  0  0  0
   -2.6675    1.1917    5.3290 C   0  0  0  0  0  0  0  0  0  0  0  0
   -2.8738    2.4355    4.8233 N   0  0  0  0  0  0  0  0  0  0  0  0
   -2.4946    3.3628    6.1379 S   0  0  0  0  0  0  0  0  0  0  0  0
   -2.0631    2.3067    7.3354 N   0  0  0  0  0  0  0  0  0  0  0  0
   -2.8020    0.0239    4.5579 C   0  0  0  0  0  0  0  0  0  0  0  0
   -2.5512   -1.2113    5.1832 C   0  0  0  0  0  0  0  0  0  0  0  0
   -2.6155   -2.4745    4.5723 C   0  0  0  0  0  0  0  0  0  0  0  0
   -2.2443   -3.5077    5.4299 C   0  0  0  0  0  0  0  0  0  0  0  0
   -2.2108   -4.9314    5.0780 C   0  0  0  0  0  0  0  0  0  0  0  0
   -1.8316   -5.7795    5.9312 O   0  0  0  0  0  0  0  0  0  0  0  0
   -2.5930   -5.3328    3.7933 O   0  0  0  0  0  0  0  0  0  0  0  0
   -2.6444   -6.6957    3.3765 C   0  0  0  0  0  0  0  0  0  0  0  0
   -3.8635   -7.3962    3.9675 C   0  0  0  0  0  0  0  0  0  0  0  0
   -1.8199   -2.8655    6.9338 S   0  0  0  0  0  0  0  0  0  0  0  0
   -2.1307   -1.2647    6.5130 C   0  0  0  0  0  0  0  0  0  0  0  0
   -2.9337    0.1112    3.0996 C   0  0  0  0  0  0  0  0  0  0  0  0
   -1.6320    0.0713    2.0234 S   0  0  0  0  0  0  0  0  0  0  0  0
   -2.5245    0.1871    0.5919 C   0  0  0  0  0  0  0  0  0  0  0  0
   -3.8567    0.2276    0.9748 C   0  0  0  0  0  0  0  0  0  0  0  0
   -5.3173    0.2483    0.1463 S   0  0  0  0  0  0  0  0  0  0  0  0
   -6.2652    0.2784    1.5611 C   0  0  0  0  0  0  0  0  0  0  0  0
   -7.7299    0.3804    1.5793 C   0  0  0  0  0  0  0  0  0  0  0  0
   -8.3849    0.1641    0.5252 O   0  0  0  0  0  0  0  0  0  0  0  0
   -8.3835    0.7454    2.7599 O   0  0  0  0  0  0  0  0  0  0  0  0
   -9.7933    0.9445    2.8295 C   0  0  0  0  0  0  0  0  0  0  0  0
  -10.1570    1.5375    4.1799 C   0  0  0  0  0  0  0  0  0  0  0  0
   -5.4344    0.2444    2.6884 C   0  0  0  0  0  0  0  0  0  0  0  0
   -4.0872    0.2005    2.3355 C   0  0  0  0  0  0  0  0  0  0  0  0
   -5.8817    0.2415    3.9688 F   0  0  0  0  0  0  0  0  0  0  0  0
   -1.9368    0.2432   -0.7497 C   0  0  0  0  0  0  0  0  0  0  0  0
   -0.5386   -0.6011   -1.2006 S   0  0  0  0  0  0  0  0  0  0  0  0
   -0.2511    0.1680   -2.6803 C   0  0  0  0  0  0  0  0  0  0  0  0
   -1.2565    1.1205   -2.7999 C   0  0  0  0  0  0  0  0  0  0  0  0
   -1.4916    2.4091   -3.8527 S   0  0  0  0  0  0  0  0  0  0  0  0
   -2.7783    3.0715   -2.9568 C   0  0  0  0  0  0  0  0  0  0  0  0
   -3.4984    4.3037   -3.3135 C   0  0  0  0  0  0  0  0  0  0  0  0
   -4.2511    4.8595   -2.4688 O   0  0  0  0  0  0  0  0  0  0  0  0
   -3.3476    4.8480   -4.5933 O   0  0  0  0  0  0  0  0  0  0  0  0
   -3.9796    6.0628   -4.9860 C   0  0  0  0  0  0  0  0  0  0  0  0
   -3.7662    6.2976   -6.4735 C   0  0  0  0  0  0  0  0  0  0  0  0
   -3.0039    2.2999   -1.8112 C   0  0  0  0  0  0  0  0  0  0  0  0
   -2.1575    1.1881   -1.7494 C   0  0  0  0  0  0  0  0  0  0  0  0
   -3.8719    2.6554   -0.8331 F   0  0  0  0  0  0  0  0  0  0  0  0
    0.9955    0.0773   -3.4677 C   0  0  0  0  0  0  0  0  0  0  0  0
    2.2571    0.1663   -2.8470 C   0  0  0  0  0  0  0  0  0  0  0  0
    3.4612    0.0939   -3.6196 C   0  0  0  0  0  0  0  0  0  0  0  0
    4.6281    0.2198   -2.9347 N   0  0  0  0  0  0  0  0  0  0  0  0
    4.0602    0.4115   -1.3958 S   0  0  0  0  0  0  0  0  0  0  0  0
    2.4134    0.3534   -1.5101 N   0  0  0  0  0  0  0  0  0  0  0  0
    3.4139   -0.0672   -5.0159 C   0  0  0  0  0  0  0  0  0  0  0  0
    2.1481   -0.1670   -5.6243 C   0  0  0  0  0  0  0  0  0  0  0  0
    1.9023   -0.3724   -6.9918 C   0  0  0  0  0  0  0  0  0  0  0  0
    0.5448   -0.4709   -7.2899 C   0  0  0  0  0  0  0  0  0  0  0  0
   -0.0250   -0.7256   -8.6171 C   0  0  0  0  0  0  0  0  0  0  0  0
    0.7363   -0.8464   -9.6158 O   0  0  0  0  0  0  0  0  0  0  0  0
   -1.4091   -0.8482   -8.7603 O   0  0  0  0  0  0  0  0  0  0  0  0
   -2.0254   -1.2051   -9.9911 C   0  0  0  0  0  0  0  0  0  0  0  0
   -3.5308   -1.2951   -9.8011 C   0  0  0  0  0  0  0  0  0  0  0  0
   -0.3516   -0.3036   -5.8704 S   0  0  0  0  0  0  0  0  0  0  0  0
    0.9803   -0.0944   -4.8601 C   0  0  0  0  0  0  0  0  0  0  0  0
    4.6600   -0.0659   -5.8130 C   0  0  0  0  0  0  0  0  0  0  0  0
    5.0017    1.0321   -6.6264 C   0  0  0  0  0  0  0  0  0  0  0  0
    6.2381    1.0488   -7.3510 C   0  0  0  0  0  0  0  0  0  0  0  0
    6.4937    2.1537   -8.0976 N   0  0  0  0  0  0  0  0  0  0  0  0
    5.1308    3.0379   -7.7904 S   0  0  0  0  0  0  0  0  0  0  0  0
    4.2083    2.1250   -6.7626 N   0  0  0  0  0  0  0  0  0  0  0  0
    7.1312   -0.0262   -7.2685 C   0  0  0  0  0  0  0  0  0  0  0  0
    6.7826   -1.1146   -6.4608 C   0  0  0  0  0  0  0  0  0  0  0  0
    7.5578   -2.2648   -6.2747 C   0  0  0  0  0  0  0  0  0  0  0  0
    6.9560   -3.1841   -5.4164 C   0  0  0  0  0  0  0  0  0  0  0  0
    7.5197   -4.4864   -5.0399 C   0  0  0  0  0  0  0  0  0  0  0  0
    6.9225   -5.2085   -4.1942 O   0  0  0  0  0  0  0  0  0  0  0  0
    8.7070   -4.9227   -5.6410 O   0  0  0  0  0  0  0  0  0  0  0  0
    9.3540   -6.1504   -5.3076 C   0  0  0  0  0  0  0  0  0  0  0  0
   10.1649   -5.9924   -4.0284 C   0  0  0  0  0  0  0  0  0  0  0  0
    5.4695   -2.5689   -4.8892 S   0  0  0  0  0  0  0  0  0  0  0  0
    5.5800   -1.1257   -5.7515 C   0  0  0  0  0  0  0  0  0  0  0  0
    0.7468   -0.3825   11.9921 H   0  0  0  0  0  0  0  0  0  0  0  0
    0.6846    0.3887    6.5320 H   0  0  0  0  0  0  0  0  0  0  0  0
    5.0201    0.1930    4.7698 H   0  0  0  0  0  0  0  0  0  0  0  0
    4.7373    1.9793    4.8730 H   0  0  0  0  0  0  0  0  0  0  0  0
    2.8974    1.7827    3.1934 H   0  0  0  0  0  0  0  0  0  0  0  0
    4.4586    1.1495    2.5360 H   0  0  0  0  0  0  0  0  0  0  0  0
    3.1808   -0.0021    3.0889 H   0  0  0  0  0  0  0  0  0  0  0  0
   -2.9143   -2.6350    3.5435 H   0  0  0  0  0  0  0  0  0  0  0  0
   -2.7220   -6.7218    2.2686 H   0  0  0  0  0  0  0  0  0  0  0  0
   -1.7131   -7.2272    3.6694 H   0  0  0  0  0  0  0  0  0  0  0  0
   -3.9507   -8.4182    3.5431 H   0  0  0  0  0  0  0  0  0  0  0  0
   -4.7859   -6.8255    3.7239 H   0  0  0  0  0  0  0  0  0  0  0  0
   -3.7665   -7.4747    5.0705 H   0  0  0  0  0  0  0  0  0  0  0  0
  -10.1165    1.6469    2.0293 H   0  0  0  0  0  0  0  0  0  0  0  0
  -10.3152   -0.0283    2.6940 H   0  0  0  0  0  0  0  0  0  0  0  0
   -9.6458    2.5154    4.3116 H   0  0  0  0  0  0  0  0  0  0  0  0
  -11.2557    1.7014    4.2402 H   0  0  0  0  0  0  0  0  0  0  0  0
   -9.8467    0.8510    4.9966 H   0  0  0  0  0  0  0  0  0  0  0  0
   -3.5436    6.9095   -4.4133 H   0  0  0  0  0  0  0  0  0  0  0  0
   -5.0698    6.0074   -4.7792 H   0  0  0  0  0  0  0  0  0  0  0  0
   -4.2276    7.2632   -6.7652 H   0  0  0  0  0  0  0  0  0  0  0  0
   -4.2402    5.4799   -7.0563 H   0  0  0  0  0  0  0  0  0  0  0  0
   -2.6807    6.3352   -6.7034 H   0  0  0  0  0  0  0  0  0  0  0  0
    2.6826   -0.4754   -7.7355 H   0  0  0  0  0  0  0  0  0  0  0  0
   -1.7943   -0.4380  -10.7622 H   0  0  0  0  0  0  0  0  0  0  0  0
   -1.6387   -2.1906  -10.3281 H   0  0  0  0  0  0  0  0  0  0  0  0
   -3.9385   -0.3021   -9.5180 H   0  0  0  0  0  0  0  0  0  0  0  0
   -3.7675   -2.0285   -9.0020 H   0  0  0  0  0  0  0  0  0  0  0  0
   -4.0087   -1.6250  -10.7461 H   0  0  0  0  0  0  0  0  0  0  0  0
    8.0676   -0.0151   -7.8119 H   0  0  0  0  0  0  0  0  0  0  0  0
    8.5203   -2.4229   -6.7462 H   0  0  0  0  0  0  0  0  0  0  0  0
   10.0416   -6.4251   -6.1344 H   0  0  0  0  0  0  0  0  0  0  0  0
    8.6091   -6.9679   -5.1925 H   0  0  0  0  0  0  0  0  0  0  0  0
    9.4975   -5.7483   -3.1754 H   0  0  0  0  0  0  0  0  0  0  0  0
   10.9100   -5.1762   -4.1515 H   0  0  0  0  0  0  0  0  0  0  0  0
   10.7059   -6.9381   -3.8074 H   0  0  0  0  0  0  0  0  0  0  0  0
  1  2  1  0
  2  3  1  0
  3  4  2  0
  4  5  1  0
  5  6  1  0
  3  7  1  0
  7  8  2  0
  8  9  1  0
  9 10  2  0
 10 11  1  0
 11 12  2  0
 11 13  1  0
 13 14  1  0
 14 15  1  0
 10 16  1  0
 16 17  1  0
  7 18  1  0
 18 19  1  0
 19 20  1  0
 20 21  2  0
 21 22  1  0
 22 23  1  0
 20 24  1  0
 24 25  2  0
 25 26  1  0
 26 27  2  0
 27 28  1  0
 28 29  2  0
 28 30  1  0
 30 31  1  0
 31 32  1  0
 27 33  1  0
 33 34  1  0
 24 35  1  0
 35 36  1  0
 36 37  1  0
 37 38  2  0
 38 39  1  0
 39 40  1  0
 40 41  1  0
 41 42  2  0
 41 43  1  0
 43 44  1  0
 44 45  1  0
 40 46  2  0
 46 47  1  0
 46 48  1  0
 37 49  1  0
 49 50  1  0
 50 51  1  0
 51 52  2  0
 52 53  1  0
 53 54  1  0
 54 55  1  0
 55 56  2  0
 55 57  1  0
 57 58  1  0
 58 59  1  0
 54 60  2  0
 60 61  1  0
 60 62  1  0
 51 63  1  0
 63 64  1  0
 64 65  1  0
 65 66  2  0
 66 67  1  0
 67 68  1  0
 65 69  1  0
 69 70  2  0
 70 71  1  0
 71 72  2  0
 72 73  1  0
 73 74  2  0
 73 75  1  0
 75 76  1  0
 76 77  1  0
 72 78  1  0
 78 79  1  0
 69 80  1  0
 80 81  1  0
 81 82  1  0
 82 83  2  0
 83 84  1  0
 84 85  1  0
 82 86  1  0
 86 87  2  0
 87 88  1  0
 88 89  2  0
 89 90  1  0
 90 91  2  0
 90 92  1  0
 92 93  1  0
 93 94  1  0
 89 95  1  0
 95 96  1  0
 17  1  2  0
 34 18  2  0
 47 35  2  0
 61 49  2  0
 79 63  2  0
 96 80  2  0
  6  2  2  0
 17  8  1  0
 23 19  2  0
 34 25  1  0
 47 38  1  0
 61 52  1  0
 68 64  2  0
 79 70  1  0
 85 81  2  0
 96 87  1  0
  1 97  1  0
  9 98  1  0
 14 99  1  0
 14100  1  0
 15101  1  0
 15102  1  0
 15103  1  0
 26104  1  0
 31105  1  0
 31106  1  0
 32107  1  0
 32108  1  0
 32109  1  0
 44110  1  0
 44111  1  0
 45112  1  0
 45113  1  0
 45114  1  0
 58115  1  0
 58116  1  0
 59117  1  0
 59118  1  0
 59119  1  0
 71120  1  0
 76121  1  0
 76122  1  0
 77123  1  0
 77124  1  0
 77125  1  0
 86126  1  0
 88127  1  0
 93128  1  0
 93129  1  0
 94130  1  0
 94131  1  0
 94132  1  0
M  END

