
     RDKit          3D

128142  0  0  0  0  0  0  0  0999 V2000
   -5.8230    6.7234    7.5809 C   0  0  0  0  0  0  0  0  0  0  0  0
   -6.4710    5.6400    6.4527 S   0  0  0  0  0  0  0  0  0  0  0  0
   -5.0444    4.8364    5.9984 C   0  0  0  0  0  0  0  0  0  0  0  0
   -4.0528    5.4363    6.7677 C   0  0  0  0  0  0  0  0  0  0  0  0
   -2.3860    5.2425    6.8954 S   0  0  0  0  0  0  0  0  0  0  0  0
   -2.1915    6.4812    8.0490 C   0  0  0  0  0  0  0  0  0  0  0  0
   -0.9094    6.8846    8.6402 C   0  0  0  0  0  0  0  0  0  0  0  0
    0.1272    6.1984    8.4185 O   0  0  0  0  0  0  0  0  0  0  0  0
   -0.8457    8.0353    9.4302 O   0  0  0  0  0  0  0  0  0  0  0  0
    0.3547    8.4794   10.0553 C   0  0  0  0  0  0  0  0  0  0  0  0
    0.1142    9.8304   10.7089 C   0  0  0  0  0  0  0  0  0  0  0  0
   -3.4383    7.0538    8.3316 C   0  0  0  0  0  0  0  0  0  0  0  0
   -4.4655    6.4524    7.6072 C   0  0  0  0  0  0  0  0  0  0  0  0
   -3.6319    8.0732    9.2060 F   0  0  0  0  0  0  0  0  0  0  0  0
   -4.8777    3.7654    4.9871 C   0  0  0  0  0  0  0  0  0  0  0  0
   -3.4684    2.8361    4.8065 S   0  0  0  0  0  0  0  0  0  0  0  0
   -3.9111    1.9491    3.4396 C   0  0  0  0  0  0  0  0  0  0  0  0
   -5.1839    2.3950    3.1180 C   0  0  0  0  0  0  0  0  0  0  0  0
   -6.2111    2.0601    1.8352 S   0  0  0  0  0  0  0  0  0  0  0  0
   -7.4105    3.1490    2.3396 C   0  0  0  0  0  0  0  0  0  0  0  0
   -8.6912    3.3519    1.6466 C   0  0  0  0  0  0  0  0  0  0  0  0
   -8.9195    2.7427    0.5661 O   0  0  0  0  0  0  0  0  0  0  0  0
   -9.6588    4.1978    2.1984 O   0  0  0  0  0  0  0  0  0  0  0  0
  -10.9105    4.4465    1.5708 C   0  0  0  0  0  0  0  0  0  0  0  0
  -11.7439    5.3758    2.4399 C   0  0  0  0  0  0  0  0  0  0  0  0
   -6.9951    3.8042    3.5057 C   0  0  0  0  0  0  0  0  0  0  0  0
   -5.7280    3.3713    3.9390 C   0  0  0  0  0  0  0  0  0  0  0  0
   -7.7415    4.7614    4.1063 F   0  0  0  0  0  0  0  0  0  0  0  0
   -3.0654    1.0019    2.6775 C   0  0  0  0  0  0  0  0  0  0  0  0
   -3.5725   -0.2260    2.2031 C   0  0  0  0  0  0  0  0  0  0  0  0
   -2.7695   -1.0833    1.3807 C   0  0  0  0  0  0  0  0  0  0  0  0
   -3.3494   -2.2352    0.9544 N   0  0  0  0  0  0  0  0  0  0  0  0
   -4.8375   -2.1037    1.6593 S   0  0  0  0  0  0  0  0  0  0  0  0
   -4.8253   -0.6708    2.4838 N   0  0  0  0  0  0  0  0  0  0  0  0
   -1.4515   -0.7300    1.0440 C   0  0  0  0  0  0  0  0  0  0  0  0
   -0.9358    0.4657    1.5672 C   0  0  0  0  0  0  0  0  0  0  0  0
    0.3628    0.9564    1.3500 C   0  0  0  0  0  0  0  0  0  0  0  0
    0.5901    2.1791    1.9692 C   0  0  0  0  0  0  0  0  0  0  0  0
    1.8621    2.9101    1.9578 C   0  0  0  0  0  0  0  0  0  0  0  0
    1.9662    4.0052    2.5765 O   0  0  0  0  0  0  0  0  0  0  0  0
    2.9531    2.3753    1.2588 O   0  0  0  0  0  0  0  0  0  0  0  0
    4.2656    2.9347    1.3015 C   0  0  0  0  0  0  0  0  0  0  0  0
    4.9529    2.5773    2.6163 C   0  0  0  0  0  0  0  0  0  0  0  0
   -0.8141    2.6589    2.7749 S   0  0  0  0  0  0  0  0  0  0  0  0
   -1.7257    1.3007    2.3607 C   0  0  0  0  0  0  0  0  0  0  0  0
   -0.6566   -1.5419    0.1013 C   0  0  0  0  0  0  0  0  0  0  0  0
   -0.5903   -1.1952   -1.2564 C   0  0  0  0  0  0  0  0  0  0  0  0
    0.3039   -1.8736   -2.1424 C   0  0  0  0  0  0  0  0  0  0  0  0
    0.3285   -1.4336   -3.4285 N   0  0  0  0  0  0  0  0  0  0  0  0
   -0.7936   -0.2228   -3.3564 S   0  0  0  0  0  0  0  0  0  0  0  0
   -1.3240   -0.1855   -1.7913 N   0  0  0  0  0  0  0  0  0  0  0  0
    1.1354   -2.9096   -1.6737 C   0  0  0  0  0  0  0  0  0  0  0  0
    1.0415   -3.2610   -0.3106 C   0  0  0  0  0  0  0  0  0  0  0  0
    1.7892   -4.2532    0.3466 C   0  0  0  0  0  0  0  0  0  0  0  0
    1.5071   -4.3282    1.7105 C   0  0  0  0  0  0  0  0  0  0  0  0
    2.1429   -5.2481    2.6608 C   0  0  0  0  0  0  0  0  0  0  0  0
    1.8450   -5.1923    3.8854 O   0  0  0  0  0  0  0  0  0  0  0  0
    3.0760   -6.1800    2.1984 O   0  0  0  0  0  0  0  0  0  0  0  0
    3.7500   -7.0916    3.0599 C   0  0  0  0  0  0  0  0  0  0  0  0
    4.6224   -8.0179    2.2295 C   0  0  0  0  0  0  0  0  0  0  0  0
    0.3329   -3.1800    2.1047 S   0  0  0  0  0  0  0  0  0  0  0  0
    0.1699   -2.5818    0.5421 C   0  0  0  0  0  0  0  0  0  0  0  0
    2.1321   -3.5335   -2.5728 C   0  0  0  0  0  0  0  0  0  0  0  0
    3.5109   -3.3116   -2.3980 C   0  0  0  0  0  0  0  0  0  0  0  0
    4.4609   -3.8215   -3.3418 C   0  0  0  0  0  0  0  0  0  0  0  0
    5.7663   -3.5315   -3.1024 N   0  0  0  0  0  0  0  0  0  0  0  0
    5.6311   -2.6549   -1.7088 S   0  0  0  0  0  0  0  0  0  0  0  0
    4.0165   -2.5920   -1.3632 N   0  0  0  0  0  0  0  0  0  0  0  0
    4.0371   -4.5417   -4.4754 C   0  0  0  0  0  0  0  0  0  0  0  0
    2.6555   -4.7923   -4.6141 C   0  0  0  0  0  0  0  0  0  0  0  0
    2.0428   -5.5362   -5.6376 C   0  0  0  0  0  0  0  0  0  0  0  0
    0.6579   -5.5917   -5.5140 C   0  0  0  0  0  0  0  0  0  0  0  0
   -0.2509   -6.2690   -6.4447 C   0  0  0  0  0  0  0  0  0  0  0  0
   -1.4970   -6.1828   -6.2733 O   0  0  0  0  0  0  0  0  0  0  0  0
    0.2705   -6.9996   -7.5155 O   0  0  0  0  0  0  0  0  0  0  0  0
   -0.5568   -7.6468   -8.4794 C   0  0  0  0  0  0  0  0  0  0  0  0
    0.3135   -8.3973   -9.4733 C   0  0  0  0  0  0  0  0  0  0  0  0
    0.1849   -4.7407   -4.1360 S   0  0  0  0  0  0  0  0  0  0  0  0
    1.7419   -4.2896   -3.6866 C   0  0  0  0  0  0  0  0  0  0  0  0
    5.0102   -4.9928   -5.4903 C   0  0  0  0  0  0  0  0  0  0  0  0
    6.3193   -6.0345   -5.2212 S   0  0  0  0  0  0  0  0  0  0  0  0
    6.9041   -6.1011   -6.8106 C   0  0  0  0  0  0  0  0  0  0  0  0
    6.0532   -5.2915   -7.5413 C   0  0  0  0  0  0  0  0  0  0  0  0
    6.0010   -4.8554   -9.1580 S   0  0  0  0  0  0  0  0  0  0  0  0
    4.6389   -3.8453   -8.9686 C   0  0  0  0  0  0  0  0  0  0  0  0
    3.9951   -3.1039  -10.0626 C   0  0  0  0  0  0  0  0  0  0  0  0
    4.4653   -3.1831  -11.2294 O   0  0  0  0  0  0  0  0  0  0  0  0
    2.8587   -2.3318   -9.8073 O   0  0  0  0  0  0  0  0  0  0  0  0
    2.1645   -1.6275  -10.8328 C   0  0  0  0  0  0  0  0  0  0  0  0
    0.9715   -0.8948  -10.2347 C   0  0  0  0  0  0  0  0  0  0  0  0
    4.2315   -3.8470   -7.6286 C   0  0  0  0  0  0  0  0  0  0  0  0
    5.0358   -4.6786   -6.8440 C   0  0  0  0  0  0  0  0  0  0  0  0
    3.1969   -3.1153   -7.1470 F   0  0  0  0  0  0  0  0  0  0  0  0
   -6.3542    7.4758    8.1514 H   0  0  0  0  0  0  0  0  0  0  0  0
    1.1598    8.5853    9.2934 H   0  0  0  0  0  0  0  0  0  0  0  0
    0.6659    7.7412   10.8246 H   0  0  0  0  0  0  0  0  0  0  0  0
   -0.6724    9.7416   11.4916 H   0  0  0  0  0  0  0  0  0  0  0  0
   -0.2177   10.5688    9.9470 H   0  0  0  0  0  0  0  0  0  0  0  0
    1.0563   10.1962   11.1708 H   0  0  0  0  0  0  0  0  0  0  0  0
  -11.4573    3.4870    1.4310 H   0  0  0  0  0  0  0  0  0  0  0  0
  -10.7450    4.9182    0.5756 H   0  0  0  0  0  0  0  0  0  0  0  0
  -11.9340    4.9007    3.4260 H   0  0  0  0  0  0  0  0  0  0  0  0
  -11.2028    6.3311    2.5952 H   0  0  0  0  0  0  0  0  0  0  0  0
  -12.7118    5.5839    1.9396 H   0  0  0  0  0  0  0  0  0  0  0  0
    1.1125    0.4375    0.7700 H   0  0  0  0  0  0  0  0  0  0  0  0
    4.8580    2.5133    0.4634 H   0  0  0  0  0  0  0  0  0  0  0  0
    4.2263    4.0397    1.1762 H   0  0  0  0  0  0  0  0  0  0  0  0
    6.0020    2.9451    2.6086 H   0  0  0  0  0  0  0  0  0  0  0  0
    4.9632    1.4717    2.7531 H   0  0  0  0  0  0  0  0  0  0  0  0
    4.4108    3.0392    3.4711 H   0  0  0  0  0  0  0  0  0  0  0  0
    2.5126   -4.8861   -0.1479 H   0  0  0  0  0  0  0  0  0  0  0  0
    3.0035   -7.6977    3.6235 H   0  0  0  0  0  0  0  0  0  0  0  0
    4.3864   -6.5286    3.7736 H   0  0  0  0  0  0  0  0  0  0  0  0
    3.9910   -8.5796    1.5046 H   0  0  0  0  0  0  0  0  0  0  0  0
    5.1410   -8.7444    2.8899 H   0  0  0  0  0  0  0  0  0  0  0  0
    5.3782   -7.4278    1.6737 H   0  0  0  0  0  0  0  0  0  0  0  0
    2.5834   -6.0152   -6.4444 H   0  0  0  0  0  0  0  0  0  0  0  0
   -1.1665   -6.8869   -9.0178 H   0  0  0  0  0  0  0  0  0  0  0  0
   -1.2356   -8.3674   -7.9712 H   0  0  0  0  0  0  0  0  0  0  0  0
   -0.3183   -8.8001  -10.2906 H   0  0  0  0  0  0  0  0  0  0  0  0
    1.0709   -7.7142   -9.9110 H   0  0  0  0  0  0  0  0  0  0  0  0
    0.8283   -9.2379   -8.9608 H   0  0  0  0  0  0  0  0  0  0  0  0
    7.7579   -6.6536   -7.1780 H   0  0  0  0  0  0  0  0  0  0  0  0
    1.8043   -2.3459  -11.6019 H   0  0  0  0  0  0  0  0  0  0  0  0
    2.8461   -0.8919  -11.3094 H   0  0  0  0  0  0  0  0  0  0  0  0
    1.3190   -0.1664   -9.4715 H   0  0  0  0  0  0  0  0  0  0  0  0
    0.2800   -1.6207   -9.7591 H   0  0  0  0  0  0  0  0  0  0  0  0
    0.4285   -0.3487  -11.0342 H   0  0  0  0  0  0  0  0  0  0  0  0
  1  2  1  0
  2  3  1  0
  3  4  2  0
  4  5  1  0
  5  6  1  0
  6  7  1  0
  7  8  2  0
  7  9  1  0
  9 10  1  0
 10 11  1  0
  6 12  2  0
 12 13  1  0
 12 14  1  0
  3 15  1  0
 15 16  1  0
 16 17  1  0
 17 18  2  0
 18 19  1  0
 19 20  1  0
 20 21  1  0
 21 22  2  0
 21 23  1  0
 23 24  1  0
 24 25  1  0
 20 26  2  0
 26 27  1  0
 26 28  1  0
 17 29  1  0
 29 30  1  0
 30 31  1  0
 31 32  2  0
 32 33  1  0
 33 34  1  0
 31 35  1  0
 35 36  2  0
 36 37  1  0
 37 38  2  0
 38 39  1  0
 39 40  2  0
 39 41  1  0
 41 42  1  0
 42 43  1  0
 38 44  1  0
 44 45  1  0
 35 46  1  0
 46 47  1  0
 47 48  1  0
 48 49  2  0
 49 50  1  0
 50 51  1  0
 48 52  1  0
 52 53  2  0
 53 54  1  0
 54 55  2  0
 55 56  1  0
 56 57  2  0
 56 58  1  0
 58 59  1  0
 59 60  1  0
 55 61  1  0
 61 62  1  0
 52 63  1  0
 63 64  1  0
 64 65  1  0
 65 66  2  0
 66 67  1  0
 67 68  1  0
 65 69  1  0
 69 70  2  0
 70 71  1  0
 71 72  2  0
 72 73  1  0
 73 74  2  0
 73 75  1  0
 75 76  1  0
 76 77  1  0
 72 78  1  0
 78 79  1  0
 69 80  1  0
 80 81  1  0
 81 82  1  0
 82 83  2  0
 83 84  1  0
 84 85  1  0
 85 86  1  0
 86 87  2  0
 86 88  1  0
 88 89  1  0
 89 90  1  0
 85 91  2  0
 91 92  1  0
 91 93  1  0
 13  1  2  0
 27 15  2  0
 45 29  2  0
 62 46  2  0
 79 63  2  0
 92 80  2  0
 13  4  1  0
 27 18  1  0
 34 30  2  0
 45 36  1  0
 51 47  2  0
 62 53  1  0
 68 64  2  0
 79 70  1  0
 92 83  1  0
  1 94  1  0
 10 95  1  0
 10 96  1  0
 11 97  1  0
 11 98  1  0
 11 99  1  0
 24100  1  0
 24101  1  0
 25102  1  0
 25103  1  0
 25104  1  0
 37105  1  0
 42106  1  0
 42107  1  0
 43108  1  0
 43109  1  0
 43110  1  0
 54111  1  0
 59112  1  0
 59113  1  0
 60114  1  0
 60115  1  0
 60116  1  0
 71117  1  0
 76118  1  0
 76119  1  0
 77120  1  0
 77121  1  0
 77122  1  0
 82123  1  0
 89124  1  0
 89125  1  0
 90126  1  0
 90127  1  0
 90128  1  0
M  END

