
     RDKit          3D

126143  0  0  0  0  0  0  0  0999 V2000
    3.7139   -9.3176    7.1765 C   0  0  0  0  0  0  0  0  0  0  0  0
    2.5389   -8.9308    7.8337 C   0  0  0  0  0  0  0  0  0  0  0  0
    1.8390   -7.7427    7.4429 C   0  0  0  0  0  0  0  0  0  0  0  0
    0.7110   -7.4489    8.1400 N   0  0  0  0  0  0  0  0  0  0  0  0
    0.6809   -8.7167    9.2027 S   0  0  0  0  0  0  0  0  0  0  0  0
    2.0077   -9.6429    8.8591 N   0  0  0  0  0  0  0  0  0  0  0  0
    2.3197   -6.9440    6.3883 C   0  0  0  0  0  0  0  0  0  0  0  0
    3.5024   -7.3495    5.7406 C   0  0  0  0  0  0  0  0  0  0  0  0
    4.1378   -6.6831    4.6829 C   0  0  0  0  0  0  0  0  0  0  0  0
    5.2976   -7.3280    4.2602 C   0  0  0  0  0  0  0  0  0  0  0  0
    6.1709   -6.8642    3.1773 C   0  0  0  0  0  0  0  0  0  0  0  0
    7.1974   -7.5285    2.8707 O   0  0  0  0  0  0  0  0  0  0  0  0
    5.8530   -5.6865    2.4935 O   0  0  0  0  0  0  0  0  0  0  0  0
    6.6441   -5.1737    1.4272 C   0  0  0  0  0  0  0  0  0  0  0  0
    6.0286   -3.8803    0.9201 C   0  0  0  0  0  0  0  0  0  0  0  0
    5.5407   -8.7209    5.1904 S   0  0  0  0  0  0  0  0  0  0  0  0
    4.1694   -8.5070    6.1365 C   0  0  0  0  0  0  0  0  0  0  0  0
    1.6241   -5.7101    5.9769 C   0  0  0  0  0  0  0  0  0  0  0  0
    1.9068   -4.4786    6.5907 C   0  0  0  0  0  0  0  0  0  0  0  0
    1.3792   -3.2579    6.0573 C   0  0  0  0  0  0  0  0  0  0  0  0
    1.7441   -2.1125    6.6895 N   0  0  0  0  0  0  0  0  0  0  0  0
    2.7089   -2.7252    7.8833 S   0  0  0  0  0  0  0  0  0  0  0  0
    2.7203   -4.3648    7.6721 N   0  0  0  0  0  0  0  0  0  0  0  0
    0.5659   -3.2708    4.9117 C   0  0  0  0  0  0  0  0  0  0  0  0
    0.2673   -4.5131    4.3257 C   0  0  0  0  0  0  0  0  0  0  0  0
   -0.4993   -4.7143    3.1676 C   0  0  0  0  0  0  0  0  0  0  0  0
   -0.5726   -6.0540    2.7957 C   0  0  0  0  0  0  0  0  0  0  0  0
   -1.2851   -6.5630    1.6186 C   0  0  0  0  0  0  0  0  0  0  0  0
   -1.2881   -7.7993    1.3700 O   0  0  0  0  0  0  0  0  0  0  0  0
   -1.9561   -5.6667    0.7814 O   0  0  0  0  0  0  0  0  0  0  0  0
   -2.6564   -6.0781   -0.3865 C   0  0  0  0  0  0  0  0  0  0  0  0
   -3.2632   -4.8614   -1.0697 C   0  0  0  0  0  0  0  0  0  0  0  0
    0.3117   -6.9907    3.8894 S   0  0  0  0  0  0  0  0  0  0  0  0
    0.7876   -5.6938    4.8536 C   0  0  0  0  0  0  0  0  0  0  0  0
    0.1652   -2.0214    4.2491 C   0  0  0  0  0  0  0  0  0  0  0  0
   -1.0813   -1.4093    4.4670 C   0  0  0  0  0  0  0  0  0  0  0  0
   -2.0401   -1.7548    5.3359 N   0  0  0  0  0  0  0  0  0  0  0  0
   -3.0522   -0.8908    5.0770 C   0  0  0  0  0  0  0  0  0  0  0  0
   -2.7813   -0.0178    4.0700 N   0  0  0  0  0  0  0  0  0  0  0  0
   -1.5321   -0.3556    3.7004 C   0  0  0  0  0  0  0  0  0  0  0  0
   -0.7745    0.1710    2.6396 C   0  0  0  0  0  0  0  0  0  0  0  0
    0.4808   -0.4257    2.4345 C   0  0  0  0  0  0  0  0  0  0  0  0
    0.9291   -1.4716    3.2063 C   0  0  0  0  0  0  0  0  0  0  0  0
    2.1178   -1.8782    2.7401 N   0  0  0  0  0  0  0  0  0  0  0  0
    2.3646   -1.0538    1.6940 C   0  0  0  0  0  0  0  0  0  0  0  0
    1.3765   -0.1477    1.4685 N   0  0  0  0  0  0  0  0  0  0  0  0
   -1.3032    1.1750    1.7096 C   0  0  0  0  0  0  0  0  0  0  0  0
   -1.3168    2.5501    1.9986 C   0  0  0  0  0  0  0  0  0  0  0  0
   -0.9480    3.1698    3.1270 N   0  0  0  0  0  0  0  0  0  0  0  0
   -1.0901    4.4878    2.8471 C   0  0  0  0  0  0  0  0  0  0  0  0
   -1.5233    4.7326    1.5826 N   0  0  0  0  0  0  0  0  0  0  0  0
   -1.6681    3.4990    1.0628 C   0  0  0  0  0  0  0  0  0  0  0  0
   -2.0404    3.1545   -0.2513 C   0  0  0  0  0  0  0  0  0  0  0  0
   -2.0661    1.7742   -0.5277 C   0  0  0  0  0  0  0  0  0  0  0  0
   -1.7102    0.8320    0.4089 C   0  0  0  0  0  0  0  0  0  0  0  0
   -1.8059   -0.3866   -0.1416 N   0  0  0  0  0  0  0  0  0  0  0  0
   -2.2285   -0.1499   -1.4059 C   0  0  0  0  0  0  0  0  0  0  0  0
   -2.3983    1.1696   -1.6844 N   0  0  0  0  0  0  0  0  0  0  0  0
   -2.2972    4.1654   -1.2981 C   0  0  0  0  0  0  0  0  0  0  0  0
   -3.3544    5.0852   -1.1977 C   0  0  0  0  0  0  0  0  0  0  0  0
   -3.6111    6.0225   -2.2527 C   0  0  0  0  0  0  0  0  0  0  0  0
   -4.6613    6.8617   -2.0716 N   0  0  0  0  0  0  0  0  0  0  0  0
   -5.1927    6.3627   -0.5889 S   0  0  0  0  0  0  0  0  0  0  0  0
   -4.1894    5.1330   -0.1304 N   0  0  0  0  0  0  0  0  0  0  0  0
   -2.8078    6.0449   -3.4086 C   0  0  0  0  0  0  0  0  0  0  0  0
   -1.7246    5.1486   -3.4745 C   0  0  0  0  0  0  0  0  0  0  0  0
   -0.7666    5.0807   -4.5017 C   0  0  0  0  0  0  0  0  0  0  0  0
    0.2182    4.1244   -4.2612 C   0  0  0  0  0  0  0  0  0  0  0  0
    1.3910    3.8671   -5.1042 C   0  0  0  0  0  0  0  0  0  0  0  0
    1.5384    4.4977   -6.1871 O   0  0  0  0  0  0  0  0  0  0  0  0
    2.3477    2.9351   -4.6878 O   0  0  0  0  0  0  0  0  0  0  0  0
    3.5747    2.7334   -5.3770 C   0  0  0  0  0  0  0  0  0  0  0  0
    4.3961    1.6746   -4.6572 C   0  0  0  0  0  0  0  0  0  0  0  0
   -0.0934    3.3617   -2.7900 S   0  0  0  0  0  0  0  0  0  0  0  0
   -1.4899    4.2386   -2.4436 C   0  0  0  0  0  0  0  0  0  0  0  0
   -3.1040    6.9657   -4.5254 C   0  0  0  0  0  0  0  0  0  0  0  0
   -2.8519    8.3459   -4.4319 C   0  0  0  0  0  0  0  0  0  0  0  0
   -3.1133    9.2107   -5.5450 C   0  0  0  0  0  0  0  0  0  0  0  0
   -2.8309   10.5265   -5.3741 N   0  0  0  0  0  0  0  0  0  0  0  0
   -2.2641   10.5055   -3.8210 S   0  0  0  0  0  0  0  0  0  0  0  0
   -2.3423    8.9322   -3.3184 N   0  0  0  0  0  0  0  0  0  0  0  0
   -3.6280    8.7009   -6.7443 C   0  0  0  0  0  0  0  0  0  0  0  0
   -3.8787    7.3265   -6.8247 C   0  0  0  0  0  0  0  0  0  0  0  0
   -4.3929    6.6556   -7.9413 C   0  0  0  0  0  0  0  0  0  0  0  0
   -4.5448    5.2860   -7.7194 C   0  0  0  0  0  0  0  0  0  0  0  0
   -5.0710    4.3114   -8.6817 C   0  0  0  0  0  0  0  0  0  0  0  0
   -5.3974    4.6857   -9.8410 O   0  0  0  0  0  0  0  0  0  0  0  0
   -5.2193    2.9744   -8.2950 O   0  0  0  0  0  0  0  0  0  0  0  0
   -5.7021    1.9541   -9.1671 C   0  0  0  0  0  0  0  0  0  0  0  0
   -4.6143    1.5201  -10.1423 C   0  0  0  0  0  0  0  0  0  0  0  0
   -4.0374    4.9126   -6.1514 S   0  0  0  0  0  0  0  0  0  0  0  0
   -3.6213    6.4902   -5.7392 C   0  0  0  0  0  0  0  0  0  0  0  0
    4.2510  -10.2120    7.4665 H   0  0  0  0  0  0  0  0  0  0  0  0
    3.7717   -5.7653    4.2397 H   0  0  0  0  0  0  0  0  0  0  0  0
    7.6770   -4.9748    1.7876 H   0  0  0  0  0  0  0  0  0  0  0  0
    6.6816   -5.9144    0.5985 H   0  0  0  0  0  0  0  0  0  0  0  0
    5.9868   -3.1324    1.7407 H   0  0  0  0  0  0  0  0  0  0  0  0
    6.6436   -3.4715    0.0904 H   0  0  0  0  0  0  0  0  0  0  0  0
    4.9995   -4.0687    0.5481 H   0  0  0  0  0  0  0  0  0  0  0  0
   -0.9744   -3.9158    2.6113 H   0  0  0  0  0  0  0  0  0  0  0  0
   -1.9546   -6.5816   -1.0869 H   0  0  0  0  0  0  0  0  0  0  0  0
   -3.4668   -6.7852   -0.1080 H   0  0  0  0  0  0  0  0  0  0  0  0
   -3.7995   -5.1783   -1.9883 H   0  0  0  0  0  0  0  0  0  0  0  0
   -2.4625   -4.1432   -1.3480 H   0  0  0  0  0  0  0  0  0  0  0  0
   -3.9818   -4.3614   -0.3872 H   0  0  0  0  0  0  0  0  0  0  0  0
   -2.0252   -2.5240    6.0418 H   0  0  0  0  0  0  0  0  0  0  0  0
   -3.9946   -0.9043    5.6105 H   0  0  0  0  0  0  0  0  0  0  0  0
    2.7158   -2.6599    3.0907 H   0  0  0  0  0  0  0  0  0  0  0  0
    3.2582   -1.1174    1.0867 H   0  0  0  0  0  0  0  0  0  0  0  0
   -0.6143    2.7400    4.0185 H   0  0  0  0  0  0  0  0  0  0  0  0
   -0.8672    5.2723    3.5589 H   0  0  0  0  0  0  0  0  0  0  0  0
   -1.6081   -1.3115    0.3013 H   0  0  0  0  0  0  0  0  0  0  0  0
   -2.4134   -0.9360   -2.1266 H   0  0  0  0  0  0  0  0  0  0  0  0
   -0.7727    5.7218   -5.3740 H   0  0  0  0  0  0  0  0  0  0  0  0
    4.1470    3.6856   -5.4051 H   0  0  0  0  0  0  0  0  0  0  0  0
    3.3711    2.3985   -6.4171 H   0  0  0  0  0  0  0  0  0  0  0  0
    5.3718    1.5424   -5.1715 H   0  0  0  0  0  0  0  0  0  0  0  0
    4.5779    1.9847   -3.6063 H   0  0  0  0  0  0  0  0  0  0  0  0
    3.8525    0.7069   -4.6672 H   0  0  0  0  0  0  0  0  0  0  0  0
   -3.8231    9.3538   -7.5865 H   0  0  0  0  0  0  0  0  0  0  0  0
   -4.6508    7.1476   -8.8714 H   0  0  0  0  0  0  0  0  0  0  0  0
   -6.5973    2.3088   -9.7218 H   0  0  0  0  0  0  0  0  0  0  0  0
   -6.0034    1.0786   -8.5549 H   0  0  0  0  0  0  0  0  0  0  0  0
   -4.3117    2.3684  -10.7903 H   0  0  0  0  0  0  0  0  0  0  0  0
   -4.9958    0.6977  -10.7839 H   0  0  0  0  0  0  0  0  0  0  0  0
   -3.7272    1.1590   -9.5814 H   0  0  0  0  0  0  0  0  0  0  0  0
  1  2  1  0
  2  3  1  0
  3  4  2  0
  4  5  1  0
  5  6  1  0
  3  7  1  0
  7  8  2  0
  8  9  1  0
  9 10  2  0
 10 11  1  0
 11 12  2  0
 11 13  1  0
 13 14  1  0
 14 15  1  0
 10 16  1  0
 16 17  1  0
  7 18  1  0
 18 19  1  0
 19 20  1  0
 20 21  2  0
 21 22  1  0
 22 23  1  0
 20 24  1  0
 24 25  2  0
 25 26  1  0
 26 27  2  0
 27 28  1  0
 28 29  2  0
 28 30  1  0
 30 31  1  0
 31 32  1  0
 27 33  1  0
 33 34  1  0
 24 35  1  0
 35 36  2  0
 36 37  1  0
 37 38  1  0
 38 39  2  0
 39 40  1  0
 40 41  2  0
 41 42  1  0
 42 43  2  0
 43 44  1  0
 44 45  1  0
 45 46  2  0
 41 47  1  0
 47 48  2  0
 48 49  1  0
 49 50  1  0
 50 51  2  0
 51 52  1  0
 52 53  2  0
 53 54  1  0
 54 55  2  0
 55 56  1  0
 56 57  1  0
 57 58  2  0
 53 59  1  0
 59 60  1  0
 60 61  1  0
 61 62  2  0
 62 63  1  0
 63 64  1  0
 61 65  1  0
 65 66  2  0
 66 67  1  0
 67 68  2  0
 68 69  1  0
 69 70  2  0
 69 71  1  0
 71 72  1  0
 72 73  1  0
 68 74  1  0
 74 75  1  0
 65 76  1  0
 76 77  1  0
 77 78  1  0
 78 79  2  0
 79 80  1  0
 80 81  1  0
 78 82  1  0
 82 83  2  0
 83 84  1  0
 84 85  2  0
 85 86  1  0
 86 87  2  0
 86 88  1  0
 88 89  1  0
 89 90  1  0
 85 91  1  0
 91 92  1  0
 17  1  2  0
 34 18  2  0
 43 35  1  0
 55 47  1  0
 75 59  2  0
 92 76  2  0
  6  2  2  0
 17  8  1  0
 23 19  2  0
 34 25  1  0
 40 36  1  0
 46 42  1  0
 52 48  1  0
 58 54  1  0
 64 60  2  0
 75 66  1  0
 81 77  2  0
 92 83  1  0
  1 93  1  0
  9 94  1  0
 14 95  1  0
 14 96  1  0
 15 97  1  0
 15 98  1  0
 15 99  1  0
 26100  1  0
 31101  1  0
 31102  1  0
 32103  1  0
 32104  1  0
 32105  1  0
 37106  1  0
 38107  1  0
 44108  1  0
 45109  1  0
 49110  1  0
 50111  1  0
 56112  1  0
 57113  1  0
 67114  1  0
 72115  1  0
 72116  1  0
 73117  1  0
 73118  1  0
 73119  1  0
 82120  1  0
 84121  1  0
 89122  1  0
 89123  1  0
 90124  1  0
 90125  1  0
 90126  1  0
M  END

