
     RDKit          3D

 62 73  0  0  0  0  0  0  0  0999 V2000
    7.6497    1.9300   -6.3303 C   0  0  0  0  0  0  0  0  0  0  0  0
    6.5650    2.4739   -5.1361 S   0  0  0  0  0  0  0  0  0  0  0  0
    5.8641    0.9795   -4.7148 C   0  0  0  0  0  0  0  0  0  0  0  0
    6.5032    0.0650   -5.5313 C   0  0  0  0  0  0  0  0  0  0  0  0
    7.4314    0.5659   -6.3693 C   0  0  0  0  0  0  0  0  0  0  0  0
    7.9737   -0.4179   -7.0893 N   0  0  0  0  0  0  0  0  0  0  0  0
    7.3223   -1.5243   -6.6358 C   0  0  0  0  0  0  0  0  0  0  0  0
    6.3977   -1.2672   -5.6636 N   0  0  0  0  0  0  0  0  0  0  0  0
    4.8223    0.7190   -3.7100 C   0  0  0  0  0  0  0  0  0  0  0  0
    4.1128   -0.7851   -3.3424 S   0  0  0  0  0  0  0  0  0  0  0  0
    3.0524   -0.2679   -2.1140 C   0  0  0  0  0  0  0  0  0  0  0  0
    3.2802    1.0934   -2.0094 C   0  0  0  0  0  0  0  0  0  0  0  0
    4.2033    1.6101   -2.8464 C   0  0  0  0  0  0  0  0  0  0  0  0
    4.3204    2.9249   -2.6329 N   0  0  0  0  0  0  0  0  0  0  0  0
    3.4238    3.1576   -1.6349 C   0  0  0  0  0  0  0  0  0  0  0  0
    2.7547    2.0430   -1.2171 N   0  0  0  0  0  0  0  0  0  0  0  0
    2.1306   -1.0903   -1.3166 C   0  0  0  0  0  0  0  0  0  0  0  0
    1.2108   -0.5844    0.0230 S   0  0  0  0  0  0  0  0  0  0  0  0
    0.4070   -2.0504    0.3435 C   0  0  0  0  0  0  0  0  0  0  0  0
    0.8659   -2.9205   -0.6321 C   0  0  0  0  0  0  0  0  0  0  0  0
    1.7729   -2.4174   -1.4977 C   0  0  0  0  0  0  0  0  0  0  0  0
    2.0298   -3.3136   -2.4552 N   0  0  0  0  0  0  0  0  0  0  0  0
    1.2348   -4.3643   -2.1161 C   0  0  0  0  0  0  0  0  0  0  0  0
    0.4816   -4.1535   -0.9982 N   0  0  0  0  0  0  0  0  0  0  0  0
   -0.6393   -2.2600    1.3540 C   0  0  0  0  0  0  0  0  0  0  0  0
   -1.6307   -1.0533    2.0297 S   0  0  0  0  0  0  0  0  0  0  0  0
   -2.5699   -2.0411    3.0487 C   0  0  0  0  0  0  0  0  0  0  0  0
   -2.0881   -3.3219    2.8329 C   0  0  0  0  0  0  0  0  0  0  0  0
   -1.0738   -3.4354    1.9485 C   0  0  0  0  0  0  0  0  0  0  0  0
   -0.6964   -4.7141    1.8560 N   0  0  0  0  0  0  0  0  0  0  0  0
   -1.5530   -5.3507    2.6997 C   0  0  0  0  0  0  0  0  0  0  0  0
   -2.4396   -4.5210    3.3225 N   0  0  0  0  0  0  0  0  0  0  0  0
   -3.6829   -1.5962    3.8992 C   0  0  0  0  0  0  0  0  0  0  0  0
   -4.5976   -0.1776    3.6824 S   0  0  0  0  0  0  0  0  0  0  0  0
   -5.6284   -0.3342    5.0277 C   0  0  0  0  0  0  0  0  0  0  0  0
   -5.2253   -1.5096    5.6377 C   0  0  0  0  0  0  0  0  0  0  0  0
   -4.2054   -2.1704    5.0488 C   0  0  0  0  0  0  0  0  0  0  0  0
   -3.8397   -3.2040    5.8130 N   0  0  0  0  0  0  0  0  0  0  0  0
   -4.7034   -3.1352    6.8620 C   0  0  0  0  0  0  0  0  0  0  0  0
   -5.5760   -2.0880    6.7971 N   0  0  0  0  0  0  0  0  0  0  0  0
   -6.6648    0.6066    5.4808 C   0  0  0  0  0  0  0  0  0  0  0  0
   -7.6770    0.4401    6.8403 S   0  0  0  0  0  0  0  0  0  0  0  0
   -8.5544    1.8923    6.6966 C   0  0  0  0  0  0  0  0  0  0  0  0
   -8.0270    2.4873    5.5660 C   0  0  0  0  0  0  0  0  0  0  0  0
   -7.0428    1.8196    4.9291 C   0  0  0  0  0  0  0  0  0  0  0  0
   -6.6319    2.5229    3.8694 N   0  0  0  0  0  0  0  0  0  0  0  0
   -7.4191    3.6330    3.9128 C   0  0  0  0  0  0  0  0  0  0  0  0
   -8.3019    3.6505    4.9554 N   0  0  0  0  0  0  0  0  0  0  0  0
    8.3487    2.5097   -6.9180 H   0  0  0  0  0  0  0  0  0  0  0  0
    8.7170   -0.3565   -7.8197 H   0  0  0  0  0  0  0  0  0  0  0  0
    7.5203   -2.5199   -7.0099 H   0  0  0  0  0  0  0  0  0  0  0  0
    4.9422    3.6159   -3.1052 H   0  0  0  0  0  0  0  0  0  0  0  0
    3.2560    4.1390   -1.2087 H   0  0  0  0  0  0  0  0  0  0  0  0
    2.6461   -3.2241   -3.2915 H   0  0  0  0  0  0  0  0  0  0  0  0
    1.1792   -5.2741   -2.6985 H   0  0  0  0  0  0  0  0  0  0  0  0
    0.0800   -5.1347    1.3021 H   0  0  0  0  0  0  0  0  0  0  0  0
   -1.5289   -6.4190    2.8692 H   0  0  0  0  0  0  0  0  0  0  0  0
   -3.0480   -3.8699    5.6872 H   0  0  0  0  0  0  0  0  0  0  0  0
   -4.6798   -3.8293    7.6912 H   0  0  0  0  0  0  0  0  0  0  0  0
   -9.3378    2.2685    7.3408 H   0  0  0  0  0  0  0  0  0  0  0  0
   -5.8889    2.2937    3.1738 H   0  0  0  0  0  0  0  0  0  0  0  0
   -7.3496    4.4332    3.1877 H   0  0  0  0  0  0  0  0  0  0  0  0
  1  2  1  0
  2  3  1  0
  3  4  2  0
  4  5  1  0
  5  6  1  0
  6  7  1  0
  7  8  2  0
  3  9  1  0
  9 10  1  0
 10 11  1  0
 11 12  2  0
 12 13  1  0
 13 14  1  0
 14 15  1  0
 15 16  2  0
 11 17  1  0
 17 18  1  0
 18 19  1  0
 19 20  2  0
 20 21  1  0
 21 22  1  0
 22 23  1  0
 23 24  2  0
 19 25  1  0
 25 26  1  0
 26 27  1  0
 27 28  2  0
 28 29  1  0
 29 30  1  0
 30 31  1  0
 31 32  2  0
 27 33  1  0
 33 34  1  0
 34 35  1  0
 35 36  2  0
 36 37  1  0
 37 38  1  0
 38 39  1  0
 39 40  2  0
 35 41  1  0
 41 42  1  0
 42 43  1  0
 43 44  2  0
 44 45  1  0
 45 46  1  0
 46 47  1  0
 47 48  2  0
  5  1  2  0
 13  9  2  0
 21 17  2  0
 29 25  2  0
 37 33  2  0
 45 41  2  0
  8  4  1  0
 16 12  1  0
 24 20  1  0
 32 28  1  0
 40 36  1  0
 48 44  1  0
  1 49  1  0
  6 50  1  0
  7 51  1  0
 14 52  1  0
 15 53  1  0
 22 54  1  0
 23 55  1  0
 30 56  1  0
 31 57  1  0
 38 58  1  0
 39 59  1  0
 43 60  1  0
 46 61  1  0
 47 62  1  0
M  END

