
     RDKit          3D

232257  0  0  0  0  0  0  0  0999 V2000
   10.6904   -0.7381   -3.6996 C   0  0  0  0  0  0  0  0  0  0  0  0
   10.7243   -0.7765   -2.3109 C   0  0  0  0  0  0  0  0  0  0  0  0
    9.5100   -0.4006   -1.7115 C   0  0  0  0  0  0  0  0  0  0  0  0
    9.2585   -0.2928   -0.3289 C   0  0  0  0  0  0  0  0  0  0  0  0
   10.2754   -0.6314    0.6811 C   0  0  0  0  0  0  0  0  0  0  0  0
   10.8737    0.4333    1.8375 S   0  0  0  0  0  0  0  0  0  0  0  0
   11.8592   -0.6799    2.6226 C   0  0  0  0  0  0  0  0  0  0  0  0
   12.6245   -0.4022    3.8825 C   0  0  0  0  0  0  0  0  0  0  0  0
   11.7288   -0.6004    5.1004 C   0  0  0  0  0  0  0  0  0  0  0  0
   11.7084   -1.9184    1.9999 C   0  0  0  0  0  0  0  0  0  0  0  0
   12.5103   -3.3841    2.5496 Cl  0  0  0  0  0  0  0  0  0  0  0  0
   10.8247   -1.8911    0.9087 C   0  0  0  0  0  0  0  0  0  0  0  0
   10.3842   -3.3220   -0.0111 Cl  0  0  0  0  0  0  0  0  0  0  0  0
    7.9886    0.1819    0.0497 C   0  0  0  0  0  0  0  0  0  0  0  0
    7.0011    0.5185   -0.8784 C   0  0  0  0  0  0  0  0  0  0  0  0
    7.2392    0.3812   -2.2685 C   0  0  0  0  0  0  0  0  0  0  0  0
    6.2138    0.7294   -3.2800 C   0  0  0  0  0  0  0  0  0  0  0  0
    5.4467    2.2208   -3.3841 S   0  0  0  0  0  0  0  0  0  0  0  0
    4.4437    1.8328   -4.6755 C   0  0  0  0  0  0  0  0  0  0  0  0
    3.5150    2.7928   -5.3464 C   0  0  0  0  0  0  0  0  0  0  0  0
    4.1865    3.4116   -6.5646 C   0  0  0  0  0  0  0  0  0  0  0  0
    4.7180    0.5273   -5.0714 C   0  0  0  0  0  0  0  0  0  0  0  0
    5.7090   -0.0935   -4.2925 C   0  0  0  0  0  0  0  0  0  0  0  0
    6.2293   -1.7491   -4.5852 Cl  0  0  0  0  0  0  0  0  0  0  0  0
    3.9044   -0.2664   -6.4169 Cl  0  0  0  0  0  0  0  0  0  0  0  0
    8.5181   -0.0689   -2.6441 C   0  0  0  0  0  0  0  0  0  0  0  0
    9.1647   -0.2227   -4.1913 S   0  0  0  0  0  0  0  0  0  0  0  0
    5.8111    0.9563   -0.2666 C   0  0  0  0  0  0  0  0  0  0  0  0
    5.8764    0.9683    1.1263 C   0  0  0  0  0  0  0  0  0  0  0  0
    7.3961    0.4208    1.6086 S   0  0  0  0  0  0  0  0  0  0  0  0
    4.7945    1.3753    2.0451 C   0  0  0  0  0  0  0  0  0  0  0  0
    3.4937    1.6983    1.6693 C   0  0  0  0  0  0  0  0  0  0  0  0
    2.6599    2.0023    2.7560 C   0  0  0  0  0  0  0  0  0  0  0  0
    1.2914    2.3313    2.6865 C   0  0  0  0  0  0  0  0  0  0  0  0
    0.5933    2.4917    1.3957 C   0  0  0  0  0  0  0  0  0  0  0  0
    1.0685    3.5491    0.1769 S   0  0  0  0  0  0  0  0  0  0  0  0
   -0.1676    3.1606   -0.8961 C   0  0  0  0  0  0  0  0  0  0  0  0
   -0.2613    3.6772   -2.3020 C   0  0  0  0  0  0  0  0  0  0  0  0
    0.4228    2.7178   -3.2732 C   0  0  0  0  0  0  0  0  0  0  0  0
   -0.9788    2.1921   -0.3103 C   0  0  0  0  0  0  0  0  0  0  0  0
   -2.4042    1.5224   -1.0901 Cl  0  0  0  0  0  0  0  0  0  0  0  0
   -0.5459    1.8075    0.9699 C   0  0  0  0  0  0  0  0  0  0  0  0
   -1.3013    0.5135    1.8932 Cl  0  0  0  0  0  0  0  0  0  0  0  0
    0.6329    2.5741    3.9051 C   0  0  0  0  0  0  0  0  0  0  0  0
    1.2846    2.5017    5.1406 C   0  0  0  0  0  0  0  0  0  0  0  0
    2.6548    2.1647    5.2127 C   0  0  0  0  0  0  0  0  0  0  0  0
    3.3758    2.0723    6.5009 C   0  0  0  0  0  0  0  0  0  0  0  0
    4.7818    2.9206    6.8854 S   0  0  0  0  0  0  0  0  0  0  0  0
    5.0025    2.2462    8.4088 C   0  0  0  0  0  0  0  0  0  0  0  0
    6.0898    2.6271    9.3696 C   0  0  0  0  0  0  0  0  0  0  0  0
    5.5835    3.6515   10.3824 C   0  0  0  0  0  0  0  0  0  0  0  0
    3.9677    1.3417    8.6454 C   0  0  0  0  0  0  0  0  0  0  0  0
    3.0608    1.2431    7.5768 C   0  0  0  0  0  0  0  0  0  0  0  0
    1.7015    0.1284    7.5869 Cl  0  0  0  0  0  0  0  0  0  0  0  0
    3.8167    0.4031   10.1240 Cl  0  0  0  0  0  0  0  0  0  0  0  0
    3.3142    1.9273    3.9914 C   0  0  0  0  0  0  0  0  0  0  0  0
    4.9174    1.4800    3.7234 S   0  0  0  0  0  0  0  0  0  0  0  0
    0.4641    2.8797    6.2191 C   0  0  0  0  0  0  0  0  0  0  0  0
   -0.8301    3.2188    5.8294 C   0  0  0  0  0  0  0  0  0  0  0  0
   -0.9441    3.1154    4.1492 S   0  0  0  0  0  0  0  0  0  0  0  0
   -1.8398    3.8455    6.7056 C   0  0  0  0  0  0  0  0  0  0  0  0
   -2.2305    5.1632    6.4121 C   0  0  0  0  0  0  0  0  0  0  0  0
   -3.0872    5.8692    7.2685 C   0  0  0  0  0  0  0  0  0  0  0  0
   -3.4954    7.2896    6.9562 C   0  0  0  0  0  0  0  0  0  0  0  0
   -2.3435    8.0792    6.5170 N   0  0  0  0  0  0  0  0  0  0  0  0
   -3.6182    5.2187    8.3904 C   0  0  0  0  0  0  0  0  0  0  0  0
   -3.2606    3.8992    8.6797 C   0  0  0  0  0  0  0  0  0  0  0  0
   -2.3715    3.1945    7.8541 C   0  0  0  0  0  0  0  0  0  0  0  0
   -2.0874    1.7475    8.1873 C   0  0  0  0  0  0  0  0  0  0  0  0
   -3.2553    0.9253    7.8647 N   0  0  0  0  0  0  0  0  0  0  0  0
   -3.1996   -0.3135    7.1459 C   0  0  0  0  0  0  0  0  0  0  0  0
   -2.0566   -1.0642    6.8715 C   0  0  0  0  0  0  0  0  0  0  0  0
   -2.3294   -2.1773    6.0614 C   0  0  0  0  0  0  0  0  0  0  0  0
   -1.3758   -3.0727    5.5331 C   0  0  0  0  0  0  0  0  0  0  0  0
    0.0617   -2.9631    5.8393 C   0  0  0  0  0  0  0  0  0  0  0  0
    1.2713   -2.6357    4.7139 S   0  0  0  0  0  0  0  0  0  0  0  0
    2.5681   -2.9000    5.7541 C   0  0  0  0  0  0  0  0  0  0  0  0
    4.0082   -2.7676    5.3660 C   0  0  0  0  0  0  0  0  0  0  0  0
    4.5769   -1.4431    5.8567 C   0  0  0  0  0  0  0  0  0  0  0  0
    2.0673   -3.2375    7.0108 C   0  0  0  0  0  0  0  0  0  0  0  0
    3.0864   -3.5664    8.4062 Cl  0  0  0  0  0  0  0  0  0  0  0  0
    0.6637   -3.2758    7.0573 C   0  0  0  0  0  0  0  0  0  0  0  0
   -0.2426   -3.7397    8.4879 Cl  0  0  0  0  0  0  0  0  0  0  0  0
   -1.8401   -4.0150    4.6024 C   0  0  0  0  0  0  0  0  0  0  0  0
   -3.1792   -4.0987    4.2190 C   0  0  0  0  0  0  0  0  0  0  0  0
   -4.1483   -3.2637    4.8102 C   0  0  0  0  0  0  0  0  0  0  0  0
   -5.5703   -3.3393    4.4226 C   0  0  0  0  0  0  0  0  0  0  0  0
   -6.4146   -2.1258    3.6214 S   0  0  0  0  0  0  0  0  0  0  0  0
   -7.8475   -2.9918    3.4475 C   0  0  0  0  0  0  0  0  0  0  0  0
   -9.0501   -2.5031    2.6985 C   0  0  0  0  0  0  0  0  0  0  0  0
   -9.0093   -2.9706    1.2469 C   0  0  0  0  0  0  0  0  0  0  0  0
   -7.6809   -4.2567    4.0104 C   0  0  0  0  0  0  0  0  0  0  0  0
   -6.3987   -4.4517    4.5548 C   0  0  0  0  0  0  0  0  0  0  0  0
   -5.8991   -5.9486    5.3341 Cl  0  0  0  0  0  0  0  0  0  0  0  0
   -8.9247   -5.5033    3.9983 Cl  0  0  0  0  0  0  0  0  0  0  0  0
   -3.6814   -2.2891    5.7080 C   0  0  0  0  0  0  0  0  0  0  0  0
   -4.5444   -1.0332    6.4209 S   0  0  0  0  0  0  0  0  0  0  0  0
   -3.3809   -4.9102    3.0855 C   0  0  0  0  0  0  0  0  0  0  0  0
   -2.1973   -5.4347    2.5582 C   0  0  0  0  0  0  0  0  0  0  0  0
   -0.9245   -4.9604    3.5623 S   0  0  0  0  0  0  0  0  0  0  0  0
   -2.0014   -5.7082    1.1234 C   0  0  0  0  0  0  0  0  0  0  0  0
   -3.0257   -5.8068    0.1808 C   0  0  0  0  0  0  0  0  0  0  0  0
   -2.6345   -5.4021   -1.1120 C   0  0  0  0  0  0  0  0  0  0  0  0
   -3.5100   -5.1339   -2.1801 C   0  0  0  0  0  0  0  0  0  0  0  0
   -4.9361   -5.4978   -2.1094 C   0  0  0  0  0  0  0  0  0  0  0  0
   -5.5041   -7.0795   -2.1067 S   0  0  0  0  0  0  0  0  0  0  0  0
   -7.1344   -6.6820   -1.9946 C   0  0  0  0  0  0  0  0  0  0  0  0
   -8.2481   -7.6860   -2.0026 C   0  0  0  0  0  0  0  0  0  0  0  0
   -8.4391   -8.2719   -3.3970 C   0  0  0  0  0  0  0  0  0  0  0  0
   -7.2576   -5.2915   -1.9535 C   0  0  0  0  0  0  0  0  0  0  0  0
   -8.8012   -4.4492   -1.8844 Cl  0  0  0  0  0  0  0  0  0  0  0  0
   -6.0189   -4.6272   -1.9973 C   0  0  0  0  0  0  0  0  0  0  0  0
   -5.8607   -2.8754   -1.8713 Cl  0  0  0  0  0  0  0  0  0  0  0  0
   -2.9859   -4.4247   -3.2746 C   0  0  0  0  0  0  0  0  0  0  0  0
   -1.6564   -3.9888   -3.3331 C   0  0  0  0  0  0  0  0  0  0  0  0
   -0.7648   -4.2985   -2.2827 C   0  0  0  0  0  0  0  0  0  0  0  0
    0.5722   -3.6791   -2.1606 C   0  0  0  0  0  0  0  0  0  0  0  0
    1.9679   -4.5096   -1.7127 S   0  0  0  0  0  0  0  0  0  0  0  0
    2.8738   -3.1621   -1.2824 C   0  0  0  0  0  0  0  0  0  0  0  0
    4.2070   -3.2137   -0.5949 C   0  0  0  0  0  0  0  0  0  0  0  0
    5.3253   -2.7852   -1.5322 C   0  0  0  0  0  0  0  0  0  0  0  0
    2.0925   -2.0310   -1.4963 C   0  0  0  0  0  0  0  0  0  0  0  0
    0.7999   -2.3152   -1.9599 C   0  0  0  0  0  0  0  0  0  0  0  0
   -0.4537   -1.0916   -2.0686 Cl  0  0  0  0  0  0  0  0  0  0  0  0
    2.6123   -0.4007   -1.1083 Cl  0  0  0  0  0  0  0  0  0  0  0  0
   -1.2918   -5.0267   -1.1943 C   0  0  0  0  0  0  0  0  0  0  0  0
   -0.6103   -5.1975    0.3259 S   0  0  0  0  0  0  0  0  0  0  0  0
   -1.4000   -3.1273   -4.4190 C   0  0  0  0  0  0  0  0  0  0  0  0
   -2.5432   -2.8495   -5.1726 C   0  0  0  0  0  0  0  0  0  0  0  0
   -3.8376   -3.7367   -4.5452 S   0  0  0  0  0  0  0  0  0  0  0  0
   -2.7161   -1.7055   -6.0790 C   0  0  0  0  0  0  0  0  0  0  0  0
   -3.9137   -1.0139   -6.2161 C   0  0  0  0  0  0  0  0  0  0  0  0
   -3.7911    0.1683   -6.9588 C   0  0  0  0  0  0  0  0  0  0  0  0
   -4.8103    1.1130   -7.1757 C   0  0  0  0  0  0  0  0  0  0  0  0
   -6.1615    0.9291   -6.6238 C   0  0  0  0  0  0  0  0  0  0  0  0
   -6.7543    1.7570   -5.2867 S   0  0  0  0  0  0  0  0  0  0  0  0
   -8.1787    0.8722   -5.1413 C   0  0  0  0  0  0  0  0  0  0  0  0
   -9.1405    1.0028   -4.0006 C   0  0  0  0  0  0  0  0  0  0  0  0
   -8.6302    0.2455   -2.7777 C   0  0  0  0  0  0  0  0  0  0  0  0
   -8.2008   -0.1023   -6.1416 C   0  0  0  0  0  0  0  0  0  0  0  0
   -9.4857   -1.2883   -6.3165 Cl  0  0  0  0  0  0  0  0  0  0  0  0
   -7.0673   -0.0673   -6.9692 C   0  0  0  0  0  0  0  0  0  0  0  0
   -6.7984   -1.2038   -8.2897 Cl  0  0  0  0  0  0  0  0  0  0  0  0
   -4.4637    2.2727   -7.8817 C   0  0  0  0  0  0  0  0  0  0  0  0
   -3.1781    2.4876   -8.3881 C   0  0  0  0  0  0  0  0  0  0  0  0
   -2.1495    1.5449   -8.1598 C   0  0  0  0  0  0  0  0  0  0  0  0
   -0.7968    1.7161   -8.7240 C   0  0  0  0  0  0  0  0  0  0  0  0
   -0.1207    0.6830   -9.8670 S   0  0  0  0  0  0  0  0  0  0  0  0
    1.2242    1.6345  -10.2050 C   0  0  0  0  0  0  0  0  0  0  0  0
    2.2914    1.2869  -11.1989 C   0  0  0  0  0  0  0  0  0  0  0  0
    3.5624    0.8214  -10.4964 C   0  0  0  0  0  0  0  0  0  0  0  0
    1.1578    2.7892   -9.4271 C   0  0  0  0  0  0  0  0  0  0  0  0
    0.0369    2.8244   -8.5811 C   0  0  0  0  0  0  0  0  0  0  0  0
   -0.2503    4.1251   -7.4293 Cl  0  0  0  0  0  0  0  0  0  0  0  0
    2.3105    4.1095   -9.5632 Cl  0  0  0  0  0  0  0  0  0  0  0  0
   -2.4950    0.3908   -7.4279 C   0  0  0  0  0  0  0  0  0  0  0  0
   -1.4929   -0.8529   -6.8844 S   0  0  0  0  0  0  0  0  0  0  0  0
   -3.0797    3.6786   -9.1281 C   0  0  0  0  0  0  0  0  0  0  0  0
   -4.2652    4.4068   -9.1671 C   0  0  0  0  0  0  0  0  0  0  0  0
   -5.4524    3.5633   -8.3120 S   0  0  0  0  0  0  0  0  0  0  0  0
   11.5192   -0.9879   -4.3523 H   0  0  0  0  0  0  0  0  0  0  0  0
   11.6132   -1.0486   -1.7559 H   0  0  0  0  0  0  0  0  0  0  0  0
   13.5036   -1.0756    3.9551 H   0  0  0  0  0  0  0  0  0  0  0  0
   12.9957    0.6431    3.8674 H   0  0  0  0  0  0  0  0  0  0  0  0
   12.3083   -0.4037    6.0288 H   0  0  0  0  0  0  0  0  0  0  0  0
   10.8676    0.0991    5.0671 H   0  0  0  0  0  0  0  0  0  0  0  0
   11.3505   -1.6429    5.1387 H   0  0  0  0  0  0  0  0  0  0  0  0
    3.2368    3.5974   -4.6336 H   0  0  0  0  0  0  0  0  0  0  0  0
    2.5857    2.2685   -5.6559 H   0  0  0  0  0  0  0  0  0  0  0  0
    5.1539    3.8760   -6.2808 H   0  0  0  0  0  0  0  0  0  0  0  0
    3.5308    4.2014   -6.9816 H   0  0  0  0  0  0  0  0  0  0  0  0
    4.3528    2.6384   -7.3462 H   0  0  0  0  0  0  0  0  0  0  0  0
    4.9349    1.2652   -0.8140 H   0  0  0  0  0  0  0  0  0  0  0  0
    3.1580    1.6989    0.6446 H   0  0  0  0  0  0  0  0  0  0  0  0
    0.2296    4.6709   -2.3621 H   0  0  0  0  0  0  0  0  0  0  0  0
   -1.3258    3.8061   -2.5951 H   0  0  0  0  0  0  0  0  0  0  0  0
    1.4836    2.5586   -2.9812 H   0  0  0  0  0  0  0  0  0  0  0  0
    0.3936    3.1502   -4.2943 H   0  0  0  0  0  0  0  0  0  0  0  0
   -0.1022    1.7383   -3.2888 H   0  0  0  0  0  0  0  0  0  0  0  0
    6.9439    3.0637    8.8103 H   0  0  0  0  0  0  0  0  0  0  0  0
    6.4573    1.7270    9.9047 H   0  0  0  0  0  0  0  0  0  0  0  0
    4.7774    3.2080   11.0033 H   0  0  0  0  0  0  0  0  0  0  0  0
    6.4165    3.9622   11.0480 H   0  0  0  0  0  0  0  0  0  0  0  0
    5.1962    4.5490    9.8582 H   0  0  0  0  0  0  0  0  0  0  0  0
    0.8098    2.9663    7.2364 H   0  0  0  0  0  0  0  0  0  0  0  0
   -1.8291    5.6499    5.5333 H   0  0  0  0  0  0  0  0  0  0  0  0
   -4.2798    7.2828    6.1633 H   0  0  0  0  0  0  0  0  0  0  0  0
   -3.9387    7.7650    7.8630 H   0  0  0  0  0  0  0  0  0  0  0  0
   -2.5553    9.0915    6.6792 H   0  0  0  0  0  0  0  0  0  0  0  0
   -2.2427    7.9719    5.4774 H   0  0  0  0  0  0  0  0  0  0  0  0
   -4.3092    5.7327    9.0462 H   0  0  0  0  0  0  0  0  0  0  0  0
   -3.6956    3.4176    9.5491 H   0  0  0  0  0  0  0  0  0  0  0  0
   -1.8838    1.6590    9.2774 H   0  0  0  0  0  0  0  0  0  0  0  0
   -1.1886    1.3821    7.6607 H   0  0  0  0  0  0  0  0  0  0  0  0
   -4.1943    1.2392    8.1978 H   0  0  0  0  0  0  0  0  0  0  0  0
   -1.0687   -0.8127    7.2278 H   0  0  0  0  0  0  0  0  0  0  0  0
    4.5952   -3.6092    5.7886 H   0  0  0  0  0  0  0  0  0  0  0  0
    4.0988   -2.8060    4.2577 H   0  0  0  0  0  0  0  0  0  0  0  0
    5.6115   -1.3113    5.4768 H   0  0  0  0  0  0  0  0  0  0  0  0
    4.5999   -1.4144    6.9653 H   0  0  0  0  0  0  0  0  0  0  0  0
    3.9507   -0.6108    5.4805 H   0  0  0  0  0  0  0  0  0  0  0  0
   -9.9798   -2.8778    3.1796 H   0  0  0  0  0  0  0  0  0  0  0  0
   -9.0731   -1.3934    2.7193 H   0  0  0  0  0  0  0  0  0  0  0  0
   -9.8960   -2.5872    0.6991 H   0  0  0  0  0  0  0  0  0  0  0  0
   -9.0164   -4.0780    1.1993 H   0  0  0  0  0  0  0  0  0  0  0  0
   -8.0933   -2.5914    0.7496 H   0  0  0  0  0  0  0  0  0  0  0  0
   -4.3325   -4.9668    2.5720 H   0  0  0  0  0  0  0  0  0  0  0  0
   -4.0549   -6.0087    0.4484 H   0  0  0  0  0  0  0  0  0  0  0  0
   -8.0026   -8.4995   -1.2890 H   0  0  0  0  0  0  0  0  0  0  0  0
   -9.1987   -7.2160   -1.6706 H   0  0  0  0  0  0  0  0  0  0  0  0
   -7.5157   -8.7909   -3.7287 H   0  0  0  0  0  0  0  0  0  0  0  0
   -8.6883   -7.4665   -4.1193 H   0  0  0  0  0  0  0  0  0  0  0  0
   -9.2705   -9.0046   -3.3829 H   0  0  0  0  0  0  0  0  0  0  0  0
    4.4039   -4.2497   -0.2492 H   0  0  0  0  0  0  0  0  0  0  0  0
    4.1912   -2.5527    0.2966 H   0  0  0  0  0  0  0  0  0  0  0  0
    5.3608   -3.4681   -2.4090 H   0  0  0  0  0  0  0  0  0  0  0  0
    5.1580   -1.7467   -1.8711 H   0  0  0  0  0  0  0  0  0  0  0  0
    6.2965   -2.8339   -1.0027 H   0  0  0  0  0  0  0  0  0  0  0  0
   -0.4532   -2.6293   -4.5805 H   0  0  0  0  0  0  0  0  0  0  0  0
   -4.8318   -1.3186   -5.7280 H   0  0  0  0  0  0  0  0  0  0  0  0
  -10.1384    0.6115   -4.2872 H   0  0  0  0  0  0  0  0  0  0  0  0
   -9.2543    2.0787   -3.7433 H   0  0  0  0  0  0  0  0  0  0  0  0
   -8.4709   -0.8251   -3.0236 H   0  0  0  0  0  0  0  0  0  0  0  0
   -9.3688    0.3254   -1.9519 H   0  0  0  0  0  0  0  0  0  0  0  0
   -7.6668    0.6771   -2.4323 H   0  0  0  0  0  0  0  0  0  0  0  0
    2.5150    2.1700  -11.8327 H   0  0  0  0  0  0  0  0  0  0  0  0
    1.9253    0.4727  -11.8613 H   0  0  0  0  0  0  0  0  0  0  0  0
    4.3185    0.5267  -11.2519 H   0  0  0  0  0  0  0  0  0  0  0  0
    3.9839    1.6363   -9.8711 H   0  0  0  0  0  0  0  0  0  0  0  0
    3.3450   -0.0547   -9.8505 H   0  0  0  0  0  0  0  0  0  0  0  0
   -2.1869    4.0072   -9.6362 H   0  0  0  0  0  0  0  0  0  0  0  0
   -4.4017    5.3516   -9.6731 H   0  0  0  0  0  0  0  0  0  0  0  0
  1  2  2  0
  2  3  1  0
  3  4  2  0
  4  5  1  0
  5  6  1  0
  6  7  1  0
  7  8  1  0
  8  9  1  0
  7 10  2  0
 10 11  1  0
 10 12  1  0
 12 13  1  0
  4 14  1  0
 14 15  2  0
 15 16  1  0
 16 17  1  0
 17 18  1  0
 18 19  1  0
 19 20  1  0
 20 21  1  0
 19 22  2  0
 22 23  1  0
 23 24  1  0
 22 25  1  0
 16 26  2  0
 26 27  1  0
 15 28  1  0
 28 29  2  0
 29 30  1  0
 29 31  1  0
 31 32  2  0
 32 33  1  0
 33 34  2  0
 34 35  1  0
 35 36  1  0
 36 37  1  0
 37 38  1  0
 38 39  1  0
 37 40  2  0
 40 41  1  0
 40 42  1  0
 42 43  1  0
 34 44  1  0
 44 45  2  0
 45 46  1  0
 46 47  1  0
 47 48  1  0
 48 49  1  0
 49 50  1  0
 50 51  1  0
 49 52  2  0
 52 53  1  0
 53 54  1  0
 52 55  1  0
 46 56  2  0
 56 57  1  0
 45 58  1  0
 58 59  2  0
 59 60  1  0
 59 61  1  0
 61 62  2  0
 62 63  1  0
 63 64  1  0
 64 65  1  0
 63 66  2  0
 66 67  1  0
 67 68  2  0
 68 69  1  0
 69 70  1  0
 70 71  1  0
 71 72  2  0
 72 73  1  0
 73 74  2  0
 74 75  1  0
 75 76  1  0
 76 77  1  0
 77 78  1  0
 78 79  1  0
 77 80  2  0
 80 81  1  0
 80 82  1  0
 82 83  1  0
 74 84  1  0
 84 85  2  0
 85 86  1  0
 86 87  1  0
 87 88  1  0
 88 89  1  0
 89 90  1  0
 90 91  1  0
 89 92  2  0
 92 93  1  0
 93 94  1  0
 92 95  1  0
 86 96  2  0
 96 97  1  0
 85 98  1  0
 98 99  2  0
 99100  1  0
 99101  1  0
101102  2  0
102103  1  0
103104  2  0
104105  1  0
105106  1  0
106107  1  0
107108  1  0
108109  1  0
107110  2  0
110111  1  0
110112  1  0
112113  1  0
104114  1  0
114115  2  0
115116  1  0
116117  1  0
117118  1  0
118119  1  0
119120  1  0
120121  1  0
119122  2  0
122123  1  0
123124  1  0
122125  1  0
116126  2  0
126127  1  0
115128  1  0
128129  2  0
129130  1  0
129131  1  0
131132  2  0
132133  1  0
133134  2  0
134135  1  0
135136  1  0
136137  1  0
137138  1  0
138139  1  0
137140  2  0
140141  1  0
140142  1  0
142143  1  0
134144  1  0
144145  2  0
145146  1  0
146147  1  0
147148  1  0
148149  1  0
149150  1  0
150151  1  0
149152  2  0
152153  1  0
153154  1  0
152155  1  0
146156  2  0
156157  1  0
145158  1  0
158159  2  0
159160  1  0
 27  1  1  0
 57 31  1  0
 68 61  1  0
 97 71  1  0
127101  1  0
157131  1  0
 26  3  1  0
 56 33  1  0
 96 73  1  0
126103  1  0
156133  1  0
 12  5  2  0
 30 14  1  0
 42 35  2  0
 60 44  1  0
 82 75  2  0
100 84  1  0
112105  2  0
130114  1  0
142135  2  0
160144  1  0
 23 17  2  0
 53 47  2  0
 93 87  2  0
123117  2  0
153147  2  0
  1161  1  0
  2162  1  0
  8163  1  0
  8164  1  0
  9165  1  0
  9166  1  0
  9167  1  0
 20168  1  0
 20169  1  0
 21170  1  0
 21171  1  0
 21172  1  0
 28173  1  0
 32174  1  0
 38175  1  0
 38176  1  0
 39177  1  0
 39178  1  0
 39179  1  0
 50180  1  0
 50181  1  0
 51182  1  0
 51183  1  0
 51184  1  0
 58185  1  0
 62186  1  0
 64187  1  0
 64188  1  0
 65189  1  0
 65190  1  0
 66191  1  0
 67192  1  0
 69193  1  0
 69194  1  0
 70195  1  0
 72196  1  0
 78197  1  0
 78198  1  0
 79199  1  0
 79200  1  0
 79201  1  0
 90202  1  0
 90203  1  0
 91204  1  0
 91205  1  0
 91206  1  0
 98207  1  0
102208  1  0
108209  1  0
108210  1  0
109211  1  0
109212  1  0
109213  1  0
120214  1  0
120215  1  0
121216  1  0
121217  1  0
121218  1  0
128219  1  0
132220  1  0
138221  1  0
138222  1  0
139223  1  0
139224  1  0
139225  1  0
150226  1  0
150227  1  0
151228  1  0
151229  1  0
151230  1  0
158231  1  0
159232  1  0
M  END

