
     RDKit          3D

272297  0  0  0  0  0  0  0  0999 V2000
   -6.3480   -6.0320   10.6938 C   0  0  0  0  0  0  0  0  0  0  0  0
   -6.1415   -4.6894   10.3980 C   0  0  0  0  0  0  0  0  0  0  0  0
   -6.2182   -4.4041    9.0241 C   0  0  0  0  0  0  0  0  0  0  0  0
   -6.0727   -3.1355    8.4233 C   0  0  0  0  0  0  0  0  0  0  0  0
   -5.7592   -1.9223    9.2080 C   0  0  0  0  0  0  0  0  0  0  0  0
   -4.5759   -1.8534    9.9635 C   0  0  0  0  0  0  0  0  0  0  0  0
   -4.2737   -0.7023   10.6942 C   0  0  0  0  0  0  0  0  0  0  0  0
   -5.1382    0.3974   10.6669 C   0  0  0  0  0  0  0  0  0  0  0  0
   -4.7398    1.8711   11.6128 S   0  0  0  0  0  0  0  0  0  0  0  0
   -3.7317    2.6014   10.2820 C   0  0  0  0  0  0  0  0  0  0  0  0
   -3.1678    3.9406   10.7278 C   0  0  0  0  0  0  0  0  0  0  0  0
   -6.3220    0.3336    9.9186 C   0  0  0  0  0  0  0  0  0  0  0  0
   -7.1780    1.3859    9.8942 F   0  0  0  0  0  0  0  0  0  0  0  0
   -6.6284   -0.8222    9.1909 C   0  0  0  0  0  0  0  0  0  0  0  0
   -6.2336   -3.0783    7.0259 C   0  0  0  0  0  0  0  0  0  0  0  0
   -6.5308   -4.2029    6.2470 C   0  0  0  0  0  0  0  0  0  0  0  0
   -6.6627   -5.4725    6.8482 C   0  0  0  0  0  0  0  0  0  0  0  0
   -6.9339   -6.6871    6.0498 C   0  0  0  0  0  0  0  0  0  0  0  0
   -6.0124   -7.7456    6.0448 C   0  0  0  0  0  0  0  0  0  0  0  0
   -6.2511   -8.8844    5.2705 C   0  0  0  0  0  0  0  0  0  0  0  0
   -7.4153   -8.9787    4.4976 C   0  0  0  0  0  0  0  0  0  0  0  0
   -7.7268  -10.4625    3.5274 S   0  0  0  0  0  0  0  0  0  0  0  0
   -7.0933   -9.7775    1.9558 C   0  0  0  0  0  0  0  0  0  0  0  0
   -5.5750   -9.8877    1.8800 C   0  0  0  0  0  0  0  0  0  0  0  0
   -8.3454   -7.9305    4.5103 C   0  0  0  0  0  0  0  0  0  0  0  0
   -8.1038   -6.7861    5.2803 C   0  0  0  0  0  0  0  0  0  0  0  0
   -9.4780   -8.0118    3.7658 F   0  0  0  0  0  0  0  0  0  0  0  0
   -6.4966   -5.5328    8.2450 C   0  0  0  0  0  0  0  0  0  0  0  0
   -6.6428   -6.8678    9.2592 S   0  0  0  0  0  0  0  0  0  0  0  0
   -6.6114   -3.9152    4.8716 C   0  0  0  0  0  0  0  0  0  0  0  0
   -6.3548   -2.5782    4.5842 C   0  0  0  0  0  0  0  0  0  0  0  0
   -6.0336   -1.7496    6.0164 S   0  0  0  0  0  0  0  0  0  0  0  0
   -6.3003   -1.9760    3.2467 C   0  0  0  0  0  0  0  0  0  0  0  0
   -5.5430   -0.8592    2.9184 C   0  0  0  0  0  0  0  0  0  0  0  0
   -5.6664   -0.4906    1.5726 C   0  0  0  0  0  0  0  0  0  0  0  0
   -4.9460    0.5304    0.9322 C   0  0  0  0  0  0  0  0  0  0  0  0
   -3.7261    1.1017    1.5410 C   0  0  0  0  0  0  0  0  0  0  0  0
   -3.7876    1.9873    2.6240 C   0  0  0  0  0  0  0  0  0  0  0  0
   -2.6053    2.4563    3.2143 C   0  0  0  0  0  0  0  0  0  0  0  0
   -1.3618    2.0111    2.7431 C   0  0  0  0  0  0  0  0  0  0  0  0
    0.1583    2.5863    3.4946 S   0  0  0  0  0  0  0  0  0  0  0  0
    0.2205    1.2753    4.7639 C   0  0  0  0  0  0  0  0  0  0  0  0
    1.6672    0.9937    5.1397 C   0  0  0  0  0  0  0  0  0  0  0  0
   -1.3012    1.1139    1.6705 C   0  0  0  0  0  0  0  0  0  0  0  0
   -0.1008    0.6628    1.2177 F   0  0  0  0  0  0  0  0  0  0  0  0
   -2.4757    0.6552    1.0807 C   0  0  0  0  0  0  0  0  0  0  0  0
   -5.2139    0.7379   -0.4280 C   0  0  0  0  0  0  0  0  0  0  0  0
   -6.0424   -0.1032   -1.1759 C   0  0  0  0  0  0  0  0  0  0  0  0
   -6.7230   -1.1721   -0.5460 C   0  0  0  0  0  0  0  0  0  0  0  0
   -7.5237   -2.1428   -1.3186 C   0  0  0  0  0  0  0  0  0  0  0  0
   -8.6504   -1.7204   -2.0384 C   0  0  0  0  0  0  0  0  0  0  0  0
   -9.3830   -2.6324   -2.8035 C   0  0  0  0  0  0  0  0  0  0  0  0
   -8.9794   -3.9713   -2.8789 C   0  0  0  0  0  0  0  0  0  0  0  0
   -9.8776   -5.1217   -3.9234 S   0  0  0  0  0  0  0  0  0  0  0  0
   -8.7751   -4.9282   -5.3689 C   0  0  0  0  0  0  0  0  0  0  0  0
   -9.1697   -3.7138   -6.2010 C   0  0  0  0  0  0  0  0  0  0  0  0
   -7.8672   -4.4041   -2.1429 C   0  0  0  0  0  0  0  0  0  0  0  0
   -7.1400   -3.4926   -1.3705 C   0  0  0  0  0  0  0  0  0  0  0  0
   -7.4741   -5.7028   -2.1967 F   0  0  0  0  0  0  0  0  0  0  0  0
   -6.5218   -1.3239    0.8422 C   0  0  0  0  0  0  0  0  0  0  0  0
   -7.1184   -2.5217    1.8726 S   0  0  0  0  0  0  0  0  0  0  0  0
   -5.9552    0.1410   -2.5629 C   0  0  0  0  0  0  0  0  0  0  0  0
   -5.0837    1.1899   -2.8846 C   0  0  0  0  0  0  0  0  0  0  0  0
   -4.4304    1.7973   -1.4547 S   0  0  0  0  0  0  0  0  0  0  0  0
   -4.3973    1.3811   -4.1739 C   0  0  0  0  0  0  0  0  0  0  0  0
   -4.0497    0.3164   -5.0057 C   0  0  0  0  0  0  0  0  0  0  0  0
   -2.8380    0.5173   -5.6939 C   0  0  0  0  0  0  0  0  0  0  0  0
   -2.1120   -0.4811   -6.3717 C   0  0  0  0  0  0  0  0  0  0  0  0
   -2.6811   -1.8343   -6.5746 C   0  0  0  0  0  0  0  0  0  0  0  0
   -3.8029   -2.0055   -7.4005 C   0  0  0  0  0  0  0  0  0  0  0  0
   -4.3427   -3.2780   -7.5980 C   0  0  0  0  0  0  0  0  0  0  0  0
   -3.7657   -4.3934   -6.9774 C   0  0  0  0  0  0  0  0  0  0  0  0
   -4.4352   -6.0316   -7.2842 S   0  0  0  0  0  0  0  0  0  0  0  0
   -3.4845   -6.3088   -8.8214 C   0  0  0  0  0  0  0  0  0  0  0  0
   -2.0734   -6.7963   -8.5195 C   0  0  0  0  0  0  0  0  0  0  0  0
   -2.6729   -4.2222   -6.1182 C   0  0  0  0  0  0  0  0  0  0  0  0
   -2.1267   -5.2882   -5.4776 F   0  0  0  0  0  0  0  0  0  0  0  0
   -2.1354   -2.9468   -5.9148 C   0  0  0  0  0  0  0  0  0  0  0  0
   -0.7642   -0.1964   -6.6610 C   0  0  0  0  0  0  0  0  0  0  0  0
   -0.1521    1.0139   -6.3148 C   0  0  0  0  0  0  0  0  0  0  0  0
   -0.9118    2.0511   -5.7357 C   0  0  0  0  0  0  0  0  0  0  0  0
   -0.3061    3.3302   -5.3040 C   0  0  0  0  0  0  0  0  0  0  0  0
    0.0711    4.2818   -6.2625 C   0  0  0  0  0  0  0  0  0  0  0  0
    0.5156    5.5451   -5.8612 C   0  0  0  0  0  0  0  0  0  0  0  0
    0.5966    5.8654   -4.4996 C   0  0  0  0  0  0  0  0  0  0  0  0
    1.2132    7.4772   -3.9954 S   0  0  0  0  0  0  0  0  0  0  0  0
   -0.4329    8.2450   -3.7989 C   0  0  0  0  0  0  0  0  0  0  0  0
   -1.0083    8.6636   -5.1461 C   0  0  0  0  0  0  0  0  0  0  0  0
    0.2483    4.9086   -3.5385 C   0  0  0  0  0  0  0  0  0  0  0  0
   -0.1966    3.6450   -3.9382 C   0  0  0  0  0  0  0  0  0  0  0  0
    0.3372    5.1976   -2.2158 F   0  0  0  0  0  0  0  0  0  0  0  0
   -2.2555    1.7604   -5.4304 C   0  0  0  0  0  0  0  0  0  0  0  0
   -3.2555    2.6054   -4.3839 S   0  0  0  0  0  0  0  0  0  0  0  0
    1.2566    0.9638   -6.3950 C   0  0  0  0  0  0  0  0  0  0  0  0
    1.7480   -0.2915   -6.7794 C   0  0  0  0  0  0  0  0  0  0  0  0
    0.4254   -1.2954   -7.0942 S   0  0  0  0  0  0  0  0  0  0  0  0
    3.0498   -0.8426   -6.3530 C   0  0  0  0  0  0  0  0  0  0  0  0
    4.1217   -0.1074   -5.8295 C   0  0  0  0  0  0  0  0  0  0  0  0
    4.9598   -0.8752   -4.9955 C   0  0  0  0  0  0  0  0  0  0  0  0
    6.0017   -0.3881   -4.1814 C   0  0  0  0  0  0  0  0  0  0  0  0
    6.5722    0.9649   -4.3330 C   0  0  0  0  0  0  0  0  0  0  0  0
    7.4451    1.2296   -5.3979 C   0  0  0  0  0  0  0  0  0  0  0  0
    8.1738    2.4237   -5.4280 C   0  0  0  0  0  0  0  0  0  0  0  0
    8.0381    3.3574   -4.3938 C   0  0  0  0  0  0  0  0  0  0  0  0
    8.9939    4.8787   -4.4292 S   0  0  0  0  0  0  0  0  0  0  0  0
   10.3468    4.2482   -3.3758 C   0  0  0  0  0  0  0  0  0  0  0  0
   11.3415    3.4326   -4.1905 C   0  0  0  0  0  0  0  0  0  0  0  0
    7.1189    3.1222   -3.3607 C   0  0  0  0  0  0  0  0  0  0  0  0
    6.9492    4.0352   -2.3724 F   0  0  0  0  0  0  0  0  0  0  0  0
    6.3900    1.9303   -3.3304 C   0  0  0  0  0  0  0  0  0  0  0  0
    6.4592   -1.2400   -3.1597 C   0  0  0  0  0  0  0  0  0  0  0  0
    5.9504   -2.5252   -2.9589 C   0  0  0  0  0  0  0  0  0  0  0  0
    5.0323   -3.0695   -3.8746 C   0  0  0  0  0  0  0  0  0  0  0  0
    4.5335   -4.4544   -3.7687 C   0  0  0  0  0  0  0  0  0  0  0  0
    3.5996   -4.8096   -2.7852 C   0  0  0  0  0  0  0  0  0  0  0  0
    3.0903   -6.1112   -2.7410 C   0  0  0  0  0  0  0  0  0  0  0  0
    3.5070   -7.0630   -3.6788 C   0  0  0  0  0  0  0  0  0  0  0  0
    2.8161   -8.7232   -3.6334 S   0  0  0  0  0  0  0  0  0  0  0  0
    1.3425   -8.3236   -4.6428 C   0  0  0  0  0  0  0  0  0  0  0  0
    1.6527   -8.4139   -6.1335 C   0  0  0  0  0  0  0  0  0  0  0  0
    4.4657   -6.7200   -4.6424 C   0  0  0  0  0  0  0  0  0  0  0  0
    4.9658   -5.4165   -4.6937 C   0  0  0  0  0  0  0  0  0  0  0  0
    4.9106   -7.6435   -5.5298 F   0  0  0  0  0  0  0  0  0  0  0  0
    4.5486   -2.2062   -4.8741 C   0  0  0  0  0  0  0  0  0  0  0  0
    3.1896   -2.4381   -5.8227 S   0  0  0  0  0  0  0  0  0  0  0  0
    6.3550   -3.0953   -1.7395 C   0  0  0  0  0  0  0  0  0  0  0  0
    7.1541   -2.2375   -0.9776 C   0  0  0  0  0  0  0  0  0  0  0  0
    7.4601   -0.8381   -1.8758 S   0  0  0  0  0  0  0  0  0  0  0  0
    7.4615   -2.4112    0.4645 C   0  0  0  0  0  0  0  0  0  0  0  0
    7.9557   -3.6536    0.8933 C   0  0  0  0  0  0  0  0  0  0  0  0
    8.2999   -3.8674    2.2360 C   0  0  0  0  0  0  0  0  0  0  0  0
    8.7636   -5.2287    2.6829 C   0  0  0  0  0  0  0  0  0  0  0  0
    7.6911   -6.2042    2.5220 N   0  0  0  0  0  0  0  0  0  0  0  0
    8.2015   -2.8105    3.1477 C   0  0  0  0  0  0  0  0  0  0  0  0
    7.6966   -1.5772    2.7396 C   0  0  0  0  0  0  0  0  0  0  0  0
    7.2381   -1.3799    1.4260 C   0  0  0  0  0  0  0  0  0  0  0  0
    6.5903   -0.0616    1.0248 C   0  0  0  0  0  0  0  0  0  0  0  0
    5.8358    0.6050    2.0905 N   0  0  0  0  0  0  0  0  0  0  0  0
    5.2031    1.8673    1.8276 C   0  0  0  0  0  0  0  0  0  0  0  0
    4.5777    2.6666    2.7788 C   0  0  0  0  0  0  0  0  0  0  0  0
    4.0345    3.8454    2.2257 C   0  0  0  0  0  0  0  0  0  0  0  0
    3.3782    4.8846    2.9275 C   0  0  0  0  0  0  0  0  0  0  0  0
    3.2082    4.8636    4.4039 C   0  0  0  0  0  0  0  0  0  0  0  0
    4.3169    4.6947    5.2508 C   0  0  0  0  0  0  0  0  0  0  0  0
    4.1406    4.6374    6.6380 C   0  0  0  0  0  0  0  0  0  0  0  0
    2.8616    4.7681    7.1943 C   0  0  0  0  0  0  0  0  0  0  0  0
    2.6447    4.6518    8.9741 S   0  0  0  0  0  0  0  0  0  0  0  0
    2.5711    6.4549    9.2645 C   0  0  0  0  0  0  0  0  0  0  0  0
    3.9369    7.1075    9.0838 C   0  0  0  0  0  0  0  0  0  0  0  0
    1.7557    4.9505    6.3576 C   0  0  0  0  0  0  0  0  0  0  0  0
    0.5095    5.0667    6.8784 F   0  0  0  0  0  0  0  0  0  0  0  0
    1.9304    5.0063    4.9717 C   0  0  0  0  0  0  0  0  0  0  0  0
    2.8811    5.9513    2.1493 C   0  0  0  0  0  0  0  0  0  0  0  0
    3.0075    6.0035    0.7552 C   0  0  0  0  0  0  0  0  0  0  0  0
    3.6865    4.9785    0.0581 C   0  0  0  0  0  0  0  0  0  0  0  0
    3.8362    4.9939   -1.4197 C   0  0  0  0  0  0  0  0  0  0  0  0
    3.3416    3.9322   -2.1966 C   0  0  0  0  0  0  0  0  0  0  0  0
    3.4057    3.9876   -3.5923 C   0  0  0  0  0  0  0  0  0  0  0  0
    3.9597    5.1047   -4.2285 C   0  0  0  0  0  0  0  0  0  0  0  0
    3.8970    5.2394   -6.0212 S   0  0  0  0  0  0  0  0  0  0  0  0
    5.5107    4.4443   -6.2633 C   0  0  0  0  0  0  0  0  0  0  0  0
    5.9185    4.4971   -7.7272 C   0  0  0  0  0  0  0  0  0  0  0  0
    4.4964    6.1457   -3.4577 C   0  0  0  0  0  0  0  0  0  0  0  0
    4.4418    6.0856   -2.0613 C   0  0  0  0  0  0  0  0  0  0  0  0
    5.0483    7.2316   -4.0600 F   0  0  0  0  0  0  0  0  0  0  0  0
    4.1958    3.9214    0.8333 C   0  0  0  0  0  0  0  0  0  0  0  0
    5.0662    2.5855    0.3062 S   0  0  0  0  0  0  0  0  0  0  0  0
    2.3931    7.1382    0.1914 C   0  0  0  0  0  0  0  0  0  0  0  0
    1.8261    7.9847    1.1355 C   0  0  0  0  0  0  0  0  0  0  0  0
    2.0642    7.3284    2.6687 S   0  0  0  0  0  0  0  0  0  0  0  0
   -6.3404   -6.4615   11.6869 H   0  0  0  0  0  0  0  0  0  0  0  0
   -5.9539   -3.9487   11.1640 H   0  0  0  0  0  0  0  0  0  0  0  0
   -3.8859   -2.6892    9.9783 H   0  0  0  0  0  0  0  0  0  0  0  0
   -3.3578   -0.6598   11.2711 H   0  0  0  0  0  0  0  0  0  0  0  0
   -2.8915    1.9189   10.0310 H   0  0  0  0  0  0  0  0  0  0  0  0
   -4.3583    2.7540    9.3789 H   0  0  0  0  0  0  0  0  0  0  0  0
   -2.5407    3.8096   11.6365 H   0  0  0  0  0  0  0  0  0  0  0  0
   -3.9935    4.6453   10.9515 H   0  0  0  0  0  0  0  0  0  0  0  0
   -2.5409    4.3687    9.9193 H   0  0  0  0  0  0  0  0  0  0  0  0
   -7.5490   -0.8634    8.6230 H   0  0  0  0  0  0  0  0  0  0  0  0
   -5.1018   -7.6830    6.6284 H   0  0  0  0  0  0  0  0  0  0  0  0
   -5.5313   -9.6925    5.2741 H   0  0  0  0  0  0  0  0  0  0  0  0
   -7.4060   -8.7186    1.8285 H   0  0  0  0  0  0  0  0  0  0  0  0
   -7.5368  -10.3641    1.1239 H   0  0  0  0  0  0  0  0  0  0  0  0
   -5.1002   -9.2682    2.6694 H   0  0  0  0  0  0  0  0  0  0  0  0
   -5.2264   -9.5251    0.8896 H   0  0  0  0  0  0  0  0  0  0  0  0
   -5.2622  -10.9466    2.0038 H   0  0  0  0  0  0  0  0  0  0  0  0
   -8.8270   -5.9824    5.2765 H   0  0  0  0  0  0  0  0  0  0  0  0
   -6.7997   -4.6545    4.1048 H   0  0  0  0  0  0  0  0  0  0  0  0
   -4.9050   -0.3509    3.6300 H   0  0  0  0  0  0  0  0  0  0  0  0
   -4.7474    2.3304    2.9971 H   0  0  0  0  0  0  0  0  0  0  0  0
   -2.6588    3.1476    4.0457 H   0  0  0  0  0  0  0  0  0  0  0  0
   -0.3304    1.6236    5.6647 H   0  0  0  0  0  0  0  0  0  0  0  0
   -0.2435    0.3319    4.3987 H   0  0  0  0  0  0  0  0  0  0  0  0
    1.6979    0.2601    5.9725 H   0  0  0  0  0  0  0  0  0  0  0  0
    2.1756    1.9268    5.4666 H   0  0  0  0  0  0  0  0  0  0  0  0
    2.2092    0.5666    4.2660 H   0  0  0  0  0  0  0  0  0  0  0  0
   -2.4142   -0.0492    0.2613 H   0  0  0  0  0  0  0  0  0  0  0  0
   -8.9617   -0.6827   -2.0066 H   0  0  0  0  0  0  0  0  0  0  0  0
  -10.2538   -2.2935   -3.3505 H   0  0  0  0  0  0  0  0  0  0  0  0
   -8.8759   -5.8361   -6.0004 H   0  0  0  0  0  0  0  0  0  0  0  0
   -7.7124   -4.8470   -5.0519 H   0  0  0  0  0  0  0  0  0  0  0  0
   -8.5105   -3.6436   -7.0916 H   0  0  0  0  0  0  0  0  0  0  0  0
  -10.2258   -3.8110   -6.5371 H   0  0  0  0  0  0  0  0  0  0  0  0
   -9.0577   -2.7819   -5.6094 H   0  0  0  0  0  0  0  0  0  0  0  0
   -6.2678   -3.8353   -0.8291 H   0  0  0  0  0  0  0  0  0  0  0  0
   -6.4252   -0.4811   -3.3109 H   0  0  0  0  0  0  0  0  0  0  0  0
   -4.5436   -0.6468   -4.9540 H   0  0  0  0  0  0  0  0  0  0  0  0
   -4.2498   -1.1535   -7.8988 H   0  0  0  0  0  0  0  0  0  0  0  0
   -5.2000   -3.3999   -8.2489 H   0  0  0  0  0  0  0  0  0  0  0  0
   -4.0088   -7.0861   -9.4164 H   0  0  0  0  0  0  0  0  0  0  0  0
   -3.4444   -5.3823   -9.4338 H   0  0  0  0  0  0  0  0  0  0  0  0
   -1.5581   -7.0519   -9.4685 H   0  0  0  0  0  0  0  0  0  0  0  0
   -1.4871   -6.0061   -8.0067 H   0  0  0  0  0  0  0  0  0  0  0  0
   -2.1092   -7.7035   -7.8794 H   0  0  0  0  0  0  0  0  0  0  0  0
   -1.2946   -2.8291   -5.2416 H   0  0  0  0  0  0  0  0  0  0  0  0
   -0.0074    4.0560   -7.3186 H   0  0  0  0  0  0  0  0  0  0  0  0
    0.7962    6.2757   -6.6100 H   0  0  0  0  0  0  0  0  0  0  0  0
   -1.1322    7.5566   -3.2786 H   0  0  0  0  0  0  0  0  0  0  0  0
   -0.3109    9.1515   -3.1700 H   0  0  0  0  0  0  0  0  0  0  0  0
   -1.9459    9.2382   -4.9875 H   0  0  0  0  0  0  0  0  0  0  0  0
   -1.2443    7.7708   -5.7593 H   0  0  0  0  0  0  0  0  0  0  0  0
   -0.2835    9.3015   -5.6936 H   0  0  0  0  0  0  0  0  0  0  0  0
   -0.4780    2.9184   -3.1875 H   0  0  0  0  0  0  0  0  0  0  0  0
    1.8946    1.7525   -6.0218 H   0  0  0  0  0  0  0  0  0  0  0  0
    4.2121    0.9661   -5.9347 H   0  0  0  0  0  0  0  0  0  0  0  0
    7.5960    0.4955   -6.1798 H   0  0  0  0  0  0  0  0  0  0  0  0
    8.8581    2.6109   -6.2451 H   0  0  0  0  0  0  0  0  0  0  0  0
   10.8747    5.1224   -2.9421 H   0  0  0  0  0  0  0  0  0  0  0  0
    9.9451    3.6350   -2.5398 H   0  0  0  0  0  0  0  0  0  0  0  0
   12.1953    3.1372   -3.5443 H   0  0  0  0  0  0  0  0  0  0  0  0
   11.7241    4.0294   -5.0463 H   0  0  0  0  0  0  0  0  0  0  0  0
   10.8617    2.5097   -4.5731 H   0  0  0  0  0  0  0  0  0  0  0  0
    5.7169    1.7372   -2.5058 H   0  0  0  0  0  0  0  0  0  0  0  0
    3.2565   -4.0768   -2.0673 H   0  0  0  0  0  0  0  0  0  0  0  0
    2.3578   -6.3758   -1.9876 H   0  0  0  0  0  0  0  0  0  0  0  0
    0.9536   -7.3123   -4.3949 H   0  0  0  0  0  0  0  0  0  0  0  0
    0.5504   -9.0635   -4.4001 H   0  0  0  0  0  0  0  0  0  0  0  0
    0.7351   -8.1893   -6.7171 H   0  0  0  0  0  0  0  0  0  0  0  0
    1.9992   -9.4381   -6.3899 H   0  0  0  0  0  0  0  0  0  0  0  0
    2.4326   -7.6764   -6.4152 H   0  0  0  0  0  0  0  0  0  0  0  0
    5.6911   -5.1545   -5.4543 H   0  0  0  0  0  0  0  0  0  0  0  0
    5.9953   -4.0484   -1.3686 H   0  0  0  0  0  0  0  0  0  0  0  0
    8.0830   -4.4581    0.1778 H   0  0  0  0  0  0  0  0  0  0  0  0
    9.0934   -5.2074    3.7463 H   0  0  0  0  0  0  0  0  0  0  0  0
    9.6349   -5.5349    2.0655 H   0  0  0  0  0  0  0  0  0  0  0  0
    8.0393   -7.1247    2.8702 H   0  0  0  0  0  0  0  0  0  0  0  0
    6.8895   -5.9380    3.1422 H   0  0  0  0  0  0  0  0  0  0  0  0
    8.5002   -2.9405    4.1812 H   0  0  0  0  0  0  0  0  0  0  0  0
    7.6412   -0.7807    3.4693 H   0  0  0  0  0  0  0  0  0  0  0  0
    7.3857    0.6218    0.6607 H   0  0  0  0  0  0  0  0  0  0  0  0
    5.8688   -0.2483    0.2045 H   0  0  0  0  0  0  0  0  0  0  0  0
    5.6277    0.1234    2.9926 H   0  0  0  0  0  0  0  0  0  0  0  0
    4.5243    2.3986    3.8252 H   0  0  0  0  0  0  0  0  0  0  0  0
    5.3169    4.6040    4.8415 H   0  0  0  0  0  0  0  0  0  0  0  0
    4.9985    4.4870    7.2802 H   0  0  0  0  0  0  0  0  0  0  0  0
    2.2317    6.6165   10.3091 H   0  0  0  0  0  0  0  0  0  0  0  0
    1.8264    6.9271    8.5842 H   0  0  0  0  0  0  0  0  0  0  0  0
    4.7082    6.5583    9.6660 H   0  0  0  0  0  0  0  0  0  0  0  0
    4.2215    7.1262    8.0117 H   0  0  0  0  0  0  0  0  0  0  0  0
    3.8995    8.1559    9.4471 H   0  0  0  0  0  0  0  0  0  0  0  0
    1.0615    5.1538    4.3422 H   0  0  0  0  0  0  0  0  0  0  0  0
    2.8706    3.0784   -1.7238 H   0  0  0  0  0  0  0  0  0  0  0  0
    2.9912    3.1773   -4.1787 H   0  0  0  0  0  0  0  0  0  0  0  0
    5.4396    3.3823   -5.9452 H   0  0  0  0  0  0  0  0  0  0  0  0
    6.2713    4.9755   -5.6569 H   0  0  0  0  0  0  0  0  0  0  0  0
    6.1049    5.5483   -8.0340 H   0  0  0  0  0  0  0  0  0  0  0  0
    5.1230    4.0648   -8.3707 H   0  0  0  0  0  0  0  0  0  0  0  0
    6.8536    3.9174   -7.8735 H   0  0  0  0  0  0  0  0  0  0  0  0
    4.8479    6.9043   -1.4782 H   0  0  0  0  0  0  0  0  0  0  0  0
    2.3486    7.3478   -0.8678 H   0  0  0  0  0  0  0  0  0  0  0  0
    1.3069    8.9088    0.9188 H   0  0  0  0  0  0  0  0  0  0  0  0
  1  2  2  0
  2  3  1  0
  3  4  2  0
  4  5  1  0
  5  6  2  0
  6  7  1  0
  7  8  2  0
  8  9  1  0
  9 10  1  0
 10 11  1  0
  8 12  1  0
 12 13  1  0
 12 14  2  0
  4 15  1  0
 15 16  2  0
 16 17  1  0
 17 18  1  0
 18 19  2  0
 19 20  1  0
 20 21  2  0
 21 22  1  0
 22 23  1  0
 23 24  1  0
 21 25  1  0
 25 26  2  0
 25 27  1  0
 17 28  2  0
 28 29  1  0
 16 30  1  0
 30 31  2  0
 31 32  1  0
 31 33  1  0
 33 34  2  0
 34 35  1  0
 35 36  2  0
 36 37  1  0
 37 38  2  0
 38 39  1  0
 39 40  2  0
 40 41  1  0
 41 42  1  0
 42 43  1  0
 40 44  1  0
 44 45  1  0
 44 46  2  0
 36 47  1  0
 47 48  2  0
 48 49  1  0
 49 50  1  0
 50 51  2  0
 51 52  1  0
 52 53  2  0
 53 54  1  0
 54 55  1  0
 55 56  1  0
 53 57  1  0
 57 58  2  0
 57 59  1  0
 49 60  2  0
 60 61  1  0
 48 62  1  0
 62 63  2  0
 63 64  1  0
 63 65  1  0
 65 66  2  0
 66 67  1  0
 67 68  2  0
 68 69  1  0
 69 70  2  0
 70 71  1  0
 71 72  2  0
 72 73  1  0
 73 74  1  0
 74 75  1  0
 72 76  1  0
 76 77  1  0
 76 78  2  0
 68 79  1  0
 79 80  2  0
 80 81  1  0
 81 82  1  0
 82 83  2  0
 83 84  1  0
 84 85  2  0
 85 86  1  0
 86 87  1  0
 87 88  1  0
 85 89  1  0
 89 90  2  0
 89 91  1  0
 81 92  2  0
 92 93  1  0
 80 94  1  0
 94 95  2  0
 95 96  1  0
 95 97  1  0
 97 98  2  0
 98 99  1  0
 99100  2  0
100101  1  0
101102  2  0
102103  1  0
103104  2  0
104105  1  0
105106  1  0
106107  1  0
104108  1  0
108109  1  0
108110  2  0
100111  1  0
111112  2  0
112113  1  0
113114  1  0
114115  2  0
115116  1  0
116117  2  0
117118  1  0
118119  1  0
119120  1  0
117121  1  0
121122  2  0
121123  1  0
113124  2  0
124125  1  0
112126  1  0
126127  2  0
127128  1  0
127129  1  0
129130  2  0
130131  1  0
131132  1  0
132133  1  0
131134  2  0
134135  1  0
135136  2  0
136137  1  0
137138  1  0
138139  1  0
139140  2  0
140141  1  0
141142  2  0
142143  1  0
143144  2  0
144145  1  0
145146  2  0
146147  1  0
147148  1  0
148149  1  0
146150  1  0
150151  1  0
150152  2  0
142153  1  0
153154  2  0
154155  1  0
155156  1  0
156157  2  0
157158  1  0
158159  2  0
159160  1  0
160161  1  0
161162  1  0
159163  1  0
163164  2  0
163165  1  0
155166  2  0
166167  1  0
154168  1  0
168169  2  0
169170  1  0
 29  1  1  0
 61 33  1  0
 93 65  1  0
125 97  1  0
136129  1  0
167139  1  0
 28  3  1  0
 60 35  1  0
 92 67  1  0
124 99  1  0
166141  1  0
 14  5  1  0
 32 15  1  0
 46 37  1  0
 64 47  1  0
 78 69  1  0
 96 79  1  0
110101  1  0
128111  1  0
152143  1  0
170153  1  0
 26 18  1  0
 58 50  1  0
 90 82  1  0
122114  1  0
164156  1  0
  1171  1  0
  2172  1  0
  6173  1  0
  7174  1  0
 10175  1  0
 10176  1  0
 11177  1  0
 11178  1  0
 11179  1  0
 14180  1  0
 19181  1  0
 20182  1  0
 23183  1  0
 23184  1  0
 24185  1  0
 24186  1  0
 24187  1  0
 26188  1  0
 30189  1  0
 34190  1  0
 38191  1  0
 39192  1  0
 42193  1  0
 42194  1  0
 43195  1  0
 43196  1  0
 43197  1  0
 46198  1  0
 51199  1  0
 52200  1  0
 55201  1  0
 55202  1  0
 56203  1  0
 56204  1  0
 56205  1  0
 58206  1  0
 62207  1  0
 66208  1  0
 70209  1  0
 71210  1  0
 74211  1  0
 74212  1  0
 75213  1  0
 75214  1  0
 75215  1  0
 78216  1  0
 83217  1  0
 84218  1  0
 87219  1  0
 87220  1  0
 88221  1  0
 88222  1  0
 88223  1  0
 90224  1  0
 94225  1  0
 98226  1  0
102227  1  0
103228  1  0
106229  1  0
106230  1  0
107231  1  0
107232  1  0
107233  1  0
110234  1  0
115235  1  0
116236  1  0
119237  1  0
119238  1  0
120239  1  0
120240  1  0
120241  1  0
122242  1  0
126243  1  0
130244  1  0
132245  1  0
132246  1  0
133247  1  0
133248  1  0
134249  1  0
135250  1  0
137251  1  0
137252  1  0
138253  1  0
140254  1  0
144255  1  0
145256  1  0
148257  1  0
148258  1  0
149259  1  0
149260  1  0
149261  1  0
152262  1  0
157263  1  0
158264  1  0
161265  1  0
161266  1  0
162267  1  0
162268  1  0
162269  1  0
164270  1  0
168271  1  0
169272  1  0
M  END

