
     RDKit          3D

162177  0  0  0  0  0  0  0  0999 V2000
   -1.9038   12.6689    8.0871 C   0  0  0  0  0  0  0  0  0  0  0  0
   -1.0472   11.5729    8.0746 C   0  0  0  0  0  0  0  0  0  0  0  0
   -1.6334   10.4127    7.5374 C   0  0  0  0  0  0  0  0  0  0  0  0
   -1.0124    9.1539    7.3779 C   0  0  0  0  0  0  0  0  0  0  0  0
    0.4280    8.9101    7.7682 C   0  0  0  0  0  0  0  0  0  0  0  0
    1.3700    9.3237    6.6422 C   0  0  0  0  0  0  0  0  0  0  0  0
   -1.7774    8.1513    6.7530 C   0  0  0  0  0  0  0  0  0  0  0  0
   -3.0937    8.3569    6.3223 C   0  0  0  0  0  0  0  0  0  0  0  0
   -3.7300    9.6025    6.5203 C   0  0  0  0  0  0  0  0  0  0  0  0
   -5.1389    9.8771    6.0429 C   0  0  0  0  0  0  0  0  0  0  0  0
   -5.1440   10.3062    4.5785 C   0  0  0  0  0  0  0  0  0  0  0  0
   -2.9561   10.6125    7.1227 C   0  0  0  0  0  0  0  0  0  0  0  0
   -3.3859   12.2109    7.4273 S   0  0  0  0  0  0  0  0  0  0  0  0
   -3.6420    7.2368    5.6750 C   0  0  0  0  0  0  0  0  0  0  0  0
   -2.7600    6.1581    5.6041 C   0  0  0  0  0  0  0  0  0  0  0  0
   -1.3022    6.5891    6.3392 S   0  0  0  0  0  0  0  0  0  0  0  0
   -3.0034    4.8940    4.8884 C   0  0  0  0  0  0  0  0  0  0  0  0
   -4.0330    4.6658    3.9787 C   0  0  0  0  0  0  0  0  0  0  0  0
   -3.9194    3.4340    3.3132 C   0  0  0  0  0  0  0  0  0  0  0  0
   -4.7543    2.9713    2.2733 C   0  0  0  0  0  0  0  0  0  0  0  0
   -5.9315    3.7709    1.7687 C   0  0  0  0  0  0  0  0  0  0  0  0
   -5.4885    4.8031    0.7356 C   0  0  0  0  0  0  0  0  0  0  0  0
   -4.3686    1.7733    1.6455 C   0  0  0  0  0  0  0  0  0  0  0  0
   -3.2499    1.0313    2.0442 C   0  0  0  0  0  0  0  0  0  0  0  0
   -2.4402    1.4702    3.1170 C   0  0  0  0  0  0  0  0  0  0  0  0
   -1.2379    0.6841    3.5910 C   0  0  0  0  0  0  0  0  0  0  0  0
   -1.6683   -0.4619    4.5007 C   0  0  0  0  0  0  0  0  0  0  0  0
   -2.8058    2.6888    3.7214 C   0  0  0  0  0  0  0  0  0  0  0  0
   -1.9651    3.5659    4.8884 S   0  0  0  0  0  0  0  0  0  0  0  0
   -2.9971   -0.0706    1.2090 C   0  0  0  0  0  0  0  0  0  0  0  0
   -3.8869   -0.1610    0.1386 C   0  0  0  0  0  0  0  0  0  0  0  0
   -5.0139    1.0861    0.2531 S   0  0  0  0  0  0  0  0  0  0  0  0
   -3.6931   -0.9955   -1.0587 C   0  0  0  0  0  0  0  0  0  0  0  0
   -2.6472   -1.8942   -1.2594 C   0  0  0  0  0  0  0  0  0  0  0  0
   -2.5179   -2.3056   -2.5963 C   0  0  0  0  0  0  0  0  0  0  0  0
   -1.4817   -3.1055   -3.1227 C   0  0  0  0  0  0  0  0  0  0  0  0
   -0.3692   -3.6593   -2.2587 C   0  0  0  0  0  0  0  0  0  0  0  0
   -0.7659   -4.9931   -1.6420 C   0  0  0  0  0  0  0  0  0  0  0  0
   -1.5022   -3.3222   -4.5122 C   0  0  0  0  0  0  0  0  0  0  0  0
   -2.4498   -2.7386   -5.3622 C   0  0  0  0  0  0  0  0  0  0  0  0
   -3.4836   -1.9322   -4.8366 C   0  0  0  0  0  0  0  0  0  0  0  0
   -4.5322   -1.2913   -5.7203 C   0  0  0  0  0  0  0  0  0  0  0  0
   -5.6161   -2.2996   -6.0873 C   0  0  0  0  0  0  0  0  0  0  0  0
   -3.4898   -1.7514   -3.4388 C   0  0  0  0  0  0  0  0  0  0  0  0
   -4.4867   -0.7485   -2.5276 S   0  0  0  0  0  0  0  0  0  0  0  0
   -2.1775   -2.9623   -6.7248 C   0  0  0  0  0  0  0  0  0  0  0  0
   -1.0231   -3.7139   -6.9275 C   0  0  0  0  0  0  0  0  0  0  0  0
   -0.3575   -4.1194   -5.4419 S   0  0  0  0  0  0  0  0  0  0  0  0
   -0.2722   -3.7869   -8.1890 C   0  0  0  0  0  0  0  0  0  0  0  0
   -0.3856   -4.9426   -8.9771 C   0  0  0  0  0  0  0  0  0  0  0  0
    0.3367   -5.0665  -10.1734 C   0  0  0  0  0  0  0  0  0  0  0  0
    0.1560   -6.2821  -11.0487 C   0  0  0  0  0  0  0  0  0  0  0  0
   -0.9430   -6.0893  -11.9915 N   0  0  0  0  0  0  0  0  0  0  0  0
    1.1767   -4.0212  -10.5810 C   0  0  0  0  0  0  0  0  0  0  0  0
    1.3045   -2.8696   -9.7991 C   0  0  0  0  0  0  0  0  0  0  0  0
    0.5907   -2.7346   -8.5977 C   0  0  0  0  0  0  0  0  0  0  0  0
    0.6863   -1.4231   -7.8474 C   0  0  0  0  0  0  0  0  0  0  0  0
    2.0650   -1.1230   -7.4642 N   0  0  0  0  0  0  0  0  0  0  0  0
    2.5508   -1.4651   -6.1630 C   0  0  0  0  0  0  0  0  0  0  0  0
    2.6436   -2.7520   -5.6425 C   0  0  0  0  0  0  0  0  0  0  0  0
    3.0321   -2.7577   -4.2885 C   0  0  0  0  0  0  0  0  0  0  0  0
    3.2046   -3.8932   -3.4618 C   0  0  0  0  0  0  0  0  0  0  0  0
    2.9844   -5.3017   -3.9639 C   0  0  0  0  0  0  0  0  0  0  0  0
    4.2680   -5.8757   -4.5556 C   0  0  0  0  0  0  0  0  0  0  0  0
    3.6185   -3.6507   -2.1358 C   0  0  0  0  0  0  0  0  0  0  0  0
    3.8202   -2.3610   -1.6286 C   0  0  0  0  0  0  0  0  0  0  0  0
    3.6224   -1.2274   -2.4447 C   0  0  0  0  0  0  0  0  0  0  0  0
    3.8661    0.1761   -1.9387 C   0  0  0  0  0  0  0  0  0  0  0  0
    5.3408    0.5471   -2.0522 C   0  0  0  0  0  0  0  0  0  0  0  0
    3.2449   -1.4684   -3.7788 C   0  0  0  0  0  0  0  0  0  0  0  0
    2.9598   -0.3322   -4.9896 S   0  0  0  0  0  0  0  0  0  0  0  0
    4.2425   -2.3565   -0.2871 C   0  0  0  0  0  0  0  0  0  0  0  0
    4.3761   -3.6344    0.2512 C   0  0  0  0  0  0  0  0  0  0  0  0
    3.9678   -4.7729   -0.9278 S   0  0  0  0  0  0  0  0  0  0  0  0
    4.8321   -3.9376    1.6183 C   0  0  0  0  0  0  0  0  0  0  0  0
    5.1544   -5.1989    2.1141 C   0  0  0  0  0  0  0  0  0  0  0  0
    5.5909   -5.1713    3.4518 C   0  0  0  0  0  0  0  0  0  0  0  0
    5.9854   -6.2828    4.2290 C   0  0  0  0  0  0  0  0  0  0  0  0
    5.9691   -7.6936    3.6852 C   0  0  0  0  0  0  0  0  0  0  0  0
    4.5735   -8.2998    3.7954 C   0  0  0  0  0  0  0  0  0  0  0  0
    6.3417   -6.0215    5.5660 C   0  0  0  0  0  0  0  0  0  0  0  0
    6.3428   -4.7330    6.1133 C   0  0  0  0  0  0  0  0  0  0  0  0
    5.9754   -3.6170    5.3292 C   0  0  0  0  0  0  0  0  0  0  0  0
    5.9167   -2.2188    5.9009 C   0  0  0  0  0  0  0  0  0  0  0  0
    4.6022   -1.9907    6.6413 C   0  0  0  0  0  0  0  0  0  0  0  0
    5.5952   -3.8826    3.9996 C   0  0  0  0  0  0  0  0  0  0  0  0
    5.0767   -2.7909    2.8302 S   0  0  0  0  0  0  0  0  0  0  0  0
    6.7175   -4.7160    7.4692 C   0  0  0  0  0  0  0  0  0  0  0  0
    7.0057   -5.9775    7.9777 C   0  0  0  0  0  0  0  0  0  0  0  0
    6.7983   -7.1193    6.7570 S   0  0  0  0  0  0  0  0  0  0  0  0
   -1.6551   13.6575    8.4479 H   0  0  0  0  0  0  0  0  0  0  0  0
   -0.0285   11.6369    8.4324 H   0  0  0  0  0  0  0  0  0  0  0  0
    0.5933    7.8385    8.0050 H   0  0  0  0  0  0  0  0  0  0  0  0
    0.6814    9.4720    8.6935 H   0  0  0  0  0  0  0  0  0  0  0  0
    2.4231    9.1629    6.9567 H   0  0  0  0  0  0  0  0  0  0  0  0
    1.2348   10.3985    6.3964 H   0  0  0  0  0  0  0  0  0  0  0  0
    1.1739    8.7135    5.7331 H   0  0  0  0  0  0  0  0  0  0  0  0
   -5.6086   10.6755    6.6564 H   0  0  0  0  0  0  0  0  0  0  0  0
   -5.7765    8.9761    6.1688 H   0  0  0  0  0  0  0  0  0  0  0  0
   -6.1793   10.5650    4.2703 H   0  0  0  0  0  0  0  0  0  0  0  0
   -4.4981   11.1999    4.4363 H   0  0  0  0  0  0  0  0  0  0  0  0
   -4.7755    9.4808    3.9301 H   0  0  0  0  0  0  0  0  0  0  0  0
   -4.6348    7.2121    5.2481 H   0  0  0  0  0  0  0  0  0  0  0  0
   -4.7964    5.3986    3.7621 H   0  0  0  0  0  0  0  0  0  0  0  0
   -6.6894    3.1007    1.3125 H   0  0  0  0  0  0  0  0  0  0  0  0
   -6.4425    4.2820    2.6100 H   0  0  0  0  0  0  0  0  0  0  0  0
   -6.3695    5.3906    0.3955 H   0  0  0  0  0  0  0  0  0  0  0  0
   -4.7465    5.5028    1.1763 H   0  0  0  0  0  0  0  0  0  0  0  0
   -5.0357    4.2994   -0.1453 H   0  0  0  0  0  0  0  0  0  0  0  0
   -0.6698    0.2815    2.7258 H   0  0  0  0  0  0  0  0  0  0  0  0
   -0.5300    1.3331    4.1451 H   0  0  0  0  0  0  0  0  0  0  0  0
   -0.7719   -1.0289    4.8367 H   0  0  0  0  0  0  0  0  0  0  0  0
   -2.3460   -1.1574    3.9597 H   0  0  0  0  0  0  0  0  0  0  0  0
   -2.1947   -0.0636    5.3967 H   0  0  0  0  0  0  0  0  0  0  0  0
   -2.1471   -0.7288    1.3258 H   0  0  0  0  0  0  0  0  0  0  0  0
   -1.9634   -2.1815   -0.4741 H   0  0  0  0  0  0  0  0  0  0  0  0
    0.5504   -3.8026   -2.8557 H   0  0  0  0  0  0  0  0  0  0  0  0
   -0.0911   -2.9420   -1.4594 H   0  0  0  0  0  0  0  0  0  0  0  0
   -1.6901   -4.8790   -1.0353 H   0  0  0  0  0  0  0  0  0  0  0  0
    0.0513   -5.3529   -0.9797 H   0  0  0  0  0  0  0  0  0  0  0  0
   -0.9375   -5.7477   -2.4378 H   0  0  0  0  0  0  0  0  0  0  0  0
   -5.0078   -0.4237   -5.2131 H   0  0  0  0  0  0  0  0  0  0  0  0
   -4.0686   -0.8895   -6.6431 H   0  0  0  0  0  0  0  0  0  0  0  0
   -5.1761   -3.1594   -6.6355 H   0  0  0  0  0  0  0  0  0  0  0  0
   -6.1204   -2.6713   -5.1701 H   0  0  0  0  0  0  0  0  0  0  0  0
   -6.3735   -1.8136   -6.7389 H   0  0  0  0  0  0  0  0  0  0  0  0
   -2.7388   -2.5283   -7.5395 H   0  0  0  0  0  0  0  0  0  0  0  0
   -1.0473   -5.7438   -8.6620 H   0  0  0  0  0  0  0  0  0  0  0  0
   -0.0507   -7.1778  -10.4214 H   0  0  0  0  0  0  0  0  0  0  0  0
    1.0917   -6.4915  -11.6141 H   0  0  0  0  0  0  0  0  0  0  0  0
   -1.8217   -5.9065  -11.4526 H   0  0  0  0  0  0  0  0  0  0  0  0
   -0.7463   -5.2404  -12.5718 H   0  0  0  0  0  0  0  0  0  0  0  0
    1.7278   -4.0916  -11.5111 H   0  0  0  0  0  0  0  0  0  0  0  0
    1.9483   -2.0667  -10.1445 H   0  0  0  0  0  0  0  0  0  0  0  0
    0.3184   -0.6182   -8.5227 H   0  0  0  0  0  0  0  0  0  0  0  0
    0.0401   -1.3894   -6.9460 H   0  0  0  0  0  0  0  0  0  0  0  0
    2.5312   -0.3250   -7.9513 H   0  0  0  0  0  0  0  0  0  0  0  0
    2.4414   -3.6346   -6.2305 H   0  0  0  0  0  0  0  0  0  0  0  0
    2.6355   -5.9570   -3.1368 H   0  0  0  0  0  0  0  0  0  0  0  0
    2.1834   -5.3292   -4.7272 H   0  0  0  0  0  0  0  0  0  0  0  0
    4.0683   -6.8910   -4.9568 H   0  0  0  0  0  0  0  0  0  0  0  0
    4.6336   -5.2299   -5.3841 H   0  0  0  0  0  0  0  0  0  0  0  0
    5.0518   -5.9470   -3.7706 H   0  0  0  0  0  0  0  0  0  0  0  0
    3.5356    0.2748   -0.8820 H   0  0  0  0  0  0  0  0  0  0  0  0
    3.2621    0.9104   -2.5130 H   0  0  0  0  0  0  0  0  0  0  0  0
    5.4920    1.5866   -1.6907 H   0  0  0  0  0  0  0  0  0  0  0  0
    5.6717    0.4866   -3.1124 H   0  0  0  0  0  0  0  0  0  0  0  0
    5.9602   -0.1407   -1.4375 H   0  0  0  0  0  0  0  0  0  0  0  0
    4.4680   -1.4615    0.2748 H   0  0  0  0  0  0  0  0  0  0  0  0
    5.0718   -6.0970    1.5199 H   0  0  0  0  0  0  0  0  0  0  0  0
    6.2991   -7.7019    2.6247 H   0  0  0  0  0  0  0  0  0  0  0  0
    6.6896   -8.3348    4.2369 H   0  0  0  0  0  0  0  0  0  0  0  0
    4.2795   -8.3956    4.8638 H   0  0  0  0  0  0  0  0  0  0  0  0
    4.5690   -9.3094    3.3312 H   0  0  0  0  0  0  0  0  0  0  0  0
    3.8295   -7.6644    3.2660 H   0  0  0  0  0  0  0  0  0  0  0  0
    6.0179   -1.4602    5.0982 H   0  0  0  0  0  0  0  0  0  0  0  0
    6.7698   -2.0500    6.5960 H   0  0  0  0  0  0  0  0  0  0  0  0
    4.4952   -2.7118    7.4780 H   0  0  0  0  0  0  0  0  0  0  0  0
    4.5830   -0.9610    7.0567 H   0  0  0  0  0  0  0  0  0  0  0  0
    3.7431   -2.1089    5.9463 H   0  0  0  0  0  0  0  0  0  0  0  0
    6.7725   -3.8226    8.0777 H   0  0  0  0  0  0  0  0  0  0  0  0
    7.3095   -6.1876    8.9940 H   0  0  0  0  0  0  0  0  0  0  0  0
  1  2  2  0
  2  3  1  0
  3  4  2  0
  4  5  1  0
  5  6  1  0
  4  7  1  0
  7  8  2  0
  8  9  1  0
  9 10  1  0
 10 11  1  0
  9 12  2  0
 12 13  1  0
  8 14  1  0
 14 15  2  0
 15 16  1  0
 15 17  1  0
 17 18  2  0
 18 19  1  0
 19 20  2  0
 20 21  1  0
 21 22  1  0
 20 23  1  0
 23 24  2  0
 24 25  1  0
 25 26  1  0
 26 27  1  0
 25 28  2  0
 28 29  1  0
 24 30  1  0
 30 31  2  0
 31 32  1  0
 31 33  1  0
 33 34  2  0
 34 35  1  0
 35 36  2  0
 36 37  1  0
 37 38  1  0
 36 39  1  0
 39 40  2  0
 40 41  1  0
 41 42  1  0
 42 43  1  0
 41 44  2  0
 44 45  1  0
 40 46  1  0
 46 47  2  0
 47 48  1  0
 47 49  1  0
 49 50  2  0
 50 51  1  0
 51 52  1  0
 52 53  1  0
 51 54  2  0
 54 55  1  0
 55 56  2  0
 56 57  1  0
 57 58  1  0
 58 59  1  0
 59 60  2  0
 60 61  1  0
 61 62  2  0
 62 63  1  0
 63 64  1  0
 62 65  1  0
 65 66  2  0
 66 67  1  0
 67 68  1  0
 68 69  1  0
 67 70  2  0
 70 71  1  0
 66 72  1  0
 72 73  2  0
 73 74  1  0
 73 75  1  0
 75 76  2  0
 76 77  1  0
 77 78  2  0
 78 79  1  0
 79 80  1  0
 78 81  1  0
 81 82  2  0
 82 83  1  0
 83 84  1  0
 84 85  1  0
 83 86  2  0
 86 87  1  0
 82 88  1  0
 88 89  2  0
 89 90  1  0
 13  1  1  0
 29 17  1  0
 45 33  1  0
 56 49  1  0
 71 59  1  0
 87 75  1  0
 12  3  1  0
 28 19  1  0
 44 35  1  0
 70 61  1  0
 86 77  1  0
 16  7  1  0
 32 23  1  0
 48 39  1  0
 74 65  1  0
 90 81  1  0
  1 91  1  0
  2 92  1  0
  5 93  1  0
  5 94  1  0
  6 95  1  0
  6 96  1  0
  6 97  1  0
 10 98  1  0
 10 99  1  0
 11100  1  0
 11101  1  0
 11102  1  0
 14103  1  0
 18104  1  0
 21105  1  0
 21106  1  0
 22107  1  0
 22108  1  0
 22109  1  0
 26110  1  0
 26111  1  0
 27112  1  0
 27113  1  0
 27114  1  0
 30115  1  0
 34116  1  0
 37117  1  0
 37118  1  0
 38119  1  0
 38120  1  0
 38121  1  0
 42122  1  0
 42123  1  0
 43124  1  0
 43125  1  0
 43126  1  0
 46127  1  0
 50128  1  0
 52129  1  0
 52130  1  0
 53131  1  0
 53132  1  0
 54133  1  0
 55134  1  0
 57135  1  0
 57136  1  0
 58137  1  0
 60138  1  0
 63139  1  0
 63140  1  0
 64141  1  0
 64142  1  0
 64143  1  0
 68144  1  0
 68145  1  0
 69146  1  0
 69147  1  0
 69148  1  0
 72149  1  0
 76150  1  0
 79151  1  0
 79152  1  0
 80153  1  0
 80154  1  0
 80155  1  0
 84156  1  0
 84157  1  0
 85158  1  0
 85159  1  0
 85160  1  0
 88161  1  0
 89162  1  0
M  END

