
     RDKit          3D

 95103  0  0  0  0  0  0  0  0999 V2000
   11.2879    0.0288    6.1472 C   0  0  0  0  0  0  0  0  0  0  0  0
   11.3592   -1.4973    5.4532 S   0  0  0  0  0  0  0  0  0  0  0  0
   10.7327   -1.0687    3.9516 C   0  0  0  0  0  0  0  0  0  0  0  0
   10.4615    0.2923    3.9702 C   0  0  0  0  0  0  0  0  0  0  0  0
   10.7570    0.9031    5.2041 C   0  0  0  0  0  0  0  0  0  0  0  0
   10.6172    2.3093    5.4631 N   0  0  0  0  0  0  0  0  0  0  0  0
    9.7201    3.1795    4.7596 C   0  0  0  0  0  0  0  0  0  0  0  0
    8.5143    2.7674    4.3500 C   0  0  0  0  0  0  0  0  0  0  0  0
    7.5676    3.6581    3.6486 C   0  0  0  0  0  0  0  0  0  0  0  0
    7.9178    5.1973    3.0580 S   0  0  0  0  0  0  0  0  0  0  0  0
    6.4144    5.5042    2.3773 C   0  0  0  0  0  0  0  0  0  0  0  0
    5.6090    4.3950    2.5924 C   0  0  0  0  0  0  0  0  0  0  0  0
    6.2477    3.3553    3.2979 C   0  0  0  0  0  0  0  0  0  0  0  0
    5.5946    2.1278    3.6653 N   0  0  0  0  0  0  0  0  0  0  0  0
    4.4542    1.6203    2.9612 C   0  0  0  0  0  0  0  0  0  0  0  0
    3.8141    0.5368    3.4049 C   0  0  0  0  0  0  0  0  0  0  0  0
    2.6359   -0.0174    2.7213 C   0  0  0  0  0  0  0  0  0  0  0  0
    1.8712    0.5626    1.3258 S   0  0  0  0  0  0  0  0  0  0  0  0
    0.6138   -0.5756    1.2567 C   0  0  0  0  0  0  0  0  0  0  0  0
    0.7888   -1.4204    2.3550 C   0  0  0  0  0  0  0  0  0  0  0  0
    1.8894   -1.1080    3.1263 C   0  0  0  0  0  0  0  0  0  0  0  0
    1.9987   -2.1390    4.4405 S   0  0  0  0  0  0  0  0  0  0  0  0
    0.5982   -3.0203    4.0352 C   0  0  0  0  0  0  0  0  0  0  0  0
    0.0754   -4.1396    4.8507 C   0  0  0  0  0  0  0  0  0  0  0  0
    0.7055   -4.4851    5.8876 O   0  0  0  0  0  0  0  0  0  0  0  0
   -1.1678   -4.9017    4.4834 C   0  0  0  0  0  0  0  0  0  0  0  0
   -0.8748   -5.9331    3.3974 C   0  0  0  0  0  0  0  0  0  0  0  0
    0.0344   -2.4851    2.8646 C   0  0  0  0  0  0  0  0  0  0  0  0
   -1.1381   -2.8988    2.3312 F   0  0  0  0  0  0  0  0  0  0  0  0
   -0.4118   -0.6364    0.2036 C   0  0  0  0  0  0  0  0  0  0  0  0
   -1.1324   -2.0280   -0.4384 S   0  0  0  0  0  0  0  0  0  0  0  0
   -2.1173   -1.2715   -1.5880 C   0  0  0  0  0  0  0  0  0  0  0  0
   -1.8597    0.0931   -1.4946 C   0  0  0  0  0  0  0  0  0  0  0  0
   -0.9253    0.4196   -0.5340 C   0  0  0  0  0  0  0  0  0  0  0  0
   -0.6500    2.0745   -0.5317 S   0  0  0  0  0  0  0  0  0  0  0  0
   -1.7439    2.3940   -1.7969 C   0  0  0  0  0  0  0  0  0  0  0  0
   -2.0643    3.7314   -2.3347 C   0  0  0  0  0  0  0  0  0  0  0  0
   -3.1459    3.9028   -2.9546 O   0  0  0  0  0  0  0  0  0  0  0  0
   -1.1514    4.9079   -2.1314 C   0  0  0  0  0  0  0  0  0  0  0  0
   -1.3022    5.5091   -0.7324 C   0  0  0  0  0  0  0  0  0  0  0  0
   -2.3260    1.1919   -2.2227 C   0  0  0  0  0  0  0  0  0  0  0  0
   -3.1792    1.1027   -3.2742 F   0  0  0  0  0  0  0  0  0  0  0  0
   -3.0619   -1.9672   -2.4681 C   0  0  0  0  0  0  0  0  0  0  0  0
   -2.7844   -3.4600   -3.2170 S   0  0  0  0  0  0  0  0  0  0  0  0
   -4.3284   -3.6607   -3.8892 C   0  0  0  0  0  0  0  0  0  0  0  0
   -5.0915   -2.5703   -3.4764 C   0  0  0  0  0  0  0  0  0  0  0  0
   -4.3938   -1.6596   -2.7113 C   0  0  0  0  0  0  0  0  0  0  0  0
   -5.4363   -0.4804   -2.1308 S   0  0  0  0  0  0  0  0  0  0  0  0
   -6.8141   -1.1157   -2.9035 C   0  0  0  0  0  0  0  0  0  0  0  0
   -8.1538   -0.4978   -2.8080 C   0  0  0  0  0  0  0  0  0  0  0  0
   -8.3105    0.4948   -2.0478 O   0  0  0  0  0  0  0  0  0  0  0  0
   -9.3295   -0.9780   -3.6129 C   0  0  0  0  0  0  0  0  0  0  0  0
   -9.2142   -0.5381   -5.0703 C   0  0  0  0  0  0  0  0  0  0  0  0
   -6.4573   -2.2871   -3.5938 C   0  0  0  0  0  0  0  0  0  0  0  0
   -7.3370   -3.1006   -4.2262 F   0  0  0  0  0  0  0  0  0  0  0  0
   -4.7625   -4.8225   -4.6750 C   0  0  0  0  0  0  0  0  0  0  0  0
   -4.4412   -6.4199   -4.2611 S   0  0  0  0  0  0  0  0  0  0  0  0
   -5.2028   -7.1134   -5.5888 C   0  0  0  0  0  0  0  0  0  0  0  0
   -5.7150   -6.0962   -6.3863 C   0  0  0  0  0  0  0  0  0  0  0  0
   -5.4633   -4.8063   -5.8830 C   0  0  0  0  0  0  0  0  0  0  0  0
   -5.7967   -3.5953   -6.5845 N   0  0  0  0  0  0  0  0  0  0  0  0
   -6.8333   -3.5325   -7.5759 C   0  0  0  0  0  0  0  0  0  0  0  0
   -7.1254   -2.3909   -8.1917 C   0  0  0  0  0  0  0  0  0  0  0  0
   11.6005    0.2832    7.1510 H   0  0  0  0  0  0  0  0  0  0  0  0
   10.5888   -1.7319    3.1100 H   0  0  0  0  0  0  0  0  0  0  0  0
   10.0870    0.8218    3.1036 H   0  0  0  0  0  0  0  0  0  0  0  0
   11.2495    2.7428    6.1747 H   0  0  0  0  0  0  0  0  0  0  0  0
   10.0059    4.2188    4.6513 H   0  0  0  0  0  0  0  0  0  0  0  0
    8.2149    1.7485    4.5487 H   0  0  0  0  0  0  0  0  0  0  0  0
    6.1232    6.4105    1.8631 H   0  0  0  0  0  0  0  0  0  0  0  0
    4.5791    4.3640    2.2667 H   0  0  0  0  0  0  0  0  0  0  0  0
    5.9775    1.5695    4.4606 H   0  0  0  0  0  0  0  0  0  0  0  0
    4.1188    2.1144    2.0582 H   0  0  0  0  0  0  0  0  0  0  0  0
    4.1560    0.0502    4.3119 H   0  0  0  0  0  0  0  0  0  0  0  0
   -1.5569   -5.4281    5.3825 H   0  0  0  0  0  0  0  0  0  0  0  0
   -1.9682   -4.2078    4.1542 H   0  0  0  0  0  0  0  0  0  0  0  0
   -0.1306   -6.6720    3.7639 H   0  0  0  0  0  0  0  0  0  0  0  0
   -0.4793   -5.4401    2.4836 H   0  0  0  0  0  0  0  0  0  0  0  0
   -1.8098   -6.4689    3.1323 H   0  0  0  0  0  0  0  0  0  0  0  0
   -1.3808    5.6912   -2.8906 H   0  0  0  0  0  0  0  0  0  0  0  0
   -0.0925    4.5913   -2.2885 H   0  0  0  0  0  0  0  0  0  0  0  0
   -2.3700    5.5082   -0.4030 H   0  0  0  0  0  0  0  0  0  0  0  0
   -0.9286    6.5527   -0.7337 H   0  0  0  0  0  0  0  0  0  0  0  0
   -0.6949    4.9267   -0.0033 H   0  0  0  0  0  0  0  0  0  0  0  0
  -10.2656   -0.5549   -3.1880 H   0  0  0  0  0  0  0  0  0  0  0  0
   -9.4236   -2.0804   -3.5503 H   0  0  0  0  0  0  0  0  0  0  0  0
   -8.2911   -0.9491   -5.5315 H   0  0  0  0  0  0  0  0  0  0  0  0
  -10.0893   -0.9079   -5.6445 H   0  0  0  0  0  0  0  0  0  0  0  0
   -9.1878    0.5706   -5.1380 H   0  0  0  0  0  0  0  0  0  0  0  0
   -5.2657   -8.1717   -5.7989 H   0  0  0  0  0  0  0  0  0  0  0  0
   -6.2208   -6.2971   -7.3217 H   0  0  0  0  0  0  0  0  0  0  0  0
   -5.2988   -2.7129   -6.3257 H   0  0  0  0  0  0  0  0  0  0  0  0
   -7.4117   -4.4117   -7.8173 H   0  0  0  0  0  0  0  0  0  0  0  0
   -7.9035   -2.3622   -8.9390 H   0  0  0  0  0  0  0  0  0  0  0  0
   -6.5935   -1.4770   -7.9560 H   0  0  0  0  0  0  0  0  0  0  0  0
  1  2  1  0
  2  3  1  0
  3  4  2  0
  4  5  1  0
  5  6  1  0
  6  7  1  0
  7  8  2  3
  8  9  1  0
  9 10  1  0
 10 11  1  0
 11 12  2  0
 12 13  1  0
 13 14  1  0
 14 15  1  0
 15 16  2  3
 16 17  1  0
 17 18  1  0
 18 19  1  0
 19 20  2  0
 20 21  1  0
 21 22  1  0
 22 23  1  0
 23 24  1  0
 24 25  2  0
 24 26  1  0
 26 27  1  0
 23 28  2  0
 28 29  1  0
 19 30  1  0
 30 31  1  0
 31 32  1  0
 32 33  2  0
 33 34  1  0
 34 35  1  0
 35 36  1  0
 36 37  1  0
 37 38  2  0
 37 39  1  0
 39 40  1  0
 36 41  2  0
 41 42  1  0
 32 43  1  0
 43 44  1  0
 44 45  1  0
 45 46  2  0
 46 47  1  0
 47 48  1  0
 48 49  1  0
 49 50  1  0
 50 51  2  0
 50 52  1  0
 52 53  1  0
 49 54  2  0
 54 55  1  0
 45 56  1  0
 56 57  1  0
 57 58  1  0
 58 59  2  0
 59 60  1  0
 60 61  1  0
 61 62  1  0
 62 63  2  3
  5  1  2  0
 13  9  2  0
 21 17  2  0
 34 30  2  0
 47 43  2  0
 60 56  2  0
 28 20  1  0
 41 33  1  0
 54 46  1  0
  1 64  1  0
  3 65  1  0
  4 66  1  0
  6 67  1  0
  7 68  1  0
  8 69  1  0
 11 70  1  0
 12 71  1  0
 14 72  1  0
 15 73  1  0
 16 74  1  0
 26 75  1  0
 26 76  1  0
 27 77  1  0
 27 78  1  0
 27 79  1  0
 39 80  1  0
 39 81  1  0
 40 82  1  0
 40 83  1  0
 40 84  1  0
 52 85  1  0
 52 86  1  0
 53 87  1  0
 53 88  1  0
 53 89  1  0
 58 90  1  0
 59 91  1  0
 61 92  1  0
 62 93  1  0
 63 94  1  0
 63 95  1  0
M  END

