
     RDKit          3D

230256  0  0  0  0  0  0  0  0999 V2000
   -1.8651  -11.0930    2.6612 C   0  0  0  0  0  0  0  0  0  0  0  0
   -0.7880  -10.2125    2.6227 C   0  0  0  0  0  0  0  0  0  0  0  0
   -0.8386   -9.3222    1.5360 C   0  0  0  0  0  0  0  0  0  0  0  0
    0.1184   -8.3361    1.2136 C   0  0  0  0  0  0  0  0  0  0  0  0
    1.2930   -8.0987    2.0696 C   0  0  0  0  0  0  0  0  0  0  0  0
    1.2257   -7.5343    3.6526 S   0  0  0  0  0  0  0  0  0  0  0  0
    2.8741   -7.6585    3.9599 C   0  0  0  0  0  0  0  0  0  0  0  0
    3.5382   -7.2053    5.2258 C   0  0  0  0  0  0  0  0  0  0  0  0
    3.6759   -5.6873    5.2383 C   0  0  0  0  0  0  0  0  0  0  0  0
    3.5017   -8.1594    2.8196 C   0  0  0  0  0  0  0  0  0  0  0  0
    5.2225   -8.5078    2.7329 Cl  0  0  0  0  0  0  0  0  0  0  0  0
    2.6155   -8.4039    1.7584 C   0  0  0  0  0  0  0  0  0  0  0  0
    3.1159   -9.0816    0.2159 Cl  0  0  0  0  0  0  0  0  0  0  0  0
   -0.1125   -7.5800    0.0490 C   0  0  0  0  0  0  0  0  0  0  0  0
   -1.2387   -7.7814   -0.7582 C   0  0  0  0  0  0  0  0  0  0  0  0
   -2.1918   -8.7678   -0.4358 C   0  0  0  0  0  0  0  0  0  0  0  0
   -3.3767   -9.0007   -1.2817 C   0  0  0  0  0  0  0  0  0  0  0  0
   -3.3251   -9.5049   -2.8853 S   0  0  0  0  0  0  0  0  0  0  0  0
   -4.9808   -9.4070   -3.1588 C   0  0  0  0  0  0  0  0  0  0  0  0
   -5.6335   -9.6342   -4.4883 C   0  0  0  0  0  0  0  0  0  0  0  0
   -5.6357   -8.3546   -5.3174 C   0  0  0  0  0  0  0  0  0  0  0  0
   -5.5986   -8.9475   -1.9959 C   0  0  0  0  0  0  0  0  0  0  0  0
   -4.6992   -8.7264   -0.9413 C   0  0  0  0  0  0  0  0  0  0  0  0
   -5.1869   -8.0975    0.6287 Cl  0  0  0  0  0  0  0  0  0  0  0  0
   -7.3243   -8.6308   -1.8733 Cl  0  0  0  0  0  0  0  0  0  0  0  0
   -1.9588   -9.5179    0.7242 C   0  0  0  0  0  0  0  0  0  0  0  0
   -2.8755  -10.7825    1.3481 S   0  0  0  0  0  0  0  0  0  0  0  0
   -1.3176   -6.8903   -1.8346 C   0  0  0  0  0  0  0  0  0  0  0  0
   -0.2581   -5.9903   -1.8809 C   0  0  0  0  0  0  0  0  0  0  0  0
    0.7834   -6.2909   -0.5790 S   0  0  0  0  0  0  0  0  0  0  0  0
   -0.1552   -4.8946   -2.8568 C   0  0  0  0  0  0  0  0  0  0  0  0
    0.7757   -3.8531   -2.8634 C   0  0  0  0  0  0  0  0  0  0  0  0
    0.5099   -2.8933   -3.8597 C   0  0  0  0  0  0  0  0  0  0  0  0
    1.2059   -1.6865   -4.0737 C   0  0  0  0  0  0  0  0  0  0  0  0
    2.3113   -1.2507   -3.2073 C   0  0  0  0  0  0  0  0  0  0  0  0
    3.8949   -1.0371   -3.7303 S   0  0  0  0  0  0  0  0  0  0  0  0
    4.4289   -0.2033   -2.3693 C   0  0  0  0  0  0  0  0  0  0  0  0
    5.7879    0.4178   -2.2408 C   0  0  0  0  0  0  0  0  0  0  0  0
    5.8276    1.7743   -2.9347 C   0  0  0  0  0  0  0  0  0  0  0  0
    3.3483   -0.0337   -1.5040 C   0  0  0  0  0  0  0  0  0  0  0  0
    3.4284    0.9101   -0.0232 Cl  0  0  0  0  0  0  0  0  0  0  0  0
    2.1644   -0.6251   -1.9725 C   0  0  0  0  0  0  0  0  0  0  0  0
    0.6207   -0.4788   -1.1475 Cl  0  0  0  0  0  0  0  0  0  0  0  0
    0.6887   -0.8146   -5.0487 C   0  0  0  0  0  0  0  0  0  0  0  0
   -0.4669   -1.0996   -5.7819 C   0  0  0  0  0  0  0  0  0  0  0  0
   -1.1388   -2.3215   -5.5964 C   0  0  0  0  0  0  0  0  0  0  0  0
   -2.4030   -2.6202   -6.2846 C   0  0  0  0  0  0  0  0  0  0  0  0
   -2.5307   -3.1293   -7.8783 S   0  0  0  0  0  0  0  0  0  0  0  0
   -4.2108   -3.2527   -7.8876 C   0  0  0  0  0  0  0  0  0  0  0  0
   -5.0260   -3.6192   -9.0906 C   0  0  0  0  0  0  0  0  0  0  0  0
   -5.3579   -2.3829   -9.9178 C   0  0  0  0  0  0  0  0  0  0  0  0
   -4.6942   -2.8666   -6.6382 C   0  0  0  0  0  0  0  0  0  0  0  0
   -3.6773   -2.5194   -5.7362 C   0  0  0  0  0  0  0  0  0  0  0  0
   -3.9799   -1.9763   -4.0911 Cl  0  0  0  0  0  0  0  0  0  0  0  0
   -6.4043   -2.8196   -6.2257 Cl  0  0  0  0  0  0  0  0  0  0  0  0
   -0.6205   -3.1928   -4.6268 C   0  0  0  0  0  0  0  0  0  0  0  0
   -1.2862   -4.6322   -4.0843 S   0  0  0  0  0  0  0  0  0  0  0  0
   -0.9491   -0.0010   -6.5146 C   0  0  0  0  0  0  0  0  0  0  0  0
   -0.1935    1.1593   -6.3306 C   0  0  0  0  0  0  0  0  0  0  0  0
    1.0977    0.7931   -5.2996 S   0  0  0  0  0  0  0  0  0  0  0  0
   -0.7298    2.5256   -6.4750 C   0  0  0  0  0  0  0  0  0  0  0  0
   -0.1056    3.6405   -5.9128 C   0  0  0  0  0  0  0  0  0  0  0  0
   -1.0054    4.6342   -5.4941 C   0  0  0  0  0  0  0  0  0  0  0  0
   -0.6925    5.6812   -4.6048 C   0  0  0  0  0  0  0  0  0  0  0  0
    0.6662    5.8338   -4.0592 C   0  0  0  0  0  0  0  0  0  0  0  0
    1.7126    7.0954   -4.4211 S   0  0  0  0  0  0  0  0  0  0  0  0
    2.9250    6.6264   -3.3500 C   0  0  0  0  0  0  0  0  0  0  0  0
    4.1778    7.4093   -3.0942 C   0  0  0  0  0  0  0  0  0  0  0  0
    3.9849    8.3703   -1.9276 C   0  0  0  0  0  0  0  0  0  0  0  0
    2.5015    5.4911   -2.6621 C   0  0  0  0  0  0  0  0  0  0  0  0
    3.4322    4.7205   -1.3860 Cl  0  0  0  0  0  0  0  0  0  0  0  0
    1.2375    5.0421   -3.0649 C   0  0  0  0  0  0  0  0  0  0  0  0
    0.4281    3.6529   -2.3489 Cl  0  0  0  0  0  0  0  0  0  0  0  0
   -1.7709    6.3301   -3.9850 C   0  0  0  0  0  0  0  0  0  0  0  0
   -3.1018    5.9775   -4.2289 C   0  0  0  0  0  0  0  0  0  0  0  0
   -3.4165    5.0076   -5.2044 C   0  0  0  0  0  0  0  0  0  0  0  0
   -4.7966    4.5229   -5.3767 C   0  0  0  0  0  0  0  0  0  0  0  0
   -6.0059    5.3482   -6.2036 S   0  0  0  0  0  0  0  0  0  0  0  0
   -7.2283    4.2253   -5.9063 C   0  0  0  0  0  0  0  0  0  0  0  0
   -8.6662    4.3936   -6.3135 C   0  0  0  0  0  0  0  0  0  0  0  0
   -8.7932    4.6943   -7.8037 C   0  0  0  0  0  0  0  0  0  0  0  0
   -6.7056    3.2105   -5.1030 C   0  0  0  0  0  0  0  0  0  0  0  0
   -5.3465    3.3789   -4.8067 C   0  0  0  0  0  0  0  0  0  0  0  0
   -4.4383    2.2863   -3.7666 Cl  0  0  0  0  0  0  0  0  0  0  0  0
   -7.6561    1.8532   -4.5094 Cl  0  0  0  0  0  0  0  0  0  0  0  0
   -2.3366    4.3370   -5.8055 C   0  0  0  0  0  0  0  0  0  0  0  0
   -2.3866    2.8422   -6.5717 S   0  0  0  0  0  0  0  0  0  0  0  0
   -3.9802    6.4051   -3.2153 C   0  0  0  0  0  0  0  0  0  0  0  0
   -3.3345    7.0084   -2.1299 C   0  0  0  0  0  0  0  0  0  0  0  0
   -1.7025    7.1561   -2.5308 S   0  0  0  0  0  0  0  0  0  0  0  0
   -3.7148    6.7358   -0.7277 C   0  0  0  0  0  0  0  0  0  0  0  0
   -4.3971    5.5649   -0.3728 C   0  0  0  0  0  0  0  0  0  0  0  0
   -3.9921    5.0223    0.8591 C   0  0  0  0  0  0  0  0  0  0  0  0
   -4.2557    3.7020    1.2866 C   0  0  0  0  0  0  0  0  0  0  0  0
   -5.1929    2.8243    0.5543 C   0  0  0  0  0  0  0  0  0  0  0  0
   -4.7750    1.3760   -0.1954 S   0  0  0  0  0  0  0  0  0  0  0  0
   -6.3010    1.0454   -0.8180 C   0  0  0  0  0  0  0  0  0  0  0  0
   -6.6573   -0.2028   -1.5656 C   0  0  0  0  0  0  0  0  0  0  0  0
   -7.0665   -1.3131   -0.6040 C   0  0  0  0  0  0  0  0  0  0  0  0
   -7.1707    2.0651   -0.4328 C   0  0  0  0  0  0  0  0  0  0  0  0
   -8.8812    2.0921   -0.8378 Cl  0  0  0  0  0  0  0  0  0  0  0  0
   -6.5476    3.0662    0.3285 C   0  0  0  0  0  0  0  0  0  0  0  0
   -7.4010    4.4626    0.9735 Cl  0  0  0  0  0  0  0  0  0  0  0  0
   -3.4542    3.2039    2.3273 C   0  0  0  0  0  0  0  0  0  0  0  0
   -2.4684    3.9744    2.9520 C   0  0  0  0  0  0  0  0  0  0  0  0
   -2.2568    5.3143    2.5717 C   0  0  0  0  0  0  0  0  0  0  0  0
   -1.1022    6.0828    3.0664 C   0  0  0  0  0  0  0  0  0  0  0  0
   -1.2002    7.4487    4.0410 S   0  0  0  0  0  0  0  0  0  0  0  0
    0.4531    7.7667    4.0676 C   0  0  0  0  0  0  0  0  0  0  0  0
    1.0769    8.9609    4.7269 C   0  0  0  0  0  0  0  0  0  0  0  0
    1.0988   10.1515    3.7737 C   0  0  0  0  0  0  0  0  0  0  0  0
    1.1025    6.8213    3.2743 C   0  0  0  0  0  0  0  0  0  0  0  0
    0.2299    5.8764    2.7154 C   0  0  0  0  0  0  0  0  0  0  0  0
    0.7542    4.6007    1.6216 Cl  0  0  0  0  0  0  0  0  0  0  0  0
    2.8342    6.8288    2.9720 Cl  0  0  0  0  0  0  0  0  0  0  0  0
   -3.0396    5.8058    1.5167 C   0  0  0  0  0  0  0  0  0  0  0  0
   -2.6989    7.1437    0.5617 S   0  0  0  0  0  0  0  0  0  0  0  0
   -1.6550    3.2321    3.8214 C   0  0  0  0  0  0  0  0  0  0  0  0
   -1.9712    1.8736    3.8445 C   0  0  0  0  0  0  0  0  0  0  0  0
   -3.3023    1.6103    2.8425 S   0  0  0  0  0  0  0  0  0  0  0  0
   -1.0725    0.8273    4.3644 C   0  0  0  0  0  0  0  0  0  0  0  0
    0.3456    1.1247    5.2356 S   0  0  0  0  0  0  0  0  0  0  0  0
    1.0654   -0.3990    5.0803 C   0  0  0  0  0  0  0  0  0  0  0  0
    0.1792   -1.1646    4.3232 C   0  0  0  0  0  0  0  0  0  0  0  0
   -0.9662   -0.4929    3.9414 C   0  0  0  0  0  0  0  0  0  0  0  0
   -1.8737   -1.4575    2.9074 S   0  0  0  0  0  0  0  0  0  0  0  0
   -0.8130   -2.7870    2.9782 C   0  0  0  0  0  0  0  0  0  0  0  0
   -0.9705   -4.0548    2.2372 C   0  0  0  0  0  0  0  0  0  0  0  0
   -0.0847   -4.9425    2.3384 O   0  0  0  0  0  0  0  0  0  0  0  0
   -2.1768   -4.3310    1.3840 C   0  0  0  0  0  0  0  0  0  0  0  0
   -3.2039   -5.1502    2.1550 C   0  0  0  0  0  0  0  0  0  0  0  0
    0.2674   -2.4653    3.8118 C   0  0  0  0  0  0  0  0  0  0  0  0
    1.2599   -3.3370    4.1158 F   0  0  0  0  0  0  0  0  0  0  0  0
    2.4852   -0.6474    5.3663 C   0  0  0  0  0  0  0  0  0  0  0  0
    3.3796   -1.3103    4.5252 C   0  0  0  0  0  0  0  0  0  0  0  0
    4.7230   -1.1353    4.8996 C   0  0  0  0  0  0  0  0  0  0  0  0
    5.8578   -1.6437    4.2271 C   0  0  0  0  0  0  0  0  0  0  0  0
    5.7409   -2.4675    3.0039 C   0  0  0  0  0  0  0  0  0  0  0  0
    4.9754   -1.9790    1.5841 S   0  0  0  0  0  0  0  0  0  0  0  0
    5.2350   -3.4047    0.7331 C   0  0  0  0  0  0  0  0  0  0  0  0
    4.7817   -3.6542   -0.6736 C   0  0  0  0  0  0  0  0  0  0  0  0
    5.9347   -3.4790   -1.6560 C   0  0  0  0  0  0  0  0  0  0  0  0
    5.9539   -4.2800    1.5436 C   0  0  0  0  0  0  0  0  0  0  0  0
    6.4894   -5.8664    1.0096 Cl  0  0  0  0  0  0  0  0  0  0  0  0
    6.2310   -3.7603    2.8185 C   0  0  0  0  0  0  0  0  0  0  0  0
    7.0614   -4.6807    4.0666 Cl  0  0  0  0  0  0  0  0  0  0  0  0
    7.1148   -1.2839    4.7496 C   0  0  0  0  0  0  0  0  0  0  0  0
    7.2605   -0.4703    5.8800 C   0  0  0  0  0  0  0  0  0  0  0  0
    6.1273    0.0275    6.5525 C   0  0  0  0  0  0  0  0  0  0  0  0
    6.2379    0.9524    7.6934 C   0  0  0  0  0  0  0  0  0  0  0  0
    5.7829    2.5703    7.6598 S   0  0  0  0  0  0  0  0  0  0  0  0
    6.2106    2.9122    9.2506 C   0  0  0  0  0  0  0  0  0  0  0  0
    6.1442    4.2728    9.8722 C   0  0  0  0  0  0  0  0  0  0  0  0
    7.4433    5.0346    9.6292 C   0  0  0  0  0  0  0  0  0  0  0  0
    6.7356    1.7573    9.8273 C   0  0  0  0  0  0  0  0  0  0  0  0
    6.7437    0.6564    8.9550 C   0  0  0  0  0  0  0  0  0  0  0  0
    7.3230   -0.9393    9.4152 Cl  0  0  0  0  0  0  0  0  0  0  0  0
    7.3350    1.6845   11.4782 Cl  0  0  0  0  0  0  0  0  0  0  0  0
    4.8728   -0.3274    6.0313 C   0  0  0  0  0  0  0  0  0  0  0  0
    3.3566    0.1676    6.5589 S   0  0  0  0  0  0  0  0  0  0  0  0
    8.6012   -0.1832    6.1875 C   0  0  0  0  0  0  0  0  0  0  0  0
    9.5040   -0.7652    5.3031 C   0  0  0  0  0  0  0  0  0  0  0  0
    8.6444   -1.6193    4.1331 S   0  0  0  0  0  0  0  0  0  0  0  0
   -2.0184  -11.8623    3.4042 H   0  0  0  0  0  0  0  0  0  0  0  0
    0.0082  -10.2360    3.3532 H   0  0  0  0  0  0  0  0  0  0  0  0
    4.5432   -7.6683    5.3263 H   0  0  0  0  0  0  0  0  0  0  0  0
    2.9286   -7.5251    6.0967 H   0  0  0  0  0  0  0  0  0  0  0  0
    4.1863   -5.3336    4.3175 H   0  0  0  0  0  0  0  0  0  0  0  0
    2.6723   -5.2175    5.2979 H   0  0  0  0  0  0  0  0  0  0  0  0
    4.2714   -5.3700    6.1184 H   0  0  0  0  0  0  0  0  0  0  0  0
   -5.0803  -10.4251   -5.0362 H   0  0  0  0  0  0  0  0  0  0  0  0
   -6.6772   -9.9880   -4.3475 H   0  0  0  0  0  0  0  0  0  0  0  0
   -4.5969   -7.9854   -5.4630 H   0  0  0  0  0  0  0  0  0  0  0  0
   -6.2350   -7.5656   -4.8107 H   0  0  0  0  0  0  0  0  0  0  0  0
   -6.0818   -8.5572   -6.3136 H   0  0  0  0  0  0  0  0  0  0  0  0
   -2.1378   -6.8740   -2.5380 H   0  0  0  0  0  0  0  0  0  0  0  0
    1.5849   -3.7712   -2.1495 H   0  0  0  0  0  0  0  0  0  0  0  0
    6.5446   -0.2508   -2.7072 H   0  0  0  0  0  0  0  0  0  0  0  0
    6.0533    0.5382   -1.1699 H   0  0  0  0  0  0  0  0  0  0  0  0
    5.0726    2.4572   -2.4933 H   0  0  0  0  0  0  0  0  0  0  0  0
    6.8334    2.2275   -2.8095 H   0  0  0  0  0  0  0  0  0  0  0  0
    5.6252    1.6586   -4.0203 H   0  0  0  0  0  0  0  0  0  0  0  0
   -4.4568   -4.3401   -9.7136 H   0  0  0  0  0  0  0  0  0  0  0  0
   -5.9669   -4.1174   -8.7748 H   0  0  0  0  0  0  0  0  0  0  0  0
   -5.9815   -1.6761   -9.3272 H   0  0  0  0  0  0  0  0  0  0  0  0
   -4.4256   -1.8646  -10.2333 H   0  0  0  0  0  0  0  0  0  0  0  0
   -5.9214   -2.6863  -10.8240 H   0  0  0  0  0  0  0  0  0  0  0  0
   -1.8969   -0.0083   -7.0388 H   0  0  0  0  0  0  0  0  0  0  0  0
    0.9424    3.6459   -5.6440 H   0  0  0  0  0  0  0  0  0  0  0  0
    4.4443    7.9871   -4.0052 H   0  0  0  0  0  0  0  0  0  0  0  0
    5.0205    6.7175   -2.8745 H   0  0  0  0  0  0  0  0  0  0  0  0
    3.7931    7.8054   -0.9905 H   0  0  0  0  0  0  0  0  0  0  0  0
    3.1319    9.0537   -2.1266 H   0  0  0  0  0  0  0  0  0  0  0  0
    4.9044    8.9772   -1.7926 H   0  0  0  0  0  0  0  0  0  0  0  0
   -9.2412    3.4704   -6.0960 H   0  0  0  0  0  0  0  0  0  0  0  0
   -9.1165    5.2223   -5.7299 H   0  0  0  0  0  0  0  0  0  0  0  0
   -8.3020    3.8966   -8.4042 H   0  0  0  0  0  0  0  0  0  0  0  0
   -8.3267    5.6744   -8.0434 H   0  0  0  0  0  0  0  0  0  0  0  0
   -9.8680    4.7374   -8.0839 H   0  0  0  0  0  0  0  0  0  0  0  0
   -5.0118    6.0796   -3.1656 H   0  0  0  0  0  0  0  0  0  0  0  0
   -4.9958    5.0044   -1.0789 H   0  0  0  0  0  0  0  0  0  0  0  0
   -5.7815   -0.5349   -2.1591 H   0  0  0  0  0  0  0  0  0  0  0  0
   -7.4892   -0.0026   -2.2707 H   0  0  0  0  0  0  0  0  0  0  0  0
   -6.2312   -1.5458    0.0897 H   0  0  0  0  0  0  0  0  0  0  0  0
   -7.9586   -1.0066   -0.0165 H   0  0  0  0  0  0  0  0  0  0  0  0
   -7.3184   -2.2280   -1.1812 H   0  0  0  0  0  0  0  0  0  0  0  0
    2.1124    8.7219    5.0504 H   0  0  0  0  0  0  0  0  0  0  0  0
    0.4924    9.2294    5.6325 H   0  0  0  0  0  0  0  0  0  0  0  0
    1.6808    9.9065    2.8602 H   0  0  0  0  0  0  0  0  0  0  0  0
    1.5709   11.0210    4.2776 H   0  0  0  0  0  0  0  0  0  0  0  0
    0.0634   10.4288    3.4856 H   0  0  0  0  0  0  0  0  0  0  0  0
   -0.7934    3.6454    4.3282 H   0  0  0  0  0  0  0  0  0  0  0  0
   -2.6419   -3.3887    1.0291 H   0  0  0  0  0  0  0  0  0  0  0  0
   -1.8642   -4.9005    0.4834 H   0  0  0  0  0  0  0  0  0  0  0  0
   -4.0893   -5.3360    1.5107 H   0  0  0  0  0  0  0  0  0  0  0  0
   -3.5350   -4.5984    3.0626 H   0  0  0  0  0  0  0  0  0  0  0  0
   -2.7722   -6.1286    2.4536 H   0  0  0  0  0  0  0  0  0  0  0  0
    3.0736   -1.8240    3.6282 H   0  0  0  0  0  0  0  0  0  0  0  0
    4.3739   -4.6850   -0.7576 H   0  0  0  0  0  0  0  0  0  0  0  0
    3.9677   -2.9455   -0.9327 H   0  0  0  0  0  0  0  0  0  0  0  0
    6.3752   -2.4645   -1.5564 H   0  0  0  0  0  0  0  0  0  0  0  0
    5.5617   -3.6083   -2.6932 H   0  0  0  0  0  0  0  0  0  0  0  0
    6.7245   -4.2356   -1.4657 H   0  0  0  0  0  0  0  0  0  0  0  0
    5.2990    4.8414    9.4290 H   0  0  0  0  0  0  0  0  0  0  0  0
    5.9597    4.1881   10.9650 H   0  0  0  0  0  0  0  0  0  0  0  0
    7.6167    5.1608    8.5384 H   0  0  0  0  0  0  0  0  0  0  0  0
    8.2995    4.4825   10.0733 H   0  0  0  0  0  0  0  0  0  0  0  0
    7.3825    6.0375   10.0988 H   0  0  0  0  0  0  0  0  0  0  0  0
    8.9120    0.4422    7.0133 H   0  0  0  0  0  0  0  0  0  0  0  0
   10.5810   -0.6657    5.3533 H   0  0  0  0  0  0  0  0  0  0  0  0
  1  2  2  0
  2  3  1  0
  3  4  2  0
  4  5  1  0
  5  6  1  0
  6  7  1  0
  7  8  1  0
  8  9  1  0
  7 10  2  0
 10 11  1  0
 10 12  1  0
 12 13  1  0
  4 14  1  0
 14 15  2  0
 15 16  1  0
 16 17  1  0
 17 18  1  0
 18 19  1  0
 19 20  1  0
 20 21  1  0
 19 22  2  0
 22 23  1  0
 23 24  1  0
 22 25  1  0
 16 26  2  0
 26 27  1  0
 15 28  1  0
 28 29  2  0
 29 30  1  0
 29 31  1  0
 31 32  2  0
 32 33  1  0
 33 34  2  0
 34 35  1  0
 35 36  1  0
 36 37  1  0
 37 38  1  0
 38 39  1  0
 37 40  2  0
 40 41  1  0
 40 42  1  0
 42 43  1  0
 34 44  1  0
 44 45  2  0
 45 46  1  0
 46 47  1  0
 47 48  1  0
 48 49  1  0
 49 50  1  0
 50 51  1  0
 49 52  2  0
 52 53  1  0
 53 54  1  0
 52 55  1  0
 46 56  2  0
 56 57  1  0
 45 58  1  0
 58 59  2  0
 59 60  1  0
 59 61  1  0
 61 62  2  0
 62 63  1  0
 63 64  2  0
 64 65  1  0
 65 66  1  0
 66 67  1  0
 67 68  1  0
 68 69  1  0
 67 70  2  0
 70 71  1  0
 70 72  1  0
 72 73  1  0
 64 74  1  0
 74 75  2  0
 75 76  1  0
 76 77  1  0
 77 78  1  0
 78 79  1  0
 79 80  1  0
 80 81  1  0
 79 82  2  0
 82 83  1  0
 83 84  1  0
 82 85  1  0
 76 86  2  0
 86 87  1  0
 75 88  1  0
 88 89  2  0
 89 90  1  0
 89 91  1  0
 91 92  2  0
 92 93  1  0
 93 94  2  0
 94 95  1  0
 95 96  1  0
 96 97  1  0
 97 98  1  0
 98 99  1  0
 97100  2  0
100101  1  0
100102  1  0
102103  1  0
 94104  1  0
104105  2  0
105106  1  0
106107  1  0
107108  1  0
108109  1  0
109110  1  0
110111  1  0
109112  2  0
112113  1  0
113114  1  0
112115  1  0
106116  2  0
116117  1  0
105118  1  0
118119  2  0
119120  1  0
119121  1  0
121122  1  0
122123  1  0
123124  2  0
124125  1  0
125126  1  0
126127  1  0
127128  1  0
128129  2  0
128130  1  0
130131  1  0
127132  2  0
132133  1  0
123134  1  0
134135  2  0
135136  1  0
136137  2  0
137138  1  0
138139  1  0
139140  1  0
140141  1  0
141142  1  0
140143  2  0
143144  1  0
143145  1  0
145146  1  0
137147  1  0
147148  2  0
148149  1  0
149150  1  0
150151  1  0
151152  1  0
152153  1  0
153154  1  0
152155  2  0
155156  1  0
156157  1  0
155158  1  0
149159  2  0
159160  1  0
148161  1  0
161162  2  0
162163  1  0
 27  1  1  0
 57 31  1  0
 87 61  1  0
117 91  1  0
125121  2  0
160134  1  0
 26  3  1  0
 56 33  1  0
 86 63  1  0
116 93  1  0
132124  1  0
159136  1  0
 12  5  2  0
 30 14  1  0
 42 35  2  0
 60 44  1  0
 72 65  2  0
 90 74  1  0
102 95  2  0
120104  1  0
145138  2  0
163147  1  0
 23 17  2  0
 53 47  2  0
 83 77  2  0
113107  2  0
156150  2  0
  1164  1  0
  2165  1  0
  8166  1  0
  8167  1  0
  9168  1  0
  9169  1  0
  9170  1  0
 20171  1  0
 20172  1  0
 21173  1  0
 21174  1  0
 21175  1  0
 28176  1  0
 32177  1  0
 38178  1  0
 38179  1  0
 39180  1  0
 39181  1  0
 39182  1  0
 50183  1  0
 50184  1  0
 51185  1  0
 51186  1  0
 51187  1  0
 58188  1  0
 62189  1  0
 68190  1  0
 68191  1  0
 69192  1  0
 69193  1  0
 69194  1  0
 80195  1  0
 80196  1  0
 81197  1  0
 81198  1  0
 81199  1  0
 88200  1  0
 92201  1  0
 98202  1  0
 98203  1  0
 99204  1  0
 99205  1  0
 99206  1  0
110207  1  0
110208  1  0
111209  1  0
111210  1  0
111211  1  0
118212  1  0
130213  1  0
130214  1  0
131215  1  0
131216  1  0
131217  1  0
135218  1  0
141219  1  0
141220  1  0
142221  1  0
142222  1  0
142223  1  0
153224  1  0
153225  1  0
154226  1  0
154227  1  0
154228  1  0
161229  1  0
162230  1  0
M  END

