
     RDKit          3D

206229  0  0  0  0  0  0  0  0999 V2000
    5.4532  -10.2009    3.7220 C   0  0  0  0  0  0  0  0  0  0  0  0
    3.9469   -9.9073    4.4382 S   0  0  0  0  0  0  0  0  0  0  0  0
    3.2129   -9.0938    3.1517 C   0  0  0  0  0  0  0  0  0  0  0  0
    4.1751   -9.0228    2.1527 C   0  0  0  0  0  0  0  0  0  0  0  0
    5.3722   -9.6262    2.4717 C   0  0  0  0  0  0  0  0  0  0  0  0
    6.4793   -9.4349    1.2279 S   0  0  0  0  0  0  0  0  0  0  0  0
    5.4154   -8.5471    0.2355 C   0  0  0  0  0  0  0  0  0  0  0  0
    5.7522   -7.9713   -1.0820 C   0  0  0  0  0  0  0  0  0  0  0  0
    4.8670   -7.3524   -1.7374 O   0  0  0  0  0  0  0  0  0  0  0  0
    7.1482   -8.0678   -1.6195 C   0  0  0  0  0  0  0  0  0  0  0  0
    7.2282   -7.7843   -3.1149 C   0  0  0  0  0  0  0  0  0  0  0  0
    4.1781   -8.4024    0.8969 C   0  0  0  0  0  0  0  0  0  0  0  0
    3.1674   -7.6499    0.4256 F   0  0  0  0  0  0  0  0  0  0  0  0
    1.8156   -8.6273    3.1234 C   0  0  0  0  0  0  0  0  0  0  0  0
    1.0104   -7.7782    4.3453 S   0  0  0  0  0  0  0  0  0  0  0  0
   -0.5175   -7.6778    3.5897 C   0  0  0  0  0  0  0  0  0  0  0  0
   -0.3930   -8.3464    2.3681 C   0  0  0  0  0  0  0  0  0  0  0  0
    0.8731   -8.8495    2.1307 C   0  0  0  0  0  0  0  0  0  0  0  0
    0.8953   -9.7029    0.6871 S   0  0  0  0  0  0  0  0  0  0  0  0
   -0.7460   -9.4139    0.3242 C   0  0  0  0  0  0  0  0  0  0  0  0
   -1.4560   -9.8975   -0.8715 C   0  0  0  0  0  0  0  0  0  0  0  0
   -2.6454   -9.5226   -1.0928 O   0  0  0  0  0  0  0  0  0  0  0  0
   -0.8147  -10.8629   -1.8203 C   0  0  0  0  0  0  0  0  0  0  0  0
   -1.3307  -12.2839   -1.5698 C   0  0  0  0  0  0  0  0  0  0  0  0
   -1.3165   -8.6595    1.3623 C   0  0  0  0  0  0  0  0  0  0  0  0
   -2.6398   -8.3775    1.4325 F   0  0  0  0  0  0  0  0  0  0  0  0
   -1.6274   -6.8419    4.0776 C   0  0  0  0  0  0  0  0  0  0  0  0
   -2.4899   -6.0944    3.2740 C   0  0  0  0  0  0  0  0  0  0  0  0
   -3.2358   -5.1429    3.9893 C   0  0  0  0  0  0  0  0  0  0  0  0
   -4.1180   -4.1965    3.4441 C   0  0  0  0  0  0  0  0  0  0  0  0
   -4.5064   -4.2019    2.0351 C   0  0  0  0  0  0  0  0  0  0  0  0
   -6.0795   -4.5011    1.5143 S   0  0  0  0  0  0  0  0  0  0  0  0
   -5.8684   -3.9298   -0.0521 C   0  0  0  0  0  0  0  0  0  0  0  0
   -6.9375   -3.9193   -1.0900 C   0  0  0  0  0  0  0  0  0  0  0  0
   -6.8413   -5.1384   -1.9811 C   0  0  0  0  0  0  0  0  0  0  0  0
   -4.5603   -3.4562   -0.1749 C   0  0  0  0  0  0  0  0  0  0  0  0
   -3.9642   -2.6647   -1.6192 Cl  0  0  0  0  0  0  0  0  0  0  0  0
   -3.8009   -3.6017    1.0003 C   0  0  0  0  0  0  0  0  0  0  0  0
   -2.1449   -3.0220    1.1552 Cl  0  0  0  0  0  0  0  0  0  0  0  0
   -4.5478   -3.1610    4.2809 C   0  0  0  0  0  0  0  0  0  0  0  0
   -4.1559   -3.0567    5.6170 C   0  0  0  0  0  0  0  0  0  0  0  0
   -3.3826   -4.0876    6.1992 C   0  0  0  0  0  0  0  0  0  0  0  0
   -3.0210   -4.0903    7.6203 C   0  0  0  0  0  0  0  0  0  0  0  0
   -1.9541   -3.0214    8.3576 S   0  0  0  0  0  0  0  0  0  0  0  0
   -1.8541   -3.8477    9.8244 C   0  0  0  0  0  0  0  0  0  0  0  0
   -1.0019   -3.4351   10.9850 C   0  0  0  0  0  0  0  0  0  0  0  0
   -1.7950   -2.6000   11.9725 C   0  0  0  0  0  0  0  0  0  0  0  0
   -2.6548   -4.9798    9.7575 C   0  0  0  0  0  0  0  0  0  0  0  0
   -3.2896   -5.1304    8.5093 C   0  0  0  0  0  0  0  0  0  0  0  0
   -4.3409   -6.4761    8.1113 Cl  0  0  0  0  0  0  0  0  0  0  0  0
   -2.8112   -6.1529   11.0553 Cl  0  0  0  0  0  0  0  0  0  0  0  0
   -2.9310   -5.1131    5.3476 C   0  0  0  0  0  0  0  0  0  0  0  0
   -1.7777   -6.2912    5.6644 S   0  0  0  0  0  0  0  0  0  0  0  0
   -4.4683   -1.8063    6.1958 C   0  0  0  0  0  0  0  0  0  0  0  0
   -5.0896   -0.9183    5.2867 C   0  0  0  0  0  0  0  0  0  0  0  0
   -5.2739   -1.7245    3.8183 S   0  0  0  0  0  0  0  0  0  0  0  0
   -4.9376    0.5469    5.3373 C   0  0  0  0  0  0  0  0  0  0  0  0
   -5.2668    1.4113    4.2788 C   0  0  0  0  0  0  0  0  0  0  0  0
   -4.4642    2.5716    4.2130 C   0  0  0  0  0  0  0  0  0  0  0  0
   -4.4057    3.5151    3.1599 C   0  0  0  0  0  0  0  0  0  0  0  0
   -5.3720    3.5304    2.0502 C   0  0  0  0  0  0  0  0  0  0  0  0
   -5.4909    2.3846    0.8198 S   0  0  0  0  0  0  0  0  0  0  0  0
   -6.6569    3.2088   -0.0788 C   0  0  0  0  0  0  0  0  0  0  0  0
   -7.2341    2.7257   -1.3825 C   0  0  0  0  0  0  0  0  0  0  0  0
   -6.7589    3.5961   -2.5477 C   0  0  0  0  0  0  0  0  0  0  0  0
   -6.9762    4.3947    0.5837 C   0  0  0  0  0  0  0  0  0  0  0  0
   -8.1789    5.5482    0.0149 Cl  0  0  0  0  0  0  0  0  0  0  0  0
   -6.2693    4.5613    1.7897 C   0  0  0  0  0  0  0  0  0  0  0  0
   -6.4365    5.9872    2.8121 Cl  0  0  0  0  0  0  0  0  0  0  0  0
   -3.2975    4.3881    3.1498 C   0  0  0  0  0  0  0  0  0  0  0  0
   -2.3182    4.3646    4.1411 C   0  0  0  0  0  0  0  0  0  0  0  0
   -2.4627    3.5332    5.2531 C   0  0  0  0  0  0  0  0  0  0  0  0
   -1.4503    3.4532    6.3179 C   0  0  0  0  0  0  0  0  0  0  0  0
   -1.4710    4.3581    7.7306 S   0  0  0  0  0  0  0  0  0  0  0  0
   -0.2198    3.5282    8.4933 C   0  0  0  0  0  0  0  0  0  0  0  0
    0.2249    3.7763    9.9130 C   0  0  0  0  0  0  0  0  0  0  0  0
    0.4991    5.2590   10.1363 C   0  0  0  0  0  0  0  0  0  0  0  0
    0.2152    2.5045    7.6524 C   0  0  0  0  0  0  0  0  0  0  0  0
   -0.4591    2.4698    6.4159 C   0  0  0  0  0  0  0  0  0  0  0  0
   -0.1934    1.2449    5.1884 Cl  0  0  0  0  0  0  0  0  0  0  0  0
    1.4487    1.3322    8.0862 Cl  0  0  0  0  0  0  0  0  0  0  0  0
   -3.5464    2.6419    5.2591 C   0  0  0  0  0  0  0  0  0  0  0  0
   -3.7035    1.2746    6.2298 S   0  0  0  0  0  0  0  0  0  0  0  0
   -1.1553    5.0753    3.7963 C   0  0  0  0  0  0  0  0  0  0  0  0
   -1.2146    5.6602    2.5272 C   0  0  0  0  0  0  0  0  0  0  0  0
   -2.7251    5.3043    1.8545 S   0  0  0  0  0  0  0  0  0  0  0  0
   -0.0142    5.9604    1.7178 C   0  0  0  0  0  0  0  0  0  0  0  0
    1.1412    5.2139    1.7703 C   0  0  0  0  0  0  0  0  0  0  0  0
    1.9955    5.3946    0.6657 C   0  0  0  0  0  0  0  0  0  0  0  0
    3.0969    4.5750    0.3638 C   0  0  0  0  0  0  0  0  0  0  0  0
    3.2686    3.2949    1.0559 C   0  0  0  0  0  0  0  0  0  0  0  0
    4.1468    3.0393    2.4619 S   0  0  0  0  0  0  0  0  0  0  0  0
    3.6213    1.4494    2.6867 C   0  0  0  0  0  0  0  0  0  0  0  0
    4.0476    0.5666    3.8329 C   0  0  0  0  0  0  0  0  0  0  0  0
    4.7849   -0.6712    3.3432 C   0  0  0  0  0  0  0  0  0  0  0  0
    2.7192    1.1135    1.6704 C   0  0  0  0  0  0  0  0  0  0  0  0
    1.8285   -0.3996    1.5754 Cl  0  0  0  0  0  0  0  0  0  0  0  0
    2.5340    2.1526    0.7519 C   0  0  0  0  0  0  0  0  0  0  0  0
    1.4715    2.0511   -0.6582 Cl  0  0  0  0  0  0  0  0  0  0  0  0
    3.7253    4.7871   -0.8765 C   0  0  0  0  0  0  0  0  0  0  0  0
    3.2644    5.7234   -1.8002 C   0  0  0  0  0  0  0  0  0  0  0  0
    2.1952    6.5955   -1.4731 C   0  0  0  0  0  0  0  0  0  0  0  0
    1.7276    7.6440   -2.4160 C   0  0  0  0  0  0  0  0  0  0  0  0
    0.1237    8.1062   -2.6856 S   0  0  0  0  0  0  0  0  0  0  0  0
    0.4251    9.3812   -3.7249 C   0  0  0  0  0  0  0  0  0  0  0  0
   -0.5925   10.4248   -4.1303 C   0  0  0  0  0  0  0  0  0  0  0  0
   -0.6185   11.5493   -3.0924 C   0  0  0  0  0  0  0  0  0  0  0  0
    1.8113    9.5020   -3.8571 C   0  0  0  0  0  0  0  0  0  0  0  0
    2.5405    8.5590   -3.1117 C   0  0  0  0  0  0  0  0  0  0  0  0
    4.2863    8.6979   -2.8957 Cl  0  0  0  0  0  0  0  0  0  0  0  0
    2.5766   10.7949   -4.7667 Cl  0  0  0  0  0  0  0  0  0  0  0  0
    1.5600    6.3737   -0.2254 C   0  0  0  0  0  0  0  0  0  0  0  0
    0.0609    6.9267    0.3297 S   0  0  0  0  0  0  0  0  0  0  0  0
    3.8631    5.5531   -3.0677 C   0  0  0  0  0  0  0  0  0  0  0  0
    4.7603    4.4808   -3.1158 C   0  0  0  0  0  0  0  0  0  0  0  0
    4.8265    3.7602   -1.6043 S   0  0  0  0  0  0  0  0  0  0  0  0
    5.1393    3.7679   -4.3515 C   0  0  0  0  0  0  0  0  0  0  0  0
    4.8636    2.4222   -4.5352 C   0  0  0  0  0  0  0  0  0  0  0  0
    5.0750    1.9962   -5.8550 C   0  0  0  0  0  0  0  0  0  0  0  0
    4.6629    0.7653   -6.3666 C   0  0  0  0  0  0  0  0  0  0  0  0
    3.8306   -0.1266   -5.5621 C   0  0  0  0  0  0  0  0  0  0  0  0
    4.3291   -1.5429   -4.8251 S   0  0  0  0  0  0  0  0  0  0  0  0
    2.8808   -1.8490   -4.0200 C   0  0  0  0  0  0  0  0  0  0  0  0
    2.5847   -3.1333   -3.3087 C   0  0  0  0  0  0  0  0  0  0  0  0
    2.3430   -4.2597   -4.3168 C   0  0  0  0  0  0  0  0  0  0  0  0
    1.9798   -0.8412   -4.3408 C   0  0  0  0  0  0  0  0  0  0  0  0
    0.3326   -0.7754   -3.7339 Cl  0  0  0  0  0  0  0  0  0  0  0  0
    2.4966    0.1154   -5.2432 C   0  0  0  0  0  0  0  0  0  0  0  0
    1.5834    1.4762   -5.8943 Cl  0  0  0  0  0  0  0  0  0  0  0  0
    4.8479    0.5629   -7.7408 C   0  0  0  0  0  0  0  0  0  0  0  0
    5.4547    1.5119   -8.5656 C   0  0  0  0  0  0  0  0  0  0  0  0
    5.8317    2.7644   -8.0520 C   0  0  0  0  0  0  0  0  0  0  0  0
    6.3447    3.8461   -8.9116 C   0  0  0  0  0  0  0  0  0  0  0  0
    5.5514    5.2978   -9.2193 S   0  0  0  0  0  0  0  0  0  0  0  0
    6.7641    5.9604  -10.1874 C   0  0  0  0  0  0  0  0  0  0  0  0
    6.6978    7.2976  -10.8409 C   0  0  0  0  0  0  0  0  0  0  0  0
    7.3346    8.3647   -9.9598 C   0  0  0  0  0  0  0  0  0  0  0  0
    7.8299    5.0603  -10.2510 C   0  0  0  0  0  0  0  0  0  0  0  0
    7.5855    3.8554   -9.5560 C   0  0  0  0  0  0  0  0  0  0  0  0
    8.7455    2.5470   -9.4374 Cl  0  0  0  0  0  0  0  0  0  0  0  0
    9.3237    5.3731  -11.1241 Cl  0  0  0  0  0  0  0  0  0  0  0  0
    5.6008    2.9887   -6.6810 C   0  0  0  0  0  0  0  0  0  0  0  0
    5.7329    4.4207   -5.7993 S   0  0  0  0  0  0  0  0  0  0  0  0
    5.5093    1.1040   -9.9120 C   0  0  0  0  0  0  0  0  0  0  0  0
    4.9250   -0.1351  -10.1406 C   0  0  0  0  0  0  0  0  0  0  0  0
    4.3239   -0.7206   -8.6813 S   0  0  0  0  0  0  0  0  0  0  0  0
    6.3020  -10.7197    4.1482 H   0  0  0  0  0  0  0  0  0  0  0  0
    7.7915   -7.3378   -1.0772 H   0  0  0  0  0  0  0  0  0  0  0  0
    7.5596   -9.0824   -1.4352 H   0  0  0  0  0  0  0  0  0  0  0  0
    6.5762   -8.5000   -3.6701 H   0  0  0  0  0  0  0  0  0  0  0  0
    8.2654   -7.8910   -3.4646 H   0  0  0  0  0  0  0  0  0  0  0  0
    6.8918   -6.7410   -3.3233 H   0  0  0  0  0  0  0  0  0  0  0  0
    0.2874  -10.8760   -1.7001 H   0  0  0  0  0  0  0  0  0  0  0  0
   -1.0358  -10.5553   -2.8667 H   0  0  0  0  0  0  0  0  0  0  0  0
   -2.4142  -12.3485   -1.7993 H   0  0  0  0  0  0  0  0  0  0  0  0
   -1.1640  -12.5781   -0.5102 H   0  0  0  0  0  0  0  0  0  0  0  0
   -0.7885  -12.9901   -2.2439 H   0  0  0  0  0  0  0  0  0  0  0  0
   -2.5030   -6.1490    2.2010 H   0  0  0  0  0  0  0  0  0  0  0  0
   -7.9316   -3.8998   -0.5906 H   0  0  0  0  0  0  0  0  0  0  0  0
   -6.8599   -2.9958   -1.6983 H   0  0  0  0  0  0  0  0  0  0  0  0
   -6.9604   -6.0670   -1.3705 H   0  0  0  0  0  0  0  0  0  0  0  0
   -7.6841   -5.1299   -2.7183 H   0  0  0  0  0  0  0  0  0  0  0  0
   -5.8707   -5.1484   -2.5329 H   0  0  0  0  0  0  0  0  0  0  0  0
   -0.6122   -4.3332   11.5014 H   0  0  0  0  0  0  0  0  0  0  0  0
   -0.1263   -2.8466   10.6200 H   0  0  0  0  0  0  0  0  0  0  0  0
   -2.5955   -3.2149   12.4419 H   0  0  0  0  0  0  0  0  0  0  0  0
   -1.1204   -2.2218   12.7742 H   0  0  0  0  0  0  0  0  0  0  0  0
   -2.2742   -1.7361   11.4694 H   0  0  0  0  0  0  0  0  0  0  0  0
   -4.1417   -1.5169    7.1915 H   0  0  0  0  0  0  0  0  0  0  0  0
   -5.9701    1.1364    3.5132 H   0  0  0  0  0  0  0  0  0  0  0  0
   -6.8685    1.6944   -1.5566 H   0  0  0  0  0  0  0  0  0  0  0  0
   -8.3369    2.7058   -1.3401 H   0  0  0  0  0  0  0  0  0  0  0  0
   -5.6603    3.7276   -2.5011 H   0  0  0  0  0  0  0  0  0  0  0  0
   -7.2264    4.6007   -2.4988 H   0  0  0  0  0  0  0  0  0  0  0  0
   -7.0193    3.1249   -3.5231 H   0  0  0  0  0  0  0  0  0  0  0  0
    1.1451    3.1988   10.1362 H   0  0  0  0  0  0  0  0  0  0  0  0
   -0.5768    3.4376   10.6109 H   0  0  0  0  0  0  0  0  0  0  0  0
    1.2042    5.6355    9.3728 H   0  0  0  0  0  0  0  0  0  0  0  0
   -0.4466    5.8282   10.0911 H   0  0  0  0  0  0  0  0  0  0  0  0
    0.9273    5.4056   11.1463 H   0  0  0  0  0  0  0  0  0  0  0  0
   -0.2506    5.0108    4.3628 H   0  0  0  0  0  0  0  0  0  0  0  0
    1.3056    4.4523    2.5256 H   0  0  0  0  0  0  0  0  0  0  0  0
    4.7430    1.1427    4.4739 H   0  0  0  0  0  0  0  0  0  0  0  0
    3.1685    0.2746    4.4419 H   0  0  0  0  0  0  0  0  0  0  0  0
    4.1033   -1.3532    2.7931 H   0  0  0  0  0  0  0  0  0  0  0  0
    5.2004   -1.2251    4.2195 H   0  0  0  0  0  0  0  0  0  0  0  0
    5.6359   -0.3637    2.6910 H   0  0  0  0  0  0  0  0  0  0  0  0
   -1.6013    9.9533   -4.1921 H   0  0  0  0  0  0  0  0  0  0  0  0
   -0.3302   10.8440   -5.1334 H   0  0  0  0  0  0  0  0  0  0  0  0
   -1.3772   12.3115   -3.3878 H   0  0  0  0  0  0  0  0  0  0  0  0
   -0.8903   11.1509   -2.0974 H   0  0  0  0  0  0  0  0  0  0  0  0
    0.3767   12.0388   -3.0381 H   0  0  0  0  0  0  0  0  0  0  0  0
    3.5115    6.0389   -3.9636 H   0  0  0  0  0  0  0  0  0  0  0  0
    4.4252    1.7915   -3.7724 H   0  0  0  0  0  0  0  0  0  0  0  0
    3.4542   -3.4074   -2.6706 H   0  0  0  0  0  0  0  0  0  0  0  0
    1.6860   -3.0154   -2.6621 H   0  0  0  0  0  0  0  0  0  0  0  0
    1.9563   -5.1610   -3.7948 H   0  0  0  0  0  0  0  0  0  0  0  0
    3.3083   -4.5030   -4.8265 H   0  0  0  0  0  0  0  0  0  0  0  0
    1.5943   -3.9559   -5.0781 H   0  0  0  0  0  0  0  0  0  0  0  0
    7.2064    7.2705  -11.8327 H   0  0  0  0  0  0  0  0  0  0  0  0
    5.6290    7.5846  -11.0145 H   0  0  0  0  0  0  0  0  0  0  0  0
    6.8364    8.3806   -8.9626 H   0  0  0  0  0  0  0  0  0  0  0  0
    8.4090    8.1466   -9.8182 H   0  0  0  0  0  0  0  0  0  0  0  0
    7.2412    9.3720  -10.4185 H   0  0  0  0  0  0  0  0  0  0  0  0
    5.9316    1.6904  -10.7168 H   0  0  0  0  0  0  0  0  0  0  0  0
    4.8596   -0.6459  -11.1002 H   0  0  0  0  0  0  0  0  0  0  0  0
  1  2  1  0
  2  3  1  0
  3  4  2  0
  4  5  1  0
  5  6  1  0
  6  7  1  0
  7  8  1  0
  8  9  2  0
  8 10  1  0
 10 11  1  0
  7 12  2  0
 12 13  1  0
  3 14  1  0
 14 15  1  0
 15 16  1  0
 16 17  2  0
 17 18  1  0
 18 19  1  0
 19 20  1  0
 20 21  1  0
 21 22  2  0
 21 23  1  0
 23 24  1  0
 20 25  2  0
 25 26  1  0
 16 27  1  0
 27 28  2  0
 28 29  1  0
 29 30  2  0
 30 31  1  0
 31 32  1  0
 32 33  1  0
 33 34  1  0
 34 35  1  0
 33 36  2  0
 36 37  1  0
 36 38  1  0
 38 39  1  0
 30 40  1  0
 40 41  2  0
 41 42  1  0
 42 43  1  0
 43 44  1  0
 44 45  1  0
 45 46  1  0
 46 47  1  0
 45 48  2  0
 48 49  1  0
 49 50  1  0
 48 51  1  0
 42 52  2  0
 52 53  1  0
 41 54  1  0
 54 55  2  0
 55 56  1  0
 55 57  1  0
 57 58  2  0
 58 59  1  0
 59 60  2  0
 60 61  1  0
 61 62  1  0
 62 63  1  0
 63 64  1  0
 64 65  1  0
 63 66  2  0
 66 67  1  0
 66 68  1  0
 68 69  1  0
 60 70  1  0
 70 71  2  0
 71 72  1  0
 72 73  1  0
 73 74  1  0
 74 75  1  0
 75 76  1  0
 76 77  1  0
 75 78  2  0
 78 79  1  0
 79 80  1  0
 78 81  1  0
 72 82  2  0
 82 83  1  0
 71 84  1  0
 84 85  2  0
 85 86  1  0
 85 87  1  0
 87 88  2  0
 88 89  1  0
 89 90  2  0
 90 91  1  0
 91 92  1  0
 92 93  1  0
 93 94  1  0
 94 95  1  0
 93 96  2  0
 96 97  1  0
 96 98  1  0
 98 99  1  0
 90100  1  0
100101  2  0
101102  1  0
102103  1  0
103104  1  0
104105  1  0
105106  1  0
106107  1  0
105108  2  0
108109  1  0
109110  1  0
108111  1  0
102112  2  0
112113  1  0
101114  1  0
114115  2  0
115116  1  0
115117  1  0
117118  2  0
118119  1  0
119120  2  0
120121  1  0
121122  1  0
122123  1  0
123124  1  0
124125  1  0
123126  2  0
126127  1  0
126128  1  0
128129  1  0
120130  1  0
130131  2  0
131132  1  0
132133  1  0
133134  1  0
134135  1  0
135136  1  0
136137  1  0
135138  2  0
138139  1  0
139140  1  0
138141  1  0
132142  2  0
142143  1  0
131144  1  0
144145  2  0
145146  1  0
  5  1  2  0
 18 14  2  0
 53 27  1  0
 83 57  1  0
113 87  1  0
143117  1  0
 12  4  1  0
 25 17  1  0
 52 29  1  0
 82 59  1  0
112 89  1  0
142119  1  0
 38 31  2  0
 56 40  1  0
 68 61  2  0
 86 70  1  0
 98 91  2  0
116100  1  0
128121  2  0
146130  1  0
 49 43  2  0
 79 73  2  0
109103  2  0
139133  2  0
  1147  1  0
 10148  1  0
 10149  1  0
 11150  1  0
 11151  1  0
 11152  1  0
 23153  1  0
 23154  1  0
 24155  1  0
 24156  1  0
 24157  1  0
 28158  1  0
 34159  1  0
 34160  1  0
 35161  1  0
 35162  1  0
 35163  1  0
 46164  1  0
 46165  1  0
 47166  1  0
 47167  1  0
 47168  1  0
 54169  1  0
 58170  1  0
 64171  1  0
 64172  1  0
 65173  1  0
 65174  1  0
 65175  1  0
 76176  1  0
 76177  1  0
 77178  1  0
 77179  1  0
 77180  1  0
 84181  1  0
 88182  1  0
 94183  1  0
 94184  1  0
 95185  1  0
 95186  1  0
 95187  1  0
106188  1  0
106189  1  0
107190  1  0
107191  1  0
107192  1  0
114193  1  0
118194  1  0
124195  1  0
124196  1  0
125197  1  0
125198  1  0
125199  1  0
136200  1  0
136201  1  0
137202  1  0
137203  1  0
137204  1  0
144205  1  0
145206  1  0
M  END

