
     RDKit          3D

160176  0  0  0  0  0  0  0  0999 V2000
    0.8511   13.0128    4.9990 C   0  0  0  0  0  0  0  0  0  0  0  0
    1.2468   12.2381    6.0857 C   0  0  0  0  0  0  0  0  0  0  0  0
    0.6786   10.9511    6.0876 C   0  0  0  0  0  0  0  0  0  0  0  0
    0.9069    9.9329    7.0403 C   0  0  0  0  0  0  0  0  0  0  0  0
    1.7850   10.1476    8.2530 C   0  0  0  0  0  0  0  0  0  0  0  0
    0.9982   10.8182    9.3761 C   0  0  0  0  0  0  0  0  0  0  0  0
    0.2258    8.7171    6.8372 C   0  0  0  0  0  0  0  0  0  0  0  0
   -0.6378    8.5005    5.7545 C   0  0  0  0  0  0  0  0  0  0  0  0
   -0.8637    9.5194    4.8015 C   0  0  0  0  0  0  0  0  0  0  0  0
   -1.7351    9.3074    3.5841 C   0  0  0  0  0  0  0  0  0  0  0  0
   -0.9284    8.6886    2.4460 C   0  0  0  0  0  0  0  0  0  0  0  0
   -0.1726   10.7295    4.9988 C   0  0  0  0  0  0  0  0  0  0  0  0
   -0.2041   12.1127    4.0432 S   0  0  0  0  0  0  0  0  0  0  0  0
   -1.1844    7.2045    5.7384 C   0  0  0  0  0  0  0  0  0  0  0  0
   -0.7352    6.4114    6.7934 C   0  0  0  0  0  0  0  0  0  0  0  0
    0.3241    7.3066    7.7521 S   0  0  0  0  0  0  0  0  0  0  0  0
   -1.0451    4.9868    6.9797 C   0  0  0  0  0  0  0  0  0  0  0  0
   -0.2272    4.0626    7.6249 C   0  0  0  0  0  0  0  0  0  0  0  0
   -0.7040    2.7430    7.5271 C   0  0  0  0  0  0  0  0  0  0  0  0
   -0.0482    1.5800    7.9891 C   0  0  0  0  0  0  0  0  0  0  0  0
    1.2832    1.6438    8.7054 C   0  0  0  0  0  0  0  0  0  0  0  0
    1.0955    2.0037   10.1765 C   0  0  0  0  0  0  0  0  0  0  0  0
   -0.6869    0.3512    7.7315 C   0  0  0  0  0  0  0  0  0  0  0  0
   -1.9047    0.2573    7.0468 C   0  0  0  0  0  0  0  0  0  0  0  0
   -2.5568    1.4194    6.5760 C   0  0  0  0  0  0  0  0  0  0  0  0
   -3.8775    1.3574    5.8403 C   0  0  0  0  0  0  0  0  0  0  0  0
   -5.0340    1.1811    6.8191 C   0  0  0  0  0  0  0  0  0  0  0  0
   -1.9182    2.6482    6.8345 C   0  0  0  0  0  0  0  0  0  0  0  0
   -2.3714    4.1839    6.3152 S   0  0  0  0  0  0  0  0  0  0  0  0
   -2.3018   -1.0706    6.8097 C   0  0  0  0  0  0  0  0  0  0  0  0
   -1.3841   -2.0152    7.2742 C   0  0  0  0  0  0  0  0  0  0  0  0
   -0.1011   -1.2029    8.0098 S   0  0  0  0  0  0  0  0  0  0  0  0
   -1.3382   -3.4237    6.8448 C   0  0  0  0  0  0  0  0  0  0  0  0
   -2.3364   -4.0736    6.1165 C   0  0  0  0  0  0  0  0  0  0  0  0
   -1.8740   -5.2130    5.4307 C   0  0  0  0  0  0  0  0  0  0  0  0
   -2.5988   -5.9492    4.4662 C   0  0  0  0  0  0  0  0  0  0  0  0
   -4.0808   -5.7310    4.2400 C   0  0  0  0  0  0  0  0  0  0  0  0
   -4.8968   -6.3793    5.3544 C   0  0  0  0  0  0  0  0  0  0  0  0
   -1.8582   -6.8544    3.6826 C   0  0  0  0  0  0  0  0  0  0  0  0
   -0.4880   -7.0745    3.8680 C   0  0  0  0  0  0  0  0  0  0  0  0
    0.2076   -6.4291    4.9146 C   0  0  0  0  0  0  0  0  0  0  0  0
    1.6738   -6.6923    5.1829 C   0  0  0  0  0  0  0  0  0  0  0  0
    1.8596   -8.0369    5.8805 C   0  0  0  0  0  0  0  0  0  0  0  0
   -0.5182   -5.4790    5.6593 C   0  0  0  0  0  0  0  0  0  0  0  0
    0.0919   -4.3036    6.6974 S   0  0  0  0  0  0  0  0  0  0  0  0
    0.0973   -7.8191    2.8267 C   0  0  0  0  0  0  0  0  0  0  0  0
   -0.7939   -8.1339    1.7988 C   0  0  0  0  0  0  0  0  0  0  0  0
   -2.3225   -7.5631    2.2328 S   0  0  0  0  0  0  0  0  0  0  0  0
   -0.4022   -8.3702    0.3944 C   0  0  0  0  0  0  0  0  0  0  0  0
    0.8658   -8.0910   -0.1233 C   0  0  0  0  0  0  0  0  0  0  0  0
    0.8645   -7.8515   -1.5100 C   0  0  0  0  0  0  0  0  0  0  0  0
    1.9414   -7.3335   -2.2649 C   0  0  0  0  0  0  0  0  0  0  0  0
    3.3220   -7.1471   -1.6721 C   0  0  0  0  0  0  0  0  0  0  0  0
    4.0732   -8.4748   -1.6309 C   0  0  0  0  0  0  0  0  0  0  0  0
    1.6529   -6.9431   -3.5869 C   0  0  0  0  0  0  0  0  0  0  0  0
    0.3803   -7.0718   -4.1552 C   0  0  0  0  0  0  0  0  0  0  0  0
   -0.6767   -7.6559   -3.4239 C   0  0  0  0  0  0  0  0  0  0  0  0
   -2.0774   -7.7607   -3.9822 C   0  0  0  0  0  0  0  0  0  0  0  0
   -2.8542   -6.4666   -3.7570 C   0  0  0  0  0  0  0  0  0  0  0  0
   -0.3999   -8.0055   -2.0898 C   0  0  0  0  0  0  0  0  0  0  0  0
   -1.5040   -8.3975   -0.8845 S   0  0  0  0  0  0  0  0  0  0  0  0
    0.2728   -6.4482   -5.4122 C   0  0  0  0  0  0  0  0  0  0  0  0
    1.4444   -5.8070   -5.8141 C   0  0  0  0  0  0  0  0  0  0  0  0
    2.6258   -6.0564   -4.6362 S   0  0  0  0  0  0  0  0  0  0  0  0
    1.5271   -4.8280   -6.9126 C   0  0  0  0  0  0  0  0  0  0  0  0
    0.2327   -4.3316   -7.8866 S   0  0  0  0  0  0  0  0  0  0  0  0
    0.9822   -3.0060   -8.6304 C   0  0  0  0  0  0  0  0  0  0  0  0
    2.2736   -2.9454   -8.1115 C   0  0  0  0  0  0  0  0  0  0  0  0
    2.5532   -3.9320   -7.1848 C   0  0  0  0  0  0  0  0  0  0  0  0
    4.0968   -3.7096   -6.5633 S   0  0  0  0  0  0  0  0  0  0  0  0
    4.4383   -2.3387   -7.5146 C   0  0  0  0  0  0  0  0  0  0  0  0
    5.6991   -1.5665   -7.4833 C   0  0  0  0  0  0  0  0  0  0  0  0
    5.8773   -0.6415   -8.3239 O   0  0  0  0  0  0  0  0  0  0  0  0
    6.7995   -1.8973   -6.5078 C   0  0  0  0  0  0  0  0  0  0  0  0
    7.4970   -0.6405   -5.9898 C   0  0  0  0  0  0  0  0  0  0  0  0
    3.3307   -2.0537   -8.3260 C   0  0  0  0  0  0  0  0  0  0  0  0
    3.3058   -1.0486   -9.2363 F   0  0  0  0  0  0  0  0  0  0  0  0
    0.2767   -2.0029   -9.4408 C   0  0  0  0  0  0  0  0  0  0  0  0
    0.3963   -0.6197   -9.3102 C   0  0  0  0  0  0  0  0  0  0  0  0
   -0.5159    0.0924  -10.1083 C   0  0  0  0  0  0  0  0  0  0  0  0
   -0.6401    1.4973  -10.1871 C   0  0  0  0  0  0  0  0  0  0  0  0
    0.2299    2.4354   -9.3782 C   0  0  0  0  0  0  0  0  0  0  0  0
   -0.3789    2.6863   -8.0022 C   0  0  0  0  0  0  0  0  0  0  0  0
   -1.6624    1.9907  -11.0189 C   0  0  0  0  0  0  0  0  0  0  0  0
   -2.5171    1.1587  -11.7495 C   0  0  0  0  0  0  0  0  0  0  0  0
   -2.3954   -0.2458  -11.6678 C   0  0  0  0  0  0  0  0  0  0  0  0
   -3.2962   -1.1771  -12.4473 C   0  0  0  0  0  0  0  0  0  0  0  0
   -2.7883   -1.3523  -13.8734 C   0  0  0  0  0  0  0  0  0  0  0  0
   -1.3687   -0.7417  -10.8414 C   0  0  0  0  0  0  0  0  0  0  0  0
   -0.9867   -2.3466  -10.5028 S   0  0  0  0  0  0  0  0  0  0  0  0
   -3.4543    1.8745  -12.5174 C   0  0  0  0  0  0  0  0  0  0  0  0
   -3.3413    3.2542  -12.3791 C   0  0  0  0  0  0  0  0  0  0  0  0
   -2.0815    3.5943  -11.3124 S   0  0  0  0  0  0  0  0  0  0  0  0
    1.1717   14.0262    4.8020 H   0  0  0  0  0  0  0  0  0  0  0  0
    1.9240   12.6104    6.8415 H   0  0  0  0  0  0  0  0  0  0  0  0
    2.6666   10.7684    7.9921 H   0  0  0  0  0  0  0  0  0  0  0  0
    2.1893    9.1814    8.6210 H   0  0  0  0  0  0  0  0  0  0  0  0
    1.6330   10.8871   10.2850 H   0  0  0  0  0  0  0  0  0  0  0  0
    0.0911   10.2275    9.6181 H   0  0  0  0  0  0  0  0  0  0  0  0
    0.6958   11.8426    9.0755 H   0  0  0  0  0  0  0  0  0  0  0  0
   -2.1645   10.2718    3.2409 H   0  0  0  0  0  0  0  0  0  0  0  0
   -2.6009    8.6583    3.8277 H   0  0  0  0  0  0  0  0  0  0  0  0
   -0.1044    9.3697    2.1441 H   0  0  0  0  0  0  0  0  0  0  0  0
   -0.4977    7.7141    2.7608 H   0  0  0  0  0  0  0  0  0  0  0  0
   -1.5890    8.5186    1.5697 H   0  0  0  0  0  0  0  0  0  0  0  0
   -1.8448    6.8308    4.9668 H   0  0  0  0  0  0  0  0  0  0  0  0
    0.7044    4.3386    8.0984 H   0  0  0  0  0  0  0  0  0  0  0  0
    1.8190    0.6747    8.6389 H   0  0  0  0  0  0  0  0  0  0  0  0
    1.9454    2.3913    8.2182 H   0  0  0  0  0  0  0  0  0  0  0  0
    2.0851    2.0440   10.6760 H   0  0  0  0  0  0  0  0  0  0  0  0
    0.6102    2.9972   10.2732 H   0  0  0  0  0  0  0  0  0  0  0  0
    0.4695    1.2384   10.6806 H   0  0  0  0  0  0  0  0  0  0  0  0
   -4.0489    2.2827    5.2502 H   0  0  0  0  0  0  0  0  0  0  0  0
   -3.8732    0.5242    5.1075 H   0  0  0  0  0  0  0  0  0  0  0  0
   -5.0398    2.0074    7.5615 H   0  0  0  0  0  0  0  0  0  0  0  0
   -5.9970    1.1919    6.2670 H   0  0  0  0  0  0  0  0  0  0  0  0
   -4.9457    0.2120    7.3550 H   0  0  0  0  0  0  0  0  0  0  0  0
   -3.1768   -1.3374    6.2340 H   0  0  0  0  0  0  0  0  0  0  0  0
   -3.3306   -3.6662    5.9968 H   0  0  0  0  0  0  0  0  0  0  0  0
   -4.3097   -4.6457    4.1860 H   0  0  0  0  0  0  0  0  0  0  0  0
   -4.4096   -6.1625    3.2721 H   0  0  0  0  0  0  0  0  0  0  0  0
   -4.6831   -7.4684    5.4006 H   0  0  0  0  0  0  0  0  0  0  0  0
   -4.6511   -5.9213    6.3367 H   0  0  0  0  0  0  0  0  0  0  0  0
   -5.9786   -6.2356    5.1592 H   0  0  0  0  0  0  0  0  0  0  0  0
    2.2522   -6.6748    4.2353 H   0  0  0  0  0  0  0  0  0  0  0  0
    2.1168   -5.9030    5.8247 H   0  0  0  0  0  0  0  0  0  0  0  0
    1.2988   -8.0511    6.8391 H   0  0  0  0  0  0  0  0  0  0  0  0
    1.4965   -8.8641    5.2355 H   0  0  0  0  0  0  0  0  0  0  0  0
    2.9362   -8.2001    6.0975 H   0  0  0  0  0  0  0  0  0  0  0  0
    1.1588   -8.0057    2.7525 H   0  0  0  0  0  0  0  0  0  0  0  0
    1.7299   -7.9310    0.5052 H   0  0  0  0  0  0  0  0  0  0  0  0
    3.9205   -6.4215   -2.2609 H   0  0  0  0  0  0  0  0  0  0  0  0
    3.2555   -6.7200   -0.6490 H   0  0  0  0  0  0  0  0  0  0  0  0
    4.1421   -8.9081   -2.6506 H   0  0  0  0  0  0  0  0  0  0  0  0
    5.0997   -8.3116   -1.2428 H   0  0  0  0  0  0  0  0  0  0  0  0
    3.5524   -9.1926   -0.9644 H   0  0  0  0  0  0  0  0  0  0  0  0
   -2.0457   -7.9957   -5.0677 H   0  0  0  0  0  0  0  0  0  0  0  0
   -2.6226   -8.6003   -3.5001 H   0  0  0  0  0  0  0  0  0  0  0  0
   -2.9179   -6.2399   -2.6705 H   0  0  0  0  0  0  0  0  0  0  0  0
   -2.3527   -5.6159   -4.2691 H   0  0  0  0  0  0  0  0  0  0  0  0
   -3.8817   -6.5698   -4.1671 H   0  0  0  0  0  0  0  0  0  0  0  0
   -0.6501   -6.3799   -5.9721 H   0  0  0  0  0  0  0  0  0  0  0  0
    7.5431   -2.5537   -7.0078 H   0  0  0  0  0  0  0  0  0  0  0  0
    6.3929   -2.4433   -5.6305 H   0  0  0  0  0  0  0  0  0  0  0  0
    6.7617    0.0351   -5.5010 H   0  0  0  0  0  0  0  0  0  0  0  0
    7.9978   -0.1022   -6.8221 H   0  0  0  0  0  0  0  0  0  0  0  0
    8.2671   -0.9251   -5.2416 H   0  0  0  0  0  0  0  0  0  0  0  0
    1.0750   -0.1532   -8.6100 H   0  0  0  0  0  0  0  0  0  0  0  0
    1.2555    2.0211   -9.2655 H   0  0  0  0  0  0  0  0  0  0  0  0
    0.3500    3.4069   -9.9056 H   0  0  0  0  0  0  0  0  0  0  0  0
   -1.3824    3.1511   -8.1042 H   0  0  0  0  0  0  0  0  0  0  0  0
   -0.4729    1.7319   -7.4421 H   0  0  0  0  0  0  0  0  0  0  0  0
    0.2740    3.3736   -7.4252 H   0  0  0  0  0  0  0  0  0  0  0  0
   -4.3353   -0.7880  -12.4645 H   0  0  0  0  0  0  0  0  0  0  0  0
   -3.3511   -2.1738  -11.9600 H   0  0  0  0  0  0  0  0  0  0  0  0
   -1.7443   -1.7339  -13.8653 H   0  0  0  0  0  0  0  0  0  0  0  0
   -2.8166   -0.3831  -14.4181 H   0  0  0  0  0  0  0  0  0  0  0  0
   -3.4309   -2.0814  -14.4132 H   0  0  0  0  0  0  0  0  0  0  0  0
   -4.1973    1.4181  -13.1572 H   0  0  0  0  0  0  0  0  0  0  0  0
   -3.9628    3.9872  -12.8751 H   0  0  0  0  0  0  0  0  0  0  0  0
  1  2  2  0
  2  3  1  0
  3  4  2  0
  4  5  1  0
  5  6  1  0
  4  7  1  0
  7  8  2  0
  8  9  1  0
  9 10  1  0
 10 11  1  0
  9 12  2  0
 12 13  1  0
  8 14  1  0
 14 15  2  0
 15 16  1  0
 15 17  1  0
 17 18  2  0
 18 19  1  0
 19 20  2  0
 20 21  1  0
 21 22  1  0
 20 23  1  0
 23 24  2  0
 24 25  1  0
 25 26  1  0
 26 27  1  0
 25 28  2  0
 28 29  1  0
 24 30  1  0
 30 31  2  0
 31 32  1  0
 31 33  1  0
 33 34  2  0
 34 35  1  0
 35 36  2  0
 36 37  1  0
 37 38  1  0
 36 39  1  0
 39 40  2  0
 40 41  1  0
 41 42  1  0
 42 43  1  0
 41 44  2  0
 44 45  1  0
 40 46  1  0
 46 47  2  0
 47 48  1  0
 47 49  1  0
 49 50  2  0
 50 51  1  0
 51 52  2  0
 52 53  1  0
 53 54  1  0
 52 55  1  0
 55 56  2  0
 56 57  1  0
 57 58  1  0
 58 59  1  0
 57 60  2  0
 60 61  1  0
 56 62  1  0
 62 63  2  0
 63 64  1  0
 63 65  1  0
 65 66  1  0
 66 67  1  0
 67 68  2  0
 68 69  1  0
 69 70  1  0
 70 71  1  0
 71 72  1  0
 72 73  2  0
 72 74  1  0
 74 75  1  0
 71 76  2  0
 76 77  1  0
 67 78  1  0
 78 79  2  0
 79 80  1  0
 80 81  2  0
 81 82  1  0
 82 83  1  0
 81 84  1  0
 84 85  2  0
 85 86  1  0
 86 87  1  0
 87 88  1  0
 86 89  2  0
 89 90  1  0
 85 91  1  0
 91 92  2  0
 92 93  1  0
 13  1  1  0
 29 17  1  0
 45 33  1  0
 61 49  1  0
 69 65  2  0
 90 78  1  0
 12  3  1  0
 28 19  1  0
 44 35  1  0
 60 51  1  0
 76 68  1  0
 89 80  1  0
 16  7  1  0
 32 23  1  0
 48 39  1  0
 64 55  1  0
 93 84  1  0
  1 94  1  0
  2 95  1  0
  5 96  1  0
  5 97  1  0
  6 98  1  0
  6 99  1  0
  6100  1  0
 10101  1  0
 10102  1  0
 11103  1  0
 11104  1  0
 11105  1  0
 14106  1  0
 18107  1  0
 21108  1  0
 21109  1  0
 22110  1  0
 22111  1  0
 22112  1  0
 26113  1  0
 26114  1  0
 27115  1  0
 27116  1  0
 27117  1  0
 30118  1  0
 34119  1  0
 37120  1  0
 37121  1  0
 38122  1  0
 38123  1  0
 38124  1  0
 42125  1  0
 42126  1  0
 43127  1  0
 43128  1  0
 43129  1  0
 46130  1  0
 50131  1  0
 53132  1  0
 53133  1  0
 54134  1  0
 54135  1  0
 54136  1  0
 58137  1  0
 58138  1  0
 59139  1  0
 59140  1  0
 59141  1  0
 62142  1  0
 74143  1  0
 74144  1  0
 75145  1  0
 75146  1  0
 75147  1  0
 79148  1  0
 82149  1  0
 82150  1  0
 83151  1  0
 83152  1  0
 83153  1  0
 87154  1  0
 87155  1  0
 88156  1  0
 88157  1  0
 88158  1  0
 91159  1  0
 92160  1  0
M  END

