
     RDKit          3D

182202  0  0  0  0  0  0  0  0999 V2000
    2.1313  -10.9619   12.2745 C   0  0  0  0  0  0  0  0  0  0  0  0
    2.1475   -9.5826   12.0874 C   0  0  0  0  0  0  0  0  0  0  0  0
    1.4099   -9.1685   10.9670 C   0  0  0  0  0  0  0  0  0  0  0  0
    1.2531   -7.8434   10.5127 C   0  0  0  0  0  0  0  0  0  0  0  0
    1.9763   -6.7171   11.1288 C   0  0  0  0  0  0  0  0  0  0  0  0
    3.6437   -6.5156   11.0523 S   0  0  0  0  0  0  0  0  0  0  0  0
    3.6800   -5.0218   11.8238 C   0  0  0  0  0  0  0  0  0  0  0  0
    4.9228   -4.2094   12.0342 C   0  0  0  0  0  0  0  0  0  0  0  0
    5.0373   -3.0959   10.9972 C   0  0  0  0  0  0  0  0  0  0  0  0
    2.3728   -4.6497   12.1371 C   0  0  0  0  0  0  0  0  0  0  0  0
    1.9572   -3.1384   12.9318 Cl  0  0  0  0  0  0  0  0  0  0  0  0
    1.4166   -5.6010   11.7471 C   0  0  0  0  0  0  0  0  0  0  0  0
   -0.3091   -5.4104   12.0278 Cl  0  0  0  0  0  0  0  0  0  0  0  0
    0.4601   -7.6539    9.3690 C   0  0  0  0  0  0  0  0  0  0  0  0
   -0.1248   -8.7160    8.6708 C   0  0  0  0  0  0  0  0  0  0  0  0
    0.0404  -10.0417    9.1192 C   0  0  0  0  0  0  0  0  0  0  0  0
   -0.5182  -11.1840    8.3788 C   0  0  0  0  0  0  0  0  0  0  0  0
   -0.0651  -11.6224    6.8196 S   0  0  0  0  0  0  0  0  0  0  0  0
   -1.1620  -12.8882    6.6634 C   0  0  0  0  0  0  0  0  0  0  0  0
   -1.3712  -13.6726    5.4032 C   0  0  0  0  0  0  0  0  0  0  0  0
   -2.2654  -12.9046    4.4343 C   0  0  0  0  0  0  0  0  0  0  0  0
   -1.9217  -12.9666    7.8320 C   0  0  0  0  0  0  0  0  0  0  0  0
   -1.5530  -12.0165    8.7969 C   0  0  0  0  0  0  0  0  0  0  0  0
   -2.3697  -11.8426   10.3455 Cl  0  0  0  0  0  0  0  0  0  0  0  0
   -3.2409  -14.1069    8.0577 Cl  0  0  0  0  0  0  0  0  0  0  0  0
    0.8044  -10.2288   10.2848 C   0  0  0  0  0  0  0  0  0  0  0  0
    1.2049  -11.6698   11.0546 S   0  0  0  0  0  0  0  0  0  0  0  0
   -0.8366   -8.3026    7.5313 C   0  0  0  0  0  0  0  0  0  0  0  0
   -0.8070   -6.9217    7.3464 C   0  0  0  0  0  0  0  0  0  0  0  0
    0.1079   -6.2164    8.5761 S   0  0  0  0  0  0  0  0  0  0  0  0
   -1.4055   -6.2004    6.2162 C   0  0  0  0  0  0  0  0  0  0  0  0
   -1.6630   -6.8223    4.6564 S   0  0  0  0  0  0  0  0  0  0  0  0
   -2.1459   -5.3760    3.9144 C   0  0  0  0  0  0  0  0  0  0  0  0
   -2.0598   -4.3897    4.8873 C   0  0  0  0  0  0  0  0  0  0  0  0
   -1.6705   -4.8432    6.1263 C   0  0  0  0  0  0  0  0  0  0  0  0
   -1.4982   -3.5500    7.1820 S   0  0  0  0  0  0  0  0  0  0  0  0
   -1.9217   -2.3719    6.0288 C   0  0  0  0  0  0  0  0  0  0  0  0
   -1.9350   -0.9213    6.3026 C   0  0  0  0  0  0  0  0  0  0  0  0
   -1.8684   -0.5290    7.4999 O   0  0  0  0  0  0  0  0  0  0  0  0
   -2.0601    0.0817    5.1829 C   0  0  0  0  0  0  0  0  0  0  0  0
   -1.7265    1.5072    5.6214 C   0  0  0  0  0  0  0  0  0  0  0  0
   -2.1995   -3.0009    4.8046 C   0  0  0  0  0  0  0  0  0  0  0  0
   -2.5590   -2.3495    3.6701 F   0  0  0  0  0  0  0  0  0  0  0  0
   -2.1651   -5.1185    2.4758 C   0  0  0  0  0  0  0  0  0  0  0  0
   -3.2857   -4.6948    1.7630 C   0  0  0  0  0  0  0  0  0  0  0  0
   -2.9571   -4.0620    0.5510 C   0  0  0  0  0  0  0  0  0  0  0  0
   -3.8554   -3.4562   -0.3552 C   0  0  0  0  0  0  0  0  0  0  0  0
   -5.3164   -3.4954   -0.1560 C   0  0  0  0  0  0  0  0  0  0  0  0
   -6.1287   -2.8254    1.1554 S   0  0  0  0  0  0  0  0  0  0  0  0
   -7.6718   -3.2790    0.6641 C   0  0  0  0  0  0  0  0  0  0  0  0
   -8.9168   -3.0609    1.4703 C   0  0  0  0  0  0  0  0  0  0  0  0
   -9.1776   -4.2464    2.3950 C   0  0  0  0  0  0  0  0  0  0  0  0
   -7.5700   -3.9804   -0.5366 C   0  0  0  0  0  0  0  0  0  0  0  0
   -8.9496   -4.6772   -1.3755 Cl  0  0  0  0  0  0  0  0  0  0  0  0
   -6.2499   -4.0903   -1.0037 C   0  0  0  0  0  0  0  0  0  0  0  0
   -5.8130   -4.9508   -2.4758 Cl  0  0  0  0  0  0  0  0  0  0  0  0
   -3.2891   -2.7498   -1.4326 C   0  0  0  0  0  0  0  0  0  0  0  0
   -1.9069   -2.6598   -1.6267 C   0  0  0  0  0  0  0  0  0  0  0  0
   -1.0119   -3.2989   -0.7475 C   0  0  0  0  0  0  0  0  0  0  0  0
    0.4490   -3.1266   -0.8696 C   0  0  0  0  0  0  0  0  0  0  0  0
    1.4102   -2.3107    0.2454 S   0  0  0  0  0  0  0  0  0  0  0  0
    2.8386   -2.4177   -0.6344 C   0  0  0  0  0  0  0  0  0  0  0  0
    4.1640   -1.8928   -0.1733 C   0  0  0  0  0  0  0  0  0  0  0  0
    4.9902   -2.9956    0.4792 C   0  0  0  0  0  0  0  0  0  0  0  0
    2.5848   -3.1113   -1.8169 C   0  0  0  0  0  0  0  0  0  0  0  0
    1.2430   -3.5030   -1.9515 C   0  0  0  0  0  0  0  0  0  0  0  0
    0.6348   -4.3971   -3.3388 Cl  0  0  0  0  0  0  0  0  0  0  0  0
    3.8154   -3.4503   -3.0269 Cl  0  0  0  0  0  0  0  0  0  0  0  0
   -1.5756   -3.9910    0.3349 C   0  0  0  0  0  0  0  0  0  0  0  0
   -0.7738   -4.7069    1.6244 S   0  0  0  0  0  0  0  0  0  0  0  0
   -1.5502   -1.7931   -2.6664 C   0  0  0  0  0  0  0  0  0  0  0  0
   -2.6423   -1.1951   -3.2859 C   0  0  0  0  0  0  0  0  0  0  0  0
   -4.0603   -1.7453   -2.5474 S   0  0  0  0  0  0  0  0  0  0  0  0
   -2.5285   -0.1318   -4.2958 C   0  0  0  0  0  0  0  0  0  0  0  0
   -1.0727    0.5153   -4.8615 S   0  0  0  0  0  0  0  0  0  0  0  0
   -1.7062    1.7371   -5.8421 C   0  0  0  0  0  0  0  0  0  0  0  0
   -3.0909    1.6478   -5.7296 C   0  0  0  0  0  0  0  0  0  0  0  0
   -3.5224    0.6306   -4.8962 C   0  0  0  0  0  0  0  0  0  0  0  0
   -5.1982    0.6001   -4.8464 S   0  0  0  0  0  0  0  0  0  0  0  0
   -5.3940    1.9016   -5.9306 C   0  0  0  0  0  0  0  0  0  0  0  0
   -6.7175    2.3853   -6.3796 C   0  0  0  0  0  0  0  0  0  0  0  0
   -7.7540    1.9389   -5.8192 O   0  0  0  0  0  0  0  0  0  0  0  0
   -6.8806    3.4023   -7.4730 C   0  0  0  0  0  0  0  0  0  0  0  0
   -6.8069    4.8204   -6.9160 C   0  0  0  0  0  0  0  0  0  0  0  0
   -4.1265    2.3725   -6.3256 C   0  0  0  0  0  0  0  0  0  0  0  0
   -3.9151    3.3879   -7.1968 F   0  0  0  0  0  0  0  0  0  0  0  0
   -0.8925    2.7544   -6.5214 C   0  0  0  0  0  0  0  0  0  0  0  0
   -1.0249    4.4365   -6.3235 S   0  0  0  0  0  0  0  0  0  0  0  0
    0.5008    4.8681   -6.9312 C   0  0  0  0  0  0  0  0  0  0  0  0
    1.1349    3.6774   -7.2626 C   0  0  0  0  0  0  0  0  0  0  0  0
    0.3769    2.5510   -7.0378 C   0  0  0  0  0  0  0  0  0  0  0  0
    1.2784    1.1735   -7.3707 S   0  0  0  0  0  0  0  0  0  0  0  0
    2.6729    2.0309   -7.8426 C   0  0  0  0  0  0  0  0  0  0  0  0
    3.9392    1.4270   -8.3095 C   0  0  0  0  0  0  0  0  0  0  0  0
    4.8608    2.1766   -8.7312 O   0  0  0  0  0  0  0  0  0  0  0  0
    4.1436   -0.0642   -8.3397 C   0  0  0  0  0  0  0  0  0  0  0  0
    5.4675   -0.4612   -7.6890 C   0  0  0  0  0  0  0  0  0  0  0  0
    2.4283    3.4080   -7.7206 C   0  0  0  0  0  0  0  0  0  0  0  0
    3.3354    4.3682   -8.0298 F   0  0  0  0  0  0  0  0  0  0  0  0
    1.1629    6.1568   -6.7089 C   0  0  0  0  0  0  0  0  0  0  0  0
    0.7358    7.4015   -7.1686 C   0  0  0  0  0  0  0  0  0  0  0  0
    1.5884    8.4465   -6.7685 C   0  0  0  0  0  0  0  0  0  0  0  0
    1.4398    9.8153   -7.0728 C   0  0  0  0  0  0  0  0  0  0  0  0
    0.3708   10.3031   -7.9577 C   0  0  0  0  0  0  0  0  0  0  0  0
    0.3105   10.0280   -9.6146 S   0  0  0  0  0  0  0  0  0  0  0  0
   -1.0654   10.9528   -9.9017 C   0  0  0  0  0  0  0  0  0  0  0  0
   -1.6392   11.2183  -11.2607 C   0  0  0  0  0  0  0  0  0  0  0  0
   -1.0148   12.4654  -11.8755 C   0  0  0  0  0  0  0  0  0  0  0  0
   -1.4859   11.5113   -8.6954 C   0  0  0  0  0  0  0  0  0  0  0  0
   -2.8696   12.5856   -8.5523 Cl  0  0  0  0  0  0  0  0  0  0  0  0
   -0.6816   11.1436   -7.6028 C   0  0  0  0  0  0  0  0  0  0  0  0
   -0.9831   11.6767   -5.9548 Cl  0  0  0  0  0  0  0  0  0  0  0  0
    2.3921   10.6965   -6.5313 C   0  0  0  0  0  0  0  0  0  0  0  0
    3.4544   10.2600   -5.7328 C   0  0  0  0  0  0  0  0  0  0  0  0
    3.6176    8.8918   -5.4454 C   0  0  0  0  0  0  0  0  0  0  0  0
    4.7292    8.3932   -4.6150 C   0  0  0  0  0  0  0  0  0  0  0  0
    4.8974    8.6828   -2.9649 S   0  0  0  0  0  0  0  0  0  0  0  0
    6.2910    7.7608   -2.7634 C   0  0  0  0  0  0  0  0  0  0  0  0
    6.9592    7.5061   -1.4471 C   0  0  0  0  0  0  0  0  0  0  0  0
    6.4299    6.2244   -0.8101 C   0  0  0  0  0  0  0  0  0  0  0  0
    6.6346    7.1967   -3.9908 C   0  0  0  0  0  0  0  0  0  0  0  0
    5.7602    7.5535   -5.0298 C   0  0  0  0  0  0  0  0  0  0  0  0
    5.9609    7.0069   -6.6926 Cl  0  0  0  0  0  0  0  0  0  0  0  0
    8.0130    6.1305   -4.2154 Cl  0  0  0  0  0  0  0  0  0  0  0  0
    2.6607    8.0123   -5.9800 C   0  0  0  0  0  0  0  0  0  0  0  0
    2.5595    6.3491   -5.7830 S   0  0  0  0  0  0  0  0  0  0  0  0
    4.3005   11.3034   -5.3211 C   0  0  0  0  0  0  0  0  0  0  0  0
    3.9056   12.5498   -5.8002 C   0  0  0  0  0  0  0  0  0  0  0  0
    2.5132   12.3617   -6.7357 S   0  0  0  0  0  0  0  0  0  0  0  0
    2.6314  -11.4922   13.0731 H   0  0  0  0  0  0  0  0  0  0  0  0
    2.6758   -8.9073   12.7468 H   0  0  0  0  0  0  0  0  0  0  0  0
    4.9160   -3.7697   13.0550 H   0  0  0  0  0  0  0  0  0  0  0  0
    5.8118   -4.8730   11.9556 H   0  0  0  0  0  0  0  0  0  0  0  0
    4.9311   -3.5029    9.9682 H   0  0  0  0  0  0  0  0  0  0  0  0
    6.0271   -2.6051   11.0881 H   0  0  0  0  0  0  0  0  0  0  0  0
    4.2507   -2.3336   11.1701 H   0  0  0  0  0  0  0  0  0  0  0  0
   -1.8358  -14.6545    5.6316 H   0  0  0  0  0  0  0  0  0  0  0  0
   -0.3866  -13.8653    4.9258 H   0  0  0  0  0  0  0  0  0  0  0  0
   -1.7931  -11.9358    4.1634 H   0  0  0  0  0  0  0  0  0  0  0  0
   -2.4094  -13.4998    3.5089 H   0  0  0  0  0  0  0  0  0  0  0  0
   -3.2577  -12.7166    4.8961 H   0  0  0  0  0  0  0  0  0  0  0  0
   -1.3577   -8.9766    6.8652 H   0  0  0  0  0  0  0  0  0  0  0  0
   -1.3623   -0.1981    4.3643 H   0  0  0  0  0  0  0  0  0  0  0  0
   -3.0992    0.0581    4.7902 H   0  0  0  0  0  0  0  0  0  0  0  0
   -1.7950    2.1864    4.7462 H   0  0  0  0  0  0  0  0  0  0  0  0
   -0.6932    1.5542    6.0269 H   0  0  0  0  0  0  0  0  0  0  0  0
   -2.4462    1.8522    6.3938 H   0  0  0  0  0  0  0  0  0  0  0  0
   -4.2904   -4.7738    2.1539 H   0  0  0  0  0  0  0  0  0  0  0  0
   -8.8035   -2.1373    2.0797 H   0  0  0  0  0  0  0  0  0  0  0  0
   -9.7886   -2.9181    0.7977 H   0  0  0  0  0  0  0  0  0  0  0  0
   -9.3601   -5.1682    1.8046 H   0  0  0  0  0  0  0  0  0  0  0  0
  -10.0739   -4.0389    3.0141 H   0  0  0  0  0  0  0  0  0  0  0  0
   -8.3093   -4.4074    3.0687 H   0  0  0  0  0  0  0  0  0  0  0  0
    4.0037   -1.0760    0.5624 H   0  0  0  0  0  0  0  0  0  0  0  0
    4.7219   -1.4674   -1.0347 H   0  0  0  0  0  0  0  0  0  0  0  0
    4.4511   -3.4089    1.3586 H   0  0  0  0  0  0  0  0  0  0  0  0
    5.1881   -3.8130   -0.2449 H   0  0  0  0  0  0  0  0  0  0  0  0
    5.9608   -2.5802    0.8178 H   0  0  0  0  0  0  0  0  0  0  0  0
   -0.5272   -1.5598   -2.9266 H   0  0  0  0  0  0  0  0  0  0  0  0
   -6.1136    3.2582   -8.2615 H   0  0  0  0  0  0  0  0  0  0  0  0
   -7.8699    3.2607   -7.9619 H   0  0  0  0  0  0  0  0  0  0  0  0
   -6.9558    5.5514   -7.7365 H   0  0  0  0  0  0  0  0  0  0  0  0
   -7.6053    4.9739   -6.1559 H   0  0  0  0  0  0  0  0  0  0  0  0
   -5.8183    5.0043   -6.4430 H   0  0  0  0  0  0  0  0  0  0  0  0
    4.1416   -0.4089   -9.3963 H   0  0  0  0  0  0  0  0  0  0  0  0
    3.3278   -0.5983   -7.8089 H   0  0  0  0  0  0  0  0  0  0  0  0
    5.5546   -1.5674   -7.6649 H   0  0  0  0  0  0  0  0  0  0  0  0
    6.3222   -0.0548   -8.2729 H   0  0  0  0  0  0  0  0  0  0  0  0
    5.5199   -0.0729   -6.6462 H   0  0  0  0  0  0  0  0  0  0  0  0
   -0.1547    7.5383   -7.7695 H   0  0  0  0  0  0  0  0  0  0  0  0
   -2.7418   11.3492  -11.1902 H   0  0  0  0  0  0  0  0  0  0  0  0
   -1.4389   10.3462  -11.9190 H   0  0  0  0  0  0  0  0  0  0  0  0
   -1.4308   12.6265  -12.8912 H   0  0  0  0  0  0  0  0  0  0  0  0
    0.0874   12.3443  -11.9600 H   0  0  0  0  0  0  0  0  0  0  0  0
   -1.2331   13.3576  -11.2494 H   0  0  0  0  0  0  0  0  0  0  0  0
    8.0577    7.4209   -1.5911 H   0  0  0  0  0  0  0  0  0  0  0  0
    6.7708    8.3612   -0.7629 H   0  0  0  0  0  0  0  0  0  0  0  0
    6.9403    6.0538    0.1596 H   0  0  0  0  0  0  0  0  0  0  0  0
    5.3357    6.3045   -0.6303 H   0  0  0  0  0  0  0  0  0  0  0  0
    6.6250    5.3536   -1.4730 H   0  0  0  0  0  0  0  0  0  0  0  0
    5.1813   11.1666   -4.7080 H   0  0  0  0  0  0  0  0  0  0  0  0
    4.4130   13.4844   -5.6108 H   0  0  0  0  0  0  0  0  0  0  0  0
  1  2  2  0
  2  3  1  0
  3  4  2  0
  4  5  1  0
  5  6  1  0
  6  7  1  0
  7  8  1  0
  8  9  1  0
  7 10  2  0
 10 11  1  0
 10 12  1  0
 12 13  1  0
  4 14  1  0
 14 15  2  0
 15 16  1  0
 16 17  1  0
 17 18  1  0
 18 19  1  0
 19 20  1  0
 20 21  1  0
 19 22  2  0
 22 23  1  0
 23 24  1  0
 22 25  1  0
 16 26  2  0
 26 27  1  0
 15 28  1  0
 28 29  2  0
 29 30  1  0
 29 31  1  0
 31 32  1  0
 32 33  1  0
 33 34  2  0
 34 35  1  0
 35 36  1  0
 36 37  1  0
 37 38  1  0
 38 39  2  0
 38 40  1  0
 40 41  1  0
 37 42  2  0
 42 43  1  0
 33 44  1  0
 44 45  2  0
 45 46  1  0
 46 47  2  0
 47 48  1  0
 48 49  1  0
 49 50  1  0
 50 51  1  0
 51 52  1  0
 50 53  2  0
 53 54  1  0
 53 55  1  0
 55 56  1  0
 47 57  1  0
 57 58  2  0
 58 59  1  0
 59 60  1  0
 60 61  1  0
 61 62  1  0
 62 63  1  0
 63 64  1  0
 62 65  2  0
 65 66  1  0
 66 67  1  0
 65 68  1  0
 59 69  2  0
 69 70  1  0
 58 71  1  0
 71 72  2  0
 72 73  1  0
 72 74  1  0
 74 75  1  0
 75 76  1  0
 76 77  2  0
 77 78  1  0
 78 79  1  0
 79 80  1  0
 80 81  1  0
 81 82  2  0
 81 83  1  0
 83 84  1  0
 80 85  2  0
 85 86  1  0
 76 87  1  0
 87 88  1  0
 88 89  1  0
 89 90  2  0
 90 91  1  0
 91 92  1  0
 92 93  1  0
 93 94  1  0
 94 95  2  0
 94 96  1  0
 96 97  1  0
 93 98  2  0
 98 99  1  0
 89100  1  0
100101  2  0
101102  1  0
102103  2  0
103104  1  0
104105  1  0
105106  1  0
106107  1  0
107108  1  0
106109  2  0
109110  1  0
109111  1  0
111112  1  0
103113  1  0
113114  2  0
114115  1  0
115116  1  0
116117  1  0
117118  1  0
118119  1  0
119120  1  0
118121  2  0
121122  1  0
122123  1  0
121124  1  0
115125  2  0
125126  1  0
114127  1  0
127128  2  0
128129  1  0
 27  1  1  0
 35 31  2  0
 70 44  1  0
 78 74  2  0
 91 87  2  0
126100  1  0
 26  3  1  0
 42 34  1  0
 69 46  1  0
 85 77  1  0
 98 90  1  0
125102  1  0
 12  5  2  0
 30 14  1  0
 55 48  2  0
 73 57  1  0
111104  2  0
129113  1  0
 23 17  2  0
 66 60  2  0
122116  2  0
  1130  1  0
  2131  1  0
  8132  1  0
  8133  1  0
  9134  1  0
  9135  1  0
  9136  1  0
 20137  1  0
 20138  1  0
 21139  1  0
 21140  1  0
 21141  1  0
 28142  1  0
 40143  1  0
 40144  1  0
 41145  1  0
 41146  1  0
 41147  1  0
 45148  1  0
 51149  1  0
 51150  1  0
 52151  1  0
 52152  1  0
 52153  1  0
 63154  1  0
 63155  1  0
 64156  1  0
 64157  1  0
 64158  1  0
 71159  1  0
 83160  1  0
 83161  1  0
 84162  1  0
 84163  1  0
 84164  1  0
 96165  1  0
 96166  1  0
 97167  1  0
 97168  1  0
 97169  1  0
101170  1  0
107171  1  0
107172  1  0
108173  1  0
108174  1  0
108175  1  0
119176  1  0
119177  1  0
120178  1  0
120179  1  0
120180  1  0
127181  1  0
128182  1  0
M  END

