
     RDKit          3D

182202  0  0  0  0  0  0  0  0999 V2000
    6.8545   -9.9608    8.8959 C   0  0  0  0  0  0  0  0  0  0  0  0
    6.5183   -8.6157    8.7775 C   0  0  0  0  0  0  0  0  0  0  0  0
    5.2907   -8.4075    8.1260 C   0  0  0  0  0  0  0  0  0  0  0  0
    4.6745   -7.1647    7.8835 C   0  0  0  0  0  0  0  0  0  0  0  0
    5.3431   -5.8901    8.1987 C   0  0  0  0  0  0  0  0  0  0  0  0
    6.7414   -5.3411    7.4425 S   0  0  0  0  0  0  0  0  0  0  0  0
    6.8031   -3.8570    8.2315 C   0  0  0  0  0  0  0  0  0  0  0  0
    7.8007   -2.7809    7.9334 C   0  0  0  0  0  0  0  0  0  0  0  0
    7.2907   -1.8661    6.8267 C   0  0  0  0  0  0  0  0  0  0  0  0
    5.7062   -3.7622    9.0870 C   0  0  0  0  0  0  0  0  0  0  0  0
    5.3602   -2.3444   10.0680 Cl  0  0  0  0  0  0  0  0  0  0  0  0
    4.8908   -4.9048    9.0729 C   0  0  0  0  0  0  0  0  0  0  0  0
    3.4540   -5.0796   10.0717 Cl  0  0  0  0  0  0  0  0  0  0  0  0
    3.4235   -7.1921    7.2426 C   0  0  0  0  0  0  0  0  0  0  0  0
    2.8073   -8.3799    6.8315 C   0  0  0  0  0  0  0  0  0  0  0  0
    3.4246   -9.6212    7.0763 C   0  0  0  0  0  0  0  0  0  0  0  0
    2.7898  -10.8950    6.6978 C   0  0  0  0  0  0  0  0  0  0  0  0
    1.3726  -11.4943    7.3766 S   0  0  0  0  0  0  0  0  0  0  0  0
    1.3660  -12.9432    6.5202 C   0  0  0  0  0  0  0  0  0  0  0  0
    0.2980  -13.9887    6.6235 C   0  0  0  0  0  0  0  0  0  0  0  0
   -0.8010  -13.7437    5.5955 C   0  0  0  0  0  0  0  0  0  0  0  0
    2.4680  -12.9629    5.6667 C   0  0  0  0  0  0  0  0  0  0  0  0
    3.2731  -11.8182    5.7738 C   0  0  0  0  0  0  0  0  0  0  0  0
    4.7122  -11.5541    4.7985 Cl  0  0  0  0  0  0  0  0  0  0  0  0
    2.8210  -14.2878    4.5647 Cl  0  0  0  0  0  0  0  0  0  0  0  0
    4.6681   -9.5964    7.7338 C   0  0  0  0  0  0  0  0  0  0  0  0
    5.6341  -10.8933    8.2021 S   0  0  0  0  0  0  0  0  0  0  0  0
    1.6054   -8.1689    6.1330 C   0  0  0  0  0  0  0  0  0  0  0  0
    1.2734   -6.8193    6.0264 C   0  0  0  0  0  0  0  0  0  0  0  0
    2.4785   -5.8919    6.7596 S   0  0  0  0  0  0  0  0  0  0  0  0
    0.1446   -6.2684    5.2613 C   0  0  0  0  0  0  0  0  0  0  0  0
   -0.5885   -6.9765    3.9051 S   0  0  0  0  0  0  0  0  0  0  0  0
   -1.5543   -5.6581    3.4546 C   0  0  0  0  0  0  0  0  0  0  0  0
   -1.2994   -4.6505    4.3774 C   0  0  0  0  0  0  0  0  0  0  0  0
   -0.3819   -4.9901    5.3458 C   0  0  0  0  0  0  0  0  0  0  0  0
   -0.1294   -3.6927    6.3827 S   0  0  0  0  0  0  0  0  0  0  0  0
   -1.2346   -2.6675    5.5850 C   0  0  0  0  0  0  0  0  0  0  0  0
   -1.5510   -1.2835    5.9865 C   0  0  0  0  0  0  0  0  0  0  0  0
   -2.3565   -0.5989    5.2856 O   0  0  0  0  0  0  0  0  0  0  0  0
   -0.8915   -0.6706    7.1949 C   0  0  0  0  0  0  0  0  0  0  0  0
   -1.5452    0.6400    7.6290 C   0  0  0  0  0  0  0  0  0  0  0  0
   -1.7971   -3.3478    4.4969 C   0  0  0  0  0  0  0  0  0  0  0  0
   -2.7470   -2.8196    3.6874 F   0  0  0  0  0  0  0  0  0  0  0  0
   -2.2177   -5.4957    2.1591 C   0  0  0  0  0  0  0  0  0  0  0  0
   -1.9822   -4.2007    1.1009 S   0  0  0  0  0  0  0  0  0  0  0  0
   -3.1418   -4.6310   -0.0526 C   0  0  0  0  0  0  0  0  0  0  0  0
   -3.7439   -5.7953    0.4070 C   0  0  0  0  0  0  0  0  0  0  0  0
   -3.2176   -6.2683    1.5933 C   0  0  0  0  0  0  0  0  0  0  0  0
   -4.0894   -7.5954    2.1273 S   0  0  0  0  0  0  0  0  0  0  0  0
   -5.1728   -7.5799    0.8099 C   0  0  0  0  0  0  0  0  0  0  0  0
   -6.3030   -8.5195    0.6705 C   0  0  0  0  0  0  0  0  0  0  0  0
   -6.3805   -9.4972    1.4648 O   0  0  0  0  0  0  0  0  0  0  0  0
   -7.3483   -8.3317   -0.4003 C   0  0  0  0  0  0  0  0  0  0  0  0
   -8.5379   -9.2821   -0.2505 C   0  0  0  0  0  0  0  0  0  0  0  0
   -4.8461   -6.5166   -0.0512 C   0  0  0  0  0  0  0  0  0  0  0  0
   -5.5280   -6.1965   -1.1791 F   0  0  0  0  0  0  0  0  0  0  0  0
   -3.5681   -3.7390   -1.1290 C   0  0  0  0  0  0  0  0  0  0  0  0
   -3.9453   -2.4249   -0.8760 C   0  0  0  0  0  0  0  0  0  0  0  0
   -3.7595   -1.5723   -1.9694 C   0  0  0  0  0  0  0  0  0  0  0  0
   -3.9095   -0.1735   -1.9510 C   0  0  0  0  0  0  0  0  0  0  0  0
   -4.3323    0.5474   -0.7386 C   0  0  0  0  0  0  0  0  0  0  0  0
   -5.7966    1.3530   -0.5688 S   0  0  0  0  0  0  0  0  0  0  0  0
   -5.5346    1.8639    1.0143 C   0  0  0  0  0  0  0  0  0  0  0  0
   -6.5459    2.5893    1.8501 C   0  0  0  0  0  0  0  0  0  0  0  0
   -7.4879    1.6000    2.5275 C   0  0  0  0  0  0  0  0  0  0  0  0
   -4.2915    1.3923    1.4372 C   0  0  0  0  0  0  0  0  0  0  0  0
   -3.6407    1.6685    3.0468 Cl  0  0  0  0  0  0  0  0  0  0  0  0
   -3.6112    0.6664    0.4480 C   0  0  0  0  0  0  0  0  0  0  0  0
   -2.0038   -0.0093    0.6777 Cl  0  0  0  0  0  0  0  0  0  0  0  0
   -3.5011    0.5241   -3.0953 C   0  0  0  0  0  0  0  0  0  0  0  0
   -2.9759   -0.1176   -4.2207 C   0  0  0  0  0  0  0  0  0  0  0  0
   -2.8786   -1.5271   -4.2641 C   0  0  0  0  0  0  0  0  0  0  0  0
   -2.3133   -2.2231   -5.4354 C   0  0  0  0  0  0  0  0  0  0  0  0
   -0.8751   -3.0971   -5.4378 S   0  0  0  0  0  0  0  0  0  0  0  0
   -0.8723   -3.4387   -7.0868 C   0  0  0  0  0  0  0  0  0  0  0  0
    0.2372   -4.1433   -7.8082 C   0  0  0  0  0  0  0  0  0  0  0  0
    1.2842   -3.1452   -8.2924 C   0  0  0  0  0  0  0  0  0  0  0  0
   -1.9949   -2.8483   -7.6653 C   0  0  0  0  0  0  0  0  0  0  0  0
   -2.8046   -2.1726   -6.7384 C   0  0  0  0  0  0  0  0  0  0  0  0
   -4.2926   -1.3466   -7.1827 Cl  0  0  0  0  0  0  0  0  0  0  0  0
   -2.3481   -2.9112   -9.3868 Cl  0  0  0  0  0  0  0  0  0  0  0  0
   -3.2576   -2.2244   -3.1008 C   0  0  0  0  0  0  0  0  0  0  0  0
   -3.0147   -3.8507   -2.7213 S   0  0  0  0  0  0  0  0  0  0  0  0
   -2.4347    0.7788   -5.1574 C   0  0  0  0  0  0  0  0  0  0  0  0
   -2.5216    2.1126   -4.7540 C   0  0  0  0  0  0  0  0  0  0  0  0
   -3.3005    2.1844   -3.2587 S   0  0  0  0  0  0  0  0  0  0  0  0
   -1.7842    3.2466   -5.3361 C   0  0  0  0  0  0  0  0  0  0  0  0
   -1.9716    4.8710   -4.8907 S   0  0  0  0  0  0  0  0  0  0  0  0
   -0.5767    5.4860   -5.6284 C   0  0  0  0  0  0  0  0  0  0  0  0
    0.0668    4.4021   -6.2141 C   0  0  0  0  0  0  0  0  0  0  0  0
   -0.6012    3.2024   -6.0632 C   0  0  0  0  0  0  0  0  0  0  0  0
    0.3130    1.9543   -6.7121 S   0  0  0  0  0  0  0  0  0  0  0  0
    1.5740    2.9645   -7.2436 C   0  0  0  0  0  0  0  0  0  0  0  0
    2.7790    2.4971   -7.9563 C   0  0  0  0  0  0  0  0  0  0  0  0
    3.6576    3.3315   -8.3074 O   0  0  0  0  0  0  0  0  0  0  0  0
    2.9674    1.0251   -8.2346 C   0  0  0  0  0  0  0  0  0  0  0  0
    4.1844    0.7265   -9.1101 C   0  0  0  0  0  0  0  0  0  0  0  0
    1.2873    4.2911   -6.8858 C   0  0  0  0  0  0  0  0  0  0  0  0
    2.1008    5.3409   -7.1569 F   0  0  0  0  0  0  0  0  0  0  0  0
   -0.0515    6.8370   -5.4080 C   0  0  0  0  0  0  0  0  0  0  0  0
   -0.7814    8.0113   -5.5623 C   0  0  0  0  0  0  0  0  0  0  0  0
   -0.0887    9.1455   -5.1108 C   0  0  0  0  0  0  0  0  0  0  0  0
   -0.5432   10.4780   -5.1655 C   0  0  0  0  0  0  0  0  0  0  0  0
   -1.8465   10.8375   -5.7514 C   0  0  0  0  0  0  0  0  0  0  0  0
   -2.0405   11.7850   -7.1268 S   0  0  0  0  0  0  0  0  0  0  0  0
   -3.7223   11.7689   -7.1201 C   0  0  0  0  0  0  0  0  0  0  0  0
   -4.5811   12.5302   -8.0856 C   0  0  0  0  0  0  0  0  0  0  0  0
   -4.7840   13.9640   -7.6097 C   0  0  0  0  0  0  0  0  0  0  0  0
   -4.1559   11.0388   -6.0127 C   0  0  0  0  0  0  0  0  0  0  0  0
   -5.8495   10.8251   -5.5947 Cl  0  0  0  0  0  0  0  0  0  0  0  0
   -3.1038   10.5095   -5.2499 C   0  0  0  0  0  0  0  0  0  0  0  0
   -3.3478    9.5859   -3.7724 Cl  0  0  0  0  0  0  0  0  0  0  0  0
    0.3175   11.4641   -4.6569 C   0  0  0  0  0  0  0  0  0  0  0  0
    1.5646   11.1649   -4.1007 C   0  0  0  0  0  0  0  0  0  0  0  0
    2.0254    9.8326   -4.0544 C   0  0  0  0  0  0  0  0  0  0  0  0
    3.3219    9.4785   -3.4497 C   0  0  0  0  0  0  0  0  0  0  0  0
    3.5025    8.5613   -2.0526 S   0  0  0  0  0  0  0  0  0  0  0  0
    5.1824    8.6544   -1.9923 C   0  0  0  0  0  0  0  0  0  0  0  0
    6.0293    8.0770   -0.8982 C   0  0  0  0  0  0  0  0  0  0  0  0
    6.2300    9.0933    0.2192 C   0  0  0  0  0  0  0  0  0  0  0  0
    5.6246    9.4261   -3.0649 C   0  0  0  0  0  0  0  0  0  0  0  0
    4.5821    9.8792   -3.8878 C   0  0  0  0  0  0  0  0  0  0  0  0
    4.8451   10.8378   -5.3387 Cl  0  0  0  0  0  0  0  0  0  0  0  0
    7.3182    9.7971   -3.3614 Cl  0  0  0  0  0  0  0  0  0  0  0  0
    1.1701    8.8464   -4.5770 C   0  0  0  0  0  0  0  0  0  0  0  0
    1.4352    7.1874   -4.6869 S   0  0  0  0  0  0  0  0  0  0  0  0
    2.2280   12.2979   -3.5990 C   0  0  0  0  0  0  0  0  0  0  0  0
    1.5106   13.4780   -3.7759 C   0  0  0  0  0  0  0  0  0  0  0  0
    0.0506   13.1213   -4.5375 S   0  0  0  0  0  0  0  0  0  0  0  0
    7.7492  -10.3457    9.3646 H   0  0  0  0  0  0  0  0  0  0  0  0
    7.1426   -7.8227    9.1663 H   0  0  0  0  0  0  0  0  0  0  0  0
    8.7583   -3.2472    7.6156 H   0  0  0  0  0  0  0  0  0  0  0  0
    8.0011   -2.1831    8.8489 H   0  0  0  0  0  0  0  0  0  0  0  0
    8.0471   -1.0822    6.6137 H   0  0  0  0  0  0  0  0  0  0  0  0
    6.3455   -1.3701    7.1383 H   0  0  0  0  0  0  0  0  0  0  0  0
    7.1099   -2.4496    5.8978 H   0  0  0  0  0  0  0  0  0  0  0  0
   -0.1447  -13.9643    7.6426 H   0  0  0  0  0  0  0  0  0  0  0  0
    0.7377  -14.9964    6.4659 H   0  0  0  0  0  0  0  0  0  0  0  0
   -1.5308  -14.5792    5.6237 H   0  0  0  0  0  0  0  0  0  0  0  0
   -1.3342  -12.7973    5.8280 H   0  0  0  0  0  0  0  0  0  0  0  0
   -0.3750  -13.6784    4.5729 H   0  0  0  0  0  0  0  0  0  0  0  0
    1.0093   -8.9618    5.6990 H   0  0  0  0  0  0  0  0  0  0  0  0
   -0.9435   -1.3861    8.0443 H   0  0  0  0  0  0  0  0  0  0  0  0
    0.1790   -0.4834    6.9643 H   0  0  0  0  0  0  0  0  0  0  0  0
   -1.4539    1.4042    6.8263 H   0  0  0  0  0  0  0  0  0  0  0  0
   -1.0370    1.0215    8.5413 H   0  0  0  0  0  0  0  0  0  0  0  0
   -2.6184    0.4746    7.8627 H   0  0  0  0  0  0  0  0  0  0  0  0
   -6.8825   -8.4918   -1.3952 H   0  0  0  0  0  0  0  0  0  0  0  0
   -7.7303   -7.2885   -0.3527 H   0  0  0  0  0  0  0  0  0  0  0  0
   -8.2033  -10.3378   -0.3471 H   0  0  0  0  0  0  0  0  0  0  0  0
   -9.2819   -9.0740   -1.0486 H   0  0  0  0  0  0  0  0  0  0  0  0
   -9.0250   -9.1365    0.7370 H   0  0  0  0  0  0  0  0  0  0  0  0
   -4.2355   -2.0841    0.1102 H   0  0  0  0  0  0  0  0  0  0  0  0
   -7.1371    3.2712    1.2027 H   0  0  0  0  0  0  0  0  0  0  0  0
   -6.0369    3.2067    2.6204 H   0  0  0  0  0  0  0  0  0  0  0  0
   -8.2138    2.1486    3.1625 H   0  0  0  0  0  0  0  0  0  0  0  0
   -8.0491    1.0223    1.7637 H   0  0  0  0  0  0  0  0  0  0  0  0
   -6.9145    0.8978    3.1710 H   0  0  0  0  0  0  0  0  0  0  0  0
    0.7162   -4.8747   -7.1232 H   0  0  0  0  0  0  0  0  0  0  0  0
   -0.1706   -4.7039   -8.6752 H   0  0  0  0  0  0  0  0  0  0  0  0
    0.8265   -2.4147   -8.9940 H   0  0  0  0  0  0  0  0  0  0  0  0
    1.7235   -2.5983   -7.4308 H   0  0  0  0  0  0  0  0  0  0  0  0
    2.0968   -3.6859   -8.8207 H   0  0  0  0  0  0  0  0  0  0  0  0
   -1.9324    0.4615   -6.0597 H   0  0  0  0  0  0  0  0  0  0  0  0
    2.0617    0.6300   -8.7460 H   0  0  0  0  0  0  0  0  0  0  0  0
    3.0813    0.4884   -7.2681 H   0  0  0  0  0  0  0  0  0  0  0  0
    4.2772   -0.3721   -9.2468 H   0  0  0  0  0  0  0  0  0  0  0  0
    4.0659    1.1991  -10.1073 H   0  0  0  0  0  0  0  0  0  0  0  0
    5.1119    1.1001   -8.6298 H   0  0  0  0  0  0  0  0  0  0  0  0
   -1.7783    8.0346   -5.9813 H   0  0  0  0  0  0  0  0  0  0  0  0
   -5.5661   12.0292   -8.1982 H   0  0  0  0  0  0  0  0  0  0  0  0
   -4.0894   12.5395   -9.0827 H   0  0  0  0  0  0  0  0  0  0  0  0
   -5.2730   13.9746   -6.6134 H   0  0  0  0  0  0  0  0  0  0  0  0
   -3.8070   14.4891   -7.5456 H   0  0  0  0  0  0  0  0  0  0  0  0
   -5.4308   14.5050   -8.3309 H   0  0  0  0  0  0  0  0  0  0  0  0
    7.0169    7.7692   -1.3024 H   0  0  0  0  0  0  0  0  0  0  0  0
    5.5349    7.1732   -0.4864 H   0  0  0  0  0  0  0  0  0  0  0  0
    6.7298   10.0057   -0.1730 H   0  0  0  0  0  0  0  0  0  0  0  0
    5.2522    9.3752    0.6651 H   0  0  0  0  0  0  0  0  0  0  0  0
    6.8664    8.6516    1.0156 H   0  0  0  0  0  0  0  0  0  0  0  0
    3.1934   12.2704   -3.1113 H   0  0  0  0  0  0  0  0  0  0  0  0
    1.8341   14.4625   -3.4641 H   0  0  0  0  0  0  0  0  0  0  0  0
  1  2  2  0
  2  3  1  0
  3  4  2  0
  4  5  1  0
  5  6  1  0
  6  7  1  0
  7  8  1  0
  8  9  1  0
  7 10  2  0
 10 11  1  0
 10 12  1  0
 12 13  1  0
  4 14  1  0
 14 15  2  0
 15 16  1  0
 16 17  1  0
 17 18  1  0
 18 19  1  0
 19 20  1  0
 20 21  1  0
 19 22  2  0
 22 23  1  0
 23 24  1  0
 22 25  1  0
 16 26  2  0
 26 27  1  0
 15 28  1  0
 28 29  2  0
 29 30  1  0
 29 31  1  0
 31 32  1  0
 32 33  1  0
 33 34  2  0
 34 35  1  0
 35 36  1  0
 36 37  1  0
 37 38  1  0
 38 39  2  0
 38 40  1  0
 40 41  1  0
 37 42  2  0
 42 43  1  0
 33 44  1  0
 44 45  1  0
 45 46  1  0
 46 47  2  0
 47 48  1  0
 48 49  1  0
 49 50  1  0
 50 51  1  0
 51 52  2  0
 51 53  1  0
 53 54  1  0
 50 55  2  0
 55 56  1  0
 46 57  1  0
 57 58  2  0
 58 59  1  0
 59 60  2  0
 60 61  1  0
 61 62  1  0
 62 63  1  0
 63 64  1  0
 64 65  1  0
 63 66  2  0
 66 67  1  0
 66 68  1  0
 68 69  1  0
 60 70  1  0
 70 71  2  0
 71 72  1  0
 72 73  1  0
 73 74  1  0
 74 75  1  0
 75 76  1  0
 76 77  1  0
 75 78  2  0
 78 79  1  0
 79 80  1  0
 78 81  1  0
 72 82  2  0
 82 83  1  0
 71 84  1  0
 84 85  2  0
 85 86  1  0
 85 87  1  0
 87 88  1  0
 88 89  1  0
 89 90  2  0
 90 91  1  0
 91 92  1  0
 92 93  1  0
 93 94  1  0
 94 95  2  0
 94 96  1  0
 96 97  1  0
 93 98  2  0
 98 99  1  0
 89100  1  0
100101  2  0
101102  1  0
102103  2  0
103104  1  0
104105  1  0
105106  1  0
106107  1  0
107108  1  0
106109  2  0
109110  1  0
109111  1  0
111112  1  0
103113  1  0
113114  2  0
114115  1  0
115116  1  0
116117  1  0
117118  1  0
118119  1  0
119120  1  0
118121  2  0
121122  1  0
122123  1  0
121124  1  0
115125  2  0
125126  1  0
114127  1  0
127128  2  0
128129  1  0
 27  1  1  0
 35 31  2  0
 48 44  2  0
 83 57  1  0
 91 87  2  0
126100  1  0
 26  3  1  0
 42 34  1  0
 55 47  1  0
 82 59  1  0
 98 90  1  0
125102  1  0
 12  5  2  0
 30 14  1  0
 68 61  2  0
 86 70  1  0
111104  2  0
129113  1  0
 23 17  2  0
 79 73  2  0
122116  2  0
  1130  1  0
  2131  1  0
  8132  1  0
  8133  1  0
  9134  1  0
  9135  1  0
  9136  1  0
 20137  1  0
 20138  1  0
 21139  1  0
 21140  1  0
 21141  1  0
 28142  1  0
 40143  1  0
 40144  1  0
 41145  1  0
 41146  1  0
 41147  1  0
 53148  1  0
 53149  1  0
 54150  1  0
 54151  1  0
 54152  1  0
 58153  1  0
 64154  1  0
 64155  1  0
 65156  1  0
 65157  1  0
 65158  1  0
 76159  1  0
 76160  1  0
 77161  1  0
 77162  1  0
 77163  1  0
 84164  1  0
 96165  1  0
 96166  1  0
 97167  1  0
 97168  1  0
 97169  1  0
101170  1  0
107171  1  0
107172  1  0
108173  1  0
108174  1  0
108175  1  0
119176  1  0
119177  1  0
120178  1  0
120179  1  0
120180  1  0
127181  1  0
128182  1  0
M  END

