
     RDKit          3D

101109  0  0  0  0  0  0  0  0999 V2000
    7.9997    2.4240    3.3922 C   0  0  0  0  0  0  0  0  0  0  0  0
    6.7499    3.0591    2.4712 S   0  0  0  0  0  0  0  0  0  0  0  0
    6.3826    1.6447    1.6276 C   0  0  0  0  0  0  0  0  0  0  0  0
    7.2735    0.6436    2.0329 C   0  0  0  0  0  0  0  0  0  0  0  0
    8.1640    1.0931    3.0307 C   0  0  0  0  0  0  0  0  0  0  0  0
    9.1310    0.2783    3.6127 O   0  0  0  0  0  0  0  0  0  0  0  0
    7.2782   -0.7391    1.5019 C   0  0  0  0  0  0  0  0  0  0  0  0
    6.3298   -1.1523    0.7833 O   0  0  0  0  0  0  0  0  0  0  0  0
    8.3267   -1.6024    1.8028 O   0  0  0  0  0  0  0  0  0  0  0  0
    5.4231    1.5671    0.5083 C   0  0  0  0  0  0  0  0  0  0  0  0
    4.1866    2.0828    0.5306 C   0  0  0  0  0  0  0  0  0  0  0  0
    3.5018    2.5780    1.7413 C   0  0  0  0  0  0  0  0  0  0  0  0
    3.5881    1.8745    3.2691 S   0  0  0  0  0  0  0  0  0  0  0  0
    2.4068    2.8275    3.9836 C   0  0  0  0  0  0  0  0  0  0  0  0
    1.9068    3.7296    3.0353 C   0  0  0  0  0  0  0  0  0  0  0  0
    2.5192    3.5690    1.7737 C   0  0  0  0  0  0  0  0  0  0  0  0
    2.1737    4.3393    0.6634 O   0  0  0  0  0  0  0  0  0  0  0  0
    0.8510    4.7314    3.3110 C   0  0  0  0  0  0  0  0  0  0  0  0
    0.3987    5.4521    2.3791 O   0  0  0  0  0  0  0  0  0  0  0  0
    0.3520    4.8952    4.6013 O   0  0  0  0  0  0  0  0  0  0  0  0
    1.9698    2.6591    5.3744 C   0  0  0  0  0  0  0  0  0  0  0  0
    0.8445    2.0320    5.7448 C   0  0  0  0  0  0  0  0  0  0  0  0
   -0.1022    1.3401    4.8409 C   0  0  0  0  0  0  0  0  0  0  0  0
    0.1039    0.8882    3.2195 S   0  0  0  0  0  0  0  0  0  0  0  0
   -1.3565    0.0603    3.0006 C   0  0  0  0  0  0  0  0  0  0  0  0
   -2.0088    0.1008    4.2281 C   0  0  0  0  0  0  0  0  0  0  0  0
   -1.3271    0.8038    5.2023 C   0  0  0  0  0  0  0  0  0  0  0  0
   -2.1651    0.7489    6.6527 S   0  0  0  0  0  0  0  0  0  0  0  0
   -3.4332   -0.2082    6.0368 C   0  0  0  0  0  0  0  0  0  0  0  0
   -4.5995   -0.6760    6.8119 C   0  0  0  0  0  0  0  0  0  0  0  0
   -5.4808   -1.3787    6.2480 O   0  0  0  0  0  0  0  0  0  0  0  0
   -4.7972   -0.2828    8.2482 C   0  0  0  0  0  0  0  0  0  0  0  0
   -5.4110    1.1109    8.3454 C   0  0  0  0  0  0  0  0  0  0  0  0
   -3.1835   -0.5002    4.6881 C   0  0  0  0  0  0  0  0  0  0  0  0
   -3.9475   -1.3419    3.9488 F   0  0  0  0  0  0  0  0  0  0  0  0
   -1.7909   -0.5500    1.7376 C   0  0  0  0  0  0  0  0  0  0  0  0
   -0.7803   -1.2829    0.6111 S   0  0  0  0  0  0  0  0  0  0  0  0
   -1.9000   -1.5165   -0.6455 C   0  0  0  0  0  0  0  0  0  0  0  0
   -3.1105   -0.9772   -0.1710 C   0  0  0  0  0  0  0  0  0  0  0  0
   -3.0209   -0.4503    1.1092 C   0  0  0  0  0  0  0  0  0  0  0  0
   -4.4496    0.3129    1.5359 S   0  0  0  0  0  0  0  0  0  0  0  0
   -5.2576   -0.0857    0.0978 C   0  0  0  0  0  0  0  0  0  0  0  0
   -6.6674    0.2753   -0.1662 C   0  0  0  0  0  0  0  0  0  0  0  0
   -7.2411    1.0860    0.6091 O   0  0  0  0  0  0  0  0  0  0  0  0
   -7.4457   -0.2837   -1.3243 C   0  0  0  0  0  0  0  0  0  0  0  0
   -7.3186    0.6145   -2.5490 C   0  0  0  0  0  0  0  0  0  0  0  0
   -4.3807   -0.7915   -0.7458 C   0  0  0  0  0  0  0  0  0  0  0  0
   -4.7224   -1.1935   -1.9882 F   0  0  0  0  0  0  0  0  0  0  0  0
   -1.5481   -2.0779   -1.9750 C   0  0  0  0  0  0  0  0  0  0  0  0
   -2.5835   -2.4486   -3.2624 S   0  0  0  0  0  0  0  0  0  0  0  0
   -1.4321   -2.9606   -4.3930 C   0  0  0  0  0  0  0  0  0  0  0  0
   -0.2016   -2.8633   -3.7522 C   0  0  0  0  0  0  0  0  0  0  0  0
   -0.2777   -2.3886   -2.4551 C   0  0  0  0  0  0  0  0  0  0  0  0
    1.2647   -2.2729   -1.8087 S   0  0  0  0  0  0  0  0  0  0  0  0
    2.0621   -2.8277   -3.2037 C   0  0  0  0  0  0  0  0  0  0  0  0
    3.5325   -2.9562   -3.3036 C   0  0  0  0  0  0  0  0  0  0  0  0
    4.2399   -2.6287   -2.3132 O   0  0  0  0  0  0  0  0  0  0  0  0
    4.2255   -3.4129   -4.5558 C   0  0  0  0  0  0  0  0  0  0  0  0
    4.3905   -2.2533   -5.5348 C   0  0  0  0  0  0  0  0  0  0  0  0
    1.1044   -3.1043   -4.1960 C   0  0  0  0  0  0  0  0  0  0  0  0
    1.4023   -3.4931   -5.4587 F   0  0  0  0  0  0  0  0  0  0  0  0
   -1.7192   -3.4655   -5.7462 C   0  0  0  0  0  0  0  0  0  0  0  0
   -1.0703   -4.8669   -6.4040 S   0  0  0  0  0  0  0  0  0  0  0  0
   -1.9055   -4.8142   -7.8702 C   0  0  0  0  0  0  0  0  0  0  0  0
   -2.7338   -3.6795   -7.8601 C   0  0  0  0  0  0  0  0  0  0  0  0
   -2.6234   -2.9336   -6.6673 C   0  0  0  0  0  0  0  0  0  0  0  0
   -3.3269   -1.7458   -6.4625 O   0  0  0  0  0  0  0  0  0  0  0  0
   -3.6081   -3.2609   -8.9798 C   0  0  0  0  0  0  0  0  0  0  0  0
   -4.6192   -2.5376   -8.7596 O   0  0  0  0  0  0  0  0  0  0  0  0
   -3.3101   -3.6301  -10.2874 O   0  0  0  0  0  0  0  0  0  0  0  0
   -1.8277   -5.8511   -8.9245 C   0  0  0  0  0  0  0  0  0  0  0  0
   -0.8995   -6.8041   -8.9223 C   0  0  0  0  0  0  0  0  0  0  0  0
    8.5810    2.9605    4.1294 H   0  0  0  0  0  0  0  0  0  0  0  0
    9.7605    0.6357    4.3231 H   0  0  0  0  0  0  0  0  0  0  0  0
    8.3264   -2.5586    1.4670 H   0  0  0  0  0  0  0  0  0  0  0  0
    5.7706    1.1195   -0.4146 H   0  0  0  0  0  0  0  0  0  0  0  0
    3.6225    2.0783   -0.3948 H   0  0  0  0  0  0  0  0  0  0  0  0
    2.6477    4.2444   -0.2258 H   0  0  0  0  0  0  0  0  0  0  0  0
   -0.3664    5.5823    4.7982 H   0  0  0  0  0  0  0  0  0  0  0  0
    2.6021    3.0807    6.1445 H   0  0  0  0  0  0  0  0  0  0  0  0
    0.6116    2.0174    6.8022 H   0  0  0  0  0  0  0  0  0  0  0  0
   -5.4754   -1.0134    8.7415 H   0  0  0  0  0  0  0  0  0  0  0  0
   -3.8280   -0.3040    8.7888 H   0  0  0  0  0  0  0  0  0  0  0  0
   -5.5763    1.3720    9.4124 H   0  0  0  0  0  0  0  0  0  0  0  0
   -6.3897    1.1363    7.8207 H   0  0  0  0  0  0  0  0  0  0  0  0
   -4.7324    1.8674    7.8956 H   0  0  0  0  0  0  0  0  0  0  0  0
   -7.1143   -1.3159   -1.5647 H   0  0  0  0  0  0  0  0  0  0  0  0
   -8.5184   -0.3526   -1.0419 H   0  0  0  0  0  0  0  0  0  0  0  0
   -6.2583    0.6993   -2.8659 H   0  0  0  0  0  0  0  0  0  0  0  0
   -7.7147    1.6290   -2.3256 H   0  0  0  0  0  0  0  0  0  0  0  0
   -7.9036    0.1827   -3.3875 H   0  0  0  0  0  0  0  0  0  0  0  0
    3.6668   -4.2447   -5.0319 H   0  0  0  0  0  0  0  0  0  0  0  0
    5.2319   -3.8092   -4.2969 H   0  0  0  0  0  0  0  0  0  0  0  0
    4.9027   -2.6115   -6.4531 H   0  0  0  0  0  0  0  0  0  0  0  0
    3.3998   -1.8362   -5.8191 H   0  0  0  0  0  0  0  0  0  0  0  0
    5.0062   -1.4506   -5.0727 H   0  0  0  0  0  0  0  0  0  0  0  0
   -3.1686   -1.1530   -5.6584 H   0  0  0  0  0  0  0  0  0  0  0  0
   -3.9079   -3.3498  -11.0581 H   0  0  0  0  0  0  0  0  0  0  0  0
   -2.5534   -5.8578   -9.7267 H   0  0  0  0  0  0  0  0  0  0  0  0
   -0.1416   -6.8612   -8.1529 H   0  0  0  0  0  0  0  0  0  0  0  0
   -0.8859   -7.5413   -9.7140 H   0  0  0  0  0  0  0  0  0  0  0  0
  1  2  1  0
  2  3  1  0
  3  4  2  0
  4  5  1  0
  5  6  1  0
  4  7  1  0
  7  8  2  0
  7  9  1  0
  3 10  1  0
 10 11  2  3
 11 12  1  0
 12 13  1  0
 13 14  1  0
 14 15  2  0
 15 16  1  0
 16 17  1  0
 15 18  1  0
 18 19  2  0
 18 20  1  0
 14 21  1  0
 21 22  2  3
 22 23  1  0
 23 24  1  0
 24 25  1  0
 25 26  2  0
 26 27  1  0
 27 28  1  0
 28 29  1  0
 29 30  1  0
 30 31  2  0
 30 32  1  0
 32 33  1  0
 29 34  2  0
 34 35  1  0
 25 36  1  0
 36 37  1  0
 37 38  1  0
 38 39  2  0
 39 40  1  0
 40 41  1  0
 41 42  1  0
 42 43  1  0
 43 44  2  0
 43 45  1  0
 45 46  1  0
 42 47  2  0
 47 48  1  0
 38 49  1  0
 49 50  1  0
 50 51  1  0
 51 52  2  0
 52 53  1  0
 53 54  1  0
 54 55  1  0
 55 56  1  0
 56 57  2  0
 56 58  1  0
 58 59  1  0
 55 60  2  0
 60 61  1  0
 51 62  1  0
 62 63  1  0
 63 64  1  0
 64 65  2  0
 65 66  1  0
 66 67  1  0
 65 68  1  0
 68 69  2  0
 68 70  1  0
 64 71  1  0
 71 72  2  3
  5  1  2  0
 16 12  2  0
 27 23  2  0
 40 36  2  0
 53 49  2  0
 66 62  2  0
 34 26  1  0
 47 39  1  0
 60 52  1  0
  1 73  1  0
  6 74  1  0
  9 75  1  0
 10 76  1  0
 11 77  1  0
 17 78  1  0
 20 79  1  0
 21 80  1  0
 22 81  1  0
 32 82  1  0
 32 83  1  0
 33 84  1  0
 33 85  1  0
 33 86  1  0
 45 87  1  0
 45 88  1  0
 46 89  1  0
 46 90  1  0
 46 91  1  0
 58 92  1  0
 58 93  1  0
 59 94  1  0
 59 95  1  0
 59 96  1  0
 67 97  1  0
 70 98  1  0
 71 99  1  0
 72100  1  0
 72101  1  0
M  END

