
     RDKit          3D

134148  0  0  0  0  0  0  0  0999 V2000
    2.7401    1.4965   12.4619 C   0  0  0  0  0  0  0  0  0  0  0  0
    1.3020    0.9275   11.7848 S   0  0  0  0  0  0  0  0  0  0  0  0
    1.9101    0.3832   10.2949 C   0  0  0  0  0  0  0  0  0  0  0  0
    3.2828    0.6533   10.3292 C   0  0  0  0  0  0  0  0  0  0  0  0
    3.7012    1.2546   11.5016 C   0  0  0  0  0  0  0  0  0  0  0  0
    5.3514    1.5367   11.4725 S   0  0  0  0  0  0  0  0  0  0  0  0
    5.5679    0.8731    9.9215 C   0  0  0  0  0  0  0  0  0  0  0  0
    6.8738    0.7913    9.2383 C   0  0  0  0  0  0  0  0  0  0  0  0
    7.9232    0.9804    9.9100 O   0  0  0  0  0  0  0  0  0  0  0  0
    6.9706    0.4485    7.7720 C   0  0  0  0  0  0  0  0  0  0  0  0
    8.2911    0.8963    7.1496 C   0  0  0  0  0  0  0  0  0  0  0  0
    4.3342    0.4133    9.4314 C   0  0  0  0  0  0  0  0  0  0  0  0
    4.2081   -0.2703    8.2698 F   0  0  0  0  0  0  0  0  0  0  0  0
    1.0890   -0.1696    9.1964 C   0  0  0  0  0  0  0  0  0  0  0  0
    1.4760   -0.2184    7.5545 S   0  0  0  0  0  0  0  0  0  0  0  0
    0.0382   -0.8850    6.9590 C   0  0  0  0  0  0  0  0  0  0  0  0
   -0.7855   -1.0682    8.0733 C   0  0  0  0  0  0  0  0  0  0  0  0
   -0.2070   -0.6650    9.2668 C   0  0  0  0  0  0  0  0  0  0  0  0
   -1.2720   -0.9121   10.5386 S   0  0  0  0  0  0  0  0  0  0  0  0
   -2.5070   -1.5594    9.5665 C   0  0  0  0  0  0  0  0  0  0  0  0
   -3.8275   -2.0059   10.0560 C   0  0  0  0  0  0  0  0  0  0  0  0
   -4.6573   -2.4995    9.2462 O   0  0  0  0  0  0  0  0  0  0  0  0
   -4.2294   -1.8339   11.4935 C   0  0  0  0  0  0  0  0  0  0  0  0
   -4.7157   -0.4130   11.7530 C   0  0  0  0  0  0  0  0  0  0  0  0
   -2.0777   -1.5923    8.2318 C   0  0  0  0  0  0  0  0  0  0  0  0
   -2.8241   -2.1184    7.2333 F   0  0  0  0  0  0  0  0  0  0  0  0
   -0.2237   -1.1155    5.5250 C   0  0  0  0  0  0  0  0  0  0  0  0
    0.7697   -1.1401    4.5453 C   0  0  0  0  0  0  0  0  0  0  0  0
    0.2613   -1.2429    3.2422 C   0  0  0  0  0  0  0  0  0  0  0  0
    1.0159   -1.2356    2.0522 C   0  0  0  0  0  0  0  0  0  0  0  0
    2.4876   -1.1793    2.0665 C   0  0  0  0  0  0  0  0  0  0  0  0
    3.3983    0.1495    1.5865 S   0  0  0  0  0  0  0  0  0  0  0  0
    4.8958   -0.5078    1.9860 C   0  0  0  0  0  0  0  0  0  0  0  0
    6.1972    0.2292    1.9009 C   0  0  0  0  0  0  0  0  0  0  0  0
    6.5190    0.9075    3.2281 C   0  0  0  0  0  0  0  0  0  0  0  0
    4.6965   -1.7787    2.5230 C   0  0  0  0  0  0  0  0  0  0  0  0
    6.0002   -2.7975    3.1162 Cl  0  0  0  0  0  0  0  0  0  0  0  0
    3.3456   -2.1567    2.5645 C   0  0  0  0  0  0  0  0  0  0  0  0
    2.7924   -3.7077    3.1844 Cl  0  0  0  0  0  0  0  0  0  0  0  0
    0.2980   -1.2593    0.8452 C   0  0  0  0  0  0  0  0  0  0  0  0
   -1.0974   -1.3160    0.8028 C   0  0  0  0  0  0  0  0  0  0  0  0
   -1.8514   -1.3345    1.9935 C   0  0  0  0  0  0  0  0  0  0  0  0
   -3.3229   -1.3949    1.9765 C   0  0  0  0  0  0  0  0  0  0  0  0
   -4.3245   -0.2268    1.2945 S   0  0  0  0  0  0  0  0  0  0  0  0
   -5.7592   -1.0828    1.4920 C   0  0  0  0  0  0  0  0  0  0  0  0
   -7.0849   -0.6471    0.9451 C   0  0  0  0  0  0  0  0  0  0  0  0
   -7.1921   -0.9979   -0.5347 C   0  0  0  0  0  0  0  0  0  0  0  0
   -5.4652   -2.3144    2.0757 C   0  0  0  0  0  0  0  0  0  0  0  0
   -4.1003   -2.4849    2.3554 C   0  0  0  0  0  0  0  0  0  0  0  0
   -3.4278   -3.9664    3.0224 Cl  0  0  0  0  0  0  0  0  0  0  0  0
   -6.6714   -3.5592    2.3730 Cl  0  0  0  0  0  0  0  0  0  0  0  0
   -1.1339   -1.2919    3.2002 C   0  0  0  0  0  0  0  0  0  0  0  0
   -1.7321   -1.1961    4.7687 S   0  0  0  0  0  0  0  0  0  0  0  0
   -1.6093   -1.3561   -0.5030 C   0  0  0  0  0  0  0  0  0  0  0  0
   -0.6171   -1.3120   -1.4814 C   0  0  0  0  0  0  0  0  0  0  0  0
    0.8945   -1.2421   -0.7271 S   0  0  0  0  0  0  0  0  0  0  0  0
   -0.8237   -1.2807   -2.9404 C   0  0  0  0  0  0  0  0  0  0  0  0
    0.3841   -1.0324   -4.0941 S   0  0  0  0  0  0  0  0  0  0  0  0
   -0.5813   -1.0779   -5.4881 C   0  0  0  0  0  0  0  0  0  0  0  0
   -1.8875   -1.3004   -5.0439 C   0  0  0  0  0  0  0  0  0  0  0  0
   -2.0028   -1.3999   -3.6669 C   0  0  0  0  0  0  0  0  0  0  0  0
   -3.6037   -1.6690   -3.2426 S   0  0  0  0  0  0  0  0  0  0  0  0
   -4.1785   -1.6781   -4.8409 C   0  0  0  0  0  0  0  0  0  0  0  0
   -5.5878   -1.8808   -5.2284 C   0  0  0  0  0  0  0  0  0  0  0  0
   -5.8945   -1.9456   -6.4504 O   0  0  0  0  0  0  0  0  0  0  0  0
   -6.6546   -1.9873   -4.1669 C   0  0  0  0  0  0  0  0  0  0  0  0
   -8.0511   -2.2276   -4.7387 C   0  0  0  0  0  0  0  0  0  0  0  0
   -3.1056   -1.4730   -5.7198 C   0  0  0  0  0  0  0  0  0  0  0  0
   -3.2390   -1.5002   -7.0680 F   0  0  0  0  0  0  0  0  0  0  0  0
   -0.0945   -0.8023   -6.8536 C   0  0  0  0  0  0  0  0  0  0  0  0
   -0.9564   -0.0966   -8.1228 S   0  0  0  0  0  0  0  0  0  0  0  0
    0.3003    0.0288   -9.2547 C   0  0  0  0  0  0  0  0  0  0  0  0
    1.4386   -0.4728   -8.6148 C   0  0  0  0  0  0  0  0  0  0  0  0
    1.2052   -0.9136   -7.3237 C   0  0  0  0  0  0  0  0  0  0  0  0
    2.6265   -1.4685   -6.6294 S   0  0  0  0  0  0  0  0  0  0  0  0
    3.5859   -1.1355   -7.9906 C   0  0  0  0  0  0  0  0  0  0  0  0
    5.0392   -1.3912   -8.0471 C   0  0  0  0  0  0  0  0  0  0  0  0
    5.6359   -1.7368   -6.9898 O   0  0  0  0  0  0  0  0  0  0  0  0
    5.8152   -1.2238   -9.3288 C   0  0  0  0  0  0  0  0  0  0  0  0
    7.2158   -1.8310   -9.2597 C   0  0  0  0  0  0  0  0  0  0  0  0
    2.7843   -0.5734   -8.9990 C   0  0  0  0  0  0  0  0  0  0  0  0
    3.2794   -0.0993  -10.1646 F   0  0  0  0  0  0  0  0  0  0  0  0
    0.1348    0.5073  -10.6424 C   0  0  0  0  0  0  0  0  0  0  0  0
    1.0904    0.1249  -11.9891 S   0  0  0  0  0  0  0  0  0  0  0  0
    0.1852    0.9168  -13.1827 C   0  0  0  0  0  0  0  0  0  0  0  0
   -0.8963    1.4711  -12.5194 C   0  0  0  0  0  0  0  0  0  0  0  0
   -0.9224    1.2443  -11.1599 C   0  0  0  0  0  0  0  0  0  0  0  0
   -2.2989    1.9430  -10.4968 S   0  0  0  0  0  0  0  0  0  0  0  0
   -2.8777    2.5509  -11.9813 C   0  0  0  0  0  0  0  0  0  0  0  0
   -4.1314    3.3098  -12.1626 C   0  0  0  0  0  0  0  0  0  0  0  0
   -4.4284    3.7601  -13.3018 O   0  0  0  0  0  0  0  0  0  0  0  0
   -5.0525    3.5914  -11.0097 C   0  0  0  0  0  0  0  0  0  0  0  0
   -4.5903    4.8199  -10.2331 C   0  0  0  0  0  0  0  0  0  0  0  0
   -1.9810    2.2028  -13.0012 C   0  0  0  0  0  0  0  0  0  0  0  0
   -2.1488    2.5198  -14.3089 F   0  0  0  0  0  0  0  0  0  0  0  0
    2.8810    1.9508   13.4326 H   0  0  0  0  0  0  0  0  0  0  0  0
    6.1473    0.9470    7.2178 H   0  0  0  0  0  0  0  0  0  0  0  0
    6.8653   -0.6516    7.6499 H   0  0  0  0  0  0  0  0  0  0  0  0
    8.2921    0.6545    6.0655 H   0  0  0  0  0  0  0  0  0  0  0  0
    9.1450    0.3719    7.6278 H   0  0  0  0  0  0  0  0  0  0  0  0
    8.4180    1.9953    7.2659 H   0  0  0  0  0  0  0  0  0  0  0  0
   -3.3726   -2.0643   12.1617 H   0  0  0  0  0  0  0  0  0  0  0  0
   -5.0458   -2.5466   11.7391 H   0  0  0  0  0  0  0  0  0  0  0  0
   -3.9082    0.3215   11.5429 H   0  0  0  0  0  0  0  0  0  0  0  0
   -5.0173   -0.3105   12.8169 H   0  0  0  0  0  0  0  0  0  0  0  0
   -5.5944   -0.1821   11.1115 H   0  0  0  0  0  0  0  0  0  0  0  0
    1.8250   -1.0557    4.7713 H   0  0  0  0  0  0  0  0  0  0  0  0
    7.0140   -0.4728    1.6330 H   0  0  0  0  0  0  0  0  0  0  0  0
    6.1336    0.9990    1.1016 H   0  0  0  0  0  0  0  0  0  0  0  0
    6.5996    0.1526    4.0391 H   0  0  0  0  0  0  0  0  0  0  0  0
    5.7255    1.6407    3.4883 H   0  0  0  0  0  0  0  0  0  0  0  0
    7.4877    1.4442    3.1457 H   0  0  0  0  0  0  0  0  0  0  0  0
   -7.9120   -1.1321    1.5048 H   0  0  0  0  0  0  0  0  0  0  0  0
   -7.1875    0.4518    1.0700 H   0  0  0  0  0  0  0  0  0  0  0  0
   -6.3934   -0.4823   -1.1073 H   0  0  0  0  0  0  0  0  0  0  0  0
   -7.0974   -2.0950   -0.6814 H   0  0  0  0  0  0  0  0  0  0  0  0
   -8.1774   -0.6698   -0.9271 H   0  0  0  0  0  0  0  0  0  0  0  0
   -2.6635   -1.4062   -0.7178 H   0  0  0  0  0  0  0  0  0  0  0  0
   -6.6699   -1.0442   -3.5803 H   0  0  0  0  0  0  0  0  0  0  0  0
   -6.4035   -2.8233   -3.4796 H   0  0  0  0  0  0  0  0  0  0  0  0
   -8.7876   -2.2750   -3.9100 H   0  0  0  0  0  0  0  0  0  0  0  0
   -8.0809   -3.1897   -5.2939 H   0  0  0  0  0  0  0  0  0  0  0  0
   -8.3374   -1.3972   -5.4194 H   0  0  0  0  0  0  0  0  0  0  0  0
    5.9022   -0.1400   -9.5602 H   0  0  0  0  0  0  0  0  0  0  0  0
    5.2647   -1.7207  -10.1564 H   0  0  0  0  0  0  0  0  0  0  0  0
    7.8227   -1.3177   -8.4833 H   0  0  0  0  0  0  0  0  0  0  0  0
    7.1548   -2.9155   -9.0245 H   0  0  0  0  0  0  0  0  0  0  0  0
    7.7226   -1.7083  -10.2402 H   0  0  0  0  0  0  0  0  0  0  0  0
    0.3944    0.9619  -14.2433 H   0  0  0  0  0  0  0  0  0  0  0  0
   -6.0827    3.7683  -11.3876 H   0  0  0  0  0  0  0  0  0  0  0  0
   -5.0941    2.7149  -10.3288 H   0  0  0  0  0  0  0  0  0  0  0  0
   -5.2965    5.0203   -9.3999 H   0  0  0  0  0  0  0  0  0  0  0  0
   -3.5792    4.6513   -9.8076 H   0  0  0  0  0  0  0  0  0  0  0  0
   -4.5641    5.7090  -10.8989 H   0  0  0  0  0  0  0  0  0  0  0  0
  1  2  1  0
  2  3  1  0
  3  4  2  0
  4  5  1  0
  5  6  1  0
  6  7  1  0
  7  8  1  0
  8  9  2  0
  8 10  1  0
 10 11  1  0
  7 12  2  0
 12 13  1  0
  3 14  1  0
 14 15  1  0
 15 16  1  0
 16 17  2  0
 17 18  1  0
 18 19  1  0
 19 20  1  0
 20 21  1  0
 21 22  2  0
 21 23  1  0
 23 24  1  0
 20 25  2  0
 25 26  1  0
 16 27  1  0
 27 28  2  0
 28 29  1  0
 29 30  2  0
 30 31  1  0
 31 32  1  0
 32 33  1  0
 33 34  1  0
 34 35  1  0
 33 36  2  0
 36 37  1  0
 36 38  1  0
 38 39  1  0
 30 40  1  0
 40 41  2  0
 41 42  1  0
 42 43  1  0
 43 44  1  0
 44 45  1  0
 45 46  1  0
 46 47  1  0
 45 48  2  0
 48 49  1  0
 49 50  1  0
 48 51  1  0
 42 52  2  0
 52 53  1  0
 41 54  1  0
 54 55  2  0
 55 56  1  0
 55 57  1  0
 57 58  1  0
 58 59  1  0
 59 60  2  0
 60 61  1  0
 61 62  1  0
 62 63  1  0
 63 64  1  0
 64 65  2  0
 64 66  1  0
 66 67  1  0
 63 68  2  0
 68 69  1  0
 59 70  1  0
 70 71  1  0
 71 72  1  0
 72 73  2  0
 73 74  1  0
 74 75  1  0
 75 76  1  0
 76 77  1  0
 77 78  2  0
 77 79  1  0
 79 80  1  0
 76 81  2  0
 81 82  1  0
 72 83  1  0
 83 84  1  0
 84 85  1  0
 85 86  2  0
 86 87  1  0
 87 88  1  0
 88 89  1  0
 89 90  1  0
 90 91  2  0
 90 92  1  0
 92 93  1  0
 89 94  2  0
 94 95  1  0
  5  1  2  0
 18 14  2  0
 53 27  1  0
 61 57  2  0
 74 70  2  0
 87 83  2  0
 12  4  1  0
 25 17  1  0
 52 29  1  0
 68 60  1  0
 81 73  1  0
 94 86  1  0
 38 31  2  0
 56 40  1  0
 49 43  2  0
  1 96  1  0
 10 97  1  0
 10 98  1  0
 11 99  1  0
 11100  1  0
 11101  1  0
 23102  1  0
 23103  1  0
 24104  1  0
 24105  1  0
 24106  1  0
 28107  1  0
 34108  1  0
 34109  1  0
 35110  1  0
 35111  1  0
 35112  1  0
 46113  1  0
 46114  1  0
 47115  1  0
 47116  1  0
 47117  1  0
 54118  1  0
 66119  1  0
 66120  1  0
 67121  1  0
 67122  1  0
 67123  1  0
 79124  1  0
 79125  1  0
 80126  1  0
 80127  1  0
 80128  1  0
 85129  1  0
 92130  1  0
 92131  1  0
 93132  1  0
 93133  1  0
 93134  1  0
M  END

