
     RDKit          3D

206229  0  0  0  0  0  0  0  0999 V2000
    3.5438   -9.6296    8.7550 C   0  0  0  0  0  0  0  0  0  0  0  0
    3.6687   -8.3901    8.1326 C   0  0  0  0  0  0  0  0  0  0  0  0
    3.0334   -8.3410    6.8810 C   0  0  0  0  0  0  0  0  0  0  0  0
    2.9561   -7.2199    6.0340 C   0  0  0  0  0  0  0  0  0  0  0  0
    3.6049   -5.9399    6.3593 C   0  0  0  0  0  0  0  0  0  0  0  0
    2.9078   -4.7120    7.2754 S   0  0  0  0  0  0  0  0  0  0  0  0
    4.1335   -3.5842    7.0201 C   0  0  0  0  0  0  0  0  0  0  0  0
    4.1060   -2.1657    7.5008 C   0  0  0  0  0  0  0  0  0  0  0  0
    3.6742   -1.2214    6.3819 C   0  0  0  0  0  0  0  0  0  0  0  0
    5.0980   -4.1554    6.1879 C   0  0  0  0  0  0  0  0  0  0  0  0
    6.5214   -3.2965    5.6170 Cl  0  0  0  0  0  0  0  0  0  0  0  0
    4.7974   -5.4733    5.8156 C   0  0  0  0  0  0  0  0  0  0  0  0
    5.7861   -6.4230    4.7145 Cl  0  0  0  0  0  0  0  0  0  0  0  0
    2.2596   -7.3822    4.8271 C   0  0  0  0  0  0  0  0  0  0  0  0
    1.6603   -8.5884    4.4533 C   0  0  0  0  0  0  0  0  0  0  0  0
    1.7232   -9.7091    5.3066 C   0  0  0  0  0  0  0  0  0  0  0  0
    1.0062  -10.9587    5.0041 C   0  0  0  0  0  0  0  0  0  0  0  0
   -0.6693  -11.0923    4.9250 S   0  0  0  0  0  0  0  0  0  0  0  0
   -0.7066  -12.7540    4.6642 C   0  0  0  0  0  0  0  0  0  0  0  0
   -1.9548  -13.5614    4.5086 C   0  0  0  0  0  0  0  0  0  0  0  0
   -2.2874  -13.7926    3.0370 C   0  0  0  0  0  0  0  0  0  0  0  0
    0.6042  -13.2259    4.6118 C   0  0  0  0  0  0  0  0  0  0  0  0
    1.5656  -12.2218    4.8091 C   0  0  0  0  0  0  0  0  0  0  0  0
    3.2999  -12.5207    4.7677 Cl  0  0  0  0  0  0  0  0  0  0  0  0
    1.0156  -14.9128    4.3391 Cl  0  0  0  0  0  0  0  0  0  0  0  0
    2.4279   -9.5485    6.5155 C   0  0  0  0  0  0  0  0  0  0  0  0
    2.6531  -10.6603    7.7598 S   0  0  0  0  0  0  0  0  0  0  0  0
    1.0214   -8.5209    3.2019 C   0  0  0  0  0  0  0  0  0  0  0  0
    1.0931   -7.2502    2.6351 C   0  0  0  0  0  0  0  0  0  0  0  0
    1.9547   -6.2189    3.6552 S   0  0  0  0  0  0  0  0  0  0  0  0
    0.4419   -6.8114    1.3980 C   0  0  0  0  0  0  0  0  0  0  0  0
   -0.1905   -5.5837    1.2506 C   0  0  0  0  0  0  0  0  0  0  0  0
   -0.6711   -5.3731   -0.0457 C   0  0  0  0  0  0  0  0  0  0  0  0
   -1.3386   -4.2222   -0.4949 C   0  0  0  0  0  0  0  0  0  0  0  0
   -1.6119   -3.0835    0.4054 C   0  0  0  0  0  0  0  0  0  0  0  0
   -2.6284   -3.1544    1.7457 S   0  0  0  0  0  0  0  0  0  0  0  0
   -2.2814   -1.6062    2.3108 C   0  0  0  0  0  0  0  0  0  0  0  0
   -2.8886   -0.9949    3.5378 C   0  0  0  0  0  0  0  0  0  0  0  0
   -4.0928   -0.1346    3.1713 C   0  0  0  0  0  0  0  0  0  0  0  0
   -1.3661   -1.0062    1.4459 C   0  0  0  0  0  0  0  0  0  0  0  0
   -0.7264    0.6145    1.6823 Cl  0  0  0  0  0  0  0  0  0  0  0  0
   -0.9849   -1.8397    0.3812 C   0  0  0  0  0  0  0  0  0  0  0  0
    0.2342   -1.3887   -0.8051 Cl  0  0  0  0  0  0  0  0  0  0  0  0
   -1.6625   -4.1717   -1.8575 C   0  0  0  0  0  0  0  0  0  0  0  0
   -1.2983   -5.1743   -2.7653 C   0  0  0  0  0  0  0  0  0  0  0  0
   -0.6434   -6.3407   -2.3089 C   0  0  0  0  0  0  0  0  0  0  0  0
   -0.2298   -7.4133   -3.2313 C   0  0  0  0  0  0  0  0  0  0  0  0
    0.9442   -7.2544   -4.4265 S   0  0  0  0  0  0  0  0  0  0  0  0
    0.8286   -8.8335   -5.0033 C   0  0  0  0  0  0  0  0  0  0  0  0
    1.5946   -9.3706   -6.1724 C   0  0  0  0  0  0  0  0  0  0  0  0
    0.8093   -9.1922   -7.4671 C   0  0  0  0  0  0  0  0  0  0  0  0
   -0.1526   -9.5017   -4.2746 C   0  0  0  0  0  0  0  0  0  0  0  0
   -0.7397   -8.7079   -3.2756 C   0  0  0  0  0  0  0  0  0  0  0  0
   -2.0306   -9.2783   -2.2252 Cl  0  0  0  0  0  0  0  0  0  0  0  0
   -0.6364  -11.1616   -4.5941 Cl  0  0  0  0  0  0  0  0  0  0  0  0
   -0.3677   -6.4175   -0.9279 C   0  0  0  0  0  0  0  0  0  0  0  0
    0.4481   -7.6282   -0.0804 S   0  0  0  0  0  0  0  0  0  0  0  0
   -1.6253   -4.8515   -4.0984 C   0  0  0  0  0  0  0  0  0  0  0  0
   -2.2961   -3.6317   -4.2071 C   0  0  0  0  0  0  0  0  0  0  0  0
   -2.4363   -2.9331   -2.6779 S   0  0  0  0  0  0  0  0  0  0  0  0
   -2.4597   -2.8393   -5.4250 C   0  0  0  0  0  0  0  0  0  0  0  0
   -3.4764   -1.8932   -5.5587 C   0  0  0  0  0  0  0  0  0  0  0  0
   -3.0949   -0.7491   -6.2802 C   0  0  0  0  0  0  0  0  0  0  0  0
   -3.8080    0.4685   -6.3534 C   0  0  0  0  0  0  0  0  0  0  0  0
   -5.2242    0.5936   -5.9426 C   0  0  0  0  0  0  0  0  0  0  0  0
   -5.8533    0.2592   -4.4152 S   0  0  0  0  0  0  0  0  0  0  0  0
   -7.4616    0.5782   -4.8040 C   0  0  0  0  0  0  0  0  0  0  0  0
   -8.6145    0.4581   -3.8499 C   0  0  0  0  0  0  0  0  0  0  0  0
   -9.0463    1.8281   -3.3383 C   0  0  0  0  0  0  0  0  0  0  0  0
   -7.5250    0.9788   -6.1368 C   0  0  0  0  0  0  0  0  0  0  0  0
   -9.0190    1.4334   -6.9465 Cl  0  0  0  0  0  0  0  0  0  0  0  0
   -6.2726    0.9918   -6.7716 C   0  0  0  0  0  0  0  0  0  0  0  0
   -6.0572    1.4437   -8.4595 Cl  0  0  0  0  0  0  0  0  0  0  0  0
   -3.0878    1.5935   -6.7975 C   0  0  0  0  0  0  0  0  0  0  0  0
   -1.7654    1.5102   -7.2467 C   0  0  0  0  0  0  0  0  0  0  0  0
   -1.1004    0.2675   -7.2967 C   0  0  0  0  0  0  0  0  0  0  0  0
    0.3187    0.1518   -7.6824 C   0  0  0  0  0  0  0  0  0  0  0  0
    1.6069    0.8255   -6.8360 S   0  0  0  0  0  0  0  0  0  0  0  0
    2.8100    0.2740   -7.8744 C   0  0  0  0  0  0  0  0  0  0  0  0
    4.2588    0.6331   -7.7473 C   0  0  0  0  0  0  0  0  0  0  0  0
    4.5532    1.9405   -8.4742 C   0  0  0  0  0  0  0  0  0  0  0  0
    2.2128   -0.4454   -8.9098 C   0  0  0  0  0  0  0  0  0  0  0  0
    0.8148   -0.5271   -8.7903 C   0  0  0  0  0  0  0  0  0  0  0  0
   -0.2086   -1.3747   -9.9421 Cl  0  0  0  0  0  0  0  0  0  0  0  0
    3.1089   -1.1673  -10.2403 Cl  0  0  0  0  0  0  0  0  0  0  0  0
   -1.7888   -0.8364   -6.7731 C   0  0  0  0  0  0  0  0  0  0  0  0
   -1.1141   -2.2949   -6.2787 S   0  0  0  0  0  0  0  0  0  0  0  0
   -1.1549    2.7642   -7.3871 C   0  0  0  0  0  0  0  0  0  0  0  0
   -1.9406    3.8251   -6.9427 C   0  0  0  0  0  0  0  0  0  0  0  0
   -3.4508    3.2115   -6.5014 S   0  0  0  0  0  0  0  0  0  0  0  0
   -1.3219    4.9322   -6.2075 C   0  0  0  0  0  0  0  0  0  0  0  0
   -0.0877    4.6906   -5.0893 S   0  0  0  0  0  0  0  0  0  0  0  0
   -0.1851    6.1523   -4.2460 C   0  0  0  0  0  0  0  0  0  0  0  0
   -1.2082    6.8757   -4.8799 C   0  0  0  0  0  0  0  0  0  0  0  0
   -1.8311    6.1819   -5.9076 C   0  0  0  0  0  0  0  0  0  0  0  0
   -3.0874    7.0808   -6.5577 S   0  0  0  0  0  0  0  0  0  0  0  0
   -2.8183    8.4237   -5.5460 C   0  0  0  0  0  0  0  0  0  0  0  0
   -3.5776    9.6928   -5.6020 C   0  0  0  0  0  0  0  0  0  0  0  0
   -3.3411   10.5940   -4.7531 O   0  0  0  0  0  0  0  0  0  0  0  0
   -4.6420    9.9320   -6.6336 C   0  0  0  0  0  0  0  0  0  0  0  0
   -5.9716    9.3226   -6.2018 C   0  0  0  0  0  0  0  0  0  0  0  0
   -1.7438    8.1558   -4.6820 C   0  0  0  0  0  0  0  0  0  0  0  0
   -1.2078    9.0903   -3.8618 F   0  0  0  0  0  0  0  0  0  0  0  0
    0.4496    6.3222   -2.9209 C   0  0  0  0  0  0  0  0  0  0  0  0
    0.0580    7.1734   -1.8823 C   0  0  0  0  0  0  0  0  0  0  0  0
    0.6773    6.8757   -0.6528 C   0  0  0  0  0  0  0  0  0  0  0  0
    0.4636    7.5446    0.5719 C   0  0  0  0  0  0  0  0  0  0  0  0
   -0.2630    8.8272    0.6415 C   0  0  0  0  0  0  0  0  0  0  0  0
   -1.5740    9.1554    1.6474 S   0  0  0  0  0  0  0  0  0  0  0  0
   -1.7523   10.7664    1.1971 C   0  0  0  0  0  0  0  0  0  0  0  0
   -2.7255   11.7185    1.8232 C   0  0  0  0  0  0  0  0  0  0  0  0
   -2.1062   12.3982    3.0410 C   0  0  0  0  0  0  0  0  0  0  0  0
   -0.7638   11.0795    0.2660 C   0  0  0  0  0  0  0  0  0  0  0  0
   -0.5374   12.6899   -0.4103 Cl  0  0  0  0  0  0  0  0  0  0  0  0
    0.0644    9.9930   -0.0500 C   0  0  0  0  0  0  0  0  0  0  0  0
    1.4440   10.1296   -1.1383 Cl  0  0  0  0  0  0  0  0  0  0  0  0
    1.0089    6.9395    1.7214 C   0  0  0  0  0  0  0  0  0  0  0  0
    1.7590    5.7595    1.6655 C   0  0  0  0  0  0  0  0  0  0  0  0
    2.0598    5.1540    0.4293 C   0  0  0  0  0  0  0  0  0  0  0  0
    2.8844    3.9288    0.3471 C   0  0  0  0  0  0  0  0  0  0  0  0
    2.3238    2.4269   -0.1769 S   0  0  0  0  0  0  0  0  0  0  0  0
    3.7455    1.5884    0.1517 C   0  0  0  0  0  0  0  0  0  0  0  0
    3.9186    0.1089   -0.0094 C   0  0  0  0  0  0  0  0  0  0  0  0
    3.6105   -0.6200    1.2956 C   0  0  0  0  0  0  0  0  0  0  0  0
    4.6754    2.4738    0.6949 C   0  0  0  0  0  0  0  0  0  0  0  0
    4.1924    3.7850    0.7991 C   0  0  0  0  0  0  0  0  0  0  0  0
    5.1580    5.1171    1.4238 Cl  0  0  0  0  0  0  0  0  0  0  0  0
    6.2786    1.9906    1.2336 Cl  0  0  0  0  0  0  0  0  0  0  0  0
    1.4940    5.7440   -0.7112 C   0  0  0  0  0  0  0  0  0  0  0  0
    1.5265    5.1811   -2.2868 S   0  0  0  0  0  0  0  0  0  0  0  0
    2.0934    5.2542    2.9323 C   0  0  0  0  0  0  0  0  0  0  0  0
    1.6461    6.0598    3.9730 C   0  0  0  0  0  0  0  0  0  0  0  0
    0.8302    7.3925    3.3356 S   0  0  0  0  0  0  0  0  0  0  0  0
    1.7293    5.7270    5.3981 C   0  0  0  0  0  0  0  0  0  0  0  0
    1.7977    6.8163    6.6925 S   0  0  0  0  0  0  0  0  0  0  0  0
    1.6931    5.6810    7.9539 C   0  0  0  0  0  0  0  0  0  0  0  0
    1.5741    4.4422    7.3418 C   0  0  0  0  0  0  0  0  0  0  0  0
    1.6039    4.4747    5.9664 C   0  0  0  0  0  0  0  0  0  0  0  0
    1.3003    2.9461    5.3475 S   0  0  0  0  0  0  0  0  0  0  0  0
    1.1453    2.2088    6.8762 C   0  0  0  0  0  0  0  0  0  0  0  0
    0.7937    0.7867    7.0642 C   0  0  0  0  0  0  0  0  0  0  0  0
    0.5427    0.0856    6.0429 O   0  0  0  0  0  0  0  0  0  0  0  0
    0.7468    0.1662    8.4374 C   0  0  0  0  0  0  0  0  0  0  0  0
    0.2984   -1.2968    8.4165 C   0  0  0  0  0  0  0  0  0  0  0  0
    1.3323    3.1789    7.8773 C   0  0  0  0  0  0  0  0  0  0  0  0
    1.2312    2.9476    9.2105 F   0  0  0  0  0  0  0  0  0  0  0  0
    3.9508   -9.8868    9.7249 H   0  0  0  0  0  0  0  0  0  0  0  0
    4.1880   -7.5529    8.5813 H   0  0  0  0  0  0  0  0  0  0  0  0
    5.1160   -1.8708    7.8615 H   0  0  0  0  0  0  0  0  0  0  0  0
    3.3958   -2.0744    8.3492 H   0  0  0  0  0  0  0  0  0  0  0  0
    3.5686   -0.1909    6.7781 H   0  0  0  0  0  0  0  0  0  0  0  0
    2.6996   -1.5451    5.9604 H   0  0  0  0  0  0  0  0  0  0  0  0
    4.4301   -1.2094    5.5712 H   0  0  0  0  0  0  0  0  0  0  0  0
   -1.8325  -14.5402    5.0254 H   0  0  0  0  0  0  0  0  0  0  0  0
   -2.8010  -13.0333    4.9960 H   0  0  0  0  0  0  0  0  0  0  0  0
   -1.4415  -14.2869    2.5165 H   0  0  0  0  0  0  0  0  0  0  0  0
   -2.5186  -12.8271    2.5396 H   0  0  0  0  0  0  0  0  0  0  0  0
   -3.1788  -14.4492    2.9595 H   0  0  0  0  0  0  0  0  0  0  0  0
    0.4981   -9.3487    2.7413 H   0  0  0  0  0  0  0  0  0  0  0  0
   -0.2881   -4.8697    2.0601 H   0  0  0  0  0  0  0  0  0  0  0  0
   -3.2165   -1.8010    4.2315 H   0  0  0  0  0  0  0  0  0  0  0  0
   -2.1306   -0.3760    4.0642 H   0  0  0  0  0  0  0  0  0  0  0  0
   -4.5133    0.3279    4.0889 H   0  0  0  0  0  0  0  0  0  0  0  0
   -4.8775   -0.7599    2.6933 H   0  0  0  0  0  0  0  0  0  0  0  0
   -3.7938    0.6765    2.4737 H   0  0  0  0  0  0  0  0  0  0  0  0
    1.8204  -10.4456   -6.0182 H   0  0  0  0  0  0  0  0  0  0  0  0
    2.5633   -8.8345   -6.2563 H   0  0  0  0  0  0  0  0  0  0  0  0
    0.6235   -8.1137   -7.6590 H   0  0  0  0  0  0  0  0  0  0  0  0
    1.3913   -9.6124   -8.3154 H   0  0  0  0  0  0  0  0  0  0  0  0
   -0.1613   -9.7287   -7.4057 H   0  0  0  0  0  0  0  0  0  0  0  0
   -1.3587   -5.4510   -4.9583 H   0  0  0  0  0  0  0  0  0  0  0  0
   -4.3969   -1.9697   -5.0033 H   0  0  0  0  0  0  0  0  0  0  0  0
   -9.4685   -0.0384   -4.3586 H   0  0  0  0  0  0  0  0  0  0  0  0
   -8.3211   -0.1736   -2.9849 H   0  0  0  0  0  0  0  0  0  0  0  0
   -8.2077    2.3176   -2.7972 H   0  0  0  0  0  0  0  0  0  0  0  0
   -9.9020    1.7107   -2.6395 H   0  0  0  0  0  0  0  0  0  0  0  0
   -9.3736    2.4750   -4.1792 H   0  0  0  0  0  0  0  0  0  0  0  0
    4.5131    0.7402   -6.6708 H   0  0  0  0  0  0  0  0  0  0  0  0
    4.8913   -0.1756   -8.1634 H   0  0  0  0  0  0  0  0  0  0  0  0
    5.6240    2.2061   -8.3373 H   0  0  0  0  0  0  0  0  0  0  0  0
    4.3455    1.8333   -9.5608 H   0  0  0  0  0  0  0  0  0  0  0  0
    3.9261    2.7612   -8.0635 H   0  0  0  0  0  0  0  0  0  0  0  0
   -0.1046    2.8909   -7.6029 H   0  0  0  0  0  0  0  0  0  0  0  0
   -4.3268    9.5038   -7.6085 H   0  0  0  0  0  0  0  0  0  0  0  0
   -4.7783   11.0253   -6.7813 H   0  0  0  0  0  0  0  0  0  0  0  0
   -6.7299    9.4920   -6.9961 H   0  0  0  0  0  0  0  0  0  0  0  0
   -6.3252    9.8020   -5.2655 H   0  0  0  0  0  0  0  0  0  0  0  0
   -5.8686    8.2280   -6.0344 H   0  0  0  0  0  0  0  0  0  0  0  0
   -0.7263    7.9068   -1.9628 H   0  0  0  0  0  0  0  0  0  0  0  0
   -3.6334   11.1617    2.1331 H   0  0  0  0  0  0  0  0  0  0  0  0
   -3.0329   12.4908    1.0851 H   0  0  0  0  0  0  0  0  0  0  0  0
   -1.2004   12.9709    2.7456 H   0  0  0  0  0  0  0  0  0  0  0  0
   -1.8249   11.6406    3.8058 H   0  0  0  0  0  0  0  0  0  0  0  0
   -2.8392   13.1012    3.4880 H   0  0  0  0  0  0  0  0  0  0  0  0
    3.2421   -0.2637   -0.8082 H   0  0  0  0  0  0  0  0  0  0  0  0
    4.9613   -0.1164   -0.3220 H   0  0  0  0  0  0  0  0  0  0  0  0
    3.7597   -1.7109    1.1606 H   0  0  0  0  0  0  0  0  0  0  0  0
    4.2918   -0.2729    2.1027 H   0  0  0  0  0  0  0  0  0  0  0  0
    2.5562   -0.4362    1.6016 H   0  0  0  0  0  0  0  0  0  0  0  0
    2.6252    4.3246    3.0907 H   0  0  0  0  0  0  0  0  0  0  0  0
    1.6685    5.8864    9.0168 H   0  0  0  0  0  0  0  0  0  0  0  0
    1.7575    0.2285    8.8963 H   0  0  0  0  0  0  0  0  0  0  0  0
    0.0382    0.7378    9.0741 H   0  0  0  0  0  0  0  0  0  0  0  0
   -0.7489   -1.3680    8.0572 H   0  0  0  0  0  0  0  0  0  0  0  0
    0.3459   -1.7127    9.4425 H   0  0  0  0  0  0  0  0  0  0  0  0
    0.9579   -1.9001    7.7601 H   0  0  0  0  0  0  0  0  0  0  0  0
  1  2  2  0
  2  3  1  0
  3  4  2  0
  4  5  1  0
  5  6  1  0
  6  7  1  0
  7  8  1  0
  8  9  1  0
  7 10  2  0
 10 11  1  0
 10 12  1  0
 12 13  1  0
  4 14  1  0
 14 15  2  0
 15 16  1  0
 16 17  1  0
 17 18  1  0
 18 19  1  0
 19 20  1  0
 20 21  1  0
 19 22  2  0
 22 23  1  0
 23 24  1  0
 22 25  1  0
 16 26  2  0
 26 27  1  0
 15 28  1  0
 28 29  2  0
 29 30  1  0
 29 31  1  0
 31 32  2  0
 32 33  1  0
 33 34  2  0
 34 35  1  0
 35 36  1  0
 36 37  1  0
 37 38  1  0
 38 39  1  0
 37 40  2  0
 40 41  1  0
 40 42  1  0
 42 43  1  0
 34 44  1  0
 44 45  2  0
 45 46  1  0
 46 47  1  0
 47 48  1  0
 48 49  1  0
 49 50  1  0
 50 51  1  0
 49 52  2  0
 52 53  1  0
 53 54  1  0
 52 55  1  0
 46 56  2  0
 56 57  1  0
 45 58  1  0
 58 59  2  0
 59 60  1  0
 59 61  1  0
 61 62  2  0
 62 63  1  0
 63 64  2  0
 64 65  1  0
 65 66  1  0
 66 67  1  0
 67 68  1  0
 68 69  1  0
 67 70  2  0
 70 71  1  0
 70 72  1  0
 72 73  1  0
 64 74  1  0
 74 75  2  0
 75 76  1  0
 76 77  1  0
 77 78  1  0
 78 79  1  0
 79 80  1  0
 80 81  1  0
 79 82  2  0
 82 83  1  0
 83 84  1  0
 82 85  1  0
 76 86  2  0
 86 87  1  0
 75 88  1  0
 88 89  2  0
 89 90  1  0
 89 91  1  0
 91 92  1  0
 92 93  1  0
 93 94  2  0
 94 95  1  0
 95 96  1  0
 96 97  1  0
 97 98  1  0
 98 99  2  0
 98100  1  0
100101  1  0
 97102  2  0
102103  1  0
 93104  1  0
104105  2  0
105106  1  0
106107  2  0
107108  1  0
108109  1  0
109110  1  0
110111  1  0
111112  1  0
110113  2  0
113114  1  0
113115  1  0
115116  1  0
107117  1  0
117118  2  0
118119  1  0
119120  1  0
120121  1  0
121122  1  0
122123  1  0
123124  1  0
122125  2  0
125126  1  0
126127  1  0
125128  1  0
119129  2  0
129130  1  0
118131  1  0
131132  2  0
132133  1  0
132134  1  0
134135  1  0
135136  1  0
136137  2  0
137138  1  0
138139  1  0
139140  1  0
140141  1  0
141142  2  0
141143  1  0
143144  1  0
140145  2  0
145146  1  0
 27  1  1  0
 57 31  1  0
 87 61  1  0
 95 91  2  0
130104  1  0
138134  2  0
 26  3  1  0
 56 33  1  0
 86 63  1  0
102 94  1  0
129106  1  0
145137  1  0
 12  5  2  0
 30 14  1  0
 42 35  2  0
 60 44  1  0
 72 65  2  0
 90 74  1  0
115108  2  0
133117  1  0
 23 17  2  0
 53 47  2  0
 83 77  2  0
126120  2  0
  1147  1  0
  2148  1  0
  8149  1  0
  8150  1  0
  9151  1  0
  9152  1  0
  9153  1  0
 20154  1  0
 20155  1  0
 21156  1  0
 21157  1  0
 21158  1  0
 28159  1  0
 32160  1  0
 38161  1  0
 38162  1  0
 39163  1  0
 39164  1  0
 39165  1  0
 50166  1  0
 50167  1  0
 51168  1  0
 51169  1  0
 51170  1  0
 58171  1  0
 62172  1  0
 68173  1  0
 68174  1  0
 69175  1  0
 69176  1  0
 69177  1  0
 80178  1  0
 80179  1  0
 81180  1  0
 81181  1  0
 81182  1  0
 88183  1  0
100184  1  0
100185  1  0
101186  1  0
101187  1  0
101188  1  0
105189  1  0
111190  1  0
111191  1  0
112192  1  0
112193  1  0
112194  1  0
123195  1  0
123196  1  0
124197  1  0
124198  1  0
124199  1  0
131200  1  0
136201  1  0
143202  1  0
143203  1  0
144204  1  0
144205  1  0
144206  1  0
M  END

