
     RDKit          3D

158175  0  0  0  0  0  0  0  0999 V2000
    4.8564   -3.9514   12.8462 C   0  0  0  0  0  0  0  0  0  0  0  0
    5.0412   -4.8551   11.4269 S   0  0  0  0  0  0  0  0  0  0  0  0
    3.8452   -4.0973   10.4963 C   0  0  0  0  0  0  0  0  0  0  0  0
    3.3055   -3.0934   11.3002 C   0  0  0  0  0  0  0  0  0  0  0  0
    3.8541   -3.0419   12.5643 C   0  0  0  0  0  0  0  0  0  0  0  0
    3.1968   -1.7737   13.4420 S   0  0  0  0  0  0  0  0  0  0  0  0
    2.1851   -1.2511   12.1733 C   0  0  0  0  0  0  0  0  0  0  0  0
    1.2811   -0.0844   12.2323 C   0  0  0  0  0  0  0  0  0  0  0  0
    0.6155    0.2373   11.2089 O   0  0  0  0  0  0  0  0  0  0  0  0
    1.1380    0.7057   13.5092 C   0  0  0  0  0  0  0  0  0  0  0  0
    0.2175    1.9162   13.3673 C   0  0  0  0  0  0  0  0  0  0  0  0
    2.3751   -2.0758   11.0544 C   0  0  0  0  0  0  0  0  0  0  0  0
    1.7865   -1.8494    9.8553 F   0  0  0  0  0  0  0  0  0  0  0  0
    3.5032   -4.4438    9.1088 C   0  0  0  0  0  0  0  0  0  0  0  0
    2.2353   -4.3716    8.5370 C   0  0  0  0  0  0  0  0  0  0  0  0
    2.2344   -4.6891    7.1707 C   0  0  0  0  0  0  0  0  0  0  0  0
    1.1353   -4.5944    6.2999 C   0  0  0  0  0  0  0  0  0  0  0  0
   -0.1870   -4.1403    6.7627 C   0  0  0  0  0  0  0  0  0  0  0  0
   -1.2555   -5.0650    7.6715 S   0  0  0  0  0  0  0  0  0  0  0  0
   -2.4864   -3.9165    7.7171 C   0  0  0  0  0  0  0  0  0  0  0  0
   -3.8374   -4.1412    8.3283 C   0  0  0  0  0  0  0  0  0  0  0  0
   -4.8036   -4.7230    7.3021 C   0  0  0  0  0  0  0  0  0  0  0  0
   -2.0773   -2.7934    6.9973 C   0  0  0  0  0  0  0  0  0  0  0  0
   -3.0855   -1.3737    6.7534 Cl  0  0  0  0  0  0  0  0  0  0  0  0
   -0.7831   -2.9165    6.4697 C   0  0  0  0  0  0  0  0  0  0  0  0
    0.0134   -1.6474    5.5510 Cl  0  0  0  0  0  0  0  0  0  0  0  0
    1.3757   -4.8593    4.9441 C   0  0  0  0  0  0  0  0  0  0  0  0
    2.6357   -5.2094    4.4495 C   0  0  0  0  0  0  0  0  0  0  0  0
    3.7339   -5.3216    5.3262 C   0  0  0  0  0  0  0  0  0  0  0  0
    5.0843   -5.6556    4.8474 C   0  0  0  0  0  0  0  0  0  0  0  0
    6.0345   -4.6628    3.8782 S   0  0  0  0  0  0  0  0  0  0  0  0
    7.3709   -5.6837    3.8380 C   0  0  0  0  0  0  0  0  0  0  0  0
    8.6724   -5.3555    3.1707 C   0  0  0  0  0  0  0  0  0  0  0  0
    9.6451   -4.7332    4.1659 C   0  0  0  0  0  0  0  0  0  0  0  0
    7.0952   -6.8140    4.6066 C   0  0  0  0  0  0  0  0  0  0  0  0
    5.8105   -6.7989    5.1695 C   0  0  0  0  0  0  0  0  0  0  0  0
    5.1713   -8.1002    6.1630 Cl  0  0  0  0  0  0  0  0  0  0  0  0
    8.2390   -8.1270    4.8536 Cl  0  0  0  0  0  0  0  0  0  0  0  0
    3.4958   -5.0482    6.6851 C   0  0  0  0  0  0  0  0  0  0  0  0
    4.6121   -4.9539    7.9422 S   0  0  0  0  0  0  0  0  0  0  0  0
    2.6567   -5.3637    3.0503 C   0  0  0  0  0  0  0  0  0  0  0  0
    1.4166   -5.1061    2.4630 C   0  0  0  0  0  0  0  0  0  0  0  0
    0.3005   -4.7215    3.6674 S   0  0  0  0  0  0  0  0  0  0  0  0
    1.1444   -4.9143    1.0328 C   0  0  0  0  0  0  0  0  0  0  0  0
   -0.0479   -3.8919    0.4349 S   0  0  0  0  0  0  0  0  0  0  0  0
    0.3339   -3.9660   -1.2126 C   0  0  0  0  0  0  0  0  0  0  0  0
    1.4276   -4.8403   -1.3077 C   0  0  0  0  0  0  0  0  0  0  0  0
    1.8574   -5.3314   -0.0815 C   0  0  0  0  0  0  0  0  0  0  0  0
    3.1837   -6.3367   -0.2817 S   0  0  0  0  0  0  0  0  0  0  0  0
    3.2270   -6.1687   -1.9740 C   0  0  0  0  0  0  0  0  0  0  0  0
    4.2136   -6.8463   -2.8403 C   0  0  0  0  0  0  0  0  0  0  0  0
    5.1628   -7.4766   -2.3002 O   0  0  0  0  0  0  0  0  0  0  0  0
    4.1244   -6.7619   -4.3452 C   0  0  0  0  0  0  0  0  0  0  0  0
    5.0666   -7.7353   -5.0519 C   0  0  0  0  0  0  0  0  0  0  0  0
    2.1960   -5.3054   -2.3850 C   0  0  0  0  0  0  0  0  0  0  0  0
    1.9751   -4.9755   -3.6769 F   0  0  0  0  0  0  0  0  0  0  0  0
   -0.3217   -3.0972   -2.2140 C   0  0  0  0  0  0  0  0  0  0  0  0
   -1.2593   -2.1225   -1.8736 C   0  0  0  0  0  0  0  0  0  0  0  0
   -1.6686   -1.3331   -2.9534 C   0  0  0  0  0  0  0  0  0  0  0  0
   -2.5374   -0.2292   -2.8831 C   0  0  0  0  0  0  0  0  0  0  0  0
   -3.1374    0.2065   -1.6075 C   0  0  0  0  0  0  0  0  0  0  0  0
   -4.1896   -0.7150   -0.6717 S   0  0  0  0  0  0  0  0  0  0  0  0
   -4.2910    0.3722    0.6097 C   0  0  0  0  0  0  0  0  0  0  0  0
   -5.0245    0.1092    1.8922 C   0  0  0  0  0  0  0  0  0  0  0  0
   -4.1271   -0.6228    2.8858 C   0  0  0  0  0  0  0  0  0  0  0  0
   -3.4743    1.4675    0.3302 C   0  0  0  0  0  0  0  0  0  0  0  0
   -3.2348    2.8101    1.4398 Cl  0  0  0  0  0  0  0  0  0  0  0  0
   -2.8318    1.3767   -0.9147 C   0  0  0  0  0  0  0  0  0  0  0  0
   -1.6733    2.5684   -1.4926 Cl  0  0  0  0  0  0  0  0  0  0  0  0
   -2.7551    0.4787   -4.0734 C   0  0  0  0  0  0  0  0  0  0  0  0
   -2.1438    0.1329   -5.2833 C   0  0  0  0  0  0  0  0  0  0  0  0
   -1.2732   -0.9772   -5.3525 C   0  0  0  0  0  0  0  0  0  0  0  0
   -0.5926   -1.3623   -6.6022 C   0  0  0  0  0  0  0  0  0  0  0  0
    0.5018   -0.3964   -7.4397 S   0  0  0  0  0  0  0  0  0  0  0  0
    0.7858   -1.4893   -8.6878 C   0  0  0  0  0  0  0  0  0  0  0  0
    1.7274   -1.2552   -9.8320 C   0  0  0  0  0  0  0  0  0  0  0  0
    3.0728   -1.9235   -9.5707 C   0  0  0  0  0  0  0  0  0  0  0  0
    0.0356   -2.6413   -8.4534 C   0  0  0  0  0  0  0  0  0  0  0  0
   -0.7403   -2.5682   -7.2852 C   0  0  0  0  0  0  0  0  0  0  0  0
   -1.8365   -3.8442   -6.7764 Cl  0  0  0  0  0  0  0  0  0  0  0  0
    0.0458   -4.0420   -9.5176 Cl  0  0  0  0  0  0  0  0  0  0  0  0
   -1.0583   -1.6892   -4.1580 C   0  0  0  0  0  0  0  0  0  0  0  0
   -0.0029   -2.9693   -3.8685 S   0  0  0  0  0  0  0  0  0  0  0  0
   -2.4976    0.9900   -6.3401 C   0  0  0  0  0  0  0  0  0  0  0  0
   -3.3784    1.9999   -5.9507 C   0  0  0  0  0  0  0  0  0  0  0  0
   -3.7268    1.8279   -4.3084 S   0  0  0  0  0  0  0  0  0  0  0  0
   -3.8494    3.1001   -6.8081 C   0  0  0  0  0  0  0  0  0  0  0  0
   -3.2684    3.4810   -8.3554 S   0  0  0  0  0  0  0  0  0  0  0  0
   -4.1506    4.9085   -8.5867 C   0  0  0  0  0  0  0  0  0  0  0  0
   -4.9164    5.0924   -7.4412 C   0  0  0  0  0  0  0  0  0  0  0  0
   -4.7441    4.1127   -6.4866 C   0  0  0  0  0  0  0  0  0  0  0  0
   -5.7007    4.4463   -5.1481 S   0  0  0  0  0  0  0  0  0  0  0  0
   -6.3701    5.8684   -5.8048 C   0  0  0  0  0  0  0  0  0  0  0  0
   -7.3522    6.7394   -5.1287 C   0  0  0  0  0  0  0  0  0  0  0  0
   -7.7713    7.7759   -5.7102 O   0  0  0  0  0  0  0  0  0  0  0  0
   -7.8289    6.4439   -3.7356 C   0  0  0  0  0  0  0  0  0  0  0  0
   -6.8360    6.9674   -2.7020 C   0  0  0  0  0  0  0  0  0  0  0  0
   -5.8373    6.0813   -7.0839 C   0  0  0  0  0  0  0  0  0  0  0  0
   -6.2098    7.0992   -7.8994 F   0  0  0  0  0  0  0  0  0  0  0  0
   -3.9422    5.8618   -9.6807 C   0  0  0  0  0  0  0  0  0  0  0  0
   -3.8314    5.5026  -11.3305 S   0  0  0  0  0  0  0  0  0  0  0  0
   -3.4058    7.0533  -11.8817 C   0  0  0  0  0  0  0  0  0  0  0  0
   -3.3196    7.8465  -10.7461 C   0  0  0  0  0  0  0  0  0  0  0  0
   -3.6083    7.1986   -9.5676 C   0  0  0  0  0  0  0  0  0  0  0  0
   -3.3332    8.2189   -8.2634 S   0  0  0  0  0  0  0  0  0  0  0  0
   -2.8692    9.5457   -9.2295 C   0  0  0  0  0  0  0  0  0  0  0  0
   -2.4600   10.8682   -8.7157 C   0  0  0  0  0  0  0  0  0  0  0  0
   -2.2438   11.8082   -9.5294 O   0  0  0  0  0  0  0  0  0  0  0  0
   -2.3742   11.1300   -7.2329 C   0  0  0  0  0  0  0  0  0  0  0  0
   -1.3313   12.1919   -6.8892 C   0  0  0  0  0  0  0  0  0  0  0  0
   -2.9142    9.1713  -10.5824 C   0  0  0  0  0  0  0  0  0  0  0  0
   -2.5632    9.9800  -11.6128 F   0  0  0  0  0  0  0  0  0  0  0  0
    5.4218   -4.0384   13.7636 H   0  0  0  0  0  0  0  0  0  0  0  0
    2.1399    1.0596   13.8348 H   0  0  0  0  0  0  0  0  0  0  0  0
    0.7301    0.0396   14.3001 H   0  0  0  0  0  0  0  0  0  0  0  0
   -0.8049    1.5944   13.0699 H   0  0  0  0  0  0  0  0  0  0  0  0
    0.6194    2.6222   12.6078 H   0  0  0  0  0  0  0  0  0  0  0  0
    0.1486    2.4467   14.3411 H   0  0  0  0  0  0  0  0  0  0  0  0
    1.3456   -4.1022    9.0880 H   0  0  0  0  0  0  0  0  0  0  0  0
   -3.7428   -4.8439    9.1839 H   0  0  0  0  0  0  0  0  0  0  0  0
   -4.2423   -3.1821    8.7171 H   0  0  0  0  0  0  0  0  0  0  0  0
   -4.9051   -4.0361    6.4348 H   0  0  0  0  0  0  0  0  0  0  0  0
   -4.4372   -5.7101    6.9465 H   0  0  0  0  0  0  0  0  0  0  0  0
   -5.8034   -4.8584    7.7657 H   0  0  0  0  0  0  0  0  0  0  0  0
    9.1201   -6.2777    2.7391 H   0  0  0  0  0  0  0  0  0  0  0  0
    8.4911   -4.6416    2.3388 H   0  0  0  0  0  0  0  0  0  0  0  0
   10.5943   -4.4791    3.6482 H   0  0  0  0  0  0  0  0  0  0  0  0
    9.8686   -5.4515    4.9822 H   0  0  0  0  0  0  0  0  0  0  0  0
    9.2166   -3.8043    4.5995 H   0  0  0  0  0  0  0  0  0  0  0  0
    3.5505   -5.5771    2.4843 H   0  0  0  0  0  0  0  0  0  0  0  0
    3.0837   -6.9922   -4.6648 H   0  0  0  0  0  0  0  0  0  0  0  0
    4.3736   -5.7239   -4.6621 H   0  0  0  0  0  0  0  0  0  0  0  0
    4.9051   -7.6731   -6.1481 H   0  0  0  0  0  0  0  0  0  0  0  0
    4.8686   -8.7757   -4.7215 H   0  0  0  0  0  0  0  0  0  0  0  0
    6.1238   -7.4729   -4.8333 H   0  0  0  0  0  0  0  0  0  0  0  0
   -1.6007   -1.9606   -0.8614 H   0  0  0  0  0  0  0  0  0  0  0  0
   -5.3673    1.0670    2.3372 H   0  0  0  0  0  0  0  0  0  0  0  0
   -5.9219   -0.5098    1.6814 H   0  0  0  0  0  0  0  0  0  0  0  0
   -3.7988   -1.5987    2.4666 H   0  0  0  0  0  0  0  0  0  0  0  0
   -3.2328   -0.0086    3.1259 H   0  0  0  0  0  0  0  0  0  0  0  0
   -4.6885   -0.8117    3.8258 H   0  0  0  0  0  0  0  0  0  0  0  0
    1.2872   -1.6577  -10.7690 H   0  0  0  0  0  0  0  0  0  0  0  0
    1.8828   -0.1638   -9.9683 H   0  0  0  0  0  0  0  0  0  0  0  0
    3.5427   -1.5034   -8.6563 H   0  0  0  0  0  0  0  0  0  0  0  0
    3.7490   -1.7424  -10.4329 H   0  0  0  0  0  0  0  0  0  0  0  0
    2.9435   -3.0193   -9.4462 H   0  0  0  0  0  0  0  0  0  0  0  0
   -2.1254    0.8894   -7.3503 H   0  0  0  0  0  0  0  0  0  0  0  0
   -8.8136    6.9311   -3.5662 H   0  0  0  0  0  0  0  0  0  0  0  0
   -7.9675    5.3507   -3.5980 H   0  0  0  0  0  0  0  0  0  0  0  0
   -6.7228    8.0694   -2.7974 H   0  0  0  0  0  0  0  0  0  0  0  0
   -5.8427    6.4875   -2.8375 H   0  0  0  0  0  0  0  0  0  0  0  0
   -7.2036    6.7335   -1.6810 H   0  0  0  0  0  0  0  0  0  0  0  0
   -3.1950    7.3490  -12.9006 H   0  0  0  0  0  0  0  0  0  0  0  0
   -2.0968   10.1973   -6.6971 H   0  0  0  0  0  0  0  0  0  0  0  0
   -3.3683   11.4581   -6.8649 H   0  0  0  0  0  0  0  0  0  0  0  0
   -0.3348   11.8965   -7.2835 H   0  0  0  0  0  0  0  0  0  0  0  0
   -1.2594   12.2976   -5.7857 H   0  0  0  0  0  0  0  0  0  0  0  0
   -1.6222   13.1758   -7.3182 H   0  0  0  0  0  0  0  0  0  0  0  0
  1  2  1  0
  2  3  1  0
  3  4  2  0
  4  5  1  0
  5  6  1  0
  6  7  1  0
  7  8  1  0
  8  9  2  0
  8 10  1  0
 10 11  1  0
  7 12  2  0
 12 13  1  0
  3 14  1  0
 14 15  2  0
 15 16  1  0
 16 17  2  0
 17 18  1  0
 18 19  1  0
 19 20  1  0
 20 21  1  0
 21 22  1  0
 20 23  2  0
 23 24  1  0
 23 25  1  0
 25 26  1  0
 17 27  1  0
 27 28  2  0
 28 29  1  0
 29 30  1  0
 30 31  1  0
 31 32  1  0
 32 33  1  0
 33 34  1  0
 32 35  2  0
 35 36  1  0
 36 37  1  0
 35 38  1  0
 29 39  2  0
 39 40  1  0
 28 41  1  0
 41 42  2  0
 42 43  1  0
 42 44  1  0
 44 45  1  0
 45 46  1  0
 46 47  2  0
 47 48  1  0
 48 49  1  0
 49 50  1  0
 50 51  1  0
 51 52  2  0
 51 53  1  0
 53 54  1  0
 50 55  2  0
 55 56  1  0
 46 57  1  0
 57 58  2  0
 58 59  1  0
 59 60  2  0
 60 61  1  0
 61 62  1  0
 62 63  1  0
 63 64  1  0
 64 65  1  0
 63 66  2  0
 66 67  1  0
 66 68  1  0
 68 69  1  0
 60 70  1  0
 70 71  2  0
 71 72  1  0
 72 73  1  0
 73 74  1  0
 74 75  1  0
 75 76  1  0
 76 77  1  0
 75 78  2  0
 78 79  1  0
 79 80  1  0
 78 81  1  0
 72 82  2  0
 82 83  1  0
 71 84  1  0
 84 85  2  0
 85 86  1  0
 85 87  1  0
 87 88  1  0
 88 89  1  0
 89 90  2  0
 90 91  1  0
 91 92  1  0
 92 93  1  0
 93 94  1  0
 94 95  2  0
 94 96  1  0
 96 97  1  0
 93 98  2  0
 98 99  1  0
 89100  1  0
100101  1  0
101102  1  0
102103  2  0
103104  1  0
104105  1  0
105106  1  0
106107  1  0
107108  2  0
107109  1  0
109110  1  0
106111  2  0
111112  1  0
  5  1  2  0
 40 14  1  0
 48 44  2  0
 83 57  1  0
 91 87  2  0
104100  2  0
 12  4  1  0
 39 16  1  0
 55 47  1  0
 82 59  1  0
 98 90  1  0
111103  1  0
 25 18  2  0
 43 27  1  0
 68 61  2  0
 86 70  1  0
 36 30  2  0
 79 73  2  0
  1113  1  0
 10114  1  0
 10115  1  0
 11116  1  0
 11117  1  0
 11118  1  0
 15119  1  0
 21120  1  0
 21121  1  0
 22122  1  0
 22123  1  0
 22124  1  0
 33125  1  0
 33126  1  0
 34127  1  0
 34128  1  0
 34129  1  0
 41130  1  0
 53131  1  0
 53132  1  0
 54133  1  0
 54134  1  0
 54135  1  0
 58136  1  0
 64137  1  0
 64138  1  0
 65139  1  0
 65140  1  0
 65141  1  0
 76142  1  0
 76143  1  0
 77144  1  0
 77145  1  0
 77146  1  0
 84147  1  0
 96148  1  0
 96149  1  0
 97150  1  0
 97151  1  0
 97152  1  0
102153  1  0
109154  1  0
109155  1  0
110156  1  0
110157  1  0
110158  1  0
M  END

