
     RDKit          3D

138149  0  0  0  0  0  0  0  0999 V2000
    6.5199    1.4714    2.5311 C   0  0  0  0  0  0  0  0  0  0  0  0
    6.0666    0.8267    4.0114 S   0  0  0  0  0  0  0  0  0  0  0  0
    4.4155    1.3232    3.9985 C   0  0  0  0  0  0  0  0  0  0  0  0
    4.2723    1.9951    2.8082 C   0  0  0  0  0  0  0  0  0  0  0  0
    5.3933    2.0732    2.0230 C   0  0  0  0  0  0  0  0  0  0  0  0
    5.1707    2.9310    0.5779 S   0  0  0  0  0  0  0  0  0  0  0  0
    3.5274    3.2118    1.0154 C   0  0  0  0  0  0  0  0  0  0  0  0
    2.5649    3.9910    0.2036 C   0  0  0  0  0  0  0  0  0  0  0  0
    1.3954    4.1531    0.6204 O   0  0  0  0  0  0  0  0  0  0  0  0
    2.9695    4.5876   -1.1285 C   0  0  0  0  0  0  0  0  0  0  0  0
    1.8202    5.2997   -1.8485 C   0  0  0  0  0  0  0  0  0  0  0  0
    3.1870    2.6471    2.2854 C   0  0  0  0  0  0  0  0  0  0  0  0
    1.9541    2.7990    2.8956 F   0  0  0  0  0  0  0  0  0  0  0  0
    3.3678    0.9584    4.9885 C   0  0  0  0  0  0  0  0  0  0  0  0
    3.5191    1.2641    6.6449 S   0  0  0  0  0  0  0  0  0  0  0  0
    2.1337    0.4209    7.0776 C   0  0  0  0  0  0  0  0  0  0  0  0
    1.5884   -0.1895    5.9326 C   0  0  0  0  0  0  0  0  0  0  0  0
    2.2806    0.1079    4.7763 C   0  0  0  0  0  0  0  0  0  0  0  0
    1.9875   -0.6313    3.4942 C   0  0  1  0  0  0  0  0  0  0  0  0
    1.4754   -2.0652    3.7372 C   0  0  0  0  0  0  0  0  0  0  0  0
    0.4913   -2.2387    4.8961 C   0  0  0  0  0  0  0  0  0  0  0  0
    0.4082   -1.1078    5.9569 C   0  0  1  0  0  0  0  0  0  0  0  0
    0.2494   -1.6664    7.3487 N   0  0  0  0  0  4  0  0  0  0  0  0
    1.1843   -2.5483    7.8597 O   0  0  0  0  0  1  0  0  0  0  0  0
   -0.8537   -1.5389    7.9135 O   0  0  0  0  0  0  0  0  0  0  0  0
    1.1303    0.1524    2.6206 N   0  0  0  0  0  0  0  0  0  0  0  0
   -0.3170    0.3481    2.7287 C   0  0  0  0  0  0  0  0  0  0  0  0
   -0.9071    1.1206    1.8260 C   0  0  0  0  0  0  0  0  0  0  0  0
   -2.3068    1.5685    1.6833 C   0  0  0  0  0  0  0  0  0  0  0  0
   -2.6536    2.7230    0.4713 S   0  0  0  0  0  0  0  0  0  0  0  0
   -4.2829    2.8418    0.8540 C   0  0  0  0  0  0  0  0  0  0  0  0
   -4.5801    2.0471    1.9414 C   0  0  0  0  0  0  0  0  0  0  0  0
   -3.4768    1.2841    2.3984 C   0  0  0  0  0  0  0  0  0  0  0  0
   -3.6364    0.3365    3.5781 C   0  0  1  0  0  0  0  0  0  0  0  0
   -4.7269    0.8268    4.6289 C   0  0  0  0  0  0  0  0  0  0  0  0
   -5.3239    2.1904    4.2807 C   0  0  0  0  0  0  0  0  0  0  0  0
   -5.8743    2.1069    2.7792 C   0  0  1  0  0  0  0  0  0  0  0  0
   -6.8059    3.1641    2.4786 N   0  0  0  0  0  4  0  0  0  0  0  0
   -8.0665    3.0632    3.1499 O   0  0  0  0  0  1  0  0  0  0  0  0
   -6.4151    4.3202    2.2413 O   0  0  0  0  0  0  0  0  0  0  0  0
   -4.0141   -0.9779    3.0517 N   0  0  0  0  0  0  0  0  0  0  0  0
   -3.1942   -1.7250    2.1773 C   0  0  0  0  0  0  0  0  0  0  0  0
   -3.7046   -2.3312    1.0826 C   0  0  0  0  0  0  0  0  0  0  0  0
   -5.1305   -2.2124    0.5828 C   0  0  0  0  0  0  0  0  0  0  0  0
   -6.4417   -1.4576    1.3806 S   0  0  0  0  0  0  0  0  0  0  0  0
   -7.5970   -1.6069    0.1973 C   0  0  0  0  0  0  0  0  0  0  0  0
   -6.9952   -2.2434   -0.8730 C   0  0  0  0  0  0  0  0  0  0  0  0
   -5.6862   -2.6999   -0.6335 C   0  0  0  0  0  0  0  0  0  0  0  0
   -4.9383   -3.1709   -1.8719 C   0  0  1  0  0  0  0  0  0  0  0  0
   -5.0785   -2.0087   -2.9270 C   0  0  0  0  0  0  0  0  0  0  0  0
   -6.5722   -1.9096   -3.3416 C   0  0  0  0  0  0  0  0  0  0  0  0
   -7.6251   -2.3545   -2.2606 C   0  0  1  0  0  0  0  0  0  0  0  0
   -8.0754   -3.7080   -2.4755 N   0  0  0  0  0  4  0  0  0  0  0  0
   -8.7247   -4.0931   -3.6653 O   0  0  0  0  0  1  0  0  0  0  0  0
   -7.8333   -4.6259   -1.6702 O   0  0  0  0  0  0  0  0  0  0  0  0
   -3.6586   -3.8438   -1.7185 N   0  0  0  0  0  0  0  0  0  0  0  0
   -3.1543   -4.4920   -2.9133 C   0  0  0  0  0  0  0  0  0  0  0  0
   -2.3127   -3.8314   -3.6950 C   0  0  0  0  0  0  0  0  0  0  0  0
   -1.6317   -2.5673   -3.3174 C   0  0  0  0  0  0  0  0  0  0  0  0
   -1.6598   -1.8154   -1.7952 S   0  0  0  0  0  0  0  0  0  0  0  0
   -0.6089   -0.6035   -2.1683 C   0  0  0  0  0  0  0  0  0  0  0  0
   -0.2637   -0.6818   -3.5136 C   0  0  0  0  0  0  0  0  0  0  0  0
   -0.8476   -1.7906   -4.1535 C   0  0  0  0  0  0  0  0  0  0  0  0
   -0.5835   -2.1328   -5.5829 C   0  0  1  0  0  0  0  0  0  0  0  0
   -0.3880   -0.8462   -6.3809 C   0  0  0  0  0  0  0  0  0  0  0  0
    0.6419    0.1015   -5.7455 C   0  0  0  0  0  0  0  0  0  0  0  0
    0.5626    0.3366   -4.2062 C   0  0  1  0  0  0  0  0  0  0  0  0
    0.2181    1.7734   -3.8390 N   0  0  0  0  0  4  0  0  0  0  0  0
    0.8309    2.7557   -4.5847 O   0  0  0  0  0  1  0  0  0  0  0  0
   -0.7513    2.0897   -3.1125 O   0  0  0  0  0  0  0  0  0  0  0  0
    0.5148   -3.1294   -5.6040 N   0  0  0  0  0  0  0  0  0  0  0  0
    1.8770   -2.7409   -5.7772 C   0  0  0  0  0  0  0  0  0  0  0  0
    2.7390   -2.6762   -4.7370 C   0  0  0  0  0  0  0  0  0  0  0  0
    4.1916   -2.3407   -4.9755 C   0  0  0  0  0  0  0  0  0  0  0  0
    4.8187   -1.9770   -6.4816 S   0  0  0  0  0  0  0  0  0  0  0  0
    6.4291   -1.7630   -6.0490 C   0  0  0  0  0  0  0  0  0  0  0  0
    6.4687   -1.9804   -4.6947 C   0  0  0  0  0  0  0  0  0  0  0  0
    5.2743   -2.2882   -4.1052 C   0  0  0  0  0  0  0  0  0  0  0  0
    5.3859   -2.5670   -2.4292 S   0  0  0  0  0  0  0  0  0  0  0  0
    7.0877   -2.2579   -2.5157 C   0  0  0  0  0  0  0  0  0  0  0  0
    8.0214   -2.2962   -1.3847 C   0  0  0  0  0  0  0  0  0  0  0  0
    9.2407   -2.0910   -1.6070 O   0  0  0  0  0  0  0  0  0  0  0  0
    7.5446   -2.5625    0.0291 C   0  0  0  0  0  0  0  0  0  0  0  0
    8.6718   -2.5492    1.0746 C   0  0  0  0  0  0  0  0  0  0  0  0
    7.5293   -1.9467   -3.8412 C   0  0  0  0  0  0  0  0  0  0  0  0
    8.8296   -1.6455   -4.2293 F   0  0  0  0  0  0  0  0  0  0  0  0
    7.5398    1.3910    2.1105 H   0  0  0  0  0  0  0  0  0  0  0  0
    3.3468    3.7832   -1.7834 H   0  0  0  0  0  0  0  0  0  0  0  0
    3.7937    5.3207   -0.9548 H   0  0  0  0  0  0  0  0  0  0  0  0
    1.0677    4.5337   -2.1933 H   0  0  0  0  0  0  0  0  0  0  0  0
    2.2100    5.8640   -2.7411 H   0  0  0  0  0  0  0  0  0  0  0  0
    1.3396    6.0453   -1.1906 H   0  0  0  0  0  0  0  0  0  0  0  0
    1.7802    0.2826    8.0952 H   0  0  0  0  0  0  0  0  0  0  0  0
    3.0213   -0.7406    2.9379 H   0  0  0  0  0  0  0  0  0  0  0  0
    0.9927   -2.4419    2.7931 H   0  0  0  0  0  0  0  0  0  0  0  0
    2.4045   -2.7123    3.9247 H   0  0  0  0  0  0  0  0  0  0  0  0
   -0.5781   -2.4378    4.4921 H   0  0  0  0  0  0  0  0  0  0  0  0
    0.8121   -3.1939    5.3654 H   0  0  0  0  0  0  0  0  0  0  0  0
   -0.4765   -0.4460    5.7139 H   0  0  0  0  0  0  0  0  0  0  0  0
    1.6078    0.4426    1.7235 H   0  0  0  0  0  0  0  0  0  0  0  0
   -0.8628   -0.2007    3.4896 H   0  0  0  0  0  0  0  0  0  0  0  0
   -0.2482    1.5835    1.0595 H   0  0  0  0  0  0  0  0  0  0  0  0
   -4.9233    3.5272    0.3222 H   0  0  0  0  0  0  0  0  0  0  0  0
   -2.6808    0.2342    4.1784 H   0  0  0  0  0  0  0  0  0  0  0  0
   -4.3195    0.8230    5.6665 H   0  0  0  0  0  0  0  0  0  0  0  0
   -5.6300    0.1749    4.7155 H   0  0  0  0  0  0  0  0  0  0  0  0
   -6.1612    2.4139    4.9656 H   0  0  0  0  0  0  0  0  0  0  0  0
   -4.5415    2.9867    4.3912 H   0  0  0  0  0  0  0  0  0  0  0  0
   -6.3821    1.1736    2.5776 H   0  0  0  0  0  0  0  0  0  0  0  0
   -4.8426   -1.5044    3.3792 H   0  0  0  0  0  0  0  0  0  0  0  0
   -2.1217   -1.8448    2.4128 H   0  0  0  0  0  0  0  0  0  0  0  0
   -3.0042   -2.9112    0.5326 H   0  0  0  0  0  0  0  0  0  0  0  0
   -8.5449   -1.1584    0.2177 H   0  0  0  0  0  0  0  0  0  0  0  0
   -5.5548   -4.0123   -2.2128 H   0  0  0  0  0  0  0  0  0  0  0  0
   -4.7276   -1.0206   -2.4923 H   0  0  0  0  0  0  0  0  0  0  0  0
   -4.4616   -2.1460   -3.8499 H   0  0  0  0  0  0  0  0  0  0  0  0
   -6.7542   -0.8565   -3.6799 H   0  0  0  0  0  0  0  0  0  0  0  0
   -6.6656   -2.5673   -4.2534 H   0  0  0  0  0  0  0  0  0  0  0  0
   -8.5708   -1.6226   -2.2745 H   0  0  0  0  0  0  0  0  0  0  0  0
   -3.6508   -4.4513   -0.8852 H   0  0  0  0  0  0  0  0  0  0  0  0
   -3.7791   -5.3233   -3.3345 H   0  0  0  0  0  0  0  0  0  0  0  0
   -2.1568   -4.2514   -4.6564 H   0  0  0  0  0  0  0  0  0  0  0  0
   -0.4003    0.1811   -1.4589 H   0  0  0  0  0  0  0  0  0  0  0  0
   -1.5441   -2.6093   -6.0178 H   0  0  0  0  0  0  0  0  0  0  0  0
   -1.3803   -0.2880   -6.4145 H   0  0  0  0  0  0  0  0  0  0  0  0
   -0.0893   -1.1021   -7.4470 H   0  0  0  0  0  0  0  0  0  0  0  0
    0.5347    1.0567   -6.3307 H   0  0  0  0  0  0  0  0  0  0  0  0
    1.6863   -0.2119   -6.0391 H   0  0  0  0  0  0  0  0  0  0  0  0
    1.6148    0.1024   -3.8010 H   0  0  0  0  0  0  0  0  0  0  0  0
    0.2688   -4.1061   -5.8805 H   0  0  0  0  0  0  0  0  0  0  0  0
    2.2010   -2.5546   -6.8413 H   0  0  0  0  0  0  0  0  0  0  0  0
    2.3679   -2.8683   -3.7528 H   0  0  0  0  0  0  0  0  0  0  0  0
    7.2379   -1.5160   -6.7115 H   0  0  0  0  0  0  0  0  0  0  0  0
    6.7941   -1.7628    0.2990 H   0  0  0  0  0  0  0  0  0  0  0  0
    7.0280   -3.5447    0.0492 H   0  0  0  0  0  0  0  0  0  0  0  0
    9.4170   -3.3382    0.8112 H   0  0  0  0  0  0  0  0  0  0  0  0
    9.1646   -1.5355    1.0566 H   0  0  0  0  0  0  0  0  0  0  0  0
    8.2558   -2.7456    2.0953 H   0  0  0  0  0  0  0  0  0  0  0  0
  1  2  1  0
  2  3  1  0
  3  4  2  0
  4  5  1  0
  5  6  1  0
  6  7  1  0
  7  8  1  0
  8  9  2  0
  8 10  1  0
 10 11  1  0
  7 12  2  0
 12 13  1  0
  3 14  1  0
 14 15  1  0
 15 16  1  0
 16 17  2  0
 17 18  1  0
 18 19  1  0
 19 20  1  0
 20 21  1  0
 21 22  1  0
 22 23  1  0
 23 24  1  0
 23 25  2  0
 19 26  1  0
 26 27  1  0
 27 28  2  3
 28 29  1  0
 29 30  1  0
 30 31  1  0
 31 32  2  0
 32 33  1  0
 33 34  1  0
 34 35  1  0
 35 36  1  0
 36 37  1  0
 37 38  1  0
 38 39  1  0
 38 40  2  0
 34 41  1  0
 41 42  1  0
 42 43  2  3
 43 44  1  0
 44 45  1  0
 45 46  1  0
 46 47  2  0
 47 48  1  0
 48 49  1  0
 49 50  1  0
 50 51  1  0
 51 52  1  0
 52 53  1  0
 53 54  1  0
 53 55  2  0
 49 56  1  0
 56 57  1  0
 57 58  2  3
 58 59  1  0
 59 60  1  0
 60 61  1  0
 61 62  2  0
 62 63  1  0
 63 64  1  0
 64 65  1  0
 65 66  1  0
 66 67  1  0
 67 68  1  0
 68 69  1  0
 68 70  2  0
 64 71  1  0
 71 72  1  0
 72 73  2  3
 73 74  1  0
 74 75  1  0
 75 76  1  0
 76 77  2  0
 77 78  1  0
 78 79  1  0
 79 80  1  0
 80 81  1  0
 81 82  2  0
 81 83  1  0
 83 84  1  0
 80 85  2  0
 85 86  1  0
  5  1  2  0
 18 14  2  0
 33 29  2  0
 48 44  2  0
 63 59  2  0
 78 74  2  0
 12  4  1  0
 22 17  1  0
 37 32  1  0
 52 47  1  0
 67 62  1  0
 85 77  1  0
  1 87  1  0
 10 88  1  0
 10 89  1  0
 11 90  1  0
 11 91  1  0
 11 92  1  0
 16 93  1  0
 19 94  1  6
 20 95  1  0
 20 96  1  0
 21 97  1  0
 21 98  1  0
 22 99  1  6
 26100  1  0
 27101  1  0
 28102  1  0
 31103  1  0
 34104  1  1
 35105  1  0
 35106  1  0
 36107  1  0
 36108  1  0
 37109  1  1
 41110  1  0
 42111  1  0
 43112  1  0
 46113  1  0
 49114  1  6
 50115  1  0
 50116  1  0
 51117  1  0
 51118  1  0
 52119  1  1
 56120  1  0
 57121  1  0
 58122  1  0
 61123  1  0
 64124  1  6
 65125  1  0
 65126  1  0
 66127  1  0
 66128  1  0
 67129  1  1
 71130  1  0
 72131  1  0
 73132  1  0
 76133  1  0
 83134  1  0
 83135  1  0
 84136  1  0
 84137  1  0
 84138  1  0
M  CHG  8  23   1  24  -1  38   1  39  -1  53   1  54  -1  68   1  69  -1
M  END

