
     RDKit          3D

150161  0  0  0  0  0  0  0  0999 V2000
   -7.4097    3.8809    8.0093 C   0  0  0  0  0  0  0  0  0  0  0  0
   -6.9271    2.6123    8.3596 C   0  0  0  0  0  0  0  0  0  0  0  0
   -6.7093    2.1781    9.7459 C   0  0  0  0  0  0  0  0  0  0  0  0
   -6.4143    0.9772   10.0000 O   0  0  0  0  0  0  0  0  0  0  0  0
   -6.8210    3.1108   10.7789 O   0  0  0  0  0  0  0  0  0  0  0  0
   -6.5371    2.7964   12.1388 C   0  0  0  0  0  0  0  0  0  0  0  0
   -6.6679    4.0494   12.9918 C   0  0  0  0  0  0  0  0  0  0  0  0
   -6.6273    1.8662    7.2170 C   0  0  0  0  0  0  0  0  0  0  0  0
   -6.8244    2.4978    6.0345 C   0  0  0  0  0  0  0  0  0  0  0  0
   -7.4171    4.0443    6.3121 S   0  0  0  0  0  0  0  0  0  0  0  0
   -6.4223    1.8084    4.8909 C   0  0  0  0  0  0  0  0  0  0  0  0
   -6.5476    2.4086    3.5568 C   0  0  0  0  0  0  0  0  0  0  0  0
   -5.5438    2.4755    2.7976 O   0  0  0  0  0  0  0  0  0  0  0  0
   -7.7817    2.9473    3.1720 O   0  0  0  0  0  0  0  0  0  0  0  0
   -7.9959    3.6254    1.9388 C   0  0  0  0  0  0  0  0  0  0  0  0
   -7.4330    5.0406    2.0058 C   0  0  0  0  0  0  0  0  0  0  0  0
   -5.8771    0.5406    5.2211 C   0  0  0  0  0  0  0  0  0  0  0  0
   -5.9635    0.3624    6.9215 S   0  0  0  0  0  0  0  0  0  0  0  0
   -5.3971   -0.5153    4.2825 C   0  0  0  0  0  0  0  0  0  0  0  0
   -4.7231   -1.7202    4.6135 C   0  0  0  0  0  0  0  0  0  0  0  0
   -4.1390   -2.0659    5.9191 C   0  0  0  0  0  0  0  0  0  0  0  0
   -4.2373   -3.2455    6.3591 O   0  0  0  0  0  0  0  0  0  0  0  0
   -3.4203   -1.1018    6.6304 O   0  0  0  0  0  0  0  0  0  0  0  0
   -2.8788   -1.3461    7.9258 C   0  0  0  0  0  0  0  0  0  0  0  0
   -2.2179   -0.0784    8.4457 C   0  0  0  0  0  0  0  0  0  0  0  0
   -4.4945   -2.4982    3.4737 C   0  0  0  0  0  0  0  0  0  0  0  0
   -4.8929   -1.9577    2.2967 C   0  0  0  0  0  0  0  0  0  0  0  0
   -5.6252   -0.4845    2.5874 S   0  0  0  0  0  0  0  0  0  0  0  0
   -4.4388   -2.6011    1.1464 C   0  0  0  0  0  0  0  0  0  0  0  0
   -4.5665   -2.0251   -0.1973 C   0  0  0  0  0  0  0  0  0  0  0  0
   -5.6964   -1.9879   -0.7597 O   0  0  0  0  0  0  0  0  0  0  0  0
   -3.4396   -1.4828   -0.8211 O   0  0  0  0  0  0  0  0  0  0  0  0
   -3.4478   -0.9591   -2.1461 C   0  0  0  0  0  0  0  0  0  0  0  0
   -2.0362   -0.5491   -2.5388 C   0  0  0  0  0  0  0  0  0  0  0  0
   -3.6944   -3.7519    1.4784 C   0  0  0  0  0  0  0  0  0  0  0  0
   -3.5840   -3.8754    3.1769 S   0  0  0  0  0  0  0  0  0  0  0  0
   -2.9342   -4.6149    0.5544 C   0  0  0  0  0  0  0  0  0  0  0  0
   -2.0297   -4.0997   -0.7744 S   0  0  0  0  0  0  0  0  0  0  0  0
   -1.1690   -5.5179   -1.0811 C   0  0  0  0  0  0  0  0  0  0  0  0
   -1.5825   -6.4221   -0.1093 C   0  0  0  0  0  0  0  0  0  0  0  0
   -2.5341   -5.9266    0.7628 C   0  0  0  0  0  0  0  0  0  0  0  0
   -2.9273   -7.0872    1.9119 S   0  0  0  0  0  0  0  0  0  0  0  0
   -1.8609   -8.2593    1.2852 C   0  0  0  0  0  0  0  0  0  0  0  0
   -1.7063   -9.6305    1.8148 C   0  0  0  0  0  0  0  0  0  0  0  0
   -0.9207  -10.4327    1.2383 O   0  0  0  0  0  0  0  0  0  0  0  0
   -2.5021  -10.1095    2.9971 C   0  0  0  0  0  0  0  0  0  0  0  0
   -3.9022  -10.5534    2.5776 C   0  0  0  0  0  0  0  0  0  0  0  0
   -1.1812   -7.7286    0.1756 C   0  0  0  0  0  0  0  0  0  0  0  0
   -0.2543   -8.4057   -0.5448 F   0  0  0  0  0  0  0  0  0  0  0  0
    0.0784   -5.5179   -1.8538 C   0  0  0  0  0  0  0  0  0  0  0  0
    0.2428   -4.6250   -3.2783 S   0  0  0  0  0  0  0  0  0  0  0  0
    1.8560   -4.1354   -3.1273 C   0  0  0  0  0  0  0  0  0  0  0  0
    2.2738   -4.6423   -1.8941 C   0  0  0  0  0  0  0  0  0  0  0  0
    1.3227   -5.4236   -1.2543 C   0  0  0  0  0  0  0  0  0  0  0  0
    1.8264   -5.7838    0.3076 S   0  0  0  0  0  0  0  0  0  0  0  0
    3.3002   -4.9490    0.1793 C   0  0  0  0  0  0  0  0  0  0  0  0
    4.2783   -4.7918    1.2717 C   0  0  0  0  0  0  0  0  0  0  0  0
    5.0292   -3.7830    1.2980 O   0  0  0  0  0  0  0  0  0  0  0  0
    4.3576   -5.7945    2.3918 C   0  0  0  0  0  0  0  0  0  0  0  0
    3.5571   -5.3221    3.5999 C   0  0  0  0  0  0  0  0  0  0  0  0
    3.3779   -4.3378   -1.0787 C   0  0  0  0  0  0  0  0  0  0  0  0
    4.3602   -3.4642   -1.4023 F   0  0  0  0  0  0  0  0  0  0  0  0
    2.4351   -3.0154   -3.8950 C   0  0  0  0  0  0  0  0  0  0  0  0
    3.7926   -2.7701   -4.1940 C   0  0  0  0  0  0  0  0  0  0  0  0
    4.8953   -3.7412   -4.0956 C   0  0  0  0  0  0  0  0  0  0  0  0
    4.6486   -4.9823   -4.0900 O   0  0  0  0  0  0  0  0  0  0  0  0
    6.2138   -3.2855   -4.0401 O   0  0  0  0  0  0  0  0  0  0  0  0
    7.3430   -4.1468   -4.0950 C   0  0  0  0  0  0  0  0  0  0  0  0
    8.6028   -3.3466   -3.7984 C   0  0  0  0  0  0  0  0  0  0  0  0
    3.9473   -1.4833   -4.7210 C   0  0  0  0  0  0  0  0  0  0  0  0
    2.8034   -0.7754   -4.9044 C   0  0  0  0  0  0  0  0  0  0  0  0
    1.4947   -1.6787   -4.3819 S   0  0  0  0  0  0  0  0  0  0  0  0
    2.9526    0.4975   -5.4537 C   0  0  0  0  0  0  0  0  0  0  0  0
    1.8211    1.3431   -5.8805 C   0  0  0  0  0  0  0  0  0  0  0  0
    1.9881    2.1871   -6.8059 O   0  0  0  0  0  0  0  0  0  0  0  0
    0.5663    1.1869   -5.2859 O   0  0  0  0  0  0  0  0  0  0  0  0
   -0.6051    1.8643   -5.7377 C   0  0  0  0  0  0  0  0  0  0  0  0
   -1.1457    1.1941   -6.9938 C   0  0  0  0  0  0  0  0  0  0  0  0
    4.3183    0.8008   -5.6225 C   0  0  0  0  0  0  0  0  0  0  0  0
    5.2624   -0.5523   -5.1852 S   0  0  0  0  0  0  0  0  0  0  0  0
    4.9112    2.1098   -5.9509 C   0  0  0  0  0  0  0  0  0  0  0  0
    4.5115    3.3692   -5.4529 C   0  0  0  0  0  0  0  0  0  0  0  0
    3.4488    3.6182   -4.4639 C   0  0  0  0  0  0  0  0  0  0  0  0
    3.2236    2.7760   -3.5515 O   0  0  0  0  0  0  0  0  0  0  0  0
    2.6914    4.7889   -4.5490 O   0  0  0  0  0  0  0  0  0  0  0  0
    1.5072    4.9963   -3.7906 C   0  0  0  0  0  0  0  0  0  0  0  0
    0.8776    6.3220   -4.1890 C   0  0  0  0  0  0  0  0  0  0  0  0
    5.3240    4.3773   -5.9664 C   0  0  0  0  0  0  0  0  0  0  0  0
    6.3318    3.9699   -6.7851 C   0  0  0  0  0  0  0  0  0  0  0  0
    6.2801    2.3016   -6.9543 S   0  0  0  0  0  0  0  0  0  0  0  0
    7.1848    4.9830   -7.2329 C   0  0  0  0  0  0  0  0  0  0  0  0
    8.3542    4.7931   -8.1042 C   0  0  0  0  0  0  0  0  0  0  0  0
    8.6781    3.6359   -8.4920 O   0  0  0  0  0  0  0  0  0  0  0  0
    9.0979    5.9097   -8.5004 O   0  0  0  0  0  0  0  0  0  0  0  0
   10.2457    5.8195   -9.3342 C   0  0  0  0  0  0  0  0  0  0  0  0
   10.7663    7.2162   -9.6305 C   0  0  0  0  0  0  0  0  0  0  0  0
    6.7932    6.2272   -6.7236 C   0  0  0  0  0  0  0  0  0  0  0  0
    5.4197    6.0338   -5.7313 S   0  0  0  0  0  0  0  0  0  0  0  0
   -7.7086    4.6536    8.7015 H   0  0  0  0  0  0  0  0  0  0  0  0
   -5.5004    2.4030   12.2260 H   0  0  0  0  0  0  0  0  0  0  0  0
   -7.2524    2.0241   12.5035 H   0  0  0  0  0  0  0  0  0  0  0  0
   -5.9533    4.8249   12.6385 H   0  0  0  0  0  0  0  0  0  0  0  0
   -7.7037    4.4474   12.9222 H   0  0  0  0  0  0  0  0  0  0  0  0
   -6.4439    3.8098   14.0540 H   0  0  0  0  0  0  0  0  0  0  0  0
   -9.0923    3.6882    1.7580 H   0  0  0  0  0  0  0  0  0  0  0  0
   -7.5343    3.0601    1.0992 H   0  0  0  0  0  0  0  0  0  0  0  0
   -6.3380    5.0147    2.1775 H   0  0  0  0  0  0  0  0  0  0  0  0
   -7.9186    5.6080    2.8287 H   0  0  0  0  0  0  0  0  0  0  0  0
   -7.6246    5.5621    1.0455 H   0  0  0  0  0  0  0  0  0  0  0  0
   -2.1250   -2.1615    7.8741 H   0  0  0  0  0  0  0  0  0  0  0  0
   -3.6938   -1.6435    8.6223 H   0  0  0  0  0  0  0  0  0  0  0  0
   -1.3936    0.2246    7.7661 H   0  0  0  0  0  0  0  0  0  0  0  0
   -1.8040   -0.2605    9.4611 H   0  0  0  0  0  0  0  0  0  0  0  0
   -2.9689    0.7400    8.5008 H   0  0  0  0  0  0  0  0  0  0  0  0
   -3.8149   -1.7330   -2.8552 H   0  0  0  0  0  0  0  0  0  0  0  0
   -4.1139   -0.0730   -2.1944 H   0  0  0  0  0  0  0  0  0  0  0  0
   -2.0340   -0.1540   -3.5749 H   0  0  0  0  0  0  0  0  0  0  0  0
   -1.3544   -1.4233   -2.4895 H   0  0  0  0  0  0  0  0  0  0  0  0
   -1.6631    0.2395   -1.8528 H   0  0  0  0  0  0  0  0  0  0  0  0
   -1.9719  -10.9590    3.4807 H   0  0  0  0  0  0  0  0  0  0  0  0
   -2.5836   -9.2985    3.7559 H   0  0  0  0  0  0  0  0  0  0  0  0
   -3.8626  -11.2058    1.6712 H   0  0  0  0  0  0  0  0  0  0  0  0
   -4.3807  -11.1089    3.4096 H   0  0  0  0  0  0  0  0  0  0  0  0
   -4.5256   -9.6570    2.3468 H   0  0  0  0  0  0  0  0  0  0  0  0
    5.4216   -5.9351    2.6917 H   0  0  0  0  0  0  0  0  0  0  0  0
    3.9700   -6.7802    2.0490 H   0  0  0  0  0  0  0  0  0  0  0  0
    2.5030   -5.1101    3.3172 H   0  0  0  0  0  0  0  0  0  0  0  0
    4.0138   -4.4055    4.0311 H   0  0  0  0  0  0  0  0  0  0  0  0
    3.5552   -6.1162    4.3744 H   0  0  0  0  0  0  0  0  0  0  0  0
    7.4253   -4.5890   -5.1127 H   0  0  0  0  0  0  0  0  0  0  0  0
    7.2410   -4.9618   -3.3471 H   0  0  0  0  0  0  0  0  0  0  0  0
    8.7091   -2.5190   -4.5357 H   0  0  0  0  0  0  0  0  0  0  0  0
    9.4936   -4.0091   -3.8604 H   0  0  0  0  0  0  0  0  0  0  0  0
    8.5454   -2.9273   -2.7753 H   0  0  0  0  0  0  0  0  0  0  0  0
   -1.3782    1.8206   -4.9425 H   0  0  0  0  0  0  0  0  0  0  0  0
   -0.3832    2.9314   -5.9464 H   0  0  0  0  0  0  0  0  0  0  0  0
   -0.4434    1.3549   -7.8436 H   0  0  0  0  0  0  0  0  0  0  0  0
   -1.2643    0.0992   -6.8286 H   0  0  0  0  0  0  0  0  0  0  0  0
   -2.1325    1.6309   -7.2641 H   0  0  0  0  0  0  0  0  0  0  0  0
    1.7477    5.0098   -2.7047 H   0  0  0  0  0  0  0  0  0  0  0  0
    0.7863    4.1748   -3.9988 H   0  0  0  0  0  0  0  0  0  0  0  0
    1.5782    7.1583   -3.9730 H   0  0  0  0  0  0  0  0  0  0  0  0
   -0.0569    6.4763   -3.6085 H   0  0  0  0  0  0  0  0  0  0  0  0
    0.6324    6.3162   -5.2744 H   0  0  0  0  0  0  0  0  0  0  0  0
   11.0368    5.2308   -8.8213 H   0  0  0  0  0  0  0  0  0  0  0  0
    9.9782    5.3193  -10.2904 H   0  0  0  0  0  0  0  0  0  0  0  0
   11.0413    7.7304   -8.6864 H   0  0  0  0  0  0  0  0  0  0  0  0
    9.9853    7.8056  -10.1526 H   0  0  0  0  0  0  0  0  0  0  0  0
   11.6638    7.1545  -10.2803 H   0  0  0  0  0  0  0  0  0  0  0  0
    7.2881    7.1690   -6.9149 H   0  0  0  0  0  0  0  0  0  0  0  0
  1  2  2  0
  2  3  1  0
  3  4  2  0
  3  5  1  0
  5  6  1  0
  6  7  1  0
  2  8  1  0
  8  9  2  0
  9 10  1  0
  9 11  1  0
 11 12  1  0
 12 13  2  0
 12 14  1  0
 14 15  1  0
 15 16  1  0
 11 17  2  0
 17 18  1  0
 17 19  1  0
 19 20  2  0
 20 21  1  0
 21 22  2  0
 21 23  1  0
 23 24  1  0
 24 25  1  0
 20 26  1  0
 26 27  2  0
 27 28  1  0
 27 29  1  0
 29 30  1  0
 30 31  2  0
 30 32  1  0
 32 33  1  0
 33 34  1  0
 29 35  2  0
 35 36  1  0
 35 37  1  0
 37 38  1  0
 38 39  1  0
 39 40  2  0
 40 41  1  0
 41 42  1  0
 42 43  1  0
 43 44  1  0
 44 45  2  0
 44 46  1  0
 46 47  1  0
 43 48  2  0
 48 49  1  0
 39 50  1  0
 50 51  1  0
 51 52  1  0
 52 53  2  0
 53 54  1  0
 54 55  1  0
 55 56  1  0
 56 57  1  0
 57 58  2  0
 57 59  1  0
 59 60  1  0
 56 61  2  0
 61 62  1  0
 52 63  1  0
 63 64  2  0
 64 65  1  0
 65 66  2  0
 65 67  1  0
 67 68  1  0
 68 69  1  0
 64 70  1  0
 70 71  2  0
 71 72  1  0
 71 73  1  0
 73 74  1  0
 74 75  2  0
 74 76  1  0
 76 77  1  0
 77 78  1  0
 73 79  2  0
 79 80  1  0
 79 81  1  0
 81 82  2  0
 82 83  1  0
 83 84  2  0
 83 85  1  0
 85 86  1  0
 86 87  1  0
 82 88  1  0
 88 89  2  0
 89 90  1  0
 89 91  1  0
 91 92  1  0
 92 93  2  0
 92 94  1  0
 94 95  1  0
 95 96  1  0
 91 97  2  0
 97 98  1  0
 10  1  1  0
 28 19  1  0
 41 37  2  0
 54 50  2  0
 72 63  1  0
 90 81  1  0
 18  8  1  0
 36 26  1  0
 48 40  1  0
 61 53  1  0
 80 70  1  0
 98 88  1  0
  1 99  1  0
  6100  1  0
  6101  1  0
  7102  1  0
  7103  1  0
  7104  1  0
 15105  1  0
 15106  1  0
 16107  1  0
 16108  1  0
 16109  1  0
 24110  1  0
 24111  1  0
 25112  1  0
 25113  1  0
 25114  1  0
 33115  1  0
 33116  1  0
 34117  1  0
 34118  1  0
 34119  1  0
 46120  1  0
 46121  1  0
 47122  1  0
 47123  1  0
 47124  1  0
 59125  1  0
 59126  1  0
 60127  1  0
 60128  1  0
 60129  1  0
 68130  1  0
 68131  1  0
 69132  1  0
 69133  1  0
 69134  1  0
 77135  1  0
 77136  1  0
 78137  1  0
 78138  1  0
 78139  1  0
 86140  1  0
 86141  1  0
 87142  1  0
 87143  1  0
 87144  1  0
 95145  1  0
 95146  1  0
 96147  1  0
 96148  1  0
 96149  1  0
 97150  1  0
M  END

