
     RDKit          3D

272295  0  0  0  0  0  0  0  0999 V2000
   -8.8381   11.0057    5.8604 C   0  0  0  0  0  0  0  0  0  0  0  0
   -8.1736    9.7849    5.8117 C   0  0  0  0  0  0  0  0  0  0  0  0
   -7.7780    9.4181    4.5141 C   0  0  0  0  0  0  0  0  0  0  0  0
   -7.1130    8.2313    4.1405 C   0  0  0  0  0  0  0  0  0  0  0  0
   -6.6265    7.2571    5.1437 C   0  0  0  0  0  0  0  0  0  0  0  0
   -5.7303    7.6649    6.1465 C   0  0  0  0  0  0  0  0  0  0  0  0
   -5.2693    6.7506    7.0961 C   0  0  0  0  0  0  0  0  0  0  0  0
   -5.6721    5.4122    7.0374 C   0  0  0  0  0  0  0  0  0  0  0  0
   -5.0664    4.2397    8.2567 S   0  0  0  0  0  0  0  0  0  0  0  0
   -3.5836    3.7455    7.3067 C   0  0  0  0  0  0  0  0  0  0  0  0
   -2.3808    4.5877    7.7145 C   0  0  0  0  0  0  0  0  0  0  0  0
   -6.5662    4.9969    6.0397 C   0  0  0  0  0  0  0  0  0  0  0  0
   -6.9807    3.7065    5.9846 F   0  0  0  0  0  0  0  0  0  0  0  0
   -7.0412    5.9166    5.0976 C   0  0  0  0  0  0  0  0  0  0  0  0
   -6.8684    8.0487    2.7657 C   0  0  0  0  0  0  0  0  0  0  0  0
   -7.2194    8.9970    1.7961 C   0  0  0  0  0  0  0  0  0  0  0  0
   -7.8752   10.1860    2.1742 C   0  0  0  0  0  0  0  0  0  0  0  0
   -8.3207   11.1984    1.1950 C   0  0  0  0  0  0  0  0  0  0  0  0
   -9.3267   10.8867    0.2662 C   0  0  0  0  0  0  0  0  0  0  0  0
   -9.9031   11.8964   -0.5103 C   0  0  0  0  0  0  0  0  0  0  0  0
   -9.4759   13.2241   -0.3707 C   0  0  0  0  0  0  0  0  0  0  0  0
  -10.3746   14.5487   -1.1891 S   0  0  0  0  0  0  0  0  0  0  0  0
   -9.3510   14.5811   -2.6999 C   0  0  0  0  0  0  0  0  0  0  0  0
   -9.9082   13.6144   -3.7388 C   0  0  0  0  0  0  0  0  0  0  0  0
   -8.4323   13.5283    0.5122 C   0  0  0  0  0  0  0  0  0  0  0  0
   -7.8537   12.5189    1.2880 C   0  0  0  0  0  0  0  0  0  0  0  0
   -8.0182   14.8108    0.6718 F   0  0  0  0  0  0  0  0  0  0  0  0
   -8.1413   10.3595    3.5460 C   0  0  0  0  0  0  0  0  0  0  0  0
   -8.9479   11.6323    4.3010 S   0  0  0  0  0  0  0  0  0  0  0  0
   -6.8085    8.6432    0.4955 C   0  0  0  0  0  0  0  0  0  0  0  0
   -6.1546    7.4107    0.4551 C   0  0  0  0  0  0  0  0  0  0  0  0
   -6.0689    6.7742    2.0194 S   0  0  0  0  0  0  0  0  0  0  0  0
   -5.4987    6.7900   -0.7072 C   0  0  0  0  0  0  0  0  0  0  0  0
   -5.0178    7.4496   -1.8433 C   0  0  0  0  0  0  0  0  0  0  0  0
   -4.1903    6.6330   -2.6424 C   0  0  0  0  0  0  0  0  0  0  0  0
   -3.4476    7.0289   -3.7795 C   0  0  0  0  0  0  0  0  0  0  0  0
   -3.5297    8.3853   -4.3624 C   0  0  0  0  0  0  0  0  0  0  0  0
   -3.2368    9.5245   -3.5963 C   0  0  0  0  0  0  0  0  0  0  0  0
   -3.3185   10.7961   -4.1725 C   0  0  0  0  0  0  0  0  0  0  0  0
   -3.6841   10.9394   -5.5168 C   0  0  0  0  0  0  0  0  0  0  0  0
   -3.8323   12.5797   -6.2374 S   0  0  0  0  0  0  0  0  0  0  0  0
   -5.6562   12.6479   -6.1072 C   0  0  0  0  0  0  0  0  0  0  0  0
   -6.1039   12.9365   -4.6797 C   0  0  0  0  0  0  0  0  0  0  0  0
   -3.9285    9.8008   -6.2962 C   0  0  0  0  0  0  0  0  0  0  0  0
   -4.2608    9.9213   -7.6083 F   0  0  0  0  0  0  0  0  0  0  0  0
   -3.8610    8.5312   -5.7184 C   0  0  0  0  0  0  0  0  0  0  0  0
   -2.5800    6.0719   -4.3377 C   0  0  0  0  0  0  0  0  0  0  0  0
   -2.4821    4.7674   -3.8489 C   0  0  0  0  0  0  0  0  0  0  0  0
   -3.2439    4.3569   -2.7359 C   0  0  0  0  0  0  0  0  0  0  0  0
   -3.0714    3.0154   -2.1295 C   0  0  0  0  0  0  0  0  0  0  0  0
   -3.3566    1.8616   -2.8760 C   0  0  0  0  0  0  0  0  0  0  0  0
   -3.1831    0.5947   -2.3094 C   0  0  0  0  0  0  0  0  0  0  0  0
   -2.7281    0.4695   -0.9921 C   0  0  0  0  0  0  0  0  0  0  0  0
   -2.4911   -1.1653   -0.2840 S   0  0  0  0  0  0  0  0  0  0  0  0
   -4.1113   -1.2340    0.5655 C   0  0  0  0  0  0  0  0  0  0  0  0
   -5.2348   -1.5853   -0.4030 C   0  0  0  0  0  0  0  0  0  0  0  0
   -2.4242    1.6171   -0.2478 C   0  0  0  0  0  0  0  0  0  0  0  0
   -2.5970    2.8841   -0.8140 C   0  0  0  0  0  0  0  0  0  0  0  0
   -1.9592    1.5105    1.0223 F   0  0  0  0  0  0  0  0  0  0  0  0
   -4.0729    5.3272   -2.1467 C   0  0  0  0  0  0  0  0  0  0  0  0
   -4.9519    5.1943   -0.7219 S   0  0  0  0  0  0  0  0  0  0  0  0
   -1.4292    4.0436   -4.4214 C   0  0  0  0  0  0  0  0  0  0  0  0
   -0.6397    4.7910   -5.2964 C   0  0  0  0  0  0  0  0  0  0  0  0
   -1.2975    6.3428   -5.3992 S   0  0  0  0  0  0  0  0  0  0  0  0
    0.7987    4.5394   -5.3479 C   0  0  0  0  0  0  0  0  0  0  0  0
    1.5326    4.5661   -4.1690 C   0  0  0  0  0  0  0  0  0  0  0  0
    2.6136    3.6824   -4.1602 C   0  0  0  0  0  0  0  0  0  0  0  0
    3.3505    3.3125   -3.0163 C   0  0  0  0  0  0  0  0  0  0  0  0
    2.9292    3.7349   -1.6565 C   0  0  0  0  0  0  0  0  0  0  0  0
    1.6195    3.4666   -1.2144 C   0  0  0  0  0  0  0  0  0  0  0  0
    1.1715    3.9628    0.0106 C   0  0  0  0  0  0  0  0  0  0  0  0
    2.0296    4.7097    0.8223 C   0  0  0  0  0  0  0  0  0  0  0  0
    1.3895    5.4892    2.3091 S   0  0  0  0  0  0  0  0  0  0  0  0
    1.6088    4.0468    3.4100 C   0  0  0  0  0  0  0  0  0  0  0  0
    0.2510    3.4738    3.8011 C   0  0  0  0  0  0  0  0  0  0  0  0
    3.3603    4.9138    0.4259 C   0  0  0  0  0  0  0  0  0  0  0  0
    4.2060    5.6282    1.2086 F   0  0  0  0  0  0  0  0  0  0  0  0
    3.8086    4.4261   -0.8105 C   0  0  0  0  0  0  0  0  0  0  0  0
    4.3331    2.3260   -3.1976 C   0  0  0  0  0  0  0  0  0  0  0  0
    4.5451    1.6870   -4.4263 C   0  0  0  0  0  0  0  0  0  0  0  0
    3.7995    2.0565   -5.5686 C   0  0  0  0  0  0  0  0  0  0  0  0
    4.0481    1.4376   -6.8898 C   0  0  0  0  0  0  0  0  0  0  0  0
    5.3165    1.5577   -7.4804 C   0  0  0  0  0  0  0  0  0  0  0  0
    5.5637    1.0020   -8.7383 C   0  0  0  0  0  0  0  0  0  0  0  0
    4.5482    0.3288   -9.4230 C   0  0  0  0  0  0  0  0  0  0  0  0
    4.8839   -0.3862  -11.0379 S   0  0  0  0  0  0  0  0  0  0  0  0
    4.2616    1.0399  -11.9969 C   0  0  0  0  0  0  0  0  0  0  0  0
    5.2894    2.1640  -12.0551 C   0  0  0  0  0  0  0  0  0  0  0  0
    3.2873    0.1790   -8.8273 C   0  0  0  0  0  0  0  0  0  0  0  0
    3.0368    0.7343   -7.5658 C   0  0  0  0  0  0  0  0  0  0  0  0
    2.3018   -0.5007   -9.4662 F   0  0  0  0  0  0  0  0  0  0  0  0
    2.8120    3.0419   -5.3861 C   0  0  0  0  0  0  0  0  0  0  0  0
    1.5574    3.4835   -6.4266 S   0  0  0  0  0  0  0  0  0  0  0  0
    5.3938    0.5705   -4.3232 C   0  0  0  0  0  0  0  0  0  0  0  0
    5.8545    0.3513   -3.0263 C   0  0  0  0  0  0  0  0  0  0  0  0
    5.2038    1.5249   -2.0062 S   0  0  0  0  0  0  0  0  0  0  0  0
    6.3120   -0.9387   -2.5119 C   0  0  0  0  0  0  0  0  0  0  0  0
    5.5900   -2.1157   -2.7024 C   0  0  0  0  0  0  0  0  0  0  0  0
    5.8489   -3.0825   -1.7218 C   0  0  0  0  0  0  0  0  0  0  0  0
    5.1390   -4.2829   -1.5372 C   0  0  0  0  0  0  0  0  0  0  0  0
    4.0358   -4.6806   -2.4313 C   0  0  0  0  0  0  0  0  0  0  0  0
    4.1922   -5.7688   -3.3013 C   0  0  0  0  0  0  0  0  0  0  0  0
    3.1431   -6.1510   -4.1395 C   0  0  0  0  0  0  0  0  0  0  0  0
    1.9255   -5.4601   -4.1044 C   0  0  0  0  0  0  0  0  0  0  0  0
    0.5869   -5.9537   -5.1966 S   0  0  0  0  0  0  0  0  0  0  0  0
   -0.2255   -7.0527   -3.9809 C   0  0  0  0  0  0  0  0  0  0  0  0
    0.4338   -8.4267   -3.9530 C   0  0  0  0  0  0  0  0  0  0  0  0
    1.7681   -4.3671   -3.2390 C   0  0  0  0  0  0  0  0  0  0  0  0
    0.5961   -3.6829   -3.2023 F   0  0  0  0  0  0  0  0  0  0  0  0
    2.8173   -3.9833   -2.4000 C   0  0  0  0  0  0  0  0  0  0  0  0
    5.4254   -5.0158   -0.3750 C   0  0  0  0  0  0  0  0  0  0  0  0
    6.3710   -4.6059    0.5666 C   0  0  0  0  0  0  0  0  0  0  0  0
    7.1423   -3.4457    0.3408 C   0  0  0  0  0  0  0  0  0  0  0  0
    8.2409   -3.0268    1.2343 C   0  0  0  0  0  0  0  0  0  0  0  0
    7.9874   -2.6526    2.5642 C   0  0  0  0  0  0  0  0  0  0  0  0
    9.0358   -2.2126    3.3790 C   0  0  0  0  0  0  0  0  0  0  0  0
   10.3400   -2.1363    2.8719 C   0  0  0  0  0  0  0  0  0  0  0  0
   11.6632   -1.4714    3.8906 S   0  0  0  0  0  0  0  0  0  0  0  0
   12.2948   -3.0900    4.4578 C   0  0  0  0  0  0  0  0  0  0  0  0
   11.4589   -3.6291    5.6121 C   0  0  0  0  0  0  0  0  0  0  0  0
   10.5940   -2.5095    1.5457 C   0  0  0  0  0  0  0  0  0  0  0  0
    9.5490   -2.9564    0.7322 C   0  0  0  0  0  0  0  0  0  0  0  0
   11.8502   -2.4333    1.0357 F   0  0  0  0  0  0  0  0  0  0  0  0
    6.8251   -2.6891   -0.8019 C   0  0  0  0  0  0  0  0  0  0  0  0
    7.3025   -1.1135   -1.1557 S   0  0  0  0  0  0  0  0  0  0  0  0
    6.3938   -5.4184    1.7129 C   0  0  0  0  0  0  0  0  0  0  0  0
    5.4300   -6.4346    1.6958 C   0  0  0  0  0  0  0  0  0  0  0  0
    4.6352   -6.3757    0.2017 S   0  0  0  0  0  0  0  0  0  0  0  0
    5.2076   -7.4059    2.8403 C   0  0  0  0  0  0  0  0  0  0  0  0
    6.0114   -8.7241    2.6770 C   0  0  0  0  0  0  0  0  0  0  0  0
    5.5325   -9.6210    1.5033 C   0  0  0  0  0  0  0  0  0  0  0  0
    4.0624   -9.9080    1.5443 C   0  0  0  0  0  0  0  0  0  0  0  0
    3.5780  -11.1096    1.8654 C   0  0  0  0  0  0  0  0  0  0  0  0
    3.1865   -8.8736    1.2267 O   0  0  0  0  0  0  0  0  0  0  0  0
    2.6977   -7.9382    2.1915 C   0  0  2  0  0  0  0  0  0  0  0  0
    3.7345   -7.6387    3.3257 C   0  0  0  0  0  0  0  0  0  0  0  0
    3.6816   -8.7020    4.4180 C   0  0  0  0  0  0  0  0  0  0  0  0
    4.6804   -9.5674    4.6785 C   0  0  0  0  0  0  0  0  0  0  0  0
    6.0498   -9.4361    4.0600 C   0  0  0  0  0  0  0  0  0  0  0  0
    6.7945  -10.7775    4.0532 C   0  0  0  0  0  0  0  0  0  0  0  0
    1.2964   -8.3891    2.6506 C   0  0  0  0  0  0  0  0  0  0  0  0
    0.5438   -7.3064    3.4481 C   0  0  0  0  0  0  0  0  0  0  0  0
   -0.8825   -7.7233    3.8629 C   0  0  0  0  0  0  0  0  0  0  0  0
   -1.8215   -8.1416    2.6877 C   0  0  0  0  0  0  0  0  0  0  0  0
   -2.0016   -7.1295    1.5063 C   0  0  0  0  0  0  0  0  0  0  0  0
   -3.0692   -6.0203    1.7502 C   0  0  0  0  0  0  0  0  0  0  0  0
   -3.1194   -5.5507    3.1675 C   0  0  0  0  0  0  0  0  0  0  0  0
   -2.7008   -4.3264    3.4927 C   0  0  0  0  0  0  0  0  0  0  0  0
   -3.5627   -6.3998    4.1919 O   0  0  0  0  0  0  0  0  0  0  0  0
   -4.0482   -7.7473    4.0654 C   0  0  2  0  0  0  0  0  0  0  0  0
   -3.2112   -8.6871    3.1059 C   0  0  0  0  0  0  0  0  0  0  0  0
   -3.9644   -9.1655    1.8554 C   0  0  0  0  0  0  0  0  0  0  0  0
   -3.6204   -8.8297    0.5927 C   0  0  0  0  0  0  0  0  0  0  0  0
   -2.4051   -7.9782    0.2729 C   0  0  0  0  0  0  0  0  0  0  0  0
   -2.6342   -7.1313   -0.9880 C   0  0  0  0  0  0  0  0  0  0  0  0
   -5.5768   -7.7252    3.8350 C   0  0  0  0  0  0  0  0  0  0  0  0
   -6.2731   -8.9788    4.3979 C   0  0  0  0  0  0  0  0  0  0  0  0
   -7.7668   -8.9702    4.0896 C   0  0  0  0  0  0  0  0  0  0  0  0
   -9.2331   11.4730    6.7533 H   0  0  0  0  0  0  0  0  0  0  0  0
   -8.0089    9.1815    6.6945 H   0  0  0  0  0  0  0  0  0  0  0  0
   -5.3944    8.6947    6.1927 H   0  0  0  0  0  0  0  0  0  0  0  0
   -4.6000    7.0845    7.8775 H   0  0  0  0  0  0  0  0  0  0  0  0
   -3.3672    2.6804    7.5350 H   0  0  0  0  0  0  0  0  0  0  0  0
   -3.7538    3.8313    6.2128 H   0  0  0  0  0  0  0  0  0  0  0  0
   -2.5624    5.6603    7.4971 H   0  0  0  0  0  0  0  0  0  0  0  0
   -2.1774    4.4616    8.8005 H   0  0  0  0  0  0  0  0  0  0  0  0
   -1.4860    4.2565    7.1465 H   0  0  0  0  0  0  0  0  0  0  0  0
   -7.7377    5.5837    4.3350 H   0  0  0  0  0  0  0  0  0  0  0  0
   -9.7087    9.8738    0.1933 H   0  0  0  0  0  0  0  0  0  0  0  0
  -10.7181   11.6533   -1.1802 H   0  0  0  0  0  0  0  0  0  0  0  0
   -8.2887   14.3408   -2.4783 H   0  0  0  0  0  0  0  0  0  0  0  0
   -9.3918   15.6106   -3.1153 H   0  0  0  0  0  0  0  0  0  0  0  0
   -9.7226   12.5664   -3.4252 H   0  0  0  0  0  0  0  0  0  0  0  0
  -11.0001   13.7747   -3.8669 H   0  0  0  0  0  0  0  0  0  0  0  0
   -9.4144   13.7923   -4.7167 H   0  0  0  0  0  0  0  0  0  0  0  0
   -7.0786   12.7744    2.0038 H   0  0  0  0  0  0  0  0  0  0  0  0
   -6.9541    9.2685   -0.3739 H   0  0  0  0  0  0  0  0  0  0  0  0
   -5.2054    8.4958   -2.0358 H   0  0  0  0  0  0  0  0  0  0  0  0
   -2.9397    9.4309   -2.5584 H   0  0  0  0  0  0  0  0  0  0  0  0
   -3.1028   11.6718   -3.5715 H   0  0  0  0  0  0  0  0  0  0  0  0
   -6.0217   13.4603   -6.7696 H   0  0  0  0  0  0  0  0  0  0  0  0
   -6.1077   11.6955   -6.4587 H   0  0  0  0  0  0  0  0  0  0  0  0
   -7.2105   12.9505   -4.6430 H   0  0  0  0  0  0  0  0  0  0  0  0
   -5.7207   13.9260   -4.3491 H   0  0  0  0  0  0  0  0  0  0  0  0
   -5.7483   12.1484   -3.9865 H   0  0  0  0  0  0  0  0  0  0  0  0
   -4.0702    7.6599   -6.3268 H   0  0  0  0  0  0  0  0  0  0  0  0
   -3.7093    1.9430   -3.8978 H   0  0  0  0  0  0  0  0  0  0  0  0
   -3.4016   -0.2880   -2.8972 H   0  0  0  0  0  0  0  0  0  0  0  0
   -4.0591   -2.0198    1.3497 H   0  0  0  0  0  0  0  0  0  0  0  0
   -4.3329   -0.2650    1.0656 H   0  0  0  0  0  0  0  0  0  0  0  0
   -5.0053   -2.5362   -0.9318 H   0  0  0  0  0  0  0  0  0  0  0  0
   -6.1828   -1.7167    0.1614 H   0  0  0  0  0  0  0  0  0  0  0  0
   -5.3808   -0.7751   -1.1449 H   0  0  0  0  0  0  0  0  0  0  0  0
   -2.3510    3.7631   -0.2325 H   0  0  0  0  0  0  0  0  0  0  0  0
   -1.1178    3.0693   -4.0635 H   0  0  0  0  0  0  0  0  0  0  0  0
    1.1872    5.1030   -3.2962 H   0  0  0  0  0  0  0  0  0  0  0  0
    0.9315    2.9108   -1.8391 H   0  0  0  0  0  0  0  0  0  0  0  0
    0.1466    3.7970    0.3122 H   0  0  0  0  0  0  0  0  0  0  0  0
    2.2286    3.2540    2.9395 H   0  0  0  0  0  0  0  0  0  0  0  0
    2.1277    4.3938    4.3280 H   0  0  0  0  0  0  0  0  0  0  0  0
   -0.4048    4.2717    4.2103 H   0  0  0  0  0  0  0  0  0  0  0  0
    0.3894    2.6980    4.5816 H   0  0  0  0  0  0  0  0  0  0  0  0
   -0.2386    3.0107    2.9207 H   0  0  0  0  0  0  0  0  0  0  0  0
    4.8278    4.6193   -1.1227 H   0  0  0  0  0  0  0  0  0  0  0  0
    6.1106    2.0907   -6.9695 H   0  0  0  0  0  0  0  0  0  0  0  0
    6.5479    1.1092   -9.1841 H   0  0  0  0  0  0  0  0  0  0  0  0
    4.0586    0.6916  -13.0318 H   0  0  0  0  0  0  0  0  0  0  0  0
    3.3099    1.4158  -11.5658 H   0  0  0  0  0  0  0  0  0  0  0  0
    6.2598    1.7799  -12.4367 H   0  0  0  0  0  0  0  0  0  0  0  0
    5.4374    2.6065  -11.0485 H   0  0  0  0  0  0  0  0  0  0  0  0
    4.9260    2.9612  -12.7381 H   0  0  0  0  0  0  0  0  0  0  0  0
    2.0602    0.6114   -7.1154 H   0  0  0  0  0  0  0  0  0  0  0  0
    5.5716   -0.1260   -5.1330 H   0  0  0  0  0  0  0  0  0  0  0  0
    4.8070   -2.2079   -3.4417 H   0  0  0  0  0  0  0  0  0  0  0  0
    5.1290   -6.3138   -3.3331 H   0  0  0  0  0  0  0  0  0  0  0  0
    3.2745   -6.9896   -4.8099 H   0  0  0  0  0  0  0  0  0  0  0  0
   -0.1950   -6.6028   -2.9664 H   0  0  0  0  0  0  0  0  0  0  0  0
   -1.2904   -7.1692   -4.2751 H   0  0  0  0  0  0  0  0  0  0  0  0
   -0.1526   -9.1075   -3.2977 H   0  0  0  0  0  0  0  0  0  0  0  0
    0.4652   -8.8590   -4.9769 H   0  0  0  0  0  0  0  0  0  0  0  0
    1.4668   -8.3526   -3.5565 H   0  0  0  0  0  0  0  0  0  0  0  0
    2.6856   -3.1450   -1.7263 H   0  0  0  0  0  0  0  0  0  0  0  0
    6.9793   -2.6825    2.9580 H   0  0  0  0  0  0  0  0  0  0  0  0
    8.8284   -1.9161    4.3965 H   0  0  0  0  0  0  0  0  0  0  0  0
   12.3106   -3.8243    3.6251 H   0  0  0  0  0  0  0  0  0  0  0  0
   13.3397   -2.9453    4.8083 H   0  0  0  0  0  0  0  0  0  0  0  0
   11.3672   -2.8613    6.4098 H   0  0  0  0  0  0  0  0  0  0  0  0
   11.9530   -4.5275    6.0409 H   0  0  0  0  0  0  0  0  0  0  0  0
   10.4468   -3.9122    5.2564 H   0  0  0  0  0  0  0  0  0  0  0  0
    9.7556   -3.2400   -0.2942 H   0  0  0  0  0  0  0  0  0  0  0  0
    7.0553   -5.2553    2.5546 H   0  0  0  0  0  0  0  0  0  0  0  0
    5.6803   -6.8926    3.7113 H   0  0  0  0  0  0  0  0  0  0  0  0
    7.0646   -8.4456    2.4428 H   0  0  0  0  0  0  0  0  0  0  0  0
    6.1156  -10.5682    1.4721 H   0  0  0  0  0  0  0  0  0  0  0  0
    5.7648   -9.1139    0.5415 H   0  0  0  0  0  0  0  0  0  0  0  0
    2.5093  -11.2717    1.8942 H   0  0  0  0  0  0  0  0  0  0  0  0
    4.2329  -11.9289    2.1258 H   0  0  0  0  0  0  0  0  0  0  0  0
    2.5186   -6.9831    1.6571 H   0  0  0  0  0  0  0  0  0  0  0  0
    3.4067   -6.6888    3.8021 H   0  0  0  0  0  0  0  0  0  0  0  0
    2.7708   -8.8034    4.9933 H   0  0  0  0  0  0  0  0  0  0  0  0
    4.5273  -10.3073    5.4581 H   0  0  0  0  0  0  0  0  0  0  0  0
    6.6338   -8.7780    4.7444 H   0  0  0  0  0  0  0  0  0  0  0  0
    7.0018  -11.1022    5.0965 H   0  0  0  0  0  0  0  0  0  0  0  0
    7.7703  -10.6717    3.5363 H   0  0  0  0  0  0  0  0  0  0  0  0
    6.2000  -11.5694    3.5551 H   0  0  0  0  0  0  0  0  0  0  0  0
    1.3454   -9.3353    3.2279 H   0  0  0  0  0  0  0  0  0  0  0  0
    0.7346   -8.6098    1.7204 H   0  0  0  0  0  0  0  0  0  0  0  0
    0.5030   -6.3600    2.8712 H   0  0  0  0  0  0  0  0  0  0  0  0
    1.1046   -7.0807    4.3780 H   0  0  0  0  0  0  0  0  0  0  0  0
   -1.2930   -6.8894    4.4549 H   0  0  0  0  0  0  0  0  0  0  0  0
   -0.8033   -8.5814    4.5657 H   0  0  0  0  0  0  0  0  0  0  0  0
   -1.3104   -9.0443    2.2784 H   0  0  0  0  0  0  0  0  0  0  0  0
   -1.0313   -6.6415    1.2839 H   0  0  0  0  0  0  0  0  0  0  0  0
   -2.8723   -5.1685    1.0611 H   0  0  0  0  0  0  0  0  0  0  0  0
   -4.0907   -6.3771    1.5023 H   0  0  0  0  0  0  0  0  0  0  0  0
   -2.3187   -3.6457    2.7429 H   0  0  0  0  0  0  0  0  0  0  0  0
   -2.7104   -4.0025    4.5258 H   0  0  0  0  0  0  0  0  0  0  0  0
   -3.9014   -8.1694    5.0835 H   0  0  0  0  0  0  0  0  0  0  0  0
   -3.0137   -9.6189    3.6846 H   0  0  0  0  0  0  0  0  0  0  0  0
   -4.8193   -9.8192    1.9787 H   0  0  0  0  0  0  0  0  0  0  0  0
   -4.1927   -9.2522   -0.2293 H   0  0  0  0  0  0  0  0  0  0  0  0
   -1.5651   -8.6695    0.0331 H   0  0  0  0  0  0  0  0  0  0  0  0
   -1.7905   -6.4263   -1.1341 H   0  0  0  0  0  0  0  0  0  0  0  0
   -2.6922   -7.7961   -1.8792 H   0  0  0  0  0  0  0  0  0  0  0  0
   -3.5790   -6.5490   -0.9247 H   0  0  0  0  0  0  0  0  0  0  0  0
   -5.8138   -7.5799    2.7584 H   0  0  0  0  0  0  0  0  0  0  0  0
   -5.9961   -6.8448    4.3679 H   0  0  0  0  0  0  0  0  0  0  0  0
   -6.1430   -9.0072    5.5014 H   0  0  0  0  0  0  0  0  0  0  0  0
   -5.8285   -9.9052    3.9839 H   0  0  0  0  0  0  0  0  0  0  0  0
   -8.2424   -9.8679    4.5423 H   0  0  0  0  0  0  0  0  0  0  0  0
   -8.2446   -8.0624    4.5207 H   0  0  0  0  0  0  0  0  0  0  0  0
   -7.9340   -8.9893    2.9881 H   0  0  0  0  0  0  0  0  0  0  0  0
  1  2  2  0
  2  3  1  0
  3  4  2  0
  4  5  1  0
  5  6  2  0
  6  7  1  0
  7  8  2  0
  8  9  1  0
  9 10  1  0
 10 11  1  0
  8 12  1  0
 12 13  1  0
 12 14  2  0
  4 15  1  0
 15 16  2  0
 16 17  1  0
 17 18  1  0
 18 19  2  0
 19 20  1  0
 20 21  2  0
 21 22  1  0
 22 23  1  0
 23 24  1  0
 21 25  1  0
 25 26  2  0
 25 27  1  0
 17 28  2  0
 28 29  1  0
 16 30  1  0
 30 31  2  0
 31 32  1  0
 31 33  1  0
 33 34  2  0
 34 35  1  0
 35 36  2  0
 36 37  1  0
 37 38  2  0
 38 39  1  0
 39 40  2  0
 40 41  1  0
 41 42  1  0
 42 43  1  0
 40 44  1  0
 44 45  1  0
 44 46  2  0
 36 47  1  0
 47 48  2  0
 48 49  1  0
 49 50  1  0
 50 51  2  0
 51 52  1  0
 52 53  2  0
 53 54  1  0
 54 55  1  0
 55 56  1  0
 53 57  1  0
 57 58  2  0
 57 59  1  0
 49 60  2  0
 60 61  1  0
 48 62  1  0
 62 63  2  0
 63 64  1  0
 63 65  1  0
 65 66  2  0
 66 67  1  0
 67 68  2  0
 68 69  1  0
 69 70  2  0
 70 71  1  0
 71 72  2  0
 72 73  1  0
 73 74  1  0
 74 75  1  0
 72 76  1  0
 76 77  1  0
 76 78  2  0
 68 79  1  0
 79 80  2  0
 80 81  1  0
 81 82  1  0
 82 83  2  0
 83 84  1  0
 84 85  2  0
 85 86  1  0
 86 87  1  0
 87 88  1  0
 85 89  1  0
 89 90  2  0
 89 91  1  0
 81 92  2  0
 92 93  1  0
 80 94  1  0
 94 95  2  0
 95 96  1  0
 95 97  1  0
 97 98  2  0
 98 99  1  0
 99100  2  0
100101  1  0
101102  2  0
102103  1  0
103104  2  0
104105  1  0
105106  1  0
106107  1  0
104108  1  0
108109  1  0
108110  2  0
100111  1  0
111112  2  0
112113  1  0
113114  1  0
114115  2  0
115116  1  0
116117  2  0
117118  1  0
118119  1  0
119120  1  0
117121  1  0
121122  2  0
121123  1  0
113124  2  0
124125  1  0
112126  1  0
126127  2  0
127128  1  0
127129  1  0
129130  1  0
130131  1  0
131132  1  0
132133  2  3
132134  1  0
134135  1  0
135136  1  0
136137  1  0
137138  2  0
138139  1  0
139140  1  0
135141  1  0
141142  1  0
142143  1  0
143144  1  0
144145  1  0
145146  1  0
146147  1  0
147148  2  3
147149  1  0
149150  1  0
150151  1  0
151152  1  0
152153  2  0
153154  1  0
154155  1  0
150156  1  0
156157  1  0
157158  1  0
 29  1  1  0
 61 33  1  0
 93 65  1  0
125 97  1  0
136129  1  0
151144  1  0
 28  3  1  0
 60 35  1  0
 92 67  1  0
124 99  1  0
139130  1  0
154145  1  0
 14  5  1  0
 32 15  1  0
 46 37  1  0
 64 47  1  0
 78 69  1  0
 96 79  1  0
110101  1  0
128111  1  0
 26 18  1  0
 58 50  1  0
 90 82  1  0
122114  1  0
  1159  1  0
  2160  1  0
  6161  1  0
  7162  1  0
 10163  1  0
 10164  1  0
 11165  1  0
 11166  1  0
 11167  1  0
 14168  1  0
 19169  1  0
 20170  1  0
 23171  1  0
 23172  1  0
 24173  1  0
 24174  1  0
 24175  1  0
 26176  1  0
 30177  1  0
 34178  1  0
 38179  1  0
 39180  1  0
 42181  1  0
 42182  1  0
 43183  1  0
 43184  1  0
 43185  1  0
 46186  1  0
 51187  1  0
 52188  1  0
 55189  1  0
 55190  1  0
 56191  1  0
 56192  1  0
 56193  1  0
 58194  1  0
 62195  1  0
 66196  1  0
 70197  1  0
 71198  1  0
 74199  1  0
 74200  1  0
 75201  1  0
 75202  1  0
 75203  1  0
 78204  1  0
 83205  1  0
 84206  1  0
 87207  1  0
 87208  1  0
 88209  1  0
 88210  1  0
 88211  1  0
 90212  1  0
 94213  1  0
 98214  1  0
102215  1  0
103216  1  0
106217  1  0
106218  1  0
107219  1  0
107220  1  0
107221  1  0
110222  1  0
115223  1  0
116224  1  0
119225  1  0
119226  1  0
120227  1  0
120228  1  0
120229  1  0
122230  1  0
126231  1  0
129232  1  0
130233  1  0
131234  1  0
131235  1  0
133236  1  0
133237  1  0
135238  1  6
136239  1  0
137240  1  0
138241  1  0
139242  1  0
140243  1  0
140244  1  0
140245  1  0
141246  1  0
141247  1  0
142248  1  0
142249  1  0
143250  1  0
143251  1  0
144252  1  0
145253  1  0
146254  1  0
146255  1  0
148256  1  0
148257  1  0
150258  1  1
151259  1  0
152260  1  0
153261  1  0
154262  1  0
155263  1  0
155264  1  0
155265  1  0
156266  1  0
156267  1  0
157268  1  0
157269  1  0
158270  1  0
158271  1  0
158272  1  0
M  END

