
     RDKit          3D

231257  0  0  0  0  0  0  0  0999 V2000
    4.9402   -3.1451    4.7955 C   0  0  0  0  0  0  0  0  0  0  0  0
    3.8951   -2.3801    4.2861 C   0  0  0  0  0  0  0  0  0  0  0  0
    2.6281   -2.8870    4.6119 C   0  0  0  0  0  0  0  0  0  0  0  0
    1.3831   -2.3330    4.2465 C   0  0  0  0  0  0  0  0  0  0  0  0
    1.2858   -1.1023    3.4440 C   0  0  0  0  0  0  0  0  0  0  0  0
    0.7710    0.3767    4.0473 S   0  0  0  0  0  0  0  0  0  0  0  0
    1.0889    1.2629    2.6517 C   0  0  0  0  0  0  0  0  0  0  0  0
    1.0454    2.7578    2.5873 C   0  0  0  0  0  0  0  0  0  0  0  0
    2.3986    3.3401    2.9806 C   0  0  0  0  0  0  0  0  0  0  0  0
    1.6210    0.4048    1.6913 C   0  0  0  0  0  0  0  0  0  0  0  0
    2.1631    0.9448    0.1075 Cl  0  0  0  0  0  0  0  0  0  0  0  0
    1.7240   -0.9251    2.1337 C   0  0  0  0  0  0  0  0  0  0  0  0
    2.3621   -2.2264    1.1369 Cl  0  0  0  0  0  0  0  0  0  0  0  0
    0.2320   -2.9851    4.7221 C   0  0  0  0  0  0  0  0  0  0  0  0
    0.2939   -4.1581    5.4830 C   0  0  0  0  0  0  0  0  0  0  0  0
    1.5383   -4.7065    5.8507 C   0  0  0  0  0  0  0  0  0  0  0  0
    1.6382   -5.8963    6.7081 C   0  0  0  0  0  0  0  0  0  0  0  0
    1.2154   -7.4536    6.2409 S   0  0  0  0  0  0  0  0  0  0  0  0
    1.6032   -8.1860    7.7059 C   0  0  0  0  0  0  0  0  0  0  0  0
    1.3955   -9.6396    8.0056 C   0  0  0  0  0  0  0  0  0  0  0  0
   -0.0493   -9.9021    8.4101 C   0  0  0  0  0  0  0  0  0  0  0  0
    2.0553   -7.2078    8.5925 C   0  0  0  0  0  0  0  0  0  0  0  0
    2.0850   -5.9251    8.0277 C   0  0  0  0  0  0  0  0  0  0  0  0
    2.5726   -4.4880    8.9149 Cl  0  0  0  0  0  0  0  0  0  0  0  0
    2.5175   -7.5370   10.2556 Cl  0  0  0  0  0  0  0  0  0  0  0  0
    2.6876   -4.0421    5.3954 C   0  0  0  0  0  0  0  0  0  0  0  0
    4.2995   -4.4414    5.6620 S   0  0  0  0  0  0  0  0  0  0  0  0
   -0.9716   -4.6645    5.8184 C   0  0  0  0  0  0  0  0  0  0  0  0
   -2.0126   -3.8771    5.3364 C   0  0  0  0  0  0  0  0  0  0  0  0
   -1.3813   -2.5709    4.4752 S   0  0  0  0  0  0  0  0  0  0  0  0
   -3.4327   -4.2156    5.4362 C   0  0  0  0  0  0  0  0  0  0  0  0
   -4.0966   -5.6709    4.9180 S   0  0  0  0  0  0  0  0  0  0  0  0
   -5.6955   -5.2643    5.2279 C   0  0  0  0  0  0  0  0  0  0  0  0
   -5.7284   -3.9862    5.7859 C   0  0  0  0  0  0  0  0  0  0  0  0
   -4.4658   -3.3826    5.8634 C   0  0  0  0  0  0  0  0  0  0  0  0
   -4.2329   -1.6928    6.4492 S   0  0  0  0  0  0  0  0  0  0  0  0
   -4.7749   -1.8769    8.2028 C   0  0  0  0  0  0  0  0  0  0  0  0
   -5.3641   -3.2167    8.5656 C   0  0  0  0  0  0  0  0  0  0  0  0
   -4.6933   -3.9984    9.2241 O   0  0  0  0  0  0  0  0  0  0  0  0
   -6.7806   -3.5943    8.1956 C   0  0  0  0  0  0  0  0  0  0  0  0
   -7.1997   -3.2028    6.4568 S   0  0  0  0  0  0  0  0  0  0  0  0
   -6.8439   -6.1184    4.8886 C   0  0  0  0  0  0  0  0  0  0  0  0
   -7.5353   -6.0331    3.7374 C   0  0  0  0  0  0  0  0  0  0  0  0
   -7.3784   -4.9830    2.7061 C   0  0  0  0  0  0  0  0  0  0  0  0
   -7.7904   -5.1030    1.3739 C   0  0  0  0  0  0  0  0  0  0  0  0
   -7.6370   -3.9104    0.6373 C   0  0  0  0  0  0  0  0  0  0  0  0
   -7.9523   -3.7028   -0.7253 C   0  0  0  0  0  0  0  0  0  0  0  0
   -8.3936   -4.8061   -1.5921 C   0  0  0  0  0  0  0  0  0  0  0  0
   -7.4689   -6.1649   -1.9499 S   0  0  0  0  0  0  0  0  0  0  0  0
   -8.6325   -6.9278   -2.8931 C   0  0  0  0  0  0  0  0  0  0  0  0
   -8.4375   -8.2394   -3.5890 C   0  0  0  0  0  0  0  0  0  0  0  0
   -8.1024   -8.0285   -5.0615 C   0  0  0  0  0  0  0  0  0  0  0  0
   -9.7646   -6.1148   -2.9529 C   0  0  0  0  0  0  0  0  0  0  0  0
  -11.2210   -6.5410   -3.8366 Cl  0  0  0  0  0  0  0  0  0  0  0  0
   -9.6321   -4.9255   -2.2186 C   0  0  0  0  0  0  0  0  0  0  0  0
  -10.9178   -3.7381   -2.0630 Cl  0  0  0  0  0  0  0  0  0  0  0  0
   -7.7643   -2.4010   -1.2337 C   0  0  0  0  0  0  0  0  0  0  0  0
   -7.2927   -1.3518   -0.4381 C   0  0  0  0  0  0  0  0  0  0  0  0
   -6.9467   -1.5676    0.9058 C   0  0  0  0  0  0  0  0  0  0  0  0
   -6.3169   -0.5229    1.7310 C   0  0  0  0  0  0  0  0  0  0  0  0
   -4.7207   -0.5728    2.2690 S   0  0  0  0  0  0  0  0  0  0  0  0
   -4.7383    0.9333    3.0142 C   0  0  0  0  0  0  0  0  0  0  0  0
   -3.5351    1.6032    3.6010 C   0  0  0  0  0  0  0  0  0  0  0  0
   -2.8542    2.4849    2.5598 C   0  0  0  0  0  0  0  0  0  0  0  0
   -5.9966    1.5079    2.8346 C   0  0  0  0  0  0  0  0  0  0  0  0
   -6.8838    0.6885    2.1193 C   0  0  0  0  0  0  0  0  0  0  0  0
   -8.5390    1.1464    1.7515 Cl  0  0  0  0  0  0  0  0  0  0  0  0
   -6.4201    3.1114    3.4139 Cl  0  0  0  0  0  0  0  0  0  0  0  0
   -7.1320   -2.8597    1.4061 C   0  0  0  0  0  0  0  0  0  0  0  0
   -6.8656   -3.3980    2.9626 S   0  0  0  0  0  0  0  0  0  0  0  0
   -7.1057   -0.1603   -1.1431 C   0  0  0  0  0  0  0  0  0  0  0  0
   -7.4035   -0.2680   -2.4975 C   0  0  0  0  0  0  0  0  0  0  0  0
   -7.8960   -1.8546   -2.8272 S   0  0  0  0  0  0  0  0  0  0  0  0
   -7.0021    0.7507   -3.4778 C   0  0  0  0  0  0  0  0  0  0  0  0
   -6.2996    0.4666   -4.6488 C   0  0  0  0  0  0  0  0  0  0  0  0
   -5.4980    1.5407   -5.0786 C   0  0  0  0  0  0  0  0  0  0  0  0
   -4.5196    1.4913   -6.0919 C   0  0  0  0  0  0  0  0  0  0  0  0
   -4.3190    0.2943   -6.9304 C   0  0  0  0  0  0  0  0  0  0  0  0
   -3.8141   -1.2122   -6.3748 S   0  0  0  0  0  0  0  0  0  0  0  0
   -3.8354   -1.9752   -7.8723 C   0  0  0  0  0  0  0  0  0  0  0  0
   -3.5546   -3.4310   -8.0934 C   0  0  0  0  0  0  0  0  0  0  0  0
   -4.8483   -4.2387   -8.0696 C   0  0  0  0  0  0  0  0  0  0  0  0
   -4.2448   -1.0541   -8.8367 C   0  0  0  0  0  0  0  0  0  0  0  0
   -4.4485   -1.4509  -10.5379 Cl  0  0  0  0  0  0  0  0  0  0  0  0
   -4.5033    0.2215   -8.3093 C   0  0  0  0  0  0  0  0  0  0  0  0
   -5.0535    1.5763   -9.2859 Cl  0  0  0  0  0  0  0  0  0  0  0  0
   -3.6277    2.5753   -6.1662 C   0  0  0  0  0  0  0  0  0  0  0  0
   -3.7122    3.6820   -5.3157 C   0  0  0  0  0  0  0  0  0  0  0  0
   -4.7561    3.7829   -4.3771 C   0  0  0  0  0  0  0  0  0  0  0  0
   -4.8366    4.9105   -3.4232 C   0  0  0  0  0  0  0  0  0  0  0  0
   -4.7061    4.7825   -1.7500 S   0  0  0  0  0  0  0  0  0  0  0  0
   -4.8922    6.4213   -1.4256 C   0  0  0  0  0  0  0  0  0  0  0  0
   -4.9620    7.0125   -0.0510 C   0  0  0  0  0  0  0  0  0  0  0  0
   -6.3697    6.8757    0.5203 C   0  0  0  0  0  0  0  0  0  0  0  0
   -5.0743    7.0963   -2.6325 C   0  0  0  0  0  0  0  0  0  0  0  0
   -5.0284    6.2513   -3.7521 C   0  0  0  0  0  0  0  0  0  0  0  0
   -5.2285    6.8262   -5.4038 Cl  0  0  0  0  0  0  0  0  0  0  0  0
   -5.3592    8.8297   -2.7482 Cl  0  0  0  0  0  0  0  0  0  0  0  0
   -5.6182    2.6776   -4.2721 C   0  0  0  0  0  0  0  0  0  0  0  0
   -6.7019    2.3516   -3.0386 S   0  0  0  0  0  0  0  0  0  0  0  0
   -2.5585    4.4823   -5.3294 C   0  0  0  0  0  0  0  0  0  0  0  0
   -1.5528    3.9899   -6.1639 C   0  0  0  0  0  0  0  0  0  0  0  0
   -2.1318    2.5987   -6.9283 S   0  0  0  0  0  0  0  0  0  0  0  0
   -0.1140    4.2584   -5.9838 C   0  0  0  0  0  0  0  0  0  0  0  0
    0.4406    4.7810   -4.8126 C   0  0  0  0  0  0  0  0  0  0  0  0
    1.7928    4.4466   -4.6405 C   0  0  0  0  0  0  0  0  0  0  0  0
    2.5485    4.6402   -3.4628 C   0  0  0  0  0  0  0  0  0  0  0  0
    2.0341    5.4446   -2.3351 C   0  0  0  0  0  0  0  0  0  0  0  0
    1.8206    4.8893   -0.7578 S   0  0  0  0  0  0  0  0  0  0  0  0
    1.2221    6.3341   -0.1351 C   0  0  0  0  0  0  0  0  0  0  0  0
    0.9020    6.5685    1.3084 C   0  0  0  0  0  0  0  0  0  0  0  0
    2.1331    7.0594    2.0617 C   0  0  0  0  0  0  0  0  0  0  0  0
    1.1997    7.2834   -1.1547 C   0  0  0  0  0  0  0  0  0  0  0  0
    0.6920    8.9505   -0.9179 Cl  0  0  0  0  0  0  0  0  0  0  0  0
    1.6422    6.7821   -2.3884 C   0  0  0  0  0  0  0  0  0  0  0  0
    1.7630    7.7751   -3.8378 Cl  0  0  0  0  0  0  0  0  0  0  0  0
    3.7752    3.9541   -3.3795 C   0  0  0  0  0  0  0  0  0  0  0  0
    4.2659    3.1677   -4.4272 C   0  0  0  0  0  0  0  0  0  0  0  0
    3.5481    3.0487   -5.6299 C   0  0  0  0  0  0  0  0  0  0  0  0
    4.0147    2.1846   -6.7224 C   0  0  0  0  0  0  0  0  0  0  0  0
    5.0437    2.6733   -7.9522 S   0  0  0  0  0  0  0  0  0  0  0  0
    5.1109    1.1822   -8.7415 C   0  0  0  0  0  0  0  0  0  0  0  0
    5.9915    0.8454   -9.9130 C   0  0  0  0  0  0  0  0  0  0  0  0
    6.1585    2.0243  -10.8707 C   0  0  0  0  0  0  0  0  0  0  0  0
    4.3416    0.2710   -8.0172 C   0  0  0  0  0  0  0  0  0  0  0  0
    3.7223    0.8349   -6.8905 C   0  0  0  0  0  0  0  0  0  0  0  0
    2.7235   -0.0808   -5.7716 Cl  0  0  0  0  0  0  0  0  0  0  0  0
    4.1763   -1.4271   -8.4447 Cl  0  0  0  0  0  0  0  0  0  0  0  0
    2.3013    3.6844   -5.6935 C   0  0  0  0  0  0  0  0  0  0  0  0
    1.0917    3.4285   -6.8261 S   0  0  0  0  0  0  0  0  0  0  0  0
    5.4221    2.4507   -4.0908 C   0  0  0  0  0  0  0  0  0  0  0  0
    5.8329    2.6685   -2.7785 C   0  0  0  0  0  0  0  0  0  0  0  0
    4.7921    3.7769   -2.0472 S   0  0  0  0  0  0  0  0  0  0  0  0
    6.8361    1.8588   -2.0764 C   0  0  0  0  0  0  0  0  0  0  0  0
    7.3415    2.1055   -0.8006 C   0  0  0  0  0  0  0  0  0  0  0  0
    8.1707    1.0710   -0.3300 C   0  0  0  0  0  0  0  0  0  0  0  0
    8.8005    1.0097    0.9307 C   0  0  0  0  0  0  0  0  0  0  0  0
    8.7460    2.1336    1.8842 C   0  0  0  0  0  0  0  0  0  0  0  0
    8.0894    2.0622    3.4315 S   0  0  0  0  0  0  0  0  0  0  0  0
    8.3919    3.6671    3.8336 C   0  0  0  0  0  0  0  0  0  0  0  0
    7.9883    4.3177    5.1224 C   0  0  0  0  0  0  0  0  0  0  0  0
    6.5789    4.8938    5.0222 C   0  0  0  0  0  0  0  0  0  0  0  0
    9.0013    4.2916    2.7472 C   0  0  0  0  0  0  0  0  0  0  0  0
    9.4718    5.9863    2.7356 Cl  0  0  0  0  0  0  0  0  0  0  0  0
    9.2085    3.4312    1.6584 C   0  0  0  0  0  0  0  0  0  0  0  0
   10.0239    3.9291    0.1818 Cl  0  0  0  0  0  0  0  0  0  0  0  0
    9.4931   -0.1752    1.2360 C   0  0  0  0  0  0  0  0  0  0  0  0
    9.5807   -1.2496    0.3439 C   0  0  0  0  0  0  0  0  0  0  0  0
    8.9658   -1.1781   -0.9213 C   0  0  0  0  0  0  0  0  0  0  0  0
    8.9714   -2.3083   -1.8649 C   0  0  0  0  0  0  0  0  0  0  0  0
    9.6265   -2.2670   -3.4137 S   0  0  0  0  0  0  0  0  0  0  0  0
    9.1014   -3.7987   -3.8721 C   0  0  0  0  0  0  0  0  0  0  0  0
    9.3944   -4.4379   -5.1949 C   0  0  0  0  0  0  0  0  0  0  0  0
   10.6594   -5.2844   -5.1172 C   0  0  0  0  0  0  0  0  0  0  0  0
    8.4104   -4.3720   -2.8039 C   0  0  0  0  0  0  0  0  0  0  0  0
    8.3276   -3.5303   -1.6828 C   0  0  0  0  0  0  0  0  0  0  0  0
    7.4334   -3.9468   -0.2281 Cl  0  0  0  0  0  0  0  0  0  0  0  0
    7.6853   -5.9724   -2.8629 Cl  0  0  0  0  0  0  0  0  0  0  0  0
    8.2815    0.0071   -1.2284 C   0  0  0  0  0  0  0  0  0  0  0  0
    7.3826    0.3523   -2.6042 S   0  0  0  0  0  0  0  0  0  0  0  0
   10.3319   -2.3251    0.8449 C   0  0  0  0  0  0  0  0  0  0  0  0
   10.8252   -2.0984    2.1244 C   0  0  0  0  0  0  0  0  0  0  0  0
   10.3432   -0.5649    2.6328 S   0  0  0  0  0  0  0  0  0  0  0  0
    5.9952   -2.9306    4.6667 H   0  0  0  0  0  0  0  0  0  0  0  0
    4.0575   -1.4844    3.7007 H   0  0  0  0  0  0  0  0  0  0  0  0
    0.2757    3.1303    3.2938 H   0  0  0  0  0  0  0  0  0  0  0  0
    0.7655    3.0895    1.5651 H   0  0  0  0  0  0  0  0  0  0  0  0
    3.1269    3.2024    2.1566 H   0  0  0  0  0  0  0  0  0  0  0  0
    2.7848    2.8525    3.9008 H   0  0  0  0  0  0  0  0  0  0  0  0
    2.2918    4.4209    3.1900 H   0  0  0  0  0  0  0  0  0  0  0  0
    1.6407  -10.2348    7.1011 H   0  0  0  0  0  0  0  0  0  0  0  0
    2.0784   -9.9619    8.8200 H   0  0  0  0  0  0  0  0  0  0  0  0
   -0.1837  -10.9848    8.6129 H   0  0  0  0  0  0  0  0  0  0  0  0
   -0.7389   -9.6052    7.5894 H   0  0  0  0  0  0  0  0  0  0  0  0
   -0.3029   -9.3323    9.3290 H   0  0  0  0  0  0  0  0  0  0  0  0
   -1.1326   -5.5693    6.3938 H   0  0  0  0  0  0  0  0  0  0  0  0
   -3.9033   -1.6602    8.8571 H   0  0  0  0  0  0  0  0  0  0  0  0
   -5.5309   -1.0909    8.4113 H   0  0  0  0  0  0  0  0  0  0  0  0
   -7.4827   -3.0486    8.8588 H   0  0  0  0  0  0  0  0  0  0  0  0
   -6.9350   -4.6833    8.3545 H   0  0  0  0  0  0  0  0  0  0  0  0
   -7.0451   -6.9543    5.5454 H   0  0  0  0  0  0  0  0  0  0  0  0
   -8.2625   -6.8094    3.5386 H   0  0  0  0  0  0  0  0  0  0  0  0
   -8.2039   -6.0152    0.9617 H   0  0  0  0  0  0  0  0  0  0  0  0
   -9.3571   -8.8557   -3.4942 H   0  0  0  0  0  0  0  0  0  0  0  0
   -7.6083   -8.7942   -3.1004 H   0  0  0  0  0  0  0  0  0  0  0  0
   -8.9682   -7.5827   -5.5943 H   0  0  0  0  0  0  0  0  0  0  0  0
   -7.2215   -7.3646   -5.1635 H   0  0  0  0  0  0  0  0  0  0  0  0
   -7.8654   -9.0052   -5.5285 H   0  0  0  0  0  0  0  0  0  0  0  0
   -2.8176    0.8319    3.9561 H   0  0  0  0  0  0  0  0  0  0  0  0
   -3.8422    2.2174    4.4762 H   0  0  0  0  0  0  0  0  0  0  0  0
   -2.0224    3.0384    3.0315 H   0  0  0  0  0  0  0  0  0  0  0  0
   -3.5730    3.2247    2.1490 H   0  0  0  0  0  0  0  0  0  0  0  0
   -2.4557    1.8628    1.7328 H   0  0  0  0  0  0  0  0  0  0  0  0
   -6.6735    0.7276   -0.7042 H   0  0  0  0  0  0  0  0  0  0  0  0
   -6.2505   -0.5264   -5.0752 H   0  0  0  0  0  0  0  0  0  0  0  0
   -2.8661   -3.8045   -7.3062 H   0  0  0  0  0  0  0  0  0  0  0  0
   -3.0588   -3.5698   -9.0776 H   0  0  0  0  0  0  0  0  0  0  0  0
   -4.6322   -5.3014   -8.3124 H   0  0  0  0  0  0  0  0  0  0  0  0
   -5.5665   -3.8438   -8.8216 H   0  0  0  0  0  0  0  0  0  0  0  0
   -5.3154   -4.1929   -7.0599 H   0  0  0  0  0  0  0  0  0  0  0  0
   -4.2426    6.4927    0.6132 H   0  0  0  0  0  0  0  0  0  0  0  0
   -4.6801    8.0857   -0.0814 H   0  0  0  0  0  0  0  0  0  0  0  0
   -7.1135    7.3470   -0.1570 H   0  0  0  0  0  0  0  0  0  0  0  0
   -6.4209    7.3843    1.5068 H   0  0  0  0  0  0  0  0  0  0  0  0
   -6.6258    5.8023    0.6568 H   0  0  0  0  0  0  0  0  0  0  0  0
   -2.4010    5.3048   -4.6450 H   0  0  0  0  0  0  0  0  0  0  0  0
   -0.1499    5.2521   -4.0378 H   0  0  0  0  0  0  0  0  0  0  0  0
    0.5349    5.6254    1.7599 H   0  0  0  0  0  0  0  0  0  0  0  0
    0.0917    7.3205    1.3999 H   0  0  0  0  0  0  0  0  0  0  0  0
    1.9050    7.1256    3.1476 H   0  0  0  0  0  0  0  0  0  0  0  0
    2.9869    6.3594    1.9139 H   0  0  0  0  0  0  0  0  0  0  0  0
    2.4332    8.0671    1.7023 H   0  0  0  0  0  0  0  0  0  0  0  0
    6.9873    0.5295   -9.5417 H   0  0  0  0  0  0  0  0  0  0  0  0
    5.5534   -0.0017  -10.4828 H   0  0  0  0  0  0  0  0  0  0  0  0
    5.1674    2.3558  -11.2513 H   0  0  0  0  0  0  0  0  0  0  0  0
    6.6579    2.8710  -10.3553 H   0  0  0  0  0  0  0  0  0  0  0  0
    6.7909    1.7162  -11.7299 H   0  0  0  0  0  0  0  0  0  0  0  0
    5.9023    1.7422   -4.7526 H   0  0  0  0  0  0  0  0  0  0  0  0
    7.0919    2.9881   -0.2257 H   0  0  0  0  0  0  0  0  0  0  0  0
    8.7021    5.1294    5.3735 H   0  0  0  0  0  0  0  0  0  0  0  0
    8.0220    3.5714    5.9424 H   0  0  0  0  0  0  0  0  0  0  0  0
    6.5138    5.6215    4.1855 H   0  0  0  0  0  0  0  0  0  0  0  0
    6.3268    5.4199    5.9664 H   0  0  0  0  0  0  0  0  0  0  0  0
    5.8444    4.0786    4.8558 H   0  0  0  0  0  0  0  0  0  0  0  0
    9.5293   -3.6459   -5.9626 H   0  0  0  0  0  0  0  0  0  0  0  0
    8.5382   -5.0709   -5.5047 H   0  0  0  0  0  0  0  0  0  0  0  0
   10.5232   -6.1130   -4.3919 H   0  0  0  0  0  0  0  0  0  0  0  0
   11.5221   -4.6595   -4.8035 H   0  0  0  0  0  0  0  0  0  0  0  0
   10.8763   -5.7192   -6.1139 H   0  0  0  0  0  0  0  0  0  0  0  0
   10.5172   -3.2422    0.3012 H   0  0  0  0  0  0  0  0  0  0  0  0
   11.4279   -2.7924    2.6960 H   0  0  0  0  0  0  0  0  0  0  0  0
  1  2  2  0
  2  3  1  0
  3  4  2  0
  4  5  1  0
  5  6  1  0
  6  7  1  0
  7  8  1  0
  8  9  1  0
  7 10  2  0
 10 11  1  0
 10 12  1  0
 12 13  1  0
  4 14  1  0
 14 15  2  0
 15 16  1  0
 16 17  1  0
 17 18  1  0
 18 19  1  0
 19 20  1  0
 20 21  1  0
 19 22  2  0
 22 23  1  0
 23 24  1  0
 22 25  1  0
 16 26  2  0
 26 27  1  0
 15 28  1  0
 28 29  2  0
 29 30  1  0
 29 31  1  0
 31 32  1  0
 32 33  1  0
 33 34  2  0
 34 35  1  0
 35 36  1  0
 36 37  1  0
 37 38  1  0
 38 39  2  0
 38 40  1  0
 40 41  1  0
 33 42  1  0
 42 43  2  3
 43 44  1  0
 44 45  2  0
 45 46  1  0
 46 47  2  0
 47 48  1  0
 48 49  1  0
 49 50  1  0
 50 51  1  0
 51 52  1  0
 50 53  2  0
 53 54  1  0
 53 55  1  0
 55 56  1  0
 47 57  1  0
 57 58  2  0
 58 59  1  0
 59 60  1  0
 60 61  1  0
 61 62  1  0
 62 63  1  0
 63 64  1  0
 62 65  2  0
 65 66  1  0
 66 67  1  0
 65 68  1  0
 59 69  2  0
 69 70  1  0
 58 71  1  0
 71 72  2  0
 72 73  1  0
 72 74  1  0
 74 75  2  0
 75 76  1  0
 76 77  2  0
 77 78  1  0
 78 79  1  0
 79 80  1  0
 80 81  1  0
 81 82  1  0
 80 83  2  0
 83 84  1  0
 83 85  1  0
 85 86  1  0
 77 87  1  0
 87 88  2  0
 88 89  1  0
 89 90  1  0
 90 91  1  0
 91 92  1  0
 92 93  1  0
 93 94  1  0
 92 95  2  0
 95 96  1  0
 96 97  1  0
 95 98  1  0
 89 99  2  0
 99100  1  0
 88101  1  0
101102  2  0
102103  1  0
102104  1  0
104105  2  0
105106  1  0
106107  2  0
107108  1  0
108109  1  0
109110  1  0
110111  1  0
111112  1  0
110113  2  0
113114  1  0
113115  1  0
115116  1  0
107117  1  0
117118  2  0
118119  1  0
119120  1  0
120121  1  0
121122  1  0
122123  1  0
123124  1  0
122125  2  0
125126  1  0
126127  1  0
125128  1  0
119129  2  0
129130  1  0
118131  1  0
131132  2  0
132133  1  0
132134  1  0
134135  2  0
135136  1  0
136137  2  0
137138  1  0
138139  1  0
139140  1  0
140141  1  0
141142  1  0
140143  2  0
143144  1  0
143145  1  0
145146  1  0
137147  1  0
147148  2  0
148149  1  0
149150  1  0
150151  1  0
151152  1  0
152153  1  0
153154  1  0
152155  2  0
155156  1  0
156157  1  0
155158  1  0
149159  2  0
159160  1  0
148161  1  0
161162  2  0
162163  1  0
 27  1  1  0
 35 31  2  0
 70 44  1  0
100 74  1  0
130104  1  0
160134  1  0
 26  3  1  0
 41 34  1  0
 69 46  1  0
 99 76  1  0
129106  1  0
159136  1  0
 12  5  2  0
 30 14  1  0
 55 48  2  0
 73 57  1  0
 85 78  2  0
103 87  1  0
115108  2  0
133117  1  0
145138  2  0
163147  1  0
 23 17  2  0
 66 60  2  0
 96 90  2  0
126120  2  0
156150  2  0
  1164  1  0
  2165  1  0
  8166  1  0
  8167  1  0
  9168  1  0
  9169  1  0
  9170  1  0
 20171  1  0
 20172  1  0
 21173  1  0
 21174  1  0
 21175  1  0
 28176  1  0
 37177  1  0
 37178  1  0
 40179  1  0
 40180  1  0
 42181  1  0
 43182  1  0
 45183  1  0
 51184  1  0
 51185  1  0
 52186  1  0
 52187  1  0
 52188  1  0
 63189  1  0
 63190  1  0
 64191  1  0
 64192  1  0
 64193  1  0
 71194  1  0
 75195  1  0
 81196  1  0
 81197  1  0
 82198  1  0
 82199  1  0
 82200  1  0
 93201  1  0
 93202  1  0
 94203  1  0
 94204  1  0
 94205  1  0
101206  1  0
105207  1  0
111208  1  0
111209  1  0
112210  1  0
112211  1  0
112212  1  0
123213  1  0
123214  1  0
124215  1  0
124216  1  0
124217  1  0
131218  1  0
135219  1  0
141220  1  0
141221  1  0
142222  1  0
142223  1  0
142224  1  0
153225  1  0
153226  1  0
154227  1  0
154228  1  0
154229  1  0
161230  1  0
162231  1  0
M  END

