
     RDKit          3D

225251  0  0  0  0  0  0  0  0999 V2000
    2.9549  -10.1645    9.1857 C   0  0  0  0  0  0  0  0  0  0  0  0
    3.9089   -9.1511    9.1515 C   0  0  0  0  0  0  0  0  0  0  0  0
    3.5099   -8.0425    8.3869 C   0  0  0  0  0  0  0  0  0  0  0  0
    4.2423   -6.8515    8.1904 C   0  0  0  0  0  0  0  0  0  0  0  0
    5.5702   -6.6390    8.7882 C   0  0  0  0  0  0  0  0  0  0  0  0
    5.9191   -5.4825    9.9563 S   0  0  0  0  0  0  0  0  0  0  0  0
    7.5494   -5.8678   10.1067 C   0  0  0  0  0  0  0  0  0  0  0  0
    8.5085   -5.1595   11.0157 C   0  0  0  0  0  0  0  0  0  0  0  0
    9.2970   -4.0957   10.2589 C   0  0  0  0  0  0  0  0  0  0  0  0
    7.8501   -6.9012    9.2197 C   0  0  0  0  0  0  0  0  0  0  0  0
    9.4590   -7.5859    9.0312 Cl  0  0  0  0  0  0  0  0  0  0  0  0
    6.7365   -7.3359    8.4822 C   0  0  0  0  0  0  0  0  0  0  0  0
    6.8186   -8.5958    7.2567 Cl  0  0  0  0  0  0  0  0  0  0  0  0
    3.6341   -5.8556    7.4082 C   0  0  0  0  0  0  0  0  0  0  0  0
    2.3695   -6.0219    6.8383 C   0  0  0  0  0  0  0  0  0  0  0  0
    1.6241   -7.1932    7.0626 C   0  0  0  0  0  0  0  0  0  0  0  0
    0.2454   -7.3252    6.5613 C   0  0  0  0  0  0  0  0  0  0  0  0
   -1.0349   -6.3568    7.0605 S   0  0  0  0  0  0  0  0  0  0  0  0
   -2.1270   -6.8802    5.8948 C   0  0  0  0  0  0  0  0  0  0  0  0
   -3.4893   -6.2876    5.6859 C   0  0  0  0  0  0  0  0  0  0  0  0
   -3.4028   -5.0410    4.8102 C   0  0  0  0  0  0  0  0  0  0  0  0
   -1.4864   -7.8075    5.0722 C   0  0  0  0  0  0  0  0  0  0  0  0
   -0.1566   -8.0614    5.4520 C   0  0  0  0  0  0  0  0  0  0  0  0
    0.9260   -9.1125    4.5502 Cl  0  0  0  0  0  0  0  0  0  0  0  0
   -2.2366   -8.5300    3.6564 Cl  0  0  0  0  0  0  0  0  0  0  0  0
    2.2328   -8.1939    7.8340 C   0  0  0  0  0  0  0  0  0  0  0  0
    1.6080   -9.6872    8.2871 S   0  0  0  0  0  0  0  0  0  0  0  0
    1.9697   -4.9333    6.0536 C   0  0  0  0  0  0  0  0  0  0  0  0
    2.9069   -3.9076    6.0320 C   0  0  0  0  0  0  0  0  0  0  0  0
    4.2411   -4.3444    6.9749 S   0  0  0  0  0  0  0  0  0  0  0  0
    2.7180   -2.6302    5.3413 C   0  0  0  0  0  0  0  0  0  0  0  0
    3.3145   -1.4198    5.6850 C   0  0  0  0  0  0  0  0  0  0  0  0
    2.8022   -0.3358    4.9495 C   0  0  0  0  0  0  0  0  0  0  0  0
    3.1469    1.0246    5.1125 C   0  0  0  0  0  0  0  0  0  0  0  0
    4.1525    1.4529    6.0970 C   0  0  0  0  0  0  0  0  0  0  0  0
    3.8003    2.2852    7.5122 S   0  0  0  0  0  0  0  0  0  0  0  0
    5.3686    2.2693    8.1209 C   0  0  0  0  0  0  0  0  0  0  0  0
    5.7644    2.8067    9.4621 C   0  0  0  0  0  0  0  0  0  0  0  0
    5.7544    1.6998   10.5125 C   0  0  0  0  0  0  0  0  0  0  0  0
    6.1890    1.5820    7.2271 C   0  0  0  0  0  0  0  0  0  0  0  0
    7.9022    1.2948    7.5030 Cl  0  0  0  0  0  0  0  0  0  0  0  0
    5.5063    1.1248    6.0887 C   0  0  0  0  0  0  0  0  0  0  0  0
    6.2802    0.2233    4.7907 Cl  0  0  0  0  0  0  0  0  0  0  0  0
    2.4382    1.9586    4.3363 C   0  0  0  0  0  0  0  0  0  0  0  0
    1.4513    1.5685    3.4241 C   0  0  0  0  0  0  0  0  0  0  0  0
    1.1170    0.2136    3.2467 C   0  0  0  0  0  0  0  0  0  0  0  0
    0.0787   -0.2100    2.2879 C   0  0  0  0  0  0  0  0  0  0  0  0
    0.1593    0.0310    0.6244 S   0  0  0  0  0  0  0  0  0  0  0  0
   -1.3391   -0.6443    0.2703 C   0  0  0  0  0  0  0  0  0  0  0  0
   -1.9027   -0.7842   -1.1085 C   0  0  0  0  0  0  0  0  0  0  0  0
   -1.4790   -2.1030   -1.7398 C   0  0  0  0  0  0  0  0  0  0  0  0
   -1.9167   -1.0955    1.4555 C   0  0  0  0  0  0  0  0  0  0  0  0
   -1.1288   -0.8417    2.5884 C   0  0  0  0  0  0  0  0  0  0  0  0
   -1.6573   -1.2116    4.2262 Cl  0  0  0  0  0  0  0  0  0  0  0  0
   -3.4788   -1.8965    1.5345 Cl  0  0  0  0  0  0  0  0  0  0  0  0
    1.8132   -0.7126    4.0337 C   0  0  0  0  0  0  0  0  0  0  0  0
    1.5812   -2.3714    4.1233 S   0  0  0  0  0  0  0  0  0  0  0  0
    0.8362    2.6461    2.7887 C   0  0  0  0  0  0  0  0  0  0  0  0
    1.3479    3.8746    3.1855 C   0  0  0  0  0  0  0  0  0  0  0  0
    2.5597    3.6467    4.3379 S   0  0  0  0  0  0  0  0  0  0  0  0
    0.8100    5.1387    2.6873 C   0  0  0  0  0  0  0  0  0  0  0  0
   -0.5470    5.4148    2.8605 C   0  0  0  0  0  0  0  0  0  0  0  0
   -1.1584    5.9843    1.7324 C   0  0  0  0  0  0  0  0  0  0  0  0
   -2.5479    6.0561    1.5063 C   0  0  0  0  0  0  0  0  0  0  0  0
   -3.5276    5.6929    2.5444 C   0  0  0  0  0  0  0  0  0  0  0  0
   -3.8012    4.1337    3.1146 S   0  0  0  0  0  0  0  0  0  0  0  0
   -5.0200    4.5553    4.1998 C   0  0  0  0  0  0  0  0  0  0  0  0
   -5.7825    3.5843    5.0501 C   0  0  0  0  0  0  0  0  0  0  0  0
   -7.0839    3.1825    4.3668 C   0  0  0  0  0  0  0  0  0  0  0  0
   -5.2510    5.9274    4.1000 C   0  0  0  0  0  0  0  0  0  0  0  0
   -6.4800    6.7788    5.0282 Cl  0  0  0  0  0  0  0  0  0  0  0  0
   -4.4167    6.5625    3.1673 C   0  0  0  0  0  0  0  0  0  0  0  0
   -4.4714    8.2887    2.8350 Cl  0  0  0  0  0  0  0  0  0  0  0  0
   -2.9661    6.3233    0.1930 C   0  0  0  0  0  0  0  0  0  0  0  0
   -2.0643    6.5882   -0.8419 C   0  0  0  0  0  0  0  0  0  0  0  0
   -0.6736    6.5810   -0.6009 C   0  0  0  0  0  0  0  0  0  0  0  0
    0.3016    6.7162   -1.6979 C   0  0  0  0  0  0  0  0  0  0  0  0
    1.3087    8.0445   -1.9082 S   0  0  0  0  0  0  0  0  0  0  0  0
    1.9380    7.5560   -3.3903 C   0  0  0  0  0  0  0  0  0  0  0  0
    2.9795    8.3133   -4.1605 C   0  0  0  0  0  0  0  0  0  0  0  0
    4.3797    7.9269   -3.6976 C   0  0  0  0  0  0  0  0  0  0  0  0
    1.3734    6.3294   -3.7365 C   0  0  0  0  0  0  0  0  0  0  0  0
    0.4630    5.8511   -2.7816 C   0  0  0  0  0  0  0  0  0  0  0  0
   -0.3720    4.3088   -2.9358 Cl  0  0  0  0  0  0  0  0  0  0  0  0
    1.7116    5.4954   -5.2452 Cl  0  0  0  0  0  0  0  0  0  0  0  0
   -0.2561    6.2525    0.6988 C   0  0  0  0  0  0  0  0  0  0  0  0
    1.2638    5.7070    1.1624 S   0  0  0  0  0  0  0  0  0  0  0  0
   -2.6659    6.5967   -2.1074 C   0  0  0  0  0  0  0  0  0  0  0  0
   -4.0009    6.1940   -2.0892 C   0  0  0  0  0  0  0  0  0  0  0  0
   -4.4703    5.9879   -0.4779 S   0  0  0  0  0  0  0  0  0  0  0  0
   -4.5832    5.4248   -3.2018 C   0  0  0  0  0  0  0  0  0  0  0  0
   -4.0957    5.4760   -4.5104 C   0  0  0  0  0  0  0  0  0  0  0  0
   -4.2851    4.2820   -5.2268 C   0  0  0  0  0  0  0  0  0  0  0  0
   -3.7255    3.9789   -6.4846 C   0  0  0  0  0  0  0  0  0  0  0  0
   -2.9329    4.9684   -7.2331 C   0  0  0  0  0  0  0  0  0  0  0  0
   -1.2673    4.8964   -7.4345 S   0  0  0  0  0  0  0  0  0  0  0  0
   -1.1265    6.3615   -8.2500 C   0  0  0  0  0  0  0  0  0  0  0  0
    0.1574    6.9102   -8.7964 C   0  0  0  0  0  0  0  0  0  0  0  0
    0.4434    6.3311  -10.1769 C   0  0  0  0  0  0  0  0  0  0  0  0
   -2.3961    6.9213   -8.3889 C   0  0  0  0  0  0  0  0  0  0  0  0
   -2.7056    8.4434   -9.2135 Cl  0  0  0  0  0  0  0  0  0  0  0  0
   -3.4078    6.1471   -7.8008 C   0  0  0  0  0  0  0  0  0  0  0  0
   -5.1044    6.6025   -7.8042 Cl  0  0  0  0  0  0  0  0  0  0  0  0
   -3.8336    2.6505   -6.9260 C   0  0  0  0  0  0  0  0  0  0  0  0
   -4.4603    1.6554   -6.1693 C   0  0  0  0  0  0  0  0  0  0  0  0
   -5.0677    1.9691   -4.9367 C   0  0  0  0  0  0  0  0  0  0  0  0
   -5.7041    0.9367   -4.1006 C   0  0  0  0  0  0  0  0  0  0  0  0
   -5.1010    0.3939   -2.6298 S   0  0  0  0  0  0  0  0  0  0  0  0
   -6.2694   -0.7903   -2.3826 C   0  0  0  0  0  0  0  0  0  0  0  0
   -6.3291   -1.6941   -1.1886 C   0  0  0  0  0  0  0  0  0  0  0  0
   -7.1931   -1.0881   -0.0889 C   0  0  0  0  0  0  0  0  0  0  0  0
   -7.1695   -0.7575   -3.4455 C   0  0  0  0  0  0  0  0  0  0  0  0
   -6.8461    0.2054   -4.4153 C   0  0  0  0  0  0  0  0  0  0  0  0
   -7.7991    0.4759   -5.8680 Cl  0  0  0  0  0  0  0  0  0  0  0  0
   -8.5716   -1.8114   -3.5653 Cl  0  0  0  0  0  0  0  0  0  0  0  0
   -4.9505    3.2973   -4.4925 C   0  0  0  0  0  0  0  0  0  0  0  0
   -5.3026    3.9095   -2.9680 S   0  0  0  0  0  0  0  0  0  0  0  0
   -4.3485    0.3779   -6.7409 C   0  0  0  0  0  0  0  0  0  0  0  0
   -3.6704    0.3936   -7.9558 C   0  0  0  0  0  0  0  0  0  0  0  0
   -3.1954    1.9676   -8.3269 S   0  0  0  0  0  0  0  0  0  0  0  0
   -3.4384   -0.7739   -8.8092 C   0  0  0  0  0  0  0  0  0  0  0  0
   -4.0216   -0.8953  -10.4061 S   0  0  0  0  0  0  0  0  0  0  0  0
   -3.4382   -2.4488  -10.6210 C   0  0  0  0  0  0  0  0  0  0  0  0
   -3.3874   -3.3129  -11.7107 C   0  0  0  0  0  0  0  0  0  0  0  0
   -2.6629   -4.4676  -11.3874 C   0  0  0  0  0  0  0  0  0  0  0  0
   -2.3794   -5.5781  -12.3072 C   0  0  0  0  0  0  0  0  0  0  0  0
   -2.8059   -5.5465  -13.4921 O   0  0  0  0  0  0  0  0  0  0  0  0
   -1.6233   -6.6618  -11.8696 O   0  0  0  0  0  0  0  0  0  0  0  0
   -2.1010   -4.3724   -9.7806 S   0  0  0  0  0  0  0  0  0  0  0  0
   -2.8017   -2.8717   -9.4969 C   0  0  0  0  0  0  0  0  0  0  0  0
   -2.7668   -1.9552   -8.4432 C   0  0  0  0  0  0  0  0  0  0  0  0
   -1.9347   -2.1264   -7.2387 C   0  0  0  0  0  0  0  0  0  0  0  0
   -1.7425   -3.3207   -6.5431 C   0  0  0  0  0  0  0  0  0  0  0  0
   -0.7323   -3.2313   -5.5690 C   0  0  0  0  0  0  0  0  0  0  0  0
   -0.2937   -4.2685   -4.7177 C   0  0  0  0  0  0  0  0  0  0  0  0
   -0.8694   -5.6234   -4.7739 C   0  0  0  0  0  0  0  0  0  0  0  0
   -1.7036   -6.3653   -3.5166 S   0  0  0  0  0  0  0  0  0  0  0  0
   -1.9062   -7.8491   -4.2842 C   0  0  0  0  0  0  0  0  0  0  0  0
   -2.5699   -9.0448   -3.6641 C   0  0  0  0  0  0  0  0  0  0  0  0
   -1.6416   -9.7245   -2.6643 C   0  0  0  0  0  0  0  0  0  0  0  0
   -1.2936   -7.7876   -5.5378 C   0  0  0  0  0  0  0  0  0  0  0  0
   -1.2180   -9.1466   -6.6545 Cl  0  0  0  0  0  0  0  0  0  0  0  0
   -0.7163   -6.5371   -5.8124 C   0  0  0  0  0  0  0  0  0  0  0  0
    0.1763   -6.1886   -7.2859 Cl  0  0  0  0  0  0  0  0  0  0  0  0
    0.7544   -3.9658   -3.8345 C   0  0  0  0  0  0  0  0  0  0  0  0
    1.3760   -2.7156   -3.8016 C   0  0  0  0  0  0  0  0  0  0  0  0
    0.9426   -1.6808   -4.6545 C   0  0  0  0  0  0  0  0  0  0  0  0
    1.6444   -0.3875   -4.7111 C   0  0  0  0  0  0  0  0  0  0  0  0
    1.7406    0.7208   -3.4476 S   0  0  0  0  0  0  0  0  0  0  0  0
    2.8123    1.7695   -4.2142 C   0  0  0  0  0  0  0  0  0  0  0  0
    3.4524    2.9567   -3.5614 C   0  0  0  0  0  0  0  0  0  0  0  0
    4.7112    2.5473   -2.8079 C   0  0  0  0  0  0  0  0  0  0  0  0
    3.1249    1.2503   -5.4697 C   0  0  0  0  0  0  0  0  0  0  0  0
    2.4654    0.0445   -5.7518 C   0  0  0  0  0  0  0  0  0  0  0  0
    2.7445   -0.8884   -7.2151 Cl  0  0  0  0  0  0  0  0  0  0  0  0
    4.2817    1.9920   -6.5678 Cl  0  0  0  0  0  0  0  0  0  0  0  0
   -0.1304   -1.9707   -5.5161 C   0  0  0  0  0  0  0  0  0  0  0  0
   -0.8566   -0.9643   -6.6523 S   0  0  0  0  0  0  0  0  0  0  0  0
    2.4433   -2.6580   -2.8897 C   0  0  0  0  0  0  0  0  0  0  0  0
    2.6444   -3.8518   -2.2036 C   0  0  0  0  0  0  0  0  0  0  0  0
    1.5181   -4.9858   -2.7362 S   0  0  0  0  0  0  0  0  0  0  0  0
    3.0600  -11.1029    9.7130 H   0  0  0  0  0  0  0  0  0  0  0  0
    4.8575   -9.2232    9.6687 H   0  0  0  0  0  0  0  0  0  0  0  0
    7.9423   -4.6740   11.8396 H   0  0  0  0  0  0  0  0  0  0  0  0
    9.2105   -5.8929   11.4679 H   0  0  0  0  0  0  0  0  0  0  0  0
    9.9311   -3.5301   10.9715 H   0  0  0  0  0  0  0  0  0  0  0  0
    8.6056   -3.3839    9.7577 H   0  0  0  0  0  0  0  0  0  0  0  0
    9.9515   -4.5682    9.4958 H   0  0  0  0  0  0  0  0  0  0  0  0
   -4.1630   -7.0339    5.2125 H   0  0  0  0  0  0  0  0  0  0  0  0
   -3.9224   -6.0137    6.6704 H   0  0  0  0  0  0  0  0  0  0  0  0
   -2.7634   -4.2703    5.2933 H   0  0  0  0  0  0  0  0  0  0  0  0
   -4.4197   -4.6181    4.6647 H   0  0  0  0  0  0  0  0  0  0  0  0
   -2.9776   -5.2964    3.8157 H   0  0  0  0  0  0  0  0  0  0  0  0
    1.0260   -4.8842    5.5278 H   0  0  0  0  0  0  0  0  0  0  0  0
    4.0455   -1.3212    6.4802 H   0  0  0  0  0  0  0  0  0  0  0  0
    5.0510    3.6009    9.7632 H   0  0  0  0  0  0  0  0  0  0  0  0
    6.7776    3.2575    9.4037 H   0  0  0  0  0  0  0  0  0  0  0  0
    6.0186    2.1264   11.5030 H   0  0  0  0  0  0  0  0  0  0  0  0
    4.7433    1.2415   10.5813 H   0  0  0  0  0  0  0  0  0  0  0  0
    6.4944    0.9108   10.2536 H   0  0  0  0  0  0  0  0  0  0  0  0
   -3.0092   -0.7358   -1.0679 H   0  0  0  0  0  0  0  0  0  0  0  0
   -1.5497    0.0605   -1.7403 H   0  0  0  0  0  0  0  0  0  0  0  0
   -1.8318   -2.1465   -2.7934 H   0  0  0  0  0  0  0  0  0  0  0  0
   -0.3725   -2.1886   -1.7294 H   0  0  0  0  0  0  0  0  0  0  0  0
   -1.9151   -2.9592   -1.1801 H   0  0  0  0  0  0  0  0  0  0  0  0
    0.0259    2.5502    2.0800 H   0  0  0  0  0  0  0  0  0  0  0  0
   -1.1082    5.0155    3.6960 H   0  0  0  0  0  0  0  0  0  0  0  0
   -6.0061    4.0461    6.0358 H   0  0  0  0  0  0  0  0  0  0  0  0
   -5.1644    2.6794    5.2272 H   0  0  0  0  0  0  0  0  0  0  0  0
   -7.6305    2.4592    5.0094 H   0  0  0  0  0  0  0  0  0  0  0  0
   -6.8753    2.7049    3.3862 H   0  0  0  0  0  0  0  0  0  0  0  0
   -7.7268    4.0742    4.2099 H   0  0  0  0  0  0  0  0  0  0  0  0
    2.8311    9.4036   -4.0018 H   0  0  0  0  0  0  0  0  0  0  0  0
    2.8781    8.1125   -5.2486 H   0  0  0  0  0  0  0  0  0  0  0  0
    4.5464    6.8359   -3.8362 H   0  0  0  0  0  0  0  0  0  0  0  0
    5.1340    8.4798   -4.2947 H   0  0  0  0  0  0  0  0  0  0  0  0
    4.5160    8.1875   -2.6258 H   0  0  0  0  0  0  0  0  0  0  0  0
   -2.1022    6.6983   -3.0231 H   0  0  0  0  0  0  0  0  0  0  0  0
   -3.4962    6.2983   -4.8819 H   0  0  0  0  0  0  0  0  0  0  0  0
    0.1050    8.0182   -8.8623 H   0  0  0  0  0  0  0  0  0  0  0  0
    0.9884    6.6517   -8.1075 H   0  0  0  0  0  0  0  0  0  0  0  0
    0.5120    5.2214  -10.1251 H   0  0  0  0  0  0  0  0  0  0  0  0
    1.4066    6.7323  -10.5575 H   0  0  0  0  0  0  0  0  0  0  0  0
   -0.3632    6.6128  -10.8872 H   0  0  0  0  0  0  0  0  0  0  0  0
   -6.7445   -2.6820   -1.4800 H   0  0  0  0  0  0  0  0  0  0  0  0
   -5.3037   -1.8590   -0.8008 H   0  0  0  0  0  0  0  0  0  0  0  0
   -6.7766   -0.1075    0.2343 H   0  0  0  0  0  0  0  0  0  0  0  0
   -7.2151   -1.7725    0.7854 H   0  0  0  0  0  0  0  0  0  0  0  0
   -8.2329   -0.9416   -0.4555 H   0  0  0  0  0  0  0  0  0  0  0  0
   -4.7494   -0.5249   -6.2972 H   0  0  0  0  0  0  0  0  0  0  0  0
   -3.8205   -3.0998  -12.6787 H   0  0  0  0  0  0  0  0  0  0  0  0
   -1.4146   -7.4335  -12.4909 H   0  0  0  0  0  0  0  0  0  0  0  0
   -2.3003   -4.2238   -6.7508 H   0  0  0  0  0  0  0  0  0  0  0  0
   -3.4916   -8.7140   -3.1465 H   0  0  0  0  0  0  0  0  0  0  0  0
   -2.8633   -9.7737   -4.4466 H   0  0  0  0  0  0  0  0  0  0  0  0
   -0.7347  -10.1081   -3.1797 H   0  0  0  0  0  0  0  0  0  0  0  0
   -2.1703  -10.5793   -2.1918 H   0  0  0  0  0  0  0  0  0  0  0  0
   -1.3320   -9.0131   -1.8680 H   0  0  0  0  0  0  0  0  0  0  0  0
    2.7315    3.4223   -2.8560 H   0  0  0  0  0  0  0  0  0  0  0  0
    3.7208    3.7135   -4.3276 H   0  0  0  0  0  0  0  0  0  0  0  0
    5.4640    2.1356   -3.5157 H   0  0  0  0  0  0  0  0  0  0  0  0
    4.4691    1.7781   -2.0409 H   0  0  0  0  0  0  0  0  0  0  0  0
    5.1468    3.4357   -2.3019 H   0  0  0  0  0  0  0  0  0  0  0  0
    3.0607   -1.7837   -2.7301 H   0  0  0  0  0  0  0  0  0  0  0  0
    3.4115   -4.0228   -1.4593 H   0  0  0  0  0  0  0  0  0  0  0  0
  1  2  2  0
  2  3  1  0
  3  4  2  0
  4  5  1  0
  5  6  1  0
  6  7  1  0
  7  8  1  0
  8  9  1  0
  7 10  2  0
 10 11  1  0
 10 12  1  0
 12 13  1  0
  4 14  1  0
 14 15  2  0
 15 16  1  0
 16 17  1  0
 17 18  1  0
 18 19  1  0
 19 20  1  0
 20 21  1  0
 19 22  2  0
 22 23  1  0
 23 24  1  0
 22 25  1  0
 16 26  2  0
 26 27  1  0
 15 28  1  0
 28 29  2  0
 29 30  1  0
 29 31  1  0
 31 32  2  0
 32 33  1  0
 33 34  2  0
 34 35  1  0
 35 36  1  0
 36 37  1  0
 37 38  1  0
 38 39  1  0
 37 40  2  0
 40 41  1  0
 40 42  1  0
 42 43  1  0
 34 44  1  0
 44 45  2  0
 45 46  1  0
 46 47  1  0
 47 48  1  0
 48 49  1  0
 49 50  1  0
 50 51  1  0
 49 52  2  0
 52 53  1  0
 53 54  1  0
 52 55  1  0
 46 56  2  0
 56 57  1  0
 45 58  1  0
 58 59  2  0
 59 60  1  0
 59 61  1  0
 61 62  2  0
 62 63  1  0
 63 64  2  0
 64 65  1  0
 65 66  1  0
 66 67  1  0
 67 68  1  0
 68 69  1  0
 67 70  2  0
 70 71  1  0
 70 72  1  0
 72 73  1  0
 64 74  1  0
 74 75  2  0
 75 76  1  0
 76 77  1  0
 77 78  1  0
 78 79  1  0
 79 80  1  0
 80 81  1  0
 79 82  2  0
 82 83  1  0
 83 84  1  0
 82 85  1  0
 76 86  2  0
 86 87  1  0
 75 88  1  0
 88 89  2  0
 89 90  1  0
 89 91  1  0
 91 92  2  0
 92 93  1  0
 93 94  2  0
 94 95  1  0
 95 96  1  0
 96 97  1  0
 97 98  1  0
 98 99  1  0
 97100  2  0
100101  1  0
100102  1  0
102103  1  0
 94104  1  0
104105  2  0
105106  1  0
106107  1  0
107108  1  0
108109  1  0
109110  1  0
110111  1  0
109112  2  0
112113  1  0
113114  1  0
112115  1  0
106116  2  0
116117  1  0
105118  1  0
118119  2  0
119120  1  0
119121  1  0
121122  1  0
122123  1  0
123124  1  0
124125  2  0
125126  1  0
126127  2  0
126128  1  0
125129  1  0
129130  1  0
130131  1  0
131132  1  0
132133  2  0
133134  1  0
134135  2  0
135136  1  0
136137  1  0
137138  1  0
138139  1  0
139140  1  0
138141  2  0
141142  1  0
141143  1  0
143144  1  0
135145  1  0
145146  2  0
146147  1  0
147148  1  0
148149  1  0
149150  1  0
150151  1  0
151152  1  0
150153  2  0
153154  1  0
154155  1  0
153156  1  0
147157  2  0
157158  1  0
146159  1  0
159160  2  0
160161  1  0
 27  1  1  0
 57 31  1  0
 87 61  1  0
117 91  1  0
131121  2  0
158132  1  0
 26  3  1  0
 56 33  1  0
 86 63  1  0
116 93  1  0
130123  2  0
157134  1  0
 12  5  2  0
 30 14  1  0
 42 35  2  0
 60 44  1  0
 72 65  2  0
 90 74  1  0
102 95  2  0
120104  1  0
143136  2  0
161145  1  0
 23 17  2  0
 53 47  2  0
 83 77  2  0
113107  2  0
154148  2  0
  1162  1  0
  2163  1  0
  8164  1  0
  8165  1  0
  9166  1  0
  9167  1  0
  9168  1  0
 20169  1  0
 20170  1  0
 21171  1  0
 21172  1  0
 21173  1  0
 28174  1  0
 32175  1  0
 38176  1  0
 38177  1  0
 39178  1  0
 39179  1  0
 39180  1  0
 50181  1  0
 50182  1  0
 51183  1  0
 51184  1  0
 51185  1  0
 58186  1  0
 62187  1  0
 68188  1  0
 68189  1  0
 69190  1  0
 69191  1  0
 69192  1  0
 80193  1  0
 80194  1  0
 81195  1  0
 81196  1  0
 81197  1  0
 88198  1  0
 92199  1  0
 98200  1  0
 98201  1  0
 99202  1  0
 99203  1  0
 99204  1  0
110205  1  0
110206  1  0
111207  1  0
111208  1  0
111209  1  0
118210  1  0
124211  1  0
128212  1  0
133213  1  0
139214  1  0
139215  1  0
140216  1  0
140217  1  0
140218  1  0
151219  1  0
151220  1  0
152221  1  0
152222  1  0
152223  1  0
159224  1  0
160225  1  0
M  END

