
     RDKit          3D

228251  0  0  0  0  0  0  0  0999 V2000
    2.6517   -6.1559    9.7363 C   0  0  0  0  0  0  0  0  0  0  0  0
    1.9699   -5.0793    9.1788 C   0  0  0  0  0  0  0  0  0  0  0  0
    1.0700   -5.4557    8.1677 C   0  0  0  0  0  0  0  0  0  0  0  0
    0.2608   -4.5913    7.4036 C   0  0  0  0  0  0  0  0  0  0  0  0
    0.3034   -3.1166    7.5651 C   0  0  0  0  0  0  0  0  0  0  0  0
    0.6451   -2.3001    6.4762 C   0  0  0  0  0  0  0  0  0  0  0  0
    0.6929   -0.9116    6.6200 C   0  0  0  0  0  0  0  0  0  0  0  0
    0.4167   -0.3232    7.8581 C   0  0  0  0  0  0  0  0  0  0  0  0
    0.4837    1.4643    8.0329 S   0  0  0  0  0  0  0  0  0  0  0  0
    2.2197    1.5161    8.6036 C   0  0  0  0  0  0  0  0  0  0  0  0
    3.1906    1.4392    7.4302 C   0  0  0  0  0  0  0  0  0  0  0  0
    0.0631   -1.1318    8.9484 C   0  0  0  0  0  0  0  0  0  0  0  0
   -0.2174   -0.5747   10.1516 F   0  0  0  0  0  0  0  0  0  0  0  0
    0.0012   -2.5210    8.8000 C   0  0  0  0  0  0  0  0  0  0  0  0
   -0.5395   -5.1913    6.4148 C   0  0  0  0  0  0  0  0  0  0  0  0
   -0.5178   -6.5646    6.1379 C   0  0  0  0  0  0  0  0  0  0  0  0
    0.2888   -7.4310    6.9098 C   0  0  0  0  0  0  0  0  0  0  0  0
    0.3295   -8.8932    6.6762 C   0  0  0  0  0  0  0  0  0  0  0  0
   -0.0323   -9.7839    7.6988 C   0  0  0  0  0  0  0  0  0  0  0  0
    0.0496  -11.1636    7.4959 C   0  0  0  0  0  0  0  0  0  0  0  0
    0.4864  -11.6687    6.2656 C   0  0  0  0  0  0  0  0  0  0  0  0
    0.6238  -13.4468    6.0277 S   0  0  0  0  0  0  0  0  0  0  0  0
   -1.1258  -13.6891    5.5577 C   0  0  0  0  0  0  0  0  0  0  0  0
   -1.3403  -13.4089    4.0756 C   0  0  0  0  0  0  0  0  0  0  0  0
    0.8511  -10.7837    5.2407 C   0  0  0  0  0  0  0  0  0  0  0  0
    0.7698   -9.4028    5.4447 C   0  0  0  0  0  0  0  0  0  0  0  0
    1.3028  -11.2570    4.0521 F   0  0  0  0  0  0  0  0  0  0  0  0
    1.0643   -6.8353    7.9248 C   0  0  0  0  0  0  0  0  0  0  0  0
    2.1612   -7.5729    8.9672 S   0  0  0  0  0  0  0  0  0  0  0  0
   -1.3572   -6.9233    5.0610 C   0  0  0  0  0  0  0  0  0  0  0  0
   -2.0568   -5.8351    4.5395 C   0  0  0  0  0  0  0  0  0  0  0  0
   -1.6232   -4.4401    5.3787 S   0  0  0  0  0  0  0  0  0  0  0  0
   -2.8730   -5.8058    3.3213 C   0  0  0  0  0  0  0  0  0  0  0  0
   -3.8818   -4.8676    3.1233 C   0  0  0  0  0  0  0  0  0  0  0  0
   -4.1303   -4.5920    1.7728 C   0  0  0  0  0  0  0  0  0  0  0  0
   -4.9301   -3.5426    1.2922 C   0  0  0  0  0  0  0  0  0  0  0  0
   -5.6682   -2.6567    2.2073 C   0  0  0  0  0  0  0  0  0  0  0  0
   -4.9849   -1.6601    2.9194 C   0  0  0  0  0  0  0  0  0  0  0  0
   -5.6812   -0.8154    3.7865 C   0  0  0  0  0  0  0  0  0  0  0  0
   -7.0608   -0.9689    3.9587 C   0  0  0  0  0  0  0  0  0  0  0  0
   -7.9356    0.0962    5.1109 S   0  0  0  0  0  0  0  0  0  0  0  0
   -7.5336   -0.8993    6.5900 C   0  0  0  0  0  0  0  0  0  0  0  0
   -8.4744   -2.0903    6.7268 C   0  0  0  0  0  0  0  0  0  0  0  0
   -7.7503   -1.9498    3.2308 C   0  0  0  0  0  0  0  0  0  0  0  0
   -9.0912   -2.0958    3.3709 F   0  0  0  0  0  0  0  0  0  0  0  0
   -7.0537   -2.7904    2.3562 C   0  0  0  0  0  0  0  0  0  0  0  0
   -4.8107   -3.2245   -0.0670 C   0  0  0  0  0  0  0  0  0  0  0  0
   -3.9555   -3.9119   -0.9337 C   0  0  0  0  0  0  0  0  0  0  0  0
   -3.2467   -5.0496   -0.4756 C   0  0  0  0  0  0  0  0  0  0  0  0
   -2.4010   -5.8708   -1.3673 C   0  0  0  0  0  0  0  0  0  0  0  0
   -1.2398   -5.3420   -1.9473 C   0  0  0  0  0  0  0  0  0  0  0  0
   -0.4698   -6.1245   -2.8111 C   0  0  0  0  0  0  0  0  0  0  0  0
   -0.8514   -7.4382   -3.1028 C   0  0  0  0  0  0  0  0  0  0  0  0
    0.1392   -8.4166   -4.2395 S   0  0  0  0  0  0  0  0  0  0  0  0
   -0.8523   -8.0154   -5.7237 C   0  0  0  0  0  0  0  0  0  0  0  0
   -0.6346   -6.5748   -6.1776 C   0  0  0  0  0  0  0  0  0  0  0  0
   -1.9911   -7.9826   -2.4956 C   0  0  0  0  0  0  0  0  0  0  0  0
   -2.7604   -7.2007   -1.6296 C   0  0  0  0  0  0  0  0  0  0  0  0
   -2.3606   -9.2630   -2.7475 F   0  0  0  0  0  0  0  0  0  0  0  0
   -3.3404   -5.3451    0.8985 C   0  0  0  0  0  0  0  0  0  0  0  0
   -2.3229   -6.3332    1.8123 S   0  0  0  0  0  0  0  0  0  0  0  0
   -3.7661   -3.2371   -2.1582 C   0  0  0  0  0  0  0  0  0  0  0  0
   -4.4480   -2.0152   -2.2272 C   0  0  0  0  0  0  0  0  0  0  0  0
   -5.3336   -1.8172   -0.8068 S   0  0  0  0  0  0  0  0  0  0  0  0
   -4.0072   -0.8436   -3.0050 C   0  0  0  0  0  0  0  0  0  0  0  0
   -2.6594   -0.5718   -3.2449 C   0  0  0  0  0  0  0  0  0  0  0  0
   -2.3670    0.8047   -3.3346 C   0  0  0  0  0  0  0  0  0  0  0  0
   -1.0736    1.3711   -3.3199 C   0  0  0  0  0  0  0  0  0  0  0  0
    0.1372    0.5182   -3.2778 C   0  0  0  0  0  0  0  0  0  0  0  0
    0.9255    0.4767   -2.1161 C   0  0  0  0  0  0  0  0  0  0  0  0
    2.0026   -0.4040   -2.0258 C   0  0  0  0  0  0  0  0  0  0  0  0
    2.2865   -1.2737   -3.0835 C   0  0  0  0  0  0  0  0  0  0  0  0
    3.5703   -2.5117   -2.8930 S   0  0  0  0  0  0  0  0  0  0  0  0
    2.4580   -3.6826   -2.0493 C   0  0  0  0  0  0  0  0  0  0  0  0
    3.1093   -5.0513   -1.9546 C   0  0  0  0  0  0  0  0  0  0  0  0
    1.5241   -1.2155   -4.2587 C   0  0  0  0  0  0  0  0  0  0  0  0
    1.7971   -2.0465   -5.2964 F   0  0  0  0  0  0  0  0  0  0  0  0
    0.4552   -0.3203   -4.3562 C   0  0  0  0  0  0  0  0  0  0  0  0
   -0.9957    2.7605   -3.1131 C   0  0  0  0  0  0  0  0  0  0  0  0
   -2.1223    3.5693   -2.9293 C   0  0  0  0  0  0  0  0  0  0  0  0
   -3.4164    3.0101   -2.9949 C   0  0  0  0  0  0  0  0  0  0  0  0
   -4.6196    3.8245   -2.7097 C   0  0  0  0  0  0  0  0  0  0  0  0
   -4.9534    4.9014   -3.5444 C   0  0  0  0  0  0  0  0  0  0  0  0
   -6.0676    5.6942   -3.2625 C   0  0  0  0  0  0  0  0  0  0  0  0
   -6.8530    5.4261   -2.1340 C   0  0  0  0  0  0  0  0  0  0  0  0
   -8.2831    6.4542   -1.7773 S   0  0  0  0  0  0  0  0  0  0  0  0
   -7.4118    7.5469   -0.5981 C   0  0  0  0  0  0  0  0  0  0  0  0
   -6.5789    8.5959   -1.3257 C   0  0  0  0  0  0  0  0  0  0  0  0
   -6.5333    4.3432   -1.3028 C   0  0  0  0  0  0  0  0  0  0  0  0
   -5.4153    3.5526   -1.5851 C   0  0  0  0  0  0  0  0  0  0  0  0
   -7.2896    4.0673   -0.2095 F   0  0  0  0  0  0  0  0  0  0  0  0
   -3.4981    1.6182   -3.1969 C   0  0  0  0  0  0  0  0  0  0  0  0
   -4.8377    0.6285   -2.9768 S   0  0  0  0  0  0  0  0  0  0  0  0
   -1.7978    4.8678   -2.4828 C   0  0  0  0  0  0  0  0  0  0  0  0
   -0.4251    5.0878   -2.3489 C   0  0  0  0  0  0  0  0  0  0  0  0
    0.3669    3.6592   -2.7447 S   0  0  0  0  0  0  0  0  0  0  0  0
    0.1511    6.0419   -1.3940 C   0  0  0  0  0  0  0  0  0  0  0  0
   -0.0800    5.8864    0.2925 S   0  0  0  0  0  0  0  0  0  0  0  0
    0.8561    7.2177    0.6714 C   0  0  0  0  0  0  0  0  0  0  0  0
    1.2038    7.8477    1.8583 C   0  0  0  0  0  0  0  0  0  0  0  0
    2.0210    8.9575    1.6035 C   0  0  0  0  0  0  0  0  0  0  0  0
    2.5765    9.8571    2.6226 C   0  0  0  0  0  0  0  0  0  0  0  0
    3.3395   10.8018    2.2823 O   0  0  0  0  0  0  0  0  0  0  0  0
    2.2632    9.6716    3.9655 O   0  0  0  0  0  0  0  0  0  0  0  0
    2.2695    9.1230   -0.0772 S   0  0  0  0  0  0  0  0  0  0  0  0
    1.3427    7.7780   -0.4645 C   0  0  0  0  0  0  0  0  0  0  0  0
    0.9822    7.1484   -1.6574 C   0  0  0  0  0  0  0  0  0  0  0  0
    1.2973    7.7242   -2.9728 C   0  0  0  0  0  0  0  0  0  0  0  0
    0.8967    9.3350   -3.3801 S   0  0  0  0  0  0  0  0  0  0  0  0
    1.6738    9.2921   -4.8558 C   0  0  0  0  0  0  0  0  0  0  0  0
    1.9317   10.2469   -5.8308 C   0  0  0  0  0  0  0  0  0  0  0  0
    2.7609    9.7160   -6.8272 C   0  0  0  0  0  0  0  0  0  0  0  0
    3.2811   10.4543   -7.9823 C   0  0  0  0  0  0  0  0  0  0  0  0
    2.9437   11.6524   -8.1766 O   0  0  0  0  0  0  0  0  0  0  0  0
    4.1596    9.8318   -8.8626 O   0  0  0  0  0  0  0  0  0  0  0  0
    3.1483    8.0966   -6.4589 S   0  0  0  0  0  0  0  0  0  0  0  0
    2.2430    8.0757   -5.0438 C   0  0  0  0  0  0  0  0  0  0  0  0
    2.0682    7.1547   -4.0056 C   0  0  0  0  0  0  0  0  0  0  0  0
    2.6682    5.8118   -4.0154 C   0  0  0  0  0  0  0  0  0  0  0  0
    2.7389    5.0007   -5.1422 C   0  0  0  0  0  0  0  0  0  0  0  0
    3.3745    3.7787   -4.9002 C   0  0  0  0  0  0  0  0  0  0  0  0
    3.6166    2.7809   -5.8593 C   0  0  0  0  0  0  0  0  0  0  0  0
    3.2240    2.9570   -7.2709 C   0  0  0  0  0  0  0  0  0  0  0  0
    1.8729    2.9115   -7.6420 C   0  0  0  0  0  0  0  0  0  0  0  0
    1.4979    3.1781   -8.9629 C   0  0  0  0  0  0  0  0  0  0  0  0
    2.4695    3.4961   -9.9208 C   0  0  0  0  0  0  0  0  0  0  0  0
    1.9651    3.9156  -11.5949 S   0  0  0  0  0  0  0  0  0  0  0  0
    1.9935    2.1993  -12.2210 C   0  0  0  0  0  0  0  0  0  0  0  0
    3.3802    1.8345  -12.7382 C   0  0  0  0  0  0  0  0  0  0  0  0
    3.8202    3.5462   -9.5492 C   0  0  0  0  0  0  0  0  0  0  0  0
    4.7709    3.8991  -10.4511 F   0  0  0  0  0  0  0  0  0  0  0  0
    4.1959    3.2624   -8.2326 C   0  0  0  0  0  0  0  0  0  0  0  0
    4.2983    1.6359   -5.4246 C   0  0  0  0  0  0  0  0  0  0  0  0
    4.7148    1.4635   -4.1004 C   0  0  0  0  0  0  0  0  0  0  0  0
    4.4647    2.4648   -3.1306 C   0  0  0  0  0  0  0  0  0  0  0  0
    4.8304    2.2846   -1.7066 C   0  0  0  0  0  0  0  0  0  0  0  0
    3.8428    2.3507   -0.7115 C   0  0  0  0  0  0  0  0  0  0  0  0
    4.1692    2.1085    0.6249 C   0  0  0  0  0  0  0  0  0  0  0  0
    5.4846    1.7896    0.9808 C   0  0  0  0  0  0  0  0  0  0  0  0
    5.8846    1.4398    2.6973 S   0  0  0  0  0  0  0  0  0  0  0  0
    5.3340   -0.3041    2.6592 C   0  0  0  0  0  0  0  0  0  0  0  0
    6.3347   -1.1922    1.9297 C   0  0  0  0  0  0  0  0  0  0  0  0
    6.4818    1.7566   -0.0030 C   0  0  0  0  0  0  0  0  0  0  0  0
    6.1565    2.0101   -1.3392 C   0  0  0  0  0  0  0  0  0  0  0  0
    7.7670    1.4741    0.3304 F   0  0  0  0  0  0  0  0  0  0  0  0
    3.8035    3.6257   -3.5787 C   0  0  0  0  0  0  0  0  0  0  0  0
    3.4213    5.0286   -2.7163 S   0  0  0  0  0  0  0  0  0  0  0  0
    5.3560    0.2294   -3.8928 C   0  0  0  0  0  0  0  0  0  0  0  0
    5.4531   -0.5435   -5.0469 C   0  0  0  0  0  0  0  0  0  0  0  0
    4.7281    0.2829   -6.3244 S   0  0  0  0  0  0  0  0  0  0  0  0
    3.3848   -6.0887   10.5267 H   0  0  0  0  0  0  0  0  0  0  0  0
    2.1375   -4.0589    9.5000 H   0  0  0  0  0  0  0  0  0  0  0  0
    0.8785   -2.7361    5.5136 H   0  0  0  0  0  0  0  0  0  0  0  0
    0.9490   -0.2944    5.7679 H   0  0  0  0  0  0  0  0  0  0  0  0
    2.3788    2.4774    9.1362 H   0  0  0  0  0  0  0  0  0  0  0  0
    2.4238    0.6946    9.3235 H   0  0  0  0  0  0  0  0  0  0  0  0
    4.2286    1.6031    7.7924 H   0  0  0  0  0  0  0  0  0  0  0  0
    3.1419    0.4399    6.9481 H   0  0  0  0  0  0  0  0  0  0  0  0
    2.9458    2.2213    6.6800 H   0  0  0  0  0  0  0  0  0  0  0  0
   -0.2766   -3.1337    9.6485 H   0  0  0  0  0  0  0  0  0  0  0  0
   -0.3722   -9.4084    8.6549 H   0  0  0  0  0  0  0  0  0  0  0  0
   -0.2248  -11.8395    8.2947 H   0  0  0  0  0  0  0  0  0  0  0  0
   -1.7931  -13.0439    6.1688 H   0  0  0  0  0  0  0  0  0  0  0  0
   -1.3947  -14.7464    5.7634 H   0  0  0  0  0  0  0  0  0  0  0  0
   -0.6447  -14.0203    3.4633 H   0  0  0  0  0  0  0  0  0  0  0  0
   -1.1768  -12.3330    3.8593 H   0  0  0  0  0  0  0  0  0  0  0  0
   -2.3836  -13.6678    3.7947 H   0  0  0  0  0  0  0  0  0  0  0  0
    1.0690   -8.7290    4.6517 H   0  0  0  0  0  0  0  0  0  0  0  0
   -1.4503   -7.9259    4.6665 H   0  0  0  0  0  0  0  0  0  0  0  0
   -4.3154   -4.2966    3.9349 H   0  0  0  0  0  0  0  0  0  0  0  0
   -3.9138   -1.5437    2.8060 H   0  0  0  0  0  0  0  0  0  0  0  0
   -5.1443   -0.0528    4.3356 H   0  0  0  0  0  0  0  0  0  0  0  0
   -7.6451   -0.2500    7.4836 H   0  0  0  0  0  0  0  0  0  0  0  0
   -6.4789   -1.2480    6.5543 H   0  0  0  0  0  0  0  0  0  0  0  0
   -8.2483   -2.6383    7.6663 H   0  0  0  0  0  0  0  0  0  0  0  0
   -8.3434   -2.7897    5.8753 H   0  0  0  0  0  0  0  0  0  0  0  0
   -9.5278   -1.7398    6.7598 H   0  0  0  0  0  0  0  0  0  0  0  0
   -7.5904   -3.5504    1.8024 H   0  0  0  0  0  0  0  0  0  0  0  0
   -0.9380   -4.3234   -1.7346 H   0  0  0  0  0  0  0  0  0  0  0  0
    0.4146   -5.7088   -3.2716 H   0  0  0  0  0  0  0  0  0  0  0  0
   -0.5355   -8.6984   -6.5402 H   0  0  0  0  0  0  0  0  0  0  0  0
   -1.9308   -8.1940   -5.5269 H   0  0  0  0  0  0  0  0  0  0  0  0
   -1.0898   -6.4278   -7.1798 H   0  0  0  0  0  0  0  0  0  0  0  0
    0.4503   -6.3473   -6.2414 H   0  0  0  0  0  0  0  0  0  0  0  0
   -1.1176   -5.8676   -5.4736 H   0  0  0  0  0  0  0  0  0  0  0  0
   -3.6457   -7.6265   -1.1736 H   0  0  0  0  0  0  0  0  0  0  0  0
   -3.0515   -3.5451   -2.9077 H   0  0  0  0  0  0  0  0  0  0  0  0
   -1.8896   -1.3282   -3.1673 H   0  0  0  0  0  0  0  0  0  0  0  0
    0.6792    1.0983   -1.2645 H   0  0  0  0  0  0  0  0  0  0  0  0
    2.5894   -0.4392   -1.1163 H   0  0  0  0  0  0  0  0  0  0  0  0
    2.2318   -3.3094   -1.0286 H   0  0  0  0  0  0  0  0  0  0  0  0
    1.5062   -3.7683   -2.6140 H   0  0  0  0  0  0  0  0  0  0  0  0
    2.4554   -5.7372   -1.3736 H   0  0  0  0  0  0  0  0  0  0  0  0
    4.0944   -4.9767   -1.4457 H   0  0  0  0  0  0  0  0  0  0  0  0
    3.2504   -5.4742   -2.9722 H   0  0  0  0  0  0  0  0  0  0  0  0
   -0.1470   -0.3032   -5.2557 H   0  0  0  0  0  0  0  0  0  0  0  0
   -4.3468    5.1267   -4.4127 H   0  0  0  0  0  0  0  0  0  0  0  0
   -6.3161    6.5217   -3.9168 H   0  0  0  0  0  0  0  0  0  0  0  0
   -8.1751    8.0652    0.0191 H   0  0  0  0  0  0  0  0  0  0  0  0
   -6.7657    6.9566    0.0854 H   0  0  0  0  0  0  0  0  0  0  0  0
   -7.2062    9.1531   -2.0532 H   0  0  0  0  0  0  0  0  0  0  0  0
   -6.1646    9.3174   -0.5892 H   0  0  0  0  0  0  0  0  0  0  0  0
   -5.7298    8.1178   -1.8566 H   0  0  0  0  0  0  0  0  0  0  0  0
   -5.1634    2.7370   -0.9191 H   0  0  0  0  0  0  0  0  0  0  0  0
   -2.5362    5.5819   -2.1433 H   0  0  0  0  0  0  0  0  0  0  0  0
    0.8816    7.5256    2.8393 H   0  0  0  0  0  0  0  0  0  0  0  0
    2.6377   10.2876    4.6744 H   0  0  0  0  0  0  0  0  0  0  0  0
    1.5770   11.2689   -5.7958 H   0  0  0  0  0  0  0  0  0  0  0  0
    4.5371   10.3320   -9.6584 H   0  0  0  0  0  0  0  0  0  0  0  0
    2.3380    5.2899   -6.1038 H   0  0  0  0  0  0  0  0  0  0  0  0
    1.1127    2.6891   -6.9050 H   0  0  0  0  0  0  0  0  0  0  0  0
    0.4506    3.1553   -9.2354 H   0  0  0  0  0  0  0  0  0  0  0  0
    1.2706    2.1260  -13.0602 H   0  0  0  0  0  0  0  0  0  0  0  0
    1.6786    1.4792  -11.4357 H   0  0  0  0  0  0  0  0  0  0  0  0
    3.6981    2.5511  -13.5252 H   0  0  0  0  0  0  0  0  0  0  0  0
    3.3606    0.8118  -13.1719 H   0  0  0  0  0  0  0  0  0  0  0  0
    4.1195    1.8503  -11.9134 H   0  0  0  0  0  0  0  0  0  0  0  0
    5.2411    3.3137   -7.9530 H   0  0  0  0  0  0  0  0  0  0  0  0
    2.8137    2.5598   -0.9734 H   0  0  0  0  0  0  0  0  0  0  0  0
    3.3948    2.1471    1.3812 H   0  0  0  0  0  0  0  0  0  0  0  0
    5.2425   -0.6554    3.7092 H   0  0  0  0  0  0  0  0  0  0  0  0
    4.3338   -0.3860    2.1837 H   0  0  0  0  0  0  0  0  0  0  0  0
    6.3370   -0.9641    0.8440 H   0  0  0  0  0  0  0  0  0  0  0  0
    6.0515   -2.2575    2.0623 H   0  0  0  0  0  0  0  0  0  0  0  0
    7.3544   -1.0394    2.3427 H   0  0  0  0  0  0  0  0  0  0  0  0
    6.9362    1.9746   -2.0898 H   0  0  0  0  0  0  0  0  0  0  0  0
    5.7293   -0.1120   -2.9368 H   0  0  0  0  0  0  0  0  0  0  0  0
    5.9059   -1.5215   -5.1061 H   0  0  0  0  0  0  0  0  0  0  0  0
  1  2  2  0
  2  3  1  0
  3  4  2  0
  4  5  1  0
  5  6  2  0
  6  7  1  0
  7  8  2  0
  8  9  1  0
  9 10  1  0
 10 11  1  0
  8 12  1  0
 12 13  1  0
 12 14  2  0
  4 15  1  0
 15 16  2  0
 16 17  1  0
 17 18  1  0
 18 19  2  0
 19 20  1  0
 20 21  2  0
 21 22  1  0
 22 23  1  0
 23 24  1  0
 21 25  1  0
 25 26  2  0
 25 27  1  0
 17 28  2  0
 28 29  1  0
 16 30  1  0
 30 31  2  0
 31 32  1  0
 31 33  1  0
 33 34  2  0
 34 35  1  0
 35 36  2  0
 36 37  1  0
 37 38  2  0
 38 39  1  0
 39 40  2  0
 40 41  1  0
 41 42  1  0
 42 43  1  0
 40 44  1  0
 44 45  1  0
 44 46  2  0
 36 47  1  0
 47 48  2  0
 48 49  1  0
 49 50  1  0
 50 51  2  0
 51 52  1  0
 52 53  2  0
 53 54  1  0
 54 55  1  0
 55 56  1  0
 53 57  1  0
 57 58  2  0
 57 59  1  0
 49 60  2  0
 60 61  1  0
 48 62  1  0
 62 63  2  0
 63 64  1  0
 63 65  1  0
 65 66  2  0
 66 67  1  0
 67 68  2  0
 68 69  1  0
 69 70  2  0
 70 71  1  0
 71 72  2  0
 72 73  1  0
 73 74  1  0
 74 75  1  0
 72 76  1  0
 76 77  1  0
 76 78  2  0
 68 79  1  0
 79 80  2  0
 80 81  1  0
 81 82  1  0
 82 83  2  0
 83 84  1  0
 84 85  2  0
 85 86  1  0
 86 87  1  0
 87 88  1  0
 85 89  1  0
 89 90  2  0
 89 91  1  0
 81 92  2  0
 92 93  1  0
 80 94  1  0
 94 95  2  0
 95 96  1  0
 95 97  1  0
 97 98  1  0
 98 99  1  0
 99100  1  0
100101  2  0
101102  1  0
102103  2  0
102104  1  0
101105  1  0
105106  1  0
106107  1  0
107108  1  0
108109  1  0
109110  1  0
110111  1  0
111112  2  0
112113  1  0
113114  2  0
113115  1  0
112116  1  0
116117  1  0
117118  1  0
118119  1  0
119120  2  0
120121  1  0
121122  2  0
122123  1  0
123124  2  0
124125  1  0
125126  2  0
126127  1  0
127128  1  0
128129  1  0
126130  1  0
130131  1  0
130132  2  0
122133  1  0
133134  2  0
134135  1  0
135136  1  0
136137  2  0
137138  1  0
138139  2  0
139140  1  0
140141  1  0
141142  1  0
139143  1  0
143144  2  0
143145  1  0
135146  2  0
146147  1  0
134148  1  0
148149  2  0
149150  1  0
 29  1  1  0
 61 33  1  0
 93 65  1  0
107 97  2  0
118108  2  0
147119  1  0
 28  3  1  0
 60 35  1  0
 92 67  1  0
106 99  2  0
117110  2  0
146121  1  0
 14  5  1  0
 32 15  1  0
 46 37  1  0
 64 47  1  0
 78 69  1  0
 96 79  1  0
132123  1  0
150133  1  0
 26 18  1  0
 58 50  1  0
 90 82  1  0
144136  1  0
  1151  1  0
  2152  1  0
  6153  1  0
  7154  1  0
 10155  1  0
 10156  1  0
 11157  1  0
 11158  1  0
 11159  1  0
 14160  1  0
 19161  1  0
 20162  1  0
 23163  1  0
 23164  1  0
 24165  1  0
 24166  1  0
 24167  1  0
 26168  1  0
 30169  1  0
 34170  1  0
 38171  1  0
 39172  1  0
 42173  1  0
 42174  1  0
 43175  1  0
 43176  1  0
 43177  1  0
 46178  1  0
 51179  1  0
 52180  1  0
 55181  1  0
 55182  1  0
 56183  1  0
 56184  1  0
 56185  1  0
 58186  1  0
 62187  1  0
 66188  1  0
 70189  1  0
 71190  1  0
 74191  1  0
 74192  1  0
 75193  1  0
 75194  1  0
 75195  1  0
 78196  1  0
 83197  1  0
 84198  1  0
 87199  1  0
 87200  1  0
 88201  1  0
 88202  1  0
 88203  1  0
 90204  1  0
 94205  1  0
100206  1  0
104207  1  0
111208  1  0
115209  1  0
120210  1  0
124211  1  0
125212  1  0
128213  1  0
128214  1  0
129215  1  0
129216  1  0
129217  1  0
132218  1  0
137219  1  0
138220  1  0
141221  1  0
141222  1  0
142223  1  0
142224  1  0
142225  1  0
144226  1  0
148227  1  0
149228  1  0
M  END

