
     RDKit          3D

226249  0  0  0  0  0  0  0  0999 V2000
    6.6660   -4.9316   -2.7921 C   0  0  0  0  0  0  0  0  0  0  0  0
    6.2443   -3.6484   -2.4674 C   0  0  0  0  0  0  0  0  0  0  0  0
    5.6368   -3.5643   -1.2022 C   0  0  0  0  0  0  0  0  0  0  0  0
    5.0824   -2.4021   -0.6195 C   0  0  0  0  0  0  0  0  0  0  0  0
    5.0680   -1.1424   -1.3873 C   0  0  0  0  0  0  0  0  0  0  0  0
    3.9333   -0.8208   -2.1409 C   0  0  0  0  0  0  0  0  0  0  0  0
    4.0290    0.0758   -3.2126 C   0  0  0  0  0  0  0  0  0  0  0  0
    5.2409    0.7150   -3.4930 C   0  0  0  0  0  0  0  0  0  0  0  0
    5.3928    1.7455   -4.9559 S   0  0  0  0  0  0  0  0  0  0  0  0
    4.8185    3.2942   -4.1723 C   0  0  0  0  0  0  0  0  0  0  0  0
    5.9017    3.9099   -3.2950 C   0  0  0  0  0  0  0  0  0  0  0  0
    6.3637    0.4504   -2.6960 C   0  0  0  0  0  0  0  0  0  0  0  0
    7.5632    1.0188   -2.9822 F   0  0  0  0  0  0  0  0  0  0  0  0
    6.2776   -0.4803   -1.6556 C   0  0  0  0  0  0  0  0  0  0  0  0
    4.5017   -2.5466    0.6603 C   0  0  0  0  0  0  0  0  0  0  0  0
    4.4569   -3.7804    1.3259 C   0  0  0  0  0  0  0  0  0  0  0  0
    4.9815   -4.9481    0.7228 C   0  0  0  0  0  0  0  0  0  0  0  0
    4.8596   -6.2965    1.3325 C   0  0  0  0  0  0  0  0  0  0  0  0
    3.5914   -6.8293    1.6154 C   0  0  0  0  0  0  0  0  0  0  0  0
    3.4708   -8.1398    2.0866 C   0  0  0  0  0  0  0  0  0  0  0  0
    4.6118   -8.9360    2.2584 C   0  0  0  0  0  0  0  0  0  0  0  0
    4.4322  -10.6474    2.7729 S   0  0  0  0  0  0  0  0  0  0  0  0
    4.1608  -11.2908    1.0817 C   0  0  0  0  0  0  0  0  0  0  0  0
    5.4872  -11.5606    0.3832 C   0  0  0  0  0  0  0  0  0  0  0  0
    5.8784   -8.3972    2.0108 C   0  0  0  0  0  0  0  0  0  0  0  0
    6.0022   -7.0860    1.5463 C   0  0  0  0  0  0  0  0  0  0  0  0
    6.9953   -9.1488    2.1972 F   0  0  0  0  0  0  0  0  0  0  0  0
    5.5841   -4.7921   -0.5382 C   0  0  0  0  0  0  0  0  0  0  0  0
    6.2749   -5.9674   -1.5237 S   0  0  0  0  0  0  0  0  0  0  0  0
    3.8243   -3.7147    2.5748 C   0  0  0  0  0  0  0  0  0  0  0  0
    3.3671   -2.4352    2.8950 C   0  0  0  0  0  0  0  0  0  0  0  0
    3.7147   -1.3905    1.6058 S   0  0  0  0  0  0  0  0  0  0  0  0
    2.4046   -2.1739    3.9745 C   0  0  0  0  0  0  0  0  0  0  0  0
    1.0588   -3.0702    4.1702 S   0  0  0  0  0  3  0  0  0  0  0  0
    0.5108   -2.4021    5.7184 C   0  0  0  0  0  0  0  0  0  0  0  0
   -0.3850   -3.2322    6.8014 S   0  0  0  0  0  0  0  0  0  0  0  0
    1.5759   -1.4588    6.0667 C   0  0  0  0  0  0  0  0  0  0  0  0
    2.5549   -1.3221    5.1775 C   0  0  0  0  0  0  0  0  0  0  0  0
    3.6901   -0.5314    5.6919 C   0  0  0  0  0  0  0  0  0  0  0  0
    3.4858   -0.1380    6.9634 C   0  0  0  0  0  0  0  0  0  0  0  0
    1.9433   -0.7098    7.5786 S   0  0  0  0  0  6  0  0  0  0  0  0
    2.0893   -1.7027    8.6985 O   0  0  0  0  0  0  0  0  0  0  0  0
    0.9988    0.4088    7.9128 O   0  0  0  0  0  0  0  0  0  0  0  0
    4.3888    0.7078    7.7677 C   0  0  0  0  0  0  0  0  0  0  0  0
    4.4379    0.7172    9.3964 S   0  0  0  0  0  3  0  0  0  0  0  0
    5.4599    2.1611    9.6332 C   0  0  0  0  0  0  0  0  0  0  0  0
    5.4047    3.1080   10.9618 S   0  0  0  0  0  0  0  0  0  0  0  0
    5.6669    2.6489    8.2698 C   0  0  0  0  0  0  0  0  0  0  0  0
    5.1276    1.8998    7.3141 C   0  0  0  0  0  0  0  0  0  0  0  0
    5.0981    2.5620    6.0196 C   0  0  0  0  0  0  0  0  0  0  0  0
    5.6334    3.7867    6.0641 C   0  0  0  0  0  0  0  0  0  0  0  0
    6.1510    4.2174    7.6786 S   0  0  0  0  0  6  0  0  0  0  0  0
    5.3402    5.3402    8.2627 O   0  0  0  0  0  0  0  0  0  0  0  0
    7.6331    4.4473    7.7858 O   0  0  0  0  0  0  0  0  0  0  0  0
    5.7694    4.6106    4.8598 C   0  0  0  0  0  0  0  0  0  0  0  0
    6.2090    3.9933    3.6957 C   0  0  0  0  0  0  0  0  0  0  0  0
    5.4642    4.3329    2.5618 C   0  0  0  0  0  0  0  0  0  0  0  0
    5.3641    3.5325    1.4076 C   0  0  0  0  0  0  0  0  0  0  0  0
    6.1213    2.2645    1.3176 C   0  0  0  0  0  0  0  0  0  0  0  0
    5.8170    1.2191    2.2063 C   0  0  0  0  0  0  0  0  0  0  0  0
    6.7173    0.1687    2.3934 C   0  0  0  0  0  0  0  0  0  0  0  0
    7.9134    0.1339    1.6666 C   0  0  0  0  0  0  0  0  0  0  0  0
    9.1583   -1.0990    2.0689 S   0  0  0  0  0  0  0  0  0  0  0  0
    8.3759   -2.4884    1.1816 C   0  0  0  0  0  0  0  0  0  0  0  0
    8.0318   -3.5915    2.1694 C   0  0  0  0  0  0  0  0  0  0  0  0
    8.1740    1.1231    0.7056 C   0  0  0  0  0  0  0  0  0  0  0  0
    9.3206    1.0913   -0.0170 F   0  0  0  0  0  0  0  0  0  0  0  0
    7.2783    2.1861    0.5331 C   0  0  0  0  0  0  0  0  0  0  0  0
    4.3334    3.8493    0.5089 C   0  0  0  0  0  0  0  0  0  0  0  0
    3.4677    4.9305    0.7069 C   0  0  0  0  0  0  0  0  0  0  0  0
    3.5882    5.7436    1.8538 C   0  0  0  0  0  0  0  0  0  0  0  0
    2.6401    6.8381    2.1417 C   0  0  0  0  0  0  0  0  0  0  0  0
    3.0956    8.1619    2.1582 C   0  0  0  0  0  0  0  0  0  0  0  0
    2.2035    9.2084    2.3938 C   0  0  0  0  0  0  0  0  0  0  0  0
    0.8449    8.9381    2.6157 C   0  0  0  0  0  0  0  0  0  0  0  0
   -0.2974   10.2932    2.9153 S   0  0  0  0  0  0  0  0  0  0  0  0
   -0.7874   10.4958    1.1651 C   0  0  0  0  0  0  0  0  0  0  0  0
    0.1893   11.3999    0.4240 C   0  0  0  0  0  0  0  0  0  0  0  0
    0.3909    7.6117    2.6312 C   0  0  0  0  0  0  0  0  0  0  0  0
    1.2862    6.5645    2.3945 C   0  0  0  0  0  0  0  0  0  0  0  0
   -0.9137    7.3344    2.8763 F   0  0  0  0  0  0  0  0  0  0  0  0
    4.5707    5.3815    2.7858 C   0  0  0  0  0  0  0  0  0  0  0  0
    4.5968    5.7496    4.4304 S   0  0  0  0  0  0  0  0  0  0  0  0
    2.4073    4.9647   -0.2140 C   0  0  0  0  0  0  0  0  0  0  0  0
    2.4039    3.8752   -1.0828 C   0  0  0  0  0  0  0  0  0  0  0  0
    3.7411    2.9017   -0.7354 S   0  0  0  0  0  0  0  0  0  0  0  0
    1.2416    3.4106   -1.8551 C   0  0  0  0  0  0  0  0  0  0  0  0
   -0.0868    3.7738   -1.6085 C   0  0  0  0  0  0  0  0  0  0  0  0
   -1.0124    2.8558   -2.1429 C   0  0  0  0  0  0  0  0  0  0  0  0
   -2.4087    2.8350   -1.9191 C   0  0  0  0  0  0  0  0  0  0  0  0
   -3.1279    3.8677   -1.1262 C   0  0  0  0  0  0  0  0  0  0  0  0
   -2.7765    4.1279    0.2081 C   0  0  0  0  0  0  0  0  0  0  0  0
   -3.5781    4.9592    0.9996 C   0  0  0  0  0  0  0  0  0  0  0  0
   -4.7517    5.5136    0.4755 C   0  0  0  0  0  0  0  0  0  0  0  0
   -5.8726    6.4218    1.5478 S   0  0  0  0  0  0  0  0  0  0  0  0
   -5.2707    8.0775    1.0757 C   0  0  0  0  0  0  0  0  0  0  0  0
   -3.9969    8.4251    1.8276 C   0  0  0  0  0  0  0  0  0  0  0  0
   -5.0928    5.2797   -0.8641 C   0  0  0  0  0  0  0  0  0  0  0  0
   -6.2341    5.8000   -1.3827 F   0  0  0  0  0  0  0  0  0  0  0  0
   -4.2773    4.4753   -1.6616 C   0  0  0  0  0  0  0  0  0  0  0  0
   -3.0997    1.6969   -2.3772 C   0  0  0  0  0  0  0  0  0  0  0  0
   -2.4766    0.6454   -3.0577 C   0  0  0  0  0  0  0  0  0  0  0  0
   -1.1055    0.7140   -3.3595 C   0  0  0  0  0  0  0  0  0  0  0  0
   -0.4178   -0.3617   -4.0963 C   0  0  0  0  0  0  0  0  0  0  0  0
   -0.6060   -0.4873   -5.4801 C   0  0  0  0  0  0  0  0  0  0  0  0
    0.0636   -1.4851   -6.1903 C   0  0  0  0  0  0  0  0  0  0  0  0
    0.9120   -2.3764   -5.5209 C   0  0  0  0  0  0  0  0  0  0  0  0
    1.7842   -3.6435   -6.4491 S   0  0  0  0  0  0  0  0  0  0  0  0
    0.4186   -4.8565   -6.4085 C   0  0  0  0  0  0  0  0  0  0  0  0
    0.3092   -5.5220   -5.0410 C   0  0  0  0  0  0  0  0  0  0  0  0
    1.0990   -2.2572   -4.1365 C   0  0  0  0  0  0  0  0  0  0  0  0
    0.4319   -1.2525   -3.4268 C   0  0  0  0  0  0  0  0  0  0  0  0
    1.9206   -3.1156   -3.4796 F   0  0  0  0  0  0  0  0  0  0  0  0
   -0.4000    1.8189   -2.8555 C   0  0  0  0  0  0  0  0  0  0  0  0
    1.2582    2.0156   -2.7938 S   0  0  0  0  0  0  0  0  0  0  0  0
   -3.3042   -0.4783   -3.2331 C   0  0  0  0  0  0  0  0  0  0  0  0
   -4.5607   -0.3134   -2.6564 C   0  0  0  0  0  0  0  0  0  0  0  0
   -4.6575    1.2252   -1.9772 S   0  0  0  0  0  0  0  0  0  0  0  0
   -5.5487   -1.3743   -2.3964 C   0  0  0  0  0  0  0  0  0  0  0  0
   -6.6354   -1.2272   -1.5437 C   0  0  0  0  0  0  0  0  0  0  0  0
   -7.3231   -2.4255   -1.3063 C   0  0  0  0  0  0  0  0  0  0  0  0
   -8.4106   -2.5909   -0.4216 C   0  0  0  0  0  0  0  0  0  0  0  0
   -8.9310   -1.4492    0.3699 C   0  0  0  0  0  0  0  0  0  0  0  0
   -9.4463   -0.3190   -0.2844 C   0  0  0  0  0  0  0  0  0  0  0  0
   -9.7013    0.8526    0.4319 C   0  0  0  0  0  0  0  0  0  0  0  0
   -9.4744    0.8977    1.8128 C   0  0  0  0  0  0  0  0  0  0  0  0
   -9.6369    2.4575    2.6950 S   0  0  0  0  0  0  0  0  0  0  0  0
  -11.4594    2.4407    2.8175 C   0  0  0  0  0  0  0  0  0  0  0  0
  -12.0373    3.5896    2.0018 C   0  0  0  0  0  0  0  0  0  0  0  0
   -9.0247   -0.2563    2.4811 C   0  0  0  0  0  0  0  0  0  0  0  0
   -8.7802   -0.2241    3.8180 F   0  0  0  0  0  0  0  0  0  0  0  0
   -8.7565   -1.4231    1.7614 C   0  0  0  0  0  0  0  0  0  0  0  0
   -8.9036   -3.8921   -0.2659 C   0  0  0  0  0  0  0  0  0  0  0  0
   -8.3597   -4.9888   -0.9448 C   0  0  0  0  0  0  0  0  0  0  0  0
   -7.2617   -4.8256   -1.8174 C   0  0  0  0  0  0  0  0  0  0  0  0
   -6.6291   -5.9754   -2.4917 C   0  0  0  0  0  0  0  0  0  0  0  0
   -5.9828   -6.9652   -1.7392 C   0  0  0  0  0  0  0  0  0  0  0  0
   -5.4119   -8.0704   -2.3760 C   0  0  0  0  0  0  0  0  0  0  0  0
   -5.4871   -8.1980   -3.7666 C   0  0  0  0  0  0  0  0  0  0  0  0
   -4.8188   -9.6662   -4.5614 S   0  0  0  0  0  0  0  0  0  0  0  0
   -3.1231   -9.0139   -4.7511 C   0  0  0  0  0  0  0  0  0  0  0  0
   -3.0054   -8.1606   -6.0078 C   0  0  0  0  0  0  0  0  0  0  0  0
   -6.1319   -7.2086   -4.5249 C   0  0  0  0  0  0  0  0  0  0  0  0
   -6.6883   -6.0952   -3.8891 C   0  0  0  0  0  0  0  0  0  0  0  0
   -6.2377   -7.3320   -5.8724 F   0  0  0  0  0  0  0  0  0  0  0  0
   -6.7719   -3.5184   -1.9800 C   0  0  0  0  0  0  0  0  0  0  0  0
   -5.4238   -2.9999   -2.8547 S   0  0  0  0  0  0  0  0  0  0  0  0
   -9.0289   -6.1936   -0.6600 C   0  0  0  0  0  0  0  0  0  0  0  0
  -10.0821   -6.0372    0.2350 C   0  0  0  0  0  0  0  0  0  0  0  0
  -10.1916   -4.4128    0.6763 S   0  0  0  0  0  0  0  0  0  0  0  0
    7.1612   -5.2149   -3.7097 H   0  0  0  0  0  0  0  0  0  0  0  0
    6.3665   -2.8125   -3.1418 H   0  0  0  0  0  0  0  0  0  0  0  0
    3.0054   -1.3439   -1.9663 H   0  0  0  0  0  0  0  0  0  0  0  0
    3.1757    0.2278   -3.8597 H   0  0  0  0  0  0  0  0  0  0  0  0
    3.9025    3.1049   -3.5826 H   0  0  0  0  0  0  0  0  0  0  0  0
    4.5579    4.0158   -4.9723 H   0  0  0  0  0  0  0  0  0  0  0  0
    5.5367    4.8715   -2.8747 H   0  0  0  0  0  0  0  0  0  0  0  0
    6.8138    4.1029   -3.8946 H   0  0  0  0  0  0  0  0  0  0  0  0
    6.1576    3.2381   -2.4496 H   0  0  0  0  0  0  0  0  0  0  0  0
    7.1808   -0.7639   -1.1355 H   0  0  0  0  0  0  0  0  0  0  0  0
    2.6984   -6.2449    1.4402 H   0  0  0  0  0  0  0  0  0  0  0  0
    2.4860   -8.5519    2.2856 H   0  0  0  0  0  0  0  0  0  0  0  0
    3.5538  -10.5799    0.4815 H   0  0  0  0  0  0  0  0  0  0  0  0
    3.5943  -12.2414    1.1594 H   0  0  0  0  0  0  0  0  0  0  0  0
    5.2989  -12.0520   -0.5950 H   0  0  0  0  0  0  0  0  0  0  0  0
    6.1231  -12.2296    1.0024 H   0  0  0  0  0  0  0  0  0  0  0  0
    6.0273  -10.6094    0.1922 H   0  0  0  0  0  0  0  0  0  0  0  0
    6.9864   -6.6953    1.3289 H   0  0  0  0  0  0  0  0  0  0  0  0
    3.6577   -4.5670    3.2163 H   0  0  0  0  0  0  0  0  0  0  0  0
    4.5853   -0.3183    5.1250 H   0  0  0  0  0  0  0  0  0  0  0  0
    4.6767    2.1205    5.1266 H   0  0  0  0  0  0  0  0  0  0  0  0
    6.8671    3.1356    3.7341 H   0  0  0  0  0  0  0  0  0  0  0  0
    4.9258    1.2694    2.8237 H   0  0  0  0  0  0  0  0  0  0  0  0
    6.5015   -0.5989    3.1295 H   0  0  0  0  0  0  0  0  0  0  0  0
    7.4494   -2.1739    0.6721 H   0  0  0  0  0  0  0  0  0  0  0  0
    9.0869   -2.8756    0.4216 H   0  0  0  0  0  0  0  0  0  0  0  0
    7.6410   -4.4694    1.6217 H   0  0  0  0  0  0  0  0  0  0  0  0
    8.9392   -3.9020    2.7308 H   0  0  0  0  0  0  0  0  0  0  0  0
    7.2587   -3.2335    2.8846 H   0  0  0  0  0  0  0  0  0  0  0  0
    7.5260    2.9846   -0.1527 H   0  0  0  0  0  0  0  0  0  0  0  0
    4.1395    8.3839    1.9784 H   0  0  0  0  0  0  0  0  0  0  0  0
    2.5669   10.2294    2.3974 H   0  0  0  0  0  0  0  0  0  0  0  0
   -0.8572    9.5142    0.6511 H   0  0  0  0  0  0  0  0  0  0  0  0
   -1.7925   10.9666    1.1427 H   0  0  0  0  0  0  0  0  0  0  0  0
    1.1782   10.9125    0.3308 H   0  0  0  0  0  0  0  0  0  0  0  0
   -0.1988   11.6135   -0.5952 H   0  0  0  0  0  0  0  0  0  0  0  0
    0.3046   12.3629    0.9655 H   0  0  0  0  0  0  0  0  0  0  0  0
    0.9300    5.5408    2.4025 H   0  0  0  0  0  0  0  0  0  0  0  0
    1.6052    5.6920   -0.1806 H   0  0  0  0  0  0  0  0  0  0  0  0
   -0.3639    4.6038   -0.9757 H   0  0  0  0  0  0  0  0  0  0  0  0
   -1.9139    3.6449    0.6527 H   0  0  0  0  0  0  0  0  0  0  0  0
   -3.3109    5.1302    2.0369 H   0  0  0  0  0  0  0  0  0  0  0  0
   -6.0574    8.8140    1.3466 H   0  0  0  0  0  0  0  0  0  0  0  0
   -5.1048    8.1391   -0.0182 H   0  0  0  0  0  0  0  0  0  0  0  0
   -3.7572    9.4986    1.6814 H   0  0  0  0  0  0  0  0  0  0  0  0
   -3.1518    7.8238    1.4386 H   0  0  0  0  0  0  0  0  0  0  0  0
   -4.1221    8.2338    2.9177 H   0  0  0  0  0  0  0  0  0  0  0  0
   -4.5674    4.2799   -2.6867 H   0  0  0  0  0  0  0  0  0  0  0  0
   -1.2625    0.1950   -6.0068 H   0  0  0  0  0  0  0  0  0  0  0  0
   -0.0800   -1.5687   -7.2602 H   0  0  0  0  0  0  0  0  0  0  0  0
   -0.5440   -4.3684   -6.6709 H   0  0  0  0  0  0  0  0  0  0  0  0
    0.6301   -5.6371   -7.1707 H   0  0  0  0  0  0  0  0  0  0  0  0
   -0.0650   -4.8025   -4.2855 H   0  0  0  0  0  0  0  0  0  0  0  0
   -0.4055   -6.3674   -5.0947 H   0  0  0  0  0  0  0  0  0  0  0  0
    1.2978   -5.9121   -4.7215 H   0  0  0  0  0  0  0  0  0  0  0  0
    0.5776   -1.1670   -2.3584 H   0  0  0  0  0  0  0  0  0  0  0  0
   -2.9658   -1.4109   -3.6677 H   0  0  0  0  0  0  0  0  0  0  0  0
   -6.8788   -0.2923   -1.0572 H   0  0  0  0  0  0  0  0  0  0  0  0
   -9.5828   -0.3228   -1.3595 H   0  0  0  0  0  0  0  0  0  0  0  0
  -10.0471    1.7370   -0.0921 H   0  0  0  0  0  0  0  0  0  0  0  0
  -11.7400    2.5741    3.8831 H   0  0  0  0  0  0  0  0  0  0  0  0
  -11.8913    1.4816    2.4642 H   0  0  0  0  0  0  0  0  0  0  0  0
  -11.7787    3.4625    0.9281 H   0  0  0  0  0  0  0  0  0  0  0  0
  -13.1432    3.6081    2.1069 H   0  0  0  0  0  0  0  0  0  0  0  0
  -11.6297    4.5587    2.3609 H   0  0  0  0  0  0  0  0  0  0  0  0
   -8.3501   -2.2846    2.2763 H   0  0  0  0  0  0  0  0  0  0  0  0
   -5.9292   -6.8840   -0.6598 H   0  0  0  0  0  0  0  0  0  0  0  0
   -4.9179   -8.8313   -1.7809 H   0  0  0  0  0  0  0  0  0  0  0  0
   -2.4298   -9.8784   -4.8389 H   0  0  0  0  0  0  0  0  0  0  0  0
   -2.8235   -8.4226   -3.8608 H   0  0  0  0  0  0  0  0  0  0  0  0
   -3.5718   -7.2159   -5.8887 H   0  0  0  0  0  0  0  0  0  0  0  0
   -3.3918   -8.7163   -6.8895 H   0  0  0  0  0  0  0  0  0  0  0  0
   -1.9406   -7.9122   -6.1919 H   0  0  0  0  0  0  0  0  0  0  0  0
   -7.1891   -5.3364   -4.4767 H   0  0  0  0  0  0  0  0  0  0  0  0
   -8.7630   -7.1483   -1.0931 H   0  0  0  0  0  0  0  0  0  0  0  0
  -10.7248   -6.8313    0.5901 H   0  0  0  0  0  0  0  0  0  0  0  0
  1  2  2  0
  2  3  1  0
  3  4  2  0
  4  5  1  0
  5  6  2  0
  6  7  1  0
  7  8  2  0
  8  9  1  0
  9 10  1  0
 10 11  1  0
  8 12  1  0
 12 13  1  0
 12 14  2  0
  4 15  1  0
 15 16  2  0
 16 17  1  0
 17 18  1  0
 18 19  2  0
 19 20  1  0
 20 21  2  0
 21 22  1  0
 22 23  1  0
 23 24  1  0
 21 25  1  0
 25 26  2  0
 25 27  1  0
 17 28  2  0
 28 29  1  0
 16 30  1  0
 30 31  2  0
 31 32  1  0
 31 33  1  0
 33 34  2  0
 34 35  1  0
 35 36  2  0
 35 37  1  0
 37 38  2  0
 38 39  1  0
 39 40  2  0
 40 41  1  0
 41 42  2  0
 41 43  2  0
 40 44  1  0
 44 45  2  0
 45 46  1  0
 46 47  2  0
 46 48  1  0
 48 49  2  0
 49 50  1  0
 50 51  2  0
 51 52  1  0
 52 53  2  0
 52 54  2  0
 51 55  1  0
 55 56  2  0
 56 57  1  0
 57 58  2  0
 58 59  1  0
 59 60  2  0
 60 61  1  0
 61 62  2  0
 62 63  1  0
 63 64  1  0
 64 65  1  0
 62 66  1  0
 66 67  1  0
 66 68  2  0
 58 69  1  0
 69 70  2  0
 70 71  1  0
 71 72  1  0
 72 73  2  0
 73 74  1  0
 74 75  2  0
 75 76  1  0
 76 77  1  0
 77 78  1  0
 75 79  1  0
 79 80  2  0
 79 81  1  0
 71 82  2  0
 82 83  1  0
 70 84  1  0
 84 85  2  0
 85 86  1  0
 85 87  1  0
 87 88  2  0
 88 89  1  0
 89 90  2  0
 90 91  1  0
 91 92  2  0
 92 93  1  0
 93 94  2  0
 94 95  1  0
 95 96  1  0
 96 97  1  0
 94 98  1  0
 98 99  1  0
 98100  2  0
 90101  1  0
101102  2  0
102103  1  0
103104  1  0
104105  2  0
105106  1  0
106107  2  0
107108  1  0
108109  1  0
109110  1  0
107111  1  0
111112  2  0
111113  1  0
103114  2  0
114115  1  0
102116  1  0
116117  2  0
117118  1  0
117119  1  0
119120  2  0
120121  1  0
121122  2  0
122123  1  0
123124  2  0
124125  1  0
125126  2  0
126127  1  0
127128  1  0
128129  1  0
126130  1  0
130131  1  0
130132  2  0
122133  1  0
133134  2  0
134135  1  0
135136  1  0
136137  2  0
137138  1  0
138139  2  0
139140  1  0
140141  1  0
141142  1  0
139143  1  0
143144  2  0
143145  1  0
135146  2  0
146147  1  0
134148  1  0
148149  2  0
149150  1  0
 29  1  1  0
 38 33  1  0
 49 44  1  0
 83 55  1  0
115 87  1  0
147119  1  0
 28  3  1  0
 41 37  1  0
 52 48  1  0
 82 57  1  0
114 89  1  0
146121  1  0
 14  5  1  0
 32 15  1  0
 68 59  1  0
 86 69  1  0
100 91  1  0
118101  1  0
132123  1  0
150133  1  0
 26 18  1  0
 80 72  1  0
112104  1  0
144136  1  0
  1151  1  0
  2152  1  0
  6153  1  0
  7154  1  0
 10155  1  0
 10156  1  0
 11157  1  0
 11158  1  0
 11159  1  0
 14160  1  0
 19161  1  0
 20162  1  0
 23163  1  0
 23164  1  0
 24165  1  0
 24166  1  0
 24167  1  0
 26168  1  0
 30169  1  0
 39170  1  0
 50171  1  0
 56172  1  0
 60173  1  0
 61174  1  0
 64175  1  0
 64176  1  0
 65177  1  0
 65178  1  0
 65179  1  0
 68180  1  0
 73181  1  0
 74182  1  0
 77183  1  0
 77184  1  0
 78185  1  0
 78186  1  0
 78187  1  0
 80188  1  0
 84189  1  0
 88190  1  0
 92191  1  0
 93192  1  0
 96193  1  0
 96194  1  0
 97195  1  0
 97196  1  0
 97197  1  0
100198  1  0
105199  1  0
106200  1  0
109201  1  0
109202  1  0
110203  1  0
110204  1  0
110205  1  0
112206  1  0
116207  1  0
120208  1  0
124209  1  0
125210  1  0
128211  1  0
128212  1  0
129213  1  0
129214  1  0
129215  1  0
132216  1  0
137217  1  0
138218  1  0
141219  1  0
141220  1  0
142221  1  0
142222  1  0
142223  1  0
144224  1  0
148225  1  0
149226  1  0
M  RAD  2  34   2  45   2
M  END

