
     RDKit          3D

170187  0  0  0  0  0  0  0  0999 V2000
   13.9894   -2.1102    8.4205 C   0  0  0  0  0  0  0  0  0  0  0  0
   13.1766   -1.0273    8.7296 C   0  0  0  0  0  0  0  0  0  0  0  0
   11.8450   -1.1749    8.2955 C   0  0  0  0  0  0  0  0  0  0  0  0
   10.8415   -0.2162    8.4901 O   0  0  0  0  0  0  0  0  0  0  0  0
   11.0532    1.1081    8.9743 C   0  0  0  0  0  0  0  0  0  0  0  0
   11.6772    1.9799    7.8901 C   0  0  0  0  0  0  0  0  0  0  0  0
   11.6094   -2.3897    7.6431 C   0  0  0  0  0  0  0  0  0  0  0  0
   13.0585   -3.2467    7.6085 S   0  0  0  0  0  0  0  0  0  0  0  0
   10.3522   -2.8604    7.0241 C   0  0  0  0  0  0  0  0  0  0  0  0
    9.1134   -2.2173    7.0495 C   0  0  0  0  0  0  0  0  0  0  0  0
    8.1264   -2.8895    6.3130 C   0  0  0  0  0  0  0  0  0  0  0  0
    6.8034   -2.4528    6.1139 C   0  0  0  0  0  0  0  0  0  0  0  0
    6.2964   -1.2037    6.7133 C   0  0  0  0  0  0  0  0  0  0  0  0
    6.0515   -0.9555    8.3599 S   0  0  0  0  0  0  0  0  0  0  0  0
    5.5339    0.6399    8.2245 C   0  0  0  0  0  0  0  0  0  0  0  0
    5.1885    1.5224    9.3850 C   0  0  0  0  0  0  0  0  0  0  0  0
    6.3826    2.3777    9.7946 C   0  0  0  0  0  0  0  0  0  0  0  0
    5.5736    1.0094    6.8814 C   0  0  0  0  0  0  0  0  0  0  0  0
    5.1712    2.6187    6.3079 Cl  0  0  0  0  0  0  0  0  0  0  0  0
    5.9981   -0.0266    6.0336 C   0  0  0  0  0  0  0  0  0  0  0  0
    6.1924    0.1618    4.2950 Cl  0  0  0  0  0  0  0  0  0  0  0  0
    5.9918   -3.2429    5.2881 C   0  0  0  0  0  0  0  0  0  0  0  0
    6.4443   -4.4164    4.6725 C   0  0  0  0  0  0  0  0  0  0  0  0
    7.7624   -4.8709    4.8945 C   0  0  0  0  0  0  0  0  0  0  0  0
    8.2691   -6.1280    4.3138 C   0  0  0  0  0  0  0  0  0  0  0  0
    8.4551   -6.4340    2.6673 S   0  0  0  0  0  0  0  0  0  0  0  0
    9.0967   -7.9807    2.8433 C   0  0  0  0  0  0  0  0  0  0  0  0
    9.4723   -8.8822    1.7090 C   0  0  0  0  0  0  0  0  0  0  0  0
    8.3258   -9.8281    1.3649 C   0  0  0  0  0  0  0  0  0  0  0  0
    9.1554   -8.2880    4.2029 C   0  0  0  0  0  0  0  0  0  0  0  0
    8.6951   -7.2480    5.0259 C   0  0  0  0  0  0  0  0  0  0  0  0
    8.6168   -7.3700    6.7817 Cl  0  0  0  0  0  0  0  0  0  0  0  0
    9.7330   -9.8267    4.8271 Cl  0  0  0  0  0  0  0  0  0  0  0  0
    8.5820   -4.0687    5.7138 C   0  0  0  0  0  0  0  0  0  0  0  0
   10.2116   -4.2677    6.0896 S   0  0  0  0  0  0  0  0  0  0  0  0
    5.4583   -5.0339    3.8780 C   0  0  0  0  0  0  0  0  0  0  0  0
    4.2462   -4.3394    3.8839 C   0  0  0  0  0  0  0  0  0  0  0  0
    4.3905   -2.9783    4.8729 S   0  0  0  0  0  0  0  0  0  0  0  0
    3.0399   -4.6450    3.1013 C   0  0  0  0  0  0  0  0  0  0  0  0
    2.9162   -5.5543    2.0542 C   0  0  0  0  0  0  0  0  0  0  0  0
    1.6623   -5.4881    1.4069 C   0  0  0  0  0  0  0  0  0  0  0  0
    1.2922   -6.2803    0.3124 O   0  0  0  0  0  0  0  0  0  0  0  0
    2.1025   -7.2966   -0.2747 C   0  0  0  0  0  0  0  0  0  0  0  0
    2.1306   -8.5477    0.5987 C   0  0  0  0  0  0  0  0  0  0  0  0
    0.8089   -4.5218    1.9491 C   0  0  0  0  0  0  0  0  0  0  0  0
    1.6140   -3.7746    3.2177 S   0  0  0  0  0  0  0  0  0  0  0  0
   -0.4919   -4.0429    1.4398 C   0  0  0  0  0  0  0  0  0  0  0  0
   -1.1236   -4.3908    0.2408 C   0  0  0  0  0  0  0  0  0  0  0  0
   -2.2306   -3.5696   -0.0557 C   0  0  0  0  0  0  0  0  0  0  0  0
   -2.9914   -3.5884   -1.2455 C   0  0  0  0  0  0  0  0  0  0  0  0
   -2.8633   -4.6781   -2.2332 C   0  0  0  0  0  0  0  0  0  0  0  0
   -2.4986   -4.4857   -3.8665 S   0  0  0  0  0  0  0  0  0  0  0  0
   -2.6485   -6.1103   -4.2783 C   0  0  0  0  0  0  0  0  0  0  0  0
   -2.4607   -6.6641   -5.6584 C   0  0  0  0  0  0  0  0  0  0  0  0
   -1.0972   -7.3302   -5.7994 C   0  0  0  0  0  0  0  0  0  0  0  0
   -2.9829   -6.8325   -3.1349 C   0  0  0  0  0  0  0  0  0  0  0  0
   -3.2638   -8.5701   -3.1289 Cl  0  0  0  0  0  0  0  0  0  0  0  0
   -3.1049   -6.0318   -1.9901 C   0  0  0  0  0  0  0  0  0  0  0  0
   -3.6016   -6.6690   -0.4242 Cl  0  0  0  0  0  0  0  0  0  0  0  0
   -3.9127   -2.5374   -1.4275 C   0  0  0  0  0  0  0  0  0  0  0  0
   -4.1444   -1.5639   -0.4465 C   0  0  0  0  0  0  0  0  0  0  0  0
   -3.4250   -1.5783    0.7632 C   0  0  0  0  0  0  0  0  0  0  0  0
   -3.5697   -0.5140    1.7727 C   0  0  0  0  0  0  0  0  0  0  0  0
   -3.2162    1.1105    1.5100 S   0  0  0  0  0  0  0  0  0  0  0  0
   -3.6257    1.6368    3.0557 C   0  0  0  0  0  0  0  0  0  0  0  0
   -3.6113    3.0697    3.4927 C   0  0  0  0  0  0  0  0  0  0  0  0
   -4.9449    3.7408    3.1827 C   0  0  0  0  0  0  0  0  0  0  0  0
   -4.0671    0.5401    3.7970 C   0  0  0  0  0  0  0  0  0  0  0  0
   -4.0249   -0.6676    3.0806 C   0  0  0  0  0  0  0  0  0  0  0  0
   -4.5363   -2.2128    3.7502 Cl  0  0  0  0  0  0  0  0  0  0  0  0
   -4.6406    0.6559    5.4537 Cl  0  0  0  0  0  0  0  0  0  0  0  0
   -2.4659   -2.5924    0.9167 C   0  0  0  0  0  0  0  0  0  0  0  0
   -1.3165   -2.7383    2.1274 S   0  0  0  0  0  0  0  0  0  0  0  0
   -5.0879   -0.6006   -0.8301 C   0  0  0  0  0  0  0  0  0  0  0  0
   -5.5558   -0.7861   -2.1261 C   0  0  0  0  0  0  0  0  0  0  0  0
   -4.8376   -2.1661   -2.7875 S   0  0  0  0  0  0  0  0  0  0  0  0
   -6.3721    0.1907   -2.8540 C   0  0  0  0  0  0  0  0  0  0  0  0
   -7.3141    1.0319   -2.2775 C   0  0  0  0  0  0  0  0  0  0  0  0
   -7.7663    2.0395   -3.1471 C   0  0  0  0  0  0  0  0  0  0  0  0
   -8.7219    3.0084   -2.8067 O   0  0  0  0  0  0  0  0  0  0  0  0
   -9.3009    3.1694   -1.5141 C   0  0  0  0  0  0  0  0  0  0  0  0
   -8.3252    3.8665   -0.5729 C   0  0  0  0  0  0  0  0  0  0  0  0
   -7.1606    1.9983   -4.4058 C   0  0  0  0  0  0  0  0  0  0  0  0
   -6.0859    0.6991   -4.4311 S   0  0  0  0  0  0  0  0  0  0  0  0
   -7.2834    3.0135   -5.4703 C   0  0  0  0  0  0  0  0  0  0  0  0
   -6.5802    3.0189   -6.6791 C   0  0  0  0  0  0  0  0  0  0  0  0
   -6.8028    4.1806   -7.4409 C   0  0  0  0  0  0  0  0  0  0  0  0
   -6.2034    4.5023   -8.6773 C   0  0  0  0  0  0  0  0  0  0  0  0
   -5.2167    3.6186   -9.3246 C   0  0  0  0  0  0  0  0  0  0  0  0
   -3.6984    3.2577   -8.6937 S   0  0  0  0  0  0  0  0  0  0  0  0
   -3.1884    2.3070   -9.9852 C   0  0  0  0  0  0  0  0  0  0  0  0
   -1.8316    1.6783  -10.0957 C   0  0  0  0  0  0  0  0  0  0  0  0
   -0.8854    2.5608  -10.9052 C   0  0  0  0  0  0  0  0  0  0  0  0
   -4.2002    2.2750  -10.9426 C   0  0  0  0  0  0  0  0  0  0  0  0
   -4.0631    1.4123  -12.4682 Cl  0  0  0  0  0  0  0  0  0  0  0  0
   -5.3390    3.0074  -10.5704 C   0  0  0  0  0  0  0  0  0  0  0  0
   -6.7888    3.1076  -11.5609 Cl  0  0  0  0  0  0  0  0  0  0  0  0
   -6.5466    5.7436   -9.2449 C   0  0  0  0  0  0  0  0  0  0  0  0
   -7.4329    6.6347   -8.6324 C   0  0  0  0  0  0  0  0  0  0  0  0
   -8.0312    6.3130   -7.3993 C   0  0  0  0  0  0  0  0  0  0  0  0
   -8.9093    7.2593   -6.6877 C   0  0  0  0  0  0  0  0  0  0  0  0
   -8.4056    8.7360   -6.0545 S   0  0  0  0  0  0  0  0  0  0  0  0
   -9.8948    9.1681   -5.4047 C   0  0  0  0  0  0  0  0  0  0  0  0
  -10.1449   10.4146   -4.6090 C   0  0  0  0  0  0  0  0  0  0  0  0
  -10.0171   10.1392   -3.1157 C   0  0  0  0  0  0  0  0  0  0  0  0
  -10.8096    8.1460   -5.6606 C   0  0  0  0  0  0  0  0  0  0  0  0
  -10.2575    7.0780   -6.3862 C   0  0  0  0  0  0  0  0  0  0  0  0
  -11.1844    5.6702   -6.8893 Cl  0  0  0  0  0  0  0  0  0  0  0  0
  -12.4866    8.1931   -5.1367 Cl  0  0  0  0  0  0  0  0  0  0  0  0
   -7.6961    5.0725   -6.8359 C   0  0  0  0  0  0  0  0  0  0  0  0
   -8.1786    4.4414   -5.3581 S   0  0  0  0  0  0  0  0  0  0  0  0
   -7.6233    7.8174   -9.3647 C   0  0  0  0  0  0  0  0  0  0  0  0
   -6.8730    7.8626  -10.5347 C   0  0  0  0  0  0  0  0  0  0  0  0
   -5.9791    6.4379  -10.6674 S   0  0  0  0  0  0  0  0  0  0  0  0
   15.0389   -2.1987    8.6585 H   0  0  0  0  0  0  0  0  0  0  0  0
   13.5496   -0.1600    9.2586 H   0  0  0  0  0  0  0  0  0  0  0  0
   10.0680    1.5404    9.2496 H   0  0  0  0  0  0  0  0  0  0  0  0
   11.6844    1.0996    9.8868 H   0  0  0  0  0  0  0  0  0  0  0  0
   11.0557    1.9427    6.9702 H   0  0  0  0  0  0  0  0  0  0  0  0
   11.7337    3.0331    8.2420 H   0  0  0  0  0  0  0  0  0  0  0  0
   12.7011    1.6266    7.6490 H   0  0  0  0  0  0  0  0  0  0  0  0
    8.9195   -1.2910    7.5675 H   0  0  0  0  0  0  0  0  0  0  0  0
    4.3341    2.1798    9.1142 H   0  0  0  0  0  0  0  0  0  0  0  0
    4.8707    0.8962   10.2449 H   0  0  0  0  0  0  0  0  0  0  0  0
    6.1244    2.9646   10.7011 H   0  0  0  0  0  0  0  0  0  0  0  0
    6.6414    3.0862    8.9788 H   0  0  0  0  0  0  0  0  0  0  0  0
    7.2603    1.7354   10.0186 H   0  0  0  0  0  0  0  0  0  0  0  0
    9.7249   -8.2736    0.8162 H   0  0  0  0  0  0  0  0  0  0  0  0
   10.3709   -9.4741    1.9819 H   0  0  0  0  0  0  0  0  0  0  0  0
    8.0662  -10.4554    2.2445 H   0  0  0  0  0  0  0  0  0  0  0  0
    8.6328  -10.4966    0.5316 H   0  0  0  0  0  0  0  0  0  0  0  0
    7.4308   -9.2513    1.0466 H   0  0  0  0  0  0  0  0  0  0  0  0
    5.6185   -5.9449    3.3137 H   0  0  0  0  0  0  0  0  0  0  0  0
    3.7224   -6.2021    1.7447 H   0  0  0  0  0  0  0  0  0  0  0  0
    3.1323   -6.9193   -0.4606 H   0  0  0  0  0  0  0  0  0  0  0  0
    1.6600   -7.5673   -1.2582 H   0  0  0  0  0  0  0  0  0  0  0  0
    2.7258   -8.3679    1.5170 H   0  0  0  0  0  0  0  0  0  0  0  0
    1.0972   -8.8295    0.8841 H   0  0  0  0  0  0  0  0  0  0  0  0
    2.5894   -9.3865    0.0351 H   0  0  0  0  0  0  0  0  0  0  0  0
   -0.7614   -5.1503   -0.4345 H   0  0  0  0  0  0  0  0  0  0  0  0
   -2.5445   -5.8431   -6.4018 H   0  0  0  0  0  0  0  0  0  0  0  0
   -3.2601   -7.4030   -5.8766 H   0  0  0  0  0  0  0  0  0  0  0  0
   -0.2856   -6.5958   -5.6077 H   0  0  0  0  0  0  0  0  0  0  0  0
   -1.0018   -8.1789   -5.0903 H   0  0  0  0  0  0  0  0  0  0  0  0
   -0.9841   -7.7268   -6.8328 H   0  0  0  0  0  0  0  0  0  0  0  0
   -2.7973    3.6071    2.9632 H   0  0  0  0  0  0  0  0  0  0  0  0
   -3.4070    3.1329    4.5822 H   0  0  0  0  0  0  0  0  0  0  0  0
   -5.7649    3.2440    3.7438 H   0  0  0  0  0  0  0  0  0  0  0  0
   -5.1592    3.6923    2.0941 H   0  0  0  0  0  0  0  0  0  0  0  0
   -4.8995    4.8065    3.4922 H   0  0  0  0  0  0  0  0  0  0  0  0
   -5.3798    0.2375   -0.2110 H   0  0  0  0  0  0  0  0  0  0  0  0
   -7.6362    0.9297   -1.2492 H   0  0  0  0  0  0  0  0  0  0  0  0
  -10.2053    3.8064   -1.6137 H   0  0  0  0  0  0  0  0  0  0  0  0
   -9.6193    2.1899   -1.1000 H   0  0  0  0  0  0  0  0  0  0  0  0
   -8.8234    4.0732    0.3980 H   0  0  0  0  0  0  0  0  0  0  0  0
   -7.4321    3.2330   -0.3899 H   0  0  0  0  0  0  0  0  0  0  0  0
   -7.9952    4.8303   -1.0182 H   0  0  0  0  0  0  0  0  0  0  0  0
   -5.9122    2.2242   -6.9782 H   0  0  0  0  0  0  0  0  0  0  0  0
   -1.4076    1.5303   -9.0816 H   0  0  0  0  0  0  0  0  0  0  0  0
   -1.9151    0.6841  -10.5815 H   0  0  0  0  0  0  0  0  0  0  0  0
   -0.7673    3.5500  -10.4121 H   0  0  0  0  0  0  0  0  0  0  0  0
   -1.2741    2.7110  -11.9357 H   0  0  0  0  0  0  0  0  0  0  0  0
    0.1109    2.0745  -10.9693 H   0  0  0  0  0  0  0  0  0  0  0  0
   -9.4074   11.1922   -4.8973 H   0  0  0  0  0  0  0  0  0  0  0  0
  -11.1598   10.8071   -4.8291 H   0  0  0  0  0  0  0  0  0  0  0  0
  -10.7563    9.3748   -2.7933 H   0  0  0  0  0  0  0  0  0  0  0  0
   -8.9932    9.7790   -2.8766 H   0  0  0  0  0  0  0  0  0  0  0  0
  -10.2048   11.0746   -2.5468 H   0  0  0  0  0  0  0  0  0  0  0  0
   -8.2824    8.6215   -9.0603 H   0  0  0  0  0  0  0  0  0  0  0  0
   -6.8631    8.6818  -11.2404 H   0  0  0  0  0  0  0  0  0  0  0  0
  1  2  2  0
  2  3  1  0
  3  4  1  0
  4  5  1  0
  5  6  1  0
  3  7  2  0
  7  8  1  0
  7  9  1  0
  9 10  2  0
 10 11  1  0
 11 12  2  0
 12 13  1  0
 13 14  1  0
 14 15  1  0
 15 16  1  0
 16 17  1  0
 15 18  2  0
 18 19  1  0
 18 20  1  0
 20 21  1  0
 12 22  1  0
 22 23  2  0
 23 24  1  0
 24 25  1  0
 25 26  1  0
 26 27  1  0
 27 28  1  0
 28 29  1  0
 27 30  2  0
 30 31  1  0
 31 32  1  0
 30 33  1  0
 24 34  2  0
 34 35  1  0
 23 36  1  0
 36 37  2  0
 37 38  1  0
 37 39  1  0
 39 40  2  0
 40 41  1  0
 41 42  1  0
 42 43  1  0
 43 44  1  0
 41 45  2  0
 45 46  1  0
 45 47  1  0
 47 48  2  0
 48 49  1  0
 49 50  2  0
 50 51  1  0
 51 52  1  0
 52 53  1  0
 53 54  1  0
 54 55  1  0
 53 56  2  0
 56 57  1  0
 56 58  1  0
 58 59  1  0
 50 60  1  0
 60 61  2  0
 61 62  1  0
 62 63  1  0
 63 64  1  0
 64 65  1  0
 65 66  1  0
 66 67  1  0
 65 68  2  0
 68 69  1  0
 69 70  1  0
 68 71  1  0
 62 72  2  0
 72 73  1  0
 61 74  1  0
 74 75  2  0
 75 76  1  0
 75 77  1  0
 77 78  2  0
 78 79  1  0
 79 80  1  0
 80 81  1  0
 81 82  1  0
 79 83  2  0
 83 84  1  0
 83 85  1  0
 85 86  2  0
 86 87  1  0
 87 88  2  0
 88 89  1  0
 89 90  1  0
 90 91  1  0
 91 92  1  0
 92 93  1  0
 91 94  2  0
 94 95  1  0
 94 96  1  0
 96 97  1  0
 88 98  1  0
 98 99  2  0
 99100  1  0
100101  1  0
101102  1  0
102103  1  0
103104  1  0
104105  1  0
103106  2  0
106107  1  0
107108  1  0
106109  1  0
100110  2  0
110111  1  0
 99112  1  0
112113  2  0
113114  1  0
  8  1  1  0
 35  9  1  0
 46 39  1  0
 73 47  1  0
 84 77  1  0
111 85  1  0
 34 11  1  0
 72 49  1  0
110 87  1  0
 20 13  2  0
 38 22  1  0
 58 51  2  0
 76 60  1  0
 96 89  2  0
114 98  1  0
 31 25  2  0
 69 63  2  0
107101  2  0
  1115  1  0
  2116  1  0
  5117  1  0
  5118  1  0
  6119  1  0
  6120  1  0
  6121  1  0
 10122  1  0
 16123  1  0
 16124  1  0
 17125  1  0
 17126  1  0
 17127  1  0
 28128  1  0
 28129  1  0
 29130  1  0
 29131  1  0
 29132  1  0
 36133  1  0
 40134  1  0
 43135  1  0
 43136  1  0
 44137  1  0
 44138  1  0
 44139  1  0
 48140  1  0
 54141  1  0
 54142  1  0
 55143  1  0
 55144  1  0
 55145  1  0
 66146  1  0
 66147  1  0
 67148  1  0
 67149  1  0
 67150  1  0
 74151  1  0
 78152  1  0
 81153  1  0
 81154  1  0
 82155  1  0
 82156  1  0
 82157  1  0
 86158  1  0
 92159  1  0
 92160  1  0
 93161  1  0
 93162  1  0
 93163  1  0
104164  1  0
104165  1  0
105166  1  0
105167  1  0
105168  1  0
112169  1  0
113170  1  0
M  END

