
     RDKit          3D

 86 94  0  0  0  0  0  0  0  0999 V2000
    3.0499    5.0431    8.3763 C   0  0  0  0  0  0  0  0  0  0  0  0
    3.5946    4.9336    7.1039 C   0  0  0  0  0  0  0  0  0  0  0  0
    2.7884    4.2048    6.2101 C   0  0  0  0  0  0  0  0  0  0  0  0
    3.1470    3.8975    4.8923 O   0  0  0  0  0  0  0  0  0  0  0  0
    4.3445    4.3564    4.2743 C   0  0  0  0  0  0  0  0  0  0  0  0
    4.4059    3.8440    2.8441 C   0  0  0  0  0  0  0  0  0  0  0  0
    1.5955    3.7675    6.7770 C   0  0  0  0  0  0  0  0  0  0  0  0
    1.5714    4.2428    8.3896 S   0  0  0  0  0  0  0  0  0  0  0  0
    0.5515    2.9673    6.1236 C   0  0  0  0  0  0  0  0  0  0  0  0
   -0.4116    1.7902    6.8770 S   0  0  0  0  0  0  0  0  0  0  0  0
   -1.4042    1.4133    5.5565 C   0  0  0  0  0  0  0  0  0  0  0  0
   -0.9997    2.2602    4.5327 C   0  0  0  0  0  0  0  0  0  0  0  0
    0.0560    3.0859    4.8308 C   0  0  0  0  0  0  0  0  0  0  0  0
    0.1520    4.0646    3.7518 C   0  0  0  0  0  0  0  0  0  0  0  0
    0.9239    5.0574    3.7111 O   0  0  0  0  0  0  0  0  0  0  0  0
   -0.8316    3.7996    2.7956 O   0  0  0  0  0  0  0  0  0  0  0  0
   -1.5593    2.7041    3.2632 C   0  0  0  0  0  0  0  0  0  0  0  0
   -2.5719    2.2277    2.6878 O   0  0  0  0  0  0  0  0  0  0  0  0
   -2.5955    0.5530    5.6088 C   0  0  0  0  0  0  0  0  0  0  0  0
   -2.9491   -0.3321    4.6658 C   0  0  0  0  0  0  0  0  0  0  0  0
   -2.1244   -0.7326    3.5077 C   0  0  0  0  0  0  0  0  0  0  0  0
   -2.6303   -1.3124    2.3499 C   0  0  0  0  0  0  0  0  0  0  0  0
   -1.6329   -1.6689    1.4229 C   0  0  0  0  0  0  0  0  0  0  0  0
   -1.8875   -2.2425    0.1708 O   0  0  0  0  0  0  0  0  0  0  0  0
   -3.1915   -2.5708   -0.2978 C   0  0  0  0  0  0  0  0  0  0  0  0
   -3.0975   -3.1441   -1.7016 C   0  0  0  0  0  0  0  0  0  0  0  0
   -0.3405   -1.3848    1.8611 C   0  0  0  0  0  0  0  0  0  0  0  0
   -0.4419   -0.7152    3.3985 S   0  0  0  0  0  0  0  0  0  0  0  0
    0.9078   -1.6674    1.1360 C   0  0  0  0  0  0  0  0  0  0  0  0
    1.1338   -2.8699   -0.0428 S   0  0  0  0  0  0  0  0  0  0  0  0
    2.7476   -2.5128   -0.4407 C   0  0  0  0  0  0  0  0  0  0  0  0
    3.1115   -1.4750    0.3989 C   0  0  0  0  0  0  0  0  0  0  0  0
    2.1279   -1.0083    1.2326 C   0  0  0  0  0  0  0  0  0  0  0  0
    2.6537    0.1877    1.8850 C   0  0  0  0  0  0  0  0  0  0  0  0
    2.0302    0.9479    2.6698 O   0  0  0  0  0  0  0  0  0  0  0  0
    3.9615    0.4149    1.4493 O   0  0  0  0  0  0  0  0  0  0  0  0
    4.2602   -0.5957    0.5342 C   0  0  0  0  0  0  0  0  0  0  0  0
    5.3474   -0.6925   -0.0907 O   0  0  0  0  0  0  0  0  0  0  0  0
    3.6137   -3.2028   -1.4126 C   0  0  0  0  0  0  0  0  0  0  0  0
    3.2043   -3.6946   -2.5908 C   0  0  0  0  0  0  0  0  0  0  0  0
    1.8949   -3.4267   -3.2132 C   0  0  0  0  0  0  0  0  0  0  0  0
    1.1766   -2.2355   -3.1772 C   0  0  0  0  0  0  0  0  0  0  0  0
   -0.0136   -2.2808   -3.9243 C   0  0  0  0  0  0  0  0  0  0  0  0
   -0.9272   -1.2224   -4.0012 O   0  0  0  0  0  0  0  0  0  0  0  0
   -0.8246   -0.0348   -3.2233 C   0  0  0  0  0  0  0  0  0  0  0  0
   -2.0499    0.8340   -3.4599 C   0  0  0  0  0  0  0  0  0  0  0  0
   -0.2076   -3.4916   -4.5941 C   0  0  0  0  0  0  0  0  0  0  0  0
    1.0911   -4.4980   -4.2254 S   0  0  0  0  0  0  0  0  0  0  0  0
   -1.3692   -3.8519   -5.4334 C   0  0  0  0  0  0  0  0  0  0  0  0
   -2.8502   -3.0180   -5.4949 S   0  0  0  0  0  0  0  0  0  0  0  0
   -3.6457   -4.0020   -6.6259 C   0  0  0  0  0  0  0  0  0  0  0  0
   -2.7338   -4.9908   -6.9521 C   0  0  0  0  0  0  0  0  0  0  0  0
   -1.5164   -4.9180   -6.3202 C   0  0  0  0  0  0  0  0  0  0  0  0
   -0.7000   -6.0065   -6.8581 C   0  0  0  0  0  0  0  0  0  0  0  0
    0.4979   -6.2586   -6.5708 O   0  0  0  0  0  0  0  0  0  0  0  0
   -1.4439   -6.7307   -7.7944 O   0  0  0  0  0  0  0  0  0  0  0  0
   -2.6967   -6.1211   -7.8679 C   0  0  0  0  0  0  0  0  0  0  0  0
   -3.6290   -6.5003   -8.6236 O   0  0  0  0  0  0  0  0  0  0  0  0
   -5.0046   -3.8390   -7.1684 C   0  0  0  0  0  0  0  0  0  0  0  0
   -5.8061   -2.8448   -6.7948 C   0  0  0  0  0  0  0  0  0  0  0  0
    3.5062    5.5460    9.2176 H   0  0  0  0  0  0  0  0  0  0  0  0
    4.5566    5.3550    6.8458 H   0  0  0  0  0  0  0  0  0  0  0  0
    5.2264    3.9790    4.8350 H   0  0  0  0  0  0  0  0  0  0  0  0
    4.3579    5.4678    4.2667 H   0  0  0  0  0  0  0  0  0  0  0  0
    3.5179    4.1942    2.2766 H   0  0  0  0  0  0  0  0  0  0  0  0
    5.3236    4.2242    2.3479 H   0  0  0  0  0  0  0  0  0  0  0  0
    4.4293    2.7341    2.8423 H   0  0  0  0  0  0  0  0  0  0  0  0
   -3.2351    0.6535    6.4770 H   0  0  0  0  0  0  0  0  0  0  0  0
   -3.9074   -0.8235    4.7765 H   0  0  0  0  0  0  0  0  0  0  0  0
   -3.6895   -1.4639    2.1840 H   0  0  0  0  0  0  0  0  0  0  0  0
   -3.8246   -1.6579   -0.3195 H   0  0  0  0  0  0  0  0  0  0  0  0
   -3.6519   -3.3240    0.3761 H   0  0  0  0  0  0  0  0  0  0  0  0
   -4.1060   -3.4457   -2.0524 H   0  0  0  0  0  0  0  0  0  0  0  0
   -2.6960   -2.3775   -2.3932 H   0  0  0  0  0  0  0  0  0  0  0  0
   -2.4307   -4.0313   -1.7091 H   0  0  0  0  0  0  0  0  0  0  0  0
    4.6472   -3.3573   -1.1279 H   0  0  0  0  0  0  0  0  0  0  0  0
    3.8987   -4.3062   -3.1527 H   0  0  0  0  0  0  0  0  0  0  0  0
    1.5102   -1.3596   -2.6370 H   0  0  0  0  0  0  0  0  0  0  0  0
   -0.7682   -0.2957   -2.1439 H   0  0  0  0  0  0  0  0  0  0  0  0
    0.0880    0.5272   -3.5152 H   0  0  0  0  0  0  0  0  0  0  0  0
   -2.1245    1.1006   -4.5350 H   0  0  0  0  0  0  0  0  0  0  0  0
   -1.9701    1.7647   -2.8603 H   0  0  0  0  0  0  0  0  0  0  0  0
   -2.9669    0.2863   -3.1548 H   0  0  0  0  0  0  0  0  0  0  0  0
   -5.3679   -4.5528   -7.8963 H   0  0  0  0  0  0  0  0  0  0  0  0
   -6.7979   -2.7628   -7.2202 H   0  0  0  0  0  0  0  0  0  0  0  0
   -5.4912   -2.1059   -6.0700 H   0  0  0  0  0  0  0  0  0  0  0  0
  1  2  2  0
  2  3  1  0
  3  4  1  0
  4  5  1  0
  5  6  1  0
  3  7  2  0
  7  8  1  0
  7  9  1  0
  9 10  1  0
 10 11  1  0
 11 12  2  0
 12 13  1  0
 13 14  1  0
 14 15  2  0
 14 16  1  0
 16 17  1  0
 17 18  2  0
 11 19  1  0
 19 20  2  3
 20 21  1  0
 21 22  2  0
 22 23  1  0
 23 24  1  0
 24 25  1  0
 25 26  1  0
 23 27  2  0
 27 28  1  0
 27 29  1  0
 29 30  1  0
 30 31  1  0
 31 32  2  0
 32 33  1  0
 33 34  1  0
 34 35  2  0
 34 36  1  0
 36 37  1  0
 37 38  2  0
 31 39  1  0
 39 40  2  3
 40 41  1  0
 41 42  2  0
 42 43  1  0
 43 44  1  0
 44 45  1  0
 45 46  1  0
 43 47  2  0
 47 48  1  0
 47 49  1  0
 49 50  1  0
 50 51  1  0
 51 52  2  0
 52 53  1  0
 53 54  1  0
 54 55  2  0
 54 56  1  0
 56 57  1  0
 57 58  2  0
 51 59  1  0
 59 60  2  3
  8  1  1  0
 13  9  2  0
 28 21  1  0
 33 29  2  0
 48 41  1  0
 53 49  2  0
 17 12  1  0
 37 32  1  0
 57 52  1  0
  1 61  1  0
  2 62  1  0
  5 63  1  0
  5 64  1  0
  6 65  1  0
  6 66  1  0
  6 67  1  0
 19 68  1  0
 20 69  1  0
 22 70  1  0
 25 71  1  0
 25 72  1  0
 26 73  1  0
 26 74  1  0
 26 75  1  0
 39 76  1  0
 40 77  1  0
 42 78  1  0
 45 79  1  0
 45 80  1  0
 46 81  1  0
 46 82  1  0
 46 83  1  0
 59 84  1  0
 60 85  1  0
 60 86  1  0
M  END

