
     RDKit          3D

179199  0  0  0  0  0  0  0  0999 V2000
    9.4289   -6.6884    9.9408 C   0  0  0  0  0  0  0  0  0  0  0  0
    8.3405   -5.8400   10.1214 C   0  0  0  0  0  0  0  0  0  0  0  0
    7.4725   -5.8124    9.0165 C   0  0  0  0  0  0  0  0  0  0  0  0
    6.2902   -5.0542    8.8949 C   0  0  0  0  0  0  0  0  0  0  0  0
    5.8377   -4.1427    9.9597 C   0  0  0  0  0  0  0  0  0  0  0  0
    5.2750   -4.6240   11.4698 S   0  0  0  0  0  0  0  0  0  0  0  0
    4.9624   -3.0742   12.0479 C   0  0  0  0  0  0  0  0  0  0  0  0
    4.4771   -2.7611   13.4308 C   0  0  0  0  0  0  0  0  0  0  0  0
    5.6506   -2.5321   14.3781 C   0  0  0  0  0  0  0  0  0  0  0  0
    5.3237   -2.1514   11.0667 C   0  0  0  0  0  0  0  0  0  0  0  0
    5.2138   -0.4098   11.2810 Cl  0  0  0  0  0  0  0  0  0  0  0  0
    5.8034   -2.7498    9.8910 C   0  0  0  0  0  0  0  0  0  0  0  0
    6.3704   -1.8341    8.4994 Cl  0  0  0  0  0  0  0  0  0  0  0  0
    5.5766   -5.1757    7.6888 C   0  0  0  0  0  0  0  0  0  0  0  0
    6.0121   -5.9833    6.6348 C   0  0  0  0  0  0  0  0  0  0  0  0
    7.1887   -6.7481    6.7606 C   0  0  0  0  0  0  0  0  0  0  0  0
    7.6580   -7.6322    5.6814 C   0  0  0  0  0  0  0  0  0  0  0  0
    9.0318   -7.3675    4.7488 S   0  0  0  0  0  0  0  0  0  0  0  0
    8.8418   -8.7202    3.7629 C   0  0  0  0  0  0  0  0  0  0  0  0
    9.7119   -9.0422    2.5854 C   0  0  0  0  0  0  0  0  0  0  0  0
    9.1464   -8.4245    1.3117 C   0  0  0  0  0  0  0  0  0  0  0  0
    7.6781   -9.3885    4.1423 C   0  0  0  0  0  0  0  0  0  0  0  0
    7.0177   -8.7811    5.2231 C   0  0  0  0  0  0  0  0  0  0  0  0
    5.5404   -9.4159    5.9326 Cl  0  0  0  0  0  0  0  0  0  0  0  0
    7.0818  -10.8364    3.3397 Cl  0  0  0  0  0  0  0  0  0  0  0  0
    7.8995   -6.6295    7.9654 C   0  0  0  0  0  0  0  0  0  0  0  0
    9.3295   -7.3949    8.4129 S   0  0  0  0  0  0  0  0  0  0  0  0
    5.1796   -5.9168    5.5047 C   0  0  0  0  0  0  0  0  0  0  0  0
    4.0752   -5.0864    5.6966 C   0  0  0  0  0  0  0  0  0  0  0  0
    4.1386   -4.4235    7.2488 S   0  0  0  0  0  0  0  0  0  0  0  0
    3.0533   -4.7675    4.6894 C   0  0  0  0  0  0  0  0  0  0  0  0
    3.2205   -4.8561    3.3087 C   0  0  0  0  0  0  0  0  0  0  0  0
    2.1091   -4.3819    2.5919 C   0  0  0  0  0  0  0  0  0  0  0  0
    2.0206   -4.2383    1.1926 C   0  0  0  0  0  0  0  0  0  0  0  0
    3.1326   -4.6131    0.3037 C   0  0  0  0  0  0  0  0  0  0  0  0
    3.6353   -6.1876   -0.0039 S   0  0  0  0  0  0  0  0  0  0  0  0
    4.9217   -5.7717   -1.0103 C   0  0  0  0  0  0  0  0  0  0  0  0
    5.8118   -6.7536   -1.7091 C   0  0  0  0  0  0  0  0  0  0  0  0
    5.3591   -6.9670   -3.1503 C   0  0  0  0  0  0  0  0  0  0  0  0
    4.9668   -4.3836   -1.1234 C   0  0  0  0  0  0  0  0  0  0  0  0
    6.1604   -3.5268   -2.0897 Cl  0  0  0  0  0  0  0  0  0  0  0  0
    3.9666   -3.7322   -0.3844 C   0  0  0  0  0  0  0  0  0  0  0  0
    3.8140   -1.9822   -0.2967 Cl  0  0  0  0  0  0  0  0  0  0  0  0
    0.8482   -3.6490    0.6867 C   0  0  0  0  0  0  0  0  0  0  0  0
   -0.2031   -3.2371    1.5100 C   0  0  0  0  0  0  0  0  0  0  0  0
   -0.1129   -3.3775    2.9100 C   0  0  0  0  0  0  0  0  0  0  0  0
   -1.1972   -2.9442    3.8095 C   0  0  0  0  0  0  0  0  0  0  0  0
   -2.1303   -3.9851    4.7450 S   0  0  0  0  0  0  0  0  0  0  0  0
   -3.1508   -2.8013    5.3696 C   0  0  0  0  0  0  0  0  0  0  0  0
   -4.3389   -3.0778    6.2414 C   0  0  0  0  0  0  0  0  0  0  0  0
   -5.5863   -3.3024    5.3923 C   0  0  0  0  0  0  0  0  0  0  0  0
   -2.7814   -1.5663    4.8350 C   0  0  0  0  0  0  0  0  0  0  0  0
   -1.6801   -1.6438    3.9691 C   0  0  0  0  0  0  0  0  0  0  0  0
   -0.9703   -0.2399    3.1789 Cl  0  0  0  0  0  0  0  0  0  0  0  0
   -3.6235   -0.0623    5.1873 Cl  0  0  0  0  0  0  0  0  0  0  0  0
    1.0663   -3.9495    3.4169 C   0  0  0  0  0  0  0  0  0  0  0  0
    1.5293   -4.1182    5.0262 S   0  0  0  0  0  0  0  0  0  0  0  0
   -1.2711   -2.6650    0.8018 C   0  0  0  0  0  0  0  0  0  0  0  0
   -1.0423   -2.5931   -0.5714 C   0  0  0  0  0  0  0  0  0  0  0  0
    0.4676   -3.2756   -0.9084 S   0  0  0  0  0  0  0  0  0  0  0  0
   -1.8794   -1.8845   -1.5601 C   0  0  0  0  0  0  0  0  0  0  0  0
   -1.3779   -1.4668   -3.1165 S   0  0  0  0  0  0  0  0  0  0  0  0
   -2.7316   -0.5489   -3.5453 C   0  0  0  0  0  0  0  0  0  0  0  0
   -3.5966   -0.5706   -2.4599 C   0  0  0  0  0  0  0  0  0  0  0  0
   -3.1223   -1.2861   -1.3608 C   0  0  0  0  0  0  0  0  0  0  0  0
   -3.8767   -1.3347   -0.1883 O   0  0  0  0  0  0  0  0  0  0  0  0
   -4.9648   -0.4234    0.0030 C   0  0  0  0  0  0  0  0  0  0  0  0
   -5.7346   -0.2052   -1.3171 C   0  0  0  0  0  0  0  0  0  0  0  0
   -4.8349    0.0705   -2.3989 O   0  0  0  0  0  0  0  0  0  0  0  0
   -2.9385    0.1782   -4.8102 C   0  0  0  0  0  0  0  0  0  0  0  0
   -1.9543    0.3070   -5.7055 C   0  0  0  0  0  0  0  0  0  0  0  0
   -2.0994    1.0538   -6.9633 C   0  0  0  0  0  0  0  0  0  0  0  0
   -3.4808    1.8212   -7.5760 S   0  0  0  0  0  0  0  0  0  0  0  0
   -2.7737    2.4091   -9.0032 C   0  0  0  0  0  0  0  0  0  0  0  0
   -1.4547    1.9701   -9.0084 C   0  0  0  0  0  0  0  0  0  0  0  0
   -1.0787    1.2542   -7.8792 C   0  0  0  0  0  0  0  0  0  0  0  0
    0.2368    0.8099   -7.7367 O   0  0  0  0  0  0  0  0  0  0  0  0
    1.2592    1.3179   -8.6010 C   0  0  0  0  0  0  0  0  0  0  0  0
    0.7226    1.5001  -10.0364 C   0  0  0  0  0  0  0  0  0  0  0  0
   -0.5309    2.1967  -10.0306 O   0  0  0  0  0  0  0  0  0  0  0  0
   -3.3953    3.1507  -10.1198 C   0  0  0  0  0  0  0  0  0  0  0  0
   -4.6364    3.6447  -10.1711 C   0  0  0  0  0  0  0  0  0  0  0  0
   -5.6075    3.6576   -9.0721 C   0  0  0  0  0  0  0  0  0  0  0  0
   -5.5066    4.6116   -7.6830 S   0  0  0  0  0  0  0  0  0  0  0  0
   -7.1131    4.4617   -7.1700 C   0  0  0  0  0  0  0  0  0  0  0  0
   -7.7498    3.6965   -8.1445 C   0  0  0  0  0  0  0  0  0  0  0  0
   -6.9352    3.2889   -9.1960 C   0  0  0  0  0  0  0  0  0  0  0  0
   -7.4804    2.6025  -10.2840 O   0  0  0  0  0  0  0  0  0  0  0  0
   -8.9028    2.5406  -10.4503 C   0  0  0  0  0  0  0  0  0  0  0  0
   -9.6091    2.4049   -9.0848 C   0  0  0  0  0  0  0  0  0  0  0  0
   -9.1092    3.3717   -8.1526 O   0  0  0  0  0  0  0  0  0  0  0  0
   -7.8476    5.1984   -6.1142 C   0  0  0  0  0  0  0  0  0  0  0  0
   -7.4179    5.7049   -4.9447 C   0  0  0  0  0  0  0  0  0  0  0  0
   -6.0658    5.6851   -4.3514 C   0  0  0  0  0  0  0  0  0  0  0  0
   -5.8544    5.6307   -2.9728 C   0  0  0  0  0  0  0  0  0  0  0  0
   -4.5254    5.8870   -2.5994 C   0  0  0  0  0  0  0  0  0  0  0  0
   -4.0174    5.9177   -1.2877 C   0  0  0  0  0  0  0  0  0  0  0  0
   -4.8812    5.7099   -0.1174 C   0  0  0  0  0  0  0  0  0  0  0  0
   -5.4604    4.2191    0.4009 S   0  0  0  0  0  0  0  0  0  0  0  0
   -6.3283    4.8227    1.7150 C   0  0  0  0  0  0  0  0  0  0  0  0
   -7.0644    3.9756    2.7078 C   0  0  0  0  0  0  0  0  0  0  0  0
   -6.1883    3.6879    3.9225 C   0  0  0  0  0  0  0  0  0  0  0  0
   -6.1610    6.2059    1.7674 C   0  0  0  0  0  0  0  0  0  0  0  0
   -6.8805    7.2277    3.0049 Cl  0  0  0  0  0  0  0  0  0  0  0  0
   -5.3516    6.7046    0.7350 C   0  0  0  0  0  0  0  0  0  0  0  0
   -4.9843    8.4110    0.5237 Cl  0  0  0  0  0  0  0  0  0  0  0  0
   -2.6523    6.2083   -1.1373 C   0  0  0  0  0  0  0  0  0  0  0  0
   -1.8161    6.4651   -2.2258 C   0  0  0  0  0  0  0  0  0  0  0  0
   -2.3302    6.4662   -3.5366 C   0  0  0  0  0  0  0  0  0  0  0  0
   -1.4698    6.6805   -4.7113 C   0  0  0  0  0  0  0  0  0  0  0  0
   -0.2757    5.6070   -5.2096 S   0  0  0  0  0  0  0  0  0  0  0  0
    0.1418    6.4421   -6.6084 C   0  0  0  0  0  0  0  0  0  0  0  0
    1.0861    5.9228   -7.6446 C   0  0  0  0  0  0  0  0  0  0  0  0
    0.3323    5.0814   -8.6665 C   0  0  0  0  0  0  0  0  0  0  0  0
   -0.6762    7.5660   -6.7180 C   0  0  0  0  0  0  0  0  0  0  0  0
   -1.5737    7.7060   -5.6481 C   0  0  0  0  0  0  0  0  0  0  0  0
   -2.7093    9.0435   -5.5092 Cl  0  0  0  0  0  0  0  0  0  0  0  0
   -0.6267    8.6714   -8.0841 Cl  0  0  0  0  0  0  0  0  0  0  0  0
   -3.6975    6.1747   -3.6838 C   0  0  0  0  0  0  0  0  0  0  0  0
   -4.6124    6.1248   -5.0886 S   0  0  0  0  0  0  0  0  0  0  0  0
   -0.4890    6.7309   -1.8485 C   0  0  0  0  0  0  0  0  0  0  0  0
   -0.2890    6.6719   -0.4718 C   0  0  0  0  0  0  0  0  0  0  0  0
   -1.7526    6.3002    0.2809 S   0  0  0  0  0  0  0  0  0  0  0  0
   10.2151   -6.8606   10.6640 H   0  0  0  0  0  0  0  0  0  0  0  0
    8.1924   -5.2667   11.0273 H   0  0  0  0  0  0  0  0  0  0  0  0
    3.8642   -3.6076   13.8070 H   0  0  0  0  0  0  0  0  0  0  0  0
    3.8340   -1.8563   13.4097 H   0  0  0  0  0  0  0  0  0  0  0  0
    5.2693   -2.2863   15.3914 H   0  0  0  0  0  0  0  0  0  0  0  0
    6.2752   -3.4483   14.4441 H   0  0  0  0  0  0  0  0  0  0  0  0
    6.2775   -1.6874   14.0219 H   0  0  0  0  0  0  0  0  0  0  0  0
    9.7901  -10.1436    2.4628 H   0  0  0  0  0  0  0  0  0  0  0  0
   10.7342   -8.6444    2.7643 H   0  0  0  0  0  0  0  0  0  0  0  0
    9.8171   -8.6510    0.4583 H   0  0  0  0  0  0  0  0  0  0  0  0
    9.0694   -7.3211    1.4208 H   0  0  0  0  0  0  0  0  0  0  0  0
    8.1406   -8.8428    1.0941 H   0  0  0  0  0  0  0  0  0  0  0  0
    5.3695   -6.4519    4.5841 H   0  0  0  0  0  0  0  0  0  0  0  0
    4.1340   -5.1997    2.8422 H   0  0  0  0  0  0  0  0  0  0  0  0
    6.8600   -6.3840   -1.6996 H   0  0  0  0  0  0  0  0  0  0  0  0
    5.7882   -7.7251   -1.1676 H   0  0  0  0  0  0  0  0  0  0  0  0
    6.0072   -7.7260   -3.6346 H   0  0  0  0  0  0  0  0  0  0  0  0
    5.4362   -6.0193   -3.7238 H   0  0  0  0  0  0  0  0  0  0  0  0
    4.3085   -7.3242   -3.1769 H   0  0  0  0  0  0  0  0  0  0  0  0
   -4.1433   -3.9841    6.8534 H   0  0  0  0  0  0  0  0  0  0  0  0
   -4.5075   -2.2259    6.9349 H   0  0  0  0  0  0  0  0  0  0  0  0
   -5.4486   -4.1852    4.7305 H   0  0  0  0  0  0  0  0  0  0  0  0
   -5.7933   -2.4066    4.7674 H   0  0  0  0  0  0  0  0  0  0  0  0
   -6.4593   -3.4827    6.0544 H   0  0  0  0  0  0  0  0  0  0  0  0
   -2.1569   -2.2793    1.2822 H   0  0  0  0  0  0  0  0  0  0  0  0
   -5.6455   -0.8164    0.7849 H   0  0  0  0  0  0  0  0  0  0  0  0
   -4.5590    0.5525    0.3475 H   0  0  0  0  0  0  0  0  0  0  0  0
   -6.3099   -1.1248   -1.5561 H   0  0  0  0  0  0  0  0  0  0  0  0
   -6.4511    0.6346   -1.2089 H   0  0  0  0  0  0  0  0  0  0  0  0
   -3.9020    0.6391   -4.9932 H   0  0  0  0  0  0  0  0  0  0  0  0
   -0.9866   -0.1375   -5.5065 H   0  0  0  0  0  0  0  0  0  0  0  0
    1.5997    2.3018   -8.2152 H   0  0  0  0  0  0  0  0  0  0  0  0
    2.1261    0.6244   -8.5991 H   0  0  0  0  0  0  0  0  0  0  0  0
    0.5747    0.4987  -10.4937 H   0  0  0  0  0  0  0  0  0  0  0  0
    1.4535    2.0637  -10.6512 H   0  0  0  0  0  0  0  0  0  0  0  0
   -2.7915    3.2628  -11.0127 H   0  0  0  0  0  0  0  0  0  0  0  0
   -4.9659    4.0734  -11.1080 H   0  0  0  0  0  0  0  0  0  0  0  0
   -9.2469    3.4765  -10.9442 H   0  0  0  0  0  0  0  0  0  0  0  0
   -9.1636    1.6815  -11.1033 H   0  0  0  0  0  0  0  0  0  0  0  0
  -10.7054    2.5381   -9.2050 H   0  0  0  0  0  0  0  0  0  0  0  0
   -9.4198    1.3869   -8.6809 H   0  0  0  0  0  0  0  0  0  0  0  0
   -8.9167    5.2713   -6.2800 H   0  0  0  0  0  0  0  0  0  0  0  0
   -8.1889    6.1117   -4.2985 H   0  0  0  0  0  0  0  0  0  0  0  0
   -6.6513    5.4513   -2.2605 H   0  0  0  0  0  0  0  0  0  0  0  0
   -7.3551    3.0146    2.2302 H   0  0  0  0  0  0  0  0  0  0  0  0
   -7.9940    4.4948    3.0307 H   0  0  0  0  0  0  0  0  0  0  0  0
   -5.9285    4.6348    4.4417 H   0  0  0  0  0  0  0  0  0  0  0  0
   -6.7399    3.0384    4.6340 H   0  0  0  0  0  0  0  0  0  0  0  0
   -5.2559    3.1695    3.6111 H   0  0  0  0  0  0  0  0  0  0  0  0
    1.8607    5.2953   -7.1523 H   0  0  0  0  0  0  0  0  0  0  0  0
    1.5974    6.7656   -8.1563 H   0  0  0  0  0  0  0  0  0  0  0  0
   -0.2066    4.2620   -8.1494 H   0  0  0  0  0  0  0  0  0  0  0  0
    1.0457    4.6401   -9.3920 H   0  0  0  0  0  0  0  0  0  0  0  0
   -0.4000    5.7057   -9.2202 H   0  0  0  0  0  0  0  0  0  0  0  0
    0.3043    6.9670   -2.5460 H   0  0  0  0  0  0  0  0  0  0  0  0
    0.6528    6.8431    0.0296 H   0  0  0  0  0  0  0  0  0  0  0  0
  1  2  2  0
  2  3  1  0
  3  4  2  0
  4  5  1  0
  5  6  1  0
  6  7  1  0
  7  8  1  0
  8  9  1  0
  7 10  2  0
 10 11  1  0
 10 12  1  0
 12 13  1  0
  4 14  1  0
 14 15  2  0
 15 16  1  0
 16 17  1  0
 17 18  1  0
 18 19  1  0
 19 20  1  0
 20 21  1  0
 19 22  2  0
 22 23  1  0
 23 24  1  0
 22 25  1  0
 16 26  2  0
 26 27  1  0
 15 28  1  0
 28 29  2  0
 29 30  1  0
 29 31  1  0
 31 32  2  0
 32 33  1  0
 33 34  2  0
 34 35  1  0
 35 36  1  0
 36 37  1  0
 37 38  1  0
 38 39  1  0
 37 40  2  0
 40 41  1  0
 40 42  1  0
 42 43  1  0
 34 44  1  0
 44 45  2  0
 45 46  1  0
 46 47  1  0
 47 48  1  0
 48 49  1  0
 49 50  1  0
 50 51  1  0
 49 52  2  0
 52 53  1  0
 53 54  1  0
 52 55  1  0
 46 56  2  0
 56 57  1  0
 45 58  1  0
 58 59  2  0
 59 60  1  0
 59 61  1  0
 61 62  1  0
 62 63  1  0
 63 64  2  0
 64 65  1  0
 65 66  1  0
 66 67  1  0
 67 68  1  0
 68 69  1  0
 63 70  1  0
 70 71  2  3
 71 72  1  0
 72 73  1  0
 73 74  1  0
 74 75  2  0
 75 76  1  0
 76 77  1  0
 77 78  1  0
 78 79  1  0
 79 80  1  0
 74 81  1  0
 81 82  2  3
 82 83  1  0
 83 84  1  0
 84 85  1  0
 85 86  2  0
 86 87  1  0
 87 88  1  0
 88 89  1  0
 89 90  1  0
 90 91  1  0
 85 92  1  0
 92 93  2  3
 93 94  1  0
 94 95  2  0
 95 96  1  0
 96 97  2  0
 97 98  1  0
 98 99  1  0
 99100  1  0
100101  1  0
101102  1  0
100103  2  0
103104  1  0
103105  1  0
105106  1  0
 97107  1  0
107108  2  0
108109  1  0
109110  1  0
110111  1  0
111112  1  0
112113  1  0
113114  1  0
112115  2  0
115116  1  0
116117  1  0
115118  1  0
109119  2  0
119120  1  0
108121  1  0
121122  2  0
122123  1  0
 27  1  1  0
 57 31  1  0
 65 61  2  0
 76 72  2  0
 87 83  2  0
120 94  1  0
 26  3  1  0
 56 33  1  0
 69 64  1  0
 80 75  1  0
 91 86  1  0
119 96  1  0
 12  5  2  0
 30 14  1  0
 42 35  2  0
 60 44  1  0
105 98  2  0
123107  1  0
 23 17  2  0
 53 47  2  0
116110  2  0
  1124  1  0
  2125  1  0
  8126  1  0
  8127  1  0
  9128  1  0
  9129  1  0
  9130  1  0
 20131  1  0
 20132  1  0
 21133  1  0
 21134  1  0
 21135  1  0
 28136  1  0
 32137  1  0
 38138  1  0
 38139  1  0
 39140  1  0
 39141  1  0
 39142  1  0
 50143  1  0
 50144  1  0
 51145  1  0
 51146  1  0
 51147  1  0
 58148  1  0
 67149  1  0
 67150  1  0
 68151  1  0
 68152  1  0
 70153  1  0
 71154  1  0
 78155  1  0
 78156  1  0
 79157  1  0
 79158  1  0
 81159  1  0
 82160  1  0
 89161  1  0
 89162  1  0
 90163  1  0
 90164  1  0
 92165  1  0
 93166  1  0
 95167  1  0
101168  1  0
101169  1  0
102170  1  0
102171  1  0
102172  1  0
113173  1  0
113174  1  0
114175  1  0
114176  1  0
114177  1  0
121178  1  0
122179  1  0
M  END

