
     RDKit          3D

230253  0  0  0  0  0  0  0  0999 V2000
    3.1486  -10.7846   -6.2315 C   0  0  0  0  0  0  0  0  0  0  0  0
    3.6063   -9.8704   -5.3922 C   0  0  0  0  0  0  0  0  0  0  0  0
    2.8913   -8.6673   -5.4942 C   0  0  0  0  0  0  0  0  0  0  0  0
    1.8958   -8.9156   -6.5081 C   0  0  0  0  0  0  0  0  0  0  0  0
    1.0307   -8.1092   -6.9382 O   0  0  0  0  0  0  0  0  0  0  0  0
    2.0720  -10.2323   -6.9523 O   0  0  0  0  0  0  0  0  0  0  0  0
    3.3638   -7.7551   -4.6557 C   0  0  0  0  0  0  0  0  0  0  0  0
    4.4321   -8.3154   -3.9289 O   0  0  0  0  0  0  0  0  0  0  0  0
    4.6027   -9.6322   -4.3779 C   0  0  0  0  0  0  0  0  0  0  0  0
    5.4719  -10.4396   -3.9586 O   0  0  0  0  0  0  0  0  0  0  0  0
    2.8087   -6.4010   -4.4761 C   0  0  0  0  0  0  0  0  0  0  0  0
    3.4708   -5.3638   -3.9505 C   0  0  0  0  0  0  0  0  0  0  0  0
    4.9135   -5.3444   -3.6561 C   0  0  0  0  0  0  0  0  0  0  0  0
    5.5086   -4.5171   -2.8060 C   0  0  0  0  0  0  0  0  0  0  0  0
    6.8920   -4.7463   -2.7595 C   0  0  0  0  0  0  0  0  0  0  0  0
    7.1281   -5.8096   -3.7011 C   0  0  0  0  0  0  0  0  0  0  0  0
    8.2340   -6.3461   -3.9804 O   0  0  0  0  0  0  0  0  0  0  0  0
    5.8904   -6.1602   -4.2568 O   0  0  0  0  0  0  0  0  0  0  0  0
    7.4817   -3.9342   -1.8922 C   0  0  0  0  0  0  0  0  0  0  0  0
    6.5034   -3.1110   -1.2973 O   0  0  0  0  0  0  0  0  0  0  0  0
    5.2671   -3.4617   -1.8540 C   0  0  0  0  0  0  0  0  0  0  0  0
    4.1570   -2.9621   -1.5378 O   0  0  0  0  0  0  0  0  0  0  0  0
    8.9176   -3.9270   -1.5580 C   0  0  0  0  0  0  0  0  0  0  0  0
    9.5635   -2.8568   -1.0764 C   0  0  0  0  0  0  0  0  0  0  0  0
    8.9960   -1.4996   -1.0603 C   0  0  0  0  0  0  0  0  0  0  0  0
    8.2858   -0.9067   -2.1031 C   0  0  0  0  0  0  0  0  0  0  0  0
    7.8154    0.3732   -1.7795 C   0  0  0  0  0  0  0  0  0  0  0  0
    7.0019    1.1812   -2.5923 C   0  0  0  0  0  0  0  0  0  0  0  0
    6.4702    0.7127   -3.8846 C   0  0  0  0  0  0  0  0  0  0  0  0
    5.4739   -0.2748   -3.9113 C   0  0  0  0  0  0  0  0  0  0  0  0
    4.8745   -0.6324   -5.1207 C   0  0  0  0  0  0  0  0  0  0  0  0
    5.2648   -0.0061   -6.3112 C   0  0  0  0  0  0  0  0  0  0  0  0
    4.4351   -0.4137   -7.8492 S   0  0  0  0  0  0  0  0  0  0  0  0
    3.2053    0.9233   -7.6699 C   0  0  0  0  0  0  0  0  0  0  0  0
    2.3276    0.9968   -8.9073 C   0  0  0  0  0  0  0  0  0  0  0  0
    6.2845    0.9577   -6.2905 C   0  0  0  0  0  0  0  0  0  0  0  0
    6.6728    1.5713   -7.4377 F   0  0  0  0  0  0  0  0  0  0  0  0
    6.8788    1.3196   -5.0786 C   0  0  0  0  0  0  0  0  0  0  0  0
    6.5632    2.3955   -2.0414 C   0  0  0  0  0  0  0  0  0  0  0  0
    6.8768    2.7953   -0.7370 C   0  0  0  0  0  0  0  0  0  0  0  0
    7.7325    2.0039    0.0598 C   0  0  0  0  0  0  0  0  0  0  0  0
    8.0938    2.3875    1.4367 C   0  0  0  0  0  0  0  0  0  0  0  0
    9.4051    2.7917    1.7282 C   0  0  0  0  0  0  0  0  0  0  0  0
    9.7550    3.1488    3.0324 C   0  0  0  0  0  0  0  0  0  0  0  0
    8.8050    3.0871    4.0587 C   0  0  0  0  0  0  0  0  0  0  0  0
    9.2641    3.5633    5.7302 S   0  0  0  0  0  0  0  0  0  0  0  0
    9.7519    1.8838    6.2648 C   0  0  0  0  0  0  0  0  0  0  0  0
   11.1799    1.5648    5.8361 C   0  0  0  0  0  0  0  0  0  0  0  0
    7.4932    2.6843    3.7703 C   0  0  0  0  0  0  0  0  0  0  0  0
    7.1386    2.3345    2.4637 C   0  0  0  0  0  0  0  0  0  0  0  0
    6.5587    2.6357    4.7522 F   0  0  0  0  0  0  0  0  0  0  0  0
    8.1871    0.7944   -0.4984 C   0  0  0  0  0  0  0  0  0  0  0  0
    9.0958   -0.4246    0.2369 S   0  0  0  0  0  0  0  0  0  0  0  0
    6.1799    3.9503   -0.3338 C   0  0  0  0  0  0  0  0  0  0  0  0
    5.3219    4.4423   -1.3233 C   0  0  0  0  0  0  0  0  0  0  0  0
    5.4431    3.4584   -2.6884 S   0  0  0  0  0  0  0  0  0  0  0  0
    4.1986    5.3720   -1.1162 C   0  0  0  0  0  0  0  0  0  0  0  0
    3.5445    5.5630    0.1019 C   0  0  0  0  0  0  0  0  0  0  0  0
    2.2223    6.0227   -0.0469 C   0  0  0  0  0  0  0  0  0  0  0  0
    1.2497    6.0769    0.9721 C   0  0  0  0  0  0  0  0  0  0  0  0
    1.5746    5.7150    2.3646 C   0  0  0  0  0  0  0  0  0  0  0  0
    1.6974    6.7112    3.3416 C   0  0  0  0  0  0  0  0  0  0  0  0
    2.0420    6.3701    4.6511 C   0  0  0  0  0  0  0  0  0  0  0  0
    2.2474    5.0282    4.9994 C   0  0  0  0  0  0  0  0  0  0  0  0
    2.7151    4.5999    6.6820 S   0  0  0  0  0  0  0  0  0  0  0  0
    1.0062    4.3077    7.2643 C   0  0  0  0  0  0  0  0  0  0  0  0
    0.3290    5.6163    7.6502 C   0  0  0  0  0  0  0  0  0  0  0  0
    2.1236    4.0304    4.0238 C   0  0  0  0  0  0  0  0  0  0  0  0
    2.3390    2.7278    4.3436 F   0  0  0  0  0  0  0  0  0  0  0  0
    1.7844    4.3708    2.7116 C   0  0  0  0  0  0  0  0  0  0  0  0
   -0.0853    6.2531    0.5658 C   0  0  0  0  0  0  0  0  0  0  0  0
   -0.4501    6.4058   -0.7775 C   0  0  0  0  0  0  0  0  0  0  0  0
    0.5320    6.4436   -1.7869 C   0  0  0  0  0  0  0  0  0  0  0  0
    0.1656    6.4742   -3.2203 C   0  0  0  0  0  0  0  0  0  0  0  0
   -0.3796    7.6373   -3.7854 C   0  0  0  0  0  0  0  0  0  0  0  0
   -0.6856    7.6761   -5.1495 C   0  0  0  0  0  0  0  0  0  0  0  0
   -0.4635    6.5506   -5.9512 C   0  0  0  0  0  0  0  0  0  0  0  0
   -0.7645    6.6361   -7.7226 S   0  0  0  0  0  0  0  0  0  0  0  0
   -2.4536    5.9472   -7.6475 C   0  0  0  0  0  0  0  0  0  0  0  0
   -3.4692    7.0303   -7.3096 C   0  0  0  0  0  0  0  0  0  0  0  0
    0.0469    5.3750   -5.3827 C   0  0  0  0  0  0  0  0  0  0  0  0
    0.3528    5.3366   -4.0184 C   0  0  0  0  0  0  0  0  0  0  0  0
    0.2646    4.2772   -6.1489 F   0  0  0  0  0  0  0  0  0  0  0  0
    1.8610    6.2299   -1.3829 C   0  0  0  0  0  0  0  0  0  0  0  0
    3.1657    5.8439   -2.3640 S   0  0  0  0  0  0  0  0  0  0  0  0
   -1.8245    6.2156   -1.0019 C   0  0  0  0  0  0  0  0  0  0  0  0
   -2.5328    5.8465    0.1425 C   0  0  0  0  0  0  0  0  0  0  0  0
   -1.4600    5.8603    1.4474 S   0  0  0  0  0  0  0  0  0  0  0  0
   -3.6203    4.8627    0.0906 C   0  0  0  0  0  0  0  0  0  0  0  0
   -3.5226    3.7236   -0.7080 C   0  0  0  0  0  0  0  0  0  0  0  0
   -4.2687    2.6391   -0.2290 C   0  0  0  0  0  0  0  0  0  0  0  0
   -4.1249    1.3060   -0.6625 C   0  0  0  0  0  0  0  0  0  0  0  0
   -3.1731    0.9420   -1.7340 C   0  0  0  0  0  0  0  0  0  0  0  0
   -1.9285    0.3843   -1.4028 C   0  0  0  0  0  0  0  0  0  0  0  0
   -0.9991    0.0961   -2.4051 C   0  0  0  0  0  0  0  0  0  0  0  0
   -1.3087    0.3536   -3.7460 C   0  0  0  0  0  0  0  0  0  0  0  0
   -0.0801    0.0465   -5.0261 S   0  0  0  0  0  0  0  0  0  0  0  0
   -0.6349   -1.6554   -5.3990 C   0  0  0  0  0  0  0  0  0  0  0  0
    0.0296   -2.6601   -4.4669 C   0  0  0  0  0  0  0  0  0  0  0  0
   -2.5521    0.9059   -4.0787 C   0  0  0  0  0  0  0  0  0  0  0  0
   -2.8603    1.1669   -5.3762 F   0  0  0  0  0  0  0  0  0  0  0  0
   -3.4819    1.1991   -3.0762 C   0  0  0  0  0  0  0  0  0  0  0  0
   -4.7552    0.3216    0.1068 C   0  0  0  0  0  0  0  0  0  0  0  0
   -5.5230    0.6161    1.2401 C   0  0  0  0  0  0  0  0  0  0  0  0
   -5.6800    1.9559    1.6660 C   0  0  0  0  0  0  0  0  0  0  0  0
   -6.4028    2.3127    2.9073 C   0  0  0  0  0  0  0  0  0  0  0  0
   -7.5161    3.1636    2.8519 C   0  0  0  0  0  0  0  0  0  0  0  0
   -8.2268    3.4654    4.0153 C   0  0  0  0  0  0  0  0  0  0  0  0
   -7.8396    2.9100    5.2413 C   0  0  0  0  0  0  0  0  0  0  0  0
   -8.8015    3.2543    6.7195 S   0  0  0  0  0  0  0  0  0  0  0  0
  -10.0573    1.9607    6.4092 C   0  0  0  0  0  0  0  0  0  0  0  0
   -9.5578    0.5856    6.8348 C   0  0  0  0  0  0  0  0  0  0  0  0
   -6.6994    2.0964    5.3077 C   0  0  0  0  0  0  0  0  0  0  0  0
   -5.9813    1.8041    4.1452 C   0  0  0  0  0  0  0  0  0  0  0  0
   -6.2891    1.5805    6.4940 F   0  0  0  0  0  0  0  0  0  0  0  0
   -5.0149    2.9431    0.9125 C   0  0  0  0  0  0  0  0  0  0  0  0
   -4.6772    4.5312    1.3675 S   0  0  0  0  0  0  0  0  0  0  0  0
   -5.9493   -0.5374    1.9276 C   0  0  0  0  0  0  0  0  0  0  0  0
   -5.4546   -1.7162    1.3655 C   0  0  0  0  0  0  0  0  0  0  0  0
   -4.5589   -1.3416   -0.0123 S   0  0  0  0  0  0  0  0  0  0  0  0
   -5.4104   -3.0234    2.0397 C   0  0  0  0  0  0  0  0  0  0  0  0
   -4.4528   -4.0018    1.7864 C   0  0  0  0  0  0  0  0  0  0  0  0
   -4.4520   -5.0341    2.7369 C   0  0  0  0  0  0  0  0  0  0  0  0
   -3.5352   -6.1045    2.7997 C   0  0  0  0  0  0  0  0  0  0  0  0
   -2.3931   -6.2072    1.8623 C   0  0  0  0  0  0  0  0  0  0  0  0
   -1.4480   -5.1702    1.7857 C   0  0  0  0  0  0  0  0  0  0  0  0
   -0.3961   -5.2400    0.8687 C   0  0  0  0  0  0  0  0  0  0  0  0
   -0.2644   -6.3556    0.0362 C   0  0  0  0  0  0  0  0  0  0  0  0
    1.0809   -6.4231   -1.1509 S   0  0  0  0  0  0  0  0  0  0  0  0
    2.2411   -7.1934    0.0237 C   0  0  0  0  0  0  0  0  0  0  0  0
    3.5924   -7.3898   -0.6400 C   0  0  0  0  0  0  0  0  0  0  0  0
   -1.1934   -7.4022    0.1192 C   0  0  0  0  0  0  0  0  0  0  0  0
   -1.0780   -8.4882   -0.6870 F   0  0  0  0  0  0  0  0  0  0  0  0
   -2.2527   -7.3286    1.0285 C   0  0  0  0  0  0  0  0  0  0  0  0
   -3.7115   -7.0258    3.8468 C   0  0  0  0  0  0  0  0  0  0  0  0
   -4.7260   -6.8992    4.8043 C   0  0  0  0  0  0  0  0  0  0  0  0
   -5.6251   -5.8108    4.7571 C   0  0  0  0  0  0  0  0  0  0  0  0
   -6.6827   -5.6128    5.7749 C   0  0  0  0  0  0  0  0  0  0  0  0
   -6.3479   -5.4595    7.1283 C   0  0  0  0  0  0  0  0  0  0  0  0
   -7.3467   -5.2480    8.0810 C   0  0  0  0  0  0  0  0  0  0  0  0
   -8.6892   -5.1672    7.6886 C   0  0  0  0  0  0  0  0  0  0  0  0
   -9.9650   -4.8712    8.9195 S   0  0  0  0  0  0  0  0  0  0  0  0
  -10.0006   -3.0573    8.6904 C   0  0  0  0  0  0  0  0  0  0  0  0
   -8.9058   -2.3788    9.5031 C   0  0  0  0  0  0  0  0  0  0  0  0
   -9.0295   -5.3348    6.3400 C   0  0  0  0  0  0  0  0  0  0  0  0
   -8.0314   -5.5530    5.3869 C   0  0  0  0  0  0  0  0  0  0  0  0
  -10.3279   -5.2717    5.9483 F   0  0  0  0  0  0  0  0  0  0  0  0
   -5.4541   -4.8949    3.7013 C   0  0  0  0  0  0  0  0  0  0  0  0
   -6.2843   -3.4532    3.4207 S   0  0  0  0  0  0  0  0  0  0  0  0
   -4.7109   -7.9322    5.7575 C   0  0  0  0  0  0  0  0  0  0  0  0
   -3.6781   -8.8443    5.5621 C   0  0  0  0  0  0  0  0  0  0  0  0
   -2.7884   -8.3834    4.2039 S   0  0  0  0  0  0  0  0  0  0  0  0
    3.5319  -11.7891   -6.3516 H   0  0  0  0  0  0  0  0  0  0  0  0
    1.7692   -6.2520   -4.7443 H   0  0  0  0  0  0  0  0  0  0  0  0
    2.9130   -4.4542   -3.7593 H   0  0  0  0  0  0  0  0  0  0  0  0
    9.4614   -4.8612   -1.6436 H   0  0  0  0  0  0  0  0  0  0  0  0
   10.5750   -2.9834   -0.7071 H   0  0  0  0  0  0  0  0  0  0  0  0
    8.0988   -1.3958   -3.0508 H   0  0  0  0  0  0  0  0  0  0  0  0
    5.1432   -0.7384   -2.9915 H   0  0  0  0  0  0  0  0  0  0  0  0
    4.0921   -1.3809   -5.1273 H   0  0  0  0  0  0  0  0  0  0  0  0
    3.7292    1.8954   -7.5394 H   0  0  0  0  0  0  0  0  0  0  0  0
    2.5721    0.7302   -6.7765 H   0  0  0  0  0  0  0  0  0  0  0  0
    2.9498    1.2069   -9.8030 H   0  0  0  0  0  0  0  0  0  0  0  0
    1.7874    0.0379   -9.0547 H   0  0  0  0  0  0  0  0  0  0  0  0
    1.5843    1.8155   -8.7906 H   0  0  0  0  0  0  0  0  0  0  0  0
    7.6449    2.0864   -5.0665 H   0  0  0  0  0  0  0  0  0  0  0  0
   10.1509    2.8365    0.9438 H   0  0  0  0  0  0  0  0  0  0  0  0
   10.7669    3.4707    3.2444 H   0  0  0  0  0  0  0  0  0  0  0  0
    9.6966    1.8461    7.3735 H   0  0  0  0  0  0  0  0  0  0  0  0
    9.0511    1.1220    5.8617 H   0  0  0  0  0  0  0  0  0  0  0  0
   11.8687    2.3698    6.1670 H   0  0  0  0  0  0  0  0  0  0  0  0
   11.5016    0.6045    6.2949 H   0  0  0  0  0  0  0  0  0  0  0  0
   11.2374    1.4656    4.7322 H   0  0  0  0  0  0  0  0  0  0  0  0
    6.1255    2.0156    2.2504 H   0  0  0  0  0  0  0  0  0  0  0  0
    6.2346    4.3675    0.6624 H   0  0  0  0  0  0  0  0  0  0  0  0
    3.9565    5.2327    1.0479 H   0  0  0  0  0  0  0  0  0  0  0  0
    1.5427    7.7532    3.0828 H   0  0  0  0  0  0  0  0  0  0  0  0
    2.1549    7.1489    5.3949 H   0  0  0  0  0  0  0  0  0  0  0  0
    1.0536    3.6532    8.1605 H   0  0  0  0  0  0  0  0  0  0  0  0
    0.4098    3.7815    6.4890 H   0  0  0  0  0  0  0  0  0  0  0  0
   -0.6541    5.4039    8.1218 H   0  0  0  0  0  0  0  0  0  0  0  0
    0.9585    6.1757    8.3736 H   0  0  0  0  0  0  0  0  0  0  0  0
    0.1587    6.2417    6.7491 H   0  0  0  0  0  0  0  0  0  0  0  0
    1.6957    3.5938    1.9624 H   0  0  0  0  0  0  0  0  0  0  0  0
   -0.5410    8.5166   -3.1752 H   0  0  0  0  0  0  0  0  0  0  0  0
   -1.0862    8.5837   -5.5843 H   0  0  0  0  0  0  0  0  0  0  0  0
   -2.5185    5.1239   -6.9054 H   0  0  0  0  0  0  0  0  0  0  0  0
   -2.6943    5.5237   -8.6454 H   0  0  0  0  0  0  0  0  0  0  0  0
   -3.3348    7.9068   -7.9797 H   0  0  0  0  0  0  0  0  0  0  0  0
   -3.3501    7.3529   -6.2514 H   0  0  0  0  0  0  0  0  0  0  0  0
   -4.4987    6.6318   -7.4432 H   0  0  0  0  0  0  0  0  0  0  0  0
    0.7431    4.4215   -3.5856 H   0  0  0  0  0  0  0  0  0  0  0  0
   -2.2518    6.1323   -1.9955 H   0  0  0  0  0  0  0  0  0  0  0  0
   -2.7927    3.6313   -1.5036 H   0  0  0  0  0  0  0  0  0  0  0  0
   -1.6726    0.1939   -0.3671 H   0  0  0  0  0  0  0  0  0  0  0  0
   -0.0355   -0.3162   -2.1342 H   0  0  0  0  0  0  0  0  0  0  0  0
   -1.7401   -1.7401   -5.3295 H   0  0  0  0  0  0  0  0  0  0  0  0
   -0.3416   -1.8918   -6.4438 H   0  0  0  0  0  0  0  0  0  0  0  0
   -0.2322   -3.6930   -4.7812 H   0  0  0  0  0  0  0  0  0  0  0  0
    1.1335   -2.5432   -4.5034 H   0  0  0  0  0  0  0  0  0  0  0  0
   -0.3195   -2.5067   -3.4242 H   0  0  0  0  0  0  0  0  0  0  0  0
   -4.4400    1.6315   -3.3414 H   0  0  0  0  0  0  0  0  0  0  0  0
   -7.8436    3.5774    1.9059 H   0  0  0  0  0  0  0  0  0  0  0  0
   -9.0950    4.1104    3.9593 H   0  0  0  0  0  0  0  0  0  0  0  0
  -10.3471    1.9447    5.3372 H   0  0  0  0  0  0  0  0  0  0  0  0
  -10.9631    2.2093    7.0003 H   0  0  0  0  0  0  0  0  0  0  0  0
  -10.3709   -0.1610    6.7123 H   0  0  0  0  0  0  0  0  0  0  0  0
   -9.2488    0.6092    7.8998 H   0  0  0  0  0  0  0  0  0  0  0  0
   -8.6962    0.2733    6.2098 H   0  0  0  0  0  0  0  0  0  0  0  0
   -5.1019    1.1763    4.2069 H   0  0  0  0  0  0  0  0  0  0  0  0
   -6.5060   -0.5171    2.8539 H   0  0  0  0  0  0  0  0  0  0  0  0
   -3.7417   -3.9358    0.9742 H   0  0  0  0  0  0  0  0  0  0  0  0
   -1.5345   -4.3015    2.4273 H   0  0  0  0  0  0  0  0  0  0  0  0
    0.3160   -4.4264    0.8095 H   0  0  0  0  0  0  0  0  0  0  0  0
    2.3607   -6.5421    0.9159 H   0  0  0  0  0  0  0  0  0  0  0  0
    1.8445   -8.1792    0.3470 H   0  0  0  0  0  0  0  0  0  0  0  0
    4.2996   -7.8687    0.0706 H   0  0  0  0  0  0  0  0  0  0  0  0
    3.4806   -8.0431   -1.5281 H   0  0  0  0  0  0  0  0  0  0  0  0
    4.0061   -6.4073   -0.9526 H   0  0  0  0  0  0  0  0  0  0  0  0
   -2.9753   -8.1376    1.0758 H   0  0  0  0  0  0  0  0  0  0  0  0
   -5.3113   -5.4994    7.4444 H   0  0  0  0  0  0  0  0  0  0  0  0
   -7.0757   -5.1332    9.1222 H   0  0  0  0  0  0  0  0  0  0  0  0
  -10.9881   -2.6864    9.0382 H   0  0  0  0  0  0  0  0  0  0  0  0
   -9.8991   -2.7916    7.6164 H   0  0  0  0  0  0  0  0  0  0  0  0
   -8.9947   -2.6614   10.5737 H   0  0  0  0  0  0  0  0  0  0  0  0
   -7.9030   -2.6707    9.1293 H   0  0  0  0  0  0  0  0  0  0  0  0
   -9.0077   -1.2773    9.4168 H   0  0  0  0  0  0  0  0  0  0  0  0
   -8.3067   -5.6764    4.3472 H   0  0  0  0  0  0  0  0  0  0  0  0
   -5.4213   -8.0219    6.5691 H   0  0  0  0  0  0  0  0  0  0  0  0
   -3.4827   -9.7068    6.1846 H   0  0  0  0  0  0  0  0  0  0  0  0
  1  2  2  0
  2  3  1  0
  3  4  1  0
  4  5  2  0
  4  6  1  0
  3  7  2  0
  7  8  1  0
  8  9  1  0
  9 10  2  0
  7 11  1  0
 11 12  2  3
 12 13  1  0
 13 14  2  0
 14 15  1  0
 15 16  1  0
 16 17  2  0
 16 18  1  0
 15 19  2  0
 19 20  1  0
 20 21  1  0
 21 22  2  0
 19 23  1  0
 23 24  2  3
 24 25  1  0
 25 26  2  0
 26 27  1  0
 27 28  2  0
 28 29  1  0
 29 30  2  0
 30 31  1  0
 31 32  2  0
 32 33  1  0
 33 34  1  0
 34 35  1  0
 32 36  1  0
 36 37  1  0
 36 38  2  0
 28 39  1  0
 39 40  2  0
 40 41  1  0
 41 42  1  0
 42 43  2  0
 43 44  1  0
 44 45  2  0
 45 46  1  0
 46 47  1  0
 47 48  1  0
 45 49  1  0
 49 50  2  0
 49 51  1  0
 41 52  2  0
 52 53  1  0
 40 54  1  0
 54 55  2  0
 55 56  1  0
 55 57  1  0
 57 58  2  0
 58 59  1  0
 59 60  2  0
 60 61  1  0
 61 62  2  0
 62 63  1  0
 63 64  2  0
 64 65  1  0
 65 66  1  0
 66 67  1  0
 64 68  1  0
 68 69  1  0
 68 70  2  0
 60 71  1  0
 71 72  2  0
 72 73  1  0
 73 74  1  0
 74 75  2  0
 75 76  1  0
 76 77  2  0
 77 78  1  0
 78 79  1  0
 79 80  1  0
 77 81  1  0
 81 82  2  0
 81 83  1  0
 73 84  2  0
 84 85  1  0
 72 86  1  0
 86 87  2  0
 87 88  1  0
 87 89  1  0
 89 90  2  0
 90 91  1  0
 91 92  2  0
 92 93  1  0
 93 94  2  0
 94 95  1  0
 95 96  2  0
 96 97  1  0
 97 98  1  0
 98 99  1  0
 96100  1  0
100101  1  0
100102  2  0
 92103  1  0
103104  2  0
104105  1  0
105106  1  0
106107  2  0
107108  1  0
108109  2  0
109110  1  0
110111  1  0
111112  1  0
109113  1  0
113114  2  0
113115  1  0
105116  2  0
116117  1  0
104118  1  0
118119  2  0
119120  1  0
119121  1  0
121122  2  0
122123  1  0
123124  2  0
124125  1  0
125126  2  0
126127  1  0
127128  2  0
128129  1  0
129130  1  0
130131  1  0
128132  1  0
132133  1  0
132134  2  0
124135  1  0
135136  2  0
136137  1  0
137138  1  0
138139  2  0
139140  1  0
140141  2  0
141142  1  0
142143  1  0
143144  1  0
141145  1  0
145146  2  0
145147  1  0
137148  2  0
148149  1  0
136150  1  0
150151  2  0
151152  1  0
  6  1  1  0
 18 13  1  0
 53 25  1  0
 85 57  1  0
117 89  1  0
149121  1  0
  9  2  1  0
 21 14  1  0
 52 27  1  0
 84 59  1  0
116 91  1  0
148123  1  0
 38 29  1  0
 56 39  1  0
 70 61  1  0
 88 71  1  0
102 93  1  0
120103  1  0
134125  1  0
152135  1  0
 50 42  1  0
 82 74  1  0
114106  1  0
146138  1  0
  1153  1  0
 11154  1  0
 12155  1  0
 23156  1  0
 24157  1  0
 26158  1  0
 30159  1  0
 31160  1  0
 34161  1  0
 34162  1  0
 35163  1  0
 35164  1  0
 35165  1  0
 38166  1  0
 43167  1  0
 44168  1  0
 47169  1  0
 47170  1  0
 48171  1  0
 48172  1  0
 48173  1  0
 50174  1  0
 54175  1  0
 58176  1  0
 62177  1  0
 63178  1  0
 66179  1  0
 66180  1  0
 67181  1  0
 67182  1  0
 67183  1  0
 70184  1  0
 75185  1  0
 76186  1  0
 79187  1  0
 79188  1  0
 80189  1  0
 80190  1  0
 80191  1  0
 82192  1  0
 86193  1  0
 90194  1  0
 94195  1  0
 95196  1  0
 98197  1  0
 98198  1  0
 99199  1  0
 99200  1  0
 99201  1  0
102202  1  0
107203  1  0
108204  1  0
111205  1  0
111206  1  0
112207  1  0
112208  1  0
112209  1  0
114210  1  0
118211  1  0
122212  1  0
126213  1  0
127214  1  0
130215  1  0
130216  1  0
131217  1  0
131218  1  0
131219  1  0
134220  1  0
139221  1  0
140222  1  0
143223  1  0
143224  1  0
144225  1  0
144226  1  0
144227  1  0
146228  1  0
150229  1  0
151230  1  0
M  END

