
     RDKit          3D

184199  0  0  0  0  0  0  0  0999 V2000
    1.2134    6.5852   -3.6806 C   0  0  0  0  0  0  0  0  0  0  0  0
    1.4452    5.4535   -2.8831 C   0  0  0  0  0  0  0  0  0  0  0  0
    2.1538    5.3777   -1.7238 N   0  0  0  0  0  0  0  0  0  0  0  0
    2.6579    6.5398   -0.9761 C   0  0  0  0  0  0  0  0  0  0  0  0
    1.5272    7.2100   -0.1889 C   0  0  0  0  0  0  0  0  0  0  0  0
    2.0110    8.5074    0.4557 C   0  0  0  0  0  0  0  0  0  0  0  0
    2.0188    4.0806   -1.3085 C   0  0  0  0  0  0  0  0  0  0  0  0
    1.1930    3.3863   -2.1846 C   0  0  0  0  0  0  0  0  0  0  0  0
    0.8600    4.2495   -3.1947 C   0  0  0  0  0  0  0  0  0  0  0  0
    0.0423    4.0824   -4.3112 C   0  0  0  0  0  0  0  0  0  0  0  0
   -0.1862    5.2020   -5.1311 C   0  0  0  0  0  0  0  0  0  0  0  0
    0.3941    6.4459   -4.8136 C   0  0  0  0  0  0  0  0  0  0  0  0
    0.7440    2.0914   -1.9396 C   0  0  0  0  0  0  0  0  0  0  0  0
    1.1580    1.4664   -0.7594 C   0  0  0  0  0  0  0  0  0  0  0  0
    2.0356    2.1242    0.1187 C   0  0  0  0  0  0  0  0  0  0  0  0
    2.5364    3.4172   -0.1671 C   0  0  0  0  0  0  0  0  0  0  0  0
    3.6021    3.9050    0.7354 C   0  0  0  0  0  0  0  0  0  0  0  0
    4.8715    4.2274    0.3849 C   0  0  0  0  0  0  0  0  0  0  0  0
    5.3629    4.5947   -0.9642 C   0  0  0  0  0  0  0  0  0  0  0  0
    5.0936    3.9156   -2.1787 C   0  0  0  0  0  0  0  0  0  0  0  0
    4.6519    2.6374   -2.3991 N   0  0  0  0  0  0  0  0  0  0  0  0
    4.8428    1.5116   -1.4609 C   0  0  0  0  0  0  0  0  0  0  0  0
    6.1958    0.8292   -1.6983 C   0  0  0  0  0  0  0  0  0  0  0  0
    6.4504   -0.2566   -0.6555 C   0  0  0  0  0  0  0  0  0  0  0  0
    4.5506    2.5310   -3.7634 C   0  0  0  0  0  0  0  0  0  0  0  0
    5.0164    3.6773   -4.3777 C   0  0  0  0  0  0  0  0  0  0  0  0
    5.3695    4.5424   -3.3854 C   0  0  0  0  0  0  0  0  0  0  0  0
    6.0185    5.7704   -3.4762 C   0  0  0  0  0  0  0  0  0  0  0  0
    6.3807    6.4056   -2.2883 C   0  0  0  0  0  0  0  0  0  0  0  0
    6.0565    5.8290   -1.0479 C   0  0  0  0  0  0  0  0  0  0  0  0
    5.1581    3.7980   -5.7574 C   0  0  0  0  0  0  0  0  0  0  0  0
    4.7719    2.7134   -6.5504 C   0  0  0  0  0  0  0  0  0  0  0  0
    4.2370    1.5528   -5.9579 C   0  0  0  0  0  0  0  0  0  0  0  0
    4.1135    1.4372   -4.5503 C   0  0  0  0  0  0  0  0  0  0  0  0
    3.3215    0.3318   -3.9808 C   0  0  0  0  0  0  0  0  0  0  0  0
    3.3216   -0.9106   -4.4817 C   0  0  0  0  0  0  0  0  0  0  0  0
    2.3562   -1.9181   -4.0037 C   0  0  0  0  0  0  0  0  0  0  0  0
    1.4015   -1.7690   -2.6224 S   0  0  0  0  0  0  0  0  0  0  0  0
    1.9478   -3.0794   -4.6704 C   0  0  0  0  0  0  0  0  0  0  0  0
    2.4688   -3.5634   -5.8774 C   0  0  0  0  0  0  0  0  0  0  0  0
    1.9346   -4.7396   -6.4494 C   0  0  0  0  0  0  0  0  0  0  0  0
    2.4148   -5.2594   -7.6601 O   0  0  0  0  0  0  0  0  0  0  0  0
    3.4570   -4.6727   -8.4358 C   0  0  0  0  0  0  0  0  0  0  0  0
    0.8847   -5.4205   -5.8025 C   0  0  0  0  0  0  0  0  0  0  0  0
    0.3785   -6.5811   -6.4075 O   0  0  0  0  0  0  0  0  0  0  0  0
   -0.6776   -7.3762   -5.8776 C   0  0  0  0  0  0  0  0  0  0  0  0
    0.3679   -4.9311   -4.5840 C   0  0  0  0  0  0  0  0  0  0  0  0
    0.8862   -3.7547   -4.0346 C   0  0  0  0  0  0  0  0  0  0  0  0
    0.4603   -3.1335   -2.8580 C   0  0  0  0  0  0  0  0  0  0  0  0
   -0.7169   -3.4090   -2.0220 C   0  0  0  0  0  0  0  0  0  0  0  0
   -1.9155   -3.6822   -2.5379 C   0  0  0  0  0  0  0  0  0  0  0  0
   -3.1252   -3.6286   -1.6993 C   0  0  0  0  0  0  0  0  0  0  0  0
   -3.2925   -2.6820   -0.3177 S   0  0  0  0  0  0  0  0  0  0  0  0
   -4.3471   -4.2651   -1.9272 C   0  0  0  0  0  0  0  0  0  0  0  0
   -4.6348   -5.1321   -2.9866 C   0  0  0  0  0  0  0  0  0  0  0  0
   -5.9204   -5.7083   -3.0858 C   0  0  0  0  0  0  0  0  0  0  0  0
   -6.2670   -6.5612   -4.1458 O   0  0  0  0  0  0  0  0  0  0  0  0
   -5.4027   -6.9056   -5.2231 C   0  0  0  0  0  0  0  0  0  0  0  0
   -6.8956   -5.4308   -2.1058 C   0  0  0  0  0  0  0  0  0  0  0  0
   -8.1526   -6.0369   -2.2416 O   0  0  0  0  0  0  0  0  0  0  0  0
   -9.2285   -5.8716   -1.3204 C   0  0  0  0  0  0  0  0  0  0  0  0
   -6.5922   -4.5623   -1.0316 C   0  0  0  0  0  0  0  0  0  0  0  0
   -5.3238   -3.9786   -0.9548 C   0  0  0  0  0  0  0  0  0  0  0  0
   -4.8936   -3.0757    0.0178 C   0  0  0  0  0  0  0  0  0  0  0  0
   -5.6229   -2.6149    1.2121 C   0  0  0  0  0  0  0  0  0  0  0  0
   -5.3467   -1.4267    1.7630 C   0  0  0  0  0  0  0  0  0  0  0  0
   -5.8498   -1.0477    3.0952 C   0  0  0  0  0  0  0  0  0  0  0  0
   -5.0180   -0.5906    4.1593 C   0  0  0  0  0  0  0  0  0  0  0  0
   -3.6568   -0.4008    4.2123 N   0  0  0  0  0  0  0  0  0  0  0  0
   -2.7320   -0.3522    3.0664 C   0  0  0  0  0  0  0  0  0  0  0  0
   -2.7759    1.0332    2.4034 C   0  0  0  0  0  0  0  0  0  0  0  0
   -1.8349    1.1076    1.2050 C   0  0  0  0  0  0  0  0  0  0  0  0
   -3.4045    0.0467    5.4836 C   0  0  0  0  0  0  0  0  0  0  0  0
   -4.5830    0.1610    6.1964 C   0  0  0  0  0  0  0  0  0  0  0  0
   -5.5928   -0.2650    5.3766 C   0  0  0  0  0  0  0  0  0  0  0  0
   -6.9617   -0.3535    5.6217 C   0  0  0  0  0  0  0  0  0  0  0  0
   -7.7867   -0.8121    4.5918 C   0  0  0  0  0  0  0  0  0  0  0  0
   -7.2385   -1.1517    3.3420 C   0  0  0  0  0  0  0  0  0  0  0  0
   -4.6443    0.6843    7.4871 C   0  0  0  0  0  0  0  0  0  0  0  0
   -3.4551    1.1235    8.0758 C   0  0  0  0  0  0  0  0  0  0  0  0
   -2.2392    0.9983    7.3875 C   0  0  0  0  0  0  0  0  0  0  0  0
   -2.1772    0.4268    6.0998 C   0  0  0  0  0  0  0  0  0  0  0  0
   -0.8374    0.1393    5.5629 C   0  0  0  0  0  0  0  0  0  0  0  0
   -0.4017   -1.1187    5.4311 C   0  0  0  0  0  0  0  0  0  0  0  0
    0.9574   -1.4147    4.9387 C   0  0  0  0  0  0  0  0  0  0  0  0
    1.8895   -2.2605    5.6051 C   0  0  0  0  0  0  0  0  0  0  0  0
    1.8192   -2.8623    6.8370 N   0  0  0  0  0  0  0  0  0  0  0  0
    0.6736   -2.8644    7.7599 C   0  0  0  0  0  0  0  0  0  0  0  0
    0.6161   -1.5625    8.5679 C   0  0  0  0  0  0  0  0  0  0  0  0
   -0.6504   -1.4943    9.4145 C   0  0  0  0  0  0  0  0  0  0  0  0
    3.0264   -3.4951    7.0033 C   0  0  0  0  0  0  0  0  0  0  0  0
    3.8073   -3.3295    5.8728 C   0  0  0  0  0  0  0  0  0  0  0  0
    3.1079   -2.5299    5.0086 C   0  0  0  0  0  0  0  0  0  0  0  0
    3.4786   -2.0184    3.7667 C   0  0  0  0  0  0  0  0  0  0  0  0
    2.5822   -1.1722    3.1099 C   0  0  0  0  0  0  0  0  0  0  0  0
    1.3410   -0.8660    3.6921 C   0  0  0  0  0  0  0  0  0  0  0  0
    5.0659   -3.9057    5.7248 C   0  0  0  0  0  0  0  0  0  0  0  0
    5.5597   -4.6867    6.7744 C   0  0  0  0  0  0  0  0  0  0  0  0
    4.8070   -4.8486    7.9515 C   0  0  0  0  0  0  0  0  0  0  0  0
    3.5318   -4.2483    8.0996 C   0  0  0  0  0  0  0  0  0  0  0  0
    2.8772   -4.3232    9.4198 C   0  0  0  0  0  0  0  0  0  0  0  0
    2.8078   -5.4559   10.1177 C   0  0  0  0  0  0  0  0  0  0  0  0
    1.6437    7.5482   -3.4488 H   0  0  0  0  0  0  0  0  0  0  0  0
    3.1265    7.2586   -1.6817 H   0  0  0  0  0  0  0  0  0  0  0  0
    3.4403    6.2569   -0.2619 H   0  0  0  0  0  0  0  0  0  0  0  0
    1.1721    6.5186    0.6037 H   0  0  0  0  0  0  0  0  0  0  0  0
    0.6671    7.4379   -0.8602 H   0  0  0  0  0  0  0  0  0  0  0  0
    2.9107    8.3260    1.0810 H   0  0  0  0  0  0  0  0  0  0  0  0
    1.2101    8.9223    1.1082 H   0  0  0  0  0  0  0  0  0  0  0  0
    2.2671    9.2550   -0.3271 H   0  0  0  0  0  0  0  0  0  0  0  0
   -0.4100    3.1244   -4.5441 H   0  0  0  0  0  0  0  0  0  0  0  0
   -0.8146    5.1036   -6.0063 H   0  0  0  0  0  0  0  0  0  0  0  0
    0.1976    7.3050   -5.4445 H   0  0  0  0  0  0  0  0  0  0  0  0
    0.0802    1.5848   -2.6261 H   0  0  0  0  0  0  0  0  0  0  0  0
    0.8139    0.4640   -0.5305 H   0  0  0  0  0  0  0  0  0  0  0  0
    2.3707    1.5926    0.9998 H   0  0  0  0  0  0  0  0  0  0  0  0
    3.4178    3.7722    1.7937 H   0  0  0  0  0  0  0  0  0  0  0  0
    5.5599    4.4341    1.2064 H   0  0  0  0  0  0  0  0  0  0  0  0
    4.0268    0.7736   -1.5395 H   0  0  0  0  0  0  0  0  0  0  0  0
    4.8163    1.8545   -0.4126 H   0  0  0  0  0  0  0  0  0  0  0  0
    6.2165    0.3792   -2.7111 H   0  0  0  0  0  0  0  0  0  0  0  0
    7.0084    1.5872   -1.6376 H   0  0  0  0  0  0  0  0  0  0  0  0
    6.4243    0.1750    0.3691 H   0  0  0  0  0  0  0  0  0  0  0  0
    7.4561   -0.6959   -0.8267 H   0  0  0  0  0  0  0  0  0  0  0  0
    5.6884   -1.0578   -0.7409 H   0  0  0  0  0  0  0  0  0  0  0  0
    6.2772    6.2123   -4.4320 H   0  0  0  0  0  0  0  0  0  0  0  0
    6.9068    7.3537   -2.3231 H   0  0  0  0  0  0  0  0  0  0  0  0
    6.3035    6.3738   -0.1423 H   0  0  0  0  0  0  0  0  0  0  0  0
    5.5577    4.6991   -6.2110 H   0  0  0  0  0  0  0  0  0  0  0  0
    4.8547    2.7783   -7.6271 H   0  0  0  0  0  0  0  0  0  0  0  0
    3.8711    0.7714   -6.6093 H   0  0  0  0  0  0  0  0  0  0  0  0
    2.6366    0.5822   -3.1892 H   0  0  0  0  0  0  0  0  0  0  0  0
    3.9917   -1.1608   -5.2944 H   0  0  0  0  0  0  0  0  0  0  0  0
    3.2741   -3.0324   -6.3693 H   0  0  0  0  0  0  0  0  0  0  0  0
    3.6314   -5.2946   -9.3399 H   0  0  0  0  0  0  0  0  0  0  0  0
    4.3962   -4.6317   -7.8462 H   0  0  0  0  0  0  0  0  0  0  0  0
    3.1660   -3.6504   -8.7572 H   0  0  0  0  0  0  0  0  0  0  0  0
   -1.5981   -6.7655   -5.7671 H   0  0  0  0  0  0  0  0  0  0  0  0
   -0.3813   -7.7966   -4.8933 H   0  0  0  0  0  0  0  0  0  0  0  0
   -0.8830   -8.2120   -6.5778 H   0  0  0  0  0  0  0  0  0  0  0  0
   -0.4134   -5.4701   -4.0665 H   0  0  0  0  0  0  0  0  0  0  0  0
   -0.6253   -3.1727   -0.9671 H   0  0  0  0  0  0  0  0  0  0  0  0
   -2.0262   -3.8470   -3.5998 H   0  0  0  0  0  0  0  0  0  0  0  0
   -3.8704   -5.3495   -3.7198 H   0  0  0  0  0  0  0  0  0  0  0  0
   -4.5056   -7.4327   -4.8369 H   0  0  0  0  0  0  0  0  0  0  0  0
   -5.0985   -5.9920   -5.7769 H   0  0  0  0  0  0  0  0  0  0  0  0
   -5.9401   -7.5819   -5.9213 H   0  0  0  0  0  0  0  0  0  0  0  0
   -8.9344   -6.2486   -0.3180 H   0  0  0  0  0  0  0  0  0  0  0  0
  -10.1049   -6.4501   -1.6749 H   0  0  0  0  0  0  0  0  0  0  0  0
   -9.5160   -4.8012   -1.2577 H   0  0  0  0  0  0  0  0  0  0  0  0
   -7.3305   -4.3337   -0.2721 H   0  0  0  0  0  0  0  0  0  0  0  0
   -6.3184   -3.2930    1.6935 H   0  0  0  0  0  0  0  0  0  0  0  0
   -4.7110   -0.7372    1.2320 H   0  0  0  0  0  0  0  0  0  0  0  0
   -1.7047   -0.5703    3.3670 H   0  0  0  0  0  0  0  0  0  0  0  0
   -2.9309   -1.1704    2.3584 H   0  0  0  0  0  0  0  0  0  0  0  0
   -2.4681    1.8058    3.1428 H   0  0  0  0  0  0  0  0  0  0  0  0
   -3.8099    1.2705    2.0727 H   0  0  0  0  0  0  0  0  0  0  0  0
   -2.1409    0.3751    0.4296 H   0  0  0  0  0  0  0  0  0  0  0  0
   -1.8767    2.1289    0.7716 H   0  0  0  0  0  0  0  0  0  0  0  0
   -0.7890    0.9002    1.5210 H   0  0  0  0  0  0  0  0  0  0  0  0
   -7.3848   -0.0801    6.5787 H   0  0  0  0  0  0  0  0  0  0  0  0
   -8.8546   -0.8934    4.7525 H   0  0  0  0  0  0  0  0  0  0  0  0
   -7.9089   -1.4838    2.5559 H   0  0  0  0  0  0  0  0  0  0  0  0
   -5.5859    0.7729    8.0159 H   0  0  0  0  0  0  0  0  0  0  0  0
   -3.4736    1.5450    9.0729 H   0  0  0  0  0  0  0  0  0  0  0  0
   -1.3293    1.3028    7.8871 H   0  0  0  0  0  0  0  0  0  0  0  0
   -0.1479    0.9643    5.4278 H   0  0  0  0  0  0  0  0  0  0  0  0
   -1.0951   -1.9327    5.5859 H   0  0  0  0  0  0  0  0  0  0  0  0
    0.6935   -3.7421    8.4288 H   0  0  0  0  0  0  0  0  0  0  0  0
   -0.2646   -3.0312    7.2044 H   0  0  0  0  0  0  0  0  0  0  0  0
    1.5022   -1.4825    9.2288 H   0  0  0  0  0  0  0  0  0  0  0  0
    0.6380   -0.6867    7.8840 H   0  0  0  0  0  0  0  0  0  0  0  0
   -0.6853   -0.5275    9.9567 H   0  0  0  0  0  0  0  0  0  0  0  0
   -1.5470   -1.5649    8.7640 H   0  0  0  0  0  0  0  0  0  0  0  0
   -0.6637   -2.3266   10.1523 H   0  0  0  0  0  0  0  0  0  0  0  0
    4.4350   -2.2617    3.3189 H   0  0  0  0  0  0  0  0  0  0  0  0
    2.8461   -0.7553    2.1460 H   0  0  0  0  0  0  0  0  0  0  0  0
    0.6692   -0.2172    3.1484 H   0  0  0  0  0  0  0  0  0  0  0  0
    5.6483   -3.7698    4.8235 H   0  0  0  0  0  0  0  0  0  0  0  0
    6.5342   -5.1479    6.6899 H   0  0  0  0  0  0  0  0  0  0  0  0
    5.2447   -5.4131    8.7653 H   0  0  0  0  0  0  0  0  0  0  0  0
    2.4676   -3.4262    9.8564 H   0  0  0  0  0  0  0  0  0  0  0  0
    2.3294   -5.4636   11.0883 H   0  0  0  0  0  0  0  0  0  0  0  0
    3.1998   -6.3854    9.7243 H   0  0  0  0  0  0  0  0  0  0  0  0
  1  2  2  0
  2  3  1  0
  3  4  1  0
  4  5  1  0
  5  6  1  0
  3  7  1  0
  7  8  2  0
  8  9  1  0
  9 10  2  0
 10 11  1  0
 11 12  2  0
  8 13  1  0
 13 14  2  0
 14 15  1  0
 15 16  2  0
 16 17  1  0
 17 18  2  3
 18 19  1  0
 19 20  2  0
 20 21  1  0
 21 22  1  0
 22 23  1  0
 23 24  1  0
 21 25  1  0
 25 26  2  0
 26 27  1  0
 27 28  2  0
 28 29  1  0
 29 30  2  0
 26 31  1  0
 31 32  2  0
 32 33  1  0
 33 34  2  0
 34 35  1  0
 35 36  2  3
 36 37  1  0
 37 38  1  0
 37 39  2  0
 39 40  1  0
 40 41  2  0
 41 42  1  0
 42 43  1  0
 41 44  1  0
 44 45  1  0
 45 46  1  0
 44 47  2  0
 47 48  1  0
 48 49  2  0
 49 50  1  0
 50 51  2  3
 51 52  1  0
 52 53  1  0
 52 54  2  0
 54 55  1  0
 55 56  2  0
 56 57  1  0
 57 58  1  0
 56 59  1  0
 59 60  1  0
 60 61  1  0
 59 62  2  0
 62 63  1  0
 63 64  2  0
 64 65  1  0
 65 66  2  3
 66 67  1  0
 67 68  2  0
 68 69  1  0
 69 70  1  0
 70 71  1  0
 71 72  1  0
 69 73  1  0
 73 74  2  0
 74 75  1  0
 75 76  2  0
 76 77  1  0
 77 78  2  0
 74 79  1  0
 79 80  2  0
 80 81  1  0
 81 82  2  0
 82 83  1  0
 83 84  2  3
 84 85  1  0
 85 86  2  0
 86 87  1  0
 87 88  1  0
 88 89  1  0
 89 90  1  0
 87 91  1  0
 91 92  2  0
 92 93  1  0
 93 94  2  0
 94 95  1  0
 95 96  2  0
 92 97  1  0
 97 98  2  0
 98 99  1  0
 99100  2  0
100101  1  0
101102  2  3
 12  1  1  0
 30 19  1  0
 49 38  1  0
 64 53  1  0
 78 67  1  0
 96 85  1  0
  9  2  1  0
 27 20  1  0
 48 39  1  0
 63 54  1  0
 75 68  1  0
 93 86  1  0
 16  7  1  0
 34 25  1  0
 82 73  1  0
100 91  1  0
  1103  1  0
  4104  1  0
  4105  1  0
  5106  1  0
  5107  1  0
  6108  1  0
  6109  1  0
  6110  1  0
 10111  1  0
 11112  1  0
 12113  1  0
 13114  1  0
 14115  1  0
 15116  1  0
 17117  1  0
 18118  1  0
 22119  1  0
 22120  1  0
 23121  1  0
 23122  1  0
 24123  1  0
 24124  1  0
 24125  1  0
 28126  1  0
 29127  1  0
 30128  1  0
 31129  1  0
 32130  1  0
 33131  1  0
 35132  1  0
 36133  1  0
 40134  1  0
 43135  1  0
 43136  1  0
 43137  1  0
 46138  1  0
 46139  1  0
 46140  1  0
 47141  1  0
 50142  1  0
 51143  1  0
 55144  1  0
 58145  1  0
 58146  1  0
 58147  1  0
 61148  1  0
 61149  1  0
 61150  1  0
 62151  1  0
 65152  1  0
 66153  1  0
 70154  1  0
 70155  1  0
 71156  1  0
 71157  1  0
 72158  1  0
 72159  1  0
 72160  1  0
 76161  1  0
 77162  1  0
 78163  1  0
 79164  1  0
 80165  1  0
 81166  1  0
 83167  1  0
 84168  1  0
 88169  1  0
 88170  1  0
 89171  1  0
 89172  1  0
 90173  1  0
 90174  1  0
 90175  1  0
 94176  1  0
 95177  1  0
 96178  1  0
 97179  1  0
 98180  1  0
 99181  1  0
101182  1  0
102183  1  0
102184  1  0
M  END

