
     RDKit          3D

108119  0  0  0  0  0  0  0  0999 V2000
    3.9132   -4.2614   -1.3175 C   0  0  0  0  0  0  0  0  0  0  0  0
    2.4904   -3.6013   -1.9247 S   0  0  0  0  0  0  0  0  0  0  0  0
    4.8773   -3.2621   -1.3475 C   0  0  0  0  0  0  0  0  0  0  0  0
    6.1920   -3.4149   -0.9061 C   0  0  0  0  0  0  0  0  0  0  0  0
    7.0823   -2.3238   -0.9844 C   0  0  0  0  0  0  0  0  0  0  0  0
    8.4157   -2.4216   -0.5607 O   0  0  0  0  0  0  0  0  0  0  0  0
    8.9878   -3.5782    0.0329 C   0  0  0  0  0  0  0  0  0  0  0  0
    6.6393   -1.0914   -1.5069 C   0  0  0  0  0  0  0  0  0  0  0  0
    7.5622   -0.0355   -1.5712 O   0  0  0  0  0  0  0  0  0  0  0  0
    7.2883    1.2610   -2.0937 C   0  0  0  0  0  0  0  0  0  0  0  0
    5.3047   -0.9462   -1.9492 C   0  0  0  0  0  0  0  0  0  0  0  0
    4.4265   -2.0337   -1.8602 C   0  0  0  0  0  0  0  0  0  0  0  0
    3.0795   -2.0460   -2.2337 C   0  0  0  0  0  0  0  0  0  0  0  0
    2.2890   -0.8950   -2.7204 C   0  0  0  0  0  0  0  0  0  0  0  0
    0.9990   -1.0096   -3.0572 C   0  0  0  0  0  0  0  0  0  0  0  0
    0.1671    0.1642   -3.4030 C   0  0  0  0  0  0  0  0  0  0  0  0
    0.6977    1.7689   -3.4586 S   0  0  0  0  0  0  0  0  0  0  0  0
   -1.2225    0.1763   -3.5745 C   0  0  0  0  0  0  0  0  0  0  0  0
   -2.0634   -0.9429   -3.5828 C   0  0  0  0  0  0  0  0  0  0  0  0
   -3.4552   -0.7721   -3.7336 C   0  0  0  0  0  0  0  0  0  0  0  0
   -4.3374   -1.8641   -3.7419 O   0  0  0  0  0  0  0  0  0  0  0  0
   -3.9527   -3.2197   -3.5413 C   0  0  0  0  0  0  0  0  0  0  0  0
   -3.9943    0.5222   -3.8739 C   0  0  0  0  0  0  0  0  0  0  0  0
   -5.3829    0.6468   -4.0261 O   0  0  0  0  0  0  0  0  0  0  0  0
   -6.0861    1.8837   -4.0524 C   0  0  0  0  0  0  0  0  0  0  0  0
   -3.1434    1.6470   -3.8546 C   0  0  0  0  0  0  0  0  0  0  0  0
   -1.7647    1.4659   -3.7148 C   0  0  0  0  0  0  0  0  0  0  0  0
   -0.8176    2.4843   -3.6452 C   0  0  0  0  0  0  0  0  0  0  0  0
   -1.0930    3.9341   -3.6313 C   0  0  0  0  0  0  0  0  0  0  0  0
   -0.6597    4.7763   -2.6808 C   0  0  0  0  0  0  0  0  0  0  0  0
    0.0198    4.3611   -1.4354 C   0  0  0  0  0  0  0  0  0  0  0  0
   -0.2539    2.9495   -0.5458 S   0  0  0  0  0  0  0  0  0  0  0  0
    0.8656    3.2541    0.6796 C   0  0  0  0  0  0  0  0  0  0  0  0
    1.4379    4.4918    0.4092 C   0  0  0  0  0  0  0  0  0  0  0  0
    0.9676    5.1002   -0.7381 C   0  0  0  0  0  0  0  0  0  0  0  0
    1.4414    6.7916   -1.0149 S   0  0  0  0  0  0  0  0  0  0  0  0
    1.6992    6.9883    0.7907 C   0  0  0  0  0  0  0  0  0  0  0  0
    2.4653    5.4689    1.4809 S   0  0  0  0  0  0  0  0  0  0  0  0
    1.2312    2.3381    1.7752 C   0  0  0  0  0  0  0  0  0  0  0  0
    0.7221    1.1037    1.8625 C   0  0  0  0  0  0  0  0  0  0  0  0
    1.1869    0.1063    2.8375 C   0  0  0  0  0  0  0  0  0  0  0  0
    1.0951   -1.5519    2.5679 S   0  0  0  0  0  0  0  0  0  0  0  0
    1.6460   -2.0308    4.0925 C   0  0  0  0  0  0  0  0  0  0  0  0
    1.9678   -0.8792    4.7977 C   0  0  0  0  0  0  0  0  0  0  0  0
    1.7004    0.2961    4.1213 C   0  0  0  0  0  0  0  0  0  0  0  0
    1.7060    1.7889    5.0877 S   0  0  0  0  0  0  0  0  0  0  0  0
    1.3872    0.8048    6.6016 C   0  0  0  0  0  0  0  0  0  0  0  0
    2.3324   -0.7633    6.5343 S   0  0  0  0  0  0  0  0  0  0  0  0
    1.8461   -3.4173    4.5609 C   0  0  0  0  0  0  0  0  0  0  0  0
    1.0788   -4.4569    4.2059 C   0  0  0  0  0  0  0  0  0  0  0  0
   -0.2095   -4.3375    3.5011 C   0  0  0  0  0  0  0  0  0  0  0  0
   -1.4662   -3.2793    3.8893 S   0  0  0  0  0  0  0  0  0  0  0  0
   -2.4821   -3.7125    2.6081 C   0  0  0  0  0  0  0  0  0  0  0  0
   -1.8534   -4.7335    1.9061 C   0  0  0  0  0  0  0  0  0  0  0  0
   -0.6116   -5.0794    2.4004 C   0  0  0  0  0  0  0  0  0  0  0  0
    0.4299   -6.0755    1.3591 S   0  0  0  0  0  0  0  0  0  0  0  0
   -0.4876   -5.4691   -0.1094 C   0  0  0  0  0  0  0  0  0  0  0  0
   -2.2732   -5.3391    0.2860 S   0  0  0  0  0  0  0  0  0  0  0  0
   -3.7509   -3.0687    2.2275 C   0  0  0  0  0  0  0  0  0  0  0  0
   -4.1488   -1.9101    2.7602 C   0  0  0  0  0  0  0  0  0  0  0  0
   -5.3924   -1.2192    2.3741 C   0  0  0  0  0  0  0  0  0  0  0  0
   -6.1430   -0.0618    3.3419 S   0  0  0  0  0  0  0  0  0  0  0  0
   -7.3428    0.3873    2.2489 C   0  0  0  0  0  0  0  0  0  0  0  0
   -7.1757   -0.4025    1.1074 C   0  0  0  0  0  0  0  0  0  0  0  0
   -6.1099   -1.2837    1.1768 C   0  0  0  0  0  0  0  0  0  0  0  0
   -5.6366   -2.0734   -0.3525 S   0  0  0  0  0  0  0  0  0  0  0  0
   -6.4941   -0.7673   -1.3048 C   0  0  0  0  0  0  0  0  0  0  0  0
   -8.0395   -0.3026   -0.4488 S   0  0  0  0  0  0  0  0  0  0  0  0
   -8.3385    1.4410    2.5166 C   0  0  0  0  0  0  0  0  0  0  0  0
   -8.8294    2.2463    1.5746 C   0  0  0  0  0  0  0  0  0  0  0  0
    4.0428   -5.2745   -0.9613 H   0  0  0  0  0  0  0  0  0  0  0  0
    6.5083   -4.3686   -0.5083 H   0  0  0  0  0  0  0  0  0  0  0  0
    8.4387   -3.8401    0.9609 H   0  0  0  0  0  0  0  0  0  0  0  0
    8.9582   -4.4216   -0.6856 H   0  0  0  0  0  0  0  0  0  0  0  0
   10.0445   -3.3643    0.2877 H   0  0  0  0  0  0  0  0  0  0  0  0
    7.0076    1.1874   -3.1653 H   0  0  0  0  0  0  0  0  0  0  0  0
    6.4746    1.7434   -1.5128 H   0  0  0  0  0  0  0  0  0  0  0  0
    8.2054    1.8842   -2.0096 H   0  0  0  0  0  0  0  0  0  0  0  0
    4.9663   -0.0035   -2.3541 H   0  0  0  0  0  0  0  0  0  0  0  0
    2.7629    0.0775   -2.7523 H   0  0  0  0  0  0  0  0  0  0  0  0
    0.5274   -1.9817   -3.0180 H   0  0  0  0  0  0  0  0  0  0  0  0
   -1.6500   -1.9315   -3.4722 H   0  0  0  0  0  0  0  0  0  0  0  0
   -4.8607   -3.8581   -3.5616 H   0  0  0  0  0  0  0  0  0  0  0  0
   -3.4587   -3.3324   -2.5520 H   0  0  0  0  0  0  0  0  0  0  0  0
   -3.2707   -3.5445   -4.3540 H   0  0  0  0  0  0  0  0  0  0  0  0
   -5.7782    2.4783   -4.9382 H   0  0  0  0  0  0  0  0  0  0  0  0
   -5.8896    2.4524   -3.1178 H   0  0  0  0  0  0  0  0  0  0  0  0
   -7.1749    1.6764   -4.1209 H   0  0  0  0  0  0  0  0  0  0  0  0
   -3.5440    2.6488   -3.9392 H   0  0  0  0  0  0  0  0  0  0  0  0
   -1.6707    4.3425   -4.4491 H   0  0  0  0  0  0  0  0  0  0  0  0
   -0.8269    5.8380   -2.8263 H   0  0  0  0  0  0  0  0  0  0  0  0
    2.3608    7.8606    0.9805 H   0  0  0  0  0  0  0  0  0  0  0  0
    0.7205    7.1651    1.2858 H   0  0  0  0  0  0  0  0  0  0  0  0
    2.0018    2.6538    2.4618 H   0  0  0  0  0  0  0  0  0  0  0  0
    0.0156    0.7579    1.1192 H   0  0  0  0  0  0  0  0  0  0  0  0
    1.7002    1.3832    7.4925 H   0  0  0  0  0  0  0  0  0  0  0  0
    0.3023    0.5808    6.6738 H   0  0  0  0  0  0  0  0  0  0  0  0
    2.7078   -3.6128    5.1886 H   0  0  0  0  0  0  0  0  0  0  0  0
    1.4015   -5.4534    4.4811 H   0  0  0  0  0  0  0  0  0  0  0  0
   -0.3468   -6.1784   -0.9538 H   0  0  0  0  0  0  0  0  0  0  0  0
   -0.1009   -4.4672   -0.4025 H   0  0  0  0  0  0  0  0  0  0  0  0
   -4.3553   -3.5640    1.4816 H   0  0  0  0  0  0  0  0  0  0  0  0
   -3.5610   -1.4518    3.5440 H   0  0  0  0  0  0  0  0  0  0  0  0
   -5.8307    0.1187   -1.3921 H   0  0  0  0  0  0  0  0  0  0  0  0
   -6.7333   -1.1499   -2.3176 H   0  0  0  0  0  0  0  0  0  0  0  0
   -8.6251    1.6196    3.5482 H   0  0  0  0  0  0  0  0  0  0  0  0
   -8.5049    2.1843    0.5432 H   0  0  0  0  0  0  0  0  0  0  0  0
   -9.5292    3.0264    1.8462 H   0  0  0  0  0  0  0  0  0  0  0  0
  1  2  1  0
  1  3  2  0
  3  4  1  0
  4  5  2  0
  5  6  1  0
  6  7  1  0
  5  8  1  0
  8  9  1  0
  9 10  1  0
  8 11  2  0
 11 12  1  0
 12 13  2  0
 13 14  1  0
 14 15  2  3
 15 16  1  0
 16 17  1  0
 16 18  2  0
 18 19  1  0
 19 20  2  0
 20 21  1  0
 21 22  1  0
 20 23  1  0
 23 24  1  0
 24 25  1  0
 23 26  2  0
 26 27  1  0
 27 28  2  0
 28 29  1  0
 29 30  2  3
 30 31  1  0
 31 32  1  0
 32 33  1  0
 33 34  2  0
 34 35  1  0
 35 36  1  0
 36 37  1  0
 37 38  1  0
 33 39  1  0
 39 40  2  3
 40 41  1  0
 41 42  1  0
 42 43  1  0
 43 44  2  0
 44 45  1  0
 45 46  1  0
 46 47  1  0
 47 48  1  0
 43 49  1  0
 49 50  2  3
 50 51  1  0
 51 52  1  0
 52 53  1  0
 53 54  2  0
 54 55  1  0
 55 56  1  0
 56 57  1  0
 57 58  1  0
 53 59  1  0
 59 60  2  3
 60 61  1  0
 61 62  1  0
 62 63  1  0
 63 64  2  0
 64 65  1  0
 65 66  1  0
 66 67  1  0
 67 68  1  0
 63 69  1  0
 69 70  2  3
 13  2  1  0
 28 17  1  0
 35 31  2  0
 45 41  2  0
 55 51  2  0
 65 61  2  0
 12  3  1  0
 27 18  1  0
 38 34  1  0
 48 44  1  0
 58 54  1  0
 68 64  1  0
  1 71  1  0
  4 72  1  0
  7 73  1  0
  7 74  1  0
  7 75  1  0
 10 76  1  0
 10 77  1  0
 10 78  1  0
 11 79  1  0
 14 80  1  0
 15 81  1  0
 19 82  1  0
 22 83  1  0
 22 84  1  0
 22 85  1  0
 25 86  1  0
 25 87  1  0
 25 88  1  0
 26 89  1  0
 29 90  1  0
 30 91  1  0
 37 92  1  0
 37 93  1  0
 39 94  1  0
 40 95  1  0
 47 96  1  0
 47 97  1  0
 49 98  1  0
 50 99  1  0
 57100  1  0
 57101  1  0
 59102  1  0
 60103  1  0
 67104  1  0
 67105  1  0
 69106  1  0
 70107  1  0
 70108  1  0
M  END

