
     RDKit          3D

117128  0  0  0  0  0  0  0  0999 V2000
    7.1087    1.0531    4.5780 C   0  0  0  0  0  0  0  0  0  0  0  0
    8.4031    0.9694    4.0759 C   0  0  0  0  0  0  0  0  0  0  0  0
    9.6376    0.5925    4.7102 C   0  0  0  0  0  0  0  0  0  0  0  0
    9.7794    0.2632    5.9183 O   0  0  0  0  0  0  0  0  0  0  0  0
   10.6726    0.6539    3.7872 O   0  0  0  0  0  0  0  0  0  0  0  0
   10.1684    1.0682    2.5102 C   0  0  0  0  0  0  0  0  0  0  0  0
    8.7020    1.2621    2.7697 C   0  0  0  0  0  0  0  0  0  0  0  0
    7.7085    1.6756    1.8859 C   0  0  0  0  0  0  0  0  0  0  0  0
    6.3860    1.7734    2.3579 C   0  0  0  0  0  0  0  0  0  0  0  0
    6.0703    1.4427    3.7047 C   0  0  0  0  0  0  0  0  0  0  0  0
    4.6896    1.4976    4.2451 C   0  0  0  0  0  0  0  0  0  0  0  0
    3.5772    1.5618    3.4975 C   0  0  0  0  0  0  0  0  0  0  0  0
    2.2443    1.4510    4.1358 C   0  0  0  0  0  0  0  0  0  0  0  0
    1.8773    2.3084    5.1912 C   0  0  0  0  0  0  0  0  0  0  0  0
    2.5091    3.4864    5.7539 C   0  0  0  0  0  0  0  0  0  0  0  0
    3.5742    4.0248    5.3540 O   0  0  0  0  0  0  0  0  0  0  0  0
    1.7377    3.9848    6.7936 O   0  0  0  0  0  0  0  0  0  0  0  0
    0.5672    3.1823    6.9669 C   0  0  0  0  0  0  0  0  0  0  0  0
    0.7122    2.1376    5.8985 C   0  0  0  0  0  0  0  0  0  0  0  0
   -0.1492    1.0864    5.6141 C   0  0  0  0  0  0  0  0  0  0  0  0
    0.1619    0.2303    4.5501 C   0  0  0  0  0  0  0  0  0  0  0  0
    1.3233    0.4305    3.7576 C   0  0  0  0  0  0  0  0  0  0  0  0
    1.6295   -0.4652    2.6036 C   0  0  0  0  0  0  0  0  0  0  0  0
    0.7336   -0.9833    1.7444 C   0  0  0  0  0  0  0  0  0  0  0  0
   -0.7301   -0.7871    1.8298 C   0  0  0  0  0  0  0  0  0  0  0  0
   -1.3021    0.4572    1.5337 C   0  0  0  0  0  0  0  0  0  0  0  0
   -0.7238    1.6975    1.0627 C   0  0  0  0  0  0  0  0  0  0  0  0
    0.4857    1.8951    0.7781 O   0  0  0  0  0  0  0  0  0  0  0  0
   -1.7125    2.6660    0.9599 O   0  0  0  0  0  0  0  0  0  0  0  0
   -2.9783    2.1192    1.3432 C   0  0  0  0  0  0  0  0  0  0  0  0
   -2.6447    0.6989    1.6972 C   0  0  0  0  0  0  0  0  0  0  0  0
   -3.4969   -0.2847    2.1918 C   0  0  0  0  0  0  0  0  0  0  0  0
   -2.9648   -1.5488    2.4912 C   0  0  0  0  0  0  0  0  0  0  0  0
   -1.5922   -1.8355    2.2645 C   0  0  0  0  0  0  0  0  0  0  0  0
   -1.0061   -3.1669    2.5933 C   0  0  0  0  0  0  0  0  0  0  0  0
   -1.5985   -4.3697    2.5154 C   0  0  0  0  0  0  0  0  0  0  0  0
   -2.9908   -4.6718    2.1116 C   0  0  0  0  0  0  0  0  0  0  0  0
   -3.7862   -5.4428    2.9742 C   0  0  0  0  0  0  0  0  0  0  0  0
   -3.5518   -5.9370    4.3151 C   0  0  0  0  0  0  0  0  0  0  0  0
   -2.5126   -5.7601    5.0025 O   0  0  0  0  0  0  0  0  0  0  0  0
   -4.6720   -6.6200    4.7673 O   0  0  0  0  0  0  0  0  0  0  0  0
   -5.6886   -6.6187    3.7635 C   0  0  0  0  0  0  0  0  0  0  0  0
   -5.0626   -5.8360    2.6481 C   0  0  0  0  0  0  0  0  0  0  0  0
   -5.6241   -5.4991    1.4234 C   0  0  0  0  0  0  0  0  0  0  0  0
   -4.8704   -4.7248    0.5333 C   0  0  0  0  0  0  0  0  0  0  0  0
   -3.5576   -4.2945    0.8607 C   0  0  0  0  0  0  0  0  0  0  0  0
   -2.8219   -3.4565   -0.1124 C   0  0  0  0  0  0  0  0  0  0  0  0
   -3.4369   -2.4276   -0.7074 C   0  0  0  0  0  0  0  0  0  0  0  0
   -2.7922   -1.5498   -1.6967 C   0  0  0  0  0  0  0  0  0  0  0  0
   -1.4760   -1.9653   -2.6658 S   0  0  0  0  0  0  0  0  0  0  0  0
   -3.3029   -0.3367   -2.1667 C   0  0  0  0  0  0  0  0  0  0  0  0
   -4.4335    0.3245   -1.6715 C   0  0  0  0  0  0  0  0  0  0  0  0
   -4.8938    1.4941   -2.3114 C   0  0  0  0  0  0  0  0  0  0  0  0
   -6.0513    2.1645   -1.8852 O   0  0  0  0  0  0  0  0  0  0  0  0
   -6.8362    1.7958   -0.7550 C   0  0  0  0  0  0  0  0  0  0  0  0
   -4.2002    2.0078   -3.4240 C   0  0  0  0  0  0  0  0  0  0  0  0
   -4.7062    3.1619   -4.0425 O   0  0  0  0  0  0  0  0  0  0  0  0
   -4.1450    3.7714   -5.2004 C   0  0  0  0  0  0  0  0  0  0  0  0
   -3.0404    1.3576   -3.8930 C   0  0  0  0  0  0  0  0  0  0  0  0
   -2.5989    0.1863   -3.2640 C   0  0  0  0  0  0  0  0  0  0  0  0
   -1.5284   -0.6115   -3.6773 C   0  0  0  0  0  0  0  0  0  0  0  0
   -0.6918   -0.3874   -4.8726 C   0  0  0  0  0  0  0  0  0  0  0  0
   -0.1159   -1.3899   -5.5402 C   0  0  0  0  0  0  0  0  0  0  0  0
    0.5057   -1.1375   -6.8515 C   0  0  0  0  0  0  0  0  0  0  0  0
   -0.1832   -1.4996   -8.0162 C   0  0  0  0  0  0  0  0  0  0  0  0
   -1.4671   -2.1387   -8.2131 C   0  0  0  0  0  0  0  0  0  0  0  0
   -2.2360   -2.5596   -7.3089 O   0  0  0  0  0  0  0  0  0  0  0  0
   -1.7434   -2.2257   -9.5690 O   0  0  0  0  0  0  0  0  0  0  0  0
   -0.6808   -1.6414  -10.3258 C   0  0  0  0  0  0  0  0  0  0  0  0
    0.2902   -1.2045   -9.2687 C   0  0  0  0  0  0  0  0  0  0  0  0
    1.4941   -0.5310   -9.4380 C   0  0  0  0  0  0  0  0  0  0  0  0
    2.2348   -0.1799   -8.2993 C   0  0  0  0  0  0  0  0  0  0  0  0
    1.7639   -0.4877   -6.9938 C   0  0  0  0  0  0  0  0  0  0  0  0
    2.5625   -0.1262   -5.7910 C   0  0  0  0  0  0  0  0  0  0  0  0
    3.8896    0.0251   -5.8040 C   0  0  0  0  0  0  0  0  0  0  0  0
    6.9145    0.8041    5.6155 H   0  0  0  0  0  0  0  0  0  0  0  0
   10.6438    2.0195    2.1969 H   0  0  0  0  0  0  0  0  0  0  0  0
   10.3324    0.2707    1.7557 H   0  0  0  0  0  0  0  0  0  0  0  0
    7.9466    1.9164    0.8584 H   0  0  0  0  0  0  0  0  0  0  0  0
    5.6247    2.1166    1.6732 H   0  0  0  0  0  0  0  0  0  0  0  0
    4.5783    1.4014    5.3215 H   0  0  0  0  0  0  0  0  0  0  0  0
    3.6272    1.5383    2.4198 H   0  0  0  0  0  0  0  0  0  0  0  0
    0.5655    2.7176    7.9748 H   0  0  0  0  0  0  0  0  0  0  0  0
   -0.3473    3.7953    6.7988 H   0  0  0  0  0  0  0  0  0  0  0  0
   -1.0419    0.9311    6.2012 H   0  0  0  0  0  0  0  0  0  0  0  0
   -0.4901   -0.6116    4.3807 H   0  0  0  0  0  0  0  0  0  0  0  0
    2.6705   -0.6919    2.4067 H   0  0  0  0  0  0  0  0  0  0  0  0
    1.0954   -1.6404    0.9633 H   0  0  0  0  0  0  0  0  0  0  0  0
   -3.6834    2.1572    0.4908 H   0  0  0  0  0  0  0  0  0  0  0  0
   -3.3852    2.6644    2.2234 H   0  0  0  0  0  0  0  0  0  0  0  0
   -4.5470   -0.0739    2.3495 H   0  0  0  0  0  0  0  0  0  0  0  0
   -3.6222   -2.2887    2.9254 H   0  0  0  0  0  0  0  0  0  0  0  0
    0.0286   -3.1836    2.9098 H   0  0  0  0  0  0  0  0  0  0  0  0
   -1.0138   -5.2190    2.8475 H   0  0  0  0  0  0  0  0  0  0  0  0
   -5.9110   -7.6565    3.4370 H   0  0  0  0  0  0  0  0  0  0  0  0
   -6.6021   -6.1089    4.1367 H   0  0  0  0  0  0  0  0  0  0  0  0
   -6.6275   -5.8162    1.1682 H   0  0  0  0  0  0  0  0  0  0  0  0
   -5.3108   -4.4706   -0.4236 H   0  0  0  0  0  0  0  0  0  0  0  0
   -1.7674   -3.6336   -0.2800 H   0  0  0  0  0  0  0  0  0  0  0  0
   -4.4612   -2.2146   -0.4413 H   0  0  0  0  0  0  0  0  0  0  0  0
   -4.9607   -0.0649   -0.8122 H   0  0  0  0  0  0  0  0  0  0  0  0
   -7.2012    0.7545   -0.8668 H   0  0  0  0  0  0  0  0  0  0  0  0
   -6.2332    1.8935    0.1708 H   0  0  0  0  0  0  0  0  0  0  0  0
   -7.7124    2.4724   -0.6873 H   0  0  0  0  0  0  0  0  0  0  0  0
   -4.7731    4.6342   -5.4954 H   0  0  0  0  0  0  0  0  0  0  0  0
   -4.1298    3.0445   -6.0409 H   0  0  0  0  0  0  0  0  0  0  0  0
   -3.1179    4.1282   -4.9863 H   0  0  0  0  0  0  0  0  0  0  0  0
   -2.5148    1.7410   -4.7542 H   0  0  0  0  0  0  0  0  0  0  0  0
   -0.6259    0.6139   -5.2807 H   0  0  0  0  0  0  0  0  0  0  0  0
   -0.2388   -2.4162   -5.2144 H   0  0  0  0  0  0  0  0  0  0  0  0
   -1.0528   -0.7695  -10.9046 H   0  0  0  0  0  0  0  0  0  0  0  0
   -0.2254   -2.3986  -10.9988 H   0  0  0  0  0  0  0  0  0  0  0  0
    1.8499   -0.2771  -10.4290 H   0  0  0  0  0  0  0  0  0  0  0  0
    3.1602    0.3593   -8.4446 H   0  0  0  0  0  0  0  0  0  0  0  0
    2.0673   -0.0360   -4.8335 H   0  0  0  0  0  0  0  0  0  0  0  0
    4.4096    0.2593   -4.8853 H   0  0  0  0  0  0  0  0  0  0  0  0
    4.4804   -0.1193   -6.6966 H   0  0  0  0  0  0  0  0  0  0  0  0
  1  2  2  0
  2  3  1  0
  3  4  2  0
  3  5  1  0
  5  6  1  0
  6  7  1  0
  7  8  2  0
  8  9  1  0
  9 10  2  0
 10 11  1  0
 11 12  2  3
 12 13  1  0
 13 14  2  0
 14 15  1  0
 15 16  2  0
 15 17  1  0
 17 18  1  0
 18 19  1  0
 19 20  2  0
 20 21  1  0
 21 22  2  0
 22 23  1  0
 23 24  2  3
 24 25  1  0
 25 26  2  0
 26 27  1  0
 27 28  2  0
 27 29  1  0
 29 30  1  0
 30 31  1  0
 31 32  2  0
 32 33  1  0
 33 34  2  0
 34 35  1  0
 35 36  2  3
 36 37  1  0
 37 38  2  0
 38 39  1  0
 39 40  2  0
 39 41  1  0
 41 42  1  0
 42 43  1  0
 43 44  2  0
 44 45  1  0
 45 46  2  0
 46 47  1  0
 47 48  2  3
 48 49  1  0
 49 50  1  0
 49 51  2  0
 51 52  1  0
 52 53  2  0
 53 54  1  0
 54 55  1  0
 53 56  1  0
 56 57  1  0
 57 58  1  0
 56 59  2  0
 59 60  1  0
 60 61  2  0
 61 62  1  0
 62 63  2  3
 63 64  1  0
 64 65  2  0
 65 66  1  0
 66 67  2  0
 66 68  1  0
 68 69  1  0
 69 70  1  0
 70 71  2  0
 71 72  1  0
 72 73  2  0
 73 74  1  0
 74 75  2  3
 10  1  1  0
 22 13  1  0
 34 25  1  0
 46 37  1  0
 61 50  1  0
 73 64  1  0
  7  2  1  0
 19 14  1  0
 31 26  1  0
 43 38  1  0
 60 51  1  0
 70 65  1  0
  1 76  1  0
  6 77  1  0
  6 78  1  0
  8 79  1  0
  9 80  1  0
 11 81  1  0
 12 82  1  0
 18 83  1  0
 18 84  1  0
 20 85  1  0
 21 86  1  0
 23 87  1  0
 24 88  1  0
 30 89  1  0
 30 90  1  0
 32 91  1  0
 33 92  1  0
 35 93  1  0
 36 94  1  0
 42 95  1  0
 42 96  1  0
 44 97  1  0
 45 98  1  0
 47 99  1  0
 48100  1  0
 52101  1  0
 55102  1  0
 55103  1  0
 55104  1  0
 58105  1  0
 58106  1  0
 58107  1  0
 59108  1  0
 62109  1  0
 63110  1  0
 69111  1  0
 69112  1  0
 71113  1  0
 72114  1  0
 74115  1  0
 75116  1  0
 75117  1  0
M  END

