
     RDKit          3D

100107  0  0  0  0  0  0  0  0999 V2000
    2.0966   -0.9539    6.0183 C   0  0  0  0  0  0  0  0  0  0  0  0
    0.8243   -1.0281    5.7001 O   0  0  0  0  0  0  0  0  0  0  0  0
    0.6755   -0.6595    4.4442 C   0  0  0  0  0  0  0  0  0  0  0  0
    1.9021   -0.3292    3.9023 C   0  0  0  0  0  0  0  0  0  0  0  0
    2.8094   -0.5177    4.9207 C   0  0  0  0  0  0  0  0  0  0  0  0
    4.5887   -0.3656    4.8131 S   0  0  0  0  0  0  0  0  0  0  0  0
    4.5545    1.4275    4.7509 C   0  0  0  0  0  0  0  0  0  0  0  0
    4.5066    2.1359    3.6151 C   0  0  0  0  0  0  0  0  0  0  0  0
    4.5128    1.5529    2.2538 C   0  0  0  0  0  0  0  0  0  0  0  0
    5.3927    0.2063    1.7309 S   0  0  0  0  0  0  0  0  0  0  0  0
    3.8059    2.0432    1.1500 C   0  0  0  0  0  0  0  0  0  0  0  0
    2.9692    3.1643    1.1380 C   0  0  0  0  0  0  0  0  0  0  0  0
    2.3252    3.5441   -0.0617 C   0  0  0  0  0  0  0  0  0  0  0  0
    1.4873    4.6680   -0.1290 O   0  0  0  0  0  0  0  0  0  0  0  0
    1.1967    5.5355    0.9628 C   0  0  0  0  0  0  0  0  0  0  0  0
    2.5113    2.7841   -1.2341 C   0  0  0  0  0  0  0  0  0  0  0  0
    1.8449    3.1833   -2.4041 O   0  0  0  0  0  0  0  0  0  0  0  0
    1.7181    2.3792   -3.5694 C   0  0  0  0  0  0  0  0  0  0  0  0
    3.3539    1.6550   -1.2107 C   0  0  0  0  0  0  0  0  0  0  0  0
    3.9931    1.2902   -0.0211 C   0  0  0  0  0  0  0  0  0  0  0  0
    4.8471    0.2003    0.1428 C   0  0  0  0  0  0  0  0  0  0  0  0
    5.1749   -0.8410   -0.8461 C   0  0  0  0  0  0  0  0  0  0  0  0
    4.2440   -1.5707   -1.4764 C   0  0  0  0  0  0  0  0  0  0  0  0
    2.8104   -1.5507   -1.1165 C   0  0  0  0  0  0  0  0  0  0  0  0
    2.1954   -1.5998    0.4519 S   0  0  0  0  0  0  0  0  0  0  0  0
    1.7278   -1.5310   -1.9937 C   0  0  0  0  0  0  0  0  0  0  0  0
    1.8099   -1.5048   -3.3877 C   0  0  0  0  0  0  0  0  0  0  0  0
    0.6203   -1.5142   -4.1509 C   0  0  0  0  0  0  0  0  0  0  0  0
    0.6428   -1.4810   -5.5533 O   0  0  0  0  0  0  0  0  0  0  0  0
    1.8157   -1.3087   -6.3408 C   0  0  0  0  0  0  0  0  0  0  0  0
   -0.6351   -1.5507   -3.5081 C   0  0  0  0  0  0  0  0  0  0  0  0
   -1.7907   -1.5654   -4.3049 O   0  0  0  0  0  0  0  0  0  0  0  0
   -3.1156   -1.5411   -3.7896 C   0  0  0  0  0  0  0  0  0  0  0  0
   -0.7019   -1.5554   -2.0981 C   0  0  0  0  0  0  0  0  0  0  0  0
    0.4771   -1.5245   -1.3484 C   0  0  0  0  0  0  0  0  0  0  0  0
    0.5687   -1.5238    0.0443 C   0  0  0  0  0  0  0  0  0  0  0  0
   -0.5226   -1.6120    1.0197 C   0  0  0  0  0  0  0  0  0  0  0  0
   -1.5158   -0.7243    1.1509 C   0  0  0  0  0  0  0  0  0  0  0  0
   -1.6029    0.5670    0.4438 C   0  0  0  0  0  0  0  0  0  0  0  0
   -0.6816    1.0625   -0.3497 O   0  0  0  0  0  0  0  0  0  0  0  0
   -1.0816    2.2388   -0.7832 C   0  0  0  0  0  0  0  0  0  0  0  0
   -2.3145    2.5438   -0.2441 C   0  0  0  0  0  0  0  0  0  0  0  0
   -2.6499    1.4628    0.5404 C   0  0  0  0  0  0  0  0  0  0  0  0
   -4.1737    1.2698    1.4644 S   0  0  0  0  0  0  0  0  0  0  0  0
   -5.0386    0.6545    0.0233 C   0  0  0  0  0  0  0  0  0  0  0  0
   -5.2588   -0.6491   -0.1437 C   0  0  0  0  0  0  0  0  0  0  0  0
   -5.8578   -1.1653   -1.3834 C   0  0  0  0  0  0  0  0  0  0  0  0
   -6.0249   -0.4533   -2.4726 O   0  0  0  0  0  0  0  0  0  0  0  0
   -6.5494   -1.2170   -3.4047 C   0  0  0  0  0  0  0  0  0  0  0  0
   -6.7369   -2.4903   -2.9142 C   0  0  0  0  0  0  0  0  0  0  0  0
   -6.2946   -2.4548   -1.6116 C   0  0  0  0  0  0  0  0  0  0  0  0
   -6.4181   -3.8087   -0.4425 S   0  0  0  0  0  0  0  0  0  0  0  0
   -4.6889   -4.2425   -0.5830 C   0  0  0  0  0  0  0  0  0  0  0  0
   -3.9055   -4.1753    0.4907 C   0  0  0  0  0  0  0  0  0  0  0  0
   -2.4911   -4.5575    0.4358 C   0  0  0  0  0  0  0  0  0  0  0  0
   -1.7563   -4.5296   -0.6517 O   0  0  0  0  0  0  0  0  0  0  0  0
   -0.5416   -4.9345   -0.3516 C   0  0  0  0  0  0  0  0  0  0  0  0
   -0.4728   -5.2521    0.9901 C   0  0  0  0  0  0  0  0  0  0  0  0
   -1.7295   -5.0008    1.4966 C   0  0  0  0  0  0  0  0  0  0  0  0
   -2.2829   -5.3552    3.1655 S   0  0  0  0  0  0  0  0  0  0  0  0
   -1.8776   -3.7211    3.7831 C   0  0  0  0  0  0  0  0  0  0  0  0
   -2.8210   -2.7925    3.9310 C   0  0  0  0  0  0  0  0  0  0  0  0
    2.4995   -1.2165    6.9878 H   0  0  0  0  0  0  0  0  0  0  0  0
   -0.2726   -0.6249    3.9227 H   0  0  0  0  0  0  0  0  0  0  0  0
    2.1058   -0.0004    2.8943 H   0  0  0  0  0  0  0  0  0  0  0  0
    4.5350    1.9559    5.6924 H   0  0  0  0  0  0  0  0  0  0  0  0
    4.4118    3.2103    3.7045 H   0  0  0  0  0  0  0  0  0  0  0  0
    2.8132    3.7267    2.0463 H   0  0  0  0  0  0  0  0  0  0  0  0
    0.6933    4.9694    1.7748 H   0  0  0  0  0  0  0  0  0  0  0  0
    0.5117    6.3340    0.6109 H   0  0  0  0  0  0  0  0  0  0  0  0
    2.1300    6.0081    1.3413 H   0  0  0  0  0  0  0  0  0  0  0  0
    1.2375    1.4113   -3.3141 H   0  0  0  0  0  0  0  0  0  0  0  0
    2.7119    2.2028   -4.0315 H   0  0  0  0  0  0  0  0  0  0  0  0
    1.0772    2.9067   -4.3072 H   0  0  0  0  0  0  0  0  0  0  0  0
    3.5174    1.0762   -2.1051 H   0  0  0  0  0  0  0  0  0  0  0  0
    6.2181   -1.0011   -1.0924 H   0  0  0  0  0  0  0  0  0  0  0  0
    4.5562   -2.2210   -2.2830 H   0  0  0  0  0  0  0  0  0  0  0  0
    2.7838   -1.4710   -3.8677 H   0  0  0  0  0  0  0  0  0  0  0  0
    1.5270   -1.2983   -7.4145 H   0  0  0  0  0  0  0  0  0  0  0  0
    2.3030   -0.3398   -6.0940 H   0  0  0  0  0  0  0  0  0  0  0  0
    2.5274   -2.1482   -6.1695 H   0  0  0  0  0  0  0  0  0  0  0  0
   -3.2725   -0.6168   -3.1970 H   0  0  0  0  0  0  0  0  0  0  0  0
   -3.3021   -2.4360   -3.1601 H   0  0  0  0  0  0  0  0  0  0  0  0
   -3.8299   -1.5485   -4.6328 H   0  0  0  0  0  0  0  0  0  0  0  0
   -1.6535   -1.5691   -1.5941 H   0  0  0  0  0  0  0  0  0  0  0  0
   -0.4820   -2.4389    1.7082 H   0  0  0  0  0  0  0  0  0  0  0  0
   -2.2772   -0.9333    1.8842 H   0  0  0  0  0  0  0  0  0  0  0  0
   -0.5246    2.8658   -1.4658 H   0  0  0  0  0  0  0  0  0  0  0  0
   -2.9014    3.4395   -0.4188 H   0  0  0  0  0  0  0  0  0  0  0  0
   -5.3513    1.3724   -0.7236 H   0  0  0  0  0  0  0  0  0  0  0  0
   -4.9624   -1.3451    0.6300 H   0  0  0  0  0  0  0  0  0  0  0  0
   -6.7888   -0.8787   -4.4007 H   0  0  0  0  0  0  0  0  0  0  0  0
   -7.1709   -3.3335   -3.4336 H   0  0  0  0  0  0  0  0  0  0  0  0
   -4.3136   -4.6208   -1.5246 H   0  0  0  0  0  0  0  0  0  0  0  0
   -4.3271   -3.8871    1.4434 H   0  0  0  0  0  0  0  0  0  0  0  0
    0.2708   -5.0078   -1.0636 H   0  0  0  0  0  0  0  0  0  0  0  0
    0.3835   -5.6351    1.5261 H   0  0  0  0  0  0  0  0  0  0  0  0
   -0.8513   -3.4933    4.0440 H   0  0  0  0  0  0  0  0  0  0  0  0
   -2.5562   -1.8060    4.2966 H   0  0  0  0  0  0  0  0  0  0  0  0
   -3.8611   -3.0121    3.7128 H   0  0  0  0  0  0  0  0  0  0  0  0
  1  2  1  0
  2  3  1  0
  3  4  2  0
  4  5  1  0
  5  6  1  0
  6  7  1  0
  7  8  2  3
  8  9  1  0
  9 10  1  0
  9 11  2  0
 11 12  1  0
 12 13  2  0
 13 14  1  0
 14 15  1  0
 13 16  1  0
 16 17  1  0
 17 18  1  0
 16 19  2  0
 19 20  1  0
 20 21  2  0
 21 22  1  0
 22 23  2  3
 23 24  1  0
 24 25  1  0
 24 26  2  0
 26 27  1  0
 27 28  2  0
 28 29  1  0
 29 30  1  0
 28 31  1  0
 31 32  1  0
 32 33  1  0
 31 34  2  0
 34 35  1  0
 35 36  2  0
 36 37  1  0
 37 38  2  3
 38 39  1  0
 39 40  1  0
 40 41  1  0
 41 42  2  0
 42 43  1  0
 43 44  1  0
 44 45  1  0
 45 46  2  3
 46 47  1  0
 47 48  1  0
 48 49  1  0
 49 50  2  0
 50 51  1  0
 51 52  1  0
 52 53  1  0
 53 54  2  3
 54 55  1  0
 55 56  1  0
 56 57  1  0
 57 58  2  0
 58 59  1  0
 59 60  1  0
 60 61  1  0
 61 62  2  3
  5  1  2  0
 21 10  1  0
 36 25  1  0
 43 39  2  0
 51 47  2  0
 59 55  2  0
 20 11  1  0
 35 26  1  0
  1 63  1  0
  3 64  1  0
  4 65  1  0
  7 66  1  0
  8 67  1  0
 12 68  1  0
 15 69  1  0
 15 70  1  0
 15 71  1  0
 18 72  1  0
 18 73  1  0
 18 74  1  0
 19 75  1  0
 22 76  1  0
 23 77  1  0
 27 78  1  0
 30 79  1  0
 30 80  1  0
 30 81  1  0
 33 82  1  0
 33 83  1  0
 33 84  1  0
 34 85  1  0
 37 86  1  0
 38 87  1  0
 41 88  1  0
 42 89  1  0
 45 90  1  0
 46 91  1  0
 49 92  1  0
 50 93  1  0
 53 94  1  0
 54 95  1  0
 57 96  1  0
 58 97  1  0
 61 98  1  0
 62 99  1  0
 62100  1  0
M  END

