
     RDKit          3D

177191  0  0  0  0  0  0  0  0999 V2000
    4.9282    1.9168   -0.5801 C   0  0  0  0  0  0  0  0  0  0  0  0
    4.0041    0.7440    0.1922 S   0  0  0  0  0  0  0  0  0  0  0  0
    6.2007    1.3919   -0.7573 C   0  0  0  0  0  0  0  0  0  0  0  0
    7.2528    2.0628   -1.3794 C   0  0  0  0  0  0  0  0  0  0  0  0
    8.4980    1.4121   -1.5219 C   0  0  0  0  0  0  0  0  0  0  0  0
    9.5947    2.0357   -2.1394 O   0  0  0  0  0  0  0  0  0  0  0  0
    9.5849    3.3609   -2.6589 C   0  0  0  0  0  0  0  0  0  0  0  0
    8.6651    0.0954   -1.0398 C   0  0  0  0  0  0  0  0  0  0  0  0
    9.9208   -0.5117   -1.2065 O   0  0  0  0  0  0  0  0  0  0  0  0
   10.2138   -1.8653   -0.8845 C   0  0  0  0  0  0  0  0  0  0  0  0
    7.5893   -0.5699   -0.4060 C   0  0  0  0  0  0  0  0  0  0  0  0
    6.3663    0.0891   -0.2577 C   0  0  0  0  0  0  0  0  0  0  0  0
    5.2050   -0.4355    0.3166 C   0  0  0  0  0  0  0  0  0  0  0  0
    5.0404   -1.7477    0.9690 C   0  0  0  0  0  0  0  0  0  0  0  0
    3.8364   -2.3257    1.0615 C   0  0  0  0  0  0  0  0  0  0  0  0
    3.6293   -3.6189    1.7367 C   0  0  0  0  0  0  0  0  0  0  0  0
    4.4811   -4.1778    3.0866 S   0  0  0  0  0  0  0  0  0  0  0  0
    2.6027   -4.5249    1.4690 C   0  0  0  0  0  0  0  0  0  0  0  0
    1.6548   -4.4189    0.4445 C   0  0  0  0  0  0  0  0  0  0  0  0
    0.6851   -5.4301    0.2864 C   0  0  0  0  0  0  0  0  0  0  0  0
   -0.2964   -5.3686   -0.7191 O   0  0  0  0  0  0  0  0  0  0  0  0
   -0.4335   -4.3005   -1.6560 C   0  0  0  0  0  0  0  0  0  0  0  0
    0.6813   -6.5436    1.1515 C   0  0  0  0  0  0  0  0  0  0  0  0
   -0.2918   -7.5356    0.9475 O   0  0  0  0  0  0  0  0  0  0  0  0
   -0.3594   -8.7601    1.6716 C   0  0  0  0  0  0  0  0  0  0  0  0
    1.6311   -6.6370    2.1883 C   0  0  0  0  0  0  0  0  0  0  0  0
    2.5803   -5.6208    2.3428 C   0  0  0  0  0  0  0  0  0  0  0  0
    3.5653   -5.5737    3.3304 C   0  0  0  0  0  0  0  0  0  0  0  0
    3.6251   -6.4110    4.5452 C   0  0  0  0  0  0  0  0  0  0  0  0
    2.7763   -6.2394    5.5729 C   0  0  0  0  0  0  0  0  0  0  0  0
    1.7846   -5.1528    5.5801 C   0  0  0  0  0  0  0  0  0  0  0  0
    2.1388   -3.8076    5.5748 C   0  0  0  0  0  0  0  0  0  0  0  0
    1.1664   -2.9793    4.9981 C   0  0  0  0  0  0  0  0  0  0  0  0
    1.3493   -1.6255    4.6488 C   0  0  0  0  0  0  0  0  0  0  0  0
    2.5667   -0.8788    5.0566 C   0  0  0  0  0  0  0  0  0  0  0  0
    2.9149   -0.7882    6.4151 C   0  0  0  0  0  0  0  0  0  0  0  0
    4.0848   -0.1301    6.8014 C   0  0  0  0  0  0  0  0  0  0  0  0
    4.9213    0.4466    5.8357 C   0  0  0  0  0  0  0  0  0  0  0  0
    6.4223    1.2854    6.3539 S   0  0  0  0  0  0  0  0  0  0  0  0
    7.5182   -0.1452    6.0264 C   0  0  0  0  0  0  0  0  0  0  0  0
    7.4721   -1.1518    7.1700 C   0  0  0  0  0  0  0  0  0  0  0  0
    4.5682    0.3853    4.4817 C   0  0  0  0  0  0  0  0  0  0  0  0
    5.3612    0.9476    3.5391 F   0  0  0  0  0  0  0  0  0  0  0  0
    3.4086   -0.2955    4.0942 C   0  0  0  0  0  0  0  0  0  0  0  0
    0.3868   -1.0681    3.7846 C   0  0  0  0  0  0  0  0  0  0  0  0
   -0.7095   -1.7867    3.3056 C   0  0  0  0  0  0  0  0  0  0  0  0
   -0.9358   -3.1157    3.7299 C   0  0  0  0  0  0  0  0  0  0  0  0
   -2.0502   -3.9450    3.2074 C   0  0  0  0  0  0  0  0  0  0  0  0
   -2.2014   -4.1643    1.8272 C   0  0  0  0  0  0  0  0  0  0  0  0
   -3.2688   -4.9224    1.3427 C   0  0  0  0  0  0  0  0  0  0  0  0
   -4.1699   -5.5133    2.2347 C   0  0  0  0  0  0  0  0  0  0  0  0
   -5.5564   -6.4696    1.6112 S   0  0  0  0  0  0  0  0  0  0  0  0
   -4.5808   -7.9646    1.2150 C   0  0  0  0  0  0  0  0  0  0  0  0
   -4.0465   -8.6549    2.4715 C   0  0  0  0  0  0  0  0  0  0  0  0
   -4.0084   -5.3225    3.6166 C   0  0  0  0  0  0  0  0  0  0  0  0
   -2.9540   -4.5431    4.0986 C   0  0  0  0  0  0  0  0  0  0  0  0
   -4.8841   -5.8804    4.4957 F   0  0  0  0  0  0  0  0  0  0  0  0
    0.0318   -3.6819    4.5753 C   0  0  0  0  0  0  0  0  0  0  0  0
    0.2461   -5.3161    4.9128 S   0  0  0  0  0  0  0  0  0  0  0  0
   -1.3966   -1.1222    2.2755 C   0  0  0  0  0  0  0  0  0  0  0  0
   -0.8110    0.0899    1.8889 C   0  0  0  0  0  0  0  0  0  0  0  0
    0.4822    0.3775    2.9387 S   0  0  0  0  0  0  0  0  0  0  0  0
   -0.8281    0.6443    0.5116 C   0  0  0  0  0  0  0  0  0  0  0  0
    0.5216    1.4458   -0.1121 S   0  0  0  0  0  0  0  0  0  0  0  0
   -1.5341    0.1460   -0.5968 C   0  0  0  0  0  0  0  0  0  0  0  0
   -2.7815   -0.4901   -0.5710 C   0  0  0  0  0  0  0  0  0  0  0  0
   -3.3079   -1.0553   -1.7509 C   0  0  0  0  0  0  0  0  0  0  0  0
   -4.5514   -1.7142   -1.7642 O   0  0  0  0  0  0  0  0  0  0  0  0
   -5.4744   -1.7063   -0.6862 C   0  0  0  0  0  0  0  0  0  0  0  0
   -2.5813   -0.9696   -2.9553 C   0  0  0  0  0  0  0  0  0  0  0  0
   -3.1120   -1.5885   -4.0989 O   0  0  0  0  0  0  0  0  0  0  0  0
   -2.4884   -1.5928   -5.3784 C   0  0  0  0  0  0  0  0  0  0  0  0
   -1.3635   -0.2607   -2.9923 C   0  0  0  0  0  0  0  0  0  0  0  0
   -0.8805    0.3472   -1.8299 C   0  0  0  0  0  0  0  0  0  0  0  0
    0.2691    1.1381   -1.7355 C   0  0  0  0  0  0  0  0  0  0  0  0
    1.2068    1.5542   -2.7965 C   0  0  0  0  0  0  0  0  0  0  0  0
    0.8616    2.0959   -3.9738 C   0  0  0  0  0  0  0  0  0  0  0  0
   -0.5141    2.4576   -4.3677 C   0  0  0  0  0  0  0  0  0  0  0  0
   -1.7078    3.0651   -3.3506 S   0  0  0  0  0  0  0  0  0  0  0  0
   -1.0591    2.3548   -5.6456 C   0  0  0  0  0  0  0  0  0  0  0  0
   -0.3827    1.8993   -6.7799 C   0  0  0  0  0  0  0  0  0  0  0  0
   -1.0563    1.8474   -8.0184 C   0  0  0  0  0  0  0  0  0  0  0  0
   -0.4098    1.4298   -9.1953 O   0  0  0  0  0  0  0  0  0  0  0  0
    0.9644    1.0628   -9.2724 C   0  0  0  0  0  0  0  0  0  0  0  0
   -2.4154    2.2235   -8.1001 C   0  0  0  0  0  0  0  0  0  0  0  0
   -3.0416    2.1681   -9.3521 O   0  0  0  0  0  0  0  0  0  0  0  0
   -4.3892    2.5536   -9.6004 C   0  0  0  0  0  0  0  0  0  0  0  0
   -3.1015    2.6504   -6.9399 C   0  0  0  0  0  0  0  0  0  0  0  0
   -2.4180    2.7220   -5.7191 C   0  0  0  0  0  0  0  0  0  0  0  0
   -2.9534    3.1296   -4.4918 C   0  0  0  0  0  0  0  0  0  0  0  0
   -4.3300    3.5940   -4.2146 C   0  0  0  0  0  0  0  0  0  0  0  0
   -4.7638    3.7457   -2.9545 C   0  0  0  0  0  0  0  0  0  0  0  0
   -6.0327    4.4167   -2.6220 C   0  0  0  0  0  0  0  0  0  0  0  0
   -7.4424    4.4145   -3.5460 S   0  0  0  0  0  0  0  0  0  0  0  0
   -6.2602    5.2035   -1.4901 C   0  0  0  0  0  0  0  0  0  0  0  0
   -5.3083    5.5181   -0.5106 C   0  0  0  0  0  0  0  0  0  0  0  0
   -5.6319    6.4300    0.5126 C   0  0  0  0  0  0  0  0  0  0  0  0
   -4.7014    6.7902    1.5021 O   0  0  0  0  0  0  0  0  0  0  0  0
   -3.3873    6.2503    1.6071 C   0  0  0  0  0  0  0  0  0  0  0  0
   -6.9087    7.0260    0.5467 C   0  0  0  0  0  0  0  0  0  0  0  0
   -7.1762    7.9506    1.5672 O   0  0  0  0  0  0  0  0  0  0  0  0
   -8.4126    8.6441    1.7245 C   0  0  0  0  0  0  0  0  0  0  0  0
   -7.8705    6.6966   -0.4376 C   0  0  0  0  0  0  0  0  0  0  0  0
   -7.5495    5.7681   -1.4405 C   0  0  0  0  0  0  0  0  0  0  0  0
   -8.3623    5.3823   -2.5143 C   0  0  0  0  0  0  0  0  0  0  0  0
   -9.7728    5.7222   -2.7739 C   0  0  0  0  0  0  0  0  0  0  0  0
  -10.6863    5.7579   -1.8059 C   0  0  0  0  0  0  0  0  0  0  0  0
    4.5824    2.8934   -0.8994 H   0  0  0  0  0  0  0  0  0  0  0  0
    7.1043    3.0697   -1.7459 H   0  0  0  0  0  0  0  0  0  0  0  0
    8.8408    3.4451   -3.4790 H   0  0  0  0  0  0  0  0  0  0  0  0
    9.3484    4.0871   -1.8519 H   0  0  0  0  0  0  0  0  0  0  0  0
   10.5862    3.6063   -3.0684 H   0  0  0  0  0  0  0  0  0  0  0  0
   11.2744   -2.0801   -1.1282 H   0  0  0  0  0  0  0  0  0  0  0  0
    9.5671   -2.5466   -1.4773 H   0  0  0  0  0  0  0  0  0  0  0  0
   10.0598   -2.0436    0.2010 H   0  0  0  0  0  0  0  0  0  0  0  0
    7.7033   -1.5808   -0.0441 H   0  0  0  0  0  0  0  0  0  0  0  0
    5.9133   -2.2561    1.3597 H   0  0  0  0  0  0  0  0  0  0  0  0
    2.9811   -1.8533    0.5986 H   0  0  0  0  0  0  0  0  0  0  0  0
    1.6767   -3.5737   -0.2286 H   0  0  0  0  0  0  0  0  0  0  0  0
    0.4710   -4.2382   -2.2958 H   0  0  0  0  0  0  0  0  0  0  0  0
   -1.3137   -4.4928   -2.3013 H   0  0  0  0  0  0  0  0  0  0  0  0
   -0.5911   -3.3379   -1.1251 H   0  0  0  0  0  0  0  0  0  0  0  0
    0.5840   -9.3316    1.5382 H   0  0  0  0  0  0  0  0  0  0  0  0
   -1.2001   -9.3688    1.2813 H   0  0  0  0  0  0  0  0  0  0  0  0
   -0.5307   -8.5573    2.7503 H   0  0  0  0  0  0  0  0  0  0  0  0
    1.6252   -7.4769    2.8702 H   0  0  0  0  0  0  0  0  0  0  0  0
    4.3659   -7.1979    4.5937 H   0  0  0  0  0  0  0  0  0  0  0  0
    2.8103   -6.9175    6.4150 H   0  0  0  0  0  0  0  0  0  0  0  0
    3.1343   -3.4713    5.8339 H   0  0  0  0  0  0  0  0  0  0  0  0
    2.2760   -1.2267    7.1716 H   0  0  0  0  0  0  0  0  0  0  0  0
    4.3432   -0.0805    7.8537 H   0  0  0  0  0  0  0  0  0  0  0  0
    8.5601    0.2303    5.9180 H   0  0  0  0  0  0  0  0  0  0  0  0
    7.2333   -0.6411    5.0743 H   0  0  0  0  0  0  0  0  0  0  0  0
    7.6227   -0.6324    8.1416 H   0  0  0  0  0  0  0  0  0  0  0  0
    8.2762   -1.9084    7.0272 H   0  0  0  0  0  0  0  0  0  0  0  0
    6.4930   -1.6794    7.1833 H   0  0  0  0  0  0  0  0  0  0  0  0
    3.1760   -0.3745    3.0399 H   0  0  0  0  0  0  0  0  0  0  0  0
   -1.5014   -3.7325    1.1217 H   0  0  0  0  0  0  0  0  0  0  0  0
   -3.3911   -5.0565    0.2720 H   0  0  0  0  0  0  0  0  0  0  0  0
   -5.2546   -8.6714    0.6805 H   0  0  0  0  0  0  0  0  0  0  0  0
   -3.7399   -7.7114    0.5297 H   0  0  0  0  0  0  0  0  0  0  0  0
   -3.6895   -9.6777    2.2142 H   0  0  0  0  0  0  0  0  0  0  0  0
   -3.1860   -8.0820    2.8899 H   0  0  0  0  0  0  0  0  0  0  0  0
   -4.8426   -8.7299    3.2388 H   0  0  0  0  0  0  0  0  0  0  0  0
   -2.8454   -4.3907    5.1716 H   0  0  0  0  0  0  0  0  0  0  0  0
   -2.1989   -1.5873    1.7450 H   0  0  0  0  0  0  0  0  0  0  0  0
   -3.3650   -0.4959    0.3369 H   0  0  0  0  0  0  0  0  0  0  0  0
   -6.3996   -2.2290   -0.9982 H   0  0  0  0  0  0  0  0  0  0  0  0
   -5.0480   -2.2461    0.1879 H   0  0  0  0  0  0  0  0  0  0  0  0
   -5.7332   -0.6641   -0.4032 H   0  0  0  0  0  0  0  0  0  0  0  0
   -1.4841   -2.0672   -5.3225 H   0  0  0  0  0  0  0  0  0  0  0  0
   -2.3966   -0.5538   -5.7661 H   0  0  0  0  0  0  0  0  0  0  0  0
   -3.1159   -2.1750   -6.0850 H   0  0  0  0  0  0  0  0  0  0  0  0
   -0.7998   -0.1972   -3.9101 H   0  0  0  0  0  0  0  0  0  0  0  0
    2.2619    1.4520   -2.5793 H   0  0  0  0  0  0  0  0  0  0  0  0
    1.6598    2.2935   -4.6830 H   0  0  0  0  0  0  0  0  0  0  0  0
    0.6495    1.5941   -6.7052 H   0  0  0  0  0  0  0  0  0  0  0  0
    1.6046    1.9125   -8.9508 H   0  0  0  0  0  0  0  0  0  0  0  0
    1.2107    0.8101  -10.3231 H   0  0  0  0  0  0  0  0  0  0  0  0
    1.1632    0.1764   -8.6324 H   0  0  0  0  0  0  0  0  0  0  0  0
   -4.5271    3.6290   -9.3566 H   0  0  0  0  0  0  0  0  0  0  0  0
   -4.6203    2.4041  -10.6750 H   0  0  0  0  0  0  0  0  0  0  0  0
   -5.0864    1.9346   -8.9982 H   0  0  0  0  0  0  0  0  0  0  0  0
   -4.1459    2.9229   -6.9874 H   0  0  0  0  0  0  0  0  0  0  0  0
   -4.9682    3.8742   -5.0445 H   0  0  0  0  0  0  0  0  0  0  0  0
   -4.1267    3.4573   -2.1307 H   0  0  0  0  0  0  0  0  0  0  0  0
   -4.3238    5.0853   -0.5590 H   0  0  0  0  0  0  0  0  0  0  0  0
   -2.8694    6.7215    2.4666 H   0  0  0  0  0  0  0  0  0  0  0  0
   -2.8093    6.4668    0.6843 H   0  0  0  0  0  0  0  0  0  0  0  0
   -3.4393    5.1554    1.7812 H   0  0  0  0  0  0  0  0  0  0  0  0
   -9.2399    7.9185    1.8757 H   0  0  0  0  0  0  0  0  0  0  0  0
   -8.3492    9.3033    2.6131 H   0  0  0  0  0  0  0  0  0  0  0  0
   -8.6078    9.2708    0.8280 H   0  0  0  0  0  0  0  0  0  0  0  0
   -8.8314    7.1855   -0.4458 H   0  0  0  0  0  0  0  0  0  0  0  0
  -10.0964    5.8407   -3.8024 H   0  0  0  0  0  0  0  0  0  0  0  0
  -10.4341    5.5459   -0.7742 H   0  0  0  0  0  0  0  0  0  0  0  0
  -11.7216    5.9615   -2.0494 H   0  0  0  0  0  0  0  0  0  0  0  0
  1  2  1  0
  1  3  2  0
  3  4  1  0
  4  5  2  0
  5  6  1  0
  6  7  1  0
  5  8  1  0
  8  9  1  0
  9 10  1  0
  8 11  2  0
 11 12  1  0
 12 13  2  0
 13 14  1  0
 14 15  2  3
 15 16  1  0
 16 17  1  0
 16 18  2  0
 18 19  1  0
 19 20  2  0
 20 21  1  0
 21 22  1  0
 20 23  1  0
 23 24  1  0
 24 25  1  0
 23 26  2  0
 26 27  1  0
 27 28  2  0
 28 29  1  0
 29 30  2  3
 30 31  1  0
 31 32  2  0
 32 33  1  0
 33 34  2  0
 34 35  1  0
 35 36  2  0
 36 37  1  0
 37 38  2  0
 38 39  1  0
 39 40  1  0
 40 41  1  0
 38 42  1  0
 42 43  1  0
 42 44  2  0
 34 45  1  0
 45 46  2  0
 46 47  1  0
 47 48  1  0
 48 49  2  0
 49 50  1  0
 50 51  2  0
 51 52  1  0
 52 53  1  0
 53 54  1  0
 51 55  1  0
 55 56  2  0
 55 57  1  0
 47 58  2  0
 58 59  1  0
 46 60  1  0
 60 61  2  0
 61 62  1  0
 61 63  1  0
 63 64  1  0
 63 65  2  0
 65 66  1  0
 66 67  2  0
 67 68  1  0
 68 69  1  0
 67 70  1  0
 70 71  1  0
 71 72  1  0
 70 73  2  0
 73 74  1  0
 74 75  2  0
 75 76  1  0
 76 77  2  3
 77 78  1  0
 78 79  1  0
 78 80  2  0
 80 81  1  0
 81 82  2  0
 82 83  1  0
 83 84  1  0
 82 85  1  0
 85 86  1  0
 86 87  1  0
 85 88  2  0
 88 89  1  0
 89 90  2  0
 90 91  1  0
 91 92  2  3
 92 93  1  0
 93 94  1  0
 93 95  2  0
 95 96  1  0
 96 97  2  0
 97 98  1  0
 98 99  1  0
 97100  1  0
100101  1  0
101102  1  0
100103  2  0
103104  1  0
104105  2  0
105106  1  0
106107  2  3
 13  2  1  0
 28 17  1  0
 59 31  1  0
 75 64  1  0
 90 79  1  0
105 94  1  0
 12  3  1  0
 27 18  1  0
 58 33  1  0
 74 65  1  0
 89 80  1  0
104 95  1  0
 44 35  1  0
 62 45  1  0
 56 48  1  0
  1108  1  0
  4109  1  0
  7110  1  0
  7111  1  0
  7112  1  0
 10113  1  0
 10114  1  0
 10115  1  0
 11116  1  0
 14117  1  0
 15118  1  0
 19119  1  0
 22120  1  0
 22121  1  0
 22122  1  0
 25123  1  0
 25124  1  0
 25125  1  0
 26126  1  0
 29127  1  0
 30128  1  0
 32129  1  0
 36130  1  0
 37131  1  0
 40132  1  0
 40133  1  0
 41134  1  0
 41135  1  0
 41136  1  0
 44137  1  0
 49138  1  0
 50139  1  0
 53140  1  0
 53141  1  0
 54142  1  0
 54143  1  0
 54144  1  0
 56145  1  0
 60146  1  0
 66147  1  0
 69148  1  0
 69149  1  0
 69150  1  0
 72151  1  0
 72152  1  0
 72153  1  0
 73154  1  0
 76155  1  0
 77156  1  0
 81157  1  0
 84158  1  0
 84159  1  0
 84160  1  0
 87161  1  0
 87162  1  0
 87163  1  0
 88164  1  0
 91165  1  0
 92166  1  0
 96167  1  0
 99168  1  0
 99169  1  0
 99170  1  0
102171  1  0
102172  1  0
102173  1  0
103174  1  0
106175  1  0
107176  1  0
107177  1  0
M  END

