
     RDKit          3D

124139  0  0  0  0  0  0  0  0999 V2000
    1.9921    4.2717    1.6133 C   0  0  0  0  0  0  0  0  0  0  0  0
    1.9818    2.9266    1.5653 C   0  0  0  0  0  0  0  0  0  0  0  0
    3.0099    2.4884    0.6119 C   0  0  0  0  0  0  0  0  0  0  0  0
    3.5847    3.6146    0.1314 C   0  0  0  0  0  0  0  0  0  0  0  0
    4.5282    3.6355   -0.8771 C   0  0  0  0  0  0  0  0  0  0  0  0
    4.9796    4.8937   -1.3145 C   0  0  0  0  0  0  0  0  0  0  0  0
    4.4367    6.0721   -0.7406 C   0  0  0  0  0  0  0  0  0  0  0  0
    3.4436    5.9944    0.2653 C   0  0  0  0  0  0  0  0  0  0  0  0
    3.0402    4.7278    0.6932 C   0  0  0  0  0  0  0  0  0  0  0  0
    4.9352    2.3913   -1.4051 C   0  0  0  0  0  0  0  0  0  0  0  0
    4.3493    1.1950   -0.9096 C   0  0  0  0  0  0  0  0  0  0  0  0
    3.3731    1.2346    0.1109 C   0  0  0  0  0  0  0  0  0  0  0  0
    0.9968    2.0538    2.2201 C   0  0  0  0  0  0  0  0  0  0  0  0
    1.3771    0.7322    3.1950 S   0  0  0  0  0  0  0  0  0  0  0  0
   -0.3909    2.1520    2.1379 C   0  0  0  0  0  0  0  0  0  0  0  0
   -1.1030    3.1319    1.4451 C   0  0  0  0  0  0  0  0  0  0  0  0
   -2.4990    3.0761    1.4121 C   0  0  0  0  0  0  0  0  0  0  0  0
   -3.1762    4.1370    0.8104 O   0  0  0  0  0  0  0  0  0  0  0  0
   -4.0579    4.9802    1.5475 C   0  0  0  0  0  0  0  0  0  0  0  0
   -3.1773    1.9686    1.9987 C   0  0  0  0  0  0  0  0  0  0  0  0
   -4.5203    1.6867    1.7081 O   0  0  0  0  0  0  0  0  0  0  0  0
   -5.0760    1.8934    0.4091 C   0  0  0  0  0  0  0  0  0  0  0  0
   -2.4586    1.0736    2.8108 C   0  0  0  0  0  0  0  0  0  0  0  0
   -1.0670    1.1560    2.8625 C   0  0  0  0  0  0  0  0  0  0  0  0
   -0.2200    0.2647    3.5259 C   0  0  0  0  0  0  0  0  0  0  0  0
   -0.6171   -0.5185    4.7052 C   0  0  0  0  0  0  0  0  0  0  0  0
    0.0107   -1.6248    5.1494 C   0  0  0  0  0  0  0  0  0  0  0  0
    0.8066   -2.5943    4.3638 C   0  0  0  0  0  0  0  0  0  0  0  0
    0.5735   -3.0536    3.0994 C   0  0  0  0  0  0  0  0  0  0  0  0
    1.2782   -4.3363    2.9429 C   0  0  0  0  0  0  0  0  0  0  0  0
    1.8990   -4.5844    4.1222 C   0  0  0  0  0  0  0  0  0  0  0  0
    2.5921   -5.7485    4.4106 C   0  0  0  0  0  0  0  0  0  0  0  0
    3.1681   -5.8568    5.6900 C   0  0  0  0  0  0  0  0  0  0  0  0
    3.0130   -4.7948    6.6187 C   0  0  0  0  0  0  0  0  0  0  0  0
    2.2428   -3.6533    6.2932 C   0  0  0  0  0  0  0  0  0  0  0  0
    1.6903   -3.5762    5.0112 C   0  0  0  0  0  0  0  0  0  0  0  0
    2.6274   -6.7419    3.4099 C   0  0  0  0  0  0  0  0  0  0  0  0
    1.9831   -6.5058    2.1715 C   0  0  0  0  0  0  0  0  0  0  0  0
    1.2948   -5.2942    1.9273 C   0  0  0  0  0  0  0  0  0  0  0  0
   -0.2550   -2.4551    2.0514 C   0  0  0  0  0  0  0  0  0  0  0  0
    0.3705   -1.7906    0.6461 S   0  0  0  0  0  0  0  0  0  0  0  0
   -1.6379   -2.3421    2.0067 C   0  0  0  0  0  0  0  0  0  0  0  0
   -2.5311   -2.7975    2.9806 C   0  0  0  0  0  0  0  0  0  0  0  0
   -3.9141   -2.5869    2.8104 C   0  0  0  0  0  0  0  0  0  0  0  0
   -4.8361   -2.9473    3.8029 O   0  0  0  0  0  0  0  0  0  0  0  0
   -4.4927   -3.5961    5.0238 C   0  0  0  0  0  0  0  0  0  0  0  0
   -4.3891   -1.9720    1.6245 C   0  0  0  0  0  0  0  0  0  0  0  0
   -5.7555   -1.7352    1.4202 O   0  0  0  0  0  0  0  0  0  0  0  0
   -6.7340   -2.7656    1.3926 C   0  0  0  0  0  0  0  0  0  0  0  0
   -3.4835   -1.5201    0.6488 C   0  0  0  0  0  0  0  0  0  0  0  0
   -2.1087   -1.7038    0.8503 C   0  0  0  0  0  0  0  0  0  0  0  0
   -1.0953   -1.3152   -0.0244 C   0  0  0  0  0  0  0  0  0  0  0  0
   -1.2377   -0.4763   -1.2259 C   0  0  0  0  0  0  0  0  0  0  0  0
   -0.3115   -0.4870   -2.1833 C   0  0  0  0  0  0  0  0  0  0  0  0
   -0.3325    0.4604   -3.3137 C   0  0  0  0  0  0  0  0  0  0  0  0
    0.0864    0.1956   -4.5662 C   0  0  0  0  0  0  0  0  0  0  0  0
    0.1432    1.4724   -5.2950 C   0  0  0  0  0  0  0  0  0  0  0  0
   -0.2517    2.4355   -4.4204 C   0  0  0  0  0  0  0  0  0  0  0  0
   -0.3053    3.7884   -4.7224 C   0  0  0  0  0  0  0  0  0  0  0  0
   -0.7111    4.6641   -3.6942 C   0  0  0  0  0  0  0  0  0  0  0  0
   -1.0278    4.1386   -2.4132 C   0  0  0  0  0  0  0  0  0  0  0  0
   -0.9419    2.7517   -2.1587 C   0  0  0  0  0  0  0  0  0  0  0  0
   -0.5624    1.9099   -3.2081 C   0  0  0  0  0  0  0  0  0  0  0  0
    0.0641    4.1754   -6.0244 C   0  0  0  0  0  0  0  0  0  0  0  0
    0.4579    3.1877   -6.9645 C   0  0  0  0  0  0  0  0  0  0  0  0
    0.4995    1.8203   -6.6024 C   0  0  0  0  0  0  0  0  0  0  0  0
    0.3727   -1.1357   -5.1334 C   0  0  0  0  0  0  0  0  0  0  0  0
    1.4021   -1.4367   -5.9411 C   0  0  0  0  0  0  0  0  0  0  0  0
    1.2998   -2.8656   -6.2643 C   0  0  0  0  0  0  0  0  0  0  0  0
    0.1925   -3.3330   -5.6305 C   0  0  0  0  0  0  0  0  0  0  0  0
   -0.2735   -4.6312   -5.7292 C   0  0  0  0  0  0  0  0  0  0  0  0
   -1.4668   -4.9477   -5.0538 C   0  0  0  0  0  0  0  0  0  0  0  0
   -2.1474   -3.9376   -4.3281 C   0  0  0  0  0  0  0  0  0  0  0  0
   -1.6391   -2.6172   -4.2745 C   0  0  0  0  0  0  0  0  0  0  0  0
   -0.4311   -2.3509   -4.9303 C   0  0  0  0  0  0  0  0  0  0  0  0
    0.4682   -5.5261   -6.5226 C   0  0  0  0  0  0  0  0  0  0  0  0
    1.6353   -5.0630   -7.1925 C   0  0  0  0  0  0  0  0  0  0  0  0
    2.0562   -3.7164   -7.0704 C   0  0  0  0  0  0  0  0  0  0  0  0
    1.3248    4.8998    2.1866 H   0  0  0  0  0  0  0  0  0  0  0  0
    5.7212    4.9746   -2.1041 H   0  0  0  0  0  0  0  0  0  0  0  0
    4.7598    7.0430   -1.0936 H   0  0  0  0  0  0  0  0  0  0  0  0
    3.0002    6.8885    0.6787 H   0  0  0  0  0  0  0  0  0  0  0  0
    5.6611    2.3472   -2.2041 H   0  0  0  0  0  0  0  0  0  0  0  0
    4.6441    0.2448   -1.3260 H   0  0  0  0  0  0  0  0  0  0  0  0
    2.9106    0.3287    0.4771 H   0  0  0  0  0  0  0  0  0  0  0  0
   -0.6002    3.9417    0.9443 H   0  0  0  0  0  0  0  0  0  0  0  0
   -3.5973    5.2857    2.5156 H   0  0  0  0  0  0  0  0  0  0  0  0
   -5.0195    4.4698    1.7588 H   0  0  0  0  0  0  0  0  0  0  0  0
   -4.2532    5.9021    0.9476 H   0  0  0  0  0  0  0  0  0  0  0  0
   -4.3016    1.7526   -0.3797 H   0  0  0  0  0  0  0  0  0  0  0  0
   -5.8795    1.1460    0.2386 H   0  0  0  0  0  0  0  0  0  0  0  0
   -5.5378    2.9020    0.2941 H   0  0  0  0  0  0  0  0  0  0  0  0
   -2.9708    0.2487    3.2873 H   0  0  0  0  0  0  0  0  0  0  0  0
   -1.2153    0.0280    5.4208 H   0  0  0  0  0  0  0  0  0  0  0  0
   -0.1270   -1.8616    6.1872 H   0  0  0  0  0  0  0  0  0  0  0  0
    3.7251   -6.7411    5.9698 H   0  0  0  0  0  0  0  0  0  0  0  0
    3.4689   -4.8727    7.6003 H   0  0  0  0  0  0  0  0  0  0  0  0
    2.1133   -2.8534    7.0098 H   0  0  0  0  0  0  0  0  0  0  0  0
    3.1170   -7.6847    3.5891 H   0  0  0  0  0  0  0  0  0  0  0  0
    1.9875   -7.2787    1.4101 H   0  0  0  0  0  0  0  0  0  0  0  0
    0.7549   -5.1359    1.0034 H   0  0  0  0  0  0  0  0  0  0  0  0
   -2.1488   -3.2997    3.8601 H   0  0  0  0  0  0  0  0  0  0  0  0
   -5.4099   -3.7312    5.6330 H   0  0  0  0  0  0  0  0  0  0  0  0
   -4.0557   -4.5937    4.8078 H   0  0  0  0  0  0  0  0  0  0  0  0
   -3.7749   -2.9751    5.5951 H   0  0  0  0  0  0  0  0  0  0  0  0
   -6.6531   -3.3281    0.4447 H   0  0  0  0  0  0  0  0  0  0  0  0
   -7.7443   -2.3056    1.4508 H   0  0  0  0  0  0  0  0  0  0  0  0
   -6.5985   -3.4740    2.2292 H   0  0  0  0  0  0  0  0  0  0  0  0
   -3.8541   -1.0483   -0.2493 H   0  0  0  0  0  0  0  0  0  0  0  0
   -2.0963    0.1759   -1.3127 H   0  0  0  0  0  0  0  0  0  0  0  0
    0.4878   -1.2171   -2.1591 H   0  0  0  0  0  0  0  0  0  0  0  0
   -0.7622    5.7264   -3.8695 H   0  0  0  0  0  0  0  0  0  0  0  0
   -1.3344    4.8128   -1.6182 H   0  0  0  0  0  0  0  0  0  0  0  0
   -1.1765    2.3584   -1.1808 H   0  0  0  0  0  0  0  0  0  0  0  0
    0.0475    5.2167   -6.3101 H   0  0  0  0  0  0  0  0  0  0  0  0
    0.7320    3.4813   -7.9656 H   0  0  0  0  0  0  0  0  0  0  0  0
    0.7900    1.0675   -7.3229 H   0  0  0  0  0  0  0  0  0  0  0  0
    2.1763   -0.7616   -6.2811 H   0  0  0  0  0  0  0  0  0  0  0  0
   -1.8724   -5.9465   -5.0898 H   0  0  0  0  0  0  0  0  0  0  0  0
   -3.0777   -4.1692   -3.8248 H   0  0  0  0  0  0  0  0  0  0  0  0
   -2.1792   -1.8400   -3.7551 H   0  0  0  0  0  0  0  0  0  0  0  0
    0.1540   -6.5563   -6.6381 H   0  0  0  0  0  0  0  0  0  0  0  0
    2.1988   -5.7471   -7.8229 H   0  0  0  0  0  0  0  0  0  0  0  0
    2.9331   -3.3573   -7.5939 H   0  0  0  0  0  0  0  0  0  0  0  0
  1  2  2  0
  2  3  1  0
  3  4  2  0
  4  5  1  0
  5  6  1  0
  6  7  2  0
  7  8  1  0
  8  9  2  0
  5 10  2  0
 10 11  1  0
 11 12  2  0
  2 13  1  0
 13 14  1  0
 13 15  2  0
 15 16  1  0
 16 17  2  0
 17 18  1  0
 18 19  1  0
 17 20  1  0
 20 21  1  0
 21 22  1  0
 20 23  2  0
 23 24  1  0
 24 25  2  0
 25 26  1  0
 26 27  2  3
 27 28  1  0
 28 29  2  0
 29 30  1  0
 30 31  1  0
 31 32  1  0
 32 33  2  0
 33 34  1  0
 34 35  2  0
 35 36  1  0
 32 37  1  0
 37 38  2  0
 38 39  1  0
 29 40  1  0
 40 41  1  0
 40 42  2  0
 42 43  1  0
 43 44  2  0
 44 45  1  0
 45 46  1  0
 44 47  1  0
 47 48  1  0
 48 49  1  0
 47 50  2  0
 50 51  1  0
 51 52  2  0
 52 53  1  0
 53 54  2  3
 54 55  1  0
 55 56  2  0
 56 57  1  0
 57 58  1  0
 58 59  1  0
 59 60  2  0
 60 61  1  0
 61 62  2  0
 62 63  1  0
 59 64  1  0
 64 65  2  0
 65 66  1  0
 56 67  1  0
 67 68  2  0
 68 69  1  0
 69 70  2  0
 70 71  1  0
 71 72  1  0
 72 73  2  0
 73 74  1  0
 74 75  2  0
 71 76  2  0
 76 77  1  0
 77 78  2  0
  9  1  1  0
 25 14  1  0
 36 28  1  0
 52 41  1  0
 63 55  1  0
 75 67  1  0
 12  3  1  0
 24 15  1  0
 39 30  2  0
 51 42  1  0
 66 57  2  0
 78 69  1  0
  9  4  1  0
 36 31  2  0
 63 58  2  0
 75 70  1  0
  1 79  1  0
  6 80  1  0
  7 81  1  0
  8 82  1  0
 10 83  1  0
 11 84  1  0
 12 85  1  0
 16 86  1  0
 19 87  1  0
 19 88  1  0
 19 89  1  0
 22 90  1  0
 22 91  1  0
 22 92  1  0
 23 93  1  0
 26 94  1  0
 27 95  1  0
 33 96  1  0
 34 97  1  0
 35 98  1  0
 37 99  1  0
 38100  1  0
 39101  1  0
 43102  1  0
 46103  1  0
 46104  1  0
 46105  1  0
 49106  1  0
 49107  1  0
 49108  1  0
 50109  1  0
 53110  1  0
 54111  1  0
 60112  1  0
 61113  1  0
 62114  1  0
 64115  1  0
 65116  1  0
 66117  1  0
 68118  1  0
 72119  1  0
 73120  1  0
 74121  1  0
 76122  1  0
 77123  1  0
 78124  1  0
M  END

