
     RDKit          3D

252275  0  0  0  0  0  0  0  0999 V2000
    0.6140    5.7636    9.1598 C   0  0  0  0  0  0  0  0  0  0  0  0
   -0.8416    4.9588    8.8310 S   0  0  0  0  0  0  0  0  0  0  0  0
    1.6611    4.9116    8.7615 C   0  0  0  0  0  0  0  0  0  0  0  0
    3.0183    5.2554    8.7536 C   0  0  0  0  0  0  0  0  0  0  0  0
    3.9106    4.2663    8.3145 C   0  0  0  0  0  0  0  0  0  0  0  0
    5.3401    4.5000    8.4468 O   0  0  0  0  0  0  0  0  0  0  0  0
    5.8146    5.5513    9.2746 C   0  0  0  0  0  0  0  0  0  0  0  0
    3.4679    3.0316    7.8530 C   0  0  0  0  0  0  0  0  0  0  0  0
    4.5858    2.0912    7.9685 O   0  0  0  0  0  0  0  0  0  0  0  0
    5.2247    1.1788    6.9818 C   0  0  0  0  0  0  0  0  0  0  0  0
    2.0930    2.6582    7.8378 C   0  0  0  0  0  0  0  0  0  0  0  0
    1.2198    3.6313    8.2607 C   0  0  0  0  0  0  0  0  0  0  0  0
   -0.1496    3.5361    8.1348 C   0  0  0  0  0  0  0  0  0  0  0  0
   -0.8894    2.5377    7.3626 C   0  0  0  0  0  0  0  0  0  0  0  0
   -2.0398    2.8580    6.7105 C   0  0  0  0  0  0  0  0  0  0  0  0
   -2.7344    2.1144    5.6319 C   0  0  0  0  0  0  0  0  0  0  0  0
   -2.9395    0.7078    5.6527 C   0  0  0  0  0  0  0  0  0  0  0  0
   -3.5504    0.2588    4.4227 C   0  0  0  0  0  0  0  0  0  0  0  0
   -3.8797   -1.0826    4.0612 C   0  0  0  0  0  0  0  0  0  0  0  0
   -3.7593   -2.1253    5.0740 C   0  0  0  0  0  0  0  0  0  0  0  0
   -4.6614   -2.1155    6.1293 C   0  0  0  0  0  0  0  0  0  0  0  0
   -4.5707   -3.1189    7.1033 C   0  0  0  0  0  0  0  0  0  0  0  0
   -3.6554   -4.1823    6.9672 C   0  0  0  0  0  0  0  0  0  0  0  0
   -3.4087   -5.3672    8.3373 S   0  0  0  0  0  0  0  0  0  0  0  0
   -4.7252   -6.6054    7.9124 C   0  0  0  0  0  0  0  0  0  0  0  0
   -6.1207   -6.0560    8.1296 C   0  0  0  0  0  0  0  0  0  0  0  0
   -2.7266   -4.1555    5.8979 C   0  0  0  0  0  0  0  0  0  0  0  0
   -1.8225   -5.1366    5.7762 F   0  0  0  0  0  0  0  0  0  0  0  0
   -2.7894   -3.1572    4.9249 C   0  0  0  0  0  0  0  0  0  0  0  0
   -4.3863   -1.3305    2.7598 C   0  0  0  0  0  0  0  0  0  0  0  0
   -4.6990   -0.2593    1.9291 C   0  0  0  0  0  0  0  0  0  0  0  0
   -4.3464    1.0749    2.2472 C   0  0  0  0  0  0  0  0  0  0  0  0
   -4.3515    2.0815    1.1459 C   0  0  0  0  0  0  0  0  0  0  0  0
   -5.2449    3.1916    1.2874 C   0  0  0  0  0  0  0  0  0  0  0  0
   -5.5086    3.9637    0.1497 C   0  0  0  0  0  0  0  0  0  0  0  0
   -5.1502    3.4815   -1.1352 C   0  0  0  0  0  0  0  0  0  0  0  0
   -5.7293    4.3295   -2.6370 S   0  0  0  0  0  0  0  0  0  0  0  0
   -4.1082    4.3357   -3.5959 C   0  0  0  0  0  0  0  0  0  0  0  0
   -3.1902    5.4546   -3.0558 C   0  0  0  0  0  0  0  0  0  0  0  0
   -4.4401    2.2700   -1.2431 C   0  0  0  0  0  0  0  0  0  0  0  0
   -3.8719    1.7065   -0.1307 C   0  0  0  0  0  0  0  0  0  0  0  0
   -4.4973    1.5552   -2.3875 F   0  0  0  0  0  0  0  0  0  0  0  0
   -3.7533    1.3151    3.5217 C   0  0  0  0  0  0  0  0  0  0  0  0
   -3.1769    2.7518    4.1594 S   0  0  0  0  0  0  0  0  0  0  0  0
   -5.2827   -0.6997    0.6929 C   0  0  0  0  0  0  0  0  0  0  0  0
   -5.2403   -2.0494    0.4619 C   0  0  0  0  0  0  0  0  0  0  0  0
   -4.6303   -2.7880    1.9472 S   0  0  0  0  0  0  0  0  0  0  0  0
   -5.2464   -2.5611   -0.9550 C   0  0  0  0  0  0  0  0  0  0  0  0
   -4.1407   -3.1264   -1.5584 C   0  0  0  0  0  0  0  0  0  0  0  0
   -3.9524   -2.7822   -2.9565 C   0  0  0  0  0  0  0  0  0  0  0  0
   -2.7561   -2.9432   -3.6795 C   0  0  0  0  0  0  0  0  0  0  0  0
   -1.7086   -3.8010   -3.1528 C   0  0  0  0  0  0  0  0  0  0  0  0
   -0.9562   -3.4081   -2.0413 C   0  0  0  0  0  0  0  0  0  0  0  0
    0.0003   -4.2923   -1.5123 C   0  0  0  0  0  0  0  0  0  0  0  0
    0.1577   -5.5838   -2.0916 C   0  0  0  0  0  0  0  0  0  0  0  0
    1.4605   -6.6816   -1.4878 S   0  0  0  0  0  0  0  0  0  0  0  0
    0.4807   -7.7028   -0.2781 C   0  0  0  0  0  0  0  0  0  0  0  0
    0.0639   -6.9064    0.9071 C   0  0  0  0  0  0  0  0  0  0  0  0
   -0.5646   -5.9110   -3.2575 C   0  0  0  0  0  0  0  0  0  0  0  0
   -0.3585   -7.1067   -3.8536 F   0  0  0  0  0  0  0  0  0  0  0  0
   -1.5126   -5.0363   -3.7805 C   0  0  0  0  0  0  0  0  0  0  0  0
   -2.6176   -2.2467   -4.8964 C   0  0  0  0  0  0  0  0  0  0  0  0
   -3.6749   -1.4731   -5.4067 C   0  0  0  0  0  0  0  0  0  0  0  0
   -4.9019   -1.3952   -4.7149 C   0  0  0  0  0  0  0  0  0  0  0  0
   -5.9893   -0.5564   -5.2245 C   0  0  0  0  0  0  0  0  0  0  0  0
   -5.8833    0.8424   -5.1815 C   0  0  0  0  0  0  0  0  0  0  0  0
   -6.9653    1.6147   -5.5920 C   0  0  0  0  0  0  0  0  0  0  0  0
   -8.1240    0.9932   -6.0710 C   0  0  0  0  0  0  0  0  0  0  0  0
   -9.5541    2.0049   -6.4786 S   0  0  0  0  0  0  0  0  0  0  0  0
   -9.2215    2.3069   -8.2710 C   0  0  0  0  0  0  0  0  0  0  0  0
   -7.9235    3.0686   -8.4865 C   0  0  0  0  0  0  0  0  0  0  0  0
   -8.2336   -0.4172   -6.0859 C   0  0  0  0  0  0  0  0  0  0  0  0
   -7.1796   -1.1846   -5.6592 C   0  0  0  0  0  0  0  0  0  0  0  0
   -9.3418   -1.0185   -6.5347 F   0  0  0  0  0  0  0  0  0  0  0  0
   -5.0026   -1.9931   -3.4329 C   0  0  0  0  0  0  0  0  0  0  0  0
   -6.0812   -1.7185   -2.1973 S   0  0  0  0  0  0  0  0  0  0  0  0
   -3.2856   -0.6641   -6.5559 C   0  0  0  0  0  0  0  0  0  0  0  0
   -1.9063   -0.7702   -6.8446 C   0  0  0  0  0  0  0  0  0  0  0  0
   -1.2454   -1.9165   -5.7504 S   0  0  0  0  0  0  0  0  0  0  0  0
   -1.1523    0.2376   -7.6068 C   0  0  0  0  0  0  0  0  0  0  0  0
    0.2181    0.9116   -7.1010 S   0  0  0  0  0  0  0  0  0  0  0  0
   -1.5531    1.0185   -8.7488 C   0  0  0  0  0  0  0  0  0  0  0  0
   -2.7108    0.8481   -9.4946 C   0  0  0  0  0  0  0  0  0  0  0  0
   -3.0039    1.7217  -10.5808 C   0  0  0  0  0  0  0  0  0  0  0  0
   -4.1693    1.5709  -11.3151 O   0  0  0  0  0  0  0  0  0  0  0  0
   -5.1739    0.5929  -10.9774 C   0  0  0  0  0  0  0  0  0  0  0  0
   -2.0925    2.7446  -10.8910 C   0  0  0  0  0  0  0  0  0  0  0  0
   -2.3832    3.6013  -11.9704 O   0  0  0  0  0  0  0  0  0  0  0  0
   -1.5124    4.6490  -12.4255 C   0  0  0  0  0  0  0  0  0  0  0  0
   -0.8897    2.9161  -10.1537 C   0  0  0  0  0  0  0  0  0  0  0  0
   -0.6156    2.0615   -9.1065 C   0  0  0  0  0  0  0  0  0  0  0  0
    0.4525    2.1624   -8.2193 C   0  0  0  0  0  0  0  0  0  0  0  0
    1.4730    3.2502   -8.2310 C   0  0  0  0  0  0  0  0  0  0  0  0
    2.2703    3.5880   -7.2221 C   0  0  0  0  0  0  0  0  0  0  0  0
    2.4212    2.7739   -5.9856 C   0  0  0  0  0  0  0  0  0  0  0  0
    2.2738    3.3163   -4.6823 C   0  0  0  0  0  0  0  0  0  0  0  0
    2.5688    2.3492   -3.6479 C   0  0  0  0  0  0  0  0  0  0  0  0
    2.4655    2.4792   -2.2383 C   0  0  0  0  0  0  0  0  0  0  0  0
    2.1559    3.7754   -1.6753 C   0  0  0  0  0  0  0  0  0  0  0  0
    3.1241    4.7624   -1.6828 C   0  0  0  0  0  0  0  0  0  0  0  0
    2.8769    5.9465   -0.9941 C   0  0  0  0  0  0  0  0  0  0  0  0
    1.6626    6.1678   -0.3382 C   0  0  0  0  0  0  0  0  0  0  0  0
    1.5028    7.8449    0.4649 S   0  0  0  0  0  0  0  0  0  0  0  0
   -0.0513    7.7861    1.4476 C   0  0  0  0  0  0  0  0  0  0  0  0
    0.0268    6.8707    2.6513 C   0  0  0  0  0  0  0  0  0  0  0  0
    0.6596    5.1610   -0.3512 C   0  0  0  0  0  0  0  0  0  0  0  0
   -0.5303    5.3402    0.2582 F   0  0  0  0  0  0  0  0  0  0  0  0
    0.9189    3.9630   -1.0125 C   0  0  0  0  0  0  0  0  0  0  0  0
    2.7623    1.3565   -1.4429 C   0  0  0  0  0  0  0  0  0  0  0  0
    3.2133    0.1660   -2.0222 C   0  0  0  0  0  0  0  0  0  0  0  0
    3.3142    0.0208   -3.4075 C   0  0  0  0  0  0  0  0  0  0  0  0
    4.0107   -1.1375   -3.9823 C   0  0  0  0  0  0  0  0  0  0  0  0
    3.3665   -2.3850   -4.0756 C   0  0  0  0  0  0  0  0  0  0  0  0
    3.9844   -3.4199   -4.8234 C   0  0  0  0  0  0  0  0  0  0  0  0
    5.1815   -3.1227   -5.5683 C   0  0  0  0  0  0  0  0  0  0  0  0
    5.8035   -4.3855   -6.6937 S   0  0  0  0  0  0  0  0  0  0  0  0
    7.6238   -3.8986   -6.8127 C   0  0  0  0  0  0  0  0  0  0  0  0
    8.4311   -5.1105   -7.2258 C   0  0  0  0  0  0  0  0  0  0  0  0
    5.7028   -1.8361   -5.5459 C   0  0  0  0  0  0  0  0  0  0  0  0
    5.1604   -0.8737   -4.7184 C   0  0  0  0  0  0  0  0  0  0  0  0
    6.6780   -1.4428   -6.3970 F   0  0  0  0  0  0  0  0  0  0  0  0
    2.9790    1.1429   -4.2047 C   0  0  0  0  0  0  0  0  0  0  0  0
    3.0547    1.2143   -5.8648 S   0  0  0  0  0  0  0  0  0  0  0  0
    3.4730   -0.8269   -1.0331 C   0  0  0  0  0  0  0  0  0  0  0  0
    3.1931   -0.4002    0.2726 C   0  0  0  0  0  0  0  0  0  0  0  0
    2.6928    1.2192    0.2326 S   0  0  0  0  0  0  0  0  0  0  0  0
    3.4078   -1.2918    1.4622 C   0  0  0  0  0  0  0  0  0  0  0  0
    4.0624   -2.5334    1.3491 C   0  0  0  0  0  0  0  0  0  0  0  0
    4.1638   -3.2475    2.5751 C   0  0  0  0  0  0  0  0  0  0  0  0
    4.7861   -4.5047    2.7624 C   0  0  0  0  0  0  0  0  0  0  0  0
    5.4331   -5.1556    1.6213 C   0  0  0  0  0  0  0  0  0  0  0  0
    6.8223   -5.0473    1.5353 C   0  0  0  0  0  0  0  0  0  0  0  0
    7.4572   -5.6144    0.4156 C   0  0  0  0  0  0  0  0  0  0  0  0
    6.6987   -6.3150   -0.5732 C   0  0  0  0  0  0  0  0  0  0  0  0
    7.4740   -6.8282   -2.1400 S   0  0  0  0  0  0  0  0  0  0  0  0
    7.8591   -8.6265   -1.7690 C   0  0  0  0  0  0  0  0  0  0  0  0
    8.9645   -8.7371   -0.7333 C   0  0  0  0  0  0  0  0  0  0  0  0
    5.2977   -6.3432   -0.4636 C   0  0  0  0  0  0  0  0  0  0  0  0
    4.5566   -6.9369   -1.4181 F   0  0  0  0  0  0  0  0  0  0  0  0
    4.6562   -5.7961    0.6461 C   0  0  0  0  0  0  0  0  0  0  0  0
    4.7896   -5.0543    4.0760 C   0  0  0  0  0  0  0  0  0  0  0  0
    4.1671   -4.3722    5.1381 C   0  0  0  0  0  0  0  0  0  0  0  0
    3.5575   -3.1208    4.9365 C   0  0  0  0  0  0  0  0  0  0  0  0
    2.9326   -2.4413    6.0627 C   0  0  0  0  0  0  0  0  0  0  0  0
    3.7400   -1.7833    7.0041 C   0  0  0  0  0  0  0  0  0  0  0  0
    3.1262   -1.2202    8.1110 C   0  0  0  0  0  0  0  0  0  0  0  0
    1.7386   -1.2980    8.2985 C   0  0  0  0  0  0  0  0  0  0  0  0
    1.1541   -0.6411    9.9125 S   0  0  0  0  0  0  0  0  0  0  0  0
   -0.6716   -0.3963    9.6684 C   0  0  0  0  0  0  0  0  0  0  0  0
   -1.4301   -1.6027   10.2182 C   0  0  0  0  0  0  0  0  0  0  0  0
    0.9474   -1.9939    7.3530 C   0  0  0  0  0  0  0  0  0  0  0  0
    1.5236   -2.5075    6.2050 C   0  0  0  0  0  0  0  0  0  0  0  0
   -0.3446   -2.2449    7.5606 F   0  0  0  0  0  0  0  0  0  0  0  0
    3.5678   -2.5614    3.6252 C   0  0  0  0  0  0  0  0  0  0  0  0
    2.9135   -1.0946    3.0833 S   0  0  0  0  0  0  0  0  0  0  0  0
    4.2945   -5.0778    6.3765 C   0  0  0  0  0  0  0  0  0  0  0  0
    4.9557   -6.3159    6.2221 C   0  0  0  0  0  0  0  0  0  0  0  0
    5.4289   -6.4841    4.6080 S   0  0  0  0  0  0  0  0  0  0  0  0
    0.7797    6.7444    9.5718 H   0  0  0  0  0  0  0  0  0  0  0  0
    3.3068    6.2417    8.9439 H   0  0  0  0  0  0  0  0  0  0  0  0
    5.9122    6.5104    8.6995 H   0  0  0  0  0  0  0  0  0  0  0  0
    5.1510    5.7223   10.1737 H   0  0  0  0  0  0  0  0  0  0  0  0
    6.7732    5.2312    9.6825 H   0  0  0  0  0  0  0  0  0  0  0  0
    4.8922    1.2707    5.9709 H   0  0  0  0  0  0  0  0  0  0  0  0
    5.3573    0.2763    7.6727 H   0  0  0  0  0  0  0  0  0  0  0  0
    6.2591    1.5882    7.0343 H   0  0  0  0  0  0  0  0  0  0  0  0
    1.8770    1.6317    7.9035 H   0  0  0  0  0  0  0  0  0  0  0  0
   -0.4150    1.5830    7.1069 H   0  0  0  0  0  0  0  0  0  0  0  0
   -2.4453    3.8090    6.9217 H   0  0  0  0  0  0  0  0  0  0  0  0
   -2.7871    0.0588    6.4754 H   0  0  0  0  0  0  0  0  0  0  0  0
   -5.3875   -1.3224    6.2198 H   0  0  0  0  0  0  0  0  0  0  0  0
   -5.2636   -3.1170    7.9361 H   0  0  0  0  0  0  0  0  0  0  0  0
   -4.6059   -7.0199    6.8801 H   0  0  0  0  0  0  0  0  0  0  0  0
   -4.5871   -7.4492    8.6279 H   0  0  0  0  0  0  0  0  0  0  0  0
   -6.1459   -5.3345    8.9705 H   0  0  0  0  0  0  0  0  0  0  0  0
   -6.8258   -6.8772    8.3593 H   0  0  0  0  0  0  0  0  0  0  0  0
   -6.4860   -5.5194    7.2187 H   0  0  0  0  0  0  0  0  0  0  0  0
   -2.1126   -3.1366    4.1074 H   0  0  0  0  0  0  0  0  0  0  0  0
   -5.6786    3.4678    2.2374 H   0  0  0  0  0  0  0  0  0  0  0  0
   -6.0677    4.8701    0.2023 H   0  0  0  0  0  0  0  0  0  0  0  0
   -4.3470    4.6016   -4.6461 H   0  0  0  0  0  0  0  0  0  0  0  0
   -3.5344    3.4243   -3.5996 H   0  0  0  0  0  0  0  0  0  0  0  0
   -2.4385    4.9568   -2.3725 H   0  0  0  0  0  0  0  0  0  0  0  0
   -2.7758    6.0648   -3.9007 H   0  0  0  0  0  0  0  0  0  0  0  0
   -3.7971    6.0490   -2.3092 H   0  0  0  0  0  0  0  0  0  0  0  0
   -3.3674    0.7747   -0.2261 H   0  0  0  0  0  0  0  0  0  0  0  0
   -5.6657   -0.0339   -0.0191 H   0  0  0  0  0  0  0  0  0  0  0  0
   -3.4110   -3.6193   -0.9845 H   0  0  0  0  0  0  0  0  0  0  0  0
   -1.1570   -2.4308   -1.5948 H   0  0  0  0  0  0  0  0  0  0  0  0
    0.5651   -3.9896   -0.6743 H   0  0  0  0  0  0  0  0  0  0  0  0
    1.1566   -8.5457    0.0814 H   0  0  0  0  0  0  0  0  0  0  0  0
   -0.4081   -8.1876   -0.7470 H   0  0  0  0  0  0  0  0  0  0  0  0
   -0.8250   -6.3143    0.6054 H   0  0  0  0  0  0  0  0  0  0  0  0
    0.8751   -6.2228    1.2448 H   0  0  0  0  0  0  0  0  0  0  0  0
   -0.2148   -7.5529    1.7577 H   0  0  0  0  0  0  0  0  0  0  0  0
   -2.0839   -5.3317   -4.6294 H   0  0  0  0  0  0  0  0  0  0  0  0
   -4.9423    1.2921   -4.8637 H   0  0  0  0  0  0  0  0  0  0  0  0
   -6.8846    2.6899   -5.5480 H   0  0  0  0  0  0  0  0  0  0  0  0
   -9.2335    1.3547   -8.8757 H   0  0  0  0  0  0  0  0  0  0  0  0
  -10.0829    2.9290   -8.6433 H   0  0  0  0  0  0  0  0  0  0  0  0
   -7.0656    2.3678   -8.4832 H   0  0  0  0  0  0  0  0  0  0  0  0
   -7.9580    3.6198   -9.4441 H   0  0  0  0  0  0  0  0  0  0  0  0
   -7.7927    3.8156   -7.6736 H   0  0  0  0  0  0  0  0  0  0  0  0
   -7.2267   -2.2525   -5.7023 H   0  0  0  0  0  0  0  0  0  0  0  0
   -3.9665    0.0029   -7.0367 H   0  0  0  0  0  0  0  0  0  0  0  0
   -3.3656    0.0691   -9.2491 H   0  0  0  0  0  0  0  0  0  0  0  0
   -5.9313    0.5990  -11.7351 H   0  0  0  0  0  0  0  0  0  0  0  0
   -4.6943   -0.4103  -10.9194 H   0  0  0  0  0  0  0  0  0  0  0  0
   -5.6082    0.8448   -9.9944 H   0  0  0  0  0  0  0  0  0  0  0  0
   -1.8697    5.0187  -13.3951 H   0  0  0  0  0  0  0  0  0  0  0  0
   -1.5308    5.4729  -11.6659 H   0  0  0  0  0  0  0  0  0  0  0  0
   -0.5153    4.2421  -12.5372 H   0  0  0  0  0  0  0  0  0  0  0  0
   -0.2136    3.6882  -10.3995 H   0  0  0  0  0  0  0  0  0  0  0  0
    1.5114    3.8991   -9.1202 H   0  0  0  0  0  0  0  0  0  0  0  0
    2.9080    4.4528   -7.3640 H   0  0  0  0  0  0  0  0  0  0  0  0
    1.9237    4.2845   -4.4575 H   0  0  0  0  0  0  0  0  0  0  0  0
    4.0646    4.5857   -2.1595 H   0  0  0  0  0  0  0  0  0  0  0  0
    3.6333    6.7109   -1.0092 H   0  0  0  0  0  0  0  0  0  0  0  0
   -0.1407    8.8261    1.8487 H   0  0  0  0  0  0  0  0  0  0  0  0
   -0.9552    7.6177    0.8216 H   0  0  0  0  0  0  0  0  0  0  0  0
    0.3544    7.4200    3.5406 H   0  0  0  0  0  0  0  0  0  0  0  0
   -0.9877    6.4439    2.8675 H   0  0  0  0  0  0  0  0  0  0  0  0
    0.7601    6.0530    2.4775 H   0  0  0  0  0  0  0  0  0  0  0  0
    0.1625    3.1781   -0.9969 H   0  0  0  0  0  0  0  0  0  0  0  0
    2.4204   -2.5876   -3.5648 H   0  0  0  0  0  0  0  0  0  0  0  0
    3.5225   -4.3810   -4.8967 H   0  0  0  0  0  0  0  0  0  0  0  0
    7.7814   -3.1080   -7.6065 H   0  0  0  0  0  0  0  0  0  0  0  0
    8.0297   -3.5438   -5.8184 H   0  0  0  0  0  0  0  0  0  0  0  0
    7.7851   -5.8424   -7.7401 H   0  0  0  0  0  0  0  0  0  0  0  0
    8.9110   -5.5717   -6.3344 H   0  0  0  0  0  0  0  0  0  0  0  0
    9.2511   -4.8181   -7.9403 H   0  0  0  0  0  0  0  0  0  0  0  0
    5.5830    0.1045   -4.6913 H   0  0  0  0  0  0  0  0  0  0  0  0
    3.8007   -1.7774   -1.2937 H   0  0  0  0  0  0  0  0  0  0  0  0
    4.4965   -2.8975    0.4700 H   0  0  0  0  0  0  0  0  0  0  0  0
    7.3854   -4.5534    2.2971 H   0  0  0  0  0  0  0  0  0  0  0  0
    8.5228   -5.5431    0.2899 H   0  0  0  0  0  0  0  0  0  0  0  0
    8.2292   -9.0775   -2.7321 H   0  0  0  0  0  0  0  0  0  0  0  0
    6.9562   -9.1778   -1.4534 H   0  0  0  0  0  0  0  0  0  0  0  0
    8.5635   -8.4396    0.2443 H   0  0  0  0  0  0  0  0  0  0  0  0
    9.8136   -8.0720   -1.0101 H   0  0  0  0  0  0  0  0  0  0  0  0
    9.3580   -9.7830   -0.6536 H   0  0  0  0  0  0  0  0  0  0  0  0
    3.5916   -5.8327    0.7532 H   0  0  0  0  0  0  0  0  0  0  0  0
    4.8355   -1.8135    6.9052 H   0  0  0  0  0  0  0  0  0  0  0  0
    3.7438   -0.7581    8.8329 H   0  0  0  0  0  0  0  0  0  0  0  0
   -0.9438    0.5003   10.2833 H   0  0  0  0  0  0  0  0  0  0  0  0
   -0.9459   -0.1893    8.6330 H   0  0  0  0  0  0  0  0  0  0  0  0
   -0.9190   -2.5546    9.9007 H   0  0  0  0  0  0  0  0  0  0  0  0
   -2.4725   -1.5729    9.8489 H   0  0  0  0  0  0  0  0  0  0  0  0
   -1.4022   -1.5883   11.3307 H   0  0  0  0  0  0  0  0  0  0  0  0
    0.9320   -3.0371    5.4549 H   0  0  0  0  0  0  0  0  0  0  0  0
    3.8731   -4.7610    7.2633 H   0  0  0  0  0  0  0  0  0  0  0  0
    5.1419   -6.9851    7.0677 H   0  0  0  0  0  0  0  0  0  0  0  0
  1  2  1  0
  1  3  2  0
  3  4  1  0
  4  5  2  0
  5  6  1  0
  6  7  1  0
  5  8  1  0
  8  9  1  0
  9 10  1  0
  8 11  2  0
 11 12  1  0
 12 13  2  0
 13 14  1  0
 14 15  2  3
 15 16  1  0
 16 17  2  0
 17 18  1  0
 18 19  2  0
 19 20  1  0
 20 21  2  0
 21 22  1  0
 22 23  2  0
 23 24  1  0
 24 25  1  0
 25 26  1  0
 23 27  1  0
 27 28  1  0
 27 29  2  0
 19 30  1  0
 30 31  2  0
 31 32  1  0
 32 33  1  0
 33 34  2  0
 34 35  1  0
 35 36  2  0
 36 37  1  0
 37 38  1  0
 38 39  1  0
 36 40  1  0
 40 41  2  0
 40 42  1  0
 32 43  2  0
 43 44  1  0
 31 45  1  0
 45 46  2  0
 46 47  1  0
 46 48  1  0
 48 49  2  0
 49 50  1  0
 50 51  2  0
 51 52  1  0
 52 53  2  0
 53 54  1  0
 54 55  2  0
 55 56  1  0
 56 57  1  0
 57 58  1  0
 55 59  1  0
 59 60  1  0
 59 61  2  0
 51 62  1  0
 62 63  2  0
 63 64  1  0
 64 65  1  0
 65 66  2  0
 66 67  1  0
 67 68  2  0
 68 69  1  0
 69 70  1  0
 70 71  1  0
 68 72  1  0
 72 73  2  0
 72 74  1  0
 64 75  2  0
 75 76  1  0
 63 77  1  0
 77 78  2  0
 78 79  1  0
 78 80  1  0
 80 81  1  0
 80 82  2  0
 82 83  1  0
 83 84  2  0
 84 85  1  0
 85 86  1  0
 84 87  1  0
 87 88  1  0
 88 89  1  0
 87 90  2  0
 90 91  1  0
 91 92  2  0
 92 93  1  0
 93 94  2  3
 94 95  1  0
 95 96  2  0
 96 97  1  0
 97 98  2  0
 98 99  1  0
 99100  2  0
100101  1  0
101102  2  0
102103  1  0
103104  1  0
104105  1  0
102106  1  0
106107  1  0
106108  2  0
 98109  1  0
109110  2  0
110111  1  0
111112  1  0
112113  2  0
113114  1  0
114115  2  0
115116  1  0
116117  1  0
117118  1  0
115119  1  0
119120  2  0
119121  1  0
111122  2  0
122123  1  0
110124  1  0
124125  2  0
125126  1  0
125127  1  0
127128  2  0
128129  1  0
129130  2  0
130131  1  0
131132  2  0
132133  1  0
133134  2  0
134135  1  0
135136  1  0
136137  1  0
134138  1  0
138139  1  0
138140  2  0
130141  1  0
141142  2  0
142143  1  0
143144  1  0
144145  2  0
145146  1  0
146147  2  0
147148  1  0
148149  1  0
149150  1  0
147151  1  0
151152  2  0
151153  1  0
143154  2  0
154155  1  0
142156  1  0
156157  2  0
157158  1  0
 13  2  1  0
 44 16  1  0
 76 48  1  0
 92 81  1  0
123 95  1  0
155127  1  0
 12  3  1  0
 43 18  1  0
 75 50  1  0
 91 82  1  0
122 97  1  0
154129  1  0
 29 20  1  0
 47 30  1  0
 61 52  1  0
 79 62  1  0
108 99  1  0
126109  1  0
140131  1  0
158141  1  0
 41 33  1  0
 73 65  1  0
120112  1  0
152144  1  0
  1159  1  0
  4160  1  0
  7161  1  0
  7162  1  0
  7163  1  0
 10164  1  0
 10165  1  0
 10166  1  0
 11167  1  0
 14168  1  0
 15169  1  0
 17170  1  0
 21171  1  0
 22172  1  0
 25173  1  0
 25174  1  0
 26175  1  0
 26176  1  0
 26177  1  0
 29178  1  0
 34179  1  0
 35180  1  0
 38181  1  0
 38182  1  0
 39183  1  0
 39184  1  0
 39185  1  0
 41186  1  0
 45187  1  0
 49188  1  0
 53189  1  0
 54190  1  0
 57191  1  0
 57192  1  0
 58193  1  0
 58194  1  0
 58195  1  0
 61196  1  0
 66197  1  0
 67198  1  0
 70199  1  0
 70200  1  0
 71201  1  0
 71202  1  0
 71203  1  0
 73204  1  0
 77205  1  0
 83206  1  0
 86207  1  0
 86208  1  0
 86209  1  0
 89210  1  0
 89211  1  0
 89212  1  0
 90213  1  0
 93214  1  0
 94215  1  0
 96216  1  0
100217  1  0
101218  1  0
104219  1  0
104220  1  0
105221  1  0
105222  1  0
105223  1  0
108224  1  0
113225  1  0
114226  1  0
117227  1  0
117228  1  0
118229  1  0
118230  1  0
118231  1  0
120232  1  0
124233  1  0
128234  1  0
132235  1  0
133236  1  0
136237  1  0
136238  1  0
137239  1  0
137240  1  0
137241  1  0
140242  1  0
145243  1  0
146244  1  0
149245  1  0
149246  1  0
150247  1  0
150248  1  0
150249  1  0
152250  1  0
156251  1  0
157252  1  0
M  END

