
     RDKit          3D

247273  0  0  0  0  0  0  0  0999 V2000
   -9.0631    8.5764   -2.2352 C   0  0  0  0  0  0  0  0  0  0  0  0
   -8.9092    7.2011   -2.0341 C   0  0  0  0  0  0  0  0  0  0  0  0
   -8.6626    6.8299   -0.6741 C   0  0  0  0  0  0  0  0  0  0  0  0
   -8.4866    5.5065   -0.1590 C   0  0  0  0  0  0  0  0  0  0  0  0
   -8.3351    4.3726   -1.0955 C   0  0  0  0  0  0  0  0  0  0  0  0
   -8.5478    3.0361   -0.7249 C   0  0  0  0  0  0  0  0  0  0  0  0
   -8.3626    2.1476   -1.8143 C   0  0  0  0  0  0  0  0  0  0  0  0
   -8.4126    0.8256   -1.6435 F   0  0  0  0  0  0  0  0  0  0  0  0
   -7.9937    2.7896   -2.9962 C   0  0  0  0  0  0  0  0  0  0  0  0
   -7.4825    1.8212   -4.4472 S   0  0  0  0  0  0  0  0  0  0  0  0
   -7.3502    3.0595   -5.8411 C   0  0  0  0  0  0  0  0  0  0  0  0
   -8.6312    3.7983   -6.1632 C   0  0  0  0  0  0  0  0  0  0  0  0
   -7.7553    4.3680   -2.6500 S   0  0  0  0  0  0  0  0  0  0  0  0
   -8.2630    5.3867    1.2245 C   0  0  0  0  0  0  0  0  0  0  0  0
   -8.2634    6.5124    2.1477 C   0  0  0  0  0  0  0  0  0  0  0  0
   -8.4859    7.8279    1.5646 C   0  0  0  0  0  0  0  0  0  0  0  0
   -8.5570    9.0742    2.4411 C   0  0  0  0  0  0  0  0  0  0  0  0
   -8.2261   10.6237    1.8880 S   0  0  0  0  0  0  0  0  0  0  0  0
   -8.7112   11.4292    3.2609 C   0  0  0  0  0  0  0  0  0  0  0  0
   -8.8262   13.2292    3.5017 S   0  0  0  0  0  0  0  0  0  0  0  0
   -7.1758   13.5675    4.2274 C   0  0  0  0  0  0  0  0  0  0  0  0
   -6.0571   13.3015    3.2452 C   0  0  0  0  0  0  0  0  0  0  0  0
   -9.1976   10.4741    4.1767 C   0  0  0  0  0  0  0  0  0  0  0  0
   -9.0731    9.1221    3.7252 C   0  0  0  0  0  0  0  0  0  0  0  0
   -9.6899   10.7657    5.4006 F   0  0  0  0  0  0  0  0  0  0  0  0
   -8.6162    7.9239    0.1975 C   0  0  0  0  0  0  0  0  0  0  0  0
   -8.9359    9.2793   -0.7531 S   0  0  0  0  0  0  0  0  0  0  0  0
   -7.9370    6.1464    3.4760 C   0  0  0  0  0  0  0  0  0  0  0  0
   -7.7226    4.7823    3.6825 C   0  0  0  0  0  0  0  0  0  0  0  0
   -7.9296    4.0483    2.2041 S   0  0  0  0  0  0  0  0  0  0  0  0
   -7.2133    4.1006    4.8930 C   0  0  0  0  0  0  0  0  0  0  0  0
   -7.2792    2.7264    5.0599 C   0  0  0  0  0  0  0  0  0  0  0  0
   -6.5015    2.2565    6.1100 C   0  0  0  0  0  0  0  0  0  0  0  0
   -6.2206    0.8623    6.4539 C   0  0  0  0  0  0  0  0  0  0  0  0
   -7.0469   -0.2725    5.8357 C   0  0  0  0  0  0  0  0  0  0  0  0
   -8.3732   -0.2198    5.4087 C   0  0  0  0  0  0  0  0  0  0  0  0
   -8.8848   -1.4978    5.0475 C   0  0  0  0  0  0  0  0  0  0  0  0
  -10.1689   -1.7092    4.7959 F   0  0  0  0  0  0  0  0  0  0  0  0
   -7.9766   -2.5466    5.2309 C   0  0  0  0  0  0  0  0  0  0  0  0
   -8.3037   -4.3367    5.3339 S   0  0  0  0  0  0  0  0  0  0  0  0
   -9.7269   -4.6106    4.2234 C   0  0  0  0  0  0  0  0  0  0  0  0
   -9.8244   -6.0978    4.0146 C   0  0  0  0  0  0  0  0  0  0  0  0
   -6.5432   -1.8641    5.7325 S   0  0  0  0  0  0  0  0  0  0  0  0
   -5.2801    0.5806    7.3952 C   0  0  0  0  0  0  0  0  0  0  0  0
   -4.5312    1.5650    8.0897 C   0  0  0  0  0  0  0  0  0  0  0  0
   -4.7981    2.9089    7.8551 C   0  0  0  0  0  0  0  0  0  0  0  0
   -4.0480    3.9873    8.5817 C   0  0  0  0  0  0  0  0  0  0  0  0
   -3.2481    3.8974   10.0281 S   0  0  0  0  0  0  0  0  0  0  0  0
   -2.6913    5.4346   10.1095 C   0  0  0  0  0  0  0  0  0  0  0  0
   -1.3695    6.0533   11.1904 S   0  0  0  0  0  0  0  0  0  0  0  0
   -2.2619    6.6834   12.6928 C   0  0  0  0  0  0  0  0  0  0  0  0
   -3.1181    7.8916   12.4265 C   0  0  0  0  0  0  0  0  0  0  0  0
   -3.1892    6.1409    9.0148 C   0  0  0  0  0  0  0  0  0  0  0  0
   -3.9433    5.3037    8.1503 C   0  0  0  0  0  0  0  0  0  0  0  0
   -2.8401    7.3892    8.7173 F   0  0  0  0  0  0  0  0  0  0  0  0
   -5.7721    3.2353    6.8586 C   0  0  0  0  0  0  0  0  0  0  0  0
   -6.2005    4.6947    6.1249 S   0  0  0  0  0  0  0  0  0  0  0  0
   -3.4466    1.0078    8.8448 C   0  0  0  0  0  0  0  0  0  0  0  0
   -3.3206   -0.4281    8.7204 C   0  0  0  0  0  0  0  0  0  0  0  0
   -4.5489   -0.8600    7.8325 S   0  0  0  0  0  0  0  0  0  0  0  0
   -2.1016   -1.2093    8.9236 C   0  0  0  0  0  0  0  0  0  0  0  0
   -0.8036   -0.7878    8.5994 C   0  0  0  0  0  0  0  0  0  0  0  0
    0.0925   -1.8232    8.2428 C   0  0  0  0  0  0  0  0  0  0  0  0
    1.3639   -1.6412    7.4766 C   0  0  0  0  0  0  0  0  0  0  0  0
    2.0248   -0.3127    7.3348 C   0  0  0  0  0  0  0  0  0  0  0  0
    1.9214    0.7939    8.1843 C   0  0  0  0  0  0  0  0  0  0  0  0
    2.7271    1.8870    7.7799 C   0  0  0  0  0  0  0  0  0  0  0  0
    2.7782    3.0218    8.4601 F   0  0  0  0  0  0  0  0  0  0  0  0
    3.4965    1.6137    6.6356 C   0  0  0  0  0  0  0  0  0  0  0  0
    4.6942    2.7340    5.7929 S   0  0  0  0  0  0  0  0  0  0  0  0
    4.4349    4.3301    6.6797 C   0  0  0  0  0  0  0  0  0  0  0  0
    5.2967    5.4171    6.0515 C   0  0  0  0  0  0  0  0  0  0  0  0
    3.1300    0.0809    6.1295 S   0  0  0  0  0  0  0  0  0  0  0  0
    1.8726   -2.7695    6.8630 C   0  0  0  0  0  0  0  0  0  0  0  0
    1.3218   -4.0851    6.9682 C   0  0  0  0  0  0  0  0  0  0  0  0
    0.1680   -4.2557    7.7736 C   0  0  0  0  0  0  0  0  0  0  0  0
   -0.3120   -5.6487    8.1077 C   0  0  0  0  0  0  0  0  0  0  0  0
    0.3437   -7.1490    7.7580 S   0  0  0  0  0  0  0  0  0  0  0  0
   -0.7770   -8.1120    8.5264 C   0  0  0  0  0  0  0  0  0  0  0  0
   -0.7262   -9.9336    8.7816 S   0  0  0  0  0  0  0  0  0  0  0  0
   -1.7629  -10.6055    7.3707 C   0  0  0  0  0  0  0  0  0  0  0  0
   -3.2306  -10.2464    7.4739 C   0  0  0  0  0  0  0  0  0  0  0  0
   -1.7026   -7.2805    9.1049 C   0  0  0  0  0  0  0  0  0  0  0  0
   -1.4350   -5.9023    8.8836 C   0  0  0  0  0  0  0  0  0  0  0  0
   -2.6741   -7.7082    9.8834 F   0  0  0  0  0  0  0  0  0  0  0  0
   -0.4496   -3.1052    8.3254 C   0  0  0  0  0  0  0  0  0  0  0  0
   -2.0416   -2.8554    8.7880 S   0  0  0  0  0  0  0  0  0  0  0  0
    1.8989   -5.0025    6.0584 C   0  0  0  0  0  0  0  0  0  0  0  0
    2.8819   -4.4343    5.1600 C   0  0  0  0  0  0  0  0  0  0  0  0
    3.0051   -2.9373    5.6814 S   0  0  0  0  0  0  0  0  0  0  0  0
    3.0771   -4.8531    3.7515 C   0  0  0  0  0  0  0  0  0  0  0  0
    2.0673   -4.9005    2.9034 C   0  0  0  0  0  0  0  0  0  0  0  0
    2.4093   -4.7155    1.5377 C   0  0  0  0  0  0  0  0  0  0  0  0
    1.4682   -4.3333    0.4805 C   0  0  0  0  0  0  0  0  0  0  0  0
    0.0745   -4.1341    0.8043 C   0  0  0  0  0  0  0  0  0  0  0  0
   -0.9296   -4.2208   -0.1836 C   0  0  0  0  0  0  0  0  0  0  0  0
   -2.2269   -3.9278    0.3134 C   0  0  0  0  0  0  0  0  0  0  0  0
   -3.3219   -4.1482   -0.3916 F   0  0  0  0  0  0  0  0  0  0  0  0
   -2.2096   -3.6179    1.6565 C   0  0  0  0  0  0  0  0  0  0  0  0
   -3.6259   -3.5508    2.8012 S   0  0  0  0  0  0  0  0  0  0  0  0
   -5.0835   -3.2160    1.6736 C   0  0  0  0  0  0  0  0  0  0  0  0
   -5.6903   -4.4774    1.0570 C   0  0  0  0  0  0  0  0  0  0  0  0
   -0.6839   -3.6315    2.2010 S   0  0  0  0  0  0  0  0  0  0  0  0
    2.0134   -4.1382   -0.7983 C   0  0  0  0  0  0  0  0  0  0  0  0
    3.3930   -4.3530   -1.0761 C   0  0  0  0  0  0  0  0  0  0  0  0
    4.2787   -4.6315   -0.0208 C   0  0  0  0  0  0  0  0  0  0  0  0
    5.7403   -4.7581   -0.3680 C   0  0  0  0  0  0  0  0  0  0  0  0
    6.6189   -3.9677   -1.5346 S   0  0  0  0  0  0  0  0  0  0  0  0
    8.0354   -4.7395   -1.3790 C   0  0  0  0  0  0  0  0  0  0  0  0
    9.5140   -4.6219   -2.3884 S   0  0  0  0  0  0  0  0  0  0  0  0
    8.8592   -4.5035   -4.1122 C   0  0  0  0  0  0  0  0  0  0  0  0
    8.3174   -3.1031   -4.3945 C   0  0  0  0  0  0  0  0  0  0  0  0
    7.9694   -5.3502   -0.1488 C   0  0  0  0  0  0  0  0  0  0  0  0
    6.6860   -5.3435    0.4936 C   0  0  0  0  0  0  0  0  0  0  0  0
    9.0438   -5.8296    0.4834 F   0  0  0  0  0  0  0  0  0  0  0  0
    3.7733   -4.7426    1.2992 C   0  0  0  0  0  0  0  0  0  0  0  0
    4.5331   -4.7887    2.8097 S   0  0  0  0  0  0  0  0  0  0  0  0
    3.6502   -4.1207   -2.4372 C   0  0  0  0  0  0  0  0  0  0  0  0
    2.7737   -3.4611   -3.1256 C   0  0  0  0  0  0  0  0  0  0  0  0
    1.3507   -3.4693   -2.1624 S   0  0  0  0  0  0  0  0  0  0  0  0
    3.0476   -2.8846   -4.4706 C   0  0  0  0  0  0  0  0  0  0  0  0
    4.5507   -2.8918   -5.1937 S   0  0  0  0  0  0  0  0  0  0  0  0
    2.2625   -2.0168   -5.2846 C   0  0  0  0  0  0  0  0  0  0  0  0
    0.9272   -1.7684   -5.0469 C   0  0  0  0  0  0  0  0  0  0  0  0
    0.2515   -0.8859   -5.9092 C   0  0  0  0  0  0  0  0  0  0  0  0
   -1.1101   -0.5065   -5.7232 O   0  0  0  0  0  0  0  0  0  0  0  0
   -1.9961   -1.0480   -4.7451 C   0  0  0  0  0  0  0  0  0  0  0  0
    0.8903   -0.2941   -6.9915 C   0  0  0  0  0  0  0  0  0  0  0  0
    0.0848    0.5183   -7.7837 O   0  0  0  0  0  0  0  0  0  0  0  0
    0.4901    1.3386   -8.8896 C   0  0  0  0  0  0  0  0  0  0  0  0
    2.2689   -0.5671   -7.2507 C   0  0  0  0  0  0  0  0  0  0  0  0
    2.9476   -1.4419   -6.3866 C   0  0  0  0  0  0  0  0  0  0  0  0
    4.2835   -1.8663   -6.4803 C   0  0  0  0  0  0  0  0  0  0  0  0
    5.3390   -1.5152   -7.4729 C   0  0  0  0  0  0  0  0  0  0  0  0
    6.2786   -2.4584   -7.6371 C   0  0  0  0  0  0  0  0  0  0  0  0
    7.4709   -2.3904   -8.5335 C   0  0  0  0  0  0  0  0  0  0  0  0
    8.3173   -1.2910   -8.7396 C   0  0  0  0  0  0  0  0  0  0  0  0
    9.4266   -1.6254   -9.5711 C   0  0  0  0  0  0  0  0  0  0  0  0
   10.5416   -0.8232   -9.9405 C   0  0  0  0  0  0  0  0  0  0  0  0
   10.6571    0.6181   -9.4489 C   0  0  0  0  0  0  0  0  0  0  0  0
   11.8744    1.2489   -9.3394 C   0  0  0  0  0  0  0  0  0  0  0  0
   11.8135    2.5395   -8.7942 C   0  0  0  0  0  0  0  0  0  0  0  0
   12.8832    3.2928   -8.6115 F   0  0  0  0  0  0  0  0  0  0  0  0
   10.5343    2.9371   -8.4827 C   0  0  0  0  0  0  0  0  0  0  0  0
    9.9409    4.4996   -7.7023 S   0  0  0  0  0  0  0  0  0  0  0  0
   11.5288    5.4876   -7.3693 C   0  0  0  0  0  0  0  0  0  0  0  0
   12.3629    4.9126   -6.2281 C   0  0  0  0  0  0  0  0  0  0  0  0
    9.4977    1.6888   -8.9115 S   0  0  0  0  0  0  0  0  0  0  0  0
   11.5251   -1.4019  -10.7552 C   0  0  0  0  0  0  0  0  0  0  0  0
   11.5300   -2.7689  -11.1954 C   0  0  0  0  0  0  0  0  0  0  0  0
   10.4070   -3.5796  -10.7760 C   0  0  0  0  0  0  0  0  0  0  0  0
   10.2860   -5.0315  -11.1765 C   0  0  0  0  0  0  0  0  0  0  0  0
    8.8241   -5.8506  -11.2894 S   0  0  0  0  0  0  0  0  0  0  0  0
    9.4421   -7.3565  -11.4587 C   0  0  0  0  0  0  0  0  0  0  0  0
    8.5242   -8.8952  -11.8365 S   0  0  0  0  0  0  0  0  0  0  0  0
    8.1397   -9.6791  -10.1685 C   0  0  0  0  0  0  0  0  0  0  0  0
    9.3833  -10.2239   -9.4515 C   0  0  0  0  0  0  0  0  0  0  0  0
   10.8360   -7.2798  -11.4749 C   0  0  0  0  0  0  0  0  0  0  0  0
   11.3098   -5.9655  -11.2960 C   0  0  0  0  0  0  0  0  0  0  0  0
   11.6523   -8.3199  -11.7251 F   0  0  0  0  0  0  0  0  0  0  0  0
    9.4404   -2.9959  -10.0275 C   0  0  0  0  0  0  0  0  0  0  0  0
    8.0981   -3.6577   -9.2925 S   0  0  0  0  0  0  0  0  0  0  0  0
   12.6384   -3.0854  -12.0234 C   0  0  0  0  0  0  0  0  0  0  0  0
   13.5597   -2.0676  -12.2424 C   0  0  0  0  0  0  0  0  0  0  0  0
   12.9130   -0.7432  -11.4484 S   0  0  0  0  0  0  0  0  0  0  0  0
   -9.2521    9.0163   -3.1968 H   0  0  0  0  0  0  0  0  0  0  0  0
   -8.9952    6.5116   -2.8077 H   0  0  0  0  0  0  0  0  0  0  0  0
   -8.8499    2.7157    0.2353 H   0  0  0  0  0  0  0  0  0  0  0  0
   -7.0495    2.4842   -6.7235 H   0  0  0  0  0  0  0  0  0  0  0  0
   -6.5649    3.7723   -5.6605 H   0  0  0  0  0  0  0  0  0  0  0  0
   -9.5310    3.1303   -6.0808 H   0  0  0  0  0  0  0  0  0  0  0  0
   -8.7318    4.6965   -5.5377 H   0  0  0  0  0  0  0  0  0  0  0  0
   -8.5821    4.1364   -7.1999 H   0  0  0  0  0  0  0  0  0  0  0  0
   -7.1630   14.6250    4.5393 H   0  0  0  0  0  0  0  0  0  0  0  0
   -7.0356   12.9503    5.1195 H   0  0  0  0  0  0  0  0  0  0  0  0
   -5.0831   13.2754    3.7829 H   0  0  0  0  0  0  0  0  0  0  0  0
   -6.0631   14.0754    2.4732 H   0  0  0  0  0  0  0  0  0  0  0  0
   -6.2369   12.3434    2.7445 H   0  0  0  0  0  0  0  0  0  0  0  0
   -9.4443    8.3180    4.2904 H   0  0  0  0  0  0  0  0  0  0  0  0
   -7.8022    6.8637    4.2558 H   0  0  0  0  0  0  0  0  0  0  0  0
   -7.8065    2.1189    4.3797 H   0  0  0  0  0  0  0  0  0  0  0  0
   -8.9951    0.6305    5.3847 H   0  0  0  0  0  0  0  0  0  0  0  0
   -9.5459   -4.1303    3.2697 H   0  0  0  0  0  0  0  0  0  0  0  0
  -10.6570   -4.2376    4.6864 H   0  0  0  0  0  0  0  0  0  0  0  0
   -8.9216   -6.4348    3.4765 H   0  0  0  0  0  0  0  0  0  0  0  0
  -10.7623   -6.3670    3.4410 H   0  0  0  0  0  0  0  0  0  0  0  0
   -9.7871   -6.6212    5.0076 H   0  0  0  0  0  0  0  0  0  0  0  0
   -2.7811    5.8911   13.1772 H   0  0  0  0  0  0  0  0  0  0  0  0
   -1.4711    6.9589   13.4197 H   0  0  0  0  0  0  0  0  0  0  0  0
   -3.9938    7.5771   11.8163 H   0  0  0  0  0  0  0  0  0  0  0  0
   -2.5134    8.6440   11.9090 H   0  0  0  0  0  0  0  0  0  0  0  0
   -3.4589    8.2767   13.4204 H   0  0  0  0  0  0  0  0  0  0  0  0
   -4.2188    5.6522    7.2097 H   0  0  0  0  0  0  0  0  0  0  0  0
   -2.7380    1.5587    9.3575 H   0  0  0  0  0  0  0  0  0  0  0  0
   -0.6171    0.2254    8.5193 H   0  0  0  0  0  0  0  0  0  0  0  0
    1.3282    0.8284    9.0674 H   0  0  0  0  0  0  0  0  0  0  0  0
    4.7275    4.2085    7.7231 H   0  0  0  0  0  0  0  0  0  0  0  0
    3.4026    4.6291    6.6165 H   0  0  0  0  0  0  0  0  0  0  0  0
    6.2933    5.0131    5.7644 H   0  0  0  0  0  0  0  0  0  0  0  0
    4.7868    5.8320    5.1611 H   0  0  0  0  0  0  0  0  0  0  0  0
    5.4687    6.2339    6.7799 H   0  0  0  0  0  0  0  0  0  0  0  0
   -1.3418  -10.3075    6.4390 H   0  0  0  0  0  0  0  0  0  0  0  0
   -1.6408  -11.6825    7.4066 H   0  0  0  0  0  0  0  0  0  0  0  0
   -3.3097   -9.1560    7.6810 H   0  0  0  0  0  0  0  0  0  0  0  0
   -3.6699  -10.4822    6.4901 H   0  0  0  0  0  0  0  0  0  0  0  0
   -3.6811  -10.8584    8.2960 H   0  0  0  0  0  0  0  0  0  0  0  0
   -2.0572   -5.2433    9.3652 H   0  0  0  0  0  0  0  0  0  0  0  0
    1.5059   -5.9777    5.8976 H   0  0  0  0  0  0  0  0  0  0  0  0
    1.1522   -5.1114    3.2232 H   0  0  0  0  0  0  0  0  0  0  0  0
   -0.7356   -4.6221   -1.1211 H   0  0  0  0  0  0  0  0  0  0  0  0
   -5.8984   -2.6949    2.2497 H   0  0  0  0  0  0  0  0  0  0  0  0
   -4.7908   -2.5278    0.9159 H   0  0  0  0  0  0  0  0  0  0  0  0
   -5.9483   -4.2551    0.0351 H   0  0  0  0  0  0  0  0  0  0  0  0
   -6.5735   -4.8008    1.6414 H   0  0  0  0  0  0  0  0  0  0  0  0
   -4.9223   -5.2816    1.0967 H   0  0  0  0  0  0  0  0  0  0  0  0
    9.7132   -4.7007   -4.8038 H   0  0  0  0  0  0  0  0  0  0  0  0
    8.0711   -5.2363   -4.3287 H   0  0  0  0  0  0  0  0  0  0  0  0
    7.4980   -3.1777   -5.1409 H   0  0  0  0  0  0  0  0  0  0  0  0
    7.9856   -2.5489   -3.4670 H   0  0  0  0  0  0  0  0  0  0  0  0
    9.1141   -2.4970   -4.8691 H   0  0  0  0  0  0  0  0  0  0  0  0
    6.5341   -5.7438    1.4251 H   0  0  0  0  0  0  0  0  0  0  0  0
    4.5300   -4.3773   -2.9331 H   0  0  0  0  0  0  0  0  0  0  0  0
    0.3748   -2.1541   -4.2937 H   0  0  0  0  0  0  0  0  0  0  0  0
   -1.4637   -1.3894   -3.8323 H   0  0  0  0  0  0  0  0  0  0  0  0
   -2.7082   -0.2869   -4.4536 H   0  0  0  0  0  0  0  0  0  0  0  0
   -2.5355   -1.8963   -5.1408 H   0  0  0  0  0  0  0  0  0  0  0  0
   -0.3620    1.4221   -9.5835 H   0  0  0  0  0  0  0  0  0  0  0  0
    0.7376    2.3514   -8.5140 H   0  0  0  0  0  0  0  0  0  0  0  0
    1.3877    0.9147   -9.3915 H   0  0  0  0  0  0  0  0  0  0  0  0
    2.7007   -0.1295   -8.0705 H   0  0  0  0  0  0  0  0  0  0  0  0
    5.3496   -0.5225   -8.0414 H   0  0  0  0  0  0  0  0  0  0  0  0
    6.1657   -3.3416   -7.1354 H   0  0  0  0  0  0  0  0  0  0  0  0
    8.2155   -0.3795   -8.2573 H   0  0  0  0  0  0  0  0  0  0  0  0
   12.7845    0.8106   -9.5103 H   0  0  0  0  0  0  0  0  0  0  0  0
   11.2024    6.4779   -7.1018 H   0  0  0  0  0  0  0  0  0  0  0  0
   12.0967    5.6126   -8.2980 H   0  0  0  0  0  0  0  0  0  0  0  0
   12.2284    3.7966   -6.2059 H   0  0  0  0  0  0  0  0  0  0  0  0
   13.4416    5.1939   -6.3765 H   0  0  0  0  0  0  0  0  0  0  0  0
   12.0024    5.3279   -5.2779 H   0  0  0  0  0  0  0  0  0  0  0  0
    7.5966   -8.9833   -9.5613 H   0  0  0  0  0  0  0  0  0  0  0  0
    7.4486  -10.5093  -10.3853 H   0  0  0  0  0  0  0  0  0  0  0  0
    9.0717  -11.0449   -8.8194 H   0  0  0  0  0  0  0  0  0  0  0  0
    9.8060   -9.4198   -8.8396 H   0  0  0  0  0  0  0  0  0  0  0  0
   10.1379  -10.5961  -10.2009 H   0  0  0  0  0  0  0  0  0  0  0  0
   12.3402   -5.7680  -11.2372 H   0  0  0  0  0  0  0  0  0  0  0  0
   12.7528   -4.0248  -12.4480 H   0  0  0  0  0  0  0  0  0  0  0  0
   14.4375   -2.1737  -12.8388 H   0  0  0  0  0  0  0  0  0  0  0  0
  1  2  2  0
  2  3  1  0
  3  4  2  0
  4  5  1  0
  5  6  2  0
  6  7  1  0
  7  8  1  0
  7  9  2  0
  9 10  1  0
 10 11  1  0
 11 12  1  0
  9 13  1  0
  4 14  1  0
 14 15  2  0
 15 16  1  0
 16 17  1  0
 17 18  1  0
 18 19  1  0
 19 20  1  0
 20 21  1  0
 21 22  1  0
 19 23  2  0
 23 24  1  0
 23 25  1  0
 16 26  2  0
 26 27  1  0
 15 28  1  0
 28 29  2  0
 29 30  1  0
 29 31  1  0
 31 32  2  0
 32 33  1  0
 33 34  2  0
 34 35  1  0
 35 36  2  0
 36 37  1  0
 37 38  1  0
 37 39  2  0
 39 40  1  0
 40 41  1  0
 41 42  1  0
 39 43  1  0
 34 44  1  0
 44 45  2  0
 45 46  1  0
 46 47  1  0
 47 48  1  0
 48 49  1  0
 49 50  1  0
 50 51  1  0
 51 52  1  0
 49 53  2  0
 53 54  1  0
 53 55  1  0
 46 56  2  0
 56 57  1  0
 45 58  1  0
 58 59  2  0
 59 60  1  0
 59 61  1  0
 61 62  2  0
 62 63  1  0
 63 64  2  0
 64 65  1  0
 65 66  2  0
 66 67  1  0
 67 68  1  0
 67 69  2  0
 69 70  1  0
 70 71  1  0
 71 72  1  0
 69 73  1  0
 64 74  1  0
 74 75  2  0
 75 76  1  0
 76 77  1  0
 77 78  1  0
 78 79  1  0
 79 80  1  0
 80 81  1  0
 81 82  1  0
 79 83  2  0
 83 84  1  0
 83 85  1  0
 76 86  2  0
 86 87  1  0
 75 88  1  0
 88 89  2  0
 89 90  1  0
 89 91  1  0
 91 92  2  0
 92 93  1  0
 93 94  2  0
 94 95  1  0
 95 96  2  0
 96 97  1  0
 97 98  1  0
 97 99  2  0
 99100  1  0
100101  1  0
101102  1  0
 99103  1  0
 94104  1  0
104105  2  0
105106  1  0
106107  1  0
107108  1  0
108109  1  0
109110  1  0
110111  1  0
111112  1  0
109113  2  0
113114  1  0
113115  1  0
106116  2  0
116117  1  0
105118  1  0
118119  2  0
119120  1  0
119121  1  0
121122  1  0
121123  2  0
123124  1  0
124125  2  0
125126  1  0
126127  1  0
125128  1  0
128129  1  0
129130  1  0
128131  2  0
131132  1  0
132133  2  0
133134  1  0
134135  2  3
135136  1  0
136137  2  0
137138  1  0
138139  2  0
139140  1  0
140141  2  0
141142  1  0
142143  1  0
142144  2  0
144145  1  0
145146  1  0
146147  1  0
144148  1  0
139149  1  0
149150  2  0
150151  1  0
151152  1  0
152153  1  0
153154  1  0
154155  1  0
155156  1  0
156157  1  0
154158  2  0
158159  1  0
158160  1  0
151161  2  0
161162  1  0
150163  1  0
163164  2  0
164165  1  0
 27  1  1  0
 57 31  1  0
 87 61  1  0
117 91  1  0
133122  1  0
162136  1  0
 26  3  1  0
 56 33  1  0
 86 63  1  0
116 93  1  0
132123  1  0
161138  1  0
 13  5  1  0
 30 14  1  0
 43 35  1  0
 60 44  1  0
 73 65  1  0
 90 74  1  0
103 95  1  0
120104  1  0
148140  1  0
165149  1  0
 24 17  2  0
 54 47  2  0
 84 77  2  0
114107  2  0
159152  2  0
  1166  1  0
  2167  1  0
  6168  1  0
 11169  1  0
 11170  1  0
 12171  1  0
 12172  1  0
 12173  1  0
 21174  1  0
 21175  1  0
 22176  1  0
 22177  1  0
 22178  1  0
 24179  1  0
 28180  1  0
 32181  1  0
 36182  1  0
 41183  1  0
 41184  1  0
 42185  1  0
 42186  1  0
 42187  1  0
 51188  1  0
 51189  1  0
 52190  1  0
 52191  1  0
 52192  1  0
 54193  1  0
 58194  1  0
 62195  1  0
 66196  1  0
 71197  1  0
 71198  1  0
 72199  1  0
 72200  1  0
 72201  1  0
 81202  1  0
 81203  1  0
 82204  1  0
 82205  1  0
 82206  1  0
 84207  1  0
 88208  1  0
 92209  1  0
 96210  1  0
101211  1  0
101212  1  0
102213  1  0
102214  1  0
102215  1  0
111216  1  0
111217  1  0
112218  1  0
112219  1  0
112220  1  0
114221  1  0
118222  1  0
124223  1  0
127224  1  0
127225  1  0
127226  1  0
130227  1  0
130228  1  0
130229  1  0
131230  1  0
134231  1  0
135232  1  0
137233  1  0
141234  1  0
146235  1  0
146236  1  0
147237  1  0
147238  1  0
147239  1  0
156240  1  0
156241  1  0
157242  1  0
157243  1  0
157244  1  0
159245  1  0
163246  1  0
164247  1  0
M  END

