
     RDKit          3D

202219  0  0  0  0  0  0  0  0999 V2000
   -6.3603   -6.8022   -5.1869 C   0  0  0  0  0  0  0  0  0  0  0  0
   -6.4039   -8.1205   -6.2344 S   0  0  0  0  0  0  0  0  0  0  0  0
   -5.2457   -6.0402   -5.5231 C   0  0  0  0  0  0  0  0  0  0  0  0
   -4.8728   -4.8551   -4.8927 C   0  0  0  0  0  0  0  0  0  0  0  0
   -3.7350   -4.1547   -5.3454 C   0  0  0  0  0  0  0  0  0  0  0  0
   -3.3051   -2.9642   -4.7384 O   0  0  0  0  0  0  0  0  0  0  0  0
   -3.8997   -2.3874   -3.5815 C   0  0  0  0  0  0  0  0  0  0  0  0
   -2.9956   -4.6506   -6.4398 C   0  0  0  0  0  0  0  0  0  0  0  0
   -1.8710   -3.9259   -6.8635 O   0  0  0  0  0  0  0  0  0  0  0  0
   -0.9832   -4.3467   -7.8954 C   0  0  0  0  0  0  0  0  0  0  0  0
   -3.3931   -5.8468   -7.0799 C   0  0  0  0  0  0  0  0  0  0  0  0
   -4.4999   -6.5509   -6.5964 C   0  0  0  0  0  0  0  0  0  0  0  0
   -5.0061   -7.7556   -7.0978 C   0  0  0  0  0  0  0  0  0  0  0  0
   -4.5137   -8.5559   -8.2343 C   0  0  0  0  0  0  0  0  0  0  0  0
   -3.2519   -8.9810   -8.3872 C   0  0  0  0  0  0  0  0  0  0  0  0
   -2.1770   -8.8273   -7.3821 C   0  0  0  0  0  0  0  0  0  0  0  0
   -2.3541   -8.9462   -5.7079 S   0  0  0  0  0  0  0  0  0  0  0  0
   -0.8309   -8.5740   -7.6471 C   0  0  0  0  0  0  0  0  0  0  0  0
   -0.2769   -8.3669   -8.9162 C   0  0  0  0  0  0  0  0  0  0  0  0
    1.0966   -8.0688   -9.0343 C   0  0  0  0  0  0  0  0  0  0  0  0
    1.7022   -7.8419  -10.2804 O   0  0  0  0  0  0  0  0  0  0  0  0
    1.0105   -7.8460  -11.5264 C   0  0  0  0  0  0  0  0  0  0  0  0
    1.9034   -7.9905   -7.8814 C   0  0  0  0  0  0  0  0  0  0  0  0
    3.2698   -7.7099   -8.0484 O   0  0  0  0  0  0  0  0  0  0  0  0
    4.2094   -7.6001   -6.9840 C   0  0  0  0  0  0  0  0  0  0  0  0
    1.3335   -8.1897   -6.6070 C   0  0  0  0  0  0  0  0  0  0  0  0
   -0.0335   -8.4732   -6.4931 C   0  0  0  0  0  0  0  0  0  0  0  0
   -0.7419   -8.6543   -5.2995 C   0  0  0  0  0  0  0  0  0  0  0  0
   -0.2202   -8.4554   -3.9311 C   0  0  0  0  0  0  0  0  0  0  0  0
   -1.0210   -8.4001   -2.8578 C   0  0  0  0  0  0  0  0  0  0  0  0
   -0.5654   -7.8791   -1.5547 C   0  0  0  0  0  0  0  0  0  0  0  0
    0.7282   -7.4731   -1.2159 C   0  0  0  0  0  0  0  0  0  0  0  0
    0.7785   -6.7222   -0.0345 C   0  0  0  0  0  0  0  0  0  0  0  0
    1.9054   -6.0232    0.4457 C   0  0  0  0  0  0  0  0  0  0  0  0
    3.2324   -6.1553   -0.1936 C   0  0  0  0  0  0  0  0  0  0  0  0
    3.8951   -7.3943   -0.1842 C   0  0  0  0  0  0  0  0  0  0  0  0
    5.1529   -7.5251   -0.7809 C   0  0  0  0  0  0  0  0  0  0  0  0
    5.7649   -6.4199   -1.3823 C   0  0  0  0  0  0  0  0  0  0  0  0
    7.3941   -6.5946   -2.1205 S   0  0  0  0  0  0  0  0  0  0  0  0
    8.3146   -6.3762   -0.5558 C   0  0  0  0  0  0  0  0  0  0  0  0
    8.3760   -4.9098   -0.1474 C   0  0  0  0  0  0  0  0  0  0  0  0
    5.0965   -5.1902   -1.4215 C   0  0  0  0  0  0  0  0  0  0  0  0
    5.6640   -4.1173   -2.0311 F   0  0  0  0  0  0  0  0  0  0  0  0
    3.8352   -5.0577   -0.8288 C   0  0  0  0  0  0  0  0  0  0  0  0
    1.6864   -5.1319    1.5091 C   0  0  0  0  0  0  0  0  0  0  0  0
    0.4360   -4.9746    2.1187 C   0  0  0  0  0  0  0  0  0  0  0  0
   -0.6799   -5.7113    1.6663 C   0  0  0  0  0  0  0  0  0  0  0  0
   -2.0354   -5.5026    2.2212 C   0  0  0  0  0  0  0  0  0  0  0  0
   -2.6522   -4.2427    2.1508 C   0  0  0  0  0  0  0  0  0  0  0  0
   -3.9207   -4.0454    2.7033 C   0  0  0  0  0  0  0  0  0  0  0  0
   -4.5970   -5.1101    3.3103 C   0  0  0  0  0  0  0  0  0  0  0  0
   -6.2042   -4.8262    4.0624 S   0  0  0  0  0  0  0  0  0  0  0  0
   -7.1559   -5.0261    2.5155 C   0  0  0  0  0  0  0  0  0  0  0  0
   -7.4147   -6.4984    2.2176 C   0  0  0  0  0  0  0  0  0  0  0  0
   -3.9945   -6.3745    3.3730 C   0  0  0  0  0  0  0  0  0  0  0  0
   -2.7222   -6.5703    2.8239 C   0  0  0  0  0  0  0  0  0  0  0  0
   -4.6263   -7.4091    3.9800 F   0  0  0  0  0  0  0  0  0  0  0  0
   -0.4710   -6.5723    0.5755 C   0  0  0  0  0  0  0  0  0  0  0  0
   -1.6313   -7.3472   -0.3610 S   0  0  0  0  0  0  0  0  0  0  0  0
    0.4244   -3.9628    3.0934 C   0  0  0  0  0  0  0  0  0  0  0  0
    1.6420   -3.2932    3.1967 C   0  0  0  0  0  0  0  0  0  0  0  0
    2.7509   -3.9900    2.1328 S   0  0  0  0  0  0  0  0  0  0  0  0
    1.8036   -1.9732    3.8163 C   0  0  0  0  0  0  0  0  0  0  0  0
    2.5299   -0.9292    3.2458 C   0  0  0  0  0  0  0  0  0  0  0  0
    2.2382    0.3156    3.8184 C   0  0  0  0  0  0  0  0  0  0  0  0
    2.6906    1.5678    3.3559 C   0  0  0  0  0  0  0  0  0  0  0  0
    3.5658    1.7057    2.1742 C   0  0  0  0  0  0  0  0  0  0  0  0
    3.1012    1.3339    0.9031 C   0  0  0  0  0  0  0  0  0  0  0  0
    3.8990    1.5429   -0.2260 C   0  0  0  0  0  0  0  0  0  0  0  0
    5.1588    2.1422   -0.0950 C   0  0  0  0  0  0  0  0  0  0  0  0
    6.1447    2.4714   -1.5584 S   0  0  0  0  0  0  0  0  0  0  0  0
    5.5775    4.2003   -1.7483 C   0  0  0  0  0  0  0  0  0  0  0  0
    4.2442    4.2611   -2.4916 C   0  0  0  0  0  0  0  0  0  0  0  0
    5.6401    2.4894    1.1749 C   0  0  0  0  0  0  0  0  0  0  0  0
    6.8627    3.0622    1.3159 F   0  0  0  0  0  0  0  0  0  0  0  0
    4.8408    2.2775    2.3034 C   0  0  0  0  0  0  0  0  0  0  0  0
    2.1863    2.7045    4.0086 C   0  0  0  0  0  0  0  0  0  0  0  0
    1.2861    2.6276    5.0764 C   0  0  0  0  0  0  0  0  0  0  0  0
    0.8403    1.3756    5.5478 C   0  0  0  0  0  0  0  0  0  0  0  0
   -0.1542    1.2499    6.6331 C   0  0  0  0  0  0  0  0  0  0  0  0
   -1.4379    1.7971    6.4850 C   0  0  0  0  0  0  0  0  0  0  0  0
   -2.3636    1.7052    7.5264 C   0  0  0  0  0  0  0  0  0  0  0  0
   -2.0109    1.0885    8.7311 C   0  0  0  0  0  0  0  0  0  0  0  0
   -3.1811    1.0628   10.0913 S   0  0  0  0  0  0  0  0  0  0  0  0
   -2.5344    2.5778   10.8867 C   0  0  0  0  0  0  0  0  0  0  0  0
   -3.0797    3.8361   10.2146 C   0  0  0  0  0  0  0  0  0  0  0  0
   -0.7437    0.5070    8.8705 C   0  0  0  0  0  0  0  0  0  0  0  0
    0.1834    0.5903    7.8261 C   0  0  0  0  0  0  0  0  0  0  0  0
   -0.3977   -0.1143   10.0258 F   0  0  0  0  0  0  0  0  0  0  0  0
    1.3354    0.2358    4.8837 C   0  0  0  0  0  0  0  0  0  0  0  0
    0.8373   -1.3628    5.0585 S   0  0  0  0  0  0  0  0  0  0  0  0
    0.8761    3.8875    5.5408 C   0  0  0  0  0  0  0  0  0  0  0  0
    1.4028    4.9423    4.7930 C   0  0  0  0  0  0  0  0  0  0  0  0
    2.4371    4.3205    3.6155 S   0  0  0  0  0  0  0  0  0  0  0  0
    1.1350    6.3800    4.9806 C   0  0  0  0  0  0  0  0  0  0  0  0
    2.2623    7.5888    4.6685 S   0  0  0  0  0  0  0  0  0  0  0  0
   -0.0421    7.0022    5.4098 C   0  0  0  0  0  0  0  0  0  0  0  0
   -1.2683    6.3747    5.6529 C   0  0  0  0  0  0  0  0  0  0  0  0
   -2.3744    7.1374    6.0811 C   0  0  0  0  0  0  0  0  0  0  0  0
   -3.6263    6.5533    6.3330 O   0  0  0  0  0  0  0  0  0  0  0  0
   -3.9439    5.1905    6.0810 C   0  0  0  0  0  0  0  0  0  0  0  0
   -2.2425    8.5265    6.2631 C   0  0  0  0  0  0  0  0  0  0  0  0
   -3.3505    9.2443    6.7438 O   0  0  0  0  0  0  0  0  0  0  0  0
   -3.3371   10.6257    7.0743 C   0  0  0  0  0  0  0  0  0  0  0  0
   -1.0230    9.1656    5.9557 C   0  0  0  0  0  0  0  0  0  0  0  0
    0.0677    8.4045    5.5144 C   0  0  0  0  0  0  0  0  0  0  0  0
    1.3091    8.9097    5.1075 C   0  0  0  0  0  0  0  0  0  0  0  0
    1.7089   10.3393    5.0956 C   0  0  0  0  0  0  0  0  0  0  0  0
    2.6489   10.8979    4.3174 C   0  0  0  0  0  0  0  0  0  0  0  0
    3.4813   10.1769    3.3423 C   0  0  0  0  0  0  0  0  0  0  0  0
    4.9303    9.4037    3.7194 S   0  0  0  0  0  0  0  0  0  0  0  0
    3.3948   10.2694    1.9527 C   0  0  0  0  0  0  0  0  0  0  0  0
    2.3826   10.9223    1.2430 C   0  0  0  0  0  0  0  0  0  0  0  0
    2.4535   10.9919   -0.1652 C   0  0  0  0  0  0  0  0  0  0  0  0
    1.4707   11.6422   -0.9282 O   0  0  0  0  0  0  0  0  0  0  0  0
    0.3102   12.2663   -0.3914 C   0  0  0  0  0  0  0  0  0  0  0  0
    3.5434   10.4132   -0.8462 C   0  0  0  0  0  0  0  0  0  0  0  0
    3.5867   10.5271   -2.2460 O   0  0  0  0  0  0  0  0  0  0  0  0
    4.6361   10.0245   -3.0675 C   0  0  0  0  0  0  0  0  0  0  0  0
    4.5555    9.7469   -0.1204 C   0  0  0  0  0  0  0  0  0  0  0  0
    4.4664    9.6590    1.2751 C   0  0  0  0  0  0  0  0  0  0  0  0
    5.4130    9.0825    2.1363 C   0  0  0  0  0  0  0  0  0  0  0  0
    6.6514    8.3574    1.8016 C   0  0  0  0  0  0  0  0  0  0  0  0
    6.7185    7.4679    0.8131 C   0  0  0  0  0  0  0  0  0  0  0  0
   -7.0752   -6.5804   -4.4055 H   0  0  0  0  0  0  0  0  0  0  0  0
   -5.4672   -4.4844   -4.0652 H   0  0  0  0  0  0  0  0  0  0  0  0
   -4.9602   -2.1329   -3.7837 H   0  0  0  0  0  0  0  0  0  0  0  0
   -3.3558   -1.4570   -3.3186 H   0  0  0  0  0  0  0  0  0  0  0  0
   -3.8353   -3.0925   -2.7251 H   0  0  0  0  0  0  0  0  0  0  0  0
   -1.5307   -4.4426   -8.8554 H   0  0  0  0  0  0  0  0  0  0  0  0
   -0.5148   -5.3170   -7.6207 H   0  0  0  0  0  0  0  0  0  0  0  0
   -0.1822   -3.5884   -8.0195 H   0  0  0  0  0  0  0  0  0  0  0  0
   -2.8520   -6.2178   -7.9374 H   0  0  0  0  0  0  0  0  0  0  0  0
   -5.2379   -8.8299   -8.9920 H   0  0  0  0  0  0  0  0  0  0  0  0
   -3.0020   -9.4868   -9.3142 H   0  0  0  0  0  0  0  0  0  0  0  0
   -0.9054   -8.4211   -9.7913 H   0  0  0  0  0  0  0  0  0  0  0  0
    0.5679   -8.8472  -11.7154 H   0  0  0  0  0  0  0  0  0  0  0  0
    0.2164   -7.0718  -11.5250 H   0  0  0  0  0  0  0  0  0  0  0  0
    1.7292   -7.6144  -12.3393 H   0  0  0  0  0  0  0  0  0  0  0  0
    4.2602   -8.5523   -6.4162 H   0  0  0  0  0  0  0  0  0  0  0  0
    3.9274   -6.7651   -6.3097 H   0  0  0  0  0  0  0  0  0  0  0  0
    5.2144   -7.3899   -7.4100 H   0  0  0  0  0  0  0  0  0  0  0  0
    1.9515   -8.1236   -5.7256 H   0  0  0  0  0  0  0  0  0  0  0  0
    0.8305   -8.2402   -3.8205 H   0  0  0  0  0  0  0  0  0  0  0  0
   -2.0797   -8.5987   -2.9671 H   0  0  0  0  0  0  0  0  0  0  0  0
    1.5921   -7.6302   -1.8459 H   0  0  0  0  0  0  0  0  0  0  0  0
    3.4382   -8.2550    0.2957 H   0  0  0  0  0  0  0  0  0  0  0  0
    5.6580   -8.4834   -0.7573 H   0  0  0  0  0  0  0  0  0  0  0  0
    7.8524   -6.9791    0.2556 H   0  0  0  0  0  0  0  0  0  0  0  0
    9.3498   -6.7472   -0.7090 H   0  0  0  0  0  0  0  0  0  0  0  0
    8.7856   -4.2957   -0.9749 H   0  0  0  0  0  0  0  0  0  0  0  0
    7.3647   -4.5402    0.1177 H   0  0  0  0  0  0  0  0  0  0  0  0
    9.0293   -4.7971    0.7427 H   0  0  0  0  0  0  0  0  0  0  0  0
    3.3273   -4.1002   -0.8638 H   0  0  0  0  0  0  0  0  0  0  0  0
   -2.1444   -3.4101    1.6758 H   0  0  0  0  0  0  0  0  0  0  0  0
   -4.3746   -3.0663    2.6630 H   0  0  0  0  0  0  0  0  0  0  0  0
   -8.1312   -4.5135    2.6443 H   0  0  0  0  0  0  0  0  0  0  0  0
   -6.6302   -4.5512    1.6591 H   0  0  0  0  0  0  0  0  0  0  0  0
   -7.9156   -6.9841    3.0814 H   0  0  0  0  0  0  0  0  0  0  0  0
   -6.4634   -7.0245    1.9980 H   0  0  0  0  0  0  0  0  0  0  0  0
   -8.0754   -6.5819    1.3296 H   0  0  0  0  0  0  0  0  0  0  0  0
   -2.2566   -7.5483    2.8858 H   0  0  0  0  0  0  0  0  0  0  0  0
   -0.4607   -3.6549    3.6339 H   0  0  0  0  0  0  0  0  0  0  0  0
    3.1611   -1.0589    2.3749 H   0  0  0  0  0  0  0  0  0  0  0  0
    2.1175    0.9031    0.7827 H   0  0  0  0  0  0  0  0  0  0  0  0
    3.5273    1.2677   -1.2047 H   0  0  0  0  0  0  0  0  0  0  0  0
    5.4839    4.7008   -0.7594 H   0  0  0  0  0  0  0  0  0  0  0  0
    6.3398    4.7522   -2.3392 H   0  0  0  0  0  0  0  0  0  0  0  0
    3.9477    5.3237   -2.6283 H   0  0  0  0  0  0  0  0  0  0  0  0
    4.3388    3.7831   -3.4902 H   0  0  0  0  0  0  0  0  0  0  0  0
    3.4468    3.7520   -1.9103 H   0  0  0  0  0  0  0  0  0  0  0  0
    5.2066    2.5775    3.2801 H   0  0  0  0  0  0  0  0  0  0  0  0
   -1.7174    2.2962    5.5665 H   0  0  0  0  0  0  0  0  0  0  0  0
   -3.3482    2.1353    7.4051 H   0  0  0  0  0  0  0  0  0  0  0  0
   -1.4231    2.5864   10.8692 H   0  0  0  0  0  0  0  0  0  0  0  0
   -2.8547    2.5695   11.9526 H   0  0  0  0  0  0  0  0  0  0  0  0
   -2.6865    4.7288   10.7412 H   0  0  0  0  0  0  0  0  0  0  0  0
   -2.7461    3.8871    9.1593 H   0  0  0  0  0  0  0  0  0  0  0  0
   -4.1870    3.8520   10.2561 H   0  0  0  0  0  0  0  0  0  0  0  0
    1.1674    0.1524    7.9471 H   0  0  0  0  0  0  0  0  0  0  0  0
    0.2291    4.0271    6.3962 H   0  0  0  0  0  0  0  0  0  0  0  0
   -1.3794    5.3160    5.4816 H   0  0  0  0  0  0  0  0  0  0  0  0
   -5.0051    5.0051    6.3516 H   0  0  0  0  0  0  0  0  0  0  0  0
   -3.8082    4.9580    5.0016 H   0  0  0  0  0  0  0  0  0  0  0  0
   -3.3001    4.5290    6.6991 H   0  0  0  0  0  0  0  0  0  0  0  0
   -2.5615   10.8284    7.8441 H   0  0  0  0  0  0  0  0  0  0  0  0
   -4.3277   10.9132    7.4873 H   0  0  0  0  0  0  0  0  0  0  0  0
   -3.1427   11.2317    6.1647 H   0  0  0  0  0  0  0  0  0  0  0  0
   -0.9358   10.2384    6.0466 H   0  0  0  0  0  0  0  0  0  0  0  0
    1.1474   11.0186    5.7247 H   0  0  0  0  0  0  0  0  0  0  0  0
    2.7657   11.9749    4.3544 H   0  0  0  0  0  0  0  0  0  0  0  0
    1.5635   11.3797    1.7810 H   0  0  0  0  0  0  0  0  0  0  0  0
   -0.2683   12.7264   -1.2200 H   0  0  0  0  0  0  0  0  0  0  0  0
   -0.3338   11.5134    0.1137 H   0  0  0  0  0  0  0  0  0  0  0  0
    0.6020   13.0667    0.3218 H   0  0  0  0  0  0  0  0  0  0  0  0
    4.7169    8.9249   -2.9496 H   0  0  0  0  0  0  0  0  0  0  0  0
    4.4041   10.2508   -4.1293 H   0  0  0  0  0  0  0  0  0  0  0  0
    5.5980   10.5120   -2.8024 H   0  0  0  0  0  0  0  0  0  0  0  0
    5.4131    9.3395   -0.6356 H   0  0  0  0  0  0  0  0  0  0  0  0
    7.5025    8.4761    2.4535 H   0  0  0  0  0  0  0  0  0  0  0  0
    7.6420    6.9312    0.6358 H   0  0  0  0  0  0  0  0  0  0  0  0
    5.8551    7.2311    0.2043 H   0  0  0  0  0  0  0  0  0  0  0  0
  1  2  1  0
  1  3  2  0
  3  4  1  0
  4  5  2  0
  5  6  1  0
  6  7  1  0
  5  8  1  0
  8  9  1  0
  9 10  1  0
  8 11  2  0
 11 12  1  0
 12 13  2  0
 13 14  1  0
 14 15  2  3
 15 16  1  0
 16 17  1  0
 16 18  2  0
 18 19  1  0
 19 20  2  0
 20 21  1  0
 21 22  1  0
 20 23  1  0
 23 24  1  0
 24 25  1  0
 23 26  2  0
 26 27  1  0
 27 28  2  0
 28 29  1  0
 29 30  2  3
 30 31  1  0
 31 32  2  0
 32 33  1  0
 33 34  2  0
 34 35  1  0
 35 36  2  0
 36 37  1  0
 37 38  2  0
 38 39  1  0
 39 40  1  0
 40 41  1  0
 38 42  1  0
 42 43  1  0
 42 44  2  0
 34 45  1  0
 45 46  2  0
 46 47  1  0
 47 48  1  0
 48 49  2  0
 49 50  1  0
 50 51  2  0
 51 52  1  0
 52 53  1  0
 53 54  1  0
 51 55  1  0
 55 56  2  0
 55 57  1  0
 47 58  2  0
 58 59  1  0
 46 60  1  0
 60 61  2  0
 61 62  1  0
 61 63  1  0
 63 64  2  0
 64 65  1  0
 65 66  2  0
 66 67  1  0
 67 68  2  0
 68 69  1  0
 69 70  2  0
 70 71  1  0
 71 72  1  0
 72 73  1  0
 70 74  1  0
 74 75  1  0
 74 76  2  0
 66 77  1  0
 77 78  2  0
 78 79  1  0
 79 80  1  0
 80 81  2  0
 81 82  1  0
 82 83  2  0
 83 84  1  0
 84 85  1  0
 85 86  1  0
 83 87  1  0
 87 88  2  0
 87 89  1  0
 79 90  2  0
 90 91  1  0
 78 92  1  0
 92 93  2  0
 93 94  1  0
 93 95  1  0
 95 96  1  0
 95 97  2  0
 97 98  1  0
 98 99  2  0
 99100  1  0
100101  1  0
 99102  1  0
102103  1  0
103104  1  0
102105  2  0
105106  1  0
106107  2  0
107108  1  0
108109  2  3
109110  1  0
110111  1  0
110112  2  0
112113  1  0
113114  2  0
114115  1  0
115116  1  0
114117  1  0
117118  1  0
118119  1  0
117120  2  0
120121  1  0
121122  2  0
122123  1  0
123124  2  3
 13  2  1  0
 28 17  1  0
 59 31  1  0
 91 63  1  0
107 96  1  0
122111  1  0
 12  3  1  0
 27 18  1  0
 58 33  1  0
 90 65  1  0
106 97  1  0
121112  1  0
 44 35  1  0
 62 45  1  0
 76 67  1  0
 94 77  1  0
 56 48  1  0
 88 80  1  0
  1125  1  0
  4126  1  0
  7127  1  0
  7128  1  0
  7129  1  0
 10130  1  0
 10131  1  0
 10132  1  0
 11133  1  0
 14134  1  0
 15135  1  0
 19136  1  0
 22137  1  0
 22138  1  0
 22139  1  0
 25140  1  0
 25141  1  0
 25142  1  0
 26143  1  0
 29144  1  0
 30145  1  0
 32146  1  0
 36147  1  0
 37148  1  0
 40149  1  0
 40150  1  0
 41151  1  0
 41152  1  0
 41153  1  0
 44154  1  0
 49155  1  0
 50156  1  0
 53157  1  0
 53158  1  0
 54159  1  0
 54160  1  0
 54161  1  0
 56162  1  0
 60163  1  0
 64164  1  0
 68165  1  0
 69166  1  0
 72167  1  0
 72168  1  0
 73169  1  0
 73170  1  0
 73171  1  0
 76172  1  0
 81173  1  0
 82174  1  0
 85175  1  0
 85176  1  0
 86177  1  0
 86178  1  0
 86179  1  0
 88180  1  0
 92181  1  0
 98182  1  0
101183  1  0
101184  1  0
101185  1  0
104186  1  0
104187  1  0
104188  1  0
105189  1  0
108190  1  0
109191  1  0
113192  1  0
116193  1  0
116194  1  0
116195  1  0
119196  1  0
119197  1  0
119198  1  0
120199  1  0
123200  1  0
124201  1  0
124202  1  0
M  END

