
     RDKit          3D

 87 98  0  0  0  0  0  0  0  0999 V2000
    2.6465   -2.2069    0.5854 C   0  0  0  0  0  0  0  0  0  0  0  0
    1.6048   -2.2161    1.4529 C   0  0  0  0  0  0  0  0  0  0  0  0
    1.4077   -3.5881    2.1534 C   0  0  0  0  0  0  0  0  0  0  0  0
    2.5040   -4.3064    1.4980 C   0  0  0  0  0  0  0  0  0  0  0  0
    3.1621   -3.5436    0.6217 C   0  0  0  0  0  0  0  0  0  0  0  0
    4.0615   -4.6712    0.2365 C   0  0  0  0  0  0  0  0  0  0  0  0
    3.3620   -5.4923    1.1892 C   0  0  0  0  0  3  0  0  0  0  0  0
    0.9624   -0.9638    1.9080 C   0  0  0  0  0  0  0  0  0  0  0  0
   -0.2243   -0.8098    2.5664 C   0  0  0  0  0  0  0  0  0  0  0  0
   -0.2976    0.5225    3.3654 C   0  0  0  0  0  0  0  0  0  0  0  0
    1.0075    1.0674    2.9682 C   0  0  0  0  0  0  0  0  0  0  0  0
    1.6811    0.2456    2.1585 C   0  0  0  0  0  0  0  0  0  0  0  0
    2.8775    1.1226    2.1662 C   0  0  0  0  0  0  0  0  0  0  0  0
    2.1638    2.0051    3.0540 C   0  0  0  0  0  3  0  0  0  0  0  0
   -1.2642   -1.8234    2.7643 C   0  0  0  0  0  0  0  0  0  0  0  0
   -1.7823   -2.7652    1.8991 C   0  0  0  0  0  0  0  0  0  0  0  0
   -2.4818   -3.9262    2.6513 C   0  0  0  0  0  0  0  0  0  0  0  0
   -2.2976   -3.4343    4.0207 C   0  0  0  0  0  0  0  0  0  0  0  0
   -1.6349   -2.2810    4.0650 C   0  0  0  0  0  0  0  0  0  0  0  0
   -1.7558   -2.2069    5.5486 C   0  0  0  0  0  0  0  0  0  0  0  0
   -2.4628   -3.4586    5.5061 C   0  0  0  0  0  3  0  0  0  0  0  0
   -2.0619   -2.6025    0.4302 C   0  0  0  0  0  0  0  0  0  0  0  0
   -2.0277   -1.5348   -0.4332 C   0  0  0  0  0  0  0  0  0  0  0  0
   -2.7124   -1.7994   -1.7964 C   0  0  0  0  0  0  0  0  0  0  0  0
   -3.1177   -3.1806   -1.5430 C   0  0  0  0  0  0  0  0  0  0  0  0
   -2.7405   -3.6123   -0.3401 C   0  0  0  0  0  0  0  0  0  0  0  0
   -3.3338   -4.9596   -0.5925 C   0  0  0  0  0  0  0  0  0  0  0  0
   -3.7420   -4.4964   -1.8869 C   0  0  0  0  0  3  0  0  0  0  0  0
   -1.2748   -0.2921   -0.2627 C   0  0  0  0  0  0  0  0  0  0  0  0
   -1.9156    1.1578    0.3345 S   0  0  0  0  0  0  0  0  0  0  0  0
   -0.0781    0.0135   -0.9163 C   0  0  0  0  0  0  0  0  0  0  0  0
    0.6961   -0.8836   -1.6626 C   0  0  0  0  0  0  0  0  0  0  0  0
    1.8805   -0.4383   -2.2854 C   0  0  0  0  0  0  0  0  0  0  0  0
    2.6831   -1.3014   -3.0531 O   0  0  0  0  0  0  0  0  0  0  0  0
    2.4277   -2.6904   -3.2380 C   0  0  0  0  0  0  0  0  0  0  0  0
    2.2956    0.9000   -2.1265 C   0  0  0  0  0  0  0  0  0  0  0  0
    3.4984    1.2921   -2.7469 O   0  0  0  0  0  0  0  0  0  0  0  0
    4.0997    2.5789   -2.6071 C   0  0  0  0  0  0  0  0  0  0  0  0
    1.5069    1.8045   -1.3759 C   0  0  0  0  0  0  0  0  0  0  0  0
    0.3086    1.3574   -0.8092 C   0  0  0  0  0  0  0  0  0  0  0  0
   -0.6214    2.1521   -0.1375 C   0  0  0  0  0  0  0  0  0  0  0  0
   -0.4477    3.5631    0.2412 C   0  0  0  0  0  0  0  0  0  0  0  0
   -1.0631    4.5919   -0.3490 C   0  0  0  0  0  0  0  0  0  0  0  0
   -1.9259    4.5211   -1.5451 C   0  0  0  0  0  0  0  0  0  0  0  0
   -2.6165    5.5759   -2.0592 C   0  0  0  0  0  0  0  0  0  0  0  0
   -3.2781    5.2877   -3.4240 C   0  0  0  0  0  0  0  0  0  0  0  0
   -2.8135    3.8993   -3.5761 C   0  0  0  0  0  0  0  0  0  0  0  0
   -2.0760    3.4775   -2.5334 C   0  0  0  0  0  0  0  0  0  0  0  0
   -1.8523    2.1444   -3.1676 C   0  0  0  0  0  0  0  0  0  0  0  0
   -2.6424    2.5897   -4.2782 C   0  0  0  0  0  3  0  0  0  0  0  0
    3.0685   -1.3578    0.0741 H   0  0  0  0  0  0  0  0  0  0  0  0
    1.5779   -3.5163    3.2500 H   0  0  0  0  0  0  0  0  0  0  0  0
    0.4564   -4.0727    1.8874 H   0  0  0  0  0  0  0  0  0  0  0  0
    5.1241   -4.4801    0.5081 H   0  0  0  0  0  0  0  0  0  0  0  0
    3.9018   -4.9777   -0.8249 H   0  0  0  0  0  0  0  0  0  0  0  0
    2.7492   -6.2713    0.6835 H   0  0  0  0  0  0  0  0  0  0  0  0
   -1.1455    1.1750    3.0433 H   0  0  0  0  0  0  0  0  0  0  0  0
   -0.3156    0.3253    4.4691 H   0  0  0  0  0  0  0  0  0  0  0  0
    3.7336    0.6383    2.6730 H   0  0  0  0  0  0  0  0  0  0  0  0
    3.0932    1.5714    1.1585 H   0  0  0  0  0  0  0  0  0  0  0  0
    1.9140    2.9675    2.5609 H   0  0  0  0  0  0  0  0  0  0  0  0
   -3.5687   -3.9850    2.3923 H   0  0  0  0  0  0  0  0  0  0  0  0
   -1.9564   -4.8957    2.5034 H   0  0  0  0  0  0  0  0  0  0  0  0
   -0.7567   -2.2796    6.0562 H   0  0  0  0  0  0  0  0  0  0  0  0
   -2.4050   -1.3529    5.8550 H   0  0  0  0  0  0  0  0  0  0  0  0
   -1.8517   -4.2895    5.9497 H   0  0  0  0  0  0  0  0  0  0  0  0
   -3.5926   -1.1424   -1.9470 H   0  0  0  0  0  0  0  0  0  0  0  0
   -1.9911   -1.7568   -2.6391 H   0  0  0  0  0  0  0  0  0  0  0  0
   -2.5774   -5.7666   -0.6476 H   0  0  0  0  0  0  0  0  0  0  0  0
   -4.1967   -5.1736    0.0596 H   0  0  0  0  0  0  0  0  0  0  0  0
   -3.1675   -4.9798   -2.7135 H   0  0  0  0  0  0  0  0  0  0  0  0
    0.3897   -1.9172   -1.7531 H   0  0  0  0  0  0  0  0  0  0  0  0
    2.4290   -3.2254   -2.2658 H   0  0  0  0  0  0  0  0  0  0  0  0
    1.4471   -2.8381   -3.7395 H   0  0  0  0  0  0  0  0  0  0  0  0
    3.2360   -3.1056   -3.8880 H   0  0  0  0  0  0  0  0  0  0  0  0
    5.0379    2.6144   -3.1955 H   0  0  0  0  0  0  0  0  0  0  0  0
    3.4032    3.3513   -2.9837 H   0  0  0  0  0  0  0  0  0  0  0  0
    4.3450    2.7636   -1.5405 H   0  0  0  0  0  0  0  0  0  0  0  0
    1.8090    2.8388   -1.2468 H   0  0  0  0  0  0  0  0  0  0  0  0
    0.1961    3.7805    1.0874 H   0  0  0  0  0  0  0  0  0  0  0  0
   -0.8894    5.5746    0.0881 H   0  0  0  0  0  0  0  0  0  0  0  0
   -2.6555    6.5514   -1.5783 H   0  0  0  0  0  0  0  0  0  0  0  0
   -2.8806    5.9356   -4.2225 H   0  0  0  0  0  0  0  0  0  0  0  0
   -4.3830    5.3313   -3.3504 H   0  0  0  0  0  0  0  0  0  0  0  0
   -0.7801    2.0057   -3.4157 H   0  0  0  0  0  0  0  0  0  0  0  0
   -2.3526    1.3191   -2.6059 H   0  0  0  0  0  0  0  0  0  0  0  0
   -2.0190    2.7424   -5.1873 H   0  0  0  0  0  0  0  0  0  0  0  0
  1  2  2  0
  2  3  1  0
  3  4  1  0
  4  5  2  0
  5  6  1  0
  6  7  1  0
  2  8  1  0
  8  9  2  0
  9 10  1  0
 10 11  1  0
 11 12  2  0
 12 13  1  0
 13 14  1  0
  9 15  1  0
 15 16  2  0
 16 17  1  0
 17 18  1  0
 18 19  2  0
 19 20  1  0
 20 21  1  0
 16 22  1  0
 22 23  2  0
 23 24  1  0
 24 25  1  0
 25 26  2  0
 26 27  1  0
 27 28  1  0
 23 29  1  0
 29 30  1  0
 29 31  2  0
 31 32  1  0
 32 33  2  0
 33 34  1  0
 34 35  1  0
 33 36  1  0
 36 37  1  0
 37 38  1  0
 36 39  2  0
 39 40  1  0
 40 41  2  0
 41 42  1  0
 42 43  2  3
 43 44  1  0
 44 45  2  0
 45 46  1  0
 46 47  1  0
 47 48  2  0
 48 49  1  0
 49 50  1  0
  5  1  1  0
 12  8  1  0
 19 15  1  0
 26 22  1  0
 41 30  1  0
 48 44  1  0
  7  4  1  0
 14 11  1  0
 21 18  1  0
 28 25  1  0
 40 31  1  0
 50 47  1  0
  1 51  1  0
  3 52  1  0
  3 53  1  0
  6 54  1  0
  6 55  1  0
  7 56  1  0
 10 57  1  0
 10 58  1  0
 13 59  1  0
 13 60  1  0
 14 61  1  0
 17 62  1  0
 17 63  1  0
 20 64  1  0
 20 65  1  0
 21 66  1  0
 24 67  1  0
 24 68  1  0
 27 69  1  0
 27 70  1  0
 28 71  1  0
 32 72  1  0
 35 73  1  0
 35 74  1  0
 35 75  1  0
 38 76  1  0
 38 77  1  0
 38 78  1  0
 39 79  1  0
 42 80  1  0
 43 81  1  0
 45 82  1  0
 46 83  1  0
 46 84  1  0
 49 85  1  0
 49 86  1  0
 50 87  1  0
M  RAD  5   7   2  14   2  21   2  28   2  50   2
M  END

