
     RDKit          3D

167178  0  0  0  0  0  0  0  0999 V2000
    5.9351    5.0544    0.0595 C   0  0  0  0  0  0  0  0  0  0  0  0
    4.7051    5.4194    0.3963 C   0  0  0  0  0  0  0  0  0  0  0  0
    3.8662    4.2235    0.4305 C   0  0  0  0  0  0  0  0  0  0  0  0
    4.7708    3.1163    0.1305 C   0  0  0  0  0  0  0  0  0  0  0  0
    5.9827    3.6048   -0.1091 C   0  0  0  0  0  0  0  0  0  0  0  0
    4.4337    1.7612    0.2065 O   0  0  0  0  0  0  0  0  0  0  0  0
    5.4001    0.7282    0.3420 C   0  0  0  0  0  0  0  0  0  0  0  0
    2.5608    4.1568    0.7299 C   0  0  0  0  0  0  0  0  0  0  0  0
    1.6838    2.9930    0.5910 C   0  0  0  0  0  0  0  0  0  0  0  0
    0.4707    3.3471    1.0055 C   0  0  0  0  0  0  0  0  0  0  0  0
    0.4835    4.7490    1.4364 C   0  0  0  0  0  0  0  0  0  0  0  0
    1.7162    5.2197    1.2771 C   0  0  0  0  0  0  0  0  0  0  0  0
    2.1608    6.4949    1.6391 O   0  0  0  0  0  0  0  0  0  0  0  0
    1.3141    7.4894    2.2154 C   0  0  0  0  0  0  0  0  0  0  0  0
   -0.6996    2.4512    1.0085 C   0  0  0  0  0  0  0  0  0  0  0  0
   -1.7339    2.6532    1.8338 C   0  0  0  0  0  0  0  0  0  0  0  0
   -2.8838    1.7334    1.8868 C   0  0  0  0  0  0  0  0  0  0  0  0
   -3.6553    1.5774    2.9553 C   0  0  0  0  0  0  0  0  0  0  0  0
   -4.6353    0.5284    2.6651 C   0  0  0  0  0  0  0  0  0  0  0  0
   -4.3774    0.1415    1.2730 C   0  0  0  0  0  0  0  0  0  0  0  0
   -3.3382    0.8376    0.8177 C   0  0  0  0  0  0  0  0  0  0  0  0
   -5.1029   -0.8100    0.5492 O   0  0  0  0  0  0  0  0  0  0  0  0
   -4.8242   -1.1644   -0.8011 C   0  0  0  0  0  0  0  0  0  0  0  0
   -5.4436   -0.0857    3.5459 C   0  0  0  0  0  0  0  0  0  0  0  0
   -6.2176   -1.3069    3.3098 C   0  0  0  0  0  0  0  0  0  0  0  0
   -6.5602   -1.7984    4.4901 C   0  0  0  0  0  0  0  0  0  0  0  0
   -6.1287   -0.9007    5.5576 C   0  0  0  0  0  0  0  0  0  0  0  0
   -5.4865    0.1169    4.9982 C   0  0  0  0  0  0  0  0  0  0  0  0
   -4.9244    1.1991    5.6835 O   0  0  0  0  0  0  0  0  0  0  0  0
   -4.9602    1.3418    7.0981 C   0  0  0  0  0  0  0  0  0  0  0  0
   -7.1574   -3.1190    4.6950 C   0  0  0  0  0  0  0  0  0  0  0  0
   -6.4701   -4.2077    5.0712 C   0  0  0  0  0  0  0  0  0  0  0  0
   -4.9974   -4.3126    5.2412 C   0  0  0  0  0  0  0  0  0  0  0  0
   -4.4279   -5.3564    5.8356 C   0  0  0  0  0  0  0  0  0  0  0  0
   -2.9758   -5.2316    5.7082 C   0  0  0  0  0  0  0  0  0  0  0  0
   -2.7623   -3.9818    4.9764 C   0  0  0  0  0  0  0  0  0  0  0  0
   -3.9440   -3.4477    4.6927 C   0  0  0  0  0  0  0  0  0  0  0  0
   -1.5160   -3.4567    4.6069 O   0  0  0  0  0  0  0  0  0  0  0  0
   -1.3573   -2.2619    3.8464 C   0  0  0  0  0  0  0  0  0  0  0  0
   -2.0575   -6.1627    6.0253 C   0  0  0  0  0  0  0  0  0  0  0  0
   -0.6286   -6.1275    5.7171 C   0  0  0  0  0  0  0  0  0  0  0  0
   -0.1350   -7.3494    5.9179 C   0  0  0  0  0  0  0  0  0  0  0  0
   -1.1715   -8.2042    6.4903 C   0  0  0  0  0  0  0  0  0  0  0  0
   -2.3005   -7.5063    6.5552 C   0  0  0  0  0  0  0  0  0  0  0  0
   -3.5253   -7.9726    7.0418 O   0  0  0  0  0  0  0  0  0  0  0  0
   -3.7215   -9.2888    7.5415 C   0  0  0  0  0  0  0  0  0  0  0  0
    1.2631   -7.7819    5.7330 C   0  0  0  0  0  0  0  0  0  0  0  0
    2.0968   -7.3979    4.7522 C   0  0  0  0  0  0  0  0  0  0  0  0
    1.7537   -6.5548    3.5879 C   0  0  0  0  0  0  0  0  0  0  0  0
    2.6451   -5.8053    2.9509 C   0  0  0  0  0  0  0  0  0  0  0  0
    1.9640   -5.0896    1.8710 C   0  0  0  0  0  0  0  0  0  0  0  0
    0.5752   -5.5412    1.9355 C   0  0  0  0  0  0  0  0  0  0  0  0
    0.4554   -6.4316    2.9145 C   0  0  0  0  0  0  0  0  0  0  0  0
   -0.4550   -5.1208    1.0839 O   0  0  0  0  0  0  0  0  0  0  0  0
   -1.8131   -5.5326    1.2135 C   0  0  0  0  0  0  0  0  0  0  0  0
    2.5045   -4.2014    1.0200 C   0  0  0  0  0  0  0  0  0  0  0  0
    1.7899   -3.3371    0.0776 C   0  0  0  0  0  0  0  0  0  0  0  0
    2.6770   -2.5468   -0.5143 C   0  0  0  0  0  0  0  0  0  0  0  0
    4.0196   -2.8702   -0.0147 C   0  0  0  0  0  0  0  0  0  0  0  0
    3.9108   -3.8209    0.9037 C   0  0  0  0  0  0  0  0  0  0  0  0
    4.9691   -4.3697    1.6408 O   0  0  0  0  0  0  0  0  0  0  0  0
    6.2943   -3.8492    1.6107 C   0  0  0  0  0  0  0  0  0  0  0  0
    2.3156   -1.3990   -1.3727 C   0  0  0  0  0  0  0  0  0  0  0  0
    3.2389   -0.6588   -1.9968 C   0  0  0  0  0  0  0  0  0  0  0  0
    2.9188    0.6064   -2.6915 C   0  0  0  0  0  0  0  0  0  0  0  0
    1.4006    1.3321   -2.7769 S   0  0  0  0  0  0  0  0  0  0  0  0
    3.8341    1.5071   -3.2390 C   0  0  0  0  0  0  0  0  0  0  0  0
    5.2187    1.3267   -3.3173 C   0  0  0  0  0  0  0  0  0  0  0  0
    6.0327    2.3628   -3.8161 C   0  0  0  0  0  0  0  0  0  0  0  0
    7.4295    2.2380   -3.8861 O   0  0  0  0  0  0  0  0  0  0  0  0
    8.1624    1.0948   -3.4522 C   0  0  0  0  0  0  0  0  0  0  0  0
    5.4489    3.5656   -4.2605 C   0  0  0  0  0  0  0  0  0  0  0  0
    6.3015    4.5713   -4.7498 O   0  0  0  0  0  0  0  0  0  0  0  0
    5.8557    5.8173   -5.2736 C   0  0  0  0  0  0  0  0  0  0  0  0
    4.0471    3.7295   -4.2094 C   0  0  0  0  0  0  0  0  0  0  0  0
    3.2488    2.7018   -3.6967 C   0  0  0  0  0  0  0  0  0  0  0  0
    1.8604    2.7512   -3.5524 C   0  0  0  0  0  0  0  0  0  0  0  0
    1.0174    3.9478   -3.7444 C   0  0  0  0  0  0  0  0  0  0  0  0
   -0.1450    3.9956   -4.4099 C   0  0  0  0  0  0  0  0  0  0  0  0
   -0.8114    2.8551   -5.0552 C   0  0  0  0  0  0  0  0  0  0  0  0
   -1.2313    2.8633   -6.3156 C   0  0  0  0  0  0  0  0  0  0  0  0
   -2.0350    1.6574   -6.5447 C   0  0  0  0  0  0  0  0  0  0  0  0
   -2.0350    0.9557   -5.2589 C   0  0  0  0  0  0  0  0  0  0  0  0
   -1.3472    1.6723   -4.3796 C   0  0  0  0  0  0  0  0  0  0  0  0
   -2.6513   -0.2764   -5.0045 O   0  0  0  0  0  0  0  0  0  0  0  0
   -2.4446   -1.0192   -3.8092 C   0  0  0  0  0  0  0  0  0  0  0  0
   -2.7043    1.3267   -7.6635 C   0  0  0  0  0  0  0  0  0  0  0  0
   -3.6209    0.1992   -7.8464 C   0  0  0  0  0  0  0  0  0  0  0  0
   -4.1427    0.2760   -9.0686 C   0  0  0  0  0  0  0  0  0  0  0  0
   -3.5791    1.4392   -9.7628 C   0  0  0  0  0  0  0  0  0  0  0  0
   -2.7301    2.0462   -8.9409 C   0  0  0  0  0  0  0  0  0  0  0  0
   -1.9814    3.1918   -9.2421 O   0  0  0  0  0  0  0  0  0  0  0  0
   -2.0213    3.8472  -10.5072 C   0  0  0  0  0  0  0  0  0  0  0  0
   -5.1476   -0.6725   -9.5924 C   0  0  0  0  0  0  0  0  0  0  0  0
   -5.7025   -0.5484  -10.7987 C   0  0  0  0  0  0  0  0  0  0  0  0
    6.7716    5.7304   -0.0573 H   0  0  0  0  0  0  0  0  0  0  0  0
    4.4030    6.4394    0.5832 H   0  0  0  0  0  0  0  0  0  0  0  0
    6.8661    3.0247   -0.3391 H   0  0  0  0  0  0  0  0  0  0  0  0
    6.0521    0.9310    1.2170 H   0  0  0  0  0  0  0  0  0  0  0  0
    4.8755   -0.2317    0.5130 H   0  0  0  0  0  0  0  0  0  0  0  0
    6.0140    0.6526   -0.5793 H   0  0  0  0  0  0  0  0  0  0  0  0
    1.9442    2.0180    0.2090 H   0  0  0  0  0  0  0  0  0  0  0  0
   -0.3510    5.3015    1.8431 H   0  0  0  0  0  0  0  0  0  0  0  0
    0.5237    7.7913    1.4921 H   0  0  0  0  0  0  0  0  0  0  0  0
    1.9253    8.3777    2.4804 H   0  0  0  0  0  0  0  0  0  0  0  0
    0.8442    7.0982    3.1489 H   0  0  0  0  0  0  0  0  0  0  0  0
   -0.6779    1.5794    0.3714 H   0  0  0  0  0  0  0  0  0  0  0  0
   -1.6997    3.4643    2.5513 H   0  0  0  0  0  0  0  0  0  0  0  0
   -3.5216    2.1102    3.8867 H   0  0  0  0  0  0  0  0  0  0  0  0
   -2.9153    0.7620   -0.1726 H   0  0  0  0  0  0  0  0  0  0  0  0
   -4.9644   -0.2800   -1.4587 H   0  0  0  0  0  0  0  0  0  0  0  0
   -3.7864   -1.5500   -0.8900 H   0  0  0  0  0  0  0  0  0  0  0  0
   -5.5283   -1.9632   -1.1190 H   0  0  0  0  0  0  0  0  0  0  0  0
   -6.3779   -1.8186    2.3750 H   0  0  0  0  0  0  0  0  0  0  0  0
   -6.2991   -1.0517    6.6182 H   0  0  0  0  0  0  0  0  0  0  0  0
   -4.4491    2.2896    7.3789 H   0  0  0  0  0  0  0  0  0  0  0  0
   -6.0087    1.3819    7.4523 H   0  0  0  0  0  0  0  0  0  0  0  0
   -4.4276    0.4951    7.5774 H   0  0  0  0  0  0  0  0  0  0  0  0
   -8.2294   -3.2052    4.5697 H   0  0  0  0  0  0  0  0  0  0  0  0
   -7.0462   -5.1058    5.2623 H   0  0  0  0  0  0  0  0  0  0  0  0
   -4.9705   -6.1779    6.2739 H   0  0  0  0  0  0  0  0  0  0  0  0
   -4.0685   -2.5492    4.1203 H   0  0  0  0  0  0  0  0  0  0  0  0
   -1.8349   -2.3814    2.8505 H   0  0  0  0  0  0  0  0  0  0  0  0
   -1.8179   -1.4045    4.3859 H   0  0  0  0  0  0  0  0  0  0  0  0
   -0.2749   -2.0566    3.7100 H   0  0  0  0  0  0  0  0  0  0  0  0
   -0.0555   -5.2779    5.3737 H   0  0  0  0  0  0  0  0  0  0  0  0
   -1.0437   -9.2327    6.7940 H   0  0  0  0  0  0  0  0  0  0  0  0
   -3.4932  -10.0370    6.7558 H   0  0  0  0  0  0  0  0  0  0  0  0
   -4.7822   -9.4039    7.8469 H   0  0  0  0  0  0  0  0  0  0  0  0
   -3.0758   -9.4643    8.4271 H   0  0  0  0  0  0  0  0  0  0  0  0
    1.6499   -8.4838    6.4611 H   0  0  0  0  0  0  0  0  0  0  0  0
    3.1205   -7.7419    4.8132 H   0  0  0  0  0  0  0  0  0  0  0  0
    3.6829   -5.7187    3.2364 H   0  0  0  0  0  0  0  0  0  0  0  0
   -0.4476   -6.9748    3.1564 H   0  0  0  0  0  0  0  0  0  0  0  0
   -1.8933   -6.6231    1.0202 H   0  0  0  0  0  0  0  0  0  0  0  0
   -2.1898   -5.2940    2.2322 H   0  0  0  0  0  0  0  0  0  0  0  0
   -2.4310   -4.9840    0.4667 H   0  0  0  0  0  0  0  0  0  0  0  0
    0.7200   -3.2660   -0.0571 H   0  0  0  0  0  0  0  0  0  0  0  0
    4.9444   -2.4019   -0.3170 H   0  0  0  0  0  0  0  0  0  0  0  0
    6.9349   -4.4543    2.2829 H   0  0  0  0  0  0  0  0  0  0  0  0
    6.2934   -2.8002    1.9701 H   0  0  0  0  0  0  0  0  0  0  0  0
    6.7087   -3.8955    0.5821 H   0  0  0  0  0  0  0  0  0  0  0  0
    1.2681   -1.1269   -1.4383 H   0  0  0  0  0  0  0  0  0  0  0  0
    4.2675   -0.9639   -1.9566 H   0  0  0  0  0  0  0  0  0  0  0  0
    5.6618    0.3982   -2.9965 H   0  0  0  0  0  0  0  0  0  0  0  0
    7.8637    0.2005   -4.0443 H   0  0  0  0  0  0  0  0  0  0  0  0
    7.9849    0.9163   -2.3684 H   0  0  0  0  0  0  0  0  0  0  0  0
    9.2463    1.2746   -3.6116 H   0  0  0  0  0  0  0  0  0  0  0  0
    5.3070    6.3838   -4.4908 H   0  0  0  0  0  0  0  0  0  0  0  0
    5.2002    5.6456   -6.1514 H   0  0  0  0  0  0  0  0  0  0  0  0
    6.7350    6.4112   -5.5955 H   0  0  0  0  0  0  0  0  0  0  0  0
    3.5878    4.6456   -4.5573 H   0  0  0  0  0  0  0  0  0  0  0  0
    1.4420    4.8924   -3.4281 H   0  0  0  0  0  0  0  0  0  0  0  0
   -0.5736    4.9698   -4.5975 H   0  0  0  0  0  0  0  0  0  0  0  0
   -1.0557    3.6714   -7.0093 H   0  0  0  0  0  0  0  0  0  0  0  0
   -1.2530    1.4358   -3.3239 H   0  0  0  0  0  0  0  0  0  0  0  0
   -3.0460   -1.9486   -3.8494 H   0  0  0  0  0  0  0  0  0  0  0  0
   -2.7600   -0.4235   -2.9283 H   0  0  0  0  0  0  0  0  0  0  0  0
   -1.3709   -1.2894   -3.7139 H   0  0  0  0  0  0  0  0  0  0  0  0
   -3.8714   -0.5626   -7.1171 H   0  0  0  0  0  0  0  0  0  0  0  0
   -3.8056    1.7475  -10.7734 H   0  0  0  0  0  0  0  0  0  0  0  0
   -1.6748    3.1569  -11.3065 H   0  0  0  0  0  0  0  0  0  0  0  0
   -3.0559    4.1907  -10.7272 H   0  0  0  0  0  0  0  0  0  0  0  0
   -1.3505    4.7315  -10.4829 H   0  0  0  0  0  0  0  0  0  0  0  0
   -5.4569   -1.5025   -8.9665 H   0  0  0  0  0  0  0  0  0  0  0  0
   -6.4322   -1.2733  -11.1290 H   0  0  0  0  0  0  0  0  0  0  0  0
   -5.4366    0.2557  -11.4662 H   0  0  0  0  0  0  0  0  0  0  0  0
  1  2  2  0
  2  3  1  0
  3  4  1  0
  4  5  2  0
  4  6  1  0
  6  7  1  0
  3  8  2  0
  8  9  1  0
  9 10  2  0
 10 11  1  0
 11 12  2  0
 12 13  1  0
 13 14  1  0
 10 15  1  0
 15 16  2  3
 16 17  1  0
 17 18  2  0
 18 19  1  0
 19 20  1  0
 20 21  2  0
 20 22  1  0
 22 23  1  0
 19 24  2  0
 24 25  1  0
 25 26  2  0
 26 27  1  0
 27 28  2  0
 28 29  1  0
 29 30  1  0
 26 31  1  0
 31 32  2  3
 32 33  1  0
 33 34  2  0
 34 35  1  0
 35 36  1  0
 36 37  2  0
 36 38  1  0
 38 39  1  0
 35 40  2  0
 40 41  1  0
 41 42  2  0
 42 43  1  0
 43 44  2  0
 44 45  1  0
 45 46  1  0
 42 47  1  0
 47 48  2  3
 48 49  1  0
 49 50  2  0
 50 51  1  0
 51 52  1  0
 52 53  2  0
 52 54  1  0
 54 55  1  0
 51 56  2  0
 56 57  1  0
 57 58  2  0
 58 59  1  0
 59 60  2  0
 60 61  1  0
 61 62  1  0
 58 63  1  0
 63 64  2  3
 64 65  1  0
 65 66  1  0
 65 67  2  0
 67 68  1  0
 68 69  2  0
 69 70  1  0
 70 71  1  0
 69 72  1  0
 72 73  1  0
 73 74  1  0
 72 75  2  0
 75 76  1  0
 76 77  2  0
 77 78  1  0
 78 79  2  3
 79 80  1  0
 80 81  2  0
 81 82  1  0
 82 83  1  0
 83 84  2  0
 83 85  1  0
 85 86  1  0
 82 87  2  0
 87 88  1  0
 88 89  2  0
 89 90  1  0
 90 91  2  0
 91 92  1  0
 92 93  1  0
 89 94  1  0
 94 95  2  3
  5  1  1  0
 12  8  1  0
 21 17  1  0
 28 24  1  0
 37 33  1  0
 44 40  1  0
 53 49  1  0
 60 56  1  0
 77 66  1  0
 84 80  1  0
 91 87  1  0
 76 67  1  0
  1 96  1  0
  2 97  1  0
  5 98  1  0
  7 99  1  0
  7100  1  0
  7101  1  0
  9102  1  0
 11103  1  0
 14104  1  0
 14105  1  0
 14106  1  0
 15107  1  0
 16108  1  0
 18109  1  0
 21110  1  0
 23111  1  0
 23112  1  0
 23113  1  0
 25114  1  0
 27115  1  0
 30116  1  0
 30117  1  0
 30118  1  0
 31119  1  0
 32120  1  0
 34121  1  0
 37122  1  0
 39123  1  0
 39124  1  0
 39125  1  0
 41126  1  0
 43127  1  0
 46128  1  0
 46129  1  0
 46130  1  0
 47131  1  0
 48132  1  0
 50133  1  0
 53134  1  0
 55135  1  0
 55136  1  0
 55137  1  0
 57138  1  0
 59139  1  0
 62140  1  0
 62141  1  0
 62142  1  0
 63143  1  0
 64144  1  0
 68145  1  0
 71146  1  0
 71147  1  0
 71148  1  0
 74149  1  0
 74150  1  0
 74151  1  0
 75152  1  0
 78153  1  0
 79154  1  0
 81155  1  0
 84156  1  0
 86157  1  0
 86158  1  0
 86159  1  0
 88160  1  0
 90161  1  0
 93162  1  0
 93163  1  0
 93164  1  0
 94165  1  0
 95166  1  0
 95167  1  0
M  END

