
     RDKit          3D

227247  0  0  0  0  0  0  0  0999 V2000
    3.3597    0.1329    8.0636 C   0  0  0  0  0  0  0  0  0  0  0  0
    3.0338    0.9844    7.0132 C   0  0  0  0  0  0  0  0  0  0  0  0
    1.8628    0.6025    6.3386 C   0  0  0  0  0  0  0  0  0  0  0  0
    1.2666    1.2759    5.2556 C   0  0  0  0  0  0  0  0  0  0  0  0
    1.9076    2.4245    4.5929 C   0  0  0  0  0  0  0  0  0  0  0  0
    2.9091    2.1996    3.6328 C   0  0  0  0  0  0  0  0  0  0  0  0
    3.3414    3.2467    2.8191 C   0  0  0  0  0  0  0  0  0  0  0  0
    2.8421    4.5404    3.0103 C   0  0  0  0  0  0  0  0  0  0  0  0
    3.3791    5.8719    1.9244 S   0  0  0  0  0  0  0  0  0  0  0  0
    4.9401    6.2093    2.8118 C   0  0  0  0  0  0  0  0  0  0  0  0
    6.1153    5.6740    2.0003 C   0  0  0  0  0  0  0  0  0  0  0  0
    1.9122    4.7837    4.0311 C   0  0  0  0  0  0  0  0  0  0  0  0
    1.4302    6.0351    4.2375 F   0  0  0  0  0  0  0  0  0  0  0  0
    1.4310    3.7235    4.8028 C   0  0  0  0  0  0  0  0  0  0  0  0
    0.0675    0.7423    4.7558 C   0  0  0  0  0  0  0  0  0  0  0  0
   -0.5149   -0.4248    5.2631 C   0  0  0  0  0  0  0  0  0  0  0  0
    0.0901   -1.1075    6.3409 C   0  0  0  0  0  0  0  0  0  0  0  0
   -0.4710   -2.3619    6.8862 C   0  0  0  0  0  0  0  0  0  0  0  0
   -1.7606   -2.3789    7.4471 C   0  0  0  0  0  0  0  0  0  0  0  0
   -2.3049   -3.5756    7.9209 C   0  0  0  0  0  0  0  0  0  0  0  0
   -1.5696   -4.7627    7.8393 C   0  0  0  0  0  0  0  0  0  0  0  0
   -2.2935   -6.2997    8.4201 S   0  0  0  0  0  0  0  0  0  0  0  0
   -3.0153   -6.7077    6.7936 C   0  0  0  0  0  0  0  0  0  0  0  0
   -3.7262   -8.0506    6.8609 C   0  0  0  0  0  0  0  0  0  0  0  0
   -0.2748   -4.7460    7.3037 C   0  0  0  0  0  0  0  0  0  0  0  0
    0.2713   -3.5483    6.8287 C   0  0  0  0  0  0  0  0  0  0  0  0
    0.4522   -5.8903    7.2253 F   0  0  0  0  0  0  0  0  0  0  0  0
    1.2790   -0.5556    6.8587 C   0  0  0  0  0  0  0  0  0  0  0  0
    2.2064   -1.0955    8.1528 S   0  0  0  0  0  0  0  0  0  0  0  0
   -1.6808   -0.8061    4.5711 C   0  0  0  0  0  0  0  0  0  0  0  0
   -2.0250    0.0904    3.5587 C   0  0  0  0  0  0  0  0  0  0  0  0
   -0.8617    1.3118    3.4773 S   0  0  0  0  0  0  0  0  0  0  0  0
   -3.1706   -0.0462    2.6423 C   0  0  0  0  0  0  0  0  0  0  0  0
   -3.6665   -1.5038    1.9483 S   0  0  0  0  0  0  0  0  0  0  0  0
   -3.9693    0.9728    2.1074 C   0  0  0  0  0  0  0  0  0  0  0  0
   -3.9347    2.3249    2.4721 C   0  0  0  0  0  0  0  0  0  0  0  0
   -4.8067    3.2422    1.8454 C   0  0  0  0  0  0  0  0  0  0  0  0
   -4.8312    4.6027    2.1849 O   0  0  0  0  0  0  0  0  0  0  0  0
   -4.0597    5.1887    3.2276 C   0  0  0  0  0  0  0  0  0  0  0  0
   -5.6974    2.7963    0.8484 C   0  0  0  0  0  0  0  0  0  0  0  0
   -6.5185    3.7427    0.2135 O   0  0  0  0  0  0  0  0  0  0  0  0
   -7.4061    3.4457   -0.8598 C   0  0  0  0  0  0  0  0  0  0  0  0
   -5.7537    1.4279    0.5162 C   0  0  0  0  0  0  0  0  0  0  0  0
   -4.9034    0.5200    1.1588 C   0  0  0  0  0  0  0  0  0  0  0  0
   -4.8726   -0.8633    0.9508 C   0  0  0  0  0  0  0  0  0  0  0  0
   -5.7184   -1.6200    0.0003 C   0  0  0  0  0  0  0  0  0  0  0  0
   -5.6243   -2.9388   -0.1822 C   0  0  0  0  0  0  0  0  0  0  0  0
   -6.3848   -3.6192   -1.2484 C   0  0  0  0  0  0  0  0  0  0  0  0
   -5.6892   -4.7393   -2.2936 S   0  0  0  0  0  0  0  0  0  0  0  0
   -7.6988   -3.3836   -1.6869 C   0  0  0  0  0  0  0  0  0  0  0  0
   -8.6442   -2.5451   -1.0819 C   0  0  0  0  0  0  0  0  0  0  0  0
   -9.9177   -2.3852   -1.6733 C   0  0  0  0  0  0  0  0  0  0  0  0
  -10.8945   -1.5413   -1.1222 O   0  0  0  0  0  0  0  0  0  0  0  0
  -10.6766   -0.6636   -0.0160 C   0  0  0  0  0  0  0  0  0  0  0  0
  -10.2422   -3.0891   -2.8509 C   0  0  0  0  0  0  0  0  0  0  0  0
  -11.5158   -2.9008   -3.4105 O   0  0  0  0  0  0  0  0  0  0  0  0
  -11.9914   -3.5660   -4.5788 C   0  0  0  0  0  0  0  0  0  0  0  0
   -9.2964   -3.9589   -3.4353 C   0  0  0  0  0  0  0  0  0  0  0  0
   -8.0424   -4.1120   -2.8408 C   0  0  0  0  0  0  0  0  0  0  0  0
   -7.0161   -4.9176   -3.3233 C   0  0  0  0  0  0  0  0  0  0  0  0
   -7.0560   -5.7578   -4.5390 C   0  0  0  0  0  0  0  0  0  0  0  0
   -6.1161   -5.7171   -5.4941 C   0  0  0  0  0  0  0  0  0  0  0  0
   -5.0393   -4.7199   -5.5103 C   0  0  0  0  0  0  0  0  0  0  0  0
   -5.1956   -3.3444   -5.3180 C   0  0  0  0  0  0  0  0  0  0  0  0
   -3.9720   -2.6746   -5.1843 C   0  0  0  0  0  0  0  0  0  0  0  0
   -3.7946   -1.3088   -4.8677 C   0  0  0  0  0  0  0  0  0  0  0  0
   -4.9364   -0.3846   -4.7043 C   0  0  0  0  0  0  0  0  0  0  0  0
   -5.1207    0.6725   -5.6061 C   0  0  0  0  0  0  0  0  0  0  0  0
   -6.2217    1.5230   -5.4693 C   0  0  0  0  0  0  0  0  0  0  0  0
   -7.1399    1.3235   -4.4292 C   0  0  0  0  0  0  0  0  0  0  0  0
   -8.5837    2.3824   -4.2922 S   0  0  0  0  0  0  0  0  0  0  0  0
   -9.6413    1.3673   -5.3952 C   0  0  0  0  0  0  0  0  0  0  0  0
  -10.0514    0.0496   -4.7418 C   0  0  0  0  0  0  0  0  0  0  0  0
   -6.9235    0.3015   -3.4952 C   0  0  0  0  0  0  0  0  0  0  0  0
   -7.7817    0.1285   -2.4601 F   0  0  0  0  0  0  0  0  0  0  0  0
   -5.8321   -0.5570   -3.6402 C   0  0  0  0  0  0  0  0  0  0  0  0
   -2.4772   -0.8758   -4.6412 C   0  0  0  0  0  0  0  0  0  0  0  0
   -1.3816   -1.7379   -4.7406 C   0  0  0  0  0  0  0  0  0  0  0  0
   -1.5530   -3.0847   -5.1186 C   0  0  0  0  0  0  0  0  0  0  0  0
   -0.4174   -4.0226   -5.2095 C   0  0  0  0  0  0  0  0  0  0  0  0
    0.2634   -4.4287   -4.0519 C   0  0  0  0  0  0  0  0  0  0  0  0
    1.3802   -5.2582   -4.1534 C   0  0  0  0  0  0  0  0  0  0  0  0
    1.8338   -5.6742   -5.4134 C   0  0  0  0  0  0  0  0  0  0  0  0
    3.3432   -6.6491   -5.5323 S   0  0  0  0  0  0  0  0  0  0  0  0
    4.4297   -5.2328   -5.9342 C   0  0  0  0  0  0  0  0  0  0  0  0
    4.6343   -4.3081   -4.7394 C   0  0  0  0  0  0  0  0  0  0  0  0
    1.1289   -5.3051   -6.5658 C   0  0  0  0  0  0  0  0  0  0  0  0
    0.0047   -4.4815   -6.4668 C   0  0  0  0  0  0  0  0  0  0  0  0
    1.5460   -5.7165   -7.7900 F   0  0  0  0  0  0  0  0  0  0  0  0
   -2.8687   -3.5231   -5.3250 C   0  0  0  0  0  0  0  0  0  0  0  0
   -3.3987   -5.0983   -5.5869 S   0  0  0  0  0  0  0  0  0  0  0  0
   -0.1803   -1.1476   -4.3365 C   0  0  0  0  0  0  0  0  0  0  0  0
   -0.3371    0.1624   -3.8938 C   0  0  0  0  0  0  0  0  0  0  0  0
   -1.9645    0.6002   -4.0058 S   0  0  0  0  0  0  0  0  0  0  0  0
    0.6439    0.8099   -3.0244 C   0  0  0  0  0  0  0  0  0  0  0  0
    1.1949    0.1622   -1.9287 C   0  0  0  0  0  0  0  0  0  0  0  0
    2.3458    0.7892   -1.4459 C   0  0  0  0  0  0  0  0  0  0  0  0
    3.1646    0.2949   -0.4192 C   0  0  0  0  0  0  0  0  0  0  0  0
    2.8515   -0.9736    0.2686 C   0  0  0  0  0  0  0  0  0  0  0  0
    2.3058   -0.9582    1.5618 C   0  0  0  0  0  0  0  0  0  0  0  0
    2.0185   -2.1589    2.2131 C   0  0  0  0  0  0  0  0  0  0  0  0
    2.2290   -3.3834    1.5623 C   0  0  0  0  0  0  0  0  0  0  0  0
    1.8577   -4.9218    2.4155 S   0  0  0  0  0  0  0  0  0  0  0  0
    0.0515   -4.8623    2.1238 C   0  0  0  0  0  0  0  0  0  0  0  0
   -0.6774   -4.8589    3.4618 C   0  0  0  0  0  0  0  0  0  0  0  0
    2.7140   -3.3974    0.2473 C   0  0  0  0  0  0  0  0  0  0  0  0
    2.8838   -4.5749   -0.4064 F   0  0  0  0  0  0  0  0  0  0  0  0
    3.0357   -2.1966   -0.3946 C   0  0  0  0  0  0  0  0  0  0  0  0
    4.3567    0.9941   -0.1711 C   0  0  0  0  0  0  0  0  0  0  0  0
    4.7322    2.1342   -0.8957 C   0  0  0  0  0  0  0  0  0  0  0  0
    3.8822    2.6619   -1.8941 C   0  0  0  0  0  0  0  0  0  0  0  0
    4.2559    3.8643   -2.6720 C   0  0  0  0  0  0  0  0  0  0  0  0
    4.3809    3.8104   -4.0708 C   0  0  0  0  0  0  0  0  0  0  0  0
    4.7445    4.9521   -4.7919 C   0  0  0  0  0  0  0  0  0  0  0  0
    4.9936    6.1555   -4.1215 C   0  0  0  0  0  0  0  0  0  0  0  0
    5.4612    7.6224   -5.0446 S   0  0  0  0  0  0  0  0  0  0  0  0
    3.7516    8.2422   -5.2444 C   0  0  0  0  0  0  0  0  0  0  0  0
    3.1458    7.7335   -6.5500 C   0  0  0  0  0  0  0  0  0  0  0  0
    4.9060    6.2068   -2.7256 C   0  0  0  0  0  0  0  0  0  0  0  0
    4.5334    5.0674   -2.0047 C   0  0  0  0  0  0  0  0  0  0  0  0
    5.1750    7.3593   -2.0596 F   0  0  0  0  0  0  0  0  0  0  0  0
    2.6950    1.9446   -2.1580 C   0  0  0  0  0  0  0  0  0  0  0  0
    1.5649    2.1755   -3.3970 S   0  0  0  0  0  0  0  0  0  0  0  0
    6.0407    2.5587   -0.6064 C   0  0  0  0  0  0  0  0  0  0  0  0
    6.6914    1.7357    0.3185 C   0  0  0  0  0  0  0  0  0  0  0  0
    5.6242    0.5238    0.8242 S   0  0  0  0  0  0  0  0  0  0  0  0
    8.1161    1.8623    0.6902 C   0  0  0  0  0  0  0  0  0  0  0  0
    8.9354    3.3313    0.7474 S   0  0  0  0  0  0  0  0  0  0  0  0
    9.0427    0.8514    0.9883 C   0  0  0  0  0  0  0  0  0  0  0  0
    8.8007   -0.5273    1.0001 C   0  0  0  0  0  0  0  0  0  0  0  0
    9.8232   -1.4255    1.3677 C   0  0  0  0  0  0  0  0  0  0  0  0
    9.6101   -2.8147    1.4087 O   0  0  0  0  0  0  0  0  0  0  0  0
    8.3750   -3.4588    1.1062 C   0  0  0  0  0  0  0  0  0  0  0  0
   11.0972   -0.9372    1.7051 C   0  0  0  0  0  0  0  0  0  0  0  0
   12.0838   -1.8605    2.0952 O   0  0  0  0  0  0  0  0  0  0  0  0
   13.4349   -1.5196    2.3868 C   0  0  0  0  0  0  0  0  0  0  0  0
   11.3613    0.4511    1.6416 C   0  0  0  0  0  0  0  0  0  0  0  0
   10.3385    1.3352    1.2646 C   0  0  0  0  0  0  0  0  0  0  0  0
   10.4511    2.7252    1.1505 C   0  0  0  0  0  0  0  0  0  0  0  0
   11.6443    3.5730    1.3127 C   0  0  0  0  0  0  0  0  0  0  0  0
   12.8356    3.2403    0.8152 C   0  0  0  0  0  0  0  0  0  0  0  0
    4.2101    0.2467    8.7221 H   0  0  0  0  0  0  0  0  0  0  0  0
    3.6168    1.8578    6.7599 H   0  0  0  0  0  0  0  0  0  0  0  0
    3.3178    1.2039    3.4860 H   0  0  0  0  0  0  0  0  0  0  0  0
    4.0571    3.0471    2.0332 H   0  0  0  0  0  0  0  0  0  0  0  0
    5.0402    7.3061    2.9292 H   0  0  0  0  0  0  0  0  0  0  0  0
    4.9469    5.7509    3.8242 H   0  0  0  0  0  0  0  0  0  0  0  0
    7.0711    5.9295    2.5085 H   0  0  0  0  0  0  0  0  0  0  0  0
    6.1202    6.1336    0.9852 H   0  0  0  0  0  0  0  0  0  0  0  0
    6.0522    4.5682    1.9009 H   0  0  0  0  0  0  0  0  0  0  0  0
    0.6630    3.9061    5.5479 H   0  0  0  0  0  0  0  0  0  0  0  0
   -2.3473   -1.4669    7.5053 H   0  0  0  0  0  0  0  0  0  0  0  0
   -3.3059   -3.5802    8.3417 H   0  0  0  0  0  0  0  0  0  0  0  0
   -2.2090   -6.7559    6.0270 H   0  0  0  0  0  0  0  0  0  0  0  0
   -3.7447   -5.9237    6.5029 H   0  0  0  0  0  0  0  0  0  0  0  0
   -4.5459   -8.0123    7.6126 H   0  0  0  0  0  0  0  0  0  0  0  0
   -3.0097   -8.8501    7.1405 H   0  0  0  0  0  0  0  0  0  0  0  0
   -4.1600   -8.2897    5.8660 H   0  0  0  0  0  0  0  0  0  0  0  0
    1.2626   -3.5521    6.3928 H   0  0  0  0  0  0  0  0  0  0  0  0
   -2.2555   -1.6949    4.7897 H   0  0  0  0  0  0  0  0  0  0  0  0
   -3.2637    2.6574    3.2514 H   0  0  0  0  0  0  0  0  0  0  0  0
   -4.3126    6.2671    3.3023 H   0  0  0  0  0  0  0  0  0  0  0  0
   -2.9779    5.0938    3.0014 H   0  0  0  0  0  0  0  0  0  0  0  0
   -4.2922    4.7017    4.1986 H   0  0  0  0  0  0  0  0  0  0  0  0
   -8.1971    2.7425   -0.5195 H   0  0  0  0  0  0  0  0  0  0  0  0
   -6.8452    3.0009   -1.7103 H   0  0  0  0  0  0  0  0  0  0  0  0
   -7.8906    4.3788   -1.2047 H   0  0  0  0  0  0  0  0  0  0  0  0
   -6.4531    1.0847   -0.2291 H   0  0  0  0  0  0  0  0  0  0  0  0
   -6.4042   -1.0623   -0.6201 H   0  0  0  0  0  0  0  0  0  0  0  0
   -4.8717   -3.5057    0.3511 H   0  0  0  0  0  0  0  0  0  0  0  0
   -8.4063   -2.0368   -0.1593 H   0  0  0  0  0  0  0  0  0  0  0  0
  -11.6090   -0.0951    0.1827 H   0  0  0  0  0  0  0  0  0  0  0  0
  -10.4249   -1.2498    0.8928 H   0  0  0  0  0  0  0  0  0  0  0  0
   -9.8668    0.0568   -0.2491 H   0  0  0  0  0  0  0  0  0  0  0  0
  -13.0367   -3.2532   -4.7772 H   0  0  0  0  0  0  0  0  0  0  0  0
  -11.3658   -3.2855   -5.4499 H   0  0  0  0  0  0  0  0  0  0  0  0
  -11.9761   -4.6652   -4.4259 H   0  0  0  0  0  0  0  0  0  0  0  0
   -9.5280   -4.5055   -4.3402 H   0  0  0  0  0  0  0  0  0  0  0  0
   -7.8834   -6.4420   -4.6533 H   0  0  0  0  0  0  0  0  0  0  0  0
   -6.1469   -6.4567   -6.2872 H   0  0  0  0  0  0  0  0  0  0  0  0
   -6.1612   -2.8656   -5.2141 H   0  0  0  0  0  0  0  0  0  0  0  0
   -4.4246    0.8214   -6.4270 H   0  0  0  0  0  0  0  0  0  0  0  0
   -6.3696    2.3260   -6.1838 H   0  0  0  0  0  0  0  0  0  0  0  0
   -9.1159    1.1630   -6.3541 H   0  0  0  0  0  0  0  0  0  0  0  0
  -10.5590    1.9479   -5.6247 H   0  0  0  0  0  0  0  0  0  0  0  0
   -9.1839   -0.6420   -4.6888 H   0  0  0  0  0  0  0  0  0  0  0  0
  -10.4454    0.2308   -3.7186 H   0  0  0  0  0  0  0  0  0  0  0  0
  -10.8427   -0.4461   -5.3481 H   0  0  0  0  0  0  0  0  0  0  0  0
   -5.6839   -1.3647   -2.9330 H   0  0  0  0  0  0  0  0  0  0  0  0
   -0.0607   -4.0856   -3.0743 H   0  0  0  0  0  0  0  0  0  0  0  0
    1.9127   -5.5528   -3.2563 H   0  0  0  0  0  0  0  0  0  0  0  0
    5.4160   -5.6326   -6.2372 H   0  0  0  0  0  0  0  0  0  0  0  0
    4.0180   -4.6561   -6.7888 H   0  0  0  0  0  0  0  0  0  0  0  0
    3.6792   -3.8291   -4.4440 H   0  0  0  0  0  0  0  0  0  0  0  0
    5.0516   -4.8738   -3.8788 H   0  0  0  0  0  0  0  0  0  0  0  0
    5.3449   -3.4985   -5.0086 H   0  0  0  0  0  0  0  0  0  0  0  0
   -0.5205   -4.1730   -7.3629 H   0  0  0  0  0  0  0  0  0  0  0  0
    0.7570   -1.6801   -4.2686 H   0  0  0  0  0  0  0  0  0  0  0  0
    0.8122   -0.7712   -1.5491 H   0  0  0  0  0  0  0  0  0  0  0  0
    2.0733   -0.0176    2.0463 H   0  0  0  0  0  0  0  0  0  0  0  0
    1.6098   -2.1363    3.2160 H   0  0  0  0  0  0  0  0  0  0  0  0
   -0.2465   -5.7595    1.5427 H   0  0  0  0  0  0  0  0  0  0  0  0
   -0.2520   -3.9623    1.5470 H   0  0  0  0  0  0  0  0  0  0  0  0
   -0.4022   -5.7659    4.0513 H   0  0  0  0  0  0  0  0  0  0  0  0
   -1.7825   -4.8559    3.3022 H   0  0  0  0  0  0  0  0  0  0  0  0
   -0.3997   -3.9468    4.0388 H   0  0  0  0  0  0  0  0  0  0  0  0
    3.4218   -2.2177   -1.4059 H   0  0  0  0  0  0  0  0  0  0  0  0
    4.2111    2.8818   -4.6037 H   0  0  0  0  0  0  0  0  0  0  0  0
    4.8432    4.8969   -5.8689 H   0  0  0  0  0  0  0  0  0  0  0  0
    3.1136    7.9505   -4.3878 H   0  0  0  0  0  0  0  0  0  0  0  0
    3.7891    9.3505   -5.2753 H   0  0  0  0  0  0  0  0  0  0  0  0
    2.1497    8.2094   -6.7085 H   0  0  0  0  0  0  0  0  0  0  0  0
    3.0175    6.6282   -6.5098 H   0  0  0  0  0  0  0  0  0  0  0  0
    3.8042    8.0054   -7.4020 H   0  0  0  0  0  0  0  0  0  0  0  0
    4.4611    5.1200   -0.9240 H   0  0  0  0  0  0  0  0  0  0  0  0
    6.5376    3.3821   -1.1030 H   0  0  0  0  0  0  0  0  0  0  0  0
    7.8388   -0.9138    0.7167 H   0  0  0  0  0  0  0  0  0  0  0  0
    7.5784   -3.1094    1.7957 H   0  0  0  0  0  0  0  0  0  0  0  0
    8.4926   -4.5540    1.2281 H   0  0  0  0  0  0  0  0  0  0  0  0
    8.0874   -3.2514    0.0545 H   0  0  0  0  0  0  0  0  0  0  0  0
   13.9351   -1.1226    1.4768 H   0  0  0  0  0  0  0  0  0  0  0  0
   13.9765   -2.4313    2.7140 H   0  0  0  0  0  0  0  0  0  0  0  0
   13.4876   -0.7680    3.2052 H   0  0  0  0  0  0  0  0  0  0  0  0
   12.3354    0.8309    1.9112 H   0  0  0  0  0  0  0  0  0  0  0  0
   11.5287    4.5493    1.7625 H   0  0  0  0  0  0  0  0  0  0  0  0
   12.9787    2.3190    0.2637 H   0  0  0  0  0  0  0  0  0  0  0  0
   13.6770    3.9112    0.9262 H   0  0  0  0  0  0  0  0  0  0  0  0
  1  2  2  0
  2  3  1  0
  3  4  2  0
  4  5  1  0
  5  6  2  0
  6  7  1  0
  7  8  2  0
  8  9  1  0
  9 10  1  0
 10 11  1  0
  8 12  1  0
 12 13  1  0
 12 14  2  0
  4 15  1  0
 15 16  2  0
 16 17  1  0
 17 18  1  0
 18 19  2  0
 19 20  1  0
 20 21  2  0
 21 22  1  0
 22 23  1  0
 23 24  1  0
 21 25  1  0
 25 26  2  0
 25 27  1  0
 17 28  2  0
 28 29  1  0
 16 30  1  0
 30 31  2  0
 31 32  1  0
 31 33  1  0
 33 34  1  0
 33 35  2  0
 35 36  1  0
 36 37  2  0
 37 38  1  0
 38 39  1  0
 37 40  1  0
 40 41  1  0
 41 42  1  0
 40 43  2  0
 43 44  1  0
 44 45  2  0
 45 46  1  0
 46 47  2  3
 47 48  1  0
 48 49  1  0
 48 50  2  0
 50 51  1  0
 51 52  2  0
 52 53  1  0
 53 54  1  0
 52 55  1  0
 55 56  1  0
 56 57  1  0
 55 58  2  0
 58 59  1  0
 59 60  2  0
 60 61  1  0
 61 62  2  3
 62 63  1  0
 63 64  2  0
 64 65  1  0
 65 66  2  0
 66 67  1  0
 67 68  2  0
 68 69  1  0
 69 70  2  0
 70 71  1  0
 71 72  1  0
 72 73  1  0
 70 74  1  0
 74 75  1  0
 74 76  2  0
 66 77  1  0
 77 78  2  0
 78 79  1  0
 79 80  1  0
 80 81  2  0
 81 82  1  0
 82 83  2  0
 83 84  1  0
 84 85  1  0
 85 86  1  0
 83 87  1  0
 87 88  2  0
 87 89  1  0
 79 90  2  0
 90 91  1  0
 78 92  1  0
 92 93  2  0
 93 94  1  0
 93 95  1  0
 95 96  2  0
 96 97  1  0
 97 98  2  0
 98 99  1  0
 99100  2  0
100101  1  0
101102  2  0
102103  1  0
103104  1  0
104105  1  0
102106  1  0
106107  1  0
106108  2  0
 98109  1  0
109110  2  0
110111  1  0
111112  1  0
112113  2  0
113114  1  0
114115  2  0
115116  1  0
116117  1  0
117118  1  0
115119  1  0
119120  2  0
119121  1  0
111122  2  0
122123  1  0
110124  1  0
124125  2  0
125126  1  0
125127  1  0
127128  1  0
127129  2  0
129130  1  0
130131  2  0
131132  1  0
132133  1  0
131134  1  0
134135  1  0
135136  1  0
134137  2  0
137138  1  0
138139  2  0
139140  1  0
140141  2  3
 29  1  1  0
 45 34  1  0
 60 49  1  0
 91 63  1  0
123 95  1  0
139128  1  0
 28  3  1  0
 44 35  1  0
 59 50  1  0
 90 65  1  0
122 97  1  0
138129  1  0
 14  5  1  0
 32 15  1  0
 76 67  1  0
 94 77  1  0
108 99  1  0
126109  1  0
 26 18  1  0
 88 80  1  0
120112  1  0
  1142  1  0
  2143  1  0
  6144  1  0
  7145  1  0
 10146  1  0
 10147  1  0
 11148  1  0
 11149  1  0
 11150  1  0
 14151  1  0
 19152  1  0
 20153  1  0
 23154  1  0
 23155  1  0
 24156  1  0
 24157  1  0
 24158  1  0
 26159  1  0
 30160  1  0
 36161  1  0
 39162  1  0
 39163  1  0
 39164  1  0
 42165  1  0
 42166  1  0
 42167  1  0
 43168  1  0
 46169  1  0
 47170  1  0
 51171  1  0
 54172  1  0
 54173  1  0
 54174  1  0
 57175  1  0
 57176  1  0
 57177  1  0
 58178  1  0
 61179  1  0
 62180  1  0
 64181  1  0
 68182  1  0
 69183  1  0
 72184  1  0
 72185  1  0
 73186  1  0
 73187  1  0
 73188  1  0
 76189  1  0
 81190  1  0
 82191  1  0
 85192  1  0
 85193  1  0
 86194  1  0
 86195  1  0
 86196  1  0
 88197  1  0
 92198  1  0
 96199  1  0
100200  1  0
101201  1  0
104202  1  0
104203  1  0
105204  1  0
105205  1  0
105206  1  0
108207  1  0
113208  1  0
114209  1  0
117210  1  0
117211  1  0
118212  1  0
118213  1  0
118214  1  0
120215  1  0
124216  1  0
130217  1  0
133218  1  0
133219  1  0
133220  1  0
136221  1  0
136222  1  0
136223  1  0
137224  1  0
140225  1  0
141226  1  0
141227  1  0
M  END

