
     RDKit          3D

227247  0  0  0  0  0  0  0  0999 V2000
    6.5774   -2.8139    9.6019 C   0  0  0  0  0  0  0  0  0  0  0  0
    6.0725   -4.0127    8.5343 S   0  0  0  0  0  0  0  0  0  0  0  0
    5.5488   -1.8849    9.7069 C   0  0  0  0  0  0  0  0  0  0  0  0
    5.5812   -0.7549   10.5237 C   0  0  0  0  0  0  0  0  0  0  0  0
    4.4709    0.1159   10.5436 C   0  0  0  0  0  0  0  0  0  0  0  0
    4.4490    1.2750   11.3376 O   0  0  0  0  0  0  0  0  0  0  0  0
    5.4472    1.6151   12.2988 C   0  0  0  0  0  0  0  0  0  0  0  0
    3.3392   -0.1651    9.7480 C   0  0  0  0  0  0  0  0  0  0  0  0
    2.2576    0.7307    9.7932 O   0  0  0  0  0  0  0  0  0  0  0  0
    1.0855    0.6181    8.9901 C   0  0  0  0  0  0  0  0  0  0  0  0
    3.3171   -1.3185    8.9331 C   0  0  0  0  0  0  0  0  0  0  0  0
    4.4216   -2.1757    8.9212 C   0  0  0  0  0  0  0  0  0  0  0  0
    4.5492   -3.3567    8.1823 C   0  0  0  0  0  0  0  0  0  0  0  0
    3.5011   -3.9831    7.3547 C   0  0  0  0  0  0  0  0  0  0  0  0
    3.7101   -5.0780    6.6136 C   0  0  0  0  0  0  0  0  0  0  0  0
    2.5924   -5.7049    5.8878 C   0  0  0  0  0  0  0  0  0  0  0  0
    2.5338   -5.8912    4.2117 S   0  0  0  0  0  0  0  0  0  0  0  0
    1.3313   -6.0115    6.4019 C   0  0  0  0  0  0  0  0  0  0  0  0
    0.9527   -5.9531    7.7492 C   0  0  0  0  0  0  0  0  0  0  0  0
   -0.3858   -6.2294    8.1114 C   0  0  0  0  0  0  0  0  0  0  0  0
   -0.8248   -6.1522    9.4416 O   0  0  0  0  0  0  0  0  0  0  0  0
   -0.0179   -5.7245   10.5353 C   0  0  0  0  0  0  0  0  0  0  0  0
   -1.3234   -6.5879    7.1206 C   0  0  0  0  0  0  0  0  0  0  0  0
   -2.6502   -6.8402    7.5129 O   0  0  0  0  0  0  0  0  0  0  0  0
   -3.7159   -7.1408    6.6202 C   0  0  0  0  0  0  0  0  0  0  0  0
   -0.9198   -6.6730    5.7734 C   0  0  0  0  0  0  0  0  0  0  0  0
    0.4009   -6.3718    5.4230 C   0  0  0  0  0  0  0  0  0  0  0  0
    0.9142   -6.3614    4.1222 C   0  0  0  0  0  0  0  0  0  0  0  0
    0.1036   -6.3392    2.8931 C   0  0  0  0  0  0  0  0  0  0  0  0
   -0.8869   -5.4478    2.8098 C   0  0  0  0  0  0  0  0  0  0  0  0
   -1.9366   -5.4636    1.7756 C   0  0  0  0  0  0  0  0  0  0  0  0
   -1.7938   -6.0141    0.1830 S   0  0  0  0  0  0  0  0  0  0  0  0
   -3.1985   -4.8876    1.9196 C   0  0  0  0  0  0  0  0  0  0  0  0
   -3.6890   -4.2624    3.0760 C   0  0  0  0  0  0  0  0  0  0  0  0
   -4.9468   -3.6309    3.0495 C   0  0  0  0  0  0  0  0  0  0  0  0
   -5.4514   -2.9329    4.1613 O   0  0  0  0  0  0  0  0  0  0  0  0
   -4.7711   -2.7738    5.3988 C   0  0  0  0  0  0  0  0  0  0  0  0
   -5.7241   -3.6634    1.8756 C   0  0  0  0  0  0  0  0  0  0  0  0
   -6.9706   -3.0200    1.8831 O   0  0  0  0  0  0  0  0  0  0  0  0
   -7.7944   -2.8584    0.7376 C   0  0  0  0  0  0  0  0  0  0  0  0
   -5.2390   -4.3250    0.7282 C   0  0  0  0  0  0  0  0  0  0  0  0
   -3.9783   -4.9361    0.7558 C   0  0  0  0  0  0  0  0  0  0  0  0
   -3.3409   -5.5533   -0.3245 C   0  0  0  0  0  0  0  0  0  0  0  0
   -3.8506   -5.5505   -1.7085 C   0  0  0  0  0  0  0  0  0  0  0  0
   -3.0679   -5.2066   -2.7339 C   0  0  0  0  0  0  0  0  0  0  0  0
   -3.6216   -4.4747   -3.8937 C   0  0  0  0  0  0  0  0  0  0  0  0
   -2.8228   -3.8440   -4.8485 C   0  0  0  0  0  0  0  0  0  0  0  0
   -3.4597   -2.7601   -5.4805 C   0  0  0  0  0  0  0  0  0  0  0  0
   -2.8285   -1.8111   -6.3123 C   0  0  0  0  0  0  0  0  0  0  0  0
   -1.4349   -1.9973   -6.7803 C   0  0  0  0  0  0  0  0  0  0  0  0
   -1.1348   -3.0340   -7.6770 C   0  0  0  0  0  0  0  0  0  0  0  0
    0.1744   -3.2188   -8.1287 C   0  0  0  0  0  0  0  0  0  0  0  0
    1.1996   -2.3815   -7.6720 C   0  0  0  0  0  0  0  0  0  0  0  0
    2.8852   -2.6487   -8.2285 S   0  0  0  0  0  0  0  0  0  0  0  0
    3.3250   -3.7933   -6.8710 C   0  0  0  0  0  0  0  0  0  0  0  0
    3.0241   -5.2350   -7.2585 C   0  0  0  0  0  0  0  0  0  0  0  0
    0.9062   -1.3385   -6.7833 C   0  0  0  0  0  0  0  0  0  0  0  0
    1.8868   -0.5096   -6.3499 F   0  0  0  0  0  0  0  0  0  0  0  0
   -0.4057   -1.1544   -6.3307 C   0  0  0  0  0  0  0  0  0  0  0  0
   -3.5253   -0.6066   -6.5324 C   0  0  0  0  0  0  0  0  0  0  0  0
   -4.7947   -0.3611   -6.0073 C   0  0  0  0  0  0  0  0  0  0  0  0
   -5.4897   -1.3732   -5.3144 C   0  0  0  0  0  0  0  0  0  0  0  0
   -6.8760   -1.1617   -4.8323 C   0  0  0  0  0  0  0  0  0  0  0  0
   -7.8929   -0.9018   -5.7659 C   0  0  0  0  0  0  0  0  0  0  0  0
   -9.2124   -0.7311   -5.3449 C   0  0  0  0  0  0  0  0  0  0  0  0
   -9.5311   -0.8226   -3.9878 C   0  0  0  0  0  0  0  0  0  0  0  0
  -11.2306   -0.5813   -3.4534 S   0  0  0  0  0  0  0  0  0  0  0  0
  -11.6377   -2.3623   -3.3613 C   0  0  0  0  0  0  0  0  0  0  0  0
  -11.9186   -2.9384   -4.7443 C   0  0  0  0  0  0  0  0  0  0  0  0
   -8.5236   -1.0642   -3.0456 C   0  0  0  0  0  0  0  0  0  0  0  0
   -7.2004   -1.2309   -3.4649 C   0  0  0  0  0  0  0  0  0  0  0  0
   -8.8292   -1.1474   -1.7285 F   0  0  0  0  0  0  0  0  0  0  0  0
   -4.7715   -2.5532   -5.0352 C   0  0  0  0  0  0  0  0  0  0  0  0
   -5.1417   -3.7301   -3.8993 S   0  0  0  0  0  0  0  0  0  0  0  0
   -5.1393    1.0035   -6.0036 C   0  0  0  0  0  0  0  0  0  0  0  0
   -4.1130    1.8438   -6.4535 C   0  0  0  0  0  0  0  0  0  0  0  0
   -2.8697    0.8570   -7.0239 S   0  0  0  0  0  0  0  0  0  0  0  0
   -3.7243    3.0476   -5.6976 C   0  0  0  0  0  0  0  0  0  0  0  0
   -3.7020    2.9881   -4.2997 C   0  0  0  0  0  0  0  0  0  0  0  0
   -2.5740    3.5851   -3.7192 C   0  0  0  0  0  0  0  0  0  0  0  0
   -2.1017    3.3480   -2.4080 C   0  0  0  0  0  0  0  0  0  0  0  0
   -2.9058    2.6053   -1.4167 C   0  0  0  0  0  0  0  0  0  0  0  0
   -3.2425    1.2579   -1.6243 C   0  0  0  0  0  0  0  0  0  0  0  0
   -4.1846    0.6352   -0.8008 C   0  0  0  0  0  0  0  0  0  0  0  0
   -4.7885    1.3555    0.2390 C   0  0  0  0  0  0  0  0  0  0  0  0
   -6.1549    0.6318    1.1511 S   0  0  0  0  0  0  0  0  0  0  0  0
   -7.4065    1.3767    0.0484 C   0  0  0  0  0  0  0  0  0  0  0  0
   -8.8068    1.1503    0.6010 C   0  0  0  0  0  0  0  0  0  0  0  0
   -4.3863    2.6714    0.5040 C   0  0  0  0  0  0  0  0  0  0  0  0
   -4.9663    3.3793    1.5080 F   0  0  0  0  0  0  0  0  0  0  0  0
   -3.4513    3.2953   -0.3247 C   0  0  0  0  0  0  0  0  0  0  0  0
   -0.7933    3.7684   -2.1175 C   0  0  0  0  0  0  0  0  0  0  0  0
   -0.0123    4.4659   -3.0418 C   0  0  0  0  0  0  0  0  0  0  0  0
   -0.5137    4.7760   -4.3274 C   0  0  0  0  0  0  0  0  0  0  0  0
    0.2958    5.4788   -5.3463 C   0  0  0  0  0  0  0  0  0  0  0  0
    1.5130    4.9434   -5.7951 C   0  0  0  0  0  0  0  0  0  0  0  0
    2.3084    5.6631   -6.6896 C   0  0  0  0  0  0  0  0  0  0  0  0
    1.8896    6.9118   -7.1582 C   0  0  0  0  0  0  0  0  0  0  0  0
    2.9264    7.8258   -8.3077 S   0  0  0  0  0  0  0  0  0  0  0  0
    4.0867    8.4602   -7.0433 C   0  0  0  0  0  0  0  0  0  0  0  0
    3.4673    9.5829   -6.2215 C   0  0  0  0  0  0  0  0  0  0  0  0
    0.6540    7.4307   -6.7509 C   0  0  0  0  0  0  0  0  0  0  0  0
   -0.1405    6.7142   -5.8464 C   0  0  0  0  0  0  0  0  0  0  0  0
    0.2221    8.6277   -7.2192 F   0  0  0  0  0  0  0  0  0  0  0  0
   -1.7881    4.2745   -4.6445 C   0  0  0  0  0  0  0  0  0  0  0  0
   -2.4316    4.0247   -6.1799 S   0  0  0  0  0  0  0  0  0  0  0  0
    1.3181    4.6211   -2.6269 C   0  0  0  0  0  0  0  0  0  0  0  0
    1.6105    3.9524   -1.4416 C   0  0  0  0  0  0  0  0  0  0  0  0
    0.1860    3.2789   -0.8317 S   0  0  0  0  0  0  0  0  0  0  0  0
    2.9521    3.4404   -1.1331 C   0  0  0  0  0  0  0  0  0  0  0  0
    3.8913    3.1208   -2.1142 C   0  0  0  0  0  0  0  0  0  0  0  0
    4.9777    2.3941   -1.6226 C   0  0  0  0  0  0  0  0  0  0  0  0
    6.0269    1.8787   -2.3983 C   0  0  0  0  0  0  0  0  0  0  0  0
    6.0477    1.9996   -3.8683 C   0  0  0  0  0  0  0  0  0  0  0  0
    6.6769    3.0911   -4.4829 C   0  0  0  0  0  0  0  0  0  0  0  0
    6.7280    3.1719   -5.8787 C   0  0  0  0  0  0  0  0  0  0  0  0
    6.1503    2.1688   -6.6678 C   0  0  0  0  0  0  0  0  0  0  0  0
    6.3073    2.2288   -8.4587 S   0  0  0  0  0  0  0  0  0  0  0  0
    4.9193    3.3834   -8.7401 C   0  0  0  0  0  0  0  0  0  0  0  0
    3.5677    2.7140   -8.5017 C   0  0  0  0  0  0  0  0  0  0  0  0
    5.5059    1.0854   -6.0526 C   0  0  0  0  0  0  0  0  0  0  0  0
    4.9378    0.1065   -6.8009 F   0  0  0  0  0  0  0  0  0  0  0  0
    5.4532    1.0043   -4.6584 C   0  0  0  0  0  0  0  0  0  0  0  0
    7.0119    1.1405   -1.7263 C   0  0  0  0  0  0  0  0  0  0  0  0
    6.9643    0.8958   -0.3494 C   0  0  0  0  0  0  0  0  0  0  0  0
    5.8968    1.4015    0.4375 C   0  0  0  0  0  0  0  0  0  0  0  0
    5.8116    1.1456    1.8977 C   0  0  0  0  0  0  0  0  0  0  0  0
    6.8956    1.4593    2.7357 C   0  0  0  0  0  0  0  0  0  0  0  0
    6.8454    1.1565    4.0997 C   0  0  0  0  0  0  0  0  0  0  0  0
    5.6945    0.5848    4.6531 C   0  0  0  0  0  0  0  0  0  0  0  0
    5.6508    0.1809    6.4064 S   0  0  0  0  0  0  0  0  0  0  0  0
    5.0131    1.8092    6.9409 C   0  0  0  0  0  0  0  0  0  0  0  0
    6.1504    2.8091    7.1129 C   0  0  0  0  0  0  0  0  0  0  0  0
    4.5996    0.2862    3.8289 C   0  0  0  0  0  0  0  0  0  0  0  0
    4.6608    0.5618    2.4546 C   0  0  0  0  0  0  0  0  0  0  0  0
    3.4871   -0.2886    4.3501 F   0  0  0  0  0  0  0  0  0  0  0  0
    4.9104    2.1456   -0.2465 C   0  0  0  0  0  0  0  0  0  0  0  0
    3.4779    2.8228    0.3497 S   0  0  0  0  0  0  0  0  0  0  0  0
    8.0274    0.0850    0.0897 C   0  0  0  0  0  0  0  0  0  0  0  0
    8.9019   -0.2767   -0.9311 C   0  0  0  0  0  0  0  0  0  0  0  0
    8.3620    0.3812   -2.3858 S   0  0  0  0  0  0  0  0  0  0  0  0
    7.5261   -2.7822   10.1243 H   0  0  0  0  0  0  0  0  0  0  0  0
    6.4602   -0.5581   11.1271 H   0  0  0  0  0  0  0  0  0  0  0  0
    5.4990    0.8268   13.0797 H   0  0  0  0  0  0  0  0  0  0  0  0
    5.1748    2.5729   12.7807 H   0  0  0  0  0  0  0  0  0  0  0  0
    6.4361    1.7337   11.8056 H   0  0  0  0  0  0  0  0  0  0  0  0
    0.5545   -0.3287    9.2226 H   0  0  0  0  0  0  0  0  0  0  0  0
    0.4095    1.4695    9.2166 H   0  0  0  0  0  0  0  0  0  0  0  0
    1.3574    0.6552    7.9136 H   0  0  0  0  0  0  0  0  0  0  0  0
    2.4548   -1.5371    8.3230 H   0  0  0  0  0  0  0  0  0  0  0  0
    2.5052   -3.5473    7.3690 H   0  0  0  0  0  0  0  0  0  0  0  0
    4.7076   -5.4882    6.4999 H   0  0  0  0  0  0  0  0  0  0  0  0
    1.6845   -5.6998    8.5031 H   0  0  0  0  0  0  0  0  0  0  0  0
   -0.6351   -5.7183   11.4571 H   0  0  0  0  0  0  0  0  0  0  0  0
    0.8350   -6.4239   10.6776 H   0  0  0  0  0  0  0  0  0  0  0  0
    0.3563   -4.6948   10.3489 H   0  0  0  0  0  0  0  0  0  0  0  0
   -3.8424   -6.3160    5.8858 H   0  0  0  0  0  0  0  0  0  0  0  0
   -4.6567   -7.2494    7.1995 H   0  0  0  0  0  0  0  0  0  0  0  0
   -3.5148   -8.0958    6.0863 H   0  0  0  0  0  0  0  0  0  0  0  0
   -1.6293   -6.9655    5.0082 H   0  0  0  0  0  0  0  0  0  0  0  0
    0.2679   -7.0761    2.1136 H   0  0  0  0  0  0  0  0  0  0  0  0
   -0.9848   -4.7183    3.6064 H   0  0  0  0  0  0  0  0  0  0  0  0
   -3.1008   -4.2480    3.9791 H   0  0  0  0  0  0  0  0  0  0  0  0
   -3.7566   -2.3434    5.2351 H   0  0  0  0  0  0  0  0  0  0  0  0
   -4.6860   -3.7561    5.9165 H   0  0  0  0  0  0  0  0  0  0  0  0
   -5.3432   -2.0743    6.0439 H   0  0  0  0  0  0  0  0  0  0  0  0
   -8.7080   -2.3001    1.0289 H   0  0  0  0  0  0  0  0  0  0  0  0
   -7.2468   -2.2813   -0.0372 H   0  0  0  0  0  0  0  0  0  0  0  0
   -8.0949   -3.8487    0.3384 H   0  0  0  0  0  0  0  0  0  0  0  0
   -5.8258   -4.3362   -0.1777 H   0  0  0  0  0  0  0  0  0  0  0  0
   -4.9255   -5.5379   -1.8440 H   0  0  0  0  0  0  0  0  0  0  0  0
   -1.9923   -5.2109   -2.6152 H   0  0  0  0  0  0  0  0  0  0  0  0
   -1.7669   -4.0621   -4.9616 H   0  0  0  0  0  0  0  0  0  0  0  0
   -1.9180   -3.6965   -8.0237 H   0  0  0  0  0  0  0  0  0  0  0  0
    0.3938   -4.0201   -8.8237 H   0  0  0  0  0  0  0  0  0  0  0  0
    4.4100   -3.6898   -6.6653 H   0  0  0  0  0  0  0  0  0  0  0  0
    2.7802   -3.5371   -5.9380 H   0  0  0  0  0  0  0  0  0  0  0  0
    1.9318   -5.3792   -7.3876 H   0  0  0  0  0  0  0  0  0  0  0  0
    3.5460   -5.4974   -8.2024 H   0  0  0  0  0  0  0  0  0  0  0  0
    3.3763   -5.9178   -6.4554 H   0  0  0  0  0  0  0  0  0  0  0  0
   -0.6094   -0.3596   -5.6249 H   0  0  0  0  0  0  0  0  0  0  0  0
   -7.6618   -0.8346   -6.8235 H   0  0  0  0  0  0  0  0  0  0  0  0
   -9.9867   -0.5283   -6.0758 H   0  0  0  0  0  0  0  0  0  0  0  0
  -12.5502   -2.4750   -2.7382 H   0  0  0  0  0  0  0  0  0  0  0  0
  -10.8158   -2.9282   -2.8694 H   0  0  0  0  0  0  0  0  0  0  0  0
  -12.6940   -2.3318   -5.2585 H   0  0  0  0  0  0  0  0  0  0  0  0
  -12.2893   -3.9810   -4.6396 H   0  0  0  0  0  0  0  0  0  0  0  0
  -10.9927   -2.9512   -5.3589 H   0  0  0  0  0  0  0  0  0  0  0  0
   -6.4275   -1.4016   -2.7275 H   0  0  0  0  0  0  0  0  0  0  0  0
   -5.9969    1.3850   -5.4613 H   0  0  0  0  0  0  0  0  0  0  0  0
   -4.3599    2.3277   -3.7493 H   0  0  0  0  0  0  0  0  0  0  0  0
   -2.8147    0.7081   -2.4576 H   0  0  0  0  0  0  0  0  0  0  0  0
   -4.4915   -0.3846   -1.0042 H   0  0  0  0  0  0  0  0  0  0  0  0
   -7.2315    2.4696   -0.0391 H   0  0  0  0  0  0  0  0  0  0  0  0
   -7.3258    0.9232   -0.9598 H   0  0  0  0  0  0  0  0  0  0  0  0
   -9.0266    0.0665    0.6620 H   0  0  0  0  0  0  0  0  0  0  0  0
   -8.8931    1.5996    1.6112 H   0  0  0  0  0  0  0  0  0  0  0  0
   -9.5534    1.6262   -0.0686 H   0  0  0  0  0  0  0  0  0  0  0  0
   -3.2026    4.3376   -0.1585 H   0  0  0  0  0  0  0  0  0  0  0  0
    1.8565    3.9803   -5.4318 H   0  0  0  0  0  0  0  0  0  0  0  0
    3.2639    5.2653   -6.9952 H   0  0  0  0  0  0  0  0  0  0  0  0
    4.9810    8.8572   -7.5674 H   0  0  0  0  0  0  0  0  0  0  0  0
    4.4208    7.6368   -6.3793 H   0  0  0  0  0  0  0  0  0  0  0  0
    3.1173   10.3977   -6.8873 H   0  0  0  0  0  0  0  0  0  0  0  0
    4.2272    9.9933   -5.5240 H   0  0  0  0  0  0  0  0  0  0  0  0
    2.6156    9.2042   -5.6222 H   0  0  0  0  0  0  0  0  0  0  0  0
   -1.0857    7.1327   -5.5187 H   0  0  0  0  0  0  0  0  0  0  0  0
    2.0874    5.0828   -3.2297 H   0  0  0  0  0  0  0  0  0  0  0  0
    3.7556    3.3428   -3.1662 H   0  0  0  0  0  0  0  0  0  0  0  0
    7.1324    3.8692   -3.8799 H   0  0  0  0  0  0  0  0  0  0  0  0
    7.2284    4.0115   -6.3450 H   0  0  0  0  0  0  0  0  0  0  0  0
    5.0303    4.2751   -8.0935 H   0  0  0  0  0  0  0  0  0  0  0  0
    4.9685    3.7260   -9.7944 H   0  0  0  0  0  0  0  0  0  0  0  0
    2.7515    3.3929   -8.8318 H   0  0  0  0  0  0  0  0  0  0  0  0
    3.4250    2.5016   -7.4223 H   0  0  0  0  0  0  0  0  0  0  0  0
    3.5004    1.7669   -9.0773 H   0  0  0  0  0  0  0  0  0  0  0  0
    4.9576    0.1600   -4.1932 H   0  0  0  0  0  0  0  0  0  0  0  0
    7.7878    1.9190    2.3309 H   0  0  0  0  0  0  0  0  0  0  0  0
    7.7035    1.3661    4.7260 H   0  0  0  0  0  0  0  0  0  0  0  0
    4.5115    1.6759    7.9203 H   0  0  0  0  0  0  0  0  0  0  0  0
    4.2624    2.1984    6.2198 H   0  0  0  0  0  0  0  0  0  0  0  0
    5.7670    3.7268    7.6070 H   0  0  0  0  0  0  0  0  0  0  0  0
    6.9510    2.3707    7.7472 H   0  0  0  0  0  0  0  0  0  0  0  0
    6.5746    3.0918    6.1266 H   0  0  0  0  0  0  0  0  0  0  0  0
    3.8205    0.2953    1.8262 H   0  0  0  0  0  0  0  0  0  0  0  0
    8.1615   -0.2571    1.1074 H   0  0  0  0  0  0  0  0  0  0  0  0
    9.7857   -0.8901   -0.8126 H   0  0  0  0  0  0  0  0  0  0  0  0
  1  2  1  0
  1  3  2  0
  3  4  1  0
  4  5  2  0
  5  6  1  0
  6  7  1  0
  5  8  1  0
  8  9  1  0
  9 10  1  0
  8 11  2  0
 11 12  1  0
 12 13  2  0
 13 14  1  0
 14 15  2  3
 15 16  1  0
 16 17  1  0
 16 18  2  0
 18 19  1  0
 19 20  2  0
 20 21  1  0
 21 22  1  0
 20 23  1  0
 23 24  1  0
 24 25  1  0
 23 26  2  0
 26 27  1  0
 27 28  2  0
 28 29  1  0
 29 30  2  3
 30 31  1  0
 31 32  1  0
 31 33  2  0
 33 34  1  0
 34 35  2  0
 35 36  1  0
 36 37  1  0
 35 38  1  0
 38 39  1  0
 39 40  1  0
 38 41  2  0
 41 42  1  0
 42 43  2  0
 43 44  1  0
 44 45  2  3
 45 46  1  0
 46 47  2  0
 47 48  1  0
 48 49  2  0
 49 50  1  0
 50 51  2  0
 51 52  1  0
 52 53  2  0
 53 54  1  0
 54 55  1  0
 55 56  1  0
 53 57  1  0
 57 58  1  0
 57 59  2  0
 49 60  1  0
 60 61  2  0
 61 62  1  0
 62 63  1  0
 63 64  2  0
 64 65  1  0
 65 66  2  0
 66 67  1  0
 67 68  1  0
 68 69  1  0
 66 70  1  0
 70 71  2  0
 70 72  1  0
 62 73  2  0
 73 74  1  0
 61 75  1  0
 75 76  2  0
 76 77  1  0
 76 78  1  0
 78 79  2  0
 79 80  1  0
 80 81  2  0
 81 82  1  0
 82 83  2  0
 83 84  1  0
 84 85  2  0
 85 86  1  0
 86 87  1  0
 87 88  1  0
 85 89  1  0
 89 90  1  0
 89 91  2  0
 81 92  1  0
 92 93  2  0
 93 94  1  0
 94 95  1  0
 95 96  2  0
 96 97  1  0
 97 98  2  0
 98 99  1  0
 99100  1  0
100101  1  0
 98102  1  0
102103  2  0
102104  1  0
 94105  2  0
105106  1  0
 93107  1  0
107108  2  0
108109  1  0
108110  1  0
110111  2  0
111112  1  0
112113  2  0
113114  1  0
114115  2  0
115116  1  0
116117  2  0
117118  1  0
118119  1  0
119120  1  0
117121  1  0
121122  1  0
121123  2  0
113124  1  0
124125  2  0
125126  1  0
126127  1  0
127128  2  0
128129  1  0
129130  2  0
130131  1  0
131132  1  0
132133  1  0
130134  1  0
134135  2  0
134136  1  0
126137  2  0
137138  1  0
125139  1  0
139140  2  0
140141  1  0
 13  2  1  0
 28 17  1  0
 43 32  1  0
 74 46  1  0
106 78  1  0
138110  1  0
 12  3  1  0
 27 18  1  0
 42 33  1  0
 73 48  1  0
105 80  1  0
137112  1  0
 59 50  1  0
 77 60  1  0
 91 82  1  0
109 92  1  0
123114  1  0
141124  1  0
 71 63  1  0
103 95  1  0
135127  1  0
  1142  1  0
  4143  1  0
  7144  1  0
  7145  1  0
  7146  1  0
 10147  1  0
 10148  1  0
 10149  1  0
 11150  1  0
 14151  1  0
 15152  1  0
 19153  1  0
 22154  1  0
 22155  1  0
 22156  1  0
 25157  1  0
 25158  1  0
 25159  1  0
 26160  1  0
 29161  1  0
 30162  1  0
 34163  1  0
 37164  1  0
 37165  1  0
 37166  1  0
 40167  1  0
 40168  1  0
 40169  1  0
 41170  1  0
 44171  1  0
 45172  1  0
 47173  1  0
 51174  1  0
 52175  1  0
 55176  1  0
 55177  1  0
 56178  1  0
 56179  1  0
 56180  1  0
 59181  1  0
 64182  1  0
 65183  1  0
 68184  1  0
 68185  1  0
 69186  1  0
 69187  1  0
 69188  1  0
 71189  1  0
 75190  1  0
 79191  1  0
 83192  1  0
 84193  1  0
 87194  1  0
 87195  1  0
 88196  1  0
 88197  1  0
 88198  1  0
 91199  1  0
 96200  1  0
 97201  1  0
100202  1  0
100203  1  0
101204  1  0
101205  1  0
101206  1  0
103207  1  0
107208  1  0
111209  1  0
115210  1  0
116211  1  0
119212  1  0
119213  1  0
120214  1  0
120215  1  0
120216  1  0
123217  1  0
128218  1  0
129219  1  0
132220  1  0
132221  1  0
133222  1  0
133223  1  0
133224  1  0
135225  1  0
139226  1  0
140227  1  0
M  END

