
     RDKit          3D

252275  0  0  0  0  0  0  0  0999 V2000
   -1.7223   -3.6619    8.4851 C   0  0  0  0  0  0  0  0  0  0  0  0
   -1.5646   -2.4483    7.8230 C   0  0  0  0  0  0  0  0  0  0  0  0
   -1.7049   -2.5495    6.4281 C   0  0  0  0  0  0  0  0  0  0  0  0
   -1.6376   -1.4921    5.4931 C   0  0  0  0  0  0  0  0  0  0  0  0
   -1.3442   -0.0871    5.8784 C   0  0  0  0  0  0  0  0  0  0  0  0
   -2.1653    0.9614    5.4352 C   0  0  0  0  0  0  0  0  0  0  0  0
   -1.7852    2.2919    5.6394 C   0  0  0  0  0  0  0  0  0  0  0  0
   -0.5914    2.5914    6.3075 C   0  0  0  0  0  0  0  0  0  0  0  0
   -0.1037    4.2997    6.5699 S   0  0  0  0  0  0  0  0  0  0  0  0
    0.6470    4.5112    4.9175 C   0  0  0  0  0  0  0  0  0  0  0  0
    1.7327    5.5745    4.9880 C   0  0  0  0  0  0  0  0  0  0  0  0
    0.1950    1.5546    6.8125 C   0  0  0  0  0  0  0  0  0  0  0  0
    1.3280    1.8305    7.5022 F   0  0  0  0  0  0  0  0  0  0  0  0
   -0.1820    0.2253    6.6046 C   0  0  0  0  0  0  0  0  0  0  0  0
   -1.8417   -1.8407    4.1444 C   0  0  0  0  0  0  0  0  0  0  0  0
   -2.1174   -3.1462    3.7120 C   0  0  0  0  0  0  0  0  0  0  0  0
   -2.2529   -4.1827    4.6628 C   0  0  0  0  0  0  0  0  0  0  0  0
   -2.8236   -5.4939    4.3049 C   0  0  0  0  0  0  0  0  0  0  0  0
   -2.0968   -6.4240    3.5513 C   0  0  0  0  0  0  0  0  0  0  0  0
   -2.6466   -7.6851    3.2866 C   0  0  0  0  0  0  0  0  0  0  0  0
   -3.9163   -8.0260    3.7682 C   0  0  0  0  0  0  0  0  0  0  0  0
   -4.5575   -9.6883    3.5291 S   0  0  0  0  0  0  0  0  0  0  0  0
   -5.4697   -9.2796    2.0014 C   0  0  0  0  0  0  0  0  0  0  0  0
   -6.4310  -10.4068    1.6622 C   0  0  0  0  0  0  0  0  0  0  0  0
   -4.6524   -7.0851    4.4983 C   0  0  0  0  0  0  0  0  0  0  0  0
   -4.1083   -5.8278    4.7615 C   0  0  0  0  0  0  0  0  0  0  0  0
   -5.8869   -7.3933    4.9691 F   0  0  0  0  0  0  0  0  0  0  0  0
   -2.0074   -3.8507    6.0077 C   0  0  0  0  0  0  0  0  0  0  0  0
   -2.0711   -4.8594    7.3501 S   0  0  0  0  0  0  0  0  0  0  0  0
   -2.3045   -3.2473    2.3178 C   0  0  0  0  0  0  0  0  0  0  0  0
   -2.1908   -2.0119    1.6778 C   0  0  0  0  0  0  0  0  0  0  0  0
   -1.8666   -0.8192    2.8178 S   0  0  0  0  0  0  0  0  0  0  0  0
   -2.4526   -1.6973    0.2708 C   0  0  0  0  0  0  0  0  0  0  0  0
   -3.0199   -0.4951   -0.1243 C   0  0  0  0  0  0  0  0  0  0  0  0
   -2.9433   -0.2631   -1.4972 C   0  0  0  0  0  0  0  0  0  0  0  0
   -3.3900    0.8967   -2.1557 C   0  0  0  0  0  0  0  0  0  0  0  0
   -4.0331    2.0075   -1.4147 C   0  0  0  0  0  0  0  0  0  0  0  0
   -5.3654    2.3516   -1.6823 C   0  0  0  0  0  0  0  0  0  0  0  0
   -6.0373    3.2604   -0.8631 C   0  0  0  0  0  0  0  0  0  0  0  0
   -5.3854    3.8341    0.2362 C   0  0  0  0  0  0  0  0  0  0  0  0
   -6.3179    4.8269    1.4090 S   0  0  0  0  0  0  0  0  0  0  0  0
   -5.7827    6.4473    0.7615 C   0  0  0  0  0  0  0  0  0  0  0  0
   -6.5663    6.8148   -0.4918 C   0  0  0  0  0  0  0  0  0  0  0  0
   -4.0366    3.5362    0.4725 C   0  0  0  0  0  0  0  0  0  0  0  0
   -3.3887    4.0809    1.5351 F   0  0  0  0  0  0  0  0  0  0  0  0
   -3.3598    2.6414   -0.3583 C   0  0  0  0  0  0  0  0  0  0  0  0
   -3.1568    0.9635   -3.5351 C   0  0  0  0  0  0  0  0  0  0  0  0
   -2.5038   -0.0506   -4.2454 C   0  0  0  0  0  0  0  0  0  0  0  0
   -2.1146   -1.2471   -3.5953 C   0  0  0  0  0  0  0  0  0  0  0  0
   -1.5162   -2.3728   -4.3446 C   0  0  0  0  0  0  0  0  0  0  0  0
   -2.1985   -2.9389   -5.4361 C   0  0  0  0  0  0  0  0  0  0  0  0
   -1.6411   -4.0142   -6.1364 C   0  0  0  0  0  0  0  0  0  0  0  0
   -0.3937   -4.5221   -5.7622 C   0  0  0  0  0  0  0  0  0  0  0  0
    0.2972   -5.9360   -6.6282 S   0  0  0  0  0  0  0  0  0  0  0  0
   -0.3300   -7.1331   -5.3974 C   0  0  0  0  0  0  0  0  0  0  0  0
    0.1990   -8.5250   -5.7069 C   0  0  0  0  0  0  0  0  0  0  0  0
    0.3019   -3.9475   -4.6931 C   0  0  0  0  0  0  0  0  0  0  0  0
   -0.2657   -2.8901   -3.9781 C   0  0  0  0  0  0  0  0  0  0  0  0
    1.5192   -4.4262   -4.3337 F   0  0  0  0  0  0  0  0  0  0  0  0
   -2.3269   -1.3066   -2.1992 C   0  0  0  0  0  0  0  0  0  0  0  0
   -1.8727   -2.5104   -1.0949 S   0  0  0  0  0  0  0  0  0  0  0  0
   -2.1930    0.3180   -5.5703 C   0  0  0  0  0  0  0  0  0  0  0  0
   -2.6048    1.6169   -5.8879 C   0  0  0  0  0  0  0  0  0  0  0  0
   -3.3732    2.2804   -4.5456 S   0  0  0  0  0  0  0  0  0  0  0  0
   -2.1042    2.4355   -7.0026 C   0  0  0  0  0  0  0  0  0  0  0  0
   -1.6131    4.0319   -6.8134 S   0  0  0  0  0  0  0  0  0  0  0  0
   -1.7754    2.0559   -8.3050 C   0  0  0  0  0  0  0  0  0  0  0  0
   -2.0581    0.8237   -8.8948 C   0  0  0  0  0  0  0  0  0  0  0  0
   -1.6812    0.5888  -10.2316 C   0  0  0  0  0  0  0  0  0  0  0  0
   -1.9423   -0.6337  -10.8723 O   0  0  0  0  0  0  0  0  0  0  0  0
   -2.6495   -1.7199  -10.2788 C   0  0  0  0  0  0  0  0  0  0  0  0
   -1.0254    1.5945  -10.9685 C   0  0  0  0  0  0  0  0  0  0  0  0
   -0.6496    1.3122  -12.2908 O   0  0  0  0  0  0  0  0  0  0  0  0
   -0.0273    2.2384  -13.1734 C   0  0  0  0  0  0  0  0  0  0  0  0
   -0.7661    2.8493  -10.3779 C   0  0  0  0  0  0  0  0  0  0  0  0
   -1.1493    3.0793   -9.0522 C   0  0  0  0  0  0  0  0  0  0  0  0
   -0.9540    4.2749   -8.3418 C   0  0  0  0  0  0  0  0  0  0  0  0
   -0.4054    5.5506   -8.8808 C   0  0  0  0  0  0  0  0  0  0  0  0
    0.2911    6.4810   -8.1924 C   0  0  0  0  0  0  0  0  0  0  0  0
    0.7060    6.3576   -6.7850 C   0  0  0  0  0  0  0  0  0  0  0  0
   -0.1319    6.4536   -5.6831 C   0  0  0  0  0  0  0  0  0  0  0  0
    0.4840    6.0365   -4.4886 C   0  0  0  0  0  0  0  0  0  0  0  0
   -0.1758    5.7552   -3.2708 C   0  0  0  0  0  0  0  0  0  0  0  0
   -1.5970    6.1416   -3.0989 C   0  0  0  0  0  0  0  0  0  0  0  0
   -2.5948    5.1743   -2.9241 C   0  0  0  0  0  0  0  0  0  0  0  0
   -3.9407    5.5118   -3.1075 C   0  0  0  0  0  0  0  0  0  0  0  0
   -4.2961    6.8192   -3.4525 C   0  0  0  0  0  0  0  0  0  0  0  0
   -5.9936    7.2065   -3.8969 S   0  0  0  0  0  0  0  0  0  0  0  0
   -5.8748    6.6315   -5.6305 C   0  0  0  0  0  0  0  0  0  0  0  0
   -5.1582    7.6587   -6.5006 C   0  0  0  0  0  0  0  0  0  0  0  0
   -3.3144    7.8134   -3.5030 C   0  0  0  0  0  0  0  0  0  0  0  0
   -3.6497    9.0959   -3.7977 F   0  0  0  0  0  0  0  0  0  0  0  0
   -1.9730    7.4782   -3.3172 C   0  0  0  0  0  0  0  0  0  0  0  0
    0.5470    4.9889   -2.3291 C   0  0  0  0  0  0  0  0  0  0  0  0
    1.9024    4.6704   -2.5083 C   0  0  0  0  0  0  0  0  0  0  0  0
    2.5955    5.1035   -3.6545 C   0  0  0  0  0  0  0  0  0  0  0  0
    4.0484    4.9141   -3.8241 C   0  0  0  0  0  0  0  0  0  0  0  0
    4.9131    5.9946   -3.5985 C   0  0  0  0  0  0  0  0  0  0  0  0
    6.2871    5.8527   -3.8129 C   0  0  0  0  0  0  0  0  0  0  0  0
    6.8089    4.6269   -4.2421 C   0  0  0  0  0  0  0  0  0  0  0  0
    8.5668    4.4760   -4.5968 S   0  0  0  0  0  0  0  0  0  0  0  0
    9.0684    4.0331   -2.8966 C   0  0  0  0  0  0  0  0  0  0  0  0
    9.7330    5.2249   -2.2172 C   0  0  0  0  0  0  0  0  0  0  0  0
    5.9461    3.5417   -4.4618 C   0  0  0  0  0  0  0  0  0  0  0  0
    4.5676    3.6863   -4.2558 C   0  0  0  0  0  0  0  0  0  0  0  0
    6.4360    2.3582   -4.9195 F   0  0  0  0  0  0  0  0  0  0  0  0
    1.8330    5.7154   -4.6598 C   0  0  0  0  0  0  0  0  0  0  0  0
    2.2444    5.8924   -6.2833 S   0  0  0  0  0  0  0  0  0  0  0  0
    2.3879    3.7547   -1.5676 C   0  0  0  0  0  0  0  0  0  0  0  0
    1.4145    3.3019   -0.6815 C   0  0  0  0  0  0  0  0  0  0  0  0
   -0.0356    4.1049   -1.0174 S   0  0  0  0  0  0  0  0  0  0  0  0
    1.4883    1.9909   -0.0097 C   0  0  0  0  0  0  0  0  0  0  0  0
    1.2497    1.6932    1.6462 S   0  0  0  0  0  0  0  0  0  0  0  0
    1.7667    0.7699   -0.6376 C   0  0  0  0  0  0  0  0  0  0  0  0
    1.9864    0.5591   -2.0067 C   0  0  0  0  0  0  0  0  0  0  0  0
    2.3064   -0.7362   -2.4715 C   0  0  0  0  0  0  0  0  0  0  0  0
    2.5353   -1.0016   -3.8326 O   0  0  0  0  0  0  0  0  0  0  0  0
    2.2600   -0.0968   -4.8951 C   0  0  0  0  0  0  0  0  0  0  0  0
    2.3877   -1.8109   -1.5635 C   0  0  0  0  0  0  0  0  0  0  0  0
    2.7279   -3.0787   -2.0603 O   0  0  0  0  0  0  0  0  0  0  0  0
    2.7184   -4.2769   -1.2865 C   0  0  0  0  0  0  0  0  0  0  0  0
    2.1085   -1.5985   -0.2038 C   0  0  0  0  0  0  0  0  0  0  0  0
    1.7900   -0.3144    0.2484 C   0  0  0  0  0  0  0  0  0  0  0  0
    1.5165    0.0274    1.5708 C   0  0  0  0  0  0  0  0  0  0  0  0
    1.4109   -0.9583    2.6576 C   0  0  0  0  0  0  0  0  0  0  0  0
    2.0164   -0.8307    3.8394 C   0  0  0  0  0  0  0  0  0  0  0  0
    2.2251   -2.0152    4.7040 C   0  0  0  0  0  0  0  0  0  0  0  0
    2.1763   -3.3505    4.2851 C   0  0  0  0  0  0  0  0  0  0  0  0
    2.5451   -4.2607    5.2797 C   0  0  0  0  0  0  0  0  0  0  0  0
    2.6303   -5.6644    5.1384 C   0  0  0  0  0  0  0  0  0  0  0  0
    2.4057   -6.3391    3.8418 C   0  0  0  0  0  0  0  0  0  0  0  0
    3.2011   -6.0238    2.7302 C   0  0  0  0  0  0  0  0  0  0  0  0
    3.0034   -6.6829    1.5124 C   0  0  0  0  0  0  0  0  0  0  0  0
    2.0276   -7.6794    1.4025 C   0  0  0  0  0  0  0  0  0  0  0  0
    1.7770   -8.5158   -0.1682 S   0  0  0  0  0  0  0  0  0  0  0  0
    3.0878   -9.7622    0.0919 C   0  0  0  0  0  0  0  0  0  0  0  0
    2.6122  -10.8911    0.9978 C   0  0  0  0  0  0  0  0  0  0  0  0
    1.2336   -8.0003    2.5112 C   0  0  0  0  0  0  0  0  0  0  0  0
    0.2907   -8.9706    2.4187 F   0  0  0  0  0  0  0  0  0  0  0  0
    1.4223   -7.3349    3.7259 C   0  0  0  0  0  0  0  0  0  0  0  0
    3.0017   -6.3920    6.2820 C   0  0  0  0  0  0  0  0  0  0  0  0
    3.2776   -5.7822    7.5074 C   0  0  0  0  0  0  0  0  0  0  0  0
    3.2020   -4.3805    7.6415 C   0  0  0  0  0  0  0  0  0  0  0  0
    3.4084   -3.7291    8.9413 C   0  0  0  0  0  0  0  0  0  0  0  0
    4.6458   -3.1585    9.2694 C   0  0  0  0  0  0  0  0  0  0  0  0
    4.8563   -2.6334   10.5482 C   0  0  0  0  0  0  0  0  0  0  0  0
    3.8326   -2.6731   11.5029 C   0  0  0  0  0  0  0  0  0  0  0  0
    4.1389   -2.1101   13.1811 S   0  0  0  0  0  0  0  0  0  0  0  0
    3.6557   -0.3818   12.8624 C   0  0  0  0  0  0  0  0  0  0  0  0
    3.1949    0.2722   14.1589 C   0  0  0  0  0  0  0  0  0  0  0  0
    2.5875   -3.2190   11.1679 C   0  0  0  0  0  0  0  0  0  0  0  0
    2.3782   -3.7454    9.8919 C   0  0  0  0  0  0  0  0  0  0  0  0
    1.5896   -3.2700   12.0882 F   0  0  0  0  0  0  0  0  0  0  0  0
    2.8513   -3.6470    6.4971 C   0  0  0  0  0  0  0  0  0  0  0  0
    2.7262   -1.9755    6.3191 S   0  0  0  0  0  0  0  0  0  0  0  0
    3.6505   -6.6938    8.5080 C   0  0  0  0  0  0  0  0  0  0  0  0
    3.6830   -8.0143    8.0636 C   0  0  0  0  0  0  0  0  0  0  0  0
    3.2455   -8.0504    6.4325 S   0  0  0  0  0  0  0  0  0  0  0  0
   -1.6678   -3.8031    9.5540 H   0  0  0  0  0  0  0  0  0  0  0  0
   -1.3721   -1.5253    8.3474 H   0  0  0  0  0  0  0  0  0  0  0  0
   -3.0902    0.7515    4.9129 H   0  0  0  0  0  0  0  0  0  0  0  0
   -2.4130    3.0944    5.2679 H   0  0  0  0  0  0  0  0  0  0  0  0
    1.0866    3.5569    4.5410 H   0  0  0  0  0  0  0  0  0  0  0  0
   -0.1384    4.8512    4.2075 H   0  0  0  0  0  0  0  0  0  0  0  0
    2.1490    5.7553    3.9748 H   0  0  0  0  0  0  0  0  0  0  0  0
    1.3131    6.5305    5.3693 H   0  0  0  0  0  0  0  0  0  0  0  0
    2.5490    5.2360    5.6628 H   0  0  0  0  0  0  0  0  0  0  0  0
    0.4471   -0.5653    6.9839 H   0  0  0  0  0  0  0  0  0  0  0  0
   -1.1069   -6.1803    3.1879 H   0  0  0  0  0  0  0  0  0  0  0  0
   -2.0835   -8.4114    2.7202 H   0  0  0  0  0  0  0  0  0  0  0  0
   -4.7492   -9.1425    1.1674 H   0  0  0  0  0  0  0  0  0  0  0  0
   -6.0486   -8.3393    2.1369 H   0  0  0  0  0  0  0  0  0  0  0  0
   -6.9939  -10.1614    0.7346 H   0  0  0  0  0  0  0  0  0  0  0  0
   -5.8701  -11.3537    1.5030 H   0  0  0  0  0  0  0  0  0  0  0  0
   -7.1576  -10.5463    2.4919 H   0  0  0  0  0  0  0  0  0  0  0  0
   -4.6841   -5.1073    5.3300 H   0  0  0  0  0  0  0  0  0  0  0  0
   -2.5546   -4.1648    1.8028 H   0  0  0  0  0  0  0  0  0  0  0  0
   -3.4532    0.1908    0.5882 H   0  0  0  0  0  0  0  0  0  0  0  0
   -5.8968    1.8808   -2.5015 H   0  0  0  0  0  0  0  0  0  0  0  0
   -7.0798    3.4831   -1.0583 H   0  0  0  0  0  0  0  0  0  0  0  0
   -5.9814    7.2161    1.5430 H   0  0  0  0  0  0  0  0  0  0  0  0
   -4.6903    6.4437    0.5457 H   0  0  0  0  0  0  0  0  0  0  0  0
   -7.6550    6.8658   -0.2645 H   0  0  0  0  0  0  0  0  0  0  0  0
   -6.2272    7.8031   -0.8655 H   0  0  0  0  0  0  0  0  0  0  0  0
   -6.4027    6.0543   -1.2836 H   0  0  0  0  0  0  0  0  0  0  0  0
   -2.3279    2.3920   -0.1373 H   0  0  0  0  0  0  0  0  0  0  0  0
   -3.1709   -2.5584   -5.7282 H   0  0  0  0  0  0  0  0  0  0  0  0
   -2.1776   -4.4488   -6.9681 H   0  0  0  0  0  0  0  0  0  0  0  0
   -1.4449   -7.1424   -5.4186 H   0  0  0  0  0  0  0  0  0  0  0  0
    0.0101   -6.8392   -4.3773 H   0  0  0  0  0  0  0  0  0  0  0  0
    1.3116   -8.5216   -5.6846 H   0  0  0  0  0  0  0  0  0  0  0  0
   -0.1541   -8.8553   -6.7119 H   0  0  0  0  0  0  0  0  0  0  0  0
   -0.1695   -9.2366   -4.9375 H   0  0  0  0  0  0  0  0  0  0  0  0
    0.2618   -2.4741   -3.1371 H   0  0  0  0  0  0  0  0  0  0  0  0
   -1.5764   -0.2848   -6.2223 H   0  0  0  0  0  0  0  0  0  0  0  0
   -2.5876    0.0680   -8.3376 H   0  0  0  0  0  0  0  0  0  0  0  0
   -3.6764   -1.3982  -10.0260 H   0  0  0  0  0  0  0  0  0  0  0  0
   -2.7091   -2.5525  -11.0120 H   0  0  0  0  0  0  0  0  0  0  0  0
   -2.1264   -2.0830   -9.3675 H   0  0  0  0  0  0  0  0  0  0  0  0
   -0.7044    3.1027  -13.3595 H   0  0  0  0  0  0  0  0  0  0  0  0
    0.1890    1.7369  -14.1384 H   0  0  0  0  0  0  0  0  0  0  0  0
    0.9297    2.5952  -12.7430 H   0  0  0  0  0  0  0  0  0  0  0  0
   -0.2708    3.6284  -10.9335 H   0  0  0  0  0  0  0  0  0  0  0  0
   -0.5363    5.7330   -9.9412 H   0  0  0  0  0  0  0  0  0  0  0  0
    0.6852    7.3283   -8.7403 H   0  0  0  0  0  0  0  0  0  0  0  0
   -1.1810    6.7028   -5.7759 H   0  0  0  0  0  0  0  0  0  0  0  0
   -2.3268    4.1434   -2.7324 H   0  0  0  0  0  0  0  0  0  0  0  0
   -4.7007    4.7428   -3.0484 H   0  0  0  0  0  0  0  0  0  0  0  0
   -6.9102    6.4986   -6.0172 H   0  0  0  0  0  0  0  0  0  0  0  0
   -5.3503    5.6494   -5.6857 H   0  0  0  0  0  0  0  0  0  0  0  0
   -5.1927    7.3292   -7.5598 H   0  0  0  0  0  0  0  0  0  0  0  0
   -5.6583    8.6497   -6.4125 H   0  0  0  0  0  0  0  0  0  0  0  0
   -4.0944    7.7508   -6.2014 H   0  0  0  0  0  0  0  0  0  0  0  0
   -1.2151    8.2461   -3.4340 H   0  0  0  0  0  0  0  0  0  0  0  0
    4.5190    6.9525   -3.2825 H   0  0  0  0  0  0  0  0  0  0  0  0
    6.9454    6.6987   -3.6538 H   0  0  0  0  0  0  0  0  0  0  0  0
    8.2017    3.6863   -2.2918 H   0  0  0  0  0  0  0  0  0  0  0  0
    9.8009    3.2011   -2.9552 H   0  0  0  0  0  0  0  0  0  0  0  0
    9.0303    6.0838   -2.1673 H   0  0  0  0  0  0  0  0  0  0  0  0
   10.0376    4.9469   -1.1865 H   0  0  0  0  0  0  0  0  0  0  0  0
   10.6453    5.5279   -2.7770 H   0  0  0  0  0  0  0  0  0  0  0  0
    3.9020    2.8565   -4.4501 H   0  0  0  0  0  0  0  0  0  0  0  0
    3.3775    3.3144   -1.6145 H   0  0  0  0  0  0  0  0  0  0  0  0
    1.9168    1.3855   -2.7005 H   0  0  0  0  0  0  0  0  0  0  0  0
    1.1917    0.2014   -4.8775 H   0  0  0  0  0  0  0  0  0  0  0  0
    2.9116    0.7941   -4.8132 H   0  0  0  0  0  0  0  0  0  0  0  0
    2.4755   -0.6001   -5.8597 H   0  0  0  0  0  0  0  0  0  0  0  0
    3.4228   -4.1881   -0.4308 H   0  0  0  0  0  0  0  0  0  0  0  0
    1.6927   -4.4854   -0.9143 H   0  0  0  0  0  0  0  0  0  0  0  0
    3.0451   -5.1254   -1.9237 H   0  0  0  0  0  0  0  0  0  0  0  0
    2.1607   -2.4189    0.4918 H   0  0  0  0  0  0  0  0  0  0  0  0
    0.9533   -1.8991    2.3851 H   0  0  0  0  0  0  0  0  0  0  0  0
    2.4613    0.1131    4.1276 H   0  0  0  0  0  0  0  0  0  0  0  0
    1.9213   -3.6553    3.2806 H   0  0  0  0  0  0  0  0  0  0  0  0
    3.9719   -5.2658    2.8031 H   0  0  0  0  0  0  0  0  0  0  0  0
    3.6257   -6.4357    0.6626 H   0  0  0  0  0  0  0  0  0  0  0  0
    3.9983   -9.2911    0.5177 H   0  0  0  0  0  0  0  0  0  0  0  0
    3.3536  -10.1895   -0.8992 H   0  0  0  0  0  0  0  0  0  0  0  0
    3.4028  -11.6657    1.0714 H   0  0  0  0  0  0  0  0  0  0  0  0
    2.4059  -10.5087    2.0178 H   0  0  0  0  0  0  0  0  0  0  0  0
    1.6906  -11.3552    0.5847 H   0  0  0  0  0  0  0  0  0  0  0  0
    0.7949   -7.5845    4.5705 H   0  0  0  0  0  0  0  0  0  0  0  0
    5.4519   -3.1526    8.5471 H   0  0  0  0  0  0  0  0  0  0  0  0
    5.8202   -2.2147   10.8077 H   0  0  0  0  0  0  0  0  0  0  0  0
    4.5386    0.1671   12.4671 H   0  0  0  0  0  0  0  0  0  0  0  0
    2.8333   -0.3261   12.1133 H   0  0  0  0  0  0  0  0  0  0  0  0
    3.9784    0.1642   14.9419 H   0  0  0  0  0  0  0  0  0  0  0  0
    2.2568   -0.2082   14.5111 H   0  0  0  0  0  0  0  0  0  0  0  0
    3.0104    1.3530   13.9872 H   0  0  0  0  0  0  0  0  0  0  0  0
    1.4193   -4.1864    9.6477 H   0  0  0  0  0  0  0  0  0  0  0  0
    3.9065   -6.4106    9.5187 H   0  0  0  0  0  0  0  0  0  0  0  0
    3.9592   -8.8719    8.6653 H   0  0  0  0  0  0  0  0  0  0  0  0
  1  2  2  0
  2  3  1  0
  3  4  2  0
  4  5  1  0
  5  6  2  0
  6  7  1  0
  7  8  2  0
  8  9  1  0
  9 10  1  0
 10 11  1  0
  8 12  1  0
 12 13  1  0
 12 14  2  0
  4 15  1  0
 15 16  2  0
 16 17  1  0
 17 18  1  0
 18 19  2  0
 19 20  1  0
 20 21  2  0
 21 22  1  0
 22 23  1  0
 23 24  1  0
 21 25  1  0
 25 26  2  0
 25 27  1  0
 17 28  2  0
 28 29  1  0
 16 30  1  0
 30 31  2  0
 31 32  1  0
 31 33  1  0
 33 34  2  0
 34 35  1  0
 35 36  2  0
 36 37  1  0
 37 38  2  0
 38 39  1  0
 39 40  2  0
 40 41  1  0
 41 42  1  0
 42 43  1  0
 40 44  1  0
 44 45  1  0
 44 46  2  0
 36 47  1  0
 47 48  2  0
 48 49  1  0
 49 50  1  0
 50 51  2  0
 51 52  1  0
 52 53  2  0
 53 54  1  0
 54 55  1  0
 55 56  1  0
 53 57  1  0
 57 58  2  0
 57 59  1  0
 49 60  2  0
 60 61  1  0
 48 62  1  0
 62 63  2  0
 63 64  1  0
 63 65  1  0
 65 66  1  0
 65 67  2  0
 67 68  1  0
 68 69  2  0
 69 70  1  0
 70 71  1  0
 69 72  1  0
 72 73  1  0
 73 74  1  0
 72 75  2  0
 75 76  1  0
 76 77  2  0
 77 78  1  0
 78 79  2  3
 79 80  1  0
 80 81  2  0
 81 82  1  0
 82 83  2  0
 83 84  1  0
 84 85  2  0
 85 86  1  0
 86 87  2  0
 87 88  1  0
 88 89  1  0
 89 90  1  0
 87 91  1  0
 91 92  1  0
 91 93  2  0
 83 94  1  0
 94 95  2  0
 95 96  1  0
 96 97  1  0
 97 98  2  0
 98 99  1  0
 99100  2  0
100101  1  0
101102  1  0
102103  1  0
100104  1  0
104105  2  0
104106  1  0
 96107  2  0
107108  1  0
 95109  1  0
109110  2  0
110111  1  0
110112  1  0
112113  1  0
112114  2  0
114115  1  0
115116  2  0
116117  1  0
117118  1  0
116119  1  0
119120  1  0
120121  1  0
119122  2  0
122123  1  0
123124  2  0
124125  1  0
125126  2  3
126127  1  0
127128  2  0
128129  1  0
129130  2  0
130131  1  0
131132  2  0
132133  1  0
133134  2  0
134135  1  0
135136  1  0
136137  1  0
134138  1  0
138139  1  0
138140  2  0
130141  1  0
141142  2  0
142143  1  0
143144  1  0
144145  2  0
145146  1  0
146147  2  0
147148  1  0
148149  1  0
149150  1  0
147151  1  0
151152  2  0
151153  1  0
143154  2  0
154155  1  0
142156  1  0
156157  2  0
157158  1  0
 29  1  1  0
 61 33  1  0
 77 66  1  0
108 80  1  0
124113  1  0
155127  1  0
 28  3  1  0
 60 35  1  0
 76 67  1  0
107 82  1  0
123114  1  0
154129  1  0
 14  5  1  0
 32 15  1  0
 46 37  1  0
 64 47  1  0
 93 84  1  0
111 94  1  0
140131  1  0
158141  1  0
 26 18  1  0
 58 50  1  0
105 97  1  0
152144  1  0
  1159  1  0
  2160  1  0
  6161  1  0
  7162  1  0
 10163  1  0
 10164  1  0
 11165  1  0
 11166  1  0
 11167  1  0
 14168  1  0
 19169  1  0
 20170  1  0
 23171  1  0
 23172  1  0
 24173  1  0
 24174  1  0
 24175  1  0
 26176  1  0
 30177  1  0
 34178  1  0
 38179  1  0
 39180  1  0
 42181  1  0
 42182  1  0
 43183  1  0
 43184  1  0
 43185  1  0
 46186  1  0
 51187  1  0
 52188  1  0
 55189  1  0
 55190  1  0
 56191  1  0
 56192  1  0
 56193  1  0
 58194  1  0
 62195  1  0
 68196  1  0
 71197  1  0
 71198  1  0
 71199  1  0
 74200  1  0
 74201  1  0
 74202  1  0
 75203  1  0
 78204  1  0
 79205  1  0
 81206  1  0
 85207  1  0
 86208  1  0
 89209  1  0
 89210  1  0
 90211  1  0
 90212  1  0
 90213  1  0
 93214  1  0
 98215  1  0
 99216  1  0
102217  1  0
102218  1  0
103219  1  0
103220  1  0
103221  1  0
105222  1  0
109223  1  0
115224  1  0
118225  1  0
118226  1  0
118227  1  0
121228  1  0
121229  1  0
121230  1  0
122231  1  0
125232  1  0
126233  1  0
128234  1  0
132235  1  0
133236  1  0
136237  1  0
136238  1  0
137239  1  0
137240  1  0
137241  1  0
140242  1  0
145243  1  0
146244  1  0
149245  1  0
149246  1  0
150247  1  0
150248  1  0
150249  1  0
152250  1  0
156251  1  0
157252  1  0
M  END

