
     RDKit          3D

124139  0  0  0  0  0  0  0  0999 V2000
   14.2307    1.7505    5.1781 C   0  0  0  0  0  0  0  0  0  0  0  0
   13.2832    2.2036    6.5205 S   0  0  0  0  0  0  0  0  0  0  0  0
   13.3981    1.4685    4.0802 C   0  0  0  0  0  0  0  0  0  0  0  0
   12.0552    1.5552    4.4327 C   0  0  0  0  0  0  0  0  0  0  0  0
   10.8143    1.7045    3.6438 C   0  0  0  0  0  0  0  0  0  0  0  0
   10.7797    2.0724    2.0487 S   0  0  0  0  0  0  0  0  0  0  0  0
   11.8376    1.9100    5.7352 C   0  0  0  0  0  0  0  0  0  0  0  0
   10.4722    2.3615    5.8578 C   0  0  0  0  0  0  0  0  0  0  0  0
    9.5873    3.3472    6.8871 S   0  0  0  0  0  0  0  0  0  0  0  0
    9.8738    2.2561    4.6361 C   0  0  0  0  0  0  0  0  0  0  0  0
    8.6524    2.9122    4.5379 C   0  0  0  0  0  0  0  0  0  0  0  0
    8.3293    3.5482    5.7451 C   0  0  0  0  0  0  0  0  0  0  0  0
    7.0736    4.2644    6.0103 C   0  0  0  0  0  0  0  0  0  0  0  0
    5.8724    3.7572    5.7103 C   0  0  0  0  0  0  0  0  0  0  0  0
    5.6509    2.3391    5.3742 C   0  0  0  0  0  0  0  0  0  0  0  0
    6.3827    1.0311    6.1497 S   0  0  0  0  0  0  0  0  0  0  0  0
    4.7056    1.8272    4.4870 C   0  0  0  0  0  0  0  0  0  0  0  0
    3.8692    2.5814    3.6586 C   0  0  0  0  0  0  0  0  0  0  0  0
    2.9689    1.9238    2.7928 C   0  0  0  0  0  0  0  0  0  0  0  0
    2.0970    2.6329    1.9482 O   0  0  0  0  0  0  0  0  0  0  0  0
    2.0532    4.0511    1.8409 C   0  0  0  0  0  0  0  0  0  0  0  0
    2.9206    0.5134    2.7663 C   0  0  0  0  0  0  0  0  0  0  0  0
    2.0003   -0.0981    1.8991 O   0  0  0  0  0  0  0  0  0  0  0  0
    1.8056   -1.5046    1.7974 C   0  0  0  0  0  0  0  0  0  0  0  0
    3.7811   -0.2437    3.5951 C   0  0  0  0  0  0  0  0  0  0  0  0
    4.6578    0.4190    4.4566 C   0  0  0  0  0  0  0  0  0  0  0  0
    5.5325   -0.1869    5.3650 C   0  0  0  0  0  0  0  0  0  0  0  0
    5.7756   -1.6143    5.5890 C   0  0  0  0  0  0  0  0  0  0  0  0
    4.9026   -2.4939    6.0968 C   0  0  0  0  0  0  0  0  0  0  0  0
    3.5160   -2.2370    6.5435 C   0  0  0  0  0  0  0  0  0  0  0  0
    2.3900   -3.4972    6.7324 S   0  0  0  0  0  0  0  0  0  0  0  0
    2.8735   -1.0108    6.7830 C   0  0  0  0  0  0  0  0  0  0  0  0
    1.5246   -1.1917    7.1040 C   0  0  0  0  0  0  0  0  0  0  0  0
    0.3645   -0.3204    6.8235 C   0  0  0  0  0  0  0  0  0  0  0  0
    0.4895    1.0722    5.9674 S   0  0  0  0  0  0  0  0  0  0  0  0
    1.1271   -2.4984    7.1865 C   0  0  0  0  0  0  0  0  0  0  0  0
   -0.2918   -2.5644    6.9099 C   0  0  0  0  0  0  0  0  0  0  0  0
   -1.1701   -3.6744    6.0146 S   0  0  0  0  0  0  0  0  0  0  0  0
   -0.7305   -1.2909    6.6412 C   0  0  0  0  0  0  0  0  0  0  0  0
   -1.8197   -1.2365    5.7685 C   0  0  0  0  0  0  0  0  0  0  0  0
   -2.2148   -2.5107    5.3509 C   0  0  0  0  0  0  0  0  0  0  0  0
   -3.1481   -2.7349    4.2448 C   0  0  0  0  0  0  0  0  0  0  0  0
   -3.5238   -3.9517    3.8442 C   0  0  0  0  0  0  0  0  0  0  0  0
   -4.2421   -4.1033    2.5757 C   0  0  0  0  0  0  0  0  0  0  0  0
   -3.5645   -3.7475    1.0791 S   0  0  0  0  0  0  0  0  0  0  0  0
   -5.6143   -4.2601    2.4040 C   0  0  0  0  0  0  0  0  0  0  0  0
   -6.5484   -4.4508    3.4234 C   0  0  0  0  0  0  0  0  0  0  0  0
   -7.9226   -4.4819    3.1137 C   0  0  0  0  0  0  0  0  0  0  0  0
   -8.9033   -4.6254    4.1059 O   0  0  0  0  0  0  0  0  0  0  0  0
   -8.6337   -4.6768    5.5058 C   0  0  0  0  0  0  0  0  0  0  0  0
   -8.3473   -4.3430    1.7761 C   0  0  0  0  0  0  0  0  0  0  0  0
   -9.7263   -4.3681    1.5147 O   0  0  0  0  0  0  0  0  0  0  0  0
  -10.3056   -4.2009    0.2244 C   0  0  0  0  0  0  0  0  0  0  0  0
   -7.3941   -4.1650    0.7504 C   0  0  0  0  0  0  0  0  0  0  0  0
   -6.0325   -4.1121    1.0690 C   0  0  0  0  0  0  0  0  0  0  0  0
   -4.9865   -3.8305    0.1814 C   0  0  0  0  0  0  0  0  0  0  0  0
   -5.0988   -3.5483   -1.2631 C   0  0  0  0  0  0  0  0  0  0  0  0
   -4.1913   -2.7993   -1.8991 C   0  0  0  0  0  0  0  0  0  0  0  0
   -4.3073   -2.4527   -3.3232 C   0  0  0  0  0  0  0  0  0  0  0  0
   -5.2994   -3.2501   -4.4693 S   0  0  0  0  0  0  0  0  0  0  0  0
   -3.5425   -1.4605   -3.9499 C   0  0  0  0  0  0  0  0  0  0  0  0
   -3.8690   -1.3574   -5.2959 C   0  0  0  0  0  0  0  0  0  0  0  0
   -3.2489   -0.6887   -6.4520 C   0  0  0  0  0  0  0  0  0  0  0  0
   -1.7330   -0.0777   -6.4741 S   0  0  0  0  0  0  0  0  0  0  0  0
   -4.8161   -2.2407   -5.7143 C   0  0  0  0  0  0  0  0  0  0  0  0
   -4.8361   -2.2441   -7.1561 C   0  0  0  0  0  0  0  0  0  0  0  0
   -5.1815   -3.3764   -8.3413 S   0  0  0  0  0  0  0  0  0  0  0  0
   -3.8959   -1.3592   -7.5981 C   0  0  0  0  0  0  0  0  0  0  0  0
   -3.5141   -1.5419   -8.9255 C   0  0  0  0  0  0  0  0  0  0  0  0
   -4.2128   -2.6118   -9.5114 C   0  0  0  0  0  0  0  0  0  0  0  0
   -3.9646   -3.1623  -10.8536 C   0  0  0  0  0  0  0  0  0  0  0  0
   -3.6925   -2.4256  -11.9424 C   0  0  0  0  0  0  0  0  0  0  0  0
   -3.8218   -0.9590  -12.0241 C   0  0  0  0  0  0  0  0  0  0  0  0
   -2.7243    0.0457  -12.8520 S   0  0  0  0  0  0  0  0  0  0  0  0
   -4.8309   -0.1822  -11.4308 C   0  0  0  0  0  0  0  0  0  0  0  0
   -4.6574    1.1695  -11.7171 C   0  0  0  0  0  0  0  0  0  0  0  0
   -5.1341    2.3958  -11.0528 C   0  0  0  0  0  0  0  0  0  0  0  0
   -5.8603    2.4141   -9.5877 S   0  0  0  0  0  0  0  0  0  0  0  0
   -3.5799    1.4409  -12.5050 C   0  0  0  0  0  0  0  0  0  0  0  0
   -3.2589    2.8442  -12.3674 C   0  0  0  0  0  0  0  0  0  0  0  0
   -1.8489    3.7383  -12.4167 S   0  0  0  0  0  0  0  0  0  0  0  0
   -4.1505    3.4011  -11.4956 C   0  0  0  0  0  0  0  0  0  0  0  0
   -3.7249    4.5982  -10.9268 C   0  0  0  0  0  0  0  0  0  0  0  0
   -2.4475    4.9567  -11.3883 C   0  0  0  0  0  0  0  0  0  0  0  0
   -1.6572    6.1330  -10.9882 C   0  0  0  0  0  0  0  0  0  0  0  0
   -2.1538    7.1245  -10.2469 C   0  0  0  0  0  0  0  0  0  0  0  0
   15.3091    1.7733    5.1385 H   0  0  0  0  0  0  0  0  0  0  0  0
   13.7552    1.2728    3.0809 H   0  0  0  0  0  0  0  0  0  0  0  0
    8.0555    2.9661    3.6342 H   0  0  0  0  0  0  0  0  0  0  0  0
    7.1306    5.2510    6.4446 H   0  0  0  0  0  0  0  0  0  0  0  0
    5.0008    4.3868    5.8194 H   0  0  0  0  0  0  0  0  0  0  0  0
    3.9160    3.6609    3.6848 H   0  0  0  0  0  0  0  0  0  0  0  0
    3.0333    4.4307    1.4802 H   0  0  0  0  0  0  0  0  0  0  0  0
    1.2697    4.3331    1.1072 H   0  0  0  0  0  0  0  0  0  0  0  0
    1.8015    4.5040    2.8231 H   0  0  0  0  0  0  0  0  0  0  0  0
    1.4726   -1.9171    2.7760 H   0  0  0  0  0  0  0  0  0  0  0  0
    1.0185   -1.7027    1.0408 H   0  0  0  0  0  0  0  0  0  0  0  0
    2.7444   -2.0020    1.4698 H   0  0  0  0  0  0  0  0  0  0  0  0
    3.7604   -1.3242    3.5860 H   0  0  0  0  0  0  0  0  0  0  0  0
    6.7809   -1.9663    5.3979 H   0  0  0  0  0  0  0  0  0  0  0  0
    5.2408   -3.5204    6.1859 H   0  0  0  0  0  0  0  0  0  0  0  0
    3.3012   -0.0366    6.6380 H   0  0  0  0  0  0  0  0  0  0  0  0
   -2.2089   -0.3163    5.3478 H   0  0  0  0  0  0  0  0  0  0  0  0
   -3.4833   -1.8657    3.6860 H   0  0  0  0  0  0  0  0  0  0  0  0
   -3.2294   -4.8400    4.3909 H   0  0  0  0  0  0  0  0  0  0  0  0
   -6.2083   -4.5546    4.4459 H   0  0  0  0  0  0  0  0  0  0  0  0
   -8.0542   -5.5931    5.7452 H   0  0  0  0  0  0  0  0  0  0  0  0
   -9.5946   -4.7075    6.0621 H   0  0  0  0  0  0  0  0  0  0  0  0
   -8.0711   -3.7739    5.8183 H   0  0  0  0  0  0  0  0  0  0  0  0
  -11.4097   -4.2387    0.3127 H   0  0  0  0  0  0  0  0  0  0  0  0
  -10.0184   -3.2164   -0.2000 H   0  0  0  0  0  0  0  0  0  0  0  0
   -9.9751   -5.0217   -0.4465 H   0  0  0  0  0  0  0  0  0  0  0  0
   -7.7114   -4.0331   -0.2704 H   0  0  0  0  0  0  0  0  0  0  0  0
   -5.9724   -3.9017   -1.7994 H   0  0  0  0  0  0  0  0  0  0  0  0
   -3.3679   -2.3687   -1.3438 H   0  0  0  0  0  0  0  0  0  0  0  0
   -2.7843   -0.8705   -3.4580 H   0  0  0  0  0  0  0  0  0  0  0  0
   -2.7086   -0.9989   -9.4017 H   0  0  0  0  0  0  0  0  0  0  0  0
   -3.9630   -4.2418  -10.9528 H   0  0  0  0  0  0  0  0  0  0  0  0
   -3.3873   -2.9453  -12.8394 H   0  0  0  0  0  0  0  0  0  0  0  0
   -5.6075   -0.5671  -10.7850 H   0  0  0  0  0  0  0  0  0  0  0  0
   -4.2806    5.1247  -10.1581 H   0  0  0  0  0  0  0  0  0  0  0  0
   -0.6333    6.2040  -11.3314 H   0  0  0  0  0  0  0  0  0  0  0  0
   -3.1745    7.1205   -9.8889 H   0  0  0  0  0  0  0  0  0  0  0  0
   -1.5331    7.9750   -9.9982 H   0  0  0  0  0  0  0  0  0  0  0  0
  1  2  1  0
  1  3  2  0
  3  4  1  0
  4  5  1  0
  5  6  2  0
  4  7  2  0
  7  8  1  0
  8  9  1  0
  8 10  2  0
 10 11  1  0
 11 12  2  0
 12 13  1  0
 13 14  2  3
 14 15  1  0
 15 16  1  0
 15 17  2  0
 17 18  1  0
 18 19  2  0
 19 20  1  0
 20 21  1  0
 19 22  1  0
 22 23  1  0
 23 24  1  0
 22 25  2  0
 25 26  1  0
 26 27  2  0
 27 28  1  0
 28 29  2  3
 29 30  1  0
 30 31  1  0
 30 32  2  0
 32 33  1  0
 33 34  1  0
 34 35  2  0
 33 36  2  0
 36 37  1  0
 37 38  1  0
 37 39  2  0
 39 40  1  0
 40 41  2  0
 41 42  1  0
 42 43  2  3
 43 44  1  0
 44 45  1  0
 44 46  2  0
 46 47  1  0
 47 48  2  0
 48 49  1  0
 49 50  1  0
 48 51  1  0
 51 52  1  0
 52 53  1  0
 51 54  2  0
 54 55  1  0
 55 56  2  0
 56 57  1  0
 57 58  2  3
 58 59  1  0
 59 60  1  0
 59 61  2  0
 61 62  1  0
 62 63  1  0
 63 64  2  0
 62 65  2  0
 65 66  1  0
 66 67  1  0
 66 68  2  0
 68 69  1  0
 69 70  2  0
 70 71  1  0
 71 72  2  3
 72 73  1  0
 73 74  1  0
 73 75  2  0
 75 76  1  0
 76 77  1  0
 77 78  2  0
 76 79  2  0
 79 80  1  0
 80 81  1  0
 80 82  2  0
 82 83  1  0
 83 84  2  0
 84 85  1  0
 85 86  2  3
  7  2  1  0
 27 16  1  0
 36 31  1  0
 56 45  1  0
 65 60  1  0
 79 74  1  0
 10  5  1  0
 26 17  1  0
 39 34  1  0
 55 46  1  0
 68 63  1  0
 82 77  1  0
 12  9  1  0
 41 38  1  0
 70 67  1  0
 84 81  1  0
  1 87  1  0
  3 88  1  0
 11 89  1  0
 13 90  1  0
 14 91  1  0
 18 92  1  0
 21 93  1  0
 21 94  1  0
 21 95  1  0
 24 96  1  0
 24 97  1  0
 24 98  1  0
 25 99  1  0
 28100  1  0
 29101  1  0
 32102  1  0
 40103  1  0
 42104  1  0
 43105  1  0
 47106  1  0
 50107  1  0
 50108  1  0
 50109  1  0
 53110  1  0
 53111  1  0
 53112  1  0
 54113  1  0
 57114  1  0
 58115  1  0
 61116  1  0
 69117  1  0
 71118  1  0
 72119  1  0
 75120  1  0
 83121  1  0
 85122  1  0
 86123  1  0
 86124  1  0
M  END

