
     RDKit          3D

127138  0  0  0  0  0  0  0  0999 V2000
    7.9338   -6.5201    3.6882 C   0  0  0  0  0  0  0  0  0  0  0  0
    7.2527   -5.5485    4.2817 C   0  0  0  0  0  0  0  0  0  0  0  0
    7.0633   -4.4697    3.3137 C   0  0  0  0  0  0  0  0  0  0  0  0
    7.7184   -4.9295    2.0915 C   0  0  0  0  0  0  0  0  0  0  0  0
    8.2274   -6.1311    2.3081 C   0  0  0  0  0  0  0  0  0  0  0  0
    7.8088   -4.2623    0.9145 F   0  0  0  0  0  0  0  0  0  0  0  0
    6.4052   -3.3156    3.5011 C   0  0  0  0  0  0  0  0  0  0  0  0
    6.1801   -2.2613    2.5108 C   0  0  0  0  0  0  0  0  0  0  0  0
    5.4519   -1.3094    3.0831 C   0  0  0  0  0  0  0  0  0  0  0  0
    5.1835   -1.6774    4.4795 C   0  0  0  0  0  0  0  0  0  0  0  0
    5.7399   -2.8553    4.7165 C   0  0  0  0  0  0  0  0  0  0  0  0
    5.6954   -3.4969    5.9084 F   0  0  0  0  0  0  0  0  0  0  0  0
    4.9979   -0.0943    2.3840 C   0  0  0  0  0  0  0  0  0  0  0  0
    4.0181    0.6819    2.8572 C   0  0  0  0  0  0  0  0  0  0  0  0
    3.5045    1.8406    2.1048 C   0  0  0  0  0  0  0  0  0  0  0  0
    2.3208    2.4026    2.3314 C   0  0  0  0  0  0  0  0  0  0  0  0
    2.1052    3.4291    1.3109 C   0  0  0  0  0  0  0  0  0  0  0  0
    3.3259    3.4327    0.5038 C   0  0  0  0  0  0  0  0  0  0  0  0
    4.1450    2.4976    0.9584 C   0  0  0  0  0  0  0  0  0  0  0  0
    3.5904    4.2191   -0.5695 F   0  0  0  0  0  0  0  0  0  0  0  0
    0.9658    4.0912    1.0595 C   0  0  0  0  0  0  0  0  0  0  0  0
    0.6909    4.9434   -0.0960 C   0  0  0  0  0  0  0  0  0  0  0  0
   -0.6145    5.1883   -0.1243 C   0  0  0  0  0  0  0  0  0  0  0  0
   -1.2510    4.5629    1.0419 C   0  0  0  0  0  0  0  0  0  0  0  0
   -0.3189    3.9318    1.7387 C   0  0  0  0  0  0  0  0  0  0  0  0
   -0.5559    3.2252    2.8704 F   0  0  0  0  0  0  0  0  0  0  0  0
   -1.2953    5.8280   -1.2668 C   0  0  0  0  0  0  0  0  0  0  0  0
   -2.5814    5.5848   -1.5474 C   0  0  0  0  0  0  0  0  0  0  0  0
   -3.1753    5.9499   -2.8445 C   0  0  0  0  0  0  0  0  0  0  0  0
   -4.1196    5.2244   -3.4310 C   0  0  0  0  0  0  0  0  0  0  0  0
   -4.2128    5.6433   -4.8294 C   0  0  0  0  0  0  0  0  0  0  0  0
   -3.2849    6.7686   -4.9547 C   0  0  0  0  0  0  0  0  0  0  0  0
   -2.6646    6.9428   -3.7972 C   0  0  0  0  0  0  0  0  0  0  0  0
   -3.0244    7.4852   -6.0775 F   0  0  0  0  0  0  0  0  0  0  0  0
   -4.7564    4.9253   -5.8270 C   0  0  0  0  0  0  0  0  0  0  0  0
   -4.4939    5.0928   -7.2601 C   0  0  0  0  0  0  0  0  0  0  0  0
   -4.8656    3.9734   -7.8676 C   0  0  0  0  0  0  0  0  0  0  0  0
   -5.4573    3.0533   -6.8966 C   0  0  0  0  0  0  0  0  0  0  0  0
   -5.4066    3.6200   -5.7051 C   0  0  0  0  0  0  0  0  0  0  0  0
   -5.8279    3.0269   -4.5664 F   0  0  0  0  0  0  0  0  0  0  0  0
   -4.4978    3.6019   -9.2420 C   0  0  0  0  0  0  0  0  0  0  0  0
   -3.6943    2.5627   -9.5056 C   0  0  0  0  0  0  0  0  0  0  0  0
   -2.9191    1.8785   -8.4552 C   0  0  0  0  0  0  0  0  0  0  0  0
   -2.9355    0.5689   -8.2150 C   0  0  0  0  0  0  0  0  0  0  0  0
   -2.0686    0.3229   -7.0586 C   0  0  0  0  0  0  0  0  0  0  0  0
   -1.5244    1.6334   -6.6934 C   0  0  0  0  0  0  0  0  0  0  0  0
   -2.0307    2.5471   -7.5004 C   0  0  0  0  0  0  0  0  0  0  0  0
   -0.6870    1.9120   -5.6631 F   0  0  0  0  0  0  0  0  0  0  0  0
   -1.8904   -0.8342   -6.4034 C   0  0  0  0  0  0  0  0  0  0  0  0
   -1.0402   -1.0553   -5.2338 C   0  0  0  0  0  0  0  0  0  0  0  0
   -1.2449   -2.2929   -4.8036 C   0  0  0  0  0  0  0  0  0  0  0  0
   -2.2173   -2.9599   -5.6793 C   0  0  0  0  0  0  0  0  0  0  0  0
   -2.5780   -2.1060   -6.6264 C   0  0  0  0  0  0  0  0  0  0  0  0
   -3.4763   -2.3841   -7.6047 F   0  0  0  0  0  0  0  0  0  0  0  0
   -0.5854   -2.8641   -3.6184 C   0  0  0  0  0  0  0  0  0  0  0  0
   -1.1919   -3.7654   -2.8410 C   0  0  0  0  0  0  0  0  0  0  0  0
   -0.5587   -4.2590   -1.6035 C   0  0  0  0  0  0  0  0  0  0  0  0
    1.1007   -4.4787   -1.3726 S   0  0  0  0  0  0  0  0  0  0  0  0
   -1.2086   -4.6696   -0.4374 C   0  0  0  0  0  0  0  0  0  0  0  0
   -2.5887   -4.6517   -0.2166 C   0  0  0  0  0  0  0  0  0  0  0  0
   -3.1040   -5.1184    1.0119 C   0  0  0  0  0  0  0  0  0  0  0  0
   -4.4828   -5.1228    1.2824 O   0  0  0  0  0  0  0  0  0  0  0  0
   -5.4818   -4.6320    0.3938 C   0  0  0  0  0  0  0  0  0  0  0  0
   -2.2301   -5.6036    2.0060 C   0  0  0  0  0  0  0  0  0  0  0  0
   -2.7892   -6.0832    3.2022 O   0  0  0  0  0  0  0  0  0  0  0  0
   -2.0427   -6.6777    4.2584 C   0  0  0  0  0  0  0  0  0  0  0  0
   -0.8349   -5.5986    1.7827 C   0  0  0  0  0  0  0  0  0  0  0  0
   -0.3335   -5.1192    0.5691 C   0  0  0  0  0  0  0  0  0  0  0  0
    1.0141   -5.0580    0.2046 C   0  0  0  0  0  0  0  0  0  0  0  0
    2.1730   -5.5417    0.9687 C   0  0  0  0  0  0  0  0  0  0  0  0
    2.5560   -5.0661    2.1593 C   0  0  0  0  0  0  0  0  0  0  0  0
    1.9996   -3.8687    2.8304 C   0  0  0  0  0  0  0  0  0  0  0  0
    2.1853   -3.6105    4.1220 C   0  0  0  0  0  0  0  0  0  0  0  0
    1.6863   -2.2649    4.3975 C   0  0  0  0  0  0  0  0  0  0  0  0
    1.1803   -1.7747    3.1165 C   0  0  0  0  0  0  0  0  0  0  0  0
    1.3705   -2.7038    2.1940 C   0  0  0  0  0  0  0  0  0  0  0  0
    0.6438   -0.5545    2.8694 F   0  0  0  0  0  0  0  0  0  0  0  0
    1.8057   -1.5790    5.5458 C   0  0  0  0  0  0  0  0  0  0  0  0
    1.5002   -0.1653    5.7592 C   0  0  0  0  0  0  0  0  0  0  0  0
    1.9297    0.1679    6.9718 C   0  0  0  0  0  0  0  0  0  0  0  0
    2.4960   -1.0157    7.6291 C   0  0  0  0  0  0  0  0  0  0  0  0
    2.4125   -2.0372    6.7936 C   0  0  0  0  0  0  0  0  0  0  0  0
    2.8456   -3.2902    7.0742 F   0  0  0  0  0  0  0  0  0  0  0  0
    1.8710    1.5398    7.5118 C   0  0  0  0  0  0  0  0  0  0  0  0
    2.4157    1.8817    8.6770 C   0  0  0  0  0  0  0  0  0  0  0  0
    8.2195   -7.4506    4.1567 H   0  0  0  0  0  0  0  0  0  0  0  0
    6.9009   -5.5800    5.3042 H   0  0  0  0  0  0  0  0  0  0  0  0
    8.7749   -6.7188    1.5833 H   0  0  0  0  0  0  0  0  0  0  0  0
    6.5185   -2.2469    1.4838 H   0  0  0  0  0  0  0  0  0  0  0  0
    4.6472   -1.0921    5.2111 H   0  0  0  0  0  0  0  0  0  0  0  0
    5.4421    0.1199    1.4217 H   0  0  0  0  0  0  0  0  0  0  0  0
    3.5225    0.4205    3.7813 H   0  0  0  0  0  0  0  0  0  0  0  0
    1.6231    2.0860    3.0931 H   0  0  0  0  0  0  0  0  0  0  0  0
    5.1128    2.2665    0.5287 H   0  0  0  0  0  0  0  0  0  0  0  0
    1.3860    5.2367   -0.8710 H   0  0  0  0  0  0  0  0  0  0  0  0
   -2.3014    4.5915    1.2992 H   0  0  0  0  0  0  0  0  0  0  0  0
   -0.6847    6.3678   -1.9808 H   0  0  0  0  0  0  0  0  0  0  0  0
   -3.1680    4.9535   -0.8898 H   0  0  0  0  0  0  0  0  0  0  0  0
   -4.5823    4.3584   -2.9824 H   0  0  0  0  0  0  0  0  0  0  0  0
   -1.8926    7.6792   -3.6130 H   0  0  0  0  0  0  0  0  0  0  0  0
   -3.9305    5.8893   -7.7322 H   0  0  0  0  0  0  0  0  0  0  0  0
   -5.8256    2.0591   -7.1008 H   0  0  0  0  0  0  0  0  0  0  0  0
   -4.9309    4.1576  -10.0635 H   0  0  0  0  0  0  0  0  0  0  0  0
   -3.5456    2.2587  -10.5319 H   0  0  0  0  0  0  0  0  0  0  0  0
   -3.5187   -0.1584   -8.7642 H   0  0  0  0  0  0  0  0  0  0  0  0
   -1.8247    3.6073   -7.4494 H   0  0  0  0  0  0  0  0  0  0  0  0
   -0.3798   -0.3397   -4.7625 H   0  0  0  0  0  0  0  0  0  0  0  0
   -2.5744   -3.9767   -5.5854 H   0  0  0  0  0  0  0  0  0  0  0  0
    0.3752   -2.4587   -3.3246 H   0  0  0  0  0  0  0  0  0  0  0  0
   -2.1956   -4.0934   -3.0843 H   0  0  0  0  0  0  0  0  0  0  0  0
   -3.2524   -4.2846   -0.9849 H   0  0  0  0  0  0  0  0  0  0  0  0
   -5.3234   -3.5512    0.2003 H   0  0  0  0  0  0  0  0  0  0  0  0
   -5.4590   -5.1996   -0.5600 H   0  0  0  0  0  0  0  0  0  0  0  0
   -6.4823   -4.7652    0.8585 H   0  0  0  0  0  0  0  0  0  0  0  0
   -2.7409   -6.9822    5.0665 H   0  0  0  0  0  0  0  0  0  0  0  0
   -1.5101   -7.5785    3.8905 H   0  0  0  0  0  0  0  0  0  0  0  0
   -1.3162   -5.9479    4.6720 H   0  0  0  0  0  0  0  0  0  0  0  0
   -0.1516   -5.9643    2.5359 H   0  0  0  0  0  0  0  0  0  0  0  0
    2.7452   -6.3514    0.5327 H   0  0  0  0  0  0  0  0  0  0  0  0
    3.3723   -5.5753    2.6585 H   0  0  0  0  0  0  0  0  0  0  0  0
    2.6964   -4.2662    4.8143 H   0  0  0  0  0  0  0  0  0  0  0  0
    1.1419   -2.5756    1.1465 H   0  0  0  0  0  0  0  0  0  0  0  0
    1.0630    0.5214    5.0482 H   0  0  0  0  0  0  0  0  0  0  0  0
    2.9156   -1.0683    8.6250 H   0  0  0  0  0  0  0  0  0  0  0  0
    1.3844    2.3077    6.9243 H   0  0  0  0  0  0  0  0  0  0  0  0
    2.9358    1.1664    9.2998 H   0  0  0  0  0  0  0  0  0  0  0  0
    2.3575    2.9075    9.0177 H   0  0  0  0  0  0  0  0  0  0  0  0
  1  2  2  0
  2  3  1  0
  3  4  1  0
  4  5  2  0
  4  6  1  0
  3  7  2  0
  7  8  1  0
  8  9  2  0
  9 10  1  0
 10 11  2  0
 11 12  1  0
  9 13  1  0
 13 14  2  3
 14 15  1  0
 15 16  2  0
 16 17  1  0
 17 18  1  0
 18 19  2  0
 18 20  1  0
 17 21  2  0
 21 22  1  0
 22 23  2  0
 23 24  1  0
 24 25  2  0
 25 26  1  0
 23 27  1  0
 27 28  2  3
 28 29  1  0
 29 30  2  0
 30 31  1  0
 31 32  1  0
 32 33  2  0
 32 34  1  0
 31 35  2  0
 35 36  1  0
 36 37  2  0
 37 38  1  0
 38 39  2  0
 39 40  1  0
 37 41  1  0
 41 42  2  3
 42 43  1  0
 43 44  2  0
 44 45  1  0
 45 46  1  0
 46 47  2  0
 46 48  1  0
 45 49  2  0
 49 50  1  0
 50 51  2  0
 51 52  1  0
 52 53  2  0
 53 54  1  0
 51 55  1  0
 55 56  2  3
 56 57  1  0
 57 58  1  0
 57 59  2  0
 59 60  1  0
 60 61  2  0
 61 62  1  0
 62 63  1  0
 61 64  1  0
 64 65  1  0
 65 66  1  0
 64 67  2  0
 67 68  1  0
 68 69  2  0
 69 70  1  0
 70 71  2  3
 71 72  1  0
 72 73  2  0
 73 74  1  0
 74 75  1  0
 75 76  2  0
 75 77  1  0
 74 78  2  0
 78 79  1  0
 79 80  2  0
 80 81  1  0
 81 82  2  0
 82 83  1  0
 80 84  1  0
 84 85  2  3
  5  1  1  0
 11  7  1  0
 19 15  1  0
 25 21  1  0
 33 29  1  0
 39 35  1  0
 47 43  1  0
 53 49  1  0
 69 58  1  0
 76 72  1  0
 82 78  1  0
 68 59  1  0
  1 86  1  0
  2 87  1  0
  5 88  1  0
  8 89  1  0
 10 90  1  0
 13 91  1  0
 14 92  1  0
 16 93  1  0
 19 94  1  0
 22 95  1  0
 24 96  1  0
 27 97  1  0
 28 98  1  0
 30 99  1  0
 33100  1  0
 36101  1  0
 38102  1  0
 41103  1  0
 42104  1  0
 44105  1  0
 47106  1  0
 50107  1  0
 52108  1  0
 55109  1  0
 56110  1  0
 60111  1  0
 63112  1  0
 63113  1  0
 63114  1  0
 66115  1  0
 66116  1  0
 66117  1  0
 67118  1  0
 70119  1  0
 71120  1  0
 73121  1  0
 76122  1  0
 79123  1  0
 81124  1  0
 84125  1  0
 85126  1  0
 85127  1  0
M  END

