
     RDKit          3D

227247  0  0  0  0  0  0  0  0999 V2000
   12.2035   -0.9790    2.3544 C   0  0  0  0  0  0  0  0  0  0  0  0
   11.5948    0.0068    1.1316 S   0  0  0  0  0  0  0  0  0  0  0  0
   11.2474   -1.9479    2.6278 C   0  0  0  0  0  0  0  0  0  0  0  0
   11.3891   -2.9544    3.5822 C   0  0  0  0  0  0  0  0  0  0  0  0
   10.3493   -3.8915    3.7600 C   0  0  0  0  0  0  0  0  0  0  0  0
   10.4143   -4.8960    4.7417 O   0  0  0  0  0  0  0  0  0  0  0  0
   11.4538   -5.0225    5.7067 C   0  0  0  0  0  0  0  0  0  0  0  0
    9.2009   -3.8326    2.9423 C   0  0  0  0  0  0  0  0  0  0  0  0
    8.1961   -4.7937    3.1411 O   0  0  0  0  0  0  0  0  0  0  0  0
    6.9110   -4.7484    2.5283 C   0  0  0  0  0  0  0  0  0  0  0  0
    9.0835   -2.8239    1.9622 C   0  0  0  0  0  0  0  0  0  0  0  0
   10.0869   -1.8522    1.8383 C   0  0  0  0  0  0  0  0  0  0  0  0
   10.1094   -0.7659    0.9464 C   0  0  0  0  0  0  0  0  0  0  0  0
    9.0696   -0.2970    0.0136 C   0  0  0  0  0  0  0  0  0  0  0  0
    7.7643   -0.3599    0.2977 C   0  0  0  0  0  0  0  0  0  0  0  0
    6.7260    0.1415   -0.6206 C   0  0  0  0  0  0  0  0  0  0  0  0
    6.9312    1.3474   -1.7895 S   0  0  0  0  0  0  0  0  0  0  0  0
    5.3979   -0.2850   -0.6648 C   0  0  0  0  0  0  0  0  0  0  0  0
    4.8520   -1.3561    0.0594 C   0  0  0  0  0  0  0  0  0  0  0  0
    3.5082   -1.7359   -0.1616 C   0  0  0  0  0  0  0  0  0  0  0  0
    2.9099   -2.8046    0.5273 O   0  0  0  0  0  0  0  0  0  0  0  0
    3.6049   -3.6962    1.3929 C   0  0  0  0  0  0  0  0  0  0  0  0
    2.7308   -1.0442   -1.1113 C   0  0  0  0  0  0  0  0  0  0  0  0
    1.4045   -1.4591   -1.3175 O   0  0  0  0  0  0  0  0  0  0  0  0
    0.5179   -0.8650   -2.2635 C   0  0  0  0  0  0  0  0  0  0  0  0
    3.2949    0.0205   -1.8428 C   0  0  0  0  0  0  0  0  0  0  0  0
    4.6227    0.4029   -1.6080 C   0  0  0  0  0  0  0  0  0  0  0  0
    5.3290    1.3881   -2.3114 C   0  0  0  0  0  0  0  0  0  0  0  0
    4.8342    2.1669   -3.4662 C   0  0  0  0  0  0  0  0  0  0  0  0
    3.6505    2.7699   -3.4102 C   0  0  0  0  0  0  0  0  0  0  0  0
    2.8323    3.0368   -4.6077 C   0  0  0  0  0  0  0  0  0  0  0  0
    2.8482    2.2497   -5.7619 C   0  0  0  0  0  0  0  0  0  0  0  0
    1.6375    2.2904   -6.4823 C   0  0  0  0  0  0  0  0  0  0  0  0
    1.2731    1.4503   -7.5627 C   0  0  0  0  0  0  0  0  0  0  0  0
    2.2282    0.5222   -8.2083 C   0  0  0  0  0  0  0  0  0  0  0  0
    2.5044    0.6624   -9.5757 C   0  0  0  0  0  0  0  0  0  0  0  0
    3.4630   -0.1487  -10.1889 C   0  0  0  0  0  0  0  0  0  0  0  0
    4.1423   -1.1162   -9.4438 C   0  0  0  0  0  0  0  0  0  0  0  0
    5.4430   -2.0792  -10.2224 S   0  0  0  0  0  0  0  0  0  0  0  0
    6.7371   -0.8531   -9.8188 C   0  0  0  0  0  0  0  0  0  0  0  0
    8.0669   -1.2698  -10.4233 C   0  0  0  0  0  0  0  0  0  0  0  0
    3.8260   -1.3045   -8.0904 C   0  0  0  0  0  0  0  0  0  0  0  0
    4.4695   -2.2502   -7.3617 F   0  0  0  0  0  0  0  0  0  0  0  0
    2.8638   -0.4925   -7.4781 C   0  0  0  0  0  0  0  0  0  0  0  0
   -0.0741    1.4787   -7.9624 C   0  0  0  0  0  0  0  0  0  0  0  0
   -1.0132    2.3290   -7.3742 C   0  0  0  0  0  0  0  0  0  0  0  0
   -0.6255    3.2468   -6.3732 C   0  0  0  0  0  0  0  0  0  0  0  0
   -1.6151    4.1323   -5.7260 C   0  0  0  0  0  0  0  0  0  0  0  0
   -1.9901    3.9360   -4.3885 C   0  0  0  0  0  0  0  0  0  0  0  0
   -3.0164    4.7006   -3.8257 C   0  0  0  0  0  0  0  0  0  0  0  0
   -3.6785    5.6647   -4.5956 C   0  0  0  0  0  0  0  0  0  0  0  0
   -5.0871    6.5425   -3.9146 S   0  0  0  0  0  0  0  0  0  0  0  0
   -6.2750    5.3104   -4.5524 C   0  0  0  0  0  0  0  0  0  0  0  0
   -7.6914    5.6832   -4.1576 C   0  0  0  0  0  0  0  0  0  0  0  0
   -3.2781    5.8923   -5.9188 C   0  0  0  0  0  0  0  0  0  0  0  0
   -2.2597    5.1194   -6.4849 C   0  0  0  0  0  0  0  0  0  0  0  0
   -3.8946    6.8401   -6.6720 F   0  0  0  0  0  0  0  0  0  0  0  0
    0.7001    3.1603   -5.9184 C   0  0  0  0  0  0  0  0  0  0  0  0
    1.3515    3.8337   -4.5218 S   0  0  0  0  0  0  0  0  0  0  0  0
   -2.3420    1.9770   -7.6655 C   0  0  0  0  0  0  0  0  0  0  0  0
   -2.4693    0.7651   -8.3575 C   0  0  0  0  0  0  0  0  0  0  0  0
   -0.9017    0.2695   -8.7839 S   0  0  0  0  0  0  0  0  0  0  0  0
   -3.4996   -0.2104   -7.9226 C   0  0  0  0  0  0  0  0  0  0  0  0
   -3.0689   -1.3576   -7.2510 C   0  0  0  0  0  0  0  0  0  0  0  0
   -3.7622   -1.6066   -6.0559 C   0  0  0  0  0  0  0  0  0  0  0  0
   -3.2463   -2.3480   -4.9685 C   0  0  0  0  0  0  0  0  0  0  0  0
   -1.9669   -3.0806   -5.0692 C   0  0  0  0  0  0  0  0  0  0  0  0
   -0.7565   -2.3761   -5.1623 C   0  0  0  0  0  0  0  0  0  0  0  0
    0.4557   -3.0678   -5.2133 C   0  0  0  0  0  0  0  0  0  0  0  0
    0.4693   -4.4674   -5.1763 C   0  0  0  0  0  0  0  0  0  0  0  0
    2.0405   -5.3394   -5.2280 S   0  0  0  0  0  0  0  0  0  0  0  0
    2.3190   -5.2991   -3.4227 C   0  0  0  0  0  0  0  0  0  0  0  0
    1.5967   -6.4475   -2.7334 C   0  0  0  0  0  0  0  0  0  0  0  0
   -0.7405   -5.1722   -5.1197 C   0  0  0  0  0  0  0  0  0  0  0  0
   -0.7501   -6.5283   -5.1302 F   0  0  0  0  0  0  0  0  0  0  0  0
   -1.9546   -4.4803   -5.0463 C   0  0  0  0  0  0  0  0  0  0  0  0
   -3.8417   -2.1331   -3.7168 C   0  0  0  0  0  0  0  0  0  0  0  0
   -4.9503   -1.2965   -3.5507 C   0  0  0  0  0  0  0  0  0  0  0  0
   -5.5393   -0.6470   -4.6563 C   0  0  0  0  0  0  0  0  0  0  0  0
   -6.7037    0.2533   -4.5011 C   0  0  0  0  0  0  0  0  0  0  0  0
   -6.6100    1.4127   -3.7164 C   0  0  0  0  0  0  0  0  0  0  0  0
   -7.7566    2.1577   -3.4267 C   0  0  0  0  0  0  0  0  0  0  0  0
   -8.9978    1.7666   -3.9389 C   0  0  0  0  0  0  0  0  0  0  0  0
  -10.4760    2.6928   -3.5087 S   0  0  0  0  0  0  0  0  0  0  0  0
  -10.8454    1.7238   -2.0024 C   0  0  0  0  0  0  0  0  0  0  0  0
   -9.9767    2.1694   -0.8321 C   0  0  0  0  0  0  0  0  0  0  0  0
   -9.0828    0.6537   -4.7896 C   0  0  0  0  0  0  0  0  0  0  0  0
   -7.9370   -0.0988   -5.0697 C   0  0  0  0  0  0  0  0  0  0  0  0
  -10.2760    0.2844   -5.3170 F   0  0  0  0  0  0  0  0  0  0  0  0
   -4.8858   -0.7905   -5.8922 C   0  0  0  0  0  0  0  0  0  0  0  0
   -4.9355    0.3001   -7.1684 S   0  0  0  0  0  0  0  0  0  0  0  0
   -5.2481   -1.0370   -2.2029 C   0  0  0  0  0  0  0  0  0  0  0  0
   -4.3270   -1.5954   -1.3174 C   0  0  0  0  0  0  0  0  0  0  0  0
   -3.2051   -2.5021   -2.2006 S   0  0  0  0  0  0  0  0  0  0  0  0
   -4.1700   -1.1968    0.0918 C   0  0  0  0  0  0  0  0  0  0  0  0
   -4.7039   -0.0411    0.6654 C   0  0  0  0  0  0  0  0  0  0  0  0
   -4.3540    0.1252    2.0165 C   0  0  0  0  0  0  0  0  0  0  0  0
   -4.7132    1.2027    2.8599 C   0  0  0  0  0  0  0  0  0  0  0  0
   -5.3624    2.4418    2.3673 C   0  0  0  0  0  0  0  0  0  0  0  0
   -6.5926    2.4114    1.6945 C   0  0  0  0  0  0  0  0  0  0  0  0
   -7.2160    3.6056    1.3136 C   0  0  0  0  0  0  0  0  0  0  0  0
   -6.6272    4.8387    1.6144 C   0  0  0  0  0  0  0  0  0  0  0  0
   -7.4652    6.3663    1.1629 S   0  0  0  0  0  0  0  0  0  0  0  0
   -6.5656    6.6155   -0.4103 C   0  0  0  0  0  0  0  0  0  0  0  0
   -5.3843    7.5516   -0.2057 C   0  0  0  0  0  0  0  0  0  0  0  0
   -5.4134    4.8776    2.3065 C   0  0  0  0  0  0  0  0  0  0  0  0
   -4.8458    6.0595    2.6579 F   0  0  0  0  0  0  0  0  0  0  0  0
   -4.7713    3.6875    2.6505 C   0  0  0  0  0  0  0  0  0  0  0  0
   -4.3030    1.1058    4.1998 C   0  0  0  0  0  0  0  0  0  0  0  0
   -3.4752    0.0818    4.6758 C   0  0  0  0  0  0  0  0  0  0  0  0
   -2.9938   -0.9082    3.7949 C   0  0  0  0  0  0  0  0  0  0  0  0
   -1.8602   -1.7796    4.1564 C   0  0  0  0  0  0  0  0  0  0  0  0
   -1.9582   -2.6991    5.2100 C   0  0  0  0  0  0  0  0  0  0  0  0
   -0.8289   -3.4079    5.6309 C   0  0  0  0  0  0  0  0  0  0  0  0
    0.4091   -3.1946    5.0090 C   0  0  0  0  0  0  0  0  0  0  0  0
    1.8693   -4.0713    5.5799 S   0  0  0  0  0  0  0  0  0  0  0  0
    2.4780   -2.7126    6.6437 C   0  0  0  0  0  0  0  0  0  0  0  0
    1.7994   -2.7328    8.0066 C   0  0  0  0  0  0  0  0  0  0  0  0
    0.4991   -2.3069    3.9284 C   0  0  0  0  0  0  0  0  0  0  0  0
   -0.6317   -1.6054    3.5062 C   0  0  0  0  0  0  0  0  0  0  0  0
    1.6876   -2.0888    3.3116 F   0  0  0  0  0  0  0  0  0  0  0  0
   -3.5063   -0.8874    2.4820 C   0  0  0  0  0  0  0  0  0  0  0  0
   -3.2014   -1.9806    1.2340 S   0  0  0  0  0  0  0  0  0  0  0  0
   -3.1678    0.2128    6.0462 C   0  0  0  0  0  0  0  0  0  0  0  0
   -3.7674    1.3251    6.6247 C   0  0  0  0  0  0  0  0  0  0  0  0
   -4.6593    2.1528    5.4653 S   0  0  0  0  0  0  0  0  0  0  0  0
   -3.6966    1.7262    8.0329 C   0  0  0  0  0  0  0  0  0  0  0  0
   -3.3667    3.2918    8.5524 S   0  0  0  0  0  0  0  0  0  0  0  0
   -4.0913    0.9767    9.1430 C   0  0  0  0  0  0  0  0  0  0  0  0
   -4.5092   -0.3582    9.1228 C   0  0  0  0  0  0  0  0  0  0  0  0
   -4.9255   -0.9720   10.3233 C   0  0  0  0  0  0  0  0  0  0  0  0
   -5.3498   -2.3123   10.3664 O   0  0  0  0  0  0  0  0  0  0  0  0
   -5.2917   -3.2082    9.2579 C   0  0  0  0  0  0  0  0  0  0  0  0
   -4.9268   -0.2372   11.5279 C   0  0  0  0  0  0  0  0  0  0  0  0
   -5.3713   -0.8776   12.6983 O   0  0  0  0  0  0  0  0  0  0  0  0
   -5.4911   -0.2404   13.9673 C   0  0  0  0  0  0  0  0  0  0  0  0
   -4.4927    1.1049   11.5345 C   0  0  0  0  0  0  0  0  0  0  0  0
   -4.1053    1.7141   10.3394 C   0  0  0  0  0  0  0  0  0  0  0  0
   -3.7082    3.0490   10.1801 C   0  0  0  0  0  0  0  0  0  0  0  0
   -3.6298    4.1210   11.1895 C   0  0  0  0  0  0  0  0  0  0  0  0
   -4.6021    4.3483   12.0684 C   0  0  0  0  0  0  0  0  0  0  0  0
   13.1693   -0.8739    2.8381 H   0  0  0  0  0  0  0  0  0  0  0  0
   12.2906   -3.0072    4.1725 H   0  0  0  0  0  0  0  0  0  0  0  0
   11.2223   -5.8725    6.3797 H   0  0  0  0  0  0  0  0  0  0  0  0
   12.4206   -5.2251    5.2016 H   0  0  0  0  0  0  0  0  0  0  0  0
   11.5276   -4.0957    6.3217 H   0  0  0  0  0  0  0  0  0  0  0  0
    6.2825   -5.5698    2.9240 H   0  0  0  0  0  0  0  0  0  0  0  0
    6.4169   -3.7836    2.7620 H   0  0  0  0  0  0  0  0  0  0  0  0
    7.0026   -4.8642    1.4289 H   0  0  0  0  0  0  0  0  0  0  0  0
    8.2408   -2.8325    1.2899 H   0  0  0  0  0  0  0  0  0  0  0  0
    9.3928    0.1969   -0.8934 H   0  0  0  0  0  0  0  0  0  0  0  0
    7.4344   -0.7693    1.2419 H   0  0  0  0  0  0  0  0  0  0  0  0
    5.4651   -1.9001    0.7599 H   0  0  0  0  0  0  0  0  0  0  0  0
    4.0685   -3.1385    2.2300 H   0  0  0  0  0  0  0  0  0  0  0  0
    4.3804   -4.2469    0.8243 H   0  0  0  0  0  0  0  0  0  0  0  0
    2.8849   -4.4257    1.8139 H   0  0  0  0  0  0  0  0  0  0  0  0
    0.3156    0.1923   -1.9933 H   0  0  0  0  0  0  0  0  0  0  0  0
   -0.4347   -1.4288   -2.2772 H   0  0  0  0  0  0  0  0  0  0  0  0
    0.9590   -0.9098   -3.2811 H   0  0  0  0  0  0  0  0  0  0  0  0
    2.7136    0.5080   -2.6094 H   0  0  0  0  0  0  0  0  0  0  0  0
    5.3766    2.0985   -4.4019 H   0  0  0  0  0  0  0  0  0  0  0  0
    3.1720    2.9181   -2.4496 H   0  0  0  0  0  0  0  0  0  0  0  0
    3.6550    1.5628   -5.9828 H   0  0  0  0  0  0  0  0  0  0  0  0
    2.0043    1.4274  -10.1587 H   0  0  0  0  0  0  0  0  0  0  0  0
    3.6887   -0.0076  -11.2386 H   0  0  0  0  0  0  0  0  0  0  0  0
    6.8446   -0.7778   -8.7138 H   0  0  0  0  0  0  0  0  0  0  0  0
    6.4498    0.1438  -10.2216 H   0  0  0  0  0  0  0  0  0  0  0  0
    8.8447   -0.5212  -10.1596 H   0  0  0  0  0  0  0  0  0  0  0  0
    8.3783   -2.2615  -10.0273 H   0  0  0  0  0  0  0  0  0  0  0  0
    7.9850   -1.3178  -11.5322 H   0  0  0  0  0  0  0  0  0  0  0  0
    2.6374   -0.6361   -6.4274 H   0  0  0  0  0  0  0  0  0  0  0  0
   -1.5207    3.1577   -3.7976 H   0  0  0  0  0  0  0  0  0  0  0  0
   -3.3239    4.5110   -2.8032 H   0  0  0  0  0  0  0  0  0  0  0  0
   -6.0262    4.3094   -4.1356 H   0  0  0  0  0  0  0  0  0  0  0  0
   -6.2043    5.2666   -5.6616 H   0  0  0  0  0  0  0  0  0  0  0  0
   -7.9266    6.7169   -4.4903 H   0  0  0  0  0  0  0  0  0  0  0  0
   -7.8111    5.6112   -3.0574 H   0  0  0  0  0  0  0  0  0  0  0  0
   -8.4045    4.9806   -4.6373 H   0  0  0  0  0  0  0  0  0  0  0  0
   -1.9826    5.2817   -7.5206 H   0  0  0  0  0  0  0  0  0  0  0  0
   -3.1776    2.4482   -7.1626 H   0  0  0  0  0  0  0  0  0  0  0  0
   -2.1252   -1.8353   -7.4713 H   0  0  0  0  0  0  0  0  0  0  0  0
   -0.7544   -1.2926   -5.1896 H   0  0  0  0  0  0  0  0  0  0  0  0
    1.3843   -2.5183   -5.2695 H   0  0  0  0  0  0  0  0  0  0  0  0
    1.9884   -4.3325   -2.9949 H   0  0  0  0  0  0  0  0  0  0  0  0
    3.4101   -5.4008   -3.2415 H   0  0  0  0  0  0  0  0  0  0  0  0
    1.8627   -7.4134   -3.2123 H   0  0  0  0  0  0  0  0  0  0  0  0
    1.8964   -6.4870   -1.6648 H   0  0  0  0  0  0  0  0  0  0  0  0
    0.5005   -6.2988   -2.7951 H   0  0  0  0  0  0  0  0  0  0  0  0
   -2.8869   -5.0339   -4.9839 H   0  0  0  0  0  0  0  0  0  0  0  0
   -5.6612    1.7077   -3.2866 H   0  0  0  0  0  0  0  0  0  0  0  0
   -7.6855    3.0141   -2.7731 H   0  0  0  0  0  0  0  0  0  0  0  0
  -11.9099    1.8921   -1.7419 H   0  0  0  0  0  0  0  0  0  0  0  0
  -10.7075    0.6369   -2.1856 H   0  0  0  0  0  0  0  0  0  0  0  0
  -10.3878    1.7614    0.1153 H   0  0  0  0  0  0  0  0  0  0  0  0
   -8.9396    1.7953   -0.9514 H   0  0  0  0  0  0  0  0  0  0  0  0
   -9.9588    3.2769   -0.7633 H   0  0  0  0  0  0  0  0  0  0  0  0
   -8.0194   -0.9831   -5.6904 H   0  0  0  0  0  0  0  0  0  0  0  0
   -6.0492   -0.3899   -1.8728 H   0  0  0  0  0  0  0  0  0  0  0  0
   -5.3009    0.6661    0.1040 H   0  0  0  0  0  0  0  0  0  0  0  0
   -7.0925    1.4700    1.4925 H   0  0  0  0  0  0  0  0  0  0  0  0
   -8.1705    3.5753    0.8138 H   0  0  0  0  0  0  0  0  0  0  0  0
   -7.2659    7.0830   -1.1392 H   0  0  0  0  0  0  0  0  0  0  0  0
   -6.2160    5.6520   -0.8347 H   0  0  0  0  0  0  0  0  0  0  0  0
   -5.7214    8.5068    0.2518 H   0  0  0  0  0  0  0  0  0  0  0  0
   -4.6230    7.0780    0.4426 H   0  0  0  0  0  0  0  0  0  0  0  0
   -4.9137    7.7881   -1.1813 H   0  0  0  0  0  0  0  0  0  0  0  0
   -3.8283    3.7405    3.1838 H   0  0  0  0  0  0  0  0  0  0  0  0
   -2.9007   -2.8433    5.7217 H   0  0  0  0  0  0  0  0  0  0  0  0
   -0.9129   -4.1055    6.4552 H   0  0  0  0  0  0  0  0  0  0  0  0
    3.5697   -2.8506    6.7872 H   0  0  0  0  0  0  0  0  0  0  0  0
    2.3199   -1.7288    6.1541 H   0  0  0  0  0  0  0  0  0  0  0  0
    1.9574   -3.7196    8.4919 H   0  0  0  0  0  0  0  0  0  0  0  0
    0.7116   -2.5431    7.9023 H   0  0  0  0  0  0  0  0  0  0  0  0
    2.2376   -1.9409    8.6539 H   0  0  0  0  0  0  0  0  0  0  0  0
   -0.5343   -0.8868    2.7043 H   0  0  0  0  0  0  0  0  0  0  0  0
   -2.5288   -0.4602    6.5987 H   0  0  0  0  0  0  0  0  0  0  0  0
   -4.5232   -0.9026    8.1913 H   0  0  0  0  0  0  0  0  0  0  0  0
   -5.6538   -4.2065    9.5768 H   0  0  0  0  0  0  0  0  0  0  0  0
   -5.9384   -2.8431    8.4332 H   0  0  0  0  0  0  0  0  0  0  0  0
   -4.2425   -3.3058    8.8999 H   0  0  0  0  0  0  0  0  0  0  0  0
   -6.1826    0.6252   13.8966 H   0  0  0  0  0  0  0  0  0  0  0  0
   -4.4936    0.0980   14.3192 H   0  0  0  0  0  0  0  0  0  0  0  0
   -5.9017   -0.9582   14.7035 H   0  0  0  0  0  0  0  0  0  0  0  0
   -4.4582    1.6628   12.4580 H   0  0  0  0  0  0  0  0  0  0  0  0
   -2.8039    4.8177   11.1386 H   0  0  0  0  0  0  0  0  0  0  0  0
   -4.5205    5.1885   12.7456 H   0  0  0  0  0  0  0  0  0  0  0  0
   -5.4994    3.7448   12.0987 H   0  0  0  0  0  0  0  0  0  0  0  0
  1  2  1  0
  1  3  2  0
  3  4  1  0
  4  5  2  0
  5  6  1  0
  6  7  1  0
  5  8  1  0
  8  9  1  0
  9 10  1  0
  8 11  2  0
 11 12  1  0
 12 13  2  0
 13 14  1  0
 14 15  2  3
 15 16  1  0
 16 17  1  0
 16 18  2  0
 18 19  1  0
 19 20  2  0
 20 21  1  0
 21 22  1  0
 20 23  1  0
 23 24  1  0
 24 25  1  0
 23 26  2  0
 26 27  1  0
 27 28  2  0
 28 29  1  0
 29 30  2  3
 30 31  1  0
 31 32  2  0
 32 33  1  0
 33 34  2  0
 34 35  1  0
 35 36  2  0
 36 37  1  0
 37 38  2  0
 38 39  1  0
 39 40  1  0
 40 41  1  0
 38 42  1  0
 42 43  1  0
 42 44  2  0
 34 45  1  0
 45 46  2  0
 46 47  1  0
 47 48  1  0
 48 49  2  0
 49 50  1  0
 50 51  2  0
 51 52  1  0
 52 53  1  0
 53 54  1  0
 51 55  1  0
 55 56  2  0
 55 57  1  0
 47 58  2  0
 58 59  1  0
 46 60  1  0
 60 61  2  0
 61 62  1  0
 61 63  1  0
 63 64  2  0
 64 65  1  0
 65 66  2  0
 66 67  1  0
 67 68  2  0
 68 69  1  0
 69 70  2  0
 70 71  1  0
 71 72  1  0
 72 73  1  0
 70 74  1  0
 74 75  1  0
 74 76  2  0
 66 77  1  0
 77 78  2  0
 78 79  1  0
 79 80  1  0
 80 81  2  0
 81 82  1  0
 82 83  2  0
 83 84  1  0
 84 85  1  0
 85 86  1  0
 83 87  1  0
 87 88  2  0
 87 89  1  0
 79 90  2  0
 90 91  1  0
 78 92  1  0
 92 93  2  0
 93 94  1  0
 93 95  1  0
 95 96  2  0
 96 97  1  0
 97 98  2  0
 98 99  1  0
 99100  2  0
100101  1  0
101102  2  0
102103  1  0
103104  1  0
104105  1  0
102106  1  0
106107  1  0
106108  2  0
 98109  1  0
109110  2  0
110111  1  0
111112  1  0
112113  2  0
113114  1  0
114115  2  0
115116  1  0
116117  1  0
117118  1  0
115119  1  0
119120  2  0
119121  1  0
111122  2  0
122123  1  0
110124  1  0
124125  2  0
125126  1  0
125127  1  0
127128  1  0
127129  2  0
129130  1  0
130131  2  0
131132  1  0
132133  1  0
131134  1  0
134135  1  0
135136  1  0
134137  2  0
137138  1  0
138139  2  0
139140  1  0
140141  2  3
 13  2  1  0
 28 17  1  0
 59 31  1  0
 91 63  1  0
123 95  1  0
139128  1  0
 12  3  1  0
 27 18  1  0
 58 33  1  0
 90 65  1  0
122 97  1  0
138129  1  0
 44 35  1  0
 62 45  1  0
 76 67  1  0
 94 77  1  0
108 99  1  0
126109  1  0
 56 48  1  0
 88 80  1  0
120112  1  0
  1142  1  0
  4143  1  0
  7144  1  0
  7145  1  0
  7146  1  0
 10147  1  0
 10148  1  0
 10149  1  0
 11150  1  0
 14151  1  0
 15152  1  0
 19153  1  0
 22154  1  0
 22155  1  0
 22156  1  0
 25157  1  0
 25158  1  0
 25159  1  0
 26160  1  0
 29161  1  0
 30162  1  0
 32163  1  0
 36164  1  0
 37165  1  0
 40166  1  0
 40167  1  0
 41168  1  0
 41169  1  0
 41170  1  0
 44171  1  0
 49172  1  0
 50173  1  0
 53174  1  0
 53175  1  0
 54176  1  0
 54177  1  0
 54178  1  0
 56179  1  0
 60180  1  0
 64181  1  0
 68182  1  0
 69183  1  0
 72184  1  0
 72185  1  0
 73186  1  0
 73187  1  0
 73188  1  0
 76189  1  0
 81190  1  0
 82191  1  0
 85192  1  0
 85193  1  0
 86194  1  0
 86195  1  0
 86196  1  0
 88197  1  0
 92198  1  0
 96199  1  0
100200  1  0
101201  1  0
104202  1  0
104203  1  0
105204  1  0
105205  1  0
105206  1  0
108207  1  0
113208  1  0
114209  1  0
117210  1  0
117211  1  0
118212  1  0
118213  1  0
118214  1  0
120215  1  0
124216  1  0
130217  1  0
133218  1  0
133219  1  0
133220  1  0
136221  1  0
136222  1  0
136223  1  0
137224  1  0
140225  1  0
141226  1  0
141227  1  0
M  END

