
     RDKit          3D

252275  0  0  0  0  0  0  0  0999 V2000
    0.2159   -1.9723    9.2683 C   0  0  0  0  0  0  0  0  0  0  0  0
    0.1472   -1.0125    8.2651 C   0  0  0  0  0  0  0  0  0  0  0  0
   -1.0138   -1.1230    7.4789 C   0  0  0  0  0  0  0  0  0  0  0  0
   -1.3529   -0.3015    6.3900 C   0  0  0  0  0  0  0  0  0  0  0  0
   -0.4116    0.6906    5.8401 C   0  0  0  0  0  0  0  0  0  0  0  0
    0.5697    0.2819    4.9313 C   0  0  0  0  0  0  0  0  0  0  0  0
    1.4067    1.2261    4.3245 C   0  0  0  0  0  0  0  0  0  0  0  0
    1.2421    2.5860    4.6033 C   0  0  0  0  0  0  0  0  0  0  0  0
    2.2279    3.8020    3.7220 S   0  0  0  0  0  0  0  0  0  0  0  0
    3.4632    4.0156    5.0562 C   0  0  0  0  0  0  0  0  0  0  0  0
    4.6485    3.0839    4.8446 C   0  0  0  0  0  0  0  0  0  0  0  0
    0.2527    3.0006    5.5064 C   0  0  0  0  0  0  0  0  0  0  0  0
    0.0928    4.3161    5.7864 F   0  0  0  0  0  0  0  0  0  0  0  0
   -0.5622    2.0508    6.1355 C   0  0  0  0  0  0  0  0  0  0  0  0
   -2.5723   -0.5694    5.7536 C   0  0  0  0  0  0  0  0  0  0  0  0
   -3.3948   -1.6474    6.0969 C   0  0  0  0  0  0  0  0  0  0  0  0
   -3.0427   -2.4980    7.1708 C   0  0  0  0  0  0  0  0  0  0  0  0
   -3.8370   -3.7081    7.5062 C   0  0  0  0  0  0  0  0  0  0  0  0
   -5.1973   -3.5978    7.8340 C   0  0  0  0  0  0  0  0  0  0  0  0
   -5.9680   -4.7539    8.0261 C   0  0  0  0  0  0  0  0  0  0  0  0
   -5.3822   -6.0225    7.8929 C   0  0  0  0  0  0  0  0  0  0  0  0
   -6.3941   -7.4957    8.0686 S   0  0  0  0  0  0  0  0  0  0  0  0
   -6.9490   -7.5151    6.3203 C   0  0  0  0  0  0  0  0  0  0  0  0
   -5.8464   -8.0019    5.3834 C   0  0  0  0  0  0  0  0  0  0  0  0
   -4.0128   -6.1240    7.6153 C   0  0  0  0  0  0  0  0  0  0  0  0
   -3.2452   -4.9750    7.4177 C   0  0  0  0  0  0  0  0  0  0  0  0
   -3.4269   -7.3470    7.4969 F   0  0  0  0  0  0  0  0  0  0  0  0
   -1.8419   -2.1856    7.8565 C   0  0  0  0  0  0  0  0  0  0  0  0
   -1.1452   -2.9704    9.1696 S   0  0  0  0  0  0  0  0  0  0  0  0
   -4.4829   -1.8116    5.2210 C   0  0  0  0  0  0  0  0  0  0  0  0
   -4.5269   -0.8315    4.2332 C   0  0  0  0  0  0  0  0  0  0  0  0
   -3.2068    0.2005    4.4008 S   0  0  0  0  0  0  0  0  0  0  0  0
   -5.3007   -0.8907    2.9953 C   0  0  0  0  0  0  0  0  0  0  0  0
   -5.9698    0.2053    2.4486 C   0  0  0  0  0  0  0  0  0  0  0  0
   -6.0650    0.1483    1.0460 C   0  0  0  0  0  0  0  0  0  0  0  0
   -6.5418    1.1730    0.2061 C   0  0  0  0  0  0  0  0  0  0  0  0
   -7.2821    2.3275    0.7518 C   0  0  0  0  0  0  0  0  0  0  0  0
   -6.5979    3.3607    1.4109 C   0  0  0  0  0  0  0  0  0  0  0  0
   -7.3066    4.4397    1.9609 C   0  0  0  0  0  0  0  0  0  0  0  0
   -8.7010    4.4805    1.8738 C   0  0  0  0  0  0  0  0  0  0  0  0
   -9.6004    5.8926    2.5461 S   0  0  0  0  0  0  0  0  0  0  0  0
   -9.6374    5.2747    4.2674 C   0  0  0  0  0  0  0  0  0  0  0  0
  -10.7342    4.2326    4.4606 C   0  0  0  0  0  0  0  0  0  0  0  0
   -9.3898    3.4485    1.2230 C   0  0  0  0  0  0  0  0  0  0  0  0
  -10.7435    3.4805    1.1178 F   0  0  0  0  0  0  0  0  0  0  0  0
   -8.6824    2.3806    0.6616 C   0  0  0  0  0  0  0  0  0  0  0  0
   -6.2878    1.0294   -1.1694 C   0  0  0  0  0  0  0  0  0  0  0  0
   -5.6449   -0.0948   -1.6980 C   0  0  0  0  0  0  0  0  0  0  0  0
   -5.2451   -1.1570   -0.8627 C   0  0  0  0  0  0  0  0  0  0  0  0
   -4.5689   -2.3623   -1.3960 C   0  0  0  0  0  0  0  0  0  0  0  0
   -5.2190   -3.6077   -1.3366 C   0  0  0  0  0  0  0  0  0  0  0  0
   -4.6539   -4.7201   -1.9687 C   0  0  0  0  0  0  0  0  0  0  0  0
   -3.4281   -4.6102   -2.6400 C   0  0  0  0  0  0  0  0  0  0  0  0
   -2.7859   -6.0076   -3.5609 S   0  0  0  0  0  0  0  0  0  0  0  0
   -1.7170   -6.5870   -2.2043 C   0  0  0  0  0  0  0  0  0  0  0  0
   -0.9048   -7.7868   -2.6685 C   0  0  0  0  0  0  0  0  0  0  0  0
   -2.7628   -3.3825   -2.6530 C   0  0  0  0  0  0  0  0  0  0  0  0
   -3.3178   -2.2676   -2.0208 C   0  0  0  0  0  0  0  0  0  0  0  0
   -1.5814   -3.2522   -3.3096 F   0  0  0  0  0  0  0  0  0  0  0  0
   -5.4705   -0.9997    0.5075 C   0  0  0  0  0  0  0  0  0  0  0  0
   -4.8391   -1.9253    1.7518 S   0  0  0  0  0  0  0  0  0  0  0  0
   -5.3807    0.0150   -3.0739 C   0  0  0  0  0  0  0  0  0  0  0  0
   -5.8101    1.2135   -3.6355 C   0  0  0  0  0  0  0  0  0  0  0  0
   -6.5147    2.1495   -2.4136 S   0  0  0  0  0  0  0  0  0  0  0  0
   -5.4421    1.7072   -4.9850 C   0  0  0  0  0  0  0  0  0  0  0  0
   -5.3597    3.3410   -5.4066 S   0  0  0  0  0  0  0  0  0  0  0  0
   -4.9342    0.9807   -6.0674 C   0  0  0  0  0  0  0  0  0  0  0  0
   -5.0110   -0.4128   -6.2381 C   0  0  0  0  0  0  0  0  0  0  0  0
   -4.3189   -1.0188   -7.3054 C   0  0  0  0  0  0  0  0  0  0  0  0
   -4.2536   -2.4142   -7.4513 O   0  0  0  0  0  0  0  0  0  0  0  0
   -4.9520   -3.3517   -6.6354 C   0  0  0  0  0  0  0  0  0  0  0  0
   -3.6574   -0.2076   -8.2513 C   0  0  0  0  0  0  0  0  0  0  0  0
   -2.8456   -0.8297   -9.2162 O   0  0  0  0  0  0  0  0  0  0  0  0
   -1.8132   -0.1668   -9.9551 C   0  0  0  0  0  0  0  0  0  0  0  0
   -3.8184    1.1918   -8.2093 C   0  0  0  0  0  0  0  0  0  0  0  0
   -4.4190    1.7904   -7.1012 C   0  0  0  0  0  0  0  0  0  0  0  0
   -4.5840    3.1673   -6.9027 C   0  0  0  0  0  0  0  0  0  0  0  0
   -4.6406    4.2106   -7.9492 C   0  0  0  0  0  0  0  0  0  0  0  0
   -3.6607    4.5301   -8.8141 C   0  0  0  0  0  0  0  0  0  0  0  0
   -2.2650    4.0662   -8.7011 C   0  0  0  0  0  0  0  0  0  0  0  0
   -1.3143    4.2251   -7.3264 S   0  0  0  0  0  0  0  0  0  0  0  0
   -1.4560    3.5812   -9.7311 C   0  0  0  0  0  0  0  0  0  0  0  0
   -1.8774    3.3231  -11.0370 C   0  0  0  0  0  0  0  0  0  0  0  0
   -0.9902    2.7197  -11.9516 C   0  0  0  0  0  0  0  0  0  0  0  0
   -1.4093    2.3180  -13.2355 O   0  0  0  0  0  0  0  0  0  0  0  0
   -2.7603    2.3786  -13.7046 C   0  0  0  0  0  0  0  0  0  0  0  0
    0.3499    2.4777  -11.5750 C   0  0  0  0  0  0  0  0  0  0  0  0
    1.2015    1.8995  -12.5308 O   0  0  0  0  0  0  0  0  0  0  0  0
    2.5796    1.6192  -12.3289 C   0  0  0  0  0  0  0  0  0  0  0  0
    0.7860    2.8082  -10.2653 C   0  0  0  0  0  0  0  0  0  0  0  0
   -0.1337    3.3237   -9.3444 C   0  0  0  0  0  0  0  0  0  0  0  0
    0.1225    3.6515   -8.0094 C   0  0  0  0  0  0  0  0  0  0  0  0
    1.3608    3.5255   -7.2246 C   0  0  0  0  0  0  0  0  0  0  0  0
    2.0449    2.3751   -7.1525 C   0  0  0  0  0  0  0  0  0  0  0  0
    2.9280    2.0695   -6.0016 C   0  0  0  0  0  0  0  0  0  0  0  0
    2.9738    2.7659   -4.7848 C   0  0  0  0  0  0  0  0  0  0  0  0
    3.6098    2.0469   -3.7649 C   0  0  0  0  0  0  0  0  0  0  0  0
    3.6876    2.4216   -2.4035 C   0  0  0  0  0  0  0  0  0  0  0  0
    3.0791    3.6791   -1.9002 C   0  0  0  0  0  0  0  0  0  0  0  0
    1.6919    3.8678   -2.0046 C   0  0  0  0  0  0  0  0  0  0  0  0
    1.1190    5.0774   -1.6121 C   0  0  0  0  0  0  0  0  0  0  0  0
    1.9128    6.0898   -1.0631 C   0  0  0  0  0  0  0  0  0  0  0  0
    1.1680    7.6666   -0.6116 S   0  0  0  0  0  0  0  0  0  0  0  0
    0.5562    7.1327    1.0219 C   0  0  0  0  0  0  0  0  0  0  0  0
    1.6688    7.1790    2.0670 C   0  0  0  0  0  0  0  0  0  0  0  0
    3.2971    5.8930   -0.9360 C   0  0  0  0  0  0  0  0  0  0  0  0
    4.0837    6.8754   -0.4224 F   0  0  0  0  0  0  0  0  0  0  0  0
    3.8801    4.6929   -1.3497 C   0  0  0  0  0  0  0  0  0  0  0  0
    4.2686    1.4918   -1.5258 C   0  0  0  0  0  0  0  0  0  0  0  0
    4.7675    0.2578   -1.9577 C   0  0  0  0  0  0  0  0  0  0  0  0
    4.7261   -0.1008   -3.3190 C   0  0  0  0  0  0  0  0  0  0  0  0
    5.2452   -1.3967   -3.8079 C   0  0  0  0  0  0  0  0  0  0  0  0
    6.6168   -1.6694   -3.7367 C   0  0  0  0  0  0  0  0  0  0  0  0
    7.1159   -2.8797   -4.2354 C   0  0  0  0  0  0  0  0  0  0  0  0
    6.2488   -3.8133   -4.8160 C   0  0  0  0  0  0  0  0  0  0  0  0
    6.9008   -5.3577   -5.4672 S   0  0  0  0  0  0  0  0  0  0  0  0
    7.0660   -4.7500   -7.1827 C   0  0  0  0  0  0  0  0  0  0  0  0
    8.4382   -4.1271   -7.4028 C   0  0  0  0  0  0  0  0  0  0  0  0
    4.8704   -3.5459   -4.8656 C   0  0  0  0  0  0  0  0  0  0  0  0
    4.3740   -2.3444   -4.3659 C   0  0  0  0  0  0  0  0  0  0  0  0
    4.0213   -4.4422   -5.4226 F   0  0  0  0  0  0  0  0  0  0  0  0
    4.1176    0.8149   -4.1935 C   0  0  0  0  0  0  0  0  0  0  0  0
    3.7401    0.6069   -5.8232 S   0  0  0  0  0  0  0  0  0  0  0  0
    5.1696   -0.5748   -0.9116 C   0  0  0  0  0  0  0  0  0  0  0  0
    4.9802    0.0032    0.3483 C   0  0  0  0  0  0  0  0  0  0  0  0
    4.3273    1.5427    0.1629 S   0  0  0  0  0  0  0  0  0  0  0  0
    5.1571   -0.7027    1.6296 C   0  0  0  0  0  0  0  0  0  0  0  0
    5.2420   -2.0882    1.7624 C   0  0  0  0  0  0  0  0  0  0  0  0
    5.3170   -2.5073    3.0972 C   0  0  0  0  0  0  0  0  0  0  0  0
    5.3845   -3.8389    3.5376 C   0  0  0  0  0  0  0  0  0  0  0  0
    5.3911   -4.9718    2.5960 C   0  0  0  0  0  0  0  0  0  0  0  0
    6.5980   -5.4167    2.0385 C   0  0  0  0  0  0  0  0  0  0  0  0
    6.6034   -6.5264    1.1870 C   0  0  0  0  0  0  0  0  0  0  0  0
    5.4143   -7.2038    0.8968 C   0  0  0  0  0  0  0  0  0  0  0  0
    5.4385   -8.6443   -0.1797 S   0  0  0  0  0  0  0  0  0  0  0  0
    5.9441   -9.8159    1.1308 C   0  0  0  0  0  0  0  0  0  0  0  0
    4.7766  -10.1730    2.0496 C   0  0  0  0  0  0  0  0  0  0  0  0
    4.2019   -6.7394    1.4343 C   0  0  0  0  0  0  0  0  0  0  0  0
    3.0340   -7.3673    1.1408 F   0  0  0  0  0  0  0  0  0  0  0  0
    4.1934   -5.6317    2.2889 C   0  0  0  0  0  0  0  0  0  0  0  0
    5.4599   -4.0502    4.9189 C   0  0  0  0  0  0  0  0  0  0  0  0
    5.4670   -2.9985    5.8385 C   0  0  0  0  0  0  0  0  0  0  0  0
    5.3798   -1.6580    5.4057 C   0  0  0  0  0  0  0  0  0  0  0  0
    5.3842   -0.5420    6.3735 C   0  0  0  0  0  0  0  0  0  0  0  0
    6.4781    0.3367    6.4373 C   0  0  0  0  0  0  0  0  0  0  0  0
    6.5659    1.2664    7.4796 C   0  0  0  0  0  0  0  0  0  0  0  0
    5.5623    1.3317    8.4523 C   0  0  0  0  0  0  0  0  0  0  0  0
    5.7278    2.4631    9.8384 S   0  0  0  0  0  0  0  0  0  0  0  0
    5.0862    3.9105    8.9383 C   0  0  0  0  0  0  0  0  0  0  0  0
    4.3129    4.8017    9.8980 C   0  0  0  0  0  0  0  0  0  0  0  0
    4.4383    0.5018    8.3525 C   0  0  0  0  0  0  0  0  0  0  0  0
    4.3538   -0.4372    7.3191 C   0  0  0  0  0  0  0  0  0  0  0  0
    3.4621    0.5358    9.2900 F   0  0  0  0  0  0  0  0  0  0  0  0
    5.3127   -1.4506    4.0128 C   0  0  0  0  0  0  0  0  0  0  0  0
    5.1905    0.0022    3.1632 S   0  0  0  0  0  0  0  0  0  0  0  0
    5.6036   -3.4392    7.1667 C   0  0  0  0  0  0  0  0  0  0  0  0
    5.6929   -4.8269    7.2739 C   0  0  0  0  0  0  0  0  0  0  0  0
    5.6074   -5.5088    5.7362 S   0  0  0  0  0  0  0  0  0  0  0  0
    1.0182   -2.0635    9.9906 H   0  0  0  0  0  0  0  0  0  0  0  0
    0.9132   -0.2613    8.1167 H   0  0  0  0  0  0  0  0  0  0  0  0
    0.6680   -0.7640    4.6661 H   0  0  0  0  0  0  0  0  0  0  0  0
    2.1571    0.8946    3.6214 H   0  0  0  0  0  0  0  0  0  0  0  0
    3.8309    5.0642    5.0111 H   0  0  0  0  0  0  0  0  0  0  0  0
    3.0159    3.8558    6.0569 H   0  0  0  0  0  0  0  0  0  0  0  0
    5.4653    3.3450    5.5654 H   0  0  0  0  0  0  0  0  0  0  0  0
    4.3291    2.0221    5.0033 H   0  0  0  0  0  0  0  0  0  0  0  0
    5.0446    3.2077    3.8079 H   0  0  0  0  0  0  0  0  0  0  0  0
   -1.3314    2.3818    6.8217 H   0  0  0  0  0  0  0  0  0  0  0  0
   -5.6684   -2.6320    7.9118 H   0  0  0  0  0  0  0  0  0  0  0  0
   -7.0180   -4.6600    8.2632 H   0  0  0  0  0  0  0  0  0  0  0  0
   -7.2932   -6.5035    6.0066 H   0  0  0  0  0  0  0  0  0  0  0  0
   -7.8101   -8.2065    6.2452 H   0  0  0  0  0  0  0  0  0  0  0  0
   -5.0403   -7.2445    5.3141 H   0  0  0  0  0  0  0  0  0  0  0  0
   -5.4146   -8.9571    5.7473 H   0  0  0  0  0  0  0  0  0  0  0  0
   -6.2657   -8.1555    4.3658 H   0  0  0  0  0  0  0  0  0  0  0  0
   -2.2020   -5.0708    7.1604 H   0  0  0  0  0  0  0  0  0  0  0  0
   -5.1696   -2.6475    5.2496 H   0  0  0  0  0  0  0  0  0  0  0  0
   -6.2430    1.0773    3.0366 H   0  0  0  0  0  0  0  0  0  0  0  0
   -5.5213    3.3251    1.5065 H   0  0  0  0  0  0  0  0  0  0  0  0
   -6.7648    5.2345    2.4523 H   0  0  0  0  0  0  0  0  0  0  0  0
   -8.6531    4.8475    4.5612 H   0  0  0  0  0  0  0  0  0  0  0  0
   -9.8426    6.1376    4.9341 H   0  0  0  0  0  0  0  0  0  0  0  0
  -11.7044    4.6147    4.0877 H   0  0  0  0  0  0  0  0  0  0  0  0
  -10.8367    3.9997    5.5418 H   0  0  0  0  0  0  0  0  0  0  0  0
  -10.4846    3.2954    3.9164 H   0  0  0  0  0  0  0  0  0  0  0  0
   -9.2270    1.5892    0.1593 H   0  0  0  0  0  0  0  0  0  0  0  0
   -6.1850   -3.6936   -0.8519 H   0  0  0  0  0  0  0  0  0  0  0  0
   -5.1937   -5.6563   -1.9655 H   0  0  0  0  0  0  0  0  0  0  0  0
   -1.0232   -5.7694   -1.8967 H   0  0  0  0  0  0  0  0  0  0  0  0
   -2.3426   -6.8715   -1.3296 H   0  0  0  0  0  0  0  0  0  0  0  0
   -0.2062   -8.1054   -1.8662 H   0  0  0  0  0  0  0  0  0  0  0  0
   -0.3018   -7.5209   -3.5653 H   0  0  0  0  0  0  0  0  0  0  0  0
   -1.5788   -8.6345   -2.9108 H   0  0  0  0  0  0  0  0  0  0  0  0
   -2.7904   -1.3201   -2.0499 H   0  0  0  0  0  0  0  0  0  0  0  0
   -4.7967   -0.7183   -3.6054 H   0  0  0  0  0  0  0  0  0  0  0  0
   -5.6229   -1.0183   -5.5822 H   0  0  0  0  0  0  0  0  0  0  0  0
   -4.6662   -3.2266   -5.5664 H   0  0  0  0  0  0  0  0  0  0  0  0
   -6.0536   -3.2328   -6.7711 H   0  0  0  0  0  0  0  0  0  0  0  0
   -4.6660   -4.3792   -6.9473 H   0  0  0  0  0  0  0  0  0  0  0  0
   -2.2533    0.5406  -10.6727 H   0  0  0  0  0  0  0  0  0  0  0  0
   -1.2375   -0.9217  -10.5229 H   0  0  0  0  0  0  0  0  0  0  0  0
   -1.1158    0.3582   -9.2586 H   0  0  0  0  0  0  0  0  0  0  0  0
   -3.4242    1.7905   -9.0051 H   0  0  0  0  0  0  0  0  0  0  0  0
   -5.5760    4.7555   -8.0401 H   0  0  0  0  0  0  0  0  0  0  0  0
   -3.8941    5.2136   -9.6178 H   0  0  0  0  0  0  0  0  0  0  0  0
   -2.9028    3.5578  -11.3165 H   0  0  0  0  0  0  0  0  0  0  0  0
   -3.4628    2.0172  -12.9294 H   0  0  0  0  0  0  0  0  0  0  0  0
   -2.8573    1.7339  -14.6000 H   0  0  0  0  0  0  0  0  0  0  0  0
   -3.0071    3.4214  -13.9789 H   0  0  0  0  0  0  0  0  0  0  0  0
    2.7033    0.8913  -11.4963 H   0  0  0  0  0  0  0  0  0  0  0  0
    3.0020    1.1825  -13.2689 H   0  0  0  0  0  0  0  0  0  0  0  0
    3.1337    2.5522  -12.0925 H   0  0  0  0  0  0  0  0  0  0  0  0
    1.8133    2.6447   -9.9757 H   0  0  0  0  0  0  0  0  0  0  0  0
    1.5080    4.2868   -6.4606 H   0  0  0  0  0  0  0  0  0  0  0  0
    1.8098    1.5666   -7.8198 H   0  0  0  0  0  0  0  0  0  0  0  0
    2.4911    3.7167   -4.6065 H   0  0  0  0  0  0  0  0  0  0  0  0
    1.0668    3.0988   -2.4311 H   0  0  0  0  0  0  0  0  0  0  0  0
    0.0555    5.2305   -1.7306 H   0  0  0  0  0  0  0  0  0  0  0  0
    0.1401    6.1071    0.9742 H   0  0  0  0  0  0  0  0  0  0  0  0
   -0.2581    7.8123    1.3351 H   0  0  0  0  0  0  0  0  0  0  0  0
    1.2410    6.9891    3.0730 H   0  0  0  0  0  0  0  0  0  0  0  0
    2.4491    6.4097    1.8550 H   0  0  0  0  0  0  0  0  0  0  0  0
    2.1495    8.1827    2.0657 H   0  0  0  0  0  0  0  0  0  0  0  0
    4.9522    4.5610   -1.2579 H   0  0  0  0  0  0  0  0  0  0  0  0
    7.3008   -0.9471   -3.3095 H   0  0  0  0  0  0  0  0  0  0  0  0
    8.1740   -3.0838   -4.1819 H   0  0  0  0  0  0  0  0  0  0  0  0
    6.2666   -4.0108   -7.4209 H   0  0  0  0  0  0  0  0  0  0  0  0
    6.9298   -5.6101   -7.8640 H   0  0  0  0  0  0  0  0  0  0  0  0
    8.5526   -3.2176   -6.7724 H   0  0  0  0  0  0  0  0  0  0  0  0
    9.2403   -4.8534   -7.1540 H   0  0  0  0  0  0  0  0  0  0  0  0
    8.5355   -3.8302   -8.4671 H   0  0  0  0  0  0  0  0  0  0  0  0
    3.3101   -2.1488   -4.4195 H   0  0  0  0  0  0  0  0  0  0  0  0
    5.5230   -1.5817   -1.0620 H   0  0  0  0  0  0  0  0  0  0  0  0
    5.2079   -2.7825    0.9301 H   0  0  0  0  0  0  0  0  0  0  0  0
    7.5197   -4.9097    2.2677 H   0  0  0  0  0  0  0  0  0  0  0  0
    7.5376   -6.8742    0.7737 H   0  0  0  0  0  0  0  0  0  0  0  0
    6.7791   -9.3872    1.7305 H   0  0  0  0  0  0  0  0  0  0  0  0
    6.3237  -10.7377    0.6438 H   0  0  0  0  0  0  0  0  0  0  0  0
    5.0887  -10.9835    2.7405 H   0  0  0  0  0  0  0  0  0  0  0  0
    3.9139  -10.5321    1.4518 H   0  0  0  0  0  0  0  0  0  0  0  0
    4.4717   -9.2905    2.6520 H   0  0  0  0  0  0  0  0  0  0  0  0
    3.2522   -5.2901    2.7028 H   0  0  0  0  0  0  0  0  0  0  0  0
    7.2769    0.2778    5.7142 H   0  0  0  0  0  0  0  0  0  0  0  0
    7.4189    1.9226    7.5408 H   0  0  0  0  0  0  0  0  0  0  0  0
    5.9379    4.4750    8.4995 H   0  0  0  0  0  0  0  0  0  0  0  0
    4.4141    3.6048    8.1149 H   0  0  0  0  0  0  0  0  0  0  0  0
    3.8764    5.6626    9.3535 H   0  0  0  0  0  0  0  0  0  0  0  0
    3.4759    4.2253   10.3495 H   0  0  0  0  0  0  0  0  0  0  0  0
    4.9811    5.1711   10.7125 H   0  0  0  0  0  0  0  0  0  0  0  0
    3.5135   -1.1227    7.2802 H   0  0  0  0  0  0  0  0  0  0  0  0
    5.6588   -2.7790    8.0242 H   0  0  0  0  0  0  0  0  0  0  0  0
    5.8104   -5.3721    8.2094 H   0  0  0  0  0  0  0  0  0  0  0  0
  1  2  2  0
  2  3  1  0
  3  4  2  0
  4  5  1  0
  5  6  2  0
  6  7  1  0
  7  8  2  0
  8  9  1  0
  9 10  1  0
 10 11  1  0
  8 12  1  0
 12 13  1  0
 12 14  2  0
  4 15  1  0
 15 16  2  0
 16 17  1  0
 17 18  1  0
 18 19  2  0
 19 20  1  0
 20 21  2  0
 21 22  1  0
 22 23  1  0
 23 24  1  0
 21 25  1  0
 25 26  2  0
 25 27  1  0
 17 28  2  0
 28 29  1  0
 16 30  1  0
 30 31  2  0
 31 32  1  0
 31 33  1  0
 33 34  2  0
 34 35  1  0
 35 36  2  0
 36 37  1  0
 37 38  2  0
 38 39  1  0
 39 40  2  0
 40 41  1  0
 41 42  1  0
 42 43  1  0
 40 44  1  0
 44 45  1  0
 44 46  2  0
 36 47  1  0
 47 48  2  0
 48 49  1  0
 49 50  1  0
 50 51  2  0
 51 52  1  0
 52 53  2  0
 53 54  1  0
 54 55  1  0
 55 56  1  0
 53 57  1  0
 57 58  2  0
 57 59  1  0
 49 60  2  0
 60 61  1  0
 48 62  1  0
 62 63  2  0
 63 64  1  0
 63 65  1  0
 65 66  1  0
 65 67  2  0
 67 68  1  0
 68 69  2  0
 69 70  1  0
 70 71  1  0
 69 72  1  0
 72 73  1  0
 73 74  1  0
 72 75  2  0
 75 76  1  0
 76 77  2  0
 77 78  1  0
 78 79  2  3
 79 80  1  0
 80 81  1  0
 80 82  2  0
 82 83  1  0
 83 84  2  0
 84 85  1  0
 85 86  1  0
 84 87  1  0
 87 88  1  0
 88 89  1  0
 87 90  2  0
 90 91  1  0
 91 92  2  0
 92 93  1  0
 93 94  2  3
 94 95  1  0
 95 96  2  0
 96 97  1  0
 97 98  2  0
 98 99  1  0
 99100  2  0
100101  1  0
101102  2  0
102103  1  0
103104  1  0
104105  1  0
102106  1  0
106107  1  0
106108  2  0
 98109  1  0
109110  2  0
110111  1  0
111112  1  0
112113  2  0
113114  1  0
114115  2  0
115116  1  0
116117  1  0
117118  1  0
115119  1  0
119120  2  0
119121  1  0
111122  2  0
122123  1  0
110124  1  0
124125  2  0
125126  1  0
125127  1  0
127128  2  0
128129  1  0
129130  2  0
130131  1  0
131132  2  0
132133  1  0
133134  2  0
134135  1  0
135136  1  0
136137  1  0
134138  1  0
138139  1  0
138140  2  0
130141  1  0
141142  2  0
142143  1  0
143144  1  0
144145  2  0
145146  1  0
146147  2  0
147148  1  0
148149  1  0
149150  1  0
147151  1  0
151152  2  0
151153  1  0
143154  2  0
154155  1  0
142156  1  0
156157  2  0
157158  1  0
 29  1  1  0
 61 33  1  0
 77 66  1  0
 92 81  1  0
123 95  1  0
155127  1  0
 28  3  1  0
 60 35  1  0
 76 67  1  0
 91 82  1  0
122 97  1  0
154129  1  0
 14  5  1  0
 32 15  1  0
 46 37  1  0
 64 47  1  0
108 99  1  0
126109  1  0
140131  1  0
158141  1  0
 26 18  1  0
 58 50  1  0
120112  1  0
152144  1  0
  1159  1  0
  2160  1  0
  6161  1  0
  7162  1  0
 10163  1  0
 10164  1  0
 11165  1  0
 11166  1  0
 11167  1  0
 14168  1  0
 19169  1  0
 20170  1  0
 23171  1  0
 23172  1  0
 24173  1  0
 24174  1  0
 24175  1  0
 26176  1  0
 30177  1  0
 34178  1  0
 38179  1  0
 39180  1  0
 42181  1  0
 42182  1  0
 43183  1  0
 43184  1  0
 43185  1  0
 46186  1  0
 51187  1  0
 52188  1  0
 55189  1  0
 55190  1  0
 56191  1  0
 56192  1  0
 56193  1  0
 58194  1  0
 62195  1  0
 68196  1  0
 71197  1  0
 71198  1  0
 71199  1  0
 74200  1  0
 74201  1  0
 74202  1  0
 75203  1  0
 78204  1  0
 79205  1  0
 83206  1  0
 86207  1  0
 86208  1  0
 86209  1  0
 89210  1  0
 89211  1  0
 89212  1  0
 90213  1  0
 93214  1  0
 94215  1  0
 96216  1  0
100217  1  0
101218  1  0
104219  1  0
104220  1  0
105221  1  0
105222  1  0
105223  1  0
108224  1  0
113225  1  0
114226  1  0
117227  1  0
117228  1  0
118229  1  0
118230  1  0
118231  1  0
120232  1  0
124233  1  0
128234  1  0
132235  1  0
133236  1  0
136237  1  0
136238  1  0
137239  1  0
137240  1  0
137241  1  0
140242  1  0
145243  1  0
146244  1  0
149245  1  0
149246  1  0
150247  1  0
150248  1  0
150249  1  0
152250  1  0
156251  1  0
157252  1  0
M  END

