
     RDKit          3D

132143  0  0  0  0  0  0  0  0999 V2000
    9.0623    4.7457    3.0238 C   0  0  0  0  0  0  0  0  0  0  0  0
   10.6797    4.2700    2.9511 S   0  0  0  0  0  0  0  0  0  0  0  0
   10.5358    3.1347    1.7103 C   0  0  0  0  0  0  0  0  0  0  0  0
    9.2008    3.1247    1.3431 C   0  0  0  0  0  0  0  0  0  0  0  0
    8.3944    4.0061    2.0621 C   0  0  0  0  0  0  0  0  0  0  0  0
    7.0690    4.0923    1.7980 N   0  0  0  0  0  0  0  0  0  0  0  0
    6.5144    3.3086    0.8284 C   0  0  0  0  0  0  0  0  0  0  0  0
    7.3327    2.4107    0.0935 C   0  0  0  0  0  0  0  0  0  0  0  0
    6.7786    1.5877   -0.9448 N   0  0  0  0  0  0  0  0  0  0  0  0
    7.6053    0.6766   -1.7286 C   0  0  0  0  0  0  0  0  0  0  0  0
    8.6690    2.3431    0.3724 N   0  0  0  0  0  0  0  0  0  0  0  0
    5.1080    3.3896    0.5806 N   0  0  0  0  0  0  0  0  0  0  0  0
    4.5936    4.4867   -0.2362 C   0  0  0  0  0  0  0  0  0  0  0  0
    4.2221    2.5026    1.2789 C   0  0  0  0  0  0  0  0  0  0  0  0
    4.3304    2.1402    2.9202 S   0  0  0  0  0  0  0  0  0  0  0  0
    3.2065    1.7255    0.7170 C   0  0  0  0  0  0  0  0  0  0  0  0
    2.8520    1.6701   -0.6359 C   0  0  0  0  0  0  0  0  0  0  0  0
    1.8467    0.7735   -1.0550 C   0  0  0  0  0  0  0  0  0  0  0  0
    1.4467    0.6810   -2.3982 O   0  0  0  0  0  0  0  0  0  0  0  0
    2.0654    1.3850   -3.4703 C   0  0  0  0  0  0  0  0  0  0  0  0
    1.2259   -0.0748   -0.1146 C   0  0  0  0  0  0  0  0  0  0  0  0
    0.2629   -0.9832   -0.5699 O   0  0  0  0  0  0  0  0  0  0  0  0
   -0.2941   -2.0285    0.2226 C   0  0  0  0  0  0  0  0  0  0  0  0
    1.5934   -0.0145    1.2431 C   0  0  0  0  0  0  0  0  0  0  0  0
    2.5710    0.8934    1.6529 C   0  0  0  0  0  0  0  0  0  0  0  0
    3.0550    1.0413    2.9565 C   0  0  0  0  0  0  0  0  0  0  0  0
    2.6371    0.3064    4.1613 C   0  0  0  0  0  0  0  0  0  0  0  0
    1.3783    0.2223    4.6166 C   0  0  0  0  0  0  0  0  0  0  0  0
    0.2170    0.9808    4.0946 C   0  0  0  0  0  0  0  0  0  0  0  0
    0.2251    2.4625    3.2732 S   0  0  0  0  0  0  0  0  0  0  0  0
   -1.4412    2.7109    3.2214 C   0  0  0  0  0  0  0  0  0  0  0  0
   -2.0181    1.6419    3.8854 C   0  0  0  0  0  0  0  0  0  0  0  0
   -1.1150    0.6930    4.3630 C   0  0  0  0  0  0  0  0  0  0  0  0
   -1.5601   -0.3861    5.0513 N   0  0  0  0  0  0  0  0  0  0  0  0
   -2.8941   -0.5540    5.2964 C   0  0  0  0  0  0  0  0  0  0  0  0
   -3.8092    0.4471    4.8507 C   0  0  0  0  0  0  0  0  0  0  0  0
   -5.1992    0.4041    5.2007 N   0  0  0  0  0  0  0  0  0  0  0  0
   -6.2162    1.0110    4.3539 C   0  0  0  0  0  0  0  0  0  0  0  0
   -3.3409    1.5147    4.1390 N   0  0  0  0  0  0  0  0  0  0  0  0
   -3.3251   -1.7142    6.0410 N   0  0  0  0  0  0  0  0  0  0  0  0
   -2.4322   -2.2900    7.0506 C   0  0  0  0  0  0  0  0  0  0  0  0
   -4.5277   -2.4275    5.7042 C   0  0  0  0  0  0  0  0  0  0  0  0
   -5.7099   -2.8905    6.8185 S   0  0  0  0  0  0  0  0  0  0  0  0
   -6.8610   -3.4115    5.6996 C   0  0  0  0  0  0  0  0  0  0  0  0
   -6.3126   -3.2238    4.4387 C   0  0  0  0  0  0  0  0  0  0  0  0
   -5.0238   -2.6888    4.4317 C   0  0  0  0  0  0  0  0  0  0  0  0
   -4.3580   -2.5182    3.2622 N   0  0  0  0  0  0  0  0  0  0  0  0
   -4.9655   -2.8362    2.0794 C   0  0  0  0  0  0  0  0  0  0  0  0
   -6.3066   -3.3080    2.0835 C   0  0  0  0  0  0  0  0  0  0  0  0
   -7.0139   -3.5404    0.8550 N   0  0  0  0  0  0  0  0  0  0  0  0
   -8.3636   -4.0877    0.8394 C   0  0  0  0  0  0  0  0  0  0  0  0
   -6.9420   -3.5068    3.2748 N   0  0  0  0  0  0  0  0  0  0  0  0
   -4.2085   -2.7897    0.8576 N   0  0  0  0  0  0  0  0  0  0  0  0
   -3.9060   -4.0448    0.1637 C   0  0  0  0  0  0  0  0  0  0  0  0
   -3.7529   -1.5256    0.3349 C   0  0  0  0  0  0  0  0  0  0  0  0
   -3.5527   -0.1064    1.2311 S   0  0  0  0  0  0  0  0  0  0  0  0
   -3.0516    0.8855   -0.0397 C   0  0  0  0  0  0  0  0  0  0  0  0
   -3.0644    0.1047   -1.1863 C   0  0  0  0  0  0  0  0  0  0  0  0
   -3.4441   -1.2208   -0.9892 C   0  0  0  0  0  0  0  0  0  0  0  0
   -3.5448   -2.0635   -2.0457 N   0  0  0  0  0  0  0  0  0  0  0  0
   -3.2904   -1.6308   -3.3176 C   0  0  0  0  0  0  0  0  0  0  0  0
   -2.9389   -0.2596   -3.5157 C   0  0  0  0  0  0  0  0  0  0  0  0
   -2.8201    0.3089   -4.8251 N   0  0  0  0  0  0  0  0  0  0  0  0
   -1.8521    1.3575   -5.1111 C   0  0  0  0  0  0  0  0  0  0  0  0
   -2.8177    0.5655   -2.4337 N   0  0  0  0  0  0  0  0  0  0  0  0
   -3.4311   -2.5733   -4.4106 N   0  0  0  0  0  0  0  0  0  0  0  0
   -4.1673   -3.8223   -4.1852 C   0  0  0  0  0  0  0  0  0  0  0  0
   -2.6887   -2.4583   -5.6362 C   0  0  0  0  0  0  0  0  0  0  0  0
   -3.3658   -2.4632   -7.1838 S   0  0  0  0  0  0  0  0  0  0  0  0
   -1.9324   -2.1819   -8.0318 C   0  0  0  0  0  0  0  0  0  0  0  0
   -0.9143   -2.0942   -7.0911 C   0  0  0  0  0  0  0  0  0  0  0  0
   -1.3236   -2.2558   -5.7706 C   0  0  0  0  0  0  0  0  0  0  0  0
   -0.4164   -2.2438   -4.7661 N   0  0  0  0  0  0  0  0  0  0  0  0
    0.9098   -2.0526   -5.0375 C   0  0  0  0  0  0  0  0  0  0  0  0
    1.3263   -1.8488   -6.3870 C   0  0  0  0  0  0  0  0  0  0  0  0
    2.7087   -1.6458   -6.7341 N   0  0  0  0  0  0  0  0  0  0  0  0
    3.1404   -1.5582   -8.1267 C   0  0  0  0  0  0  0  0  0  0  0  0
    0.3913   -1.8877   -7.3811 N   0  0  0  0  0  0  0  0  0  0  0  0
    1.8546   -2.1065   -3.9585 N   0  0  0  0  0  0  0  0  0  0  0  0
    1.6467   -3.0115   -2.8376 C   0  0  0  0  0  0  0  0  0  0  0  0
    8.6317    5.4816    3.6880 H   0  0  0  0  0  0  0  0  0  0  0  0
   11.3280    2.5313    1.2863 H   0  0  0  0  0  0  0  0  0  0  0  0
    5.7622    1.6442   -1.1767 H   0  0  0  0  0  0  0  0  0  0  0  0
    8.0533   -0.0931   -1.0634 H   0  0  0  0  0  0  0  0  0  0  0  0
    8.4131    1.2460   -2.2380 H   0  0  0  0  0  0  0  0  0  0  0  0
    6.9854    0.1719   -2.4998 H   0  0  0  0  0  0  0  0  0  0  0  0
    3.4839    4.5258   -0.2026 H   0  0  0  0  0  0  0  0  0  0  0  0
    4.9227    4.3516   -1.2883 H   0  0  0  0  0  0  0  0  0  0  0  0
    4.9857    5.4548    0.1443 H   0  0  0  0  0  0  0  0  0  0  0  0
    3.3578    2.2995   -1.3520 H   0  0  0  0  0  0  0  0  0  0  0  0
    1.5521    1.1286   -4.4206 H   0  0  0  0  0  0  0  0  0  0  0  0
    3.1331    1.0911   -3.5522 H   0  0  0  0  0  0  0  0  0  0  0  0
    1.9810    2.4826   -3.3116 H   0  0  0  0  0  0  0  0  0  0  0  0
    0.5132   -2.6783    0.6168 H   0  0  0  0  0  0  0  0  0  0  0  0
   -0.9589   -2.6447   -0.4093 H   0  0  0  0  0  0  0  0  0  0  0  0
   -0.8826   -1.6035    1.0616 H   0  0  0  0  0  0  0  0  0  0  0  0
    1.1363   -0.6741    1.9655 H   0  0  0  0  0  0  0  0  0  0  0  0
    3.4140   -0.2018    4.7167 H   0  0  0  0  0  0  0  0  0  0  0  0
    1.1993   -0.4263    5.4650 H   0  0  0  0  0  0  0  0  0  0  0  0
   -1.9565    3.5580    2.7884 H   0  0  0  0  0  0  0  0  0  0  0  0
   -5.5023   -0.0436    6.0951 H   0  0  0  0  0  0  0  0  0  0  0  0
   -6.1850    0.5508    3.3443 H   0  0  0  0  0  0  0  0  0  0  0  0
   -7.2228    0.8404    4.7921 H   0  0  0  0  0  0  0  0  0  0  0  0
   -6.0408    2.1050    4.2723 H   0  0  0  0  0  0  0  0  0  0  0  0
   -1.7923   -1.5007    7.4988 H   0  0  0  0  0  0  0  0  0  0  0  0
   -3.0176   -2.7559    7.8706 H   0  0  0  0  0  0  0  0  0  0  0  0
   -1.7881   -3.0616    6.5809 H   0  0  0  0  0  0  0  0  0  0  0  0
   -7.8453   -3.8061    5.9190 H   0  0  0  0  0  0  0  0  0  0  0  0
   -6.5981   -3.2420   -0.0538 H   0  0  0  0  0  0  0  0  0  0  0  0
   -9.0437   -3.4381    1.4304 H   0  0  0  0  0  0  0  0  0  0  0  0
   -8.3611   -5.1107    1.2703 H   0  0  0  0  0  0  0  0  0  0  0  0
   -8.7381   -4.1386   -0.2039 H   0  0  0  0  0  0  0  0  0  0  0  0
   -4.0975   -4.9178    0.8267 H   0  0  0  0  0  0  0  0  0  0  0  0
   -2.8352   -4.0707   -0.1268 H   0  0  0  0  0  0  0  0  0  0  0  0
   -4.5350   -4.1441   -0.7444 H   0  0  0  0  0  0  0  0  0  0  0  0
   -2.8103    1.9369    0.0219 H   0  0  0  0  0  0  0  0  0  0  0  0
   -3.4895    0.0282   -5.5742 H   0  0  0  0  0  0  0  0  0  0  0  0
   -0.8282    0.9796   -4.9102 H   0  0  0  0  0  0  0  0  0  0  0  0
   -1.9206    1.6565   -6.1772 H   0  0  0  0  0  0  0  0  0  0  0  0
   -2.0514    2.2482   -4.4752 H   0  0  0  0  0  0  0  0  0  0  0  0
   -3.5357   -4.5243   -3.5994 H   0  0  0  0  0  0  0  0  0  0  0  0
   -4.4403   -4.3067   -5.1469 H   0  0  0  0  0  0  0  0  0  0  0  0
   -5.1084   -3.6211   -3.6265 H   0  0  0  0  0  0  0  0  0  0  0  0
   -1.8237   -2.0934   -9.1068 H   0  0  0  0  0  0  0  0  0  0  0  0
    3.4434   -1.5467   -6.0020 H   0  0  0  0  0  0  0  0  0  0  0  0
    4.1968   -1.2270   -8.1700 H   0  0  0  0  0  0  0  0  0  0  0  0
    3.0484   -2.5533   -8.6101 H   0  0  0  0  0  0  0  0  0  0  0  0
    2.5184   -0.8176   -8.6715 H   0  0  0  0  0  0  0  0  0  0  0  0
    2.7265   -1.5327   -3.9722 H   0  0  0  0  0  0  0  0  0  0  0  0
    2.4458   -2.8693   -2.0790 H   0  0  0  0  0  0  0  0  0  0  0  0
    0.6635   -2.8084   -2.3645 H   0  0  0  0  0  0  0  0  0  0  0  0
    1.6647   -4.0631   -3.1937 H   0  0  0  0  0  0  0  0  0  0  0  0
  1  2  1  0
  2  3  1  0
  3  4  2  0
  4  5  1  0
  5  6  1  0
  6  7  2  0
  7  8  1  0
  8  9  1  0
  9 10  1  0
  8 11  2  0
  7 12  1  0
 12 13  1  0
 12 14  1  0
 14 15  1  0
 14 16  2  0
 16 17  1  0
 17 18  2  0
 18 19  1  0
 19 20  1  0
 18 21  1  0
 21 22  1  0
 22 23  1  0
 21 24  2  0
 24 25  1  0
 25 26  2  0
 26 27  1  0
 27 28  2  3
 28 29  1  0
 29 30  1  0
 30 31  1  0
 31 32  2  0
 32 33  1  0
 33 34  1  0
 34 35  2  0
 35 36  1  0
 36 37  1  0
 37 38  1  0
 36 39  2  0
 35 40  1  0
 40 41  1  0
 40 42  1  0
 42 43  1  0
 43 44  1  0
 44 45  2  0
 45 46  1  0
 46 47  1  0
 47 48  2  0
 48 49  1  0
 49 50  1  0
 50 51  1  0
 49 52  2  0
 48 53  1  0
 53 54  1  0
 53 55  1  0
 55 56  1  0
 56 57  1  0
 57 58  2  0
 58 59  1  0
 59 60  1  0
 60 61  2  0
 61 62  1  0
 62 63  1  0
 63 64  1  0
 62 65  2  0
 61 66  1  0
 66 67  1  0
 66 68  1  0
 68 69  1  0
 69 70  1  0
 70 71  2  0
 71 72  1  0
 72 73  1  0
 73 74  2  0
 74 75  1  0
 75 76  1  0
 76 77  1  0
 75 78  2  0
 74 79  1  0
 79 80  1  0
  5  1  2  0
 26 15  1  0
 33 29  2  0
 46 42  2  0
 59 55  2  0
 72 68  2  0
 11  4  1  0
 25 16  1  0
 39 32  1  0
 52 45  1  0
 65 58  1  0
 78 71  1  0
  1 81  1  0
  3 82  1  0
  9 83  1  0
 10 84  1  0
 10 85  1  0
 10 86  1  0
 13 87  1  0
 13 88  1  0
 13 89  1  0
 17 90  1  0
 20 91  1  0
 20 92  1  0
 20 93  1  0
 23 94  1  0
 23 95  1  0
 23 96  1  0
 24 97  1  0
 27 98  1  0
 28 99  1  0
 31100  1  0
 37101  1  0
 38102  1  0
 38103  1  0
 38104  1  0
 41105  1  0
 41106  1  0
 41107  1  0
 44108  1  0
 50109  1  0
 51110  1  0
 51111  1  0
 51112  1  0
 54113  1  0
 54114  1  0
 54115  1  0
 57116  1  0
 63117  1  0
 64118  1  0
 64119  1  0
 64120  1  0
 67121  1  0
 67122  1  0
 67123  1  0
 70124  1  0
 76125  1  0
 77126  1  0
 77127  1  0
 77128  1  0
 79129  1  0
 80130  1  0
 80131  1  0
 80132  1  0
M  END

