
     RDKit          3D

277303  0  0  0  0  0  0  0  0999 V2000
   -5.6134   -4.1115    9.8192 C   0  0  0  0  0  0  0  0  0  0  0  0
   -5.4903   -2.8863    9.1749 C   0  0  0  0  0  0  0  0  0  0  0  0
   -5.3380   -3.0007    7.7790 C   0  0  0  0  0  0  0  0  0  0  0  0
   -5.1718   -1.9388    6.8648 C   0  0  0  0  0  0  0  0  0  0  0  0
   -4.9742   -0.5397    7.3160 C   0  0  0  0  0  0  0  0  0  0  0  0
   -3.9509   -0.2435    8.2364 C   0  0  0  0  0  0  0  0  0  0  0  0
   -3.7579    1.0639    8.6815 C   0  0  0  0  0  0  0  0  0  0  0  0
   -4.5533    2.1013    8.1822 C   0  0  0  0  0  0  0  0  0  0  0  0
   -4.3166    3.7785    8.7849 S   0  0  0  0  0  0  0  0  0  0  0  0
   -2.8399    4.1339    7.7665 C   0  0  0  0  0  0  0  0  0  0  0  0
   -3.1871    4.2320    6.2891 C   0  0  0  0  0  0  0  0  0  0  0  0
   -5.5676    1.8182    7.2520 C   0  0  0  0  0  0  0  0  0  0  0  0
   -6.3531    2.8147    6.7688 F   0  0  0  0  0  0  0  0  0  0  0  0
   -5.7799    0.5030    6.8263 C   0  0  0  0  0  0  0  0  0  0  0  0
   -5.1004   -2.2876    5.5013 C   0  0  0  0  0  0  0  0  0  0  0  0
   -5.0974   -3.6182    5.0610 C   0  0  0  0  0  0  0  0  0  0  0  0
   -5.1972   -4.6781    5.9827 C   0  0  0  0  0  0  0  0  0  0  0  0
   -5.0428   -6.0932    5.5765 C   0  0  0  0  0  0  0  0  0  0  0  0
   -6.0384   -7.0400    5.8730 C   0  0  0  0  0  0  0  0  0  0  0  0
   -5.8440   -8.3883    5.5610 C   0  0  0  0  0  0  0  0  0  0  0  0
   -4.6532   -8.8059    4.9567 C   0  0  0  0  0  0  0  0  0  0  0  0
   -4.3887  -10.5504    4.6074 S   0  0  0  0  0  0  0  0  0  0  0  0
   -3.3877  -10.8725    6.1059 C   0  0  0  0  0  0  0  0  0  0  0  0
   -4.2665  -11.0089    7.3432 C   0  0  0  0  0  0  0  0  0  0  0  0
   -3.6727   -7.8627    4.6247 C   0  0  0  0  0  0  0  0  0  0  0  0
   -3.8602   -6.5169    4.9482 C   0  0  0  0  0  0  0  0  0  0  0  0
   -2.5186   -8.2513    4.0266 F   0  0  0  0  0  0  0  0  0  0  0  0
   -5.3566   -4.3256    7.3349 C   0  0  0  0  0  0  0  0  0  0  0  0
   -5.5302   -5.3383    8.6685 S   0  0  0  0  0  0  0  0  0  0  0  0
   -4.9904   -3.7391    3.6640 C   0  0  0  0  0  0  0  0  0  0  0  0
   -4.9215   -2.5091    3.0181 C   0  0  0  0  0  0  0  0  0  0  0  0
   -4.9681   -1.2714    4.1633 S   0  0  0  0  0  0  0  0  0  0  0  0
   -4.7900   -2.3150    1.5701 C   0  0  0  0  0  0  0  0  0  0  0  0
   -5.2098   -1.1911    0.8597 C   0  0  0  0  0  0  0  0  0  0  0  0
   -4.9083   -1.2665   -0.5134 C   0  0  0  0  0  0  0  0  0  0  0  0
   -5.2002   -0.2933   -1.4992 C   0  0  0  0  0  0  0  0  0  0  0  0
   -5.9264    0.9597   -1.1959 C   0  0  0  0  0  0  0  0  0  0  0  0
   -5.4621    1.8349   -0.2044 C   0  0  0  0  0  0  0  0  0  0  0  0
   -6.1179    3.0435    0.0323 C   0  0  0  0  0  0  0  0  0  0  0  0
   -7.2592    3.3808   -0.6995 C   0  0  0  0  0  0  0  0  0  0  0  0
   -8.0685    4.9565   -0.3884 S   0  0  0  0  0  0  0  0  0  0  0  0
   -9.2865    4.2920    0.8016 C   0  0  0  0  0  0  0  0  0  0  0  0
   -8.6411    3.9941    2.1501 C   0  0  0  0  0  0  0  0  0  0  0  0
   -7.7381    2.5088   -1.6873 C   0  0  0  0  0  0  0  0  0  0  0  0
   -8.8371    2.8322   -2.4149 F   0  0  0  0  0  0  0  0  0  0  0  0
   -7.0732    1.3025   -1.9332 C   0  0  0  0  0  0  0  0  0  0  0  0
   -4.7337   -0.5525   -2.8008 C   0  0  0  0  0  0  0  0  0  0  0  0
   -4.0576   -1.7267   -3.1346 C   0  0  0  0  0  0  0  0  0  0  0  0
   -3.8209   -2.7259   -2.1705 C   0  0  0  0  0  0  0  0  0  0  0  0
   -3.1161   -3.9781   -2.5248 C   0  0  0  0  0  0  0  0  0  0  0  0
   -1.8832   -4.2970   -1.9346 C   0  0  0  0  0  0  0  0  0  0  0  0
   -1.1705   -5.4222   -2.3641 C   0  0  0  0  0  0  0  0  0  0  0  0
   -1.6774   -6.2254   -3.3929 C   0  0  0  0  0  0  0  0  0  0  0  0
   -0.7390   -7.6380   -3.9804 S   0  0  0  0  0  0  0  0  0  0  0  0
   -1.6173   -8.8318   -2.9185 C   0  0  0  0  0  0  0  0  0  0  0  0
   -1.1869  -10.2492   -3.2627 C   0  0  0  0  0  0  0  0  0  0  0  0
   -2.9111   -5.9124   -3.9795 C   0  0  0  0  0  0  0  0  0  0  0  0
   -3.6303   -4.7997   -3.5389 C   0  0  0  0  0  0  0  0  0  0  0  0
   -3.4109   -6.6772   -4.9813 F   0  0  0  0  0  0  0  0  0  0  0  0
   -4.2444   -2.4498   -0.8599 C   0  0  0  0  0  0  0  0  0  0  0  0
   -4.0623   -3.4074    0.5104 S   0  0  0  0  0  0  0  0  0  0  0  0
   -3.5177   -1.7086   -4.4262 C   0  0  0  0  0  0  0  0  0  0  0  0
   -3.7135   -0.5020   -5.0980 C   0  0  0  0  0  0  0  0  0  0  0  0
   -4.6110    0.5228   -4.0930 S   0  0  0  0  0  0  0  0  0  0  0  0
   -2.8421   -0.0344   -6.1948 C   0  0  0  0  0  0  0  0  0  0  0  0
   -1.8516   -0.8293   -6.7786 C   0  0  0  0  0  0  0  0  0  0  0  0
   -0.7545   -0.0935   -7.2503 C   0  0  0  0  0  0  0  0  0  0  0  0
    0.5155   -0.6361   -7.5359 C   0  0  0  0  0  0  0  0  0  0  0  0
    0.7454   -2.0935   -7.4884 C   0  0  0  0  0  0  0  0  0  0  0  0
    0.2725   -2.9091   -8.5243 C   0  0  0  0  0  0  0  0  0  0  0  0
    0.4413   -4.2942   -8.4575 C   0  0  0  0  0  0  0  0  0  0  0  0
    1.0868   -4.8750   -7.3571 C   0  0  0  0  0  0  0  0  0  0  0  0
    1.3014   -6.6586   -7.2905 S   0  0  0  0  0  0  0  0  0  0  0  0
    3.0028   -6.6530   -7.9637 C   0  0  0  0  0  0  0  0  0  0  0  0
    3.0072   -6.4214   -9.4699 C   0  0  0  0  0  0  0  0  0  0  0  0
    1.5379   -4.0636   -6.3055 C   0  0  0  0  0  0  0  0  0  0  0  0
    2.1334   -4.6133   -5.2180 F   0  0  0  0  0  0  0  0  0  0  0  0
    1.3725   -2.6762   -6.3746 C   0  0  0  0  0  0  0  0  0  0  0  0
    1.5904    0.2689   -7.5993 C   0  0  0  0  0  0  0  0  0  0  0  0
    1.4196    1.6467   -7.4501 C   0  0  0  0  0  0  0  0  0  0  0  0
    0.1342    2.1964   -7.2557 C   0  0  0  0  0  0  0  0  0  0  0  0
   -0.0505    3.6201   -6.9136 C   0  0  0  0  0  0  0  0  0  0  0  0
    0.1940    4.0666   -5.6069 C   0  0  0  0  0  0  0  0  0  0  0  0
    0.0180    5.4150   -5.2837 C   0  0  0  0  0  0  0  0  0  0  0  0
   -0.3982    6.3233   -6.2645 C   0  0  0  0  0  0  0  0  0  0  0  0
   -0.6008    8.0577   -5.8442 S   0  0  0  0  0  0  0  0  0  0  0  0
   -2.3972    7.9479   -5.5177 C   0  0  0  0  0  0  0  0  0  0  0  0
   -2.6680    7.4582   -4.1020 C   0  0  0  0  0  0  0  0  0  0  0  0
   -0.6231    5.8818   -7.5754 C   0  0  0  0  0  0  0  0  0  0  0  0
   -0.4594    4.5304   -7.8970 C   0  0  0  0  0  0  0  0  0  0  0  0
   -1.0012    6.7584   -8.5388 F   0  0  0  0  0  0  0  0  0  0  0  0
   -0.9280    1.2889   -7.1268 C   0  0  0  0  0  0  0  0  0  0  0  0
   -2.4077    1.5866   -6.3879 S   0  0  0  0  0  0  0  0  0  0  0  0
    2.6244    2.3335   -7.2361 C   0  0  0  0  0  0  0  0  0  0  0  0
    3.7323    1.4916   -7.0849 C   0  0  0  0  0  0  0  0  0  0  0  0
    3.2228   -0.0878   -7.4114 S   0  0  0  0  0  0  0  0  0  0  0  0
    4.8117    1.7664   -6.1087 C   0  0  0  0  0  0  0  0  0  0  0  0
    4.7461    2.8246   -5.1972 C   0  0  0  0  0  0  0  0  0  0  0  0
    5.3683    2.5507   -3.9732 C   0  0  0  0  0  0  0  0  0  0  0  0
    5.2051    3.3040   -2.7936 C   0  0  0  0  0  0  0  0  0  0  0  0
    4.3637    4.5169   -2.7606 C   0  0  0  0  0  0  0  0  0  0  0  0
    4.7998    5.7071   -3.3611 C   0  0  0  0  0  0  0  0  0  0  0  0
    3.9799    6.8396   -3.3482 C   0  0  0  0  0  0  0  0  0  0  0  0
    2.7168    6.7900   -2.7478 C   0  0  0  0  0  0  0  0  0  0  0  0
    1.6663    8.2462   -2.7393 S   0  0  0  0  0  0  0  0  0  0  0  0
    2.2802    8.8283   -1.1238 C   0  0  0  0  0  0  0  0  0  0  0  0
    1.5648   10.1115   -0.7262 C   0  0  0  0  0  0  0  0  0  0  0  0
    2.2703    5.5959   -2.1625 C   0  0  0  0  0  0  0  0  0  0  0  0
    1.0451    5.5290   -1.5812 F   0  0  0  0  0  0  0  0  0  0  0  0
    3.0945    4.4683   -2.1651 C   0  0  0  0  0  0  0  0  0  0  0  0
    5.6743    2.7262   -1.6038 C   0  0  0  0  0  0  0  0  0  0  0  0
    6.2635    1.4601   -1.5584 C   0  0  0  0  0  0  0  0  0  0  0  0
    6.4677    0.7293   -2.7463 C   0  0  0  0  0  0  0  0  0  0  0  0
    7.0260   -0.6320   -2.7311 C   0  0  0  0  0  0  0  0  0  0  0  0
    6.1934   -1.7297   -2.4883 C   0  0  0  0  0  0  0  0  0  0  0  0
    6.7260   -3.0207   -2.4641 C   0  0  0  0  0  0  0  0  0  0  0  0
    8.0922   -3.2215   -2.6985 C   0  0  0  0  0  0  0  0  0  0  0  0
    8.7731   -4.8849   -2.6443 S   0  0  0  0  0  0  0  0  0  0  0  0
    8.3357   -5.3165   -4.3681 C   0  0  0  0  0  0  0  0  0  0  0  0
    9.3016   -4.6797   -5.3593 C   0  0  0  0  0  0  0  0  0  0  0  0
    8.9267   -2.1206   -2.9376 C   0  0  0  0  0  0  0  0  0  0  0  0
    8.3951   -0.8281   -2.9527 C   0  0  0  0  0  0  0  0  0  0  0  0
   10.2575   -2.2979   -3.1424 F   0  0  0  0  0  0  0  0  0  0  0  0
    6.0012    1.3068   -3.9392 C   0  0  0  0  0  0  0  0  0  0  0  0
    5.7505    0.5392   -5.4119 S   0  0  0  0  0  0  0  0  0  0  0  0
    6.4666    0.9903   -0.2465 C   0  0  0  0  0  0  0  0  0  0  0  0
    6.0694    1.9079    0.7341 C   0  0  0  0  0  0  0  0  0  0  0  0
    5.4413    3.2726   -0.0356 S   0  0  0  0  0  0  0  0  0  0  0  0
    5.8939    1.6561    2.1794 C   0  0  0  0  0  0  0  0  0  0  0  0
    4.6815    2.3973    3.0809 S   0  0  0  0  0  0  0  0  0  0  0  0
    6.5036    0.7021    3.0043 C   0  0  0  0  0  0  0  0  0  0  0  0
    7.5877   -0.1139    2.6697 C   0  0  0  0  0  0  0  0  0  0  0  0
    8.0463   -1.0811    3.5901 C   0  0  0  0  0  0  0  0  0  0  0  0
    9.1013   -1.9549    3.2784 O   0  0  0  0  0  0  0  0  0  0  0  0
    9.7732   -1.9899    2.0255 C   0  0  0  0  0  0  0  0  0  0  0  0
    7.4365   -1.1947    4.8560 C   0  0  0  0  0  0  0  0  0  0  0  0
    7.9103   -2.1868    5.7278 O   0  0  0  0  0  0  0  0  0  0  0  0
    7.3661   -2.4563    7.0154 C   0  0  0  0  0  0  0  0  0  0  0  0
    6.3819   -0.3278    5.2124 C   0  0  0  0  0  0  0  0  0  0  0  0
    5.9296    0.6193    4.2895 C   0  0  0  0  0  0  0  0  0  0  0  0
    4.8775    1.5103    4.4957 C   0  0  0  0  0  0  0  0  0  0  0  0
    4.0237    1.6305    5.6940 C   0  0  0  0  0  0  0  0  0  0  0  0
    2.6817    1.6351    5.6364 C   0  0  0  0  0  0  0  0  0  0  0  0
    1.9285    1.2265    4.4365 C   0  0  0  0  0  0  0  0  0  0  0  0
    0.8179    1.8813    3.8992 C   0  0  0  0  0  0  0  0  0  0  0  0
    0.3925    1.3148    2.6829 C   0  0  0  0  0  0  0  0  0  0  0  0
   -0.6582    1.7706    1.8585 C   0  0  0  0  0  0  0  0  0  0  0  0
   -1.5249    2.9038    2.2430 C   0  0  0  0  0  0  0  0  0  0  0  0
   -1.0156    4.2094    2.3027 C   0  0  0  0  0  0  0  0  0  0  0  0
   -1.8501    5.2722    2.6599 C   0  0  0  0  0  0  0  0  0  0  0  0
   -3.1997    5.0434    2.9541 C   0  0  0  0  0  0  0  0  0  0  0  0
   -4.2520    6.4112    3.4482 S   0  0  0  0  0  0  0  0  0  0  0  0
   -4.7653    6.8170    1.7488 C   0  0  0  0  0  0  0  0  0  0  0  0
   -5.7243    7.9963    1.7689 C   0  0  0  0  0  0  0  0  0  0  0  0
   -3.7059    3.7363    2.9159 C   0  0  0  0  0  0  0  0  0  0  0  0
   -4.9979    3.4901    3.2539 F   0  0  0  0  0  0  0  0  0  0  0  0
   -2.8748    2.6729    2.5509 C   0  0  0  0  0  0  0  0  0  0  0  0
   -0.8631    1.0806    0.6490 C   0  0  0  0  0  0  0  0  0  0  0  0
   -0.1057   -0.0329    0.2751 C   0  0  0  0  0  0  0  0  0  0  0  0
    0.9176   -0.5153    1.1130 C   0  0  0  0  0  0  0  0  0  0  0  0
    1.7387   -1.6917    0.7625 C   0  0  0  0  0  0  0  0  0  0  0  0
    1.1394   -2.9519    0.6174 C   0  0  0  0  0  0  0  0  0  0  0  0
    1.9260   -4.0785    0.3650 C   0  0  0  0  0  0  0  0  0  0  0  0
    3.3202   -3.9609    0.2872 C   0  0  0  0  0  0  0  0  0  0  0  0
    4.3302   -5.4254    0.0348 S   0  0  0  0  0  0  0  0  0  0  0  0
    4.4146   -5.8807    1.8060 C   0  0  0  0  0  0  0  0  0  0  0  0
    5.4756   -5.0678    2.5385 C   0  0  0  0  0  0  0  0  0  0  0  0
    3.9213   -2.6987    0.4079 C   0  0  0  0  0  0  0  0  0  0  0  0
    3.1322   -1.5687    0.6370 C   0  0  0  0  0  0  0  0  0  0  0  0
    5.2691   -2.5676    0.3299 F   0  0  0  0  0  0  0  0  0  0  0  0
    1.1437    0.1936    2.3050 C   0  0  0  0  0  0  0  0  0  0  0  0
    2.3200   -0.0992    3.4660 S   0  0  0  0  0  0  0  0  0  0  0  0
   -0.4375   -0.5255   -1.0006 C   0  0  0  0  0  0  0  0  0  0  0  0
   -1.4388    0.2081   -1.6225 C   0  0  0  0  0  0  0  0  0  0  0  0
   -1.9222    1.4567   -0.6013 S   0  0  0  0  0  0  0  0  0  0  0  0
   -5.7402   -4.2519   10.8836 H   0  0  0  0  0  0  0  0  0  0  0  0
   -5.5178   -1.9483    9.7084 H   0  0  0  0  0  0  0  0  0  0  0  0
   -3.3104   -1.0293    8.6161 H   0  0  0  0  0  0  0  0  0  0  0  0
   -2.9772    1.2791    9.4015 H   0  0  0  0  0  0  0  0  0  0  0  0
   -2.0634    3.3509    7.9235 H   0  0  0  0  0  0  0  0  0  0  0  0
   -2.4263    5.1092    8.1003 H   0  0  0  0  0  0  0  0  0  0  0  0
   -2.3198    4.6406    5.7317 H   0  0  0  0  0  0  0  0  0  0  0  0
   -4.0584    4.9041    6.1457 H   0  0  0  0  0  0  0  0  0  0  0  0
   -3.4270    3.2297    5.8805 H   0  0  0  0  0  0  0  0  0  0  0  0
   -6.5795    0.2912    6.1262 H   0  0  0  0  0  0  0  0  0  0  0  0
   -6.9591   -6.7353    6.3555 H   0  0  0  0  0  0  0  0  0  0  0  0
   -6.6095   -9.1120    5.8079 H   0  0  0  0  0  0  0  0  0  0  0  0
   -2.6401  -10.0667    6.2599 H   0  0  0  0  0  0  0  0  0  0  0  0
   -2.8360  -11.8231    5.9537 H   0  0  0  0  0  0  0  0  0  0  0  0
   -4.7683  -10.0450    7.5700 H   0  0  0  0  0  0  0  0  0  0  0  0
   -5.0297  -11.7979    7.1845 H   0  0  0  0  0  0  0  0  0  0  0  0
   -3.6348  -11.2902    8.2129 H   0  0  0  0  0  0  0  0  0  0  0  0
   -3.0764   -5.8018    4.7252 H   0  0  0  0  0  0  0  0  0  0  0  0
   -4.9844   -4.6853    3.1386 H   0  0  0  0  0  0  0  0  0  0  0  0
   -5.7189   -0.3607    1.3275 H   0  0  0  0  0  0  0  0  0  0  0  0
   -4.5839    1.5914    0.3732 H   0  0  0  0  0  0  0  0  0  0  0  0
   -5.7359    3.7146    0.7872 H   0  0  0  0  0  0  0  0  0  0  0  0
   -9.7646    3.3732    0.3944 H   0  0  0  0  0  0  0  0  0  0  0  0
  -10.0769    5.0567    0.9460 H   0  0  0  0  0  0  0  0  0  0  0  0
   -7.9805    3.1068    2.0768 H   0  0  0  0  0  0  0  0  0  0  0  0
   -8.0472    4.8647    2.4982 H   0  0  0  0  0  0  0  0  0  0  0  0
   -9.4291    3.7761    2.8997 H   0  0  0  0  0  0  0  0  0  0  0  0
   -7.4476    0.6402   -2.7048 H   0  0  0  0  0  0  0  0  0  0  0  0
   -1.4643   -3.6617   -1.1659 H   0  0  0  0  0  0  0  0  0  0  0  0
   -0.2147   -5.6526   -1.9131 H   0  0  0  0  0  0  0  0  0  0  0  0
   -1.3823   -8.6230   -1.8547 H   0  0  0  0  0  0  0  0  0  0  0  0
   -2.7137   -8.7429   -3.0701 H   0  0  0  0  0  0  0  0  0  0  0  0
   -1.3650  -10.4549   -4.3399 H   0  0  0  0  0  0  0  0  0  0  0  0
   -0.1070  -10.3847   -3.0412 H   0  0  0  0  0  0  0  0  0  0  0  0
   -1.7704  -10.9769   -2.6591 H   0  0  0  0  0  0  0  0  0  0  0  0
   -4.5757   -4.5591   -4.0105 H   0  0  0  0  0  0  0  0  0  0  0  0
   -2.8631   -2.4839   -4.7925 H   0  0  0  0  0  0  0  0  0  0  0  0
   -1.8410   -1.9078   -6.7040 H   0  0  0  0  0  0  0  0  0  0  0  0
   -0.2301   -2.4719   -9.3782 H   0  0  0  0  0  0  0  0  0  0  0  0
    0.0745   -4.9175   -9.2630 H   0  0  0  0  0  0  0  0  0  0  0  0
    3.4571   -7.6441   -7.7548 H   0  0  0  0  0  0  0  0  0  0  0  0
    3.6183   -5.8782   -7.4551 H   0  0  0  0  0  0  0  0  0  0  0  0
    2.3149   -7.1293   -9.9718 H   0  0  0  0  0  0  0  0  0  0  0  0
    2.7050   -5.3794   -9.7032 H   0  0  0  0  0  0  0  0  0  0  0  0
    4.0316   -6.5831   -9.8662 H   0  0  0  0  0  0  0  0  0  0  0  0
    1.7188   -2.0558   -5.5571 H   0  0  0  0  0  0  0  0  0  0  0  0
    0.5215    3.3734   -4.8411 H   0  0  0  0  0  0  0  0  0  0  0  0
    0.2088    5.7541   -4.2739 H   0  0  0  0  0  0  0  0  0  0  0  0
   -2.8246    8.9655   -5.6290 H   0  0  0  0  0  0  0  0  0  0  0  0
   -2.8963    7.2871   -6.2595 H   0  0  0  0  0  0  0  0  0  0  0  0
   -2.3299    6.4087   -3.9792 H   0  0  0  0  0  0  0  0  0  0  0  0
   -2.1379    8.1049   -3.3703 H   0  0  0  0  0  0  0  0  0  0  0  0
   -3.7590    7.5059   -3.8974 H   0  0  0  0  0  0  0  0  0  0  0  0
   -0.6398    4.1963   -8.9095 H   0  0  0  0  0  0  0  0  0  0  0  0
    2.6488    3.3855   -6.9940 H   0  0  0  0  0  0  0  0  0  0  0  0
    4.1121    3.6899   -5.3405 H   0  0  0  0  0  0  0  0  0  0  0  0
    5.7713    5.7530   -3.8351 H   0  0  0  0  0  0  0  0  0  0  0  0
    4.3311    7.7574   -3.8006 H   0  0  0  0  0  0  0  0  0  0  0  0
    3.3716    9.0202   -1.1897 H   0  0  0  0  0  0  0  0  0  0  0  0
    2.0900    8.0533   -0.3527 H   0  0  0  0  0  0  0  0  0  0  0  0
    0.4699    9.9332   -0.6487 H   0  0  0  0  0  0  0  0  0  0  0  0
    1.9409   10.4535    0.2614 H   0  0  0  0  0  0  0  0  0  0  0  0
    1.7536   10.9076   -1.4783 H   0  0  0  0  0  0  0  0  0  0  0  0
    2.7361    3.5470   -1.7164 H   0  0  0  0  0  0  0  0  0  0  0  0
    5.1337   -1.5841   -2.3123 H   0  0  0  0  0  0  0  0  0  0  0  0
    6.0792   -3.8638   -2.2659 H   0  0  0  0  0  0  0  0  0  0  0  0
    8.4017   -6.4195   -4.4668 H   0  0  0  0  0  0  0  0  0  0  0  0
    7.2885   -5.0123   -4.5914 H   0  0  0  0  0  0  0  0  0  0  0  0
    9.1087   -5.0737   -6.3791 H   0  0  0  0  0  0  0  0  0  0  0  0
   10.3473   -4.9211   -5.0769 H   0  0  0  0  0  0  0  0  0  0  0  0
    9.1708   -3.5793   -5.3780 H   0  0  0  0  0  0  0  0  0  0  0  0
    9.0493    0.0177   -3.1266 H   0  0  0  0  0  0  0  0  0  0  0  0
    6.7839   -0.0209   -0.0359 H   0  0  0  0  0  0  0  0  0  0  0  0
    8.0908    0.0121    1.7259 H   0  0  0  0  0  0  0  0  0  0  0  0
    9.0513   -2.2048    1.2094 H   0  0  0  0  0  0  0  0  0  0  0  0
   10.2837   -1.0232    1.8412 H   0  0  0  0  0  0  0  0  0  0  0  0
   10.5364   -2.7981    2.0432 H   0  0  0  0  0  0  0  0  0  0  0  0
    7.4774   -1.5666    7.6700 H   0  0  0  0  0  0  0  0  0  0  0  0
    7.9162   -3.3040    7.4708 H   0  0  0  0  0  0  0  0  0  0  0  0
    6.2920   -2.7312    6.9254 H   0  0  0  0  0  0  0  0  0  0  0  0
    5.9147   -0.3938    6.1863 H   0  0  0  0  0  0  0  0  0  0  0  0
    4.5090    1.7841    6.6495 H   0  0  0  0  0  0  0  0  0  0  0  0
    2.1208    1.8856    6.5298 H   0  0  0  0  0  0  0  0  0  0  0  0
    0.3748    2.7578    4.3517 H   0  0  0  0  0  0  0  0  0  0  0  0
    0.0256    4.3999    2.0743 H   0  0  0  0  0  0  0  0  0  0  0  0
   -1.4458    6.2762    2.7088 H   0  0  0  0  0  0  0  0  0  0  0  0
   -5.2775    5.9457    1.2912 H   0  0  0  0  0  0  0  0  0  0  0  0
   -3.8715    7.0809    1.1412 H   0  0  0  0  0  0  0  0  0  0  0  0
   -5.2275    8.8836    2.2211 H   0  0  0  0  0  0  0  0  0  0  0  0
   -6.0320    8.2464    0.7322 H   0  0  0  0  0  0  0  0  0  0  0  0
   -6.6296    7.7408    2.3617 H   0  0  0  0  0  0  0  0  0  0  0  0
   -3.2748    1.6646    2.5288 H   0  0  0  0  0  0  0  0  0  0  0  0
    0.0680   -3.0636    0.7244 H   0  0  0  0  0  0  0  0  0  0  0  0
    1.4552   -5.0482    0.2628 H   0  0  0  0  0  0  0  0  0  0  0  0
    4.6877   -6.9544    1.8694 H   0  0  0  0  0  0  0  0  0  0  0  0
    3.4275   -5.7495    2.2997 H   0  0  0  0  0  0  0  0  0  0  0  0
    5.5750   -5.4375    3.5796 H   0  0  0  0  0  0  0  0  0  0  0  0
    5.1903   -3.9982    2.5778 H   0  0  0  0  0  0  0  0  0  0  0  0
    6.4577   -5.1702    2.0297 H   0  0  0  0  0  0  0  0  0  0  0  0
    3.6103   -0.5987    0.7292 H   0  0  0  0  0  0  0  0  0  0  0  0
    0.0508   -1.3660   -1.4731 H   0  0  0  0  0  0  0  0  0  0  0  0
   -1.8217    0.0247   -2.6165 H   0  0  0  0  0  0  0  0  0  0  0  0
  1  2  2  0
  2  3  1  0
  3  4  2  0
  4  5  1  0
  5  6  2  0
  6  7  1  0
  7  8  2  0
  8  9  1  0
  9 10  1  0
 10 11  1  0
  8 12  1  0
 12 13  1  0
 12 14  2  0
  4 15  1  0
 15 16  2  0
 16 17  1  0
 17 18  1  0
 18 19  2  0
 19 20  1  0
 20 21  2  0
 21 22  1  0
 22 23  1  0
 23 24  1  0
 21 25  1  0
 25 26  2  0
 25 27  1  0
 17 28  2  0
 28 29  1  0
 16 30  1  0
 30 31  2  0
 31 32  1  0
 31 33  1  0
 33 34  2  0
 34 35  1  0
 35 36  2  0
 36 37  1  0
 37 38  2  0
 38 39  1  0
 39 40  2  0
 40 41  1  0
 41 42  1  0
 42 43  1  0
 40 44  1  0
 44 45  1  0
 44 46  2  0
 36 47  1  0
 47 48  2  0
 48 49  1  0
 49 50  1  0
 50 51  2  0
 51 52  1  0
 52 53  2  0
 53 54  1  0
 54 55  1  0
 55 56  1  0
 53 57  1  0
 57 58  2  0
 57 59  1  0
 49 60  2  0
 60 61  1  0
 48 62  1  0
 62 63  2  0
 63 64  1  0
 63 65  1  0
 65 66  2  0
 66 67  1  0
 67 68  2  0
 68 69  1  0
 69 70  2  0
 70 71  1  0
 71 72  2  0
 72 73  1  0
 73 74  1  0
 74 75  1  0
 72 76  1  0
 76 77  1  0
 76 78  2  0
 68 79  1  0
 79 80  2  0
 80 81  1  0
 81 82  1  0
 82 83  2  0
 83 84  1  0
 84 85  2  0
 85 86  1  0
 86 87  1  0
 87 88  1  0
 85 89  1  0
 89 90  2  0
 89 91  1  0
 81 92  2  0
 92 93  1  0
 80 94  1  0
 94 95  2  0
 95 96  1  0
 95 97  1  0
 97 98  2  0
 98 99  1  0
 99100  2  0
100101  1  0
101102  2  0
102103  1  0
103104  2  0
104105  1  0
105106  1  0
106107  1  0
104108  1  0
108109  1  0
108110  2  0
100111  1  0
111112  2  0
112113  1  0
113114  1  0
114115  2  0
115116  1  0
116117  2  0
117118  1  0
118119  1  0
119120  1  0
117121  1  0
121122  2  0
121123  1  0
113124  2  0
124125  1  0
112126  1  0
126127  2  0
127128  1  0
127129  1  0
129130  1  0
129131  2  0
131132  1  0
132133  2  0
133134  1  0
134135  1  0
133136  1  0
136137  1  0
137138  1  0
136139  2  0
139140  1  0
140141  2  0
141142  1  0
142143  2  3
143144  1  0
144145  2  0
145146  1  0
146147  2  0
147148  1  0
148149  2  0
149150  1  0
150151  2  0
151152  1  0
152153  1  0
153154  1  0
151155  1  0
155156  1  0
155157  2  0
147158  1  0
158159  2  0
159160  1  0
160161  1  0
161162  2  0
162163  1  0
163164  2  0
164165  1  0
165166  1  0
166167  1  0
164168  1  0
168169  2  0
168170  1  0
160171  2  0
171172  1  0
159173  1  0
173174  2  0
174175  1  0
 29  1  1  0
 61 33  1  0
 93 65  1  0
125 97  1  0
141130  1  0
172144  1  0
 28  3  1  0
 60 35  1  0
 92 67  1  0
124 99  1  0
140131  1  0
171146  1  0
 14  5  1  0
 32 15  1  0
 46 37  1  0
 64 47  1  0
 78 69  1  0
 96 79  1  0
110101  1  0
128111  1  0
157148  1  0
175158  1  0
 26 18  1  0
 58 50  1  0
 90 82  1  0
122114  1  0
169161  1  0
  1176  1  0
  2177  1  0
  6178  1  0
  7179  1  0
 10180  1  0
 10181  1  0
 11182  1  0
 11183  1  0
 11184  1  0
 14185  1  0
 19186  1  0
 20187  1  0
 23188  1  0
 23189  1  0
 24190  1  0
 24191  1  0
 24192  1  0
 26193  1  0
 30194  1  0
 34195  1  0
 38196  1  0
 39197  1  0
 42198  1  0
 42199  1  0
 43200  1  0
 43201  1  0
 43202  1  0
 46203  1  0
 51204  1  0
 52205  1  0
 55206  1  0
 55207  1  0
 56208  1  0
 56209  1  0
 56210  1  0
 58211  1  0
 62212  1  0
 66213  1  0
 70214  1  0
 71215  1  0
 74216  1  0
 74217  1  0
 75218  1  0
 75219  1  0
 75220  1  0
 78221  1  0
 83222  1  0
 84223  1  0
 87224  1  0
 87225  1  0
 88226  1  0
 88227  1  0
 88228  1  0
 90229  1  0
 94230  1  0
 98231  1  0
102232  1  0
103233  1  0
106234  1  0
106235  1  0
107236  1  0
107237  1  0
107238  1  0
110239  1  0
115240  1  0
116241  1  0
119242  1  0
119243  1  0
120244  1  0
120245  1  0
120246  1  0
122247  1  0
126248  1  0
132249  1  0
135250  1  0
135251  1  0
135252  1  0
138253  1  0
138254  1  0
138255  1  0
139256  1  0
142257  1  0
143258  1  0
145259  1  0
149260  1  0
150261  1  0
153262  1  0
153263  1  0
154264  1  0
154265  1  0
154266  1  0
157267  1  0
162268  1  0
163269  1  0
166270  1  0
166271  1  0
167272  1  0
167273  1  0
167274  1  0
169275  1  0
173276  1  0
174277  1  0
M  END

