
     RDKit          3D

202219  0  0  0  0  0  0  0  0999 V2000
   -3.1460   -1.0617   -9.0711 C   0  0  0  0  0  0  0  0  0  0  0  0
   -1.4887   -1.2046   -8.8139 S   0  0  0  0  0  0  0  0  0  0  0  0
   -3.7869   -1.6354   -7.9810 C   0  0  0  0  0  0  0  0  0  0  0  0
   -5.1714   -1.7288   -7.8276 C   0  0  0  0  0  0  0  0  0  0  0  0
   -5.7021   -2.3475   -6.6741 C   0  0  0  0  0  0  0  0  0  0  0  0
   -7.0834   -2.4801   -6.4740 O   0  0  0  0  0  0  0  0  0  0  0  0
   -8.0780   -2.0538   -7.3992 C   0  0  0  0  0  0  0  0  0  0  0  0
   -4.8351   -2.8554   -5.6855 C   0  0  0  0  0  0  0  0  0  0  0  0
   -5.4030   -3.4556   -4.5503 O   0  0  0  0  0  0  0  0  0  0  0  0
   -4.6581   -4.0021   -3.4662 C   0  0  0  0  0  0  0  0  0  0  0  0
   -3.4370   -2.7588   -5.8552 C   0  0  0  0  0  0  0  0  0  0  0  0
   -2.9205   -2.1493   -7.0039 C   0  0  0  0  0  0  0  0  0  0  0  0
   -1.5687   -1.9925   -7.3221 C   0  0  0  0  0  0  0  0  0  0  0  0
   -0.4221   -2.4162   -6.4956 C   0  0  0  0  0  0  0  0  0  0  0  0
    0.8480   -2.3425   -6.9089 C   0  0  0  0  0  0  0  0  0  0  0  0
    1.9576   -2.8125   -6.0492 C   0  0  0  0  0  0  0  0  0  0  0  0
    1.8149   -3.2031   -4.4178 S   0  0  0  0  0  0  0  0  0  0  0  0
    3.2713   -3.1008   -6.4301 C   0  0  0  0  0  0  0  0  0  0  0  0
    3.8173   -2.9137   -7.7036 C   0  0  0  0  0  0  0  0  0  0  0  0
    5.1600   -3.2757   -7.9458 C   0  0  0  0  0  0  0  0  0  0  0  0
    5.7616   -3.0855   -9.2016 O   0  0  0  0  0  0  0  0  0  0  0  0
    5.1360   -2.4463  -10.3111 C   0  0  0  0  0  0  0  0  0  0  0  0
    5.9361   -3.8419   -6.9152 C   0  0  0  0  0  0  0  0  0  0  0  0
    7.2612   -4.1994   -7.2067 O   0  0  0  0  0  0  0  0  0  0  0  0
    8.1584   -4.7942   -6.2761 C   0  0  0  0  0  0  0  0  0  0  0  0
    5.3800   -4.0278   -5.6303 C   0  0  0  0  0  0  0  0  0  0  0  0
    4.0571   -3.6464   -5.3935 C   0  0  0  0  0  0  0  0  0  0  0  0
    3.3857   -3.7439   -4.1769 C   0  0  0  0  0  0  0  0  0  0  0  0
    3.8338   -4.3916   -2.9340 C   0  0  0  0  0  0  0  0  0  0  0  0
    3.3922   -3.9447   -1.7580 C   0  0  0  0  0  0  0  0  0  0  0  0
    3.3325   -4.8041   -0.5708 C   0  0  0  0  0  0  0  0  0  0  0  0
    2.7339   -6.3806   -0.6182 S   0  0  0  0  0  0  0  0  0  0  0  0
    3.2208   -4.3554    0.7471 C   0  0  0  0  0  0  0  0  0  0  0  0
    3.4872   -3.0560    1.1899 C   0  0  0  0  0  0  0  0  0  0  0  0
    3.2660   -2.7233    2.5417 C   0  0  0  0  0  0  0  0  0  0  0  0
    3.5061   -1.4335    3.0371 O   0  0  0  0  0  0  0  0  0  0  0  0
    4.0212   -0.3485    2.2700 C   0  0  0  0  0  0  0  0  0  0  0  0
    2.7890   -3.7005    3.4394 C   0  0  0  0  0  0  0  0  0  0  0  0
    2.5961   -3.3285    4.7803 O   0  0  0  0  0  0  0  0  0  0  0  0
    2.2212   -4.2303    5.8214 C   0  0  0  0  0  0  0  0  0  0  0  0
    2.5095   -5.0057    2.9802 C   0  0  0  0  0  0  0  0  0  0  0  0
    2.7091   -5.3182    1.6333 C   0  0  0  0  0  0  0  0  0  0  0  0
    2.3474   -6.5170    1.0120 C   0  0  0  0  0  0  0  0  0  0  0  0
    1.4265   -7.5480    1.5289 C   0  0  0  0  0  0  0  0  0  0  0  0
    0.1787   -7.2940    1.9663 C   0  0  0  0  0  0  0  0  0  0  0  0
   -0.4533   -5.9576    1.9806 C   0  0  0  0  0  0  0  0  0  0  0  0
   -1.1700   -5.4489    3.0600 C   0  0  0  0  0  0  0  0  0  0  0  0
   -1.4594   -4.0769    2.9336 C   0  0  0  0  0  0  0  0  0  0  0  0
   -2.0628   -3.2470    3.9065 C   0  0  0  0  0  0  0  0  0  0  0  0
   -2.7111   -3.7801    5.1312 C   0  0  0  0  0  0  0  0  0  0  0  0
   -4.0665   -3.4960    5.3773 C   0  0  0  0  0  0  0  0  0  0  0  0
   -4.7097   -4.0322    6.4955 C   0  0  0  0  0  0  0  0  0  0  0  0
   -4.0190   -4.8804    7.3634 C   0  0  0  0  0  0  0  0  0  0  0  0
   -4.8767   -5.6265    8.7544 S   0  0  0  0  0  0  0  0  0  0  0  0
   -5.4090   -7.1186    7.8397 C   0  0  0  0  0  0  0  0  0  0  0  0
   -6.7379   -6.8762    7.1352 C   0  0  0  0  0  0  0  0  0  0  0  0
   -2.6563   -5.1373    7.1498 C   0  0  0  0  0  0  0  0  0  0  0  0
   -1.9710   -5.9490    7.9920 F   0  0  0  0  0  0  0  0  0  0  0  0
   -2.0056   -4.5766    6.0475 C   0  0  0  0  0  0  0  0  0  0  0  0
   -2.0942   -1.8705    3.6212 C   0  0  0  0  0  0  0  0  0  0  0  0
   -1.6501   -1.3321    2.4057 C   0  0  0  0  0  0  0  0  0  0  0  0
   -1.1436   -2.1749    1.3942 C   0  0  0  0  0  0  0  0  0  0  0  0
   -0.7632   -1.6690    0.0530 C   0  0  0  0  0  0  0  0  0  0  0  0
   -1.4254   -2.1511   -1.0874 C   0  0  0  0  0  0  0  0  0  0  0  0
   -1.1094   -1.6551   -2.3532 C   0  0  0  0  0  0  0  0  0  0  0  0
   -0.1338   -0.6613   -2.4970 C   0  0  0  0  0  0  0  0  0  0  0  0
    0.2572   -0.0182   -4.1284 S   0  0  0  0  0  0  0  0  0  0  0  0
   -1.2282    1.0327   -4.2576 C   0  0  0  0  0  0  0  0  0  0  0  0
   -1.3535    1.5817   -5.6733 C   0  0  0  0  0  0  0  0  0  0  0  0
    0.5626   -0.2056   -1.3683 C   0  0  0  0  0  0  0  0  0  0  0  0
    0.2505   -0.7079   -0.0987 C   0  0  0  0  0  0  0  0  0  0  0  0
    1.5560    0.7087   -1.4997 F   0  0  0  0  0  0  0  0  0  0  0  0
   -1.0397   -3.5426    1.7086 C   0  0  0  0  0  0  0  0  0  0  0  0
   -0.3028   -4.7514    0.8047 S   0  0  0  0  0  0  0  0  0  0  0  0
   -1.7341    0.0718    2.3643 C   0  0  0  0  0  0  0  0  0  0  0  0
   -2.2050    0.6246    3.5564 C   0  0  0  0  0  0  0  0  0  0  0  0
   -2.5368   -0.6146    4.6487 S   0  0  0  0  0  0  0  0  0  0  0  0
   -2.2024    2.0529    3.9065 C   0  0  0  0  0  0  0  0  0  0  0  0
   -1.6499    2.6521    5.3827 S   0  0  0  0  0  0  0  0  0  0  0  0
   -2.5210    3.1446    3.0952 C   0  0  0  0  0  0  0  0  0  0  0  0
   -3.0191    3.0854    1.7906 C   0  0  0  0  0  0  0  0  0  0  0  0
   -3.2525    4.2828    1.0783 C   0  0  0  0  0  0  0  0  0  0  0  0
   -3.7395    4.2744   -0.2374 O   0  0  0  0  0  0  0  0  0  0  0  0
   -3.9929    3.0974   -1.0012 C   0  0  0  0  0  0  0  0  0  0  0  0
   -2.9914    5.5276    1.6880 C   0  0  0  0  0  0  0  0  0  0  0  0
   -3.1978    6.6902    0.9309 O   0  0  0  0  0  0  0  0  0  0  0  0
   -2.8714    8.0062    1.3704 C   0  0  0  0  0  0  0  0  0  0  0  0
   -2.5310    5.5778    3.0220 C   0  0  0  0  0  0  0  0  0  0  0  0
   -2.3067    4.3879    3.7154 C   0  0  0  0  0  0  0  0  0  0  0  0
   -1.8100    4.2839    5.0162 C   0  0  0  0  0  0  0  0  0  0  0  0
   -1.4008    5.3798    5.9105 C   0  0  0  0  0  0  0  0  0  0  0  0
   -0.1157    5.6664    6.1724 C   0  0  0  0  0  0  0  0  0  0  0  0
    1.0136    5.1018    5.4110 C   0  0  0  0  0  0  0  0  0  0  0  0
    1.0577    4.9305    4.0307 C   0  0  0  0  0  0  0  0  0  0  0  0
    2.2749    4.4114    3.5772 C   0  0  0  0  0  0  0  0  0  0  0  0
    2.5993    4.1404    2.2367 C   0  0  0  0  0  0  0  0  0  0  0  0
    1.6641    4.4666    1.1420 C   0  0  0  0  0  0  0  0  0  0  0  0
    1.3211    5.8045    0.8921 C   0  0  0  0  0  0  0  0  0  0  0  0
    0.3919    6.1186   -0.1011 C   0  0  0  0  0  0  0  0  0  0  0  0
   -0.1911    5.1009   -0.8630 C   0  0  0  0  0  0  0  0  0  0  0  0
   -1.3732    5.5228   -2.1486 S   0  0  0  0  0  0  0  0  0  0  0  0
   -0.1200    5.9199   -3.4180 C   0  0  0  0  0  0  0  0  0  0  0  0
    0.4761    4.6546   -4.0195 C   0  0  0  0  0  0  0  0  0  0  0  0
    0.1331    3.7625   -0.5998 C   0  0  0  0  0  0  0  0  0  0  0  0
   -0.4588    2.7662   -1.3004 F   0  0  0  0  0  0  0  0  0  0  0  0
    1.0620    3.4463    0.3948 C   0  0  0  0  0  0  0  0  0  0  0  0
    3.8660    3.5863    1.9904 C   0  0  0  0  0  0  0  0  0  0  0  0
    4.7938    3.3482    3.0122 C   0  0  0  0  0  0  0  0  0  0  0  0
    4.4812    3.6583    4.3567 C   0  0  0  0  0  0  0  0  0  0  0  0
    5.4582    3.4829    5.4559 C   0  0  0  0  0  0  0  0  0  0  0  0
    5.1371    2.6935    6.5722 C   0  0  0  0  0  0  0  0  0  0  0  0
    6.0429    2.5636    7.6280 C   0  0  0  0  0  0  0  0  0  0  0  0
    7.2769    3.2233    7.5817 C   0  0  0  0  0  0  0  0  0  0  0  0
    8.4436    3.0285    8.9348 S   0  0  0  0  0  0  0  0  0  0  0  0
    7.7400    4.3610    9.9713 C   0  0  0  0  0  0  0  0  0  0  0  0
    8.2021    5.7335    9.5008 C   0  0  0  0  0  0  0  0  0  0  0  0
    7.6102    3.9955    6.4619 C   0  0  0  0  0  0  0  0  0  0  0  0
    6.6998    4.1340    5.4094 C   0  0  0  0  0  0  0  0  0  0  0  0
    8.8152    4.6168    6.3896 F   0  0  0  0  0  0  0  0  0  0  0  0
    3.1939    4.1768    4.6009 C   0  0  0  0  0  0  0  0  0  0  0  0
    2.5014    4.6550    6.0671 S   0  0  0  0  0  0  0  0  0  0  0  0
    5.9884    2.7749    2.5369 C   0  0  0  0  0  0  0  0  0  0  0  0
    5.9949    2.5812    1.1560 C   0  0  0  0  0  0  0  0  0  0  0  0
    4.5260    3.1143    0.5207 S   0  0  0  0  0  0  0  0  0  0  0  0
   -3.6254   -0.6088   -9.9317 H   0  0  0  0  0  0  0  0  0  0  0  0
   -5.8174   -1.3315   -8.5985 H   0  0  0  0  0  0  0  0  0  0  0  0
   -7.9416   -2.5724   -8.3717 H   0  0  0  0  0  0  0  0  0  0  0  0
   -9.0803   -2.3118   -6.9991 H   0  0  0  0  0  0  0  0  0  0  0  0
   -8.0229   -0.9531   -7.5385 H   0  0  0  0  0  0  0  0  0  0  0  0
   -5.3611   -4.3983   -2.7060 H   0  0  0  0  0  0  0  0  0  0  0  0
   -4.0160   -4.8340   -3.8247 H   0  0  0  0  0  0  0  0  0  0  0  0
   -4.0347   -3.2126   -2.9960 H   0  0  0  0  0  0  0  0  0  0  0  0
   -2.7749   -3.1661   -5.1093 H   0  0  0  0  0  0  0  0  0  0  0  0
   -0.6327   -2.8119   -5.5131 H   0  0  0  0  0  0  0  0  0  0  0  0
    1.0718   -1.9798   -7.9027 H   0  0  0  0  0  0  0  0  0  0  0  0
    3.2142   -2.4871   -8.4930 H   0  0  0  0  0  0  0  0  0  0  0  0
    4.2232   -3.0029  -10.6066 H   0  0  0  0  0  0  0  0  0  0  0  0
    4.8790   -1.3965  -10.0533 H   0  0  0  0  0  0  0  0  0  0  0  0
    5.8396   -2.4425  -11.1696 H   0  0  0  0  0  0  0  0  0  0  0  0
    7.7642   -5.7788   -5.9462 H   0  0  0  0  0  0  0  0  0  0  0  0
    8.3066   -4.1252   -5.3997 H   0  0  0  0  0  0  0  0  0  0  0  0
    9.1411   -4.9518   -6.7677 H   0  0  0  0  0  0  0  0  0  0  0  0
    5.9681   -4.4454   -4.8248 H   0  0  0  0  0  0  0  0  0  0  0  0
    4.3938   -5.3171   -2.9953 H   0  0  0  0  0  0  0  0  0  0  0  0
    2.8828   -2.9905   -1.7020 H   0  0  0  0  0  0  0  0  0  0  0  0
    3.8579   -2.3176    0.4922 H   0  0  0  0  0  0  0  0  0  0  0  0
    5.0328   -0.5999    1.8847 H   0  0  0  0  0  0  0  0  0  0  0  0
    4.0979    0.5454    2.9232 H   0  0  0  0  0  0  0  0  0  0  0  0
    3.3358   -0.1122    1.4296 H   0  0  0  0  0  0  0  0  0  0  0  0
    1.2782   -4.7494    5.5580 H   0  0  0  0  0  0  0  0  0  0  0  0
    3.0307   -4.9738    5.9820 H   0  0  0  0  0  0  0  0  0  0  0  0
    2.0665   -3.6580    6.7600 H   0  0  0  0  0  0  0  0  0  0  0  0
    2.1279   -5.7639    3.6490 H   0  0  0  0  0  0  0  0  0  0  0  0
    1.7691   -8.5749    1.5218 H   0  0  0  0  0  0  0  0  0  0  0  0
   -0.3832   -8.1119    2.4024 H   0  0  0  0  0  0  0  0  0  0  0  0
   -1.3965   -6.0483    3.9302 H   0  0  0  0  0  0  0  0  0  0  0  0
   -4.6295   -2.8696    4.6980 H   0  0  0  0  0  0  0  0  0  0  0  0
   -5.7501   -3.7995    6.6743 H   0  0  0  0  0  0  0  0  0  0  0  0
   -4.6429   -7.4318    7.0981 H   0  0  0  0  0  0  0  0  0  0  0  0
   -5.5365   -7.9422    8.5707 H   0  0  0  0  0  0  0  0  0  0  0  0
   -7.0797   -7.8166    6.6523 H   0  0  0  0  0  0  0  0  0  0  0  0
   -6.6236   -6.1031    6.3492 H   0  0  0  0  0  0  0  0  0  0  0  0
   -7.5059   -6.5491    7.8682 H   0  0  0  0  0  0  0  0  0  0  0  0
   -0.9560   -4.7739    5.9029 H   0  0  0  0  0  0  0  0  0  0  0  0
   -2.2023   -2.9001   -0.9926 H   0  0  0  0  0  0  0  0  0  0  0  0
   -1.6352   -2.0264   -3.2211 H   0  0  0  0  0  0  0  0  0  0  0  0
   -1.1529    1.8728   -3.5409 H   0  0  0  0  0  0  0  0  0  0  0  0
   -2.1387    0.4401   -4.0256 H   0  0  0  0  0  0  0  0  0  0  0  0
   -2.2069    2.2895   -5.7260 H   0  0  0  0  0  0  0  0  0  0  0  0
   -1.5347    0.7536   -6.3855 H   0  0  0  0  0  0  0  0  0  0  0  0
   -0.4254    2.1156   -5.9662 H   0  0  0  0  0  0  0  0  0  0  0  0
    0.7949   -0.3511    0.7642 H   0  0  0  0  0  0  0  0  0  0  0  0
   -1.3972    0.6703    1.5329 H   0  0  0  0  0  0  0  0  0  0  0  0
   -3.2325    2.1291    1.3370 H   0  0  0  0  0  0  0  0  0  0  0  0
   -4.7866    2.4900   -0.5163 H   0  0  0  0  0  0  0  0  0  0  0  0
   -4.3347    3.3909   -2.0137 H   0  0  0  0  0  0  0  0  0  0  0  0
   -3.0627    2.4998   -1.1010 H   0  0  0  0  0  0  0  0  0  0  0  0
   -3.1095    8.7241    0.5596 H   0  0  0  0  0  0  0  0  0  0  0  0
   -3.4714    8.2711    2.2659 H   0  0  0  0  0  0  0  0  0  0  0  0
   -1.7874    8.0724    1.6020 H   0  0  0  0  0  0  0  0  0  0  0  0
   -2.3339    6.5249    3.5070 H   0  0  0  0  0  0  0  0  0  0  0  0
   -2.1759    5.8892    6.4718 H   0  0  0  0  0  0  0  0  0  0  0  0
    0.1063    6.3553    6.9754 H   0  0  0  0  0  0  0  0  0  0  0  0
    0.2468    5.2030    3.3756 H   0  0  0  0  0  0  0  0  0  0  0  0
    1.7640    6.6013    1.4752 H   0  0  0  0  0  0  0  0  0  0  0  0
    0.1299    7.1515   -0.2834 H   0  0  0  0  0  0  0  0  0  0  0  0
    0.6850    6.5562   -2.9905 H   0  0  0  0  0  0  0  0  0  0  0  0
   -0.6199    6.4936   -4.2258 H   0  0  0  0  0  0  0  0  0  0  0  0
    1.0768    4.1076   -3.2649 H   0  0  0  0  0  0  0  0  0  0  0  0
   -0.3353    4.0020   -4.3933 H   0  0  0  0  0  0  0  0  0  0  0  0
    1.1395    4.9211   -4.8692 H   0  0  0  0  0  0  0  0  0  0  0  0
    1.2981    2.4086    0.5995 H   0  0  0  0  0  0  0  0  0  0  0  0
    4.1871    2.1775    6.6231 H   0  0  0  0  0  0  0  0  0  0  0  0
    5.7831    1.9564    8.4846 H   0  0  0  0  0  0  0  0  0  0  0  0
    8.0938    4.2055   11.0123 H   0  0  0  0  0  0  0  0  0  0  0  0
    6.6286    4.3120    9.9780 H   0  0  0  0  0  0  0  0  0  0  0  0
    7.8780    6.5052   10.2318 H   0  0  0  0  0  0  0  0  0  0  0  0
    9.3094    5.7610    9.4248 H   0  0  0  0  0  0  0  0  0  0  0  0
    7.7567    5.9796    8.5153 H   0  0  0  0  0  0  0  0  0  0  0  0
    6.9626    4.7518    4.5595 H   0  0  0  0  0  0  0  0  0  0  0  0
    6.8197    2.4888    3.1656 H   0  0  0  0  0  0  0  0  0  0  0  0
    6.8098    2.1498    0.5892 H   0  0  0  0  0  0  0  0  0  0  0  0
  1  2  1  0
  1  3  2  0
  3  4  1  0
  4  5  2  0
  5  6  1  0
  6  7  1  0
  5  8  1  0
  8  9  1  0
  9 10  1  0
  8 11  2  0
 11 12  1  0
 12 13  2  0
 13 14  1  0
 14 15  2  3
 15 16  1  0
 16 17  1  0
 16 18  2  0
 18 19  1  0
 19 20  2  0
 20 21  1  0
 21 22  1  0
 20 23  1  0
 23 24  1  0
 24 25  1  0
 23 26  2  0
 26 27  1  0
 27 28  2  0
 28 29  1  0
 29 30  2  3
 30 31  1  0
 31 32  1  0
 31 33  2  0
 33 34  1  0
 34 35  2  0
 35 36  1  0
 36 37  1  0
 35 38  1  0
 38 39  1  0
 39 40  1  0
 38 41  2  0
 41 42  1  0
 42 43  2  0
 43 44  1  0
 44 45  2  3
 45 46  1  0
 46 47  2  0
 47 48  1  0
 48 49  2  0
 49 50  1  0
 50 51  2  0
 51 52  1  0
 52 53  2  0
 53 54  1  0
 54 55  1  0
 55 56  1  0
 53 57  1  0
 57 58  1  0
 57 59  2  0
 49 60  1  0
 60 61  2  0
 61 62  1  0
 62 63  1  0
 63 64  2  0
 64 65  1  0
 65 66  2  0
 66 67  1  0
 67 68  1  0
 68 69  1  0
 66 70  1  0
 70 71  2  0
 70 72  1  0
 62 73  2  0
 73 74  1  0
 61 75  1  0
 75 76  2  0
 76 77  1  0
 76 78  1  0
 78 79  1  0
 78 80  2  0
 80 81  1  0
 81 82  2  0
 82 83  1  0
 83 84  1  0
 82 85  1  0
 85 86  1  0
 86 87  1  0
 85 88  2  0
 88 89  1  0
 89 90  2  0
 90 91  1  0
 91 92  2  3
 92 93  1  0
 93 94  2  0
 94 95  1  0
 95 96  2  0
 96 97  1  0
 97 98  2  0
 98 99  1  0
 99100  2  0
100101  1  0
101102  1  0
102103  1  0
100104  1  0
104105  1  0
104106  2  0
 96107  1  0
107108  2  0
108109  1  0
109110  1  0
110111  2  0
111112  1  0
112113  2  0
113114  1  0
114115  1  0
115116  1  0
113117  1  0
117118  2  0
117119  1  0
109120  2  0
120121  1  0
108122  1  0
122123  2  0
123124  1  0
 13  2  1  0
 28 17  1  0
 43 32  1  0
 74 46  1  0
 90 79  1  0
121 93  1  0
 12  3  1  0
 27 18  1  0
 42 33  1  0
 73 48  1  0
 89 80  1  0
120 95  1  0
 59 50  1  0
 77 60  1  0
106 97  1  0
124107  1  0
 71 63  1  0
118110  1  0
  1125  1  0
  4126  1  0
  7127  1  0
  7128  1  0
  7129  1  0
 10130  1  0
 10131  1  0
 10132  1  0
 11133  1  0
 14134  1  0
 15135  1  0
 19136  1  0
 22137  1  0
 22138  1  0
 22139  1  0
 25140  1  0
 25141  1  0
 25142  1  0
 26143  1  0
 29144  1  0
 30145  1  0
 34146  1  0
 37147  1  0
 37148  1  0
 37149  1  0
 40150  1  0
 40151  1  0
 40152  1  0
 41153  1  0
 44154  1  0
 45155  1  0
 47156  1  0
 51157  1  0
 52158  1  0
 55159  1  0
 55160  1  0
 56161  1  0
 56162  1  0
 56163  1  0
 59164  1  0
 64165  1  0
 65166  1  0
 68167  1  0
 68168  1  0
 69169  1  0
 69170  1  0
 69171  1  0
 71172  1  0
 75173  1  0
 81174  1  0
 84175  1  0
 84176  1  0
 84177  1  0
 87178  1  0
 87179  1  0
 87180  1  0
 88181  1  0
 91182  1  0
 92183  1  0
 94184  1  0
 98185  1  0
 99186  1  0
102187  1  0
102188  1  0
103189  1  0
103190  1  0
103191  1  0
106192  1  0
111193  1  0
112194  1  0
115195  1  0
115196  1  0
116197  1  0
116198  1  0
116199  1  0
118200  1  0
122201  1  0
123202  1  0
M  END

