
     RDKit          3D

202219  0  0  0  0  0  0  0  0999 V2000
   10.2457   -4.6962    2.7949 C   0  0  0  0  0  0  0  0  0  0  0  0
    8.8440   -5.2812    3.5186 S   0  0  0  0  0  0  0  0  0  0  0  0
    9.8584   -3.7569    1.8463 C   0  0  0  0  0  0  0  0  0  0  0  0
   10.7396   -3.0219    1.0517 C   0  0  0  0  0  0  0  0  0  0  0  0
   10.2255   -2.0874    0.1277 C   0  0  0  0  0  0  0  0  0  0  0  0
   11.0657   -1.3136   -0.6883 O   0  0  0  0  0  0  0  0  0  0  0  0
   12.4880   -1.3552   -0.6448 C   0  0  0  0  0  0  0  0  0  0  0  0
    8.8319   -1.9106    0.0054 C   0  0  0  0  0  0  0  0  0  0  0  0
    8.3621   -0.9875   -0.9434 O   0  0  0  0  0  0  0  0  0  0  0  0
    6.9868   -0.7501   -1.2245 C   0  0  0  0  0  0  0  0  0  0  0  0
    7.9525   -2.6508    0.8243 C   0  0  0  0  0  0  0  0  0  0  0  0
    8.4706   -3.5712    1.7448 C   0  0  0  0  0  0  0  0  0  0  0  0
    7.7358   -4.3623    2.6339 C   0  0  0  0  0  0  0  0  0  0  0  0
    6.2720   -4.3356    2.8333 C   0  0  0  0  0  0  0  0  0  0  0  0
    5.6552   -5.0478    3.7869 C   0  0  0  0  0  0  0  0  0  0  0  0
    4.2095   -4.8864    4.0647 C   0  0  0  0  0  0  0  0  0  0  0  0
    3.1919   -3.7890    3.3003 S   0  0  0  0  0  0  0  0  0  0  0  0
    3.4614   -5.4991    5.0735 C   0  0  0  0  0  0  0  0  0  0  0  0
    3.9228   -6.4937    5.9429 C   0  0  0  0  0  0  0  0  0  0  0  0
    3.0545   -7.0342    6.9134 C   0  0  0  0  0  0  0  0  0  0  0  0
    3.4666   -8.0428    7.7985 O   0  0  0  0  0  0  0  0  0  0  0  0
    4.7682   -8.6192    7.8173 C   0  0  0  0  0  0  0  0  0  0  0  0
    1.7301   -6.5652    7.0114 C   0  0  0  0  0  0  0  0  0  0  0  0
    0.8992   -7.1338    7.9901 O   0  0  0  0  0  0  0  0  0  0  0  0
   -0.4600   -6.7699    8.2079 C   0  0  0  0  0  0  0  0  0  0  0  0
    1.2714   -5.5539    6.1396 C   0  0  0  0  0  0  0  0  0  0  0  0
    2.1356   -5.0248    5.1701 C   0  0  0  0  0  0  0  0  0  0  0  0
    1.8154   -4.0219    4.2410 C   0  0  0  0  0  0  0  0  0  0  0  0
    0.5138   -3.3094    4.1166 C   0  0  0  0  0  0  0  0  0  0  0  0
    0.2238   -2.3063    3.2700 C   0  0  0  0  0  0  0  0  0  0  0  0
    1.1654   -1.6759    2.3328 C   0  0  0  0  0  0  0  0  0  0  0  0
    1.0324   -1.7663    0.6612 S   0  0  0  0  0  0  0  0  0  0  0  0
    2.2455   -0.8450    2.6368 C   0  0  0  0  0  0  0  0  0  0  0  0
    2.6509   -0.4644    3.9196 C   0  0  0  0  0  0  0  0  0  0  0  0
    3.7895    0.3572    4.0743 C   0  0  0  0  0  0  0  0  0  0  0  0
    4.2391    0.7743    5.3375 O   0  0  0  0  0  0  0  0  0  0  0  0
    3.5950    0.4610    6.5677 C   0  0  0  0  0  0  0  0  0  0  0  0
    4.5104    0.7813    2.9408 C   0  0  0  0  0  0  0  0  0  0  0  0
    5.6452    1.5849    3.1402 O   0  0  0  0  0  0  0  0  0  0  0  0
    6.5145    2.0302    2.1036 C   0  0  0  0  0  0  0  0  0  0  0  0
    4.0815    0.4050    1.6496 C   0  0  0  0  0  0  0  0  0  0  0  0
    2.9395   -0.3897    1.5029 C   0  0  0  0  0  0  0  0  0  0  0  0
    2.3788   -0.8114    0.2920 C   0  0  0  0  0  0  0  0  0  0  0  0
    2.7650   -0.3620   -1.0629 C   0  0  0  0  0  0  0  0  0  0  0  0
    2.2689   -0.9324   -2.1675 C   0  0  0  0  0  0  0  0  0  0  0  0
    2.4563   -0.3441   -3.5103 C   0  0  0  0  0  0  0  0  0  0  0  0
    2.9663    1.2350   -3.8205 S   0  0  0  0  0  0  0  0  0  0  0  0
    2.0313   -0.8903   -4.7257 C   0  0  0  0  0  0  0  0  0  0  0  0
    1.5391   -2.1861   -4.9174 C   0  0  0  0  0  0  0  0  0  0  0  0
    1.1303   -2.5929   -6.2060 C   0  0  0  0  0  0  0  0  0  0  0  0
    0.6604   -3.8919   -6.4580 O   0  0  0  0  0  0  0  0  0  0  0  0
    0.6049   -4.9340   -5.4884 C   0  0  0  0  0  0  0  0  0  0  0  0
    1.1911   -1.6869   -7.2843 C   0  0  0  0  0  0  0  0  0  0  0  0
    0.7493   -2.1222   -8.5436 O   0  0  0  0  0  0  0  0  0  0  0  0
    0.7461   -1.3213   -9.7211 C   0  0  0  0  0  0  0  0  0  0  0  0
    1.6898   -0.3828   -7.0821 C   0  0  0  0  0  0  0  0  0  0  0  0
    2.1206    0.0002   -5.8092 C   0  0  0  0  0  0  0  0  0  0  0  0
    2.6179    1.2548   -5.4672 C   0  0  0  0  0  0  0  0  0  0  0  0
    2.7327    2.4273   -6.3576 C   0  0  0  0  0  0  0  0  0  0  0  0
    1.9204    3.4912   -6.2757 C   0  0  0  0  0  0  0  0  0  0  0  0
    0.8197    3.5693   -5.3081 C   0  0  0  0  0  0  0  0  0  0  0  0
   -0.4758    3.1188   -5.5429 C   0  0  0  0  0  0  0  0  0  0  0  0
   -1.2388    3.0280   -4.3664 C   0  0  0  0  0  0  0  0  0  0  0  0
   -2.5712    2.5751   -4.2622 C   0  0  0  0  0  0  0  0  0  0  0  0
   -3.3753    2.2069   -5.4489 C   0  0  0  0  0  0  0  0  0  0  0  0
   -4.5524    2.9137   -5.7431 C   0  0  0  0  0  0  0  0  0  0  0  0
   -5.3140    2.5756   -6.8641 C   0  0  0  0  0  0  0  0  0  0  0  0
   -4.9045    1.5364   -7.7070 C   0  0  0  0  0  0  0  0  0  0  0  0
   -5.8898    1.1140   -9.1488 S   0  0  0  0  0  0  0  0  0  0  0  0
   -4.9751    2.1979  -10.3045 C   0  0  0  0  0  0  0  0  0  0  0  0
   -5.5030    3.6256  -10.2487 C   0  0  0  0  0  0  0  0  0  0  0  0
   -3.7435    0.8113   -7.4039 C   0  0  0  0  0  0  0  0  0  0  0  0
   -3.3500   -0.2151   -8.1973 F   0  0  0  0  0  0  0  0  0  0  0  0
   -2.9819    1.1449   -6.2795 C   0  0  0  0  0  0  0  0  0  0  0  0
   -3.1035    2.4711   -2.9635 C   0  0  0  0  0  0  0  0  0  0  0  0
   -2.3665    2.7884   -1.8151 C   0  0  0  0  0  0  0  0  0  0  0  0
   -1.0600    3.3042   -1.9251 C   0  0  0  0  0  0  0  0  0  0  0  0
   -0.2625    3.6852   -0.7392 C   0  0  0  0  0  0  0  0  0  0  0  0
   -0.6987    4.7167    0.1060 C   0  0  0  0  0  0  0  0  0  0  0  0
    0.0968    5.1323    1.1786 C   0  0  0  0  0  0  0  0  0  0  0  0
    1.3376    4.5277    1.4100 C   0  0  0  0  0  0  0  0  0  0  0  0
    2.3599    5.0747    2.7839 S   0  0  0  0  0  0  0  0  0  0  0  0
    3.4674    6.1218    1.7728 C   0  0  0  0  0  0  0  0  0  0  0  0
    2.7956    7.4296    1.3791 C   0  0  0  0  0  0  0  0  0  0  0  0
    1.7676    3.4846    0.5792 C   0  0  0  0  0  0  0  0  0  0  0  0
    0.9680    3.0610   -0.4864 C   0  0  0  0  0  0  0  0  0  0  0  0
    2.9791    2.9130    0.7727 F   0  0  0  0  0  0  0  0  0  0  0  0
   -0.5306    3.4140   -3.2232 C   0  0  0  0  0  0  0  0  0  0  0  0
    1.0141    3.9086   -3.6696 S   0  0  0  0  0  0  0  0  0  0  0  0
   -3.0354    2.4636   -0.6241 C   0  0  0  0  0  0  0  0  0  0  0  0
   -4.3015    1.9320   -0.8493 C   0  0  0  0  0  0  0  0  0  0  0  0
   -4.5929    1.8346   -2.5072 S   0  0  0  0  0  0  0  0  0  0  0  0
   -5.1614    1.3348    0.1664 C   0  0  0  0  0  0  0  0  0  0  0  0
   -6.5137    1.6071    0.3330 C   0  0  0  0  0  0  0  0  0  0  0  0
   -7.1303    0.7510    1.2605 C   0  0  0  0  0  0  0  0  0  0  0  0
   -8.4936    0.7574    1.6175 C   0  0  0  0  0  0  0  0  0  0  0  0
   -9.4202    1.7922    1.1093 C   0  0  0  0  0  0  0  0  0  0  0  0
   -9.1802    3.1473    1.3829 C   0  0  0  0  0  0  0  0  0  0  0  0
   -9.9994    4.1334    0.8302 C   0  0  0  0  0  0  0  0  0  0  0  0
  -11.0632    3.7775   -0.0061 C   0  0  0  0  0  0  0  0  0  0  0  0
  -12.0797    5.0613   -0.7452 S   0  0  0  0  0  0  0  0  0  0  0  0
  -10.9615    5.3687   -2.1599 C   0  0  0  0  0  0  0  0  0  0  0  0
  -11.1935    4.3547   -3.2727 C   0  0  0  0  0  0  0  0  0  0  0  0
  -11.3301    2.4230   -0.2535 C   0  0  0  0  0  0  0  0  0  0  0  0
  -12.3733    2.0620   -1.0436 F   0  0  0  0  0  0  0  0  0  0  0  0
  -10.5093    1.4344    0.2990 C   0  0  0  0  0  0  0  0  0  0  0  0
   -8.9252   -0.2649    2.4800 C   0  0  0  0  0  0  0  0  0  0  0  0
   -8.0653   -1.2530    2.9730 C   0  0  0  0  0  0  0  0  0  0  0  0
   -6.6974   -1.2544    2.6243 C   0  0  0  0  0  0  0  0  0  0  0  0
   -5.7762   -2.3410    3.0369 C   0  0  0  0  0  0  0  0  0  0  0  0
   -4.6023   -2.0476    3.7471 C   0  0  0  0  0  0  0  0  0  0  0  0
   -3.7017   -3.0668    4.0713 C   0  0  0  0  0  0  0  0  0  0  0  0
   -3.9600   -4.3875    3.6852 C   0  0  0  0  0  0  0  0  0  0  0  0
   -2.7753   -5.6797    4.0881 S   0  0  0  0  0  0  0  0  0  0  0  0
   -1.7524   -5.4455    2.5891 C   0  0  0  0  0  0  0  0  0  0  0  0
   -2.2133   -6.3644    1.4674 C   0  0  0  0  0  0  0  0  0  0  0  0
   -5.1462   -4.6917    3.0008 C   0  0  0  0  0  0  0  0  0  0  0  0
   -6.0438   -3.6717    2.6702 C   0  0  0  0  0  0  0  0  0  0  0  0
   -5.4284   -5.9707    2.6492 F   0  0  0  0  0  0  0  0  0  0  0  0
   -6.2613   -0.2156    1.7801 C   0  0  0  0  0  0  0  0  0  0  0  0
   -4.7277    0.0137    1.1184 S   0  0  0  0  0  0  0  0  0  0  0  0
   -8.7098   -2.1663    3.8255 C   0  0  0  0  0  0  0  0  0  0  0  0
  -10.0649   -1.8964    3.9935 C   0  0  0  0  0  0  0  0  0  0  0  0
  -10.4683   -0.5251    3.0977 S   0  0  0  0  0  0  0  0  0  0  0  0
   11.2606   -4.9863    3.0361 H   0  0  0  0  0  0  0  0  0  0  0  0
   11.8050   -3.1800    1.1591 H   0  0  0  0  0  0  0  0  0  0  0  0
   12.8486   -2.3750   -0.8948 H   0  0  0  0  0  0  0  0  0  0  0  0
   12.8926   -0.6410   -1.3902 H   0  0  0  0  0  0  0  0  0  0  0  0
   12.8463   -1.0592    0.3638 H   0  0  0  0  0  0  0  0  0  0  0  0
    6.4721   -0.3716   -0.3188 H   0  0  0  0  0  0  0  0  0  0  0  0
    6.9056    0.0145   -2.0230 H   0  0  0  0  0  0  0  0  0  0  0  0
    6.5022   -1.6857   -1.5749 H   0  0  0  0  0  0  0  0  0  0  0  0
    6.8855   -2.5079    0.7407 H   0  0  0  0  0  0  0  0  0  0  0  0
    5.6894   -3.6723    2.2103 H   0  0  0  0  0  0  0  0  0  0  0  0
    6.2352   -5.7083    4.4159 H   0  0  0  0  0  0  0  0  0  0  0  0
    4.9383   -6.8542    5.8631 H   0  0  0  0  0  0  0  0  0  0  0  0
    4.9940   -9.0866    6.8357 H   0  0  0  0  0  0  0  0  0  0  0  0
    5.5256   -7.8420    8.0552 H   0  0  0  0  0  0  0  0  0  0  0  0
    4.8073   -9.4045    8.6001 H   0  0  0  0  0  0  0  0  0  0  0  0
   -1.0562   -6.9519    7.2889 H   0  0  0  0  0  0  0  0  0  0  0  0
   -0.8740   -7.3923    9.0275 H   0  0  0  0  0  0  0  0  0  0  0  0
   -0.5246   -5.7016    8.5045 H   0  0  0  0  0  0  0  0  0  0  0  0
    0.2578   -5.1943    6.2180 H   0  0  0  0  0  0  0  0  0  0  0  0
   -0.3043   -3.6509    4.7346 H   0  0  0  0  0  0  0  0  0  0  0  0
   -0.7997   -1.9554    3.2317 H   0  0  0  0  0  0  0  0  0  0  0  0
    2.0923   -0.8089    4.7793 H   0  0  0  0  0  0  0  0  0  0  0  0
    4.1530    0.9378    7.3987 H   0  0  0  0  0  0  0  0  0  0  0  0
    3.5905   -0.6382    6.7270 H   0  0  0  0  0  0  0  0  0  0  0  0
    2.5553    0.8541    6.5659 H   0  0  0  0  0  0  0  0  0  0  0  0
    5.9582    2.6579    1.3765 H   0  0  0  0  0  0  0  0  0  0  0  0
    6.9716    1.1581    1.5925 H   0  0  0  0  0  0  0  0  0  0  0  0
    7.3244    2.6428    2.5499 H   0  0  0  0  0  0  0  0  0  0  0  0
    4.6239    0.7359    0.7767 H   0  0  0  0  0  0  0  0  0  0  0  0
    3.4174    0.4974   -1.1547 H   0  0  0  0  0  0  0  0  0  0  0  0
    1.6454   -1.8116   -2.0773 H   0  0  0  0  0  0  0  0  0  0  0  0
    1.4923   -2.8719   -4.0857 H   0  0  0  0  0  0  0  0  0  0  0  0
    0.2194   -5.8563   -5.9701 H   0  0  0  0  0  0  0  0  0  0  0  0
   -0.0819   -4.6525   -4.6624 H   0  0  0  0  0  0  0  0  0  0  0  0
    1.6209   -5.1407   -5.0878 H   0  0  0  0  0  0  0  0  0  0  0  0
    1.7811   -1.0044   -9.9699 H   0  0  0  0  0  0  0  0  0  0  0  0
    0.3467   -1.9203  -10.5650 H   0  0  0  0  0  0  0  0  0  0  0  0
    0.0954   -0.4338   -9.5758 H   0  0  0  0  0  0  0  0  0  0  0  0
    1.7449    0.3236   -7.8988 H   0  0  0  0  0  0  0  0  0  0  0  0
    3.4500    2.3795   -7.1661 H   0  0  0  0  0  0  0  0  0  0  0  0
    2.0143    4.2807   -7.0117 H   0  0  0  0  0  0  0  0  0  0  0  0
   -0.8235    2.8152   -6.5227 H   0  0  0  0  0  0  0  0  0  0  0  0
   -4.8732    3.7321   -5.1079 H   0  0  0  0  0  0  0  0  0  0  0  0
   -6.2207    3.1285   -7.0808 H   0  0  0  0  0  0  0  0  0  0  0  0
   -5.1225    1.8028  -11.3335 H   0  0  0  0  0  0  0  0  0  0  0  0
   -3.8849    2.1813  -10.0858 H   0  0  0  0  0  0  0  0  0  0  0  0
   -5.2868    4.0823   -9.2613 H   0  0  0  0  0  0  0  0  0  0  0  0
   -6.5990    3.6379  -10.4304 H   0  0  0  0  0  0  0  0  0  0  0  0
   -5.0049    4.2357  -11.0321 H   0  0  0  0  0  0  0  0  0  0  0  0
   -2.0857    0.5790   -6.0551 H   0  0  0  0  0  0  0  0  0  0  0  0
   -1.6439    5.2142   -0.0790 H   0  0  0  0  0  0  0  0  0  0  0  0
   -0.2468    5.9356    1.8180 H   0  0  0  0  0  0  0  0  0  0  0  0
    3.8016    5.5746    0.8659 H   0  0  0  0  0  0  0  0  0  0  0  0
    4.3664    6.3529    2.3808 H   0  0  0  0  0  0  0  0  0  0  0  0
    1.9553    7.2423    0.6799 H   0  0  0  0  0  0  0  0  0  0  0  0
    3.5338    8.0853    0.8684 H   0  0  0  0  0  0  0  0  0  0  0  0
    2.4162    7.9549    2.2804 H   0  0  0  0  0  0  0  0  0  0  0  0
    1.3181    2.2606   -1.1277 H   0  0  0  0  0  0  0  0  0  0  0  0
   -2.6097    2.5758    0.3646 H   0  0  0  0  0  0  0  0  0  0  0  0
   -7.0318    2.3753   -0.2262 H   0  0  0  0  0  0  0  0  0  0  0  0
   -8.3470    3.4393    2.0124 H   0  0  0  0  0  0  0  0  0  0  0  0
   -9.7896    5.1753    1.0327 H   0  0  0  0  0  0  0  0  0  0  0  0
  -11.1763    6.3855   -2.5534 H   0  0  0  0  0  0  0  0  0  0  0  0
   -9.8979    5.3465   -1.8374 H   0  0  0  0  0  0  0  0  0  0  0  0
  -10.8907    3.3397   -2.9423 H   0  0  0  0  0  0  0  0  0  0  0  0
  -10.5853    4.6326   -4.1604 H   0  0  0  0  0  0  0  0  0  0  0  0
  -12.2644    4.3465   -3.5653 H   0  0  0  0  0  0  0  0  0  0  0  0
  -10.7041    0.3919    0.0740 H   0  0  0  0  0  0  0  0  0  0  0  0
   -4.3822   -1.0302    4.0477 H   0  0  0  0  0  0  0  0  0  0  0  0
   -2.7952   -2.8256    4.6128 H   0  0  0  0  0  0  0  0  0  0  0  0
   -1.7730   -4.3880    2.2487 H   0  0  0  0  0  0  0  0  0  0  0  0
   -0.7019   -5.6987    2.8461 H   0  0  0  0  0  0  0  0  0  0  0  0
   -2.1149   -7.4228    1.7829 H   0  0  0  0  0  0  0  0  0  0  0  0
   -3.2668   -6.1545    1.1982 H   0  0  0  0  0  0  0  0  0  0  0  0
   -1.5811   -6.2010    0.5711 H   0  0  0  0  0  0  0  0  0  0  0  0
   -6.9413   -3.9147    2.1142 H   0  0  0  0  0  0  0  0  0  0  0  0
   -8.2138   -2.9932    4.3179 H   0  0  0  0  0  0  0  0  0  0  0  0
  -10.7460   -2.4701    4.6074 H   0  0  0  0  0  0  0  0  0  0  0  0
  1  2  1  0
  1  3  2  0
  3  4  1  0
  4  5  2  0
  5  6  1  0
  6  7  1  0
  5  8  1  0
  8  9  1  0
  9 10  1  0
  8 11  2  0
 11 12  1  0
 12 13  2  0
 13 14  1  0
 14 15  2  3
 15 16  1  0
 16 17  1  0
 16 18  2  0
 18 19  1  0
 19 20  2  0
 20 21  1  0
 21 22  1  0
 20 23  1  0
 23 24  1  0
 24 25  1  0
 23 26  2  0
 26 27  1  0
 27 28  2  0
 28 29  1  0
 29 30  2  3
 30 31  1  0
 31 32  1  0
 31 33  2  0
 33 34  1  0
 34 35  2  0
 35 36  1  0
 36 37  1  0
 35 38  1  0
 38 39  1  0
 39 40  1  0
 38 41  2  0
 41 42  1  0
 42 43  2  0
 43 44  1  0
 44 45  2  3
 45 46  1  0
 46 47  1  0
 46 48  2  0
 48 49  1  0
 49 50  2  0
 50 51  1  0
 51 52  1  0
 50 53  1  0
 53 54  1  0
 54 55  1  0
 53 56  2  0
 56 57  1  0
 57 58  2  0
 58 59  1  0
 59 60  2  3
 60 61  1  0
 61 62  2  0
 62 63  1  0
 63 64  2  0
 64 65  1  0
 65 66  2  0
 66 67  1  0
 67 68  2  0
 68 69  1  0
 69 70  1  0
 70 71  1  0
 68 72  1  0
 72 73  1  0
 72 74  2  0
 64 75  1  0
 75 76  2  0
 76 77  1  0
 77 78  1  0
 78 79  2  0
 79 80  1  0
 80 81  2  0
 81 82  1  0
 82 83  1  0
 83 84  1  0
 81 85  1  0
 85 86  2  0
 85 87  1  0
 77 88  2  0
 88 89  1  0
 76 90  1  0
 90 91  2  0
 91 92  1  0
 91 93  1  0
 93 94  2  0
 94 95  1  0
 95 96  2  0
 96 97  1  0
 97 98  2  0
 98 99  1  0
 99100  2  0
100101  1  0
101102  1  0
102103  1  0
100104  1  0
104105  1  0
104106  2  0
 96107  1  0
107108  2  0
108109  1  0
109110  1  0
110111  2  0
111112  1  0
112113  2  0
113114  1  0
114115  1  0
115116  1  0
113117  1  0
117118  2  0
117119  1  0
109120  2  0
120121  1  0
108122  1  0
122123  2  0
123124  1  0
 13  2  1  0
 28 17  1  0
 43 32  1  0
 58 47  1  0
 89 61  1  0
121 93  1  0
 12  3  1  0
 27 18  1  0
 42 33  1  0
 57 48  1  0
 88 63  1  0
120 95  1  0
 74 65  1  0
 92 75  1  0
106 97  1  0
124107  1  0
 86 78  1  0
118110  1  0
  1125  1  0
  4126  1  0
  7127  1  0
  7128  1  0
  7129  1  0
 10130  1  0
 10131  1  0
 10132  1  0
 11133  1  0
 14134  1  0
 15135  1  0
 19136  1  0
 22137  1  0
 22138  1  0
 22139  1  0
 25140  1  0
 25141  1  0
 25142  1  0
 26143  1  0
 29144  1  0
 30145  1  0
 34146  1  0
 37147  1  0
 37148  1  0
 37149  1  0
 40150  1  0
 40151  1  0
 40152  1  0
 41153  1  0
 44154  1  0
 45155  1  0
 49156  1  0
 52157  1  0
 52158  1  0
 52159  1  0
 55160  1  0
 55161  1  0
 55162  1  0
 56163  1  0
 59164  1  0
 60165  1  0
 62166  1  0
 66167  1  0
 67168  1  0
 70169  1  0
 70170  1  0
 71171  1  0
 71172  1  0
 71173  1  0
 74174  1  0
 79175  1  0
 80176  1  0
 83177  1  0
 83178  1  0
 84179  1  0
 84180  1  0
 84181  1  0
 86182  1  0
 90183  1  0
 94184  1  0
 98185  1  0
 99186  1  0
102187  1  0
102188  1  0
103189  1  0
103190  1  0
103191  1  0
106192  1  0
111193  1  0
112194  1  0
115195  1  0
115196  1  0
116197  1  0
116198  1  0
116199  1  0
118200  1  0
122201  1  0
123202  1  0
M  END

