
     RDKit          3D

144151  0  0  0  0  0  0  0  0999 V2000
    6.1377    0.6242    0.1274 C   0  0  0  0  0  0  0  0  0  0  0  0
    5.3342   -0.6376   -0.6448 S   0  0  0  0  0  0  0  0  0  0  0  0
    3.8045    0.0607   -0.6209 C   0  0  0  0  0  0  0  0  0  0  0  0
    2.5751   -0.5571   -1.2216 C   0  0  0  0  0  0  0  0  0  0  0  0
    2.3984   -0.1116   -2.6648 C   0  0  0  0  0  0  0  0  0  0  0  0
    3.9035    1.3136   -0.0140 C   0  0  0  0  0  0  0  0  0  0  0  0
    5.2121    1.6246    0.4150 C   0  0  0  0  0  0  0  0  0  0  0  0
    5.6070    2.9291    1.0532 C   0  0  0  0  0  0  0  0  0  0  0  0
    5.7970    4.0176   -0.0003 C   0  0  0  0  0  0  0  0  0  0  0  0
    2.7695    2.2382    0.0980 C   0  0  0  0  0  0  0  0  0  0  0  0
    2.1213    2.3925    1.2519 C   0  0  0  0  0  0  0  0  0  0  0  0
    1.0166    3.3533    1.4026 C   0  0  0  0  0  0  0  0  0  0  0  0
    0.9340    4.4542    2.6666 S   0  0  0  0  0  0  0  0  0  0  0  0
   -0.5037    5.1840    2.1985 C   0  0  0  0  0  0  0  0  0  0  0  0
   -1.0961    6.3883    2.8681 C   0  0  0  0  0  0  0  0  0  0  0  0
   -0.5095    7.6713    2.2921 C   0  0  0  0  0  0  0  0  0  0  0  0
   -0.9562    4.5610    1.0336 C   0  0  0  0  0  0  0  0  0  0  0  0
   -0.1039    3.5312    0.5766 C   0  0  0  0  0  0  0  0  0  0  0  0
   -0.4878    2.6068   -0.5558 C   0  0  0  0  0  0  0  0  0  0  0  0
   -1.4288    1.5160   -0.0620 C   0  0  0  0  0  0  0  0  0  0  0  0
   -2.1498    4.9936    0.2869 C   0  0  0  0  0  0  0  0  0  0  0  0
   -3.4150    4.8719    0.7117 C   0  0  0  0  0  0  0  0  0  0  0  0
   -3.8722    4.2010    1.9590 C   0  0  0  0  0  0  0  0  0  0  0  0
   -2.9952    3.1221    2.9247 S   0  0  0  0  0  0  0  0  0  0  0  0
   -5.1715    4.2523    2.4789 C   0  0  0  0  0  0  0  0  0  0  0  0
   -6.2144    5.0626    2.0103 C   0  0  0  0  0  0  0  0  0  0  0  0
   -7.4679    5.0329    2.6582 C   0  0  0  0  0  0  0  0  0  0  0  0
   -8.5373    5.8409    2.2405 O   0  0  0  0  0  0  0  0  0  0  0  0
   -8.4569    6.8095    1.2004 C   0  0  0  0  0  0  0  0  0  0  0  0
   -7.6723    4.1804    3.7617 C   0  0  0  0  0  0  0  0  0  0  0  0
   -8.9394    4.1722    4.3668 O   0  0  0  0  0  0  0  0  0  0  0  0
   -9.2990    3.3559    5.4773 C   0  0  0  0  0  0  0  0  0  0  0  0
   -6.6177    3.3707    4.2316 C   0  0  0  0  0  0  0  0  0  0  0  0
   -5.3737    3.4159    3.5914 C   0  0  0  0  0  0  0  0  0  0  0  0
   -4.2533    2.6702    3.9529 C   0  0  0  0  0  0  0  0  0  0  0  0
   -4.1322    1.8546    5.1749 C   0  0  0  0  0  0  0  0  0  0  0  0
   -3.5861    0.6328    5.2811 C   0  0  0  0  0  0  0  0  0  0  0  0
   -3.0723   -0.2295    4.1865 C   0  0  0  0  0  0  0  0  0  0  0  0
   -3.3985   -0.0868    2.5362 S   0  0  0  0  0  0  0  0  0  0  0  0
   -2.3236   -1.4046    4.3518 C   0  0  0  0  0  0  0  0  0  0  0  0
   -1.8749   -1.9301    5.5713 C   0  0  0  0  0  0  0  0  0  0  0  0
   -1.1896   -3.1634    5.5943 C   0  0  0  0  0  0  0  0  0  0  0  0
   -0.7273   -3.7319    6.7917 O   0  0  0  0  0  0  0  0  0  0  0  0
   -0.8463   -3.1251    8.0733 C   0  0  0  0  0  0  0  0  0  0  0  0
   -0.9597   -3.8632    4.3944 C   0  0  0  0  0  0  0  0  0  0  0  0
   -0.3068   -5.1051    4.4664 O   0  0  0  0  0  0  0  0  0  0  0  0
   -0.0108   -5.9256    3.3401 C   0  0  0  0  0  0  0  0  0  0  0  0
   -1.3913   -3.3188    3.1669 C   0  0  0  0  0  0  0  0  0  0  0  0
   -2.0411   -2.0791    3.1483 C   0  0  0  0  0  0  0  0  0  0  0  0
   -2.5384   -1.4325    2.0138 C   0  0  0  0  0  0  0  0  0  0  0  0
   -2.3007   -1.7391    0.5905 C   0  0  0  0  0  0  0  0  0  0  0  0
   -1.1163   -2.1735    0.1467 C   0  0  0  0  0  0  0  0  0  0  0  0
   -0.8411   -2.3986   -1.2863 C   0  0  0  0  0  0  0  0  0  0  0  0
   -1.6532   -1.6548   -2.5634 S   0  0  0  0  0  0  0  0  0  0  0  0
   -0.7853   -2.3911   -3.7954 C   0  0  0  0  0  0  0  0  0  0  0  0
   -1.0456   -2.1789   -5.2575 C   0  0  0  0  0  0  0  0  0  0  0  0
   -1.9595   -3.2662   -5.8105 C   0  0  0  0  0  0  0  0  0  0  0  0
    0.1446   -3.2637   -3.2284 C   0  0  0  0  0  0  0  0  0  0  0  0
    0.1379   -3.2496   -1.8178 C   0  0  0  0  0  0  0  0  0  0  0  0
    1.0244   -4.1396   -0.9805 C   0  0  0  0  0  0  0  0  0  0  0  0
    0.2989   -5.4259   -0.6007 C   0  0  0  0  0  0  0  0  0  0  0  0
    0.9515   -4.1928   -4.0276 C   0  0  0  0  0  0  0  0  0  0  0  0
    2.1072   -3.8143   -4.5749 C   0  0  0  0  0  0  0  0  0  0  0  0
    2.8550   -4.6961   -5.4884 C   0  0  0  0  0  0  0  0  0  0  0  0
    3.3809   -4.2008   -6.9995 S   0  0  0  0  0  0  0  0  0  0  0  0
    4.0886   -5.6553   -7.4545 C   0  0  0  0  0  0  0  0  0  0  0  0
    4.9013   -5.8105   -8.7126 C   0  0  0  0  0  0  0  0  0  0  0  0
    6.3935   -5.6998   -8.4170 C   0  0  0  0  0  0  0  0  0  0  0  0
    3.9584   -6.5638   -6.3921 C   0  0  0  0  0  0  0  0  0  0  0  0
    3.2698   -6.0216   -5.2775 C   0  0  0  0  0  0  0  0  0  0  0  0
    3.1453   -6.7439   -3.9538 C   0  0  0  0  0  0  0  0  0  0  0  0
    4.3571   -6.4727   -3.0711 C   0  0  0  0  0  0  0  0  0  0  0  0
    4.5627   -7.9123   -6.3794 C   0  0  0  0  0  0  0  0  0  0  0  0
    4.3539   -8.7974   -7.3489 C   0  0  0  0  0  0  0  0  0  0  0  0
    7.1980    0.6615    0.3465 H   0  0  0  0  0  0  0  0  0  0  0  0
    1.6809   -0.2670   -0.6298 H   0  0  0  0  0  0  0  0  0  0  0  0
    2.6655   -1.6609   -1.1879 H   0  0  0  0  0  0  0  0  0  0  0  0
    2.2306    0.9883   -2.7175 H   0  0  0  0  0  0  0  0  0  0  0  0
    1.5189   -0.6237   -3.1109 H   0  0  0  0  0  0  0  0  0  0  0  0
    3.3011   -0.3720   -3.2619 H   0  0  0  0  0  0  0  0  0  0  0  0
    4.8277    3.2486    1.7779 H   0  0  0  0  0  0  0  0  0  0  0  0
    6.5518    2.8009    1.6196 H   0  0  0  0  0  0  0  0  0  0  0  0
    4.8475    4.1906   -0.5526 H   0  0  0  0  0  0  0  0  0  0  0  0
    6.0988    4.9645    0.4922 H   0  0  0  0  0  0  0  0  0  0  0  0
    6.5891    3.7209   -0.7228 H   0  0  0  0  0  0  0  0  0  0  0  0
    2.4860    2.8064   -0.7809 H   0  0  0  0  0  0  0  0  0  0  0  0
    2.4855    1.8919    2.1411 H   0  0  0  0  0  0  0  0  0  0  0  0
   -2.1981    6.4007    2.7451 H   0  0  0  0  0  0  0  0  0  0  0  0
   -0.8813    6.3477    3.9587 H   0  0  0  0  0  0  0  0  0  0  0  0
   -0.7189    7.7427    1.2023 H   0  0  0  0  0  0  0  0  0  0  0  0
    0.5862    7.6966    2.4567 H   0  0  0  0  0  0  0  0  0  0  0  0
   -0.9666    8.5508    2.7994 H   0  0  0  0  0  0  0  0  0  0  0  0
   -0.9813    3.1802   -1.3695 H   0  0  0  0  0  0  0  0  0  0  0  0
    0.3927    2.1178   -1.0111 H   0  0  0  0  0  0  0  0  0  0  0  0
   -1.6301    0.8055   -0.8869 H   0  0  0  0  0  0  0  0  0  0  0  0
   -2.3968    1.9589    0.2541 H   0  0  0  0  0  0  0  0  0  0  0  0
   -0.9693    0.9675    0.7882 H   0  0  0  0  0  0  0  0  0  0  0  0
   -1.9844    5.4217   -0.6937 H   0  0  0  0  0  0  0  0  0  0  0  0
   -4.1785    5.2561    0.0483 H   0  0  0  0  0  0  0  0  0  0  0  0
   -6.0508    5.7246    1.1741 H   0  0  0  0  0  0  0  0  0  0  0  0
   -7.6999    7.5807    1.4535 H   0  0  0  0  0  0  0  0  0  0  0  0
   -8.1981    6.3234    0.2386 H   0  0  0  0  0  0  0  0  0  0  0  0
   -9.4434    7.3045    1.0881 H   0  0  0  0  0  0  0  0  0  0  0  0
  -10.3595    3.5455    5.7382 H   0  0  0  0  0  0  0  0  0  0  0  0
   -9.1834    2.2831    5.2180 H   0  0  0  0  0  0  0  0  0  0  0  0
   -8.6660    3.6063    6.3557 H   0  0  0  0  0  0  0  0  0  0  0  0
   -6.7606    2.7089    5.0745 H   0  0  0  0  0  0  0  0  0  0  0  0
   -4.5538    2.2855    6.0753 H   0  0  0  0  0  0  0  0  0  0  0  0
   -3.5726    0.2167    6.2778 H   0  0  0  0  0  0  0  0  0  0  0  0
   -2.0596   -1.3972    6.4899 H   0  0  0  0  0  0  0  0  0  0  0  0
   -1.9186   -2.9924    8.3347 H   0  0  0  0  0  0  0  0  0  0  0  0
   -0.3267   -2.1441    8.0814 H   0  0  0  0  0  0  0  0  0  0  0  0
   -0.3750   -3.7814    8.8313 H   0  0  0  0  0  0  0  0  0  0  0  0
    0.4980   -6.8483    3.6883 H   0  0  0  0  0  0  0  0  0  0  0  0
   -0.9486   -6.2137    2.8191 H   0  0  0  0  0  0  0  0  0  0  0  0
    0.6645   -5.3886    2.6416 H   0  0  0  0  0  0  0  0  0  0  0  0
   -1.2601   -3.8763    2.2539 H   0  0  0  0  0  0  0  0  0  0  0  0
   -3.0834   -1.4816   -0.1146 H   0  0  0  0  0  0  0  0  0  0  0  0
   -0.3085   -2.3407    0.8468 H   0  0  0  0  0  0  0  0  0  0  0  0
   -1.5254   -1.1891   -5.4129 H   0  0  0  0  0  0  0  0  0  0  0  0
   -0.0853   -2.1820   -5.8145 H   0  0  0  0  0  0  0  0  0  0  0  0
   -2.1426   -3.0835   -6.8901 H   0  0  0  0  0  0  0  0  0  0  0  0
   -2.9321   -3.2537   -5.2790 H   0  0  0  0  0  0  0  0  0  0  0  0
   -1.4905   -4.2674   -5.6970 H   0  0  0  0  0  0  0  0  0  0  0  0
    1.3460   -3.6106   -0.0603 H   0  0  0  0  0  0  0  0  0  0  0  0
    1.9522   -4.3931   -1.5361 H   0  0  0  0  0  0  0  0  0  0  0  0
    0.9782   -6.0733   -0.0059 H   0  0  0  0  0  0  0  0  0  0  0  0
   -0.6034   -5.1966    0.0079 H   0  0  0  0  0  0  0  0  0  0  0  0
   -0.0077   -5.9775   -1.5150 H   0  0  0  0  0  0  0  0  0  0  0  0
    0.5382   -5.1724   -4.2310 H   0  0  0  0  0  0  0  0  0  0  0  0
    2.4425   -2.7921   -4.4630 H   0  0  0  0  0  0  0  0  0  0  0  0
    4.6873   -6.7800   -9.2039 H   0  0  0  0  0  0  0  0  0  0  0  0
    4.6191   -5.0129   -9.4306 H   0  0  0  0  0  0  0  0  0  0  0  0
    6.7187   -6.5212   -7.7456 H   0  0  0  0  0  0  0  0  0  0  0  0
    6.6201   -4.7211   -7.9429 H   0  0  0  0  0  0  0  0  0  0  0  0
    6.9670   -5.7744   -9.3655 H   0  0  0  0  0  0  0  0  0  0  0  0
    3.0436   -7.8355   -4.1189 H   0  0  0  0  0  0  0  0  0  0  0  0
    2.2396   -6.4296   -3.4067 H   0  0  0  0  0  0  0  0  0  0  0  0
    5.2870   -6.8366   -3.5571 H   0  0  0  0  0  0  0  0  0  0  0  0
    4.4577   -5.3846   -2.8750 H   0  0  0  0  0  0  0  0  0  0  0  0
    4.2366   -6.9989   -2.1004 H   0  0  0  0  0  0  0  0  0  0  0  0
    5.1349   -8.2230   -5.5142 H   0  0  0  0  0  0  0  0  0  0  0  0
    4.7974   -9.7829   -7.2834 H   0  0  0  0  0  0  0  0  0  0  0  0
    3.7160   -8.5757   -8.1927 H   0  0  0  0  0  0  0  0  0  0  0  0
  1  2  1  0
  2  3  1  0
  3  4  1  0
  4  5  1  0
  3  6  2  0
  6  7  1  0
  7  8  1  0
  8  9  1  0
  6 10  1  0
 10 11  2  3
 11 12  1  0
 12 13  1  0
 13 14  1  0
 14 15  1  0
 15 16  1  0
 14 17  2  0
 17 18  1  0
 18 19  1  0
 19 20  1  0
 17 21  1  0
 21 22  2  3
 22 23  1  0
 23 24  1  0
 23 25  2  0
 25 26  1  0
 26 27  2  0
 27 28  1  0
 28 29  1  0
 27 30  1  0
 30 31  1  0
 31 32  1  0
 30 33  2  0
 33 34  1  0
 34 35  2  0
 35 36  1  0
 36 37  2  3
 37 38  1  0
 38 39  1  0
 38 40  2  0
 40 41  1  0
 41 42  2  0
 42 43  1  0
 43 44  1  0
 42 45  1  0
 45 46  1  0
 46 47  1  0
 45 48  2  0
 48 49  1  0
 49 50  2  0
 50 51  1  0
 51 52  2  3
 52 53  1  0
 53 54  1  0
 54 55  1  0
 55 56  1  0
 56 57  1  0
 55 58  2  0
 58 59  1  0
 59 60  1  0
 60 61  1  0
 58 62  1  0
 62 63  2  3
 63 64  1  0
 64 65  1  0
 65 66  1  0
 66 67  1  0
 67 68  1  0
 66 69  2  0
 69 70  1  0
 70 71  1  0
 71 72  1  0
 69 73  1  0
 73 74  2  3
  7  1  2  0
 18 12  2  0
 35 24  1  0
 50 39  1  0
 59 53  2  0
 70 64  2  0
 34 25  1  0
 49 40  1  0
  1 75  1  0
  4 76  1  0
  4 77  1  0
  5 78  1  0
  5 79  1  0
  5 80  1  0
  8 81  1  0
  8 82  1  0
  9 83  1  0
  9 84  1  0
  9 85  1  0
 10 86  1  0
 11 87  1  0
 15 88  1  0
 15 89  1  0
 16 90  1  0
 16 91  1  0
 16 92  1  0
 19 93  1  0
 19 94  1  0
 20 95  1  0
 20 96  1  0
 20 97  1  0
 21 98  1  0
 22 99  1  0
 26100  1  0
 29101  1  0
 29102  1  0
 29103  1  0
 32104  1  0
 32105  1  0
 32106  1  0
 33107  1  0
 36108  1  0
 37109  1  0
 41110  1  0
 44111  1  0
 44112  1  0
 44113  1  0
 47114  1  0
 47115  1  0
 47116  1  0
 48117  1  0
 51118  1  0
 52119  1  0
 56120  1  0
 56121  1  0
 57122  1  0
 57123  1  0
 57124  1  0
 60125  1  0
 60126  1  0
 61127  1  0
 61128  1  0
 61129  1  0
 62130  1  0
 63131  1  0
 67132  1  0
 67133  1  0
 68134  1  0
 68135  1  0
 68136  1  0
 71137  1  0
 71138  1  0
 72139  1  0
 72140  1  0
 72141  1  0
 73142  1  0
 74143  1  0
 74144  1  0
M  END

