
     RDKit          3D

252275  0  0  0  0  0  0  0  0999 V2000
   -3.1894    6.7687    7.5652 C   0  0  0  0  0  0  0  0  0  0  0  0
   -3.6330    6.9690    6.2626 C   0  0  0  0  0  0  0  0  0  0  0  0
   -4.5499    5.9959    5.8292 C   0  0  0  0  0  0  0  0  0  0  0  0
   -5.1552    5.9261    4.5604 C   0  0  0  0  0  0  0  0  0  0  0  0
   -4.7632    6.8250    3.4514 C   0  0  0  0  0  0  0  0  0  0  0  0
   -4.1315    6.2919    2.3149 C   0  0  0  0  0  0  0  0  0  0  0  0
   -3.7570    7.1224    1.2588 C   0  0  0  0  0  0  0  0  0  0  0  0
   -3.9946    8.4995    1.3286 C   0  0  0  0  0  0  0  0  0  0  0  0
   -3.5066    9.5571   -0.0375 S   0  0  0  0  0  0  0  0  0  0  0  0
   -1.7882    9.7365    0.5478 C   0  0  0  0  0  0  0  0  0  0  0  0
   -1.0027   10.6293   -0.4027 C   0  0  0  0  0  0  0  0  0  0  0  0
   -4.6234    9.0410    2.4601 C   0  0  0  0  0  0  0  0  0  0  0  0
   -4.8742   10.3732    2.5334 F   0  0  0  0  0  0  0  0  0  0  0  0
   -5.0095    8.2066    3.5176 C   0  0  0  0  0  0  0  0  0  0  0  0
   -6.0345    4.8520    4.3417 C   0  0  0  0  0  0  0  0  0  0  0  0
   -6.2555    3.8380    5.2806 C   0  0  0  0  0  0  0  0  0  0  0  0
   -5.6324    3.8955    6.5488 C   0  0  0  0  0  0  0  0  0  0  0  0
   -5.7957    2.8205    7.5589 C   0  0  0  0  0  0  0  0  0  0  0  0
   -7.0766    2.4235    7.9836 C   0  0  0  0  0  0  0  0  0  0  0  0
   -7.2214    1.4234    8.9513 C   0  0  0  0  0  0  0  0  0  0  0  0
   -6.0899    0.8313    9.5272 C   0  0  0  0  0  0  0  0  0  0  0  0
   -6.2862   -0.3760   10.8431 S   0  0  0  0  0  0  0  0  0  0  0  0
   -6.2930   -1.8424    9.7524 C   0  0  0  0  0  0  0  0  0  0  0  0
   -4.8790   -2.2098    9.3140 C   0  0  0  0  0  0  0  0  0  0  0  0
   -4.8112    1.2353    9.1206 C   0  0  0  0  0  0  0  0  0  0  0  0
   -4.6683    2.2060    8.1257 C   0  0  0  0  0  0  0  0  0  0  0  0
   -3.7040    0.7115    9.7036 F   0  0  0  0  0  0  0  0  0  0  0  0
   -4.8005    5.0098    6.7911 C   0  0  0  0  0  0  0  0  0  0  0  0
   -3.9163    5.3783    8.1781 S   0  0  0  0  0  0  0  0  0  0  0  0
   -7.0284    2.7763    4.7675 C   0  0  0  0  0  0  0  0  0  0  0  0
   -7.4473    2.9914    3.4520 C   0  0  0  0  0  0  0  0  0  0  0  0
   -6.8425    4.4731    2.9247 S   0  0  0  0  0  0  0  0  0  0  0  0
   -7.9482    1.9689    2.5192 C   0  0  0  0  0  0  0  0  0  0  0  0
   -7.6185    0.6160    2.6044 C   0  0  0  0  0  0  0  0  0  0  0  0
   -7.6165   -0.0307    1.3530 C   0  0  0  0  0  0  0  0  0  0  0  0
   -7.0531   -1.2966    1.0663 C   0  0  0  0  0  0  0  0  0  0  0  0
   -6.6058   -2.2216    2.1268 C   0  0  0  0  0  0  0  0  0  0  0  0
   -5.5999   -1.8567    3.0349 C   0  0  0  0  0  0  0  0  0  0  0  0
   -5.2625   -2.7125    4.0886 C   0  0  0  0  0  0  0  0  0  0  0  0
   -5.9168   -3.9436    4.2294 C   0  0  0  0  0  0  0  0  0  0  0  0
   -5.5322   -5.0149    5.6182 S   0  0  0  0  0  0  0  0  0  0  0  0
   -6.6878   -4.2051    6.7829 C   0  0  0  0  0  0  0  0  0  0  0  0
   -8.1441   -4.5188    6.4583 C   0  0  0  0  0  0  0  0  0  0  0  0
   -6.8660   -4.3424    3.2774 C   0  0  0  0  0  0  0  0  0  0  0  0
   -7.4741   -5.5525    3.3755 F   0  0  0  0  0  0  0  0  0  0  0  0
   -7.2121   -3.4811    2.2354 C   0  0  0  0  0  0  0  0  0  0  0  0
   -6.8527   -1.6095   -0.2907 C   0  0  0  0  0  0  0  0  0  0  0  0
   -7.2522   -0.7571   -1.3227 C   0  0  0  0  0  0  0  0  0  0  0  0
   -7.9081    0.4565   -1.0399 C   0  0  0  0  0  0  0  0  0  0  0  0
   -8.2194    1.4361   -2.0989 C   0  0  0  0  0  0  0  0  0  0  0  0
   -9.5496    1.6552   -2.4807 C   0  0  0  0  0  0  0  0  0  0  0  0
   -9.8449    2.5726   -3.4921 C   0  0  0  0  0  0  0  0  0  0  0  0
   -8.8157    3.2772   -4.1295 C   0  0  0  0  0  0  0  0  0  0  0  0
   -9.2077    4.4269   -5.4518 S   0  0  0  0  0  0  0  0  0  0  0  0
   -8.9136    3.2321   -6.8052 C   0  0  0  0  0  0  0  0  0  0  0  0
  -10.1166    2.3191   -7.0119 C   0  0  0  0  0  0  0  0  0  0  0  0
   -7.4863    3.0858   -3.7241 C   0  0  0  0  0  0  0  0  0  0  0  0
   -7.1905    2.1700   -2.7087 C   0  0  0  0  0  0  0  0  0  0  0  0
   -6.4800    3.7774   -4.3174 F   0  0  0  0  0  0  0  0  0  0  0  0
   -8.0465    0.7990    0.3110 C   0  0  0  0  0  0  0  0  0  0  0  0
   -8.3548    2.3284    0.9220 S   0  0  0  0  0  0  0  0  0  0  0  0
   -6.7220   -1.1106   -2.5671 C   0  0  0  0  0  0  0  0  0  0  0  0
   -5.8125   -2.1652   -2.5040 C   0  0  0  0  0  0  0  0  0  0  0  0
   -5.7809   -2.7467   -0.9194 S   0  0  0  0  0  0  0  0  0  0  0  0
   -4.6223   -2.1874   -3.3620 C   0  0  0  0  0  0  0  0  0  0  0  0
   -3.7348   -3.2513   -3.5447 C   0  0  0  0  0  0  0  0  0  0  0  0
   -2.5214   -2.8502   -4.1448 C   0  0  0  0  0  0  0  0  0  0  0  0
   -1.4234   -3.6710   -4.4865 C   0  0  0  0  0  0  0  0  0  0  0  0
   -1.4323   -5.1253   -4.2451 C   0  0  0  0  0  0  0  0  0  0  0  0
   -1.3659   -6.0177   -5.3252 C   0  0  0  0  0  0  0  0  0  0  0  0
   -1.3460   -7.3949   -5.0995 C   0  0  0  0  0  0  0  0  0  0  0  0
   -1.3743   -7.8923   -3.7906 C   0  0  0  0  0  0  0  0  0  0  0  0
   -1.3276   -9.6625   -3.5114 S   0  0  0  0  0  0  0  0  0  0  0  0
    0.4937   -9.7227   -3.4225 C   0  0  0  0  0  0  0  0  0  0  0  0
    0.9566  -11.1549   -3.2016 C   0  0  0  0  0  0  0  0  0  0  0  0
   -1.4478   -7.0061   -2.7074 C   0  0  0  0  0  0  0  0  0  0  0  0
   -1.4793   -7.4757   -1.4330 F   0  0  0  0  0  0  0  0  0  0  0  0
   -1.4768   -5.6271   -2.9345 C   0  0  0  0  0  0  0  0  0  0  0  0
   -0.3021   -3.0308   -5.0548 C   0  0  0  0  0  0  0  0  0  0  0  0
   -0.2345   -1.6448   -5.2254 C   0  0  0  0  0  0  0  0  0  0  0  0
   -1.3231   -0.8275   -4.8810 C   0  0  0  0  0  0  0  0  0  0  0  0
   -1.2763    0.6455   -4.9953 C   0  0  0  0  0  0  0  0  0  0  0  0
   -1.3899    1.4396   -3.8422 C   0  0  0  0  0  0  0  0  0  0  0  0
   -1.4338    2.8315   -3.9471 C   0  0  0  0  0  0  0  0  0  0  0  0
   -1.3555    3.4432   -5.2044 C   0  0  0  0  0  0  0  0  0  0  0  0
   -1.4576    5.2284   -5.3336 S   0  0  0  0  0  0  0  0  0  0  0  0
   -3.2750    5.2254   -5.4874 C   0  0  0  0  0  0  0  0  0  0  0  0
   -3.7768    6.6321   -5.7726 C   0  0  0  0  0  0  0  0  0  0  0  0
   -1.2085    2.6557   -6.3558 C   0  0  0  0  0  0  0  0  0  0  0  0
   -1.1760    1.2617   -6.2517 C   0  0  0  0  0  0  0  0  0  0  0  0
   -1.1419    3.2376   -7.5800 F   0  0  0  0  0  0  0  0  0  0  0  0
   -2.4608   -1.4721   -4.3796 C   0  0  0  0  0  0  0  0  0  0  0  0
   -3.9000   -0.7648   -3.9062 S   0  0  0  0  0  0  0  0  0  0  0  0
    1.0067   -1.2007   -5.6972 C   0  0  0  0  0  0  0  0  0  0  0  0
    1.8965   -2.2382   -5.9742 C   0  0  0  0  0  0  0  0  0  0  0  0
    1.1693   -3.7018   -5.5318 S   0  0  0  0  0  0  0  0  0  0  0  0
    3.2964   -2.0868   -6.4280 C   0  0  0  0  0  0  0  0  0  0  0  0
    4.5201   -3.1958   -6.0881 S   0  0  0  0  0  0  0  0  0  0  0  0
    3.8875   -1.0009   -7.0918 C   0  0  0  0  0  0  0  0  0  0  0  0
    3.2206    0.0680   -7.7043 C   0  0  0  0  0  0  0  0  0  0  0  0
    3.9610    1.0899   -8.3368 C   0  0  0  0  0  0  0  0  0  0  0  0
    3.3364    2.1935   -8.9392 O   0  0  0  0  0  0  0  0  0  0  0  0
    1.9304    2.4059   -8.9747 C   0  0  0  0  0  0  0  0  0  0  0  0
    5.3669    1.0189   -8.3782 C   0  0  0  0  0  0  0  0  0  0  0  0
    6.0679    2.0768   -8.9792 O   0  0  0  0  0  0  0  0  0  0  0  0
    7.4842    2.2069   -8.9728 C   0  0  0  0  0  0  0  0  0  0  0  0
    6.0306   -0.0975   -7.8285 C   0  0  0  0  0  0  0  0  0  0  0  0
    5.2870   -1.1011   -7.1952 C   0  0  0  0  0  0  0  0  0  0  0  0
    5.8115   -2.2681   -6.6469 C   0  0  0  0  0  0  0  0  0  0  0  0
    7.1967   -2.7315   -6.8178 C   0  0  0  0  0  0  0  0  0  0  0  0
    8.1152   -2.8256   -5.8465 C   0  0  0  0  0  0  0  0  0  0  0  0
    7.9017   -2.6237   -4.3958 C   0  0  0  0  0  0  0  0  0  0  0  0
    8.9414   -2.4423   -3.4821 C   0  0  0  0  0  0  0  0  0  0  0  0
    8.5123   -2.4607   -2.1437 C   0  0  0  0  0  0  0  0  0  0  0  0
    9.3266   -2.3352   -1.0032 C   0  0  0  0  0  0  0  0  0  0  0  0
   10.7726   -2.0674   -1.1011 C   0  0  0  0  0  0  0  0  0  0  0  0
   11.6971   -3.1037   -0.9114 C   0  0  0  0  0  0  0  0  0  0  0  0
   13.0672   -2.8378   -0.9752 C   0  0  0  0  0  0  0  0  0  0  0  0
   13.5229   -1.5346   -1.2165 C   0  0  0  0  0  0  0  0  0  0  0  0
   15.2831   -1.2083   -1.2968 S   0  0  0  0  0  0  0  0  0  0  0  0
   15.3624   -1.4307   -3.1042 C   0  0  0  0  0  0  0  0  0  0  0  0
   16.7924   -1.2518   -3.5912 C   0  0  0  0  0  0  0  0  0  0  0  0
   12.5960   -0.4956   -1.3957 C   0  0  0  0  0  0  0  0  0  0  0  0
   13.0231    0.7743   -1.6192 F   0  0  0  0  0  0  0  0  0  0  0  0
   11.2254   -0.7631   -1.3444 C   0  0  0  0  0  0  0  0  0  0  0  0
    8.7037   -2.4796    0.2455 C   0  0  0  0  0  0  0  0  0  0  0  0
    7.3339   -2.7189    0.3816 C   0  0  0  0  0  0  0  0  0  0  0  0
    6.5036   -2.7926   -0.7561 C   0  0  0  0  0  0  0  0  0  0  0  0
    5.0373   -2.9303   -0.6519 C   0  0  0  0  0  0  0  0  0  0  0  0
    4.3828   -4.0525   -1.1854 C   0  0  0  0  0  0  0  0  0  0  0  0
    2.9876   -4.1371   -1.1464 C   0  0  0  0  0  0  0  0  0  0  0  0
    2.2333   -3.1014   -0.5784 C   0  0  0  0  0  0  0  0  0  0  0  0
    0.4390   -3.1899   -0.5958 S   0  0  0  0  0  0  0  0  0  0  0  0
    0.2714   -3.7595    1.1342 C   0  0  0  0  0  0  0  0  0  0  0  0
    0.6635   -5.2241    1.2836 C   0  0  0  0  0  0  0  0  0  0  0  0
    2.8828   -1.9795   -0.0465 C   0  0  0  0  0  0  0  0  0  0  0  0
    4.2795   -1.8994   -0.0742 C   0  0  0  0  0  0  0  0  0  0  0  0
    2.1668   -0.9601    0.4901 F   0  0  0  0  0  0  0  0  0  0  0  0
    7.1383   -2.6734   -2.0059 C   0  0  0  0  0  0  0  0  0  0  0  0
    6.4612   -2.8058   -3.5333 S   0  0  0  0  0  0  0  0  0  0  0  0
    6.9405   -2.9261    1.7128 C   0  0  0  0  0  0  0  0  0  0  0  0
    7.9961   -2.8004    2.6212 C   0  0  0  0  0  0  0  0  0  0  0  0
    9.4182   -2.4805    1.7652 S   0  0  0  0  0  0  0  0  0  0  0  0
    7.9640   -3.0924    4.0694 C   0  0  0  0  0  0  0  0  0  0  0  0
    9.2819   -3.7167    4.9141 S   0  0  0  0  0  0  0  0  0  0  0  0
    6.8808   -3.0442    4.9578 C   0  0  0  0  0  0  0  0  0  0  0  0
    5.5991   -2.5554    4.6759 C   0  0  0  0  0  0  0  0  0  0  0  0
    4.5741   -2.6766    5.6364 C   0  0  0  0  0  0  0  0  0  0  0  0
    3.2591   -2.2661    5.3676 O   0  0  0  0  0  0  0  0  0  0  0  0
    2.8135   -1.7702    4.1084 C   0  0  0  0  0  0  0  0  0  0  0  0
    4.8578   -3.2379    6.8971 C   0  0  0  0  0  0  0  0  0  0  0  0
    3.8054   -3.3638    7.8171 O   0  0  0  0  0  0  0  0  0  0  0  0
    3.9350   -3.9340    9.1157 C   0  0  0  0  0  0  0  0  0  0  0  0
    6.1684   -3.6639    7.2007 C   0  0  0  0  0  0  0  0  0  0  0  0
    7.1797   -3.5413    6.2409 C   0  0  0  0  0  0  0  0  0  0  0  0
    8.5176   -3.9312    6.3935 C   0  0  0  0  0  0  0  0  0  0  0  0
    9.2049   -4.4732    7.5804 C   0  0  0  0  0  0  0  0  0  0  0  0
    8.9928   -4.0158    8.8110 C   0  0  0  0  0  0  0  0  0  0  0  0
   -2.4890    7.3994    8.0946 H   0  0  0  0  0  0  0  0  0  0  0  0
   -3.2947    7.7987    5.6563 H   0  0  0  0  0  0  0  0  0  0  0  0
   -3.9250    5.2296    2.2513 H   0  0  0  0  0  0  0  0  0  0  0  0
   -3.2773    6.6946    0.3874 H   0  0  0  0  0  0  0  0  0  0  0  0
   -1.3056    8.7359    0.5898 H   0  0  0  0  0  0  0  0  0  0  0  0
   -1.7818   10.1865    1.5643 H   0  0  0  0  0  0  0  0  0  0  0  0
   -1.4352   11.6519   -0.4074 H   0  0  0  0  0  0  0  0  0  0  0  0
    0.0552   10.6915   -0.0690 H   0  0  0  0  0  0  0  0  0  0  0  0
   -1.0276   10.2107   -1.4313 H   0  0  0  0  0  0  0  0  0  0  0  0
   -5.5023    8.6324    4.3830 H   0  0  0  0  0  0  0  0  0  0  0  0
   -7.9636    2.8931    7.5730 H   0  0  0  0  0  0  0  0  0  0  0  0
   -8.2134    1.1293    9.2729 H   0  0  0  0  0  0  0  0  0  0  0  0
   -6.7194   -2.6919   10.3266 H   0  0  0  0  0  0  0  0  0  0  0  0
   -6.9433   -1.6705    8.8675 H   0  0  0  0  0  0  0  0  0  0  0  0
   -4.5263   -1.5136    8.5257 H   0  0  0  0  0  0  0  0  0  0  0  0
   -4.8677   -3.2364    8.8965 H   0  0  0  0  0  0  0  0  0  0  0  0
   -4.1837   -2.1811   10.1788 H   0  0  0  0  0  0  0  0  0  0  0  0
   -3.6738    2.4870    7.8019 H   0  0  0  0  0  0  0  0  0  0  0  0
   -7.2191    1.8566    5.3015 H   0  0  0  0  0  0  0  0  0  0  0  0
   -7.2311    0.1722    3.5102 H   0  0  0  0  0  0  0  0  0  0  0  0
   -5.0960   -0.9025    2.9438 H   0  0  0  0  0  0  0  0  0  0  0  0
   -4.5099   -2.4081    4.8049 H   0  0  0  0  0  0  0  0  0  0  0  0
   -6.5262   -3.1041    6.7835 H   0  0  0  0  0  0  0  0  0  0  0  0
   -6.4708   -4.5917    7.8006 H   0  0  0  0  0  0  0  0  0  0  0  0
   -8.4508   -4.0133    5.5189 H   0  0  0  0  0  0  0  0  0  0  0  0
   -8.7940   -4.1446    7.2800 H   0  0  0  0  0  0  0  0  0  0  0  0
   -8.2844   -5.6160    6.3604 H   0  0  0  0  0  0  0  0  0  0  0  0
   -7.9752   -3.7821    1.5272 H   0  0  0  0  0  0  0  0  0  0  0  0
  -10.3533    1.1062   -2.0045 H   0  0  0  0  0  0  0  0  0  0  0  0
  -10.8764    2.7253   -3.7868 H   0  0  0  0  0  0  0  0  0  0  0  0
   -8.0031    2.6279   -6.6005 H   0  0  0  0  0  0  0  0  0  0  0  0
   -8.7359    3.8035   -7.7409 H   0  0  0  0  0  0  0  0  0  0  0  0
  -11.0211    2.9194   -7.2488 H   0  0  0  0  0  0  0  0  0  0  0  0
   -9.9112    1.6296   -7.8579 H   0  0  0  0  0  0  0  0  0  0  0  0
  -10.3057    1.7077   -6.1052 H   0  0  0  0  0  0  0  0  0  0  0  0
   -6.1606    2.0199   -2.4076 H   0  0  0  0  0  0  0  0  0  0  0  0
   -6.8308   -0.4968   -3.4517 H   0  0  0  0  0  0  0  0  0  0  0  0
   -3.9513   -4.2620   -3.2281 H   0  0  0  0  0  0  0  0  0  0  0  0
   -1.3366   -5.6443   -6.3416 H   0  0  0  0  0  0  0  0  0  0  0  0
   -1.2993   -8.0750   -5.9401 H   0  0  0  0  0  0  0  0  0  0  0  0
    0.8521   -9.0859   -2.5849 H   0  0  0  0  0  0  0  0  0  0  0  0
    0.9291   -9.3432   -4.3719 H   0  0  0  0  0  0  0  0  0  0  0  0
    0.5504  -11.5460   -2.2453 H   0  0  0  0  0  0  0  0  0  0  0  0
    2.0659  -11.1869   -3.1594 H   0  0  0  0  0  0  0  0  0  0  0  0
    0.6131  -11.8003   -4.0374 H   0  0  0  0  0  0  0  0  0  0  0  0
   -1.5282   -4.9465   -2.0943 H   0  0  0  0  0  0  0  0  0  0  0  0
   -1.4662    0.9769   -2.8642 H   0  0  0  0  0  0  0  0  0  0  0  0
   -1.5456    3.4309   -3.0525 H   0  0  0  0  0  0  0  0  0  0  0  0
   -3.7294    4.8525   -4.5438 H   0  0  0  0  0  0  0  0  0  0  0  0
   -3.5825    4.5591   -6.3226 H   0  0  0  0  0  0  0  0  0  0  0  0
   -3.3510    6.9967   -6.7315 H   0  0  0  0  0  0  0  0  0  0  0  0
   -4.8842    6.6245   -5.8583 H   0  0  0  0  0  0  0  0  0  0  0  0
   -3.4849    7.3225   -4.9530 H   0  0  0  0  0  0  0  0  0  0  0  0
   -1.0924    0.6578   -7.1479 H   0  0  0  0  0  0  0  0  0  0  0  0
    1.2616   -0.1543   -5.7642 H   0  0  0  0  0  0  0  0  0  0  0  0
    2.1424    0.0884   -7.7399 H   0  0  0  0  0  0  0  0  0  0  0  0
    1.4319    1.5785   -9.5255 H   0  0  0  0  0  0  0  0  0  0  0  0
    1.7214    3.3606   -9.5030 H   0  0  0  0  0  0  0  0  0  0  0  0
    1.5271    2.4755   -7.9405 H   0  0  0  0  0  0  0  0  0  0  0  0
    7.9479    1.3669   -9.5307 H   0  0  0  0  0  0  0  0  0  0  0  0
    7.8587    2.2299   -7.9286 H   0  0  0  0  0  0  0  0  0  0  0  0
    7.7627    3.1602   -9.4715 H   0  0  0  0  0  0  0  0  0  0  0  0
    7.1083   -0.1854   -7.8822 H   0  0  0  0  0  0  0  0  0  0  0  0
    7.5385   -2.8528   -7.8398 H   0  0  0  0  0  0  0  0  0  0  0  0
    9.1297   -3.0408   -6.1561 H   0  0  0  0  0  0  0  0  0  0  0  0
    9.9774   -2.3366   -3.7786 H   0  0  0  0  0  0  0  0  0  0  0  0
   11.3575   -4.1144   -0.7158 H   0  0  0  0  0  0  0  0  0  0  0  0
   13.7772   -3.6438   -0.8351 H   0  0  0  0  0  0  0  0  0  0  0  0
   14.7097   -0.6765   -3.5942 H   0  0  0  0  0  0  0  0  0  0  0  0
   15.0093   -2.4492   -3.3741 H   0  0  0  0  0  0  0  0  0  0  0  0
   17.4474   -2.0330   -3.1496 H   0  0  0  0  0  0  0  0  0  0  0  0
   16.8227   -1.3427   -4.6969 H   0  0  0  0  0  0  0  0  0  0  0  0
   17.1739   -0.2482   -3.3072 H   0  0  0  0  0  0  0  0  0  0  0  0
   10.5167    0.0445   -1.4827 H   0  0  0  0  0  0  0  0  0  0  0  0
    4.9547   -4.8541   -1.6383 H   0  0  0  0  0  0  0  0  0  0  0  0
    2.4936   -5.0034   -1.5678 H   0  0  0  0  0  0  0  0  0  0  0  0
    0.8856   -3.1279    1.8119 H   0  0  0  0  0  0  0  0  0  0  0  0
   -0.7922   -3.6460    1.4332 H   0  0  0  0  0  0  0  0  0  0  0  0
    0.4481   -5.5604    2.3204 H   0  0  0  0  0  0  0  0  0  0  0  0
    0.0829   -5.8518    0.5752 H   0  0  0  0  0  0  0  0  0  0  0  0
    1.7482   -5.3585    1.0942 H   0  0  0  0  0  0  0  0  0  0  0  0
    4.7714   -1.0233    0.3296 H   0  0  0  0  0  0  0  0  0  0  0  0
    5.9431   -3.2422    1.9806 H   0  0  0  0  0  0  0  0  0  0  0  0
    5.3983   -2.0700    3.7352 H   0  0  0  0  0  0  0  0  0  0  0  0
    3.3215   -0.8118    3.8747 H   0  0  0  0  0  0  0  0  0  0  0  0
    1.7218   -1.5896    4.1561 H   0  0  0  0  0  0  0  0  0  0  0  0
    3.0151   -2.5136    3.3071 H   0  0  0  0  0  0  0  0  0  0  0  0
    4.6544   -3.3427    9.7197 H   0  0  0  0  0  0  0  0  0  0  0  0
    2.9458   -3.9173    9.6179 H   0  0  0  0  0  0  0  0  0  0  0  0
    4.2738   -4.9889    9.0398 H   0  0  0  0  0  0  0  0  0  0  0  0
    6.3816   -4.1225    8.1555 H   0  0  0  0  0  0  0  0  0  0  0  0
    9.9931   -5.1997    7.4304 H   0  0  0  0  0  0  0  0  0  0  0  0
    9.5596   -4.4207    9.6379 H   0  0  0  0  0  0  0  0  0  0  0  0
    8.3018   -3.2071    9.0063 H   0  0  0  0  0  0  0  0  0  0  0  0
  1  2  2  0
  2  3  1  0
  3  4  2  0
  4  5  1  0
  5  6  2  0
  6  7  1  0
  7  8  2  0
  8  9  1  0
  9 10  1  0
 10 11  1  0
  8 12  1  0
 12 13  1  0
 12 14  2  0
  4 15  1  0
 15 16  2  0
 16 17  1  0
 17 18  1  0
 18 19  2  0
 19 20  1  0
 20 21  2  0
 21 22  1  0
 22 23  1  0
 23 24  1  0
 21 25  1  0
 25 26  2  0
 25 27  1  0
 17 28  2  0
 28 29  1  0
 16 30  1  0
 30 31  2  0
 31 32  1  0
 31 33  1  0
 33 34  2  0
 34 35  1  0
 35 36  2  0
 36 37  1  0
 37 38  2  0
 38 39  1  0
 39 40  2  0
 40 41  1  0
 41 42  1  0
 42 43  1  0
 40 44  1  0
 44 45  1  0
 44 46  2  0
 36 47  1  0
 47 48  2  0
 48 49  1  0
 49 50  1  0
 50 51  2  0
 51 52  1  0
 52 53  2  0
 53 54  1  0
 54 55  1  0
 55 56  1  0
 53 57  1  0
 57 58  2  0
 57 59  1  0
 49 60  2  0
 60 61  1  0
 48 62  1  0
 62 63  2  0
 63 64  1  0
 63 65  1  0
 65 66  2  0
 66 67  1  0
 67 68  2  0
 68 69  1  0
 69 70  2  0
 70 71  1  0
 71 72  2  0
 72 73  1  0
 73 74  1  0
 74 75  1  0
 72 76  1  0
 76 77  1  0
 76 78  2  0
 68 79  1  0
 79 80  2  0
 80 81  1  0
 81 82  1  0
 82 83  2  0
 83 84  1  0
 84 85  2  0
 85 86  1  0
 86 87  1  0
 87 88  1  0
 85 89  1  0
 89 90  2  0
 89 91  1  0
 81 92  2  0
 92 93  1  0
 80 94  1  0
 94 95  2  0
 95 96  1  0
 95 97  1  0
 97 98  1  0
 97 99  2  0
 99100  1  0
100101  2  0
101102  1  0
102103  1  0
101104  1  0
104105  1  0
105106  1  0
104107  2  0
107108  1  0
108109  2  0
109110  1  0
110111  2  3
111112  1  0
112113  2  0
113114  1  0
114115  2  0
115116  1  0
116117  2  0
117118  1  0
118119  2  0
119120  1  0
120121  1  0
121122  1  0
119123  1  0
123124  1  0
123125  2  0
115126  1  0
126127  2  0
127128  1  0
128129  1  0
129130  2  0
130131  1  0
131132  2  0
132133  1  0
133134  1  0
134135  1  0
132136  1  0
136137  2  0
136138  1  0
128139  2  0
139140  1  0
127141  1  0
141142  2  0
142143  1  0
142144  1  0
144145  1  0
144146  2  0
146147  1  0
147148  2  0
148149  1  0
149150  1  0
148151  1  0
151152  1  0
152153  1  0
151154  2  0
154155  1  0
155156  2  0
156157  1  0
157158  2  3
 29  1  1  0
 61 33  1  0
 93 65  1  0
109 98  1  0
140112  1  0
156145  1  0
 28  3  1  0
 60 35  1  0
 92 67  1  0
108 99  1  0
139114  1  0
155146  1  0
 14  5  1  0
 32 15  1  0
 46 37  1  0
 64 47  1  0
 78 69  1  0
 96 79  1  0
125116  1  0
143126  1  0
 26 18  1  0
 58 50  1  0
 90 82  1  0
137129  1  0
  1159  1  0
  2160  1  0
  6161  1  0
  7162  1  0
 10163  1  0
 10164  1  0
 11165  1  0
 11166  1  0
 11167  1  0
 14168  1  0
 19169  1  0
 20170  1  0
 23171  1  0
 23172  1  0
 24173  1  0
 24174  1  0
 24175  1  0
 26176  1  0
 30177  1  0
 34178  1  0
 38179  1  0
 39180  1  0
 42181  1  0
 42182  1  0
 43183  1  0
 43184  1  0
 43185  1  0
 46186  1  0
 51187  1  0
 52188  1  0
 55189  1  0
 55190  1  0
 56191  1  0
 56192  1  0
 56193  1  0
 58194  1  0
 62195  1  0
 66196  1  0
 70197  1  0
 71198  1  0
 74199  1  0
 74200  1  0
 75201  1  0
 75202  1  0
 75203  1  0
 78204  1  0
 83205  1  0
 84206  1  0
 87207  1  0
 87208  1  0
 88209  1  0
 88210  1  0
 88211  1  0
 90212  1  0
 94213  1  0
100214  1  0
103215  1  0
103216  1  0
103217  1  0
106218  1  0
106219  1  0
106220  1  0
107221  1  0
110222  1  0
111223  1  0
113224  1  0
117225  1  0
118226  1  0
121227  1  0
121228  1  0
122229  1  0
122230  1  0
122231  1  0
125232  1  0
130233  1  0
131234  1  0
134235  1  0
134236  1  0
135237  1  0
135238  1  0
135239  1  0
137240  1  0
141241  1  0
147242  1  0
150243  1  0
150244  1  0
150245  1  0
153246  1  0
153247  1  0
153248  1  0
154249  1  0
157250  1  0
158251  1  0
158252  1  0
M  END

