
     RDKit          3D

227247  0  0  0  0  0  0  0  0999 V2000
   -3.6675    4.1990   11.2460 C   0  0  0  0  0  0  0  0  0  0  0  0
   -4.1591    3.3365   10.2797 C   0  0  0  0  0  0  0  0  0  0  0  0
   -3.2271    2.3613    9.8881 C   0  0  0  0  0  0  0  0  0  0  0  0
   -3.4150    1.3531    8.8960 C   0  0  0  0  0  0  0  0  0  0  0  0
   -4.6320    1.3201    8.0832 C   0  0  0  0  0  0  0  0  0  0  0  0
   -4.9122    2.3667    7.1908 C   0  0  0  0  0  0  0  0  0  0  0  0
   -6.0874    2.3655    6.4477 C   0  0  0  0  0  0  0  0  0  0  0  0
   -7.0254    1.3350    6.6115 C   0  0  0  0  0  0  0  0  0  0  0  0
   -8.5879    1.4297    5.7567 S   0  0  0  0  0  0  0  0  0  0  0  0
   -8.1379    0.3913    4.3187 C   0  0  0  0  0  0  0  0  0  0  0  0
   -9.3108    0.3600    3.3487 C   0  0  0  0  0  0  0  0  0  0  0  0
   -6.7574    0.2879    7.5166 C   0  0  0  0  0  0  0  0  0  0  0  0
   -7.6611   -0.7122    7.6699 F   0  0  0  0  0  0  0  0  0  0  0  0
   -5.5599    0.2710    8.2410 C   0  0  0  0  0  0  0  0  0  0  0  0
   -2.3633    0.4438    8.7013 C   0  0  0  0  0  0  0  0  0  0  0  0
   -1.1834    0.4947    9.4441 C   0  0  0  0  0  0  0  0  0  0  0  0
   -0.9590    1.5598   10.3578 C   0  0  0  0  0  0  0  0  0  0  0  0
    0.4024    1.7232   10.9216 C   0  0  0  0  0  0  0  0  0  0  0  0
    0.6131    1.6408   12.3087 C   0  0  0  0  0  0  0  0  0  0  0  0
    1.8861    1.3528   12.8026 C   0  0  0  0  0  0  0  0  0  0  0  0
    2.9513    1.1170   11.9069 C   0  0  0  0  0  0  0  0  0  0  0  0
    4.5404    0.5341   12.5387 S   0  0  0  0  0  0  0  0  0  0  0  0
    5.5659    1.8421   11.7503 C   0  0  0  0  0  0  0  0  0  0  0  0
    6.8603    2.0254   12.5346 C   0  0  0  0  0  0  0  0  0  0  0  0
    2.7324    1.2284   10.5246 C   0  0  0  0  0  0  0  0  0  0  0  0
    1.5038    1.6543   10.0519 C   0  0  0  0  0  0  0  0  0  0  0  0
    3.6968    0.8720    9.6416 F   0  0  0  0  0  0  0  0  0  0  0  0
   -2.0032    2.4539   10.5762 C   0  0  0  0  0  0  0  0  0  0  0  0
   -2.0827    3.7657   11.6280 S   0  0  0  0  0  0  0  0  0  0  0  0
   -0.2970   -0.5266    9.1381 C   0  0  0  0  0  0  0  0  0  0  0  0
   -0.6458   -1.2985    8.0555 C   0  0  0  0  0  0  0  0  0  0  0  0
   -2.2027   -0.8029    7.5654 S   0  0  0  0  0  0  0  0  0  0  0  0
    0.3211   -2.1712    7.3665 C   0  0  0  0  0  0  0  0  0  0  0  0
    1.9956   -2.0000    7.5476 S   0  0  0  0  0  0  0  0  0  0  0  0
    0.1090   -3.2655    6.5256 C   0  0  0  0  0  0  0  0  0  0  0  0
   -1.1431   -3.7838    6.1648 C   0  0  0  0  0  0  0  0  0  0  0  0
   -1.1994   -4.9149    5.3210 C   0  0  0  0  0  0  0  0  0  0  0  0
   -2.4122   -5.4539    4.8892 O   0  0  0  0  0  0  0  0  0  0  0  0
   -3.6805   -4.8436    5.1628 C   0  0  0  0  0  0  0  0  0  0  0  0
   -0.0043   -5.5278    4.9007 C   0  0  0  0  0  0  0  0  0  0  0  0
   -0.1019   -6.6978    4.1288 O   0  0  0  0  0  0  0  0  0  0  0  0
    1.0328   -7.4399    3.6690 C   0  0  0  0  0  0  0  0  0  0  0  0
    1.2389   -4.9997    5.2592 C   0  0  0  0  0  0  0  0  0  0  0  0
    1.2917   -3.8780    6.0733 C   0  0  0  0  0  0  0  0  0  0  0  0
    2.4692   -3.2723    6.5364 C   0  0  0  0  0  0  0  0  0  0  0  0
    3.8631   -3.6826    6.3459 C   0  0  0  0  0  0  0  0  0  0  0  0
    4.5129   -3.7257    5.1598 C   0  0  0  0  0  0  0  0  0  0  0  0
    3.9548   -3.3363    3.8582 C   0  0  0  0  0  0  0  0  0  0  0  0
    4.5689   -3.5462    2.6220 C   0  0  0  0  0  0  0  0  0  0  0  0
    3.8261   -3.0481    1.5293 C   0  0  0  0  0  0  0  0  0  0  0  0
    4.1598   -3.0949    0.1489 C   0  0  0  0  0  0  0  0  0  0  0  0
    5.5029   -3.5312   -0.2994 C   0  0  0  0  0  0  0  0  0  0  0  0
    6.0551   -4.7608    0.0629 C   0  0  0  0  0  0  0  0  0  0  0  0
    7.3811   -5.0606   -0.2998 C   0  0  0  0  0  0  0  0  0  0  0  0
    8.1344   -4.1429   -1.0760 C   0  0  0  0  0  0  0  0  0  0  0  0
    9.7977   -4.5745   -1.5992 S   0  0  0  0  0  0  0  0  0  0  0  0
   10.6762   -3.5566   -0.3553 C   0  0  0  0  0  0  0  0  0  0  0  0
   12.1553   -3.4830   -0.7194 C   0  0  0  0  0  0  0  0  0  0  0  0
    7.5516   -2.9559   -1.4841 C   0  0  0  0  0  0  0  0  0  0  0  0
    8.2530   -2.0785   -2.2512 F   0  0  0  0  0  0  0  0  0  0  0  0
    6.2548   -2.6256   -1.0857 C   0  0  0  0  0  0  0  0  0  0  0  0
    3.2327   -2.5237   -0.7490 C   0  0  0  0  0  0  0  0  0  0  0  0
    2.0704   -1.8612   -0.3296 C   0  0  0  0  0  0  0  0  0  0  0  0
    1.7786   -1.7626    1.0485 C   0  0  0  0  0  0  0  0  0  0  0  0
    0.7076   -0.9256    1.5805 C   0  0  0  0  0  0  0  0  0  0  0  0
   -0.6376   -1.3124    1.5123 C   0  0  0  0  0  0  0  0  0  0  0  0
   -1.5825   -0.6515    2.3093 C   0  0  0  0  0  0  0  0  0  0  0  0
   -1.1906    0.3792    3.1928 C   0  0  0  0  0  0  0  0  0  0  0  0
   -2.4278    0.9486    4.4155 S   0  0  0  0  0  0  0  0  0  0  0  0
   -1.9115    2.6993    4.6674 C   0  0  0  0  0  0  0  0  0  0  0  0
   -1.1832    2.8443    6.0063 C   0  0  0  0  0  0  0  0  0  0  0  0
    0.1669    0.7701    3.2175 C   0  0  0  0  0  0  0  0  0  0  0  0
    1.0744    0.1709    2.3618 C   0  0  0  0  0  0  0  0  0  0  0  0
    0.6276    1.6944    4.0812 F   0  0  0  0  0  0  0  0  0  0  0  0
    2.6532   -2.3896    1.9215 C   0  0  0  0  0  0  0  0  0  0  0  0
    2.5454   -2.4641    3.5806 S   0  0  0  0  0  0  0  0  0  0  0  0
    1.2879   -1.3417   -1.3628 C   0  0  0  0  0  0  0  0  0  0  0  0
    1.8190   -1.6207   -2.6172 C   0  0  0  0  0  0  0  0  0  0  0  0
    3.2575   -2.4883   -2.4416 S   0  0  0  0  0  0  0  0  0  0  0  0
    1.0800   -1.3863   -3.8677 C   0  0  0  0  0  0  0  0  0  0  0  0
    0.7978    0.1439   -4.5346 S   0  0  0  0  0  0  0  0  0  0  0  0
    0.1147   -2.2453   -4.3926 C   0  0  0  0  0  0  0  0  0  0  0  0
   -0.0998   -3.5591   -3.9801 C   0  0  0  0  0  0  0  0  0  0  0  0
   -1.2087   -4.2651   -4.4724 C   0  0  0  0  0  0  0  0  0  0  0  0
   -1.5793   -5.5112   -3.9444 O   0  0  0  0  0  0  0  0  0  0  0  0
   -1.0271   -6.0433   -2.7436 C   0  0  0  0  0  0  0  0  0  0  0  0
   -2.0179   -3.6971   -5.4740 C   0  0  0  0  0  0  0  0  0  0  0  0
   -3.0173   -4.4942   -6.0385 O   0  0  0  0  0  0  0  0  0  0  0  0
   -3.8210   -4.0518   -7.1379 C   0  0  0  0  0  0  0  0  0  0  0  0
   -1.8146   -2.3570   -5.8685 C   0  0  0  0  0  0  0  0  0  0  0  0
   -0.7399   -1.6445   -5.3453 C   0  0  0  0  0  0  0  0  0  0  0  0
   -0.4517   -0.2915   -5.5516 C   0  0  0  0  0  0  0  0  0  0  0  0
   -1.2445    0.6731   -6.3282 C   0  0  0  0  0  0  0  0  0  0  0  0
   -1.4269    0.5696   -7.6435 C   0  0  0  0  0  0  0  0  0  0  0  0
   -1.8385    1.7136   -8.4353 C   0  0  0  0  0  0  0  0  0  0  0  0
   -1.6664    3.2880   -7.8990 S   0  0  0  0  0  0  0  0  0  0  0  0
   -1.6964    1.7643   -9.8077 C   0  0  0  0  0  0  0  0  0  0  0  0
   -2.1935    0.7875  -10.6656 C   0  0  0  0  0  0  0  0  0  0  0  0
   -2.5772    1.1728  -11.9667 C   0  0  0  0  0  0  0  0  0  0  0  0
   -3.5388    0.4242  -12.6756 O   0  0  0  0  0  0  0  0  0  0  0  0
   -4.6021   -0.2380  -11.9926 C   0  0  0  0  0  0  0  0  0  0  0  0
   -2.1918    2.4264  -12.4858 C   0  0  0  0  0  0  0  0  0  0  0  0
   -2.7124    2.8319  -13.7212 O   0  0  0  0  0  0  0  0  0  0  0  0
   -2.8988    4.2115  -14.0307 C   0  0  0  0  0  0  0  0  0  0  0  0
   -1.4402    3.3090  -11.6746 C   0  0  0  0  0  0  0  0  0  0  0  0
   -1.3114    3.0309  -10.3052 C   0  0  0  0  0  0  0  0  0  0  0  0
   -1.0957    3.9832   -9.3080 C   0  0  0  0  0  0  0  0  0  0  0  0
   -0.4719    5.3283   -9.4890 C   0  0  0  0  0  0  0  0  0  0  0  0
    0.2862    5.9565   -8.5703 C   0  0  0  0  0  0  0  0  0  0  0  0
    0.3923    5.5388   -7.1615 C   0  0  0  0  0  0  0  0  0  0  0  0
    1.5082    4.9155   -6.5594 C   0  0  0  0  0  0  0  0  0  0  0  0
    1.2716    4.6090   -5.2020 C   0  0  0  0  0  0  0  0  0  0  0  0
    2.1250    3.9245   -4.3084 C   0  0  0  0  0  0  0  0  0  0  0  0
    3.5110    3.5973   -4.6537 C   0  0  0  0  0  0  0  0  0  0  0  0
    3.8060    2.4012   -5.3198 C   0  0  0  0  0  0  0  0  0  0  0  0
    5.1316    2.0620   -5.6011 C   0  0  0  0  0  0  0  0  0  0  0  0
    6.1828    2.8954   -5.1816 C   0  0  0  0  0  0  0  0  0  0  0  0
    7.9168    2.5693   -5.5997 S   0  0  0  0  0  0  0  0  0  0  0  0
    7.9414    0.7346   -5.4499 C   0  0  0  0  0  0  0  0  0  0  0  0
    7.8217    0.1159   -6.8416 C   0  0  0  0  0  0  0  0  0  0  0  0
    5.8773    4.0900   -4.5005 C   0  0  0  0  0  0  0  0  0  0  0  0
    6.8671    4.9368   -4.1224 F   0  0  0  0  0  0  0  0  0  0  0  0
    4.5570    4.4485   -4.2557 C   0  0  0  0  0  0  0  0  0  0  0  0
    1.6119    3.5683   -3.0525 C   0  0  0  0  0  0  0  0  0  0  0  0
    0.2933    3.8554   -2.6783 C   0  0  0  0  0  0  0  0  0  0  0  0
   -0.5386    4.5863   -3.5484 C   0  0  0  0  0  0  0  0  0  0  0  0
   -1.9847    4.6782   -3.3535 C   0  0  0  0  0  0  0  0  0  0  0  0
   -2.5946    5.9295   -3.1881 C   0  0  0  0  0  0  0  0  0  0  0  0
   -3.9671    6.0520   -3.4034 C   0  0  0  0  0  0  0  0  0  0  0  0
   -4.7410    4.9374   -3.7450 C   0  0  0  0  0  0  0  0  0  0  0  0
   -6.4765    5.1382   -4.2013 S   0  0  0  0  0  0  0  0  0  0  0  0
   -7.1938    4.6872   -2.5685 C   0  0  0  0  0  0  0  0  0  0  0  0
   -7.3106    3.1776   -2.4201 C   0  0  0  0  0  0  0  0  0  0  0  0
   -4.1219    3.6818   -3.8895 C   0  0  0  0  0  0  0  0  0  0  0  0
   -2.7620    3.5462   -3.6474 C   0  0  0  0  0  0  0  0  0  0  0  0
   -4.8391    2.5953   -4.2551 F   0  0  0  0  0  0  0  0  0  0  0  0
   -0.0129    4.9733   -4.7775 C   0  0  0  0  0  0  0  0  0  0  0  0
   -0.8003    5.7664   -6.0209 S   0  0  0  0  0  0  0  0  0  0  0  0
   -0.0462    3.3361   -1.4154 C   0  0  0  0  0  0  0  0  0  0  0  0
    1.0034    2.6412   -0.7965 C   0  0  0  0  0  0  0  0  0  0  0  0
    2.3463    2.6552   -1.8469 S   0  0  0  0  0  0  0  0  0  0  0  0
   -4.2324    5.0218   11.6803 H   0  0  0  0  0  0  0  0  0  0  0  0
   -5.1546    3.4009    9.8822 H   0  0  0  0  0  0  0  0  0  0  0  0
   -4.2179    3.1719    7.0779 H   0  0  0  0  0  0  0  0  0  0  0  0
   -6.2961    3.1817    5.7590 H   0  0  0  0  0  0  0  0  0  0  0  0
   -7.9209   -0.6390    4.6580 H   0  0  0  0  0  0  0  0  0  0  0  0
   -7.2479    0.8040    3.8092 H   0  0  0  0  0  0  0  0  0  0  0  0
  -10.2654    0.2066    3.9117 H   0  0  0  0  0  0  0  0  0  0  0  0
   -9.3747    1.3271    2.7995 H   0  0  0  0  0  0  0  0  0  0  0  0
   -9.1960   -0.4739    2.6179 H   0  0  0  0  0  0  0  0  0  0  0  0
   -5.3659   -0.5356    8.9376 H   0  0  0  0  0  0  0  0  0  0  0  0
   -0.2308    1.6856   12.9951 H   0  0  0  0  0  0  0  0  0  0  0  0
    2.0445    1.2520   13.8616 H   0  0  0  0  0  0  0  0  0  0  0  0
    5.0164    2.8100   11.7333 H   0  0  0  0  0  0  0  0  0  0  0  0
    5.8215    1.5607   10.7066 H   0  0  0  0  0  0  0  0  0  0  0  0
    6.6099    2.4388   13.5304 H   0  0  0  0  0  0  0  0  0  0  0  0
    7.5242    2.7323   11.9991 H   0  0  0  0  0  0  0  0  0  0  0  0
    7.3783    1.0558   12.6662 H   0  0  0  0  0  0  0  0  0  0  0  0
    1.3514    1.6938    8.9930 H   0  0  0  0  0  0  0  0  0  0  0  0
    0.6446   -0.6805    9.6589 H   0  0  0  0  0  0  0  0  0  0  0  0
   -2.0318   -3.3581    6.5590 H   0  0  0  0  0  0  0  0  0  0  0  0
   -3.6566   -3.7745    4.8908 H   0  0  0  0  0  0  0  0  0  0  0  0
   -4.4530   -5.3423    4.5320 H   0  0  0  0  0  0  0  0  0  0  0  0
   -3.9412   -4.9699    6.2402 H   0  0  0  0  0  0  0  0  0  0  0  0
    1.6774   -7.7352    4.5335 H   0  0  0  0  0  0  0  0  0  0  0  0
    0.6919   -8.3614    3.1788 H   0  0  0  0  0  0  0  0  0  0  0  0
    1.6131   -6.8193    2.9536 H   0  0  0  0  0  0  0  0  0  0  0  0
    2.1463   -5.4366    4.9030 H   0  0  0  0  0  0  0  0  0  0  0  0
    4.4359   -3.8763    7.2310 H   0  0  0  0  0  0  0  0  0  0  0  0
    5.5498   -4.0513    5.1851 H   0  0  0  0  0  0  0  0  0  0  0  0
    5.5235   -4.0328    2.5507 H   0  0  0  0  0  0  0  0  0  0  0  0
    5.4904   -5.4654    0.6494 H   0  0  0  0  0  0  0  0  0  0  0  0
    7.8094   -6.0001   -0.0033 H   0  0  0  0  0  0  0  0  0  0  0  0
   10.2783   -2.5145   -0.3396 H   0  0  0  0  0  0  0  0  0  0  0  0
   10.5663   -4.0220    0.6562 H   0  0  0  0  0  0  0  0  0  0  0  0
   12.6722   -2.7389   -0.0807 H   0  0  0  0  0  0  0  0  0  0  0  0
   12.2684   -3.2124   -1.8036 H   0  0  0  0  0  0  0  0  0  0  0  0
   12.6469   -4.4725   -0.5733 H   0  0  0  0  0  0  0  0  0  0  0  0
    5.8440   -1.6751   -1.3730 H   0  0  0  0  0  0  0  0  0  0  0  0
   -0.9384   -2.1561    0.9109 H   0  0  0  0  0  0  0  0  0  0  0  0
   -2.6109   -0.9938    2.3021 H   0  0  0  0  0  0  0  0  0  0  0  0
   -2.8369    3.3038    4.6867 H   0  0  0  0  0  0  0  0  0  0  0  0
   -1.3042    3.0576    3.8319 H   0  0  0  0  0  0  0  0  0  0  0  0
   -1.8988    2.8199    6.8384 H   0  0  0  0  0  0  0  0  0  0  0  0
   -0.6253    3.8098    6.0132 H   0  0  0  0  0  0  0  0  0  0  0  0
   -0.4502    2.0255    6.1617 H   0  0  0  0  0  0  0  0  0  0  0  0
    2.1122    0.4808    2.4051 H   0  0  0  0  0  0  0  0  0  0  0  0
    0.3471   -0.8386   -1.2037 H   0  0  0  0  0  0  0  0  0  0  0  0
    0.5619   -4.0133   -3.2598 H   0  0  0  0  0  0  0  0  0  0  0  0
   -0.9600   -5.2444   -1.9817 H   0  0  0  0  0  0  0  0  0  0  0  0
   -0.0230   -6.4542   -2.9550 H   0  0  0  0  0  0  0  0  0  0  0  0
   -1.6893   -6.8408   -2.3529 H   0  0  0  0  0  0  0  0  0  0  0  0
   -4.2460   -4.9441   -7.6579 H   0  0  0  0  0  0  0  0  0  0  0  0
   -3.1971   -3.5143   -7.8930 H   0  0  0  0  0  0  0  0  0  0  0  0
   -4.6712   -3.4341   -6.7521 H   0  0  0  0  0  0  0  0  0  0  0  0
   -2.5348   -1.8688   -6.4594 H   0  0  0  0  0  0  0  0  0  0  0  0
   -1.8424    1.3709   -5.7782 H   0  0  0  0  0  0  0  0  0  0  0  0
   -1.2656   -0.3919   -8.1387 H   0  0  0  0  0  0  0  0  0  0  0  0
   -2.5063   -0.1585  -10.2763 H   0  0  0  0  0  0  0  0  0  0  0  0
   -5.0820    0.4661  -11.2730 H   0  0  0  0  0  0  0  0  0  0  0  0
   -4.2191   -1.1052  -11.4309 H   0  0  0  0  0  0  0  0  0  0  0  0
   -5.3411   -0.5845  -12.7217 H   0  0  0  0  0  0  0  0  0  0  0  0
   -1.9248    4.6660  -14.3193 H   0  0  0  0  0  0  0  0  0  0  0  0
   -3.6474    4.3042  -14.8143 H   0  0  0  0  0  0  0  0  0  0  0  0
   -3.2953    4.7270  -13.1516 H   0  0  0  0  0  0  0  0  0  0  0  0
   -1.1860    4.2768  -12.0612 H   0  0  0  0  0  0  0  0  0  0  0  0
   -0.5019    5.7804  -10.4895 H   0  0  0  0  0  0  0  0  0  0  0  0
    0.7939    6.8629   -8.8544 H   0  0  0  0  0  0  0  0  0  0  0  0
    2.4155    4.6819   -7.0841 H   0  0  0  0  0  0  0  0  0  0  0  0
    3.0179    1.7327   -5.6152 H   0  0  0  0  0  0  0  0  0  0  0  0
    5.3350    1.1493   -6.1258 H   0  0  0  0  0  0  0  0  0  0  0  0
    8.9161    0.4425   -5.0128 H   0  0  0  0  0  0  0  0  0  0  0  0
    7.1373    0.3779   -4.7892 H   0  0  0  0  0  0  0  0  0  0  0  0
    8.8060    0.1299   -7.3553 H   0  0  0  0  0  0  0  0  0  0  0  0
    7.1004    0.6766   -7.4765 H   0  0  0  0  0  0  0  0  0  0  0  0
    7.4571   -0.9345   -6.7543 H   0  0  0  0  0  0  0  0  0  0  0  0
    4.3212    5.3903   -3.7571 H   0  0  0  0  0  0  0  0  0  0  0  0
   -2.0018    6.8102   -2.9972 H   0  0  0  0  0  0  0  0  0  0  0  0
   -4.4409    7.0200   -3.3226 H   0  0  0  0  0  0  0  0  0  0  0  0
   -6.5870    5.1123   -1.7466 H   0  0  0  0  0  0  0  0  0  0  0  0
   -8.2140    5.1409   -2.5189 H   0  0  0  0  0  0  0  0  0  0  0  0
   -6.3223    2.7405   -2.1928 H   0  0  0  0  0  0  0  0  0  0  0  0
   -7.9912    2.9479   -1.5789 H   0  0  0  0  0  0  0  0  0  0  0  0
   -7.7181    2.7138   -3.3447 H   0  0  0  0  0  0  0  0  0  0  0  0
   -2.2745    2.5911   -3.7842 H   0  0  0  0  0  0  0  0  0  0  0  0
   -1.0247    3.4568   -0.9678 H   0  0  0  0  0  0  0  0  0  0  0  0
    0.9238    2.1556    0.1671 H   0  0  0  0  0  0  0  0  0  0  0  0
  1  2  2  0
  2  3  1  0
  3  4  2  0
  4  5  1  0
  5  6  2  0
  6  7  1  0
  7  8  2  0
  8  9  1  0
  9 10  1  0
 10 11  1  0
  8 12  1  0
 12 13  1  0
 12 14  2  0
  4 15  1  0
 15 16  2  0
 16 17  1  0
 17 18  1  0
 18 19  2  0
 19 20  1  0
 20 21  2  0
 21 22  1  0
 22 23  1  0
 23 24  1  0
 21 25  1  0
 25 26  2  0
 25 27  1  0
 17 28  2  0
 28 29  1  0
 16 30  1  0
 30 31  2  0
 31 32  1  0
 31 33  1  0
 33 34  1  0
 33 35  2  0
 35 36  1  0
 36 37  2  0
 37 38  1  0
 38 39  1  0
 37 40  1  0
 40 41  1  0
 41 42  1  0
 40 43  2  0
 43 44  1  0
 44 45  2  0
 45 46  1  0
 46 47  2  3
 47 48  1  0
 48 49  2  0
 49 50  1  0
 50 51  2  0
 51 52  1  0
 52 53  2  0
 53 54  1  0
 54 55  2  0
 55 56  1  0
 56 57  1  0
 57 58  1  0
 55 59  1  0
 59 60  1  0
 59 61  2  0
 51 62  1  0
 62 63  2  0
 63 64  1  0
 64 65  1  0
 65 66  2  0
 66 67  1  0
 67 68  2  0
 68 69  1  0
 69 70  1  0
 70 71  1  0
 68 72  1  0
 72 73  2  0
 72 74  1  0
 64 75  2  0
 75 76  1  0
 63 77  1  0
 77 78  2  0
 78 79  1  0
 78 80  1  0
 80 81  1  0
 80 82  2  0
 82 83  1  0
 83 84  2  0
 84 85  1  0
 85 86  1  0
 84 87  1  0
 87 88  1  0
 88 89  1  0
 87 90  2  0
 90 91  1  0
 91 92  2  0
 92 93  1  0
 93 94  2  3
 94 95  1  0
 95 96  1  0
 95 97  2  0
 97 98  1  0
 98 99  2  0
 99100  1  0
100101  1  0
 99102  1  0
102103  1  0
103104  1  0
102105  2  0
105106  1  0
106107  2  0
107108  1  0
108109  2  3
109110  1  0
110111  2  0
111112  1  0
112113  2  0
113114  1  0
114115  2  0
115116  1  0
116117  2  0
117118  1  0
118119  1  0
119120  1  0
117121  1  0
121122  1  0
121123  2  0
113124  1  0
124125  2  0
125126  1  0
126127  1  0
127128  2  0
128129  1  0
129130  2  0
130131  1  0
131132  1  0
132133  1  0
130134  1  0
134135  2  0
134136  1  0
126137  2  0
137138  1  0
125139  1  0
139140  2  0
140141  1  0
 29  1  1  0
 45 34  1  0
 76 48  1  0
 92 81  1  0
107 96  1  0
138110  1  0
 28  3  1  0
 44 35  1  0
 75 50  1  0
 91 82  1  0
106 97  1  0
137112  1  0
 14  5  1  0
 32 15  1  0
 61 52  1  0
 79 62  1  0
123114  1  0
141124  1  0
 26 18  1  0
 73 65  1  0
135127  1  0
  1142  1  0
  2143  1  0
  6144  1  0
  7145  1  0
 10146  1  0
 10147  1  0
 11148  1  0
 11149  1  0
 11150  1  0
 14151  1  0
 19152  1  0
 20153  1  0
 23154  1  0
 23155  1  0
 24156  1  0
 24157  1  0
 24158  1  0
 26159  1  0
 30160  1  0
 36161  1  0
 39162  1  0
 39163  1  0
 39164  1  0
 42165  1  0
 42166  1  0
 42167  1  0
 43168  1  0
 46169  1  0
 47170  1  0
 49171  1  0
 53172  1  0
 54173  1  0
 57174  1  0
 57175  1  0
 58176  1  0
 58177  1  0
 58178  1  0
 61179  1  0
 66180  1  0
 67181  1  0
 70182  1  0
 70183  1  0
 71184  1  0
 71185  1  0
 71186  1  0
 73187  1  0
 77188  1  0
 83189  1  0
 86190  1  0
 86191  1  0
 86192  1  0
 89193  1  0
 89194  1  0
 89195  1  0
 90196  1  0
 93197  1  0
 94198  1  0
 98199  1  0
101200  1  0
101201  1  0
101202  1  0
104203  1  0
104204  1  0
104205  1  0
105206  1  0
108207  1  0
109208  1  0
111209  1  0
115210  1  0
116211  1  0
119212  1  0
119213  1  0
120214  1  0
120215  1  0
120216  1  0
123217  1  0
128218  1  0
129219  1  0
132220  1  0
132221  1  0
133222  1  0
133223  1  0
133224  1  0
135225  1  0
139226  1  0
140227  1  0
M  END

