
     RDKit          3D

252275  0  0  0  0  0  0  0  0999 V2000
    3.2508   -1.3127    9.4523 C   0  0  0  0  0  0  0  0  0  0  0  0
    3.2757   -0.3380    8.4630 C   0  0  0  0  0  0  0  0  0  0  0  0
    2.1659   -0.3934    7.6016 C   0  0  0  0  0  0  0  0  0  0  0  0
    1.9142    0.4479    6.5001 C   0  0  0  0  0  0  0  0  0  0  0  0
    2.8766    1.4819    6.0801 C   0  0  0  0  0  0  0  0  0  0  0  0
    4.1510    1.1034    5.6339 C   0  0  0  0  0  0  0  0  0  0  0  0
    5.0882    2.0749    5.2841 C   0  0  0  0  0  0  0  0  0  0  0  0
    4.7625    3.4320    5.3634 C   0  0  0  0  0  0  0  0  0  0  0  0
    6.0109    4.6601    4.9622 S   0  0  0  0  0  0  0  0  0  0  0  0
    5.6412    4.6854    3.1750 C   0  0  0  0  0  0  0  0  0  0  0  0
    6.9184    4.9639    2.3977 C   0  0  0  0  0  0  0  0  0  0  0  0
    3.4825    3.8173    5.7887 C   0  0  0  0  0  0  0  0  0  0  0  0
    3.1601    5.1317    5.8815 F   0  0  0  0  0  0  0  0  0  0  0  0
    2.5364    2.8446    6.1335 C   0  0  0  0  0  0  0  0  0  0  0  0
    0.7353    0.2075    5.7752 C   0  0  0  0  0  0  0  0  0  0  0  0
   -0.1407   -0.8364    6.0823 C   0  0  0  0  0  0  0  0  0  0  0  0
    0.1180   -1.6860    7.1750 C   0  0  0  0  0  0  0  0  0  0  0  0
   -0.7190   -2.8611    7.4808 C   0  0  0  0  0  0  0  0  0  0  0  0
   -1.4366   -2.9183    8.6841 C   0  0  0  0  0  0  0  0  0  0  0  0
   -2.1186   -4.0842    9.0381 C   0  0  0  0  0  0  0  0  0  0  0  0
   -2.0911   -5.2034    8.1944 C   0  0  0  0  0  0  0  0  0  0  0  0
   -2.9004   -6.7212    8.7067 S   0  0  0  0  0  0  0  0  0  0  0  0
   -1.4958   -7.3098    9.7196 C   0  0  0  0  0  0  0  0  0  0  0  0
   -0.4917   -8.0783    8.8707 C   0  0  0  0  0  0  0  0  0  0  0  0
   -1.4082   -5.1339    6.9700 C   0  0  0  0  0  0  0  0  0  0  0  0
   -0.7270   -3.9641    6.6143 C   0  0  0  0  0  0  0  0  0  0  0  0
   -1.3814   -6.2046    6.1364 F   0  0  0  0  0  0  0  0  0  0  0  0
    1.2723   -1.4146    7.9274 C   0  0  0  0  0  0  0  0  0  0  0  0
    1.8581   -2.2404    9.2642 S   0  0  0  0  0  0  0  0  0  0  0  0
   -1.2362   -0.9138    5.2141 C   0  0  0  0  0  0  0  0  0  0  0  0
   -1.2184    0.0591    4.2151 C   0  0  0  0  0  0  0  0  0  0  0  0
    0.1554    1.0241    4.4318 S   0  0  0  0  0  0  0  0  0  0  0  0
   -2.2365    0.1801    3.1451 C   0  0  0  0  0  0  0  0  0  0  0  0
   -3.7596   -0.5577    3.2230 S   0  0  0  0  0  0  0  0  0  0  0  0
   -2.1451    0.8237    1.8997 C   0  0  0  0  0  0  0  0  0  0  0  0
   -1.0920    1.6265    1.4302 C   0  0  0  0  0  0  0  0  0  0  0  0
   -1.1747    2.2297    0.1603 C   0  0  0  0  0  0  0  0  0  0  0  0
   -0.1898    3.1101   -0.3067 O   0  0  0  0  0  0  0  0  0  0  0  0
    0.7619    3.7598    0.5366 C   0  0  0  0  0  0  0  0  0  0  0  0
   -2.2709    1.9505   -0.6816 C   0  0  0  0  0  0  0  0  0  0  0  0
   -2.2652    2.4567   -1.9871 O   0  0  0  0  0  0  0  0  0  0  0  0
   -3.2324    2.1168   -2.9751 C   0  0  0  0  0  0  0  0  0  0  0  0
   -3.3402    1.1733   -0.1962 C   0  0  0  0  0  0  0  0  0  0  0  0
   -3.2818    0.6289    1.0935 C   0  0  0  0  0  0  0  0  0  0  0  0
   -4.2915   -0.1230    1.6942 C   0  0  0  0  0  0  0  0  0  0  0  0
   -5.6617   -0.2783    1.1782 C   0  0  0  0  0  0  0  0  0  0  0  0
   -5.8634   -0.9682    0.0491 C   0  0  0  0  0  0  0  0  0  0  0  0
   -6.6835   -0.4328   -1.0577 C   0  0  0  0  0  0  0  0  0  0  0  0
   -7.1151    0.8965   -1.1484 C   0  0  0  0  0  0  0  0  0  0  0  0
   -7.1071    1.3976   -2.4638 C   0  0  0  0  0  0  0  0  0  0  0  0
   -7.1469    2.7619   -2.8301 C   0  0  0  0  0  0  0  0  0  0  0  0
   -7.4773    3.8404   -1.8722 C   0  0  0  0  0  0  0  0  0  0  0  0
   -8.5953    4.6531   -2.1182 C   0  0  0  0  0  0  0  0  0  0  0  0
   -8.9419    5.6647   -1.2183 C   0  0  0  0  0  0  0  0  0  0  0  0
   -8.1827    5.8674   -0.0597 C   0  0  0  0  0  0  0  0  0  0  0  0
   -8.6681    7.1444    1.1060 S   0  0  0  0  0  0  0  0  0  0  0  0
   -9.9678    6.1486    1.9245 C   0  0  0  0  0  0  0  0  0  0  0  0
   -9.3615    5.1434    2.8943 C   0  0  0  0  0  0  0  0  0  0  0  0
   -7.0396    5.0847    0.1686 C   0  0  0  0  0  0  0  0  0  0  0  0
   -6.2716    5.2913    1.2665 F   0  0  0  0  0  0  0  0  0  0  0  0
   -6.6840    4.0812   -0.7408 C   0  0  0  0  0  0  0  0  0  0  0  0
   -6.6962    3.0815   -4.1269 C   0  0  0  0  0  0  0  0  0  0  0  0
   -6.3199    2.1053   -5.0505 C   0  0  0  0  0  0  0  0  0  0  0  0
   -6.4606    0.7392   -4.7387 C   0  0  0  0  0  0  0  0  0  0  0  0
   -6.1208   -0.3193   -5.7074 C   0  0  0  0  0  0  0  0  0  0  0  0
   -7.1125   -0.7885   -6.5786 C   0  0  0  0  0  0  0  0  0  0  0  0
   -6.8275   -1.8262   -7.4704 C   0  0  0  0  0  0  0  0  0  0  0  0
   -5.5482   -2.3916   -7.5107 C   0  0  0  0  0  0  0  0  0  0  0  0
   -5.2016   -3.7362   -8.6461 S   0  0  0  0  0  0  0  0  0  0  0  0
   -4.6745   -2.6568  -10.0231 C   0  0  0  0  0  0  0  0  0  0  0  0
   -5.8532   -2.3047  -10.9193 C   0  0  0  0  0  0  0  0  0  0  0  0
   -4.5550   -1.9246   -6.6328 C   0  0  0  0  0  0  0  0  0  0  0  0
   -4.8409   -0.8871   -5.7375 C   0  0  0  0  0  0  0  0  0  0  0  0
   -3.3195   -2.4842   -6.6397 F   0  0  0  0  0  0  0  0  0  0  0  0
   -6.7919    0.4242   -3.4158 C   0  0  0  0  0  0  0  0  0  0  0  0
   -6.4669   -1.0187   -2.6233 S   0  0  0  0  0  0  0  0  0  0  0  0
   -5.5286    2.6038   -6.1005 C   0  0  0  0  0  0  0  0  0  0  0  0
   -5.1431    3.9436   -5.9306 C   0  0  0  0  0  0  0  0  0  0  0  0
   -5.9975    4.5361   -4.5913 S   0  0  0  0  0  0  0  0  0  0  0  0
   -3.7516    4.3921   -6.2043 C   0  0  0  0  0  0  0  0  0  0  0  0
   -2.8007    3.5380   -6.7814 C   0  0  0  0  0  0  0  0  0  0  0  0
   -1.5431    3.5826   -6.1495 C   0  0  0  0  0  0  0  0  0  0  0  0
   -0.5187    2.6180   -6.2677 C   0  0  0  0  0  0  0  0  0  0  0  0
   -0.4818    1.6074   -7.3420 C   0  0  0  0  0  0  0  0  0  0  0  0
   -1.4740    0.6209   -7.4542 C   0  0  0  0  0  0  0  0  0  0  0  0
   -1.4131   -0.3203   -8.4888 C   0  0  0  0  0  0  0  0  0  0  0  0
   -0.3498   -0.3012   -9.4024 C   0  0  0  0  0  0  0  0  0  0  0  0
   -0.2749   -1.5241  -10.7192 S   0  0  0  0  0  0  0  0  0  0  0  0
   -0.9386   -0.4135  -12.0109 C   0  0  0  0  0  0  0  0  0  0  0  0
   -2.4553   -0.3131  -11.9244 C   0  0  0  0  0  0  0  0  0  0  0  0
    0.6654    0.6558   -9.2661 C   0  0  0  0  0  0  0  0  0  0  0  0
    1.7152    0.6700  -10.1262 F   0  0  0  0  0  0  0  0  0  0  0  0
    0.5932    1.6102   -8.2464 C   0  0  0  0  0  0  0  0  0  0  0  0
    0.4806    2.6370   -5.2771 C   0  0  0  0  0  0  0  0  0  0  0  0
    0.5402    3.6129   -4.2789 C   0  0  0  0  0  0  0  0  0  0  0  0
   -0.3923    4.6672   -4.2691 C   0  0  0  0  0  0  0  0  0  0  0  0
   -0.2355    5.8377   -3.3926 C   0  0  0  0  0  0  0  0  0  0  0  0
    0.5133    6.9265   -3.8540 C   0  0  0  0  0  0  0  0  0  0  0  0
    0.6434    8.0717   -3.0696 C   0  0  0  0  0  0  0  0  0  0  0  0
    0.0440    8.1307   -1.8065 C   0  0  0  0  0  0  0  0  0  0  0  0
    0.2300    9.6130   -0.8119 S   0  0  0  0  0  0  0  0  0  0  0  0
    1.9134    9.2141   -0.2170 C   0  0  0  0  0  0  0  0  0  0  0  0
    2.8691   10.3338   -0.6070 C   0  0  0  0  0  0  0  0  0  0  0  0
   -0.7042    7.0400   -1.3401 C   0  0  0  0  0  0  0  0  0  0  0  0
   -0.8525    5.8974   -2.1348 C   0  0  0  0  0  0  0  0  0  0  0  0
   -1.3062    7.0965   -0.1254 F   0  0  0  0  0  0  0  0  0  0  0  0
   -1.4483    4.5920   -5.1909 C   0  0  0  0  0  0  0  0  0  0  0  0
   -2.9267    5.3757   -5.0934 S   0  0  0  0  0  0  0  0  0  0  0  0
    1.5093    3.3438   -3.2928 C   0  0  0  0  0  0  0  0  0  0  0  0
    2.1970    2.1481   -3.5157 C   0  0  0  0  0  0  0  0  0  0  0  0
    1.6146    1.4433   -4.9392 S   0  0  0  0  0  0  0  0  0  0  0  0
    3.0194    1.4272   -2.5216 C   0  0  0  0  0  0  0  0  0  0  0  0
    2.5759    1.2262   -0.9032 S   0  0  0  0  0  0  0  0  0  0  0  0
    4.0242    0.4936   -2.7864 C   0  0  0  0  0  0  0  0  0  0  0  0
    4.6279    0.2683   -4.0268 C   0  0  0  0  0  0  0  0  0  0  0  0
    5.5546   -0.7869   -4.1755 C   0  0  0  0  0  0  0  0  0  0  0  0
    6.1715   -1.0630   -5.4067 O   0  0  0  0  0  0  0  0  0  0  0  0
    5.9301   -0.3449   -6.6112 C   0  0  0  0  0  0  0  0  0  0  0  0
    5.8721   -1.6034   -3.0730 C   0  0  0  0  0  0  0  0  0  0  0  0
    6.7580   -2.6730   -3.2752 O   0  0  0  0  0  0  0  0  0  0  0  0
    7.0553   -3.6676   -2.3034 C   0  0  0  0  0  0  0  0  0  0  0  0
    5.2923   -1.3436   -1.8125 C   0  0  0  0  0  0  0  0  0  0  0  0
    4.3735   -0.2998   -1.6760 C   0  0  0  0  0  0  0  0  0  0  0  0
    3.6649    0.0021   -0.5076 C   0  0  0  0  0  0  0  0  0  0  0  0
    3.5704   -0.8741    0.6798 C   0  0  0  0  0  0  0  0  0  0  0  0
    3.0890   -2.1111    0.5179 C   0  0  0  0  0  0  0  0  0  0  0  0
    3.3718   -3.2426    1.4172 C   0  0  0  0  0  0  0  0  0  0  0  0
    3.5908   -4.5125    0.9100 C   0  0  0  0  0  0  0  0  0  0  0  0
    3.9465   -5.4472    1.8812 C   0  0  0  0  0  0  0  0  0  0  0  0
    4.2787   -6.7918    1.6208 C   0  0  0  0  0  0  0  0  0  0  0  0
    4.1663   -7.3673    0.2653 C   0  0  0  0  0  0  0  0  0  0  0  0
    5.3176   -7.7033   -0.4624 C   0  0  0  0  0  0  0  0  0  0  0  0
    5.2039   -8.1888   -1.7697 C   0  0  0  0  0  0  0  0  0  0  0  0
    3.9421   -8.3504   -2.3571 C   0  0  0  0  0  0  0  0  0  0  0  0
    3.8059   -8.9271   -4.0499 S   0  0  0  0  0  0  0  0  0  0  0  0
    3.7511  -10.7055   -3.6330 C   0  0  0  0  0  0  0  0  0  0  0  0
    2.4732  -11.3253   -4.1801 C   0  0  0  0  0  0  0  0  0  0  0  0
    2.7882   -8.0335   -1.6238 C   0  0  0  0  0  0  0  0  0  0  0  0
    1.5607   -8.1947   -2.1738 F   0  0  0  0  0  0  0  0  0  0  0  0
    2.9032   -7.5384   -0.3196 C   0  0  0  0  0  0  0  0  0  0  0  0
    4.6923   -7.5655    2.7102 C   0  0  0  0  0  0  0  0  0  0  0  0
    4.7158   -7.0688    4.0138 C   0  0  0  0  0  0  0  0  0  0  0  0
    4.3060   -5.7387    4.2936 C   0  0  0  0  0  0  0  0  0  0  0  0
    4.1120   -5.3217    5.7051 C   0  0  0  0  0  0  0  0  0  0  0  0
    4.9847   -4.4093    6.3195 C   0  0  0  0  0  0  0  0  0  0  0  0
    5.0818   -4.3681    7.7211 C   0  0  0  0  0  0  0  0  0  0  0  0
    4.3366   -5.2575    8.5083 C   0  0  0  0  0  0  0  0  0  0  0  0
    4.7677   -5.5164   10.2408 S   0  0  0  0  0  0  0  0  0  0  0  0
    3.2619   -4.7767   10.9522 C   0  0  0  0  0  0  0  0  0  0  0  0
    2.9276   -5.4516   12.2737 C   0  0  0  0  0  0  0  0  0  0  0  0
    3.3915   -6.0936    7.8969 C   0  0  0  0  0  0  0  0  0  0  0  0
    3.2540   -6.0934    6.5083 C   0  0  0  0  0  0  0  0  0  0  0  0
    2.6842   -6.9883    8.6300 F   0  0  0  0  0  0  0  0  0  0  0  0
    3.9821   -4.9284    3.1808 C   0  0  0  0  0  0  0  0  0  0  0  0
    3.5892   -3.2741    3.1042 S   0  0  0  0  0  0  0  0  0  0  0  0
    5.1620   -8.0242    4.9473 C   0  0  0  0  0  0  0  0  0  0  0  0
    5.4653   -9.2570    4.3763 C   0  0  0  0  0  0  0  0  0  0  0  0
    5.1881   -9.1712    2.7151 S   0  0  0  0  0  0  0  0  0  0  0  0
    4.0059   -1.4462   10.2171 H   0  0  0  0  0  0  0  0  0  0  0  0
    4.0708    0.3909    8.3804 H   0  0  0  0  0  0  0  0  0  0  0  0
    4.4219    0.0554    5.5709 H   0  0  0  0  0  0  0  0  0  0  0  0
    6.0736    1.7689    4.9496 H   0  0  0  0  0  0  0  0  0  0  0  0
    5.2209    3.7147    2.8336 H   0  0  0  0  0  0  0  0  0  0  0  0
    4.9010    5.4873    2.9714 H   0  0  0  0  0  0  0  0  0  0  0  0
    6.6920    5.0186    1.3121 H   0  0  0  0  0  0  0  0  0  0  0  0
    7.6516    4.1472    2.5672 H   0  0  0  0  0  0  0  0  0  0  0  0
    7.3666    5.9299    2.7174 H   0  0  0  0  0  0  0  0  0  0  0  0
    1.5515    3.1515    6.4684 H   0  0  0  0  0  0  0  0  0  0  0  0
   -1.4341   -2.0715    9.3577 H   0  0  0  0  0  0  0  0  0  0  0  0
   -2.6390   -4.1316    9.9856 H   0  0  0  0  0  0  0  0  0  0  0  0
   -1.8999   -7.9885   10.5005 H   0  0  0  0  0  0  0  0  0  0  0  0
   -0.9891   -6.4647   10.2340 H   0  0  0  0  0  0  0  0  0  0  0  0
    0.3169   -8.4739    9.5228 H   0  0  0  0  0  0  0  0  0  0  0  0
   -0.9922   -8.9328    8.3644 H   0  0  0  0  0  0  0  0  0  0  0  0
   -0.0393   -7.4110    8.1101 H   0  0  0  0  0  0  0  0  0  0  0  0
   -0.1743   -3.9292    5.6828 H   0  0  0  0  0  0  0  0  0  0  0  0
   -2.0137   -1.6597    5.2998 H   0  0  0  0  0  0  0  0  0  0  0  0
   -0.2169    1.7946    2.0210 H   0  0  0  0  0  0  0  0  0  0  0  0
    0.2342    4.3163    1.3426 H   0  0  0  0  0  0  0  0  0  0  0  0
    1.3506    4.4752   -0.0728 H   0  0  0  0  0  0  0  0  0  0  0  0
    1.4555    3.0212    0.9908 H   0  0  0  0  0  0  0  0  0  0  0  0
   -3.2180    1.0224   -3.1556 H   0  0  0  0  0  0  0  0  0  0  0  0
   -4.2405    2.4459   -2.6492 H   0  0  0  0  0  0  0  0  0  0  0  0
   -2.9848    2.6266   -3.9224 H   0  0  0  0  0  0  0  0  0  0  0  0
   -4.1969    0.9848   -0.8210 H   0  0  0  0  0  0  0  0  0  0  0  0
   -6.3758    0.4705    1.4947 H   0  0  0  0  0  0  0  0  0  0  0  0
   -5.1231   -1.7138   -0.2278 H   0  0  0  0  0  0  0  0  0  0  0  0
   -7.2435    1.5281   -0.2842 H   0  0  0  0  0  0  0  0  0  0  0  0
   -9.2065    4.4901   -2.9973 H   0  0  0  0  0  0  0  0  0  0  0  0
   -9.8114    6.2783   -1.4098 H   0  0  0  0  0  0  0  0  0  0  0  0
  -10.6290    6.8378    2.4912 H   0  0  0  0  0  0  0  0  0  0  0  0
  -10.5941    5.6220    1.1716 H   0  0  0  0  0  0  0  0  0  0  0  0
   -8.6738    5.6599    3.5975 H   0  0  0  0  0  0  0  0  0  0  0  0
   -8.8068    4.3533    2.3441 H   0  0  0  0  0  0  0  0  0  0  0  0
  -10.1697    4.6570    3.4805 H   0  0  0  0  0  0  0  0  0  0  0  0
   -5.7951    3.4883   -0.5627 H   0  0  0  0  0  0  0  0  0  0  0  0
   -8.1069   -0.3586   -6.5564 H   0  0  0  0  0  0  0  0  0  0  0  0
   -7.6060   -2.1885   -8.1307 H   0  0  0  0  0  0  0  0  0  0  0  0
   -4.2026   -1.7261   -9.6476 H   0  0  0  0  0  0  0  0  0  0  0  0
   -3.9198   -3.2077  -10.6207 H   0  0  0  0  0  0  0  0  0  0  0  0
   -6.5953   -1.6978  -10.3618 H   0  0  0  0  0  0  0  0  0  0  0  0
   -6.3433   -3.2271  -11.2945 H   0  0  0  0  0  0  0  0  0  0  0  0
   -5.4974   -1.7126  -11.7878 H   0  0  0  0  0  0  0  0  0  0  0  0
   -4.0750   -0.5382   -5.0550 H   0  0  0  0  0  0  0  0  0  0  0  0
   -5.0455    1.9395   -6.8039 H   0  0  0  0  0  0  0  0  0  0  0  0
   -3.0701    2.7657   -7.4883 H   0  0  0  0  0  0  0  0  0  0  0  0
   -2.2889    0.5804   -6.7461 H   0  0  0  0  0  0  0  0  0  0  0  0
   -2.1836   -1.0734   -8.5731 H   0  0  0  0  0  0  0  0  0  0  0  0
   -0.4878    0.5998  -11.9318 H   0  0  0  0  0  0  0  0  0  0  0  0
   -0.6634   -0.8320  -13.0010 H   0  0  0  0  0  0  0  0  0  0  0  0
   -2.8340    0.3221  -12.7534 H   0  0  0  0  0  0  0  0  0  0  0  0
   -2.9092   -1.3217  -12.0169 H   0  0  0  0  0  0  0  0  0  0  0  0
   -2.7600    0.1492  -10.9634 H   0  0  0  0  0  0  0  0  0  0  0  0
    1.3766    2.3526   -8.1642 H   0  0  0  0  0  0  0  0  0  0  0  0
    0.9884    6.8886   -4.8300 H   0  0  0  0  0  0  0  0  0  0  0  0
    1.2231    8.9077   -3.4386 H   0  0  0  0  0  0  0  0  0  0  0  0
    2.2914    8.2555   -0.6331 H   0  0  0  0  0  0  0  0  0  0  0  0
    1.8867    9.1255    0.8891 H   0  0  0  0  0  0  0  0  0  0  0  0
    2.5333   11.2967   -0.1633 H   0  0  0  0  0  0  0  0  0  0  0  0
    2.9146   10.4356   -1.7115 H   0  0  0  0  0  0  0  0  0  0  0  0
    3.8868   10.1039   -0.2283 H   0  0  0  0  0  0  0  0  0  0  0  0
   -1.4539    5.0686   -1.7791 H   0  0  0  0  0  0  0  0  0  0  0  0
    1.6465    3.9501   -2.4109 H   0  0  0  0  0  0  0  0  0  0  0  0
    4.3745    0.8974   -4.8686 H   0  0  0  0  0  0  0  0  0  0  0  0
    6.2013    0.7243   -6.4804 H   0  0  0  0  0  0  0  0  0  0  0  0
    6.5564   -0.7721   -7.4208 H   0  0  0  0  0  0  0  0  0  0  0  0
    4.8621   -0.4341   -6.9035 H   0  0  0  0  0  0  0  0  0  0  0  0
    7.7434   -4.4162   -2.7482 H   0  0  0  0  0  0  0  0  0  0  0  0
    7.5535   -3.2089   -1.4217 H   0  0  0  0  0  0  0  0  0  0  0  0
    6.1258   -4.1895   -1.9886 H   0  0  0  0  0  0  0  0  0  0  0  0
    5.5371   -1.9599   -0.9584 H   0  0  0  0  0  0  0  0  0  0  0  0
    4.0524   -0.5796    1.6076 H   0  0  0  0  0  0  0  0  0  0  0  0
    2.6635   -2.3624   -0.4459 H   0  0  0  0  0  0  0  0  0  0  0  0
    3.5426   -4.7351   -0.1533 H   0  0  0  0  0  0  0  0  0  0  0  0
    6.2994   -7.5774   -0.0222 H   0  0  0  0  0  0  0  0  0  0  0  0
    6.0967   -8.4353   -2.3292 H   0  0  0  0  0  0  0  0  0  0  0  0
    3.7993  -10.8806   -2.5375 H   0  0  0  0  0  0  0  0  0  0  0  0
    4.6266  -11.1993   -4.1037 H   0  0  0  0  0  0  0  0  0  0  0  0
    2.4586  -12.4129   -3.9507 H   0  0  0  0  0  0  0  0  0  0  0  0
    2.4190  -11.1903   -5.2828 H   0  0  0  0  0  0  0  0  0  0  0  0
    1.5895  -10.8484   -3.7076 H   0  0  0  0  0  0  0  0  0  0  0  0
    2.0055   -7.2819    0.2332 H   0  0  0  0  0  0  0  0  0  0  0  0
    5.6601   -3.8092    5.7206 H   0  0  0  0  0  0  0  0  0  0  0  0
    5.8183   -3.7259    8.1861 H   0  0  0  0  0  0  0  0  0  0  0  0
    3.4447   -3.6990   11.1393 H   0  0  0  0  0  0  0  0  0  0  0  0
    2.3943   -4.9060   10.2704 H   0  0  0  0  0  0  0  0  0  0  0  0
    3.7404   -5.2757   13.0131 H   0  0  0  0  0  0  0  0  0  0  0  0
    2.7933   -6.5431   12.1270 H   0  0  0  0  0  0  0  0  0  0  0  0
    1.9796   -5.0311   12.6742 H   0  0  0  0  0  0  0  0  0  0  0  0
    2.5788   -6.8045    6.0461 H   0  0  0  0  0  0  0  0  0  0  0  0
    5.2757   -7.8383    6.0082 H   0  0  0  0  0  0  0  0  0  0  0  0
    5.8191  -10.1275    4.9110 H   0  0  0  0  0  0  0  0  0  0  0  0
  1  2  2  0
  2  3  1  0
  3  4  2  0
  4  5  1  0
  5  6  2  0
  6  7  1  0
  7  8  2  0
  8  9  1  0
  9 10  1  0
 10 11  1  0
  8 12  1  0
 12 13  1  0
 12 14  2  0
  4 15  1  0
 15 16  2  0
 16 17  1  0
 17 18  1  0
 18 19  2  0
 19 20  1  0
 20 21  2  0
 21 22  1  0
 22 23  1  0
 23 24  1  0
 21 25  1  0
 25 26  2  0
 25 27  1  0
 17 28  2  0
 28 29  1  0
 16 30  1  0
 30 31  2  0
 31 32  1  0
 31 33  1  0
 33 34  1  0
 33 35  2  0
 35 36  1  0
 36 37  2  0
 37 38  1  0
 38 39  1  0
 37 40  1  0
 40 41  1  0
 41 42  1  0
 40 43  2  0
 43 44  1  0
 44 45  2  0
 45 46  1  0
 46 47  2  3
 47 48  1  0
 48 49  2  0
 49 50  1  0
 50 51  2  0
 51 52  1  0
 52 53  2  0
 53 54  1  0
 54 55  2  0
 55 56  1  0
 56 57  1  0
 57 58  1  0
 55 59  1  0
 59 60  1  0
 59 61  2  0
 51 62  1  0
 62 63  2  0
 63 64  1  0
 64 65  1  0
 65 66  2  0
 66 67  1  0
 67 68  2  0
 68 69  1  0
 69 70  1  0
 70 71  1  0
 68 72  1  0
 72 73  2  0
 72 74  1  0
 64 75  2  0
 75 76  1  0
 63 77  1  0
 77 78  2  0
 78 79  1  0
 78 80  1  0
 80 81  2  0
 81 82  1  0
 82 83  2  0
 83 84  1  0
 84 85  2  0
 85 86  1  0
 86 87  2  0
 87 88  1  0
 88 89  1  0
 89 90  1  0
 87 91  1  0
 91 92  1  0
 91 93  2  0
 83 94  1  0
 94 95  2  0
 95 96  1  0
 96 97  1  0
 97 98  2  0
 98 99  1  0
 99100  2  0
100101  1  0
101102  1  0
102103  1  0
100104  1  0
104105  2  0
104106  1  0
 96107  2  0
107108  1  0
 95109  1  0
109110  2  0
110111  1  0
110112  1  0
112113  1  0
112114  2  0
114115  1  0
115116  2  0
116117  1  0
117118  1  0
116119  1  0
119120  1  0
120121  1  0
119122  2  0
122123  1  0
123124  2  0
124125  1  0
125126  2  3
126127  1  0
127128  2  0
128129  1  0
129130  2  0
130131  1  0
131132  2  0
132133  1  0
133134  2  0
134135  1  0
135136  1  0
136137  1  0
134138  1  0
138139  1  0
138140  2  0
130141  1  0
141142  2  0
142143  1  0
143144  1  0
144145  2  0
145146  1  0
146147  2  0
147148  1  0
148149  1  0
149150  1  0
147151  1  0
151152  2  0
151153  1  0
143154  2  0
154155  1  0
142156  1  0
156157  2  0
157158  1  0
 29  1  1  0
 45 34  1  0
 76 48  1  0
108 80  1  0
124113  1  0
155127  1  0
 28  3  1  0
 44 35  1  0
 75 50  1  0
107 82  1  0
123114  1  0
154129  1  0
 14  5  1  0
 32 15  1  0
 61 52  1  0
 79 62  1  0
 93 84  1  0
111 94  1  0
140131  1  0
158141  1  0
 26 18  1  0
 73 65  1  0
105 97  1  0
152144  1  0
  1159  1  0
  2160  1  0
  6161  1  0
  7162  1  0
 10163  1  0
 10164  1  0
 11165  1  0
 11166  1  0
 11167  1  0
 14168  1  0
 19169  1  0
 20170  1  0
 23171  1  0
 23172  1  0
 24173  1  0
 24174  1  0
 24175  1  0
 26176  1  0
 30177  1  0
 36178  1  0
 39179  1  0
 39180  1  0
 39181  1  0
 42182  1  0
 42183  1  0
 42184  1  0
 43185  1  0
 46186  1  0
 47187  1  0
 49188  1  0
 53189  1  0
 54190  1  0
 57191  1  0
 57192  1  0
 58193  1  0
 58194  1  0
 58195  1  0
 61196  1  0
 66197  1  0
 67198  1  0
 70199  1  0
 70200  1  0
 71201  1  0
 71202  1  0
 71203  1  0
 73204  1  0
 77205  1  0
 81206  1  0
 85207  1  0
 86208  1  0
 89209  1  0
 89210  1  0
 90211  1  0
 90212  1  0
 90213  1  0
 93214  1  0
 98215  1  0
 99216  1  0
102217  1  0
102218  1  0
103219  1  0
103220  1  0
103221  1  0
105222  1  0
109223  1  0
115224  1  0
118225  1  0
118226  1  0
118227  1  0
121228  1  0
121229  1  0
121230  1  0
122231  1  0
125232  1  0
126233  1  0
128234  1  0
132235  1  0
133236  1  0
136237  1  0
136238  1  0
137239  1  0
137240  1  0
137241  1  0
140242  1  0
145243  1  0
146244  1  0
149245  1  0
149246  1  0
150247  1  0
150248  1  0
150249  1  0
152250  1  0
156251  1  0
157252  1  0
M  END

