
     RDKit          3D

177191  0  0  0  0  0  0  0  0999 V2000
    1.8097   -0.1101   -5.5298 C   0  0  0  0  0  0  0  0  0  0  0  0
    3.1212   -0.8065   -4.7417 S   0  0  0  0  0  0  0  0  0  0  0  0
    1.5525    1.1035   -4.9055 C   0  0  0  0  0  0  0  0  0  0  0  0
    0.5434    1.9890   -5.2823 C   0  0  0  0  0  0  0  0  0  0  0  0
    0.3780    3.1952   -4.5695 C   0  0  0  0  0  0  0  0  0  0  0  0
   -0.6171    4.1245   -4.9113 O   0  0  0  0  0  0  0  0  0  0  0  0
   -1.5903    3.9236   -5.9316 C   0  0  0  0  0  0  0  0  0  0  0  0
    1.2199    3.4909   -3.4778 C   0  0  0  0  0  0  0  0  0  0  0  0
    0.9973    4.6831   -2.7707 O   0  0  0  0  0  0  0  0  0  0  0  0
    1.6766    5.0444   -1.5730 C   0  0  0  0  0  0  0  0  0  0  0  0
    2.2485    2.5921   -3.1151 C   0  0  0  0  0  0  0  0  0  0  0  0
    2.4118    1.4019   -3.8329 C   0  0  0  0  0  0  0  0  0  0  0  0
    3.3759    0.4161   -3.6020 C   0  0  0  0  0  0  0  0  0  0  0  0
    4.4496    0.4429   -2.5848 C   0  0  0  0  0  0  0  0  0  0  0  0
    5.3242   -0.5602   -2.4438 C   0  0  0  0  0  0  0  0  0  0  0  0
    6.4272   -0.5158   -1.4571 C   0  0  0  0  0  0  0  0  0  0  0  0
    6.8745    0.8222   -0.5386 S   0  0  0  0  0  0  0  0  0  0  0  0
    7.3177   -1.5463   -1.1434 C   0  0  0  0  0  0  0  0  0  0  0  0
    7.3101   -2.8316   -1.6986 C   0  0  0  0  0  0  0  0  0  0  0  0
    8.2724   -3.7770   -1.2891 C   0  0  0  0  0  0  0  0  0  0  0  0
    8.3073   -5.0761   -1.8189 O   0  0  0  0  0  0  0  0  0  0  0  0
    7.4252   -5.5629   -2.8267 C   0  0  0  0  0  0  0  0  0  0  0  0
    9.2320   -3.4297   -0.3201 C   0  0  0  0  0  0  0  0  0  0  0  0
   10.1601   -4.4084    0.0693 O   0  0  0  0  0  0  0  0  0  0  0  0
   11.1708   -4.2210    1.0536 C   0  0  0  0  0  0  0  0  0  0  0  0
    9.2416   -2.1309    0.2323 C   0  0  0  0  0  0  0  0  0  0  0  0
    8.2854   -1.1918   -0.1801 C   0  0  0  0  0  0  0  0  0  0  0  0
    8.1766    0.1295    0.2812 C   0  0  0  0  0  0  0  0  0  0  0  0
    9.1076    0.8165    1.2178 C   0  0  0  0  0  0  0  0  0  0  0  0
    8.9239    2.0208    1.7804 C   0  0  0  0  0  0  0  0  0  0  0  0
    7.7168    2.8439    1.6322 C   0  0  0  0  0  0  0  0  0  0  0  0
    6.3094    2.6646    2.5348 S   0  0  0  0  0  0  0  0  0  0  0  0
    7.5343    3.9004    0.7442 C   0  0  0  0  0  0  0  0  0  0  0  0
    8.4712    4.3469   -0.1912 C   0  0  0  0  0  0  0  0  0  0  0  0
    8.1344    5.4095   -1.0558 C   0  0  0  0  0  0  0  0  0  0  0  0
    9.0308    5.8907   -2.0231 O   0  0  0  0  0  0  0  0  0  0  0  0
   10.3237    5.3477   -2.2671 C   0  0  0  0  0  0  0  0  0  0  0  0
    6.8632    6.0154   -0.9674 C   0  0  0  0  0  0  0  0  0  0  0  0
    6.5735    7.0759   -1.8398 O   0  0  0  0  0  0  0  0  0  0  0  0
    5.3326    7.7750   -1.8800 C   0  0  0  0  0  0  0  0  0  0  0  0
    5.9231    5.5512   -0.0224 C   0  0  0  0  0  0  0  0  0  0  0  0
    6.2637    4.4940    0.8290 C   0  0  0  0  0  0  0  0  0  0  0  0
    5.4401    3.9197    1.8059 C   0  0  0  0  0  0  0  0  0  0  0  0
    4.0160    4.2313    2.0494 C   0  0  0  0  0  0  0  0  0  0  0  0
    3.3384    3.7273    3.0898 C   0  0  0  0  0  0  0  0  0  0  0  0
    1.8688    3.8171    3.1850 C   0  0  0  0  0  0  0  0  0  0  0  0
    1.0969    3.0575    4.0665 C   0  0  0  0  0  0  0  0  0  0  0  0
   -0.2694    3.0434    3.7321 C   0  0  0  0  0  0  0  0  0  0  0  0
   -1.2507    2.1932    4.2943 C   0  0  0  0  0  0  0  0  0  0  0  0
   -0.9606    1.3606    5.4827 C   0  0  0  0  0  0  0  0  0  0  0  0
   -0.6094    1.9748    6.6958 C   0  0  0  0  0  0  0  0  0  0  0  0
   -0.3216    1.1965    7.8207 C   0  0  0  0  0  0  0  0  0  0  0  0
   -0.3935   -0.1987    7.7494 C   0  0  0  0  0  0  0  0  0  0  0  0
   -0.0097   -1.1905    9.1986 S   0  0  0  0  0  0  0  0  0  0  0  0
   -1.7377   -1.3270    9.7754 C   0  0  0  0  0  0  0  0  0  0  0  0
   -2.1290   -0.1215   10.6189 C   0  0  0  0  0  0  0  0  0  0  0  0
   -0.7288   -0.8157    6.5372 C   0  0  0  0  0  0  0  0  0  0  0  0
   -0.7870   -2.1677    6.4491 F   0  0  0  0  0  0  0  0  0  0  0  0
   -1.0055   -0.0404    5.4081 C   0  0  0  0  0  0  0  0  0  0  0  0
   -2.4756    2.0975    3.5991 C   0  0  0  0  0  0  0  0  0  0  0  0
   -2.7427    2.8438    2.4473 C   0  0  0  0  0  0  0  0  0  0  0  0
   -1.7987    3.7589    1.9477 C   0  0  0  0  0  0  0  0  0  0  0  0
   -2.0006    4.4348    0.6536 C   0  0  0  0  0  0  0  0  0  0  0  0
   -1.8390    3.7177   -0.5398 C   0  0  0  0  0  0  0  0  0  0  0  0
   -2.1028    4.3292   -1.7677 C   0  0  0  0  0  0  0  0  0  0  0  0
   -2.5293    5.6615   -1.8137 C   0  0  0  0  0  0  0  0  0  0  0  0
   -2.8968    6.4208   -3.3982 S   0  0  0  0  0  0  0  0  0  0  0  0
   -4.5699    5.7012   -3.4947 C   0  0  0  0  0  0  0  0  0  0  0  0
   -5.2014    6.0217   -4.8375 C   0  0  0  0  0  0  0  0  0  0  0  0
   -2.6721    6.3883   -0.6231 C   0  0  0  0  0  0  0  0  0  0  0  0
   -2.4040    5.7770    0.6076 C   0  0  0  0  0  0  0  0  0  0  0  0
   -3.0770    7.6834   -0.6539 F   0  0  0  0  0  0  0  0  0  0  0  0
   -0.5627    3.8207    2.6051 C   0  0  0  0  0  0  0  0  0  0  0  0
    0.8528    4.5104    2.0268 S   0  0  0  0  0  0  0  0  0  0  0  0
   -3.9083    2.4413    1.7795 C   0  0  0  0  0  0  0  0  0  0  0  0
   -4.5382    1.3514    2.3707 C   0  0  0  0  0  0  0  0  0  0  0  0
   -3.6815    0.9318    3.7626 S   0  0  0  0  0  0  0  0  0  0  0  0
   -5.3382    0.3969    1.5903 C   0  0  0  0  0  0  0  0  0  0  0  0
   -4.9559    0.0114   -0.0068 S   0  0  0  0  0  0  0  0  0  0  0  0
   -6.2524   -0.5565    2.0447 C   0  0  0  0  0  0  0  0  0  0  0  0
   -6.8026   -0.6206    3.3268 C   0  0  0  0  0  0  0  0  0  0  0  0
   -7.6856   -1.6743    3.6524 C   0  0  0  0  0  0  0  0  0  0  0  0
   -8.2758   -1.7804    4.9200 O   0  0  0  0  0  0  0  0  0  0  0  0
   -8.1343   -0.8150    5.9592 C   0  0  0  0  0  0  0  0  0  0  0  0
   -7.9926   -2.6613    2.6928 C   0  0  0  0  0  0  0  0  0  0  0  0
   -8.8392   -3.7149    3.0714 O   0  0  0  0  0  0  0  0  0  0  0  0
   -9.1807   -4.8137    2.2305 C   0  0  0  0  0  0  0  0  0  0  0  0
   -7.4495   -2.5781    1.3936 C   0  0  0  0  0  0  0  0  0  0  0  0
   -6.5929   -1.5196    1.0734 C   0  0  0  0  0  0  0  0  0  0  0  0
   -5.9403   -1.3428   -0.1481 C   0  0  0  0  0  0  0  0  0  0  0  0
   -5.9637   -2.2478   -1.3104 C   0  0  0  0  0  0  0  0  0  0  0  0
   -4.8533   -2.4617   -2.0273 C   0  0  0  0  0  0  0  0  0  0  0  0
   -4.7766   -3.3474   -3.2041 C   0  0  0  0  0  0  0  0  0  0  0  0
   -3.6989   -3.0609   -4.4634 S   0  0  0  0  0  0  0  0  0  0  0  0
   -5.4337   -4.5584   -3.4753 C   0  0  0  0  0  0  0  0  0  0  0  0
   -6.3008   -5.2449   -2.6171 C   0  0  0  0  0  0  0  0  0  0  0  0
   -6.8707   -6.4677   -3.0257 C   0  0  0  0  0  0  0  0  0  0  0  0
   -7.7822   -7.1669   -2.2177 O   0  0  0  0  0  0  0  0  0  0  0  0
   -8.2149   -6.7360   -0.9310 C   0  0  0  0  0  0  0  0  0  0  0  0
   -6.5254   -7.0254   -4.2706 C   0  0  0  0  0  0  0  0  0  0  0  0
   -7.1233   -8.2400   -4.6424 O   0  0  0  0  0  0  0  0  0  0  0  0
   -6.9225   -8.8924   -5.8917 C   0  0  0  0  0  0  0  0  0  0  0  0
   -5.5914   -6.3715   -5.1004 C   0  0  0  0  0  0  0  0  0  0  0  0
   -5.0625   -5.1341   -4.7102 C   0  0  0  0  0  0  0  0  0  0  0  0
   -4.0933   -4.3963   -5.4012 C   0  0  0  0  0  0  0  0  0  0  0  0
   -3.3949   -4.7201   -6.6576 C   0  0  0  0  0  0  0  0  0  0  0  0
   -4.0181   -5.1872   -7.7352 C   0  0  0  0  0  0  0  0  0  0  0  0
    1.2705   -0.5285   -6.3697 H   0  0  0  0  0  0  0  0  0  0  0  0
   -0.0973    1.7384   -6.1180 H   0  0  0  0  0  0  0  0  0  0  0  0
   -1.0933    3.7976   -6.9160 H   0  0  0  0  0  0  0  0  0  0  0  0
   -2.2071    3.0308   -5.6965 H   0  0  0  0  0  0  0  0  0  0  0  0
   -2.2518    4.8100   -5.9818 H   0  0  0  0  0  0  0  0  0  0  0  0
    2.7559    5.2036   -1.7762 H   0  0  0  0  0  0  0  0  0  0  0  0
    1.5505    4.2472   -0.8118 H   0  0  0  0  0  0  0  0  0  0  0  0
    1.2433    5.9860   -1.1783 H   0  0  0  0  0  0  0  0  0  0  0  0
    2.9012    2.8183   -2.2860 H   0  0  0  0  0  0  0  0  0  0  0  0
    4.5295    1.3088   -1.9442 H   0  0  0  0  0  0  0  0  0  0  0  0
    5.2329   -1.4330   -3.0723 H   0  0  0  0  0  0  0  0  0  0  0  0
    6.5687   -3.0981   -2.4329 H   0  0  0  0  0  0  0  0  0  0  0  0
    7.5408   -4.9674   -3.7586 H   0  0  0  0  0  0  0  0  0  0  0  0
    6.3723   -5.5198   -2.4696 H   0  0  0  0  0  0  0  0  0  0  0  0
    7.6772   -6.6205   -3.0498 H   0  0  0  0  0  0  0  0  0  0  0  0
   10.7106   -3.9622    2.0321 H   0  0  0  0  0  0  0  0  0  0  0  0
   11.7448   -5.1636    1.1723 H   0  0  0  0  0  0  0  0  0  0  0  0
   11.8709   -3.4179    0.7368 H   0  0  0  0  0  0  0  0  0  0  0  0
    9.9787   -1.8635    0.9753 H   0  0  0  0  0  0  0  0  0  0  0  0
   10.0372    0.3164    1.4544 H   0  0  0  0  0  0  0  0  0  0  0  0
    9.7127    2.4209    2.4042 H   0  0  0  0  0  0  0  0  0  0  0  0
    9.4392    3.8665   -0.2494 H   0  0  0  0  0  0  0  0  0  0  0  0
   10.8036    5.9134   -3.0910 H   0  0  0  0  0  0  0  0  0  0  0  0
   10.2379    4.2823   -2.5692 H   0  0  0  0  0  0  0  0  0  0  0  0
   10.9569    5.4371   -1.3588 H   0  0  0  0  0  0  0  0  0  0  0  0
    5.3872    8.5664   -2.6557 H   0  0  0  0  0  0  0  0  0  0  0  0
    5.1331    8.2559   -0.8993 H   0  0  0  0  0  0  0  0  0  0  0  0
    4.5097    7.0769   -2.1424 H   0  0  0  0  0  0  0  0  0  0  0  0
    4.9477    6.0098    0.0491 H   0  0  0  0  0  0  0  0  0  0  0  0
    3.4952    4.8288    1.3148 H   0  0  0  0  0  0  0  0  0  0  0  0
    3.8561    3.1347    3.8336 H   0  0  0  0  0  0  0  0  0  0  0  0
    1.5328    2.4398    4.8403 H   0  0  0  0  0  0  0  0  0  0  0  0
   -0.5611    3.0552    6.7678 H   0  0  0  0  0  0  0  0  0  0  0  0
   -0.0431    1.6828    8.7479 H   0  0  0  0  0  0  0  0  0  0  0  0
   -2.4353   -1.4341    8.9173 H   0  0  0  0  0  0  0  0  0  0  0  0
   -1.8209   -2.2409   10.3993 H   0  0  0  0  0  0  0  0  0  0  0  0
   -3.1523   -0.2686   11.0245 H   0  0  0  0  0  0  0  0  0  0  0  0
   -1.4233   -0.0012   11.4668 H   0  0  0  0  0  0  0  0  0  0  0  0
   -2.1269    0.8018   10.0031 H   0  0  0  0  0  0  0  0  0  0  0  0
   -1.2465   -0.5317    4.4740 H   0  0  0  0  0  0  0  0  0  0  0  0
   -1.5331    2.6795   -0.5156 H   0  0  0  0  0  0  0  0  0  0  0  0
   -2.0021    3.7563   -2.6783 H   0  0  0  0  0  0  0  0  0  0  0  0
   -4.5062    4.5968   -3.3854 H   0  0  0  0  0  0  0  0  0  0  0  0
   -5.2026    6.1087   -2.6769 H   0  0  0  0  0  0  0  0  0  0  0  0
   -4.5793    5.6151   -5.6623 H   0  0  0  0  0  0  0  0  0  0  0  0
   -5.3010    7.1206   -4.9626 H   0  0  0  0  0  0  0  0  0  0  0  0
   -6.2103    5.5629   -4.8932 H   0  0  0  0  0  0  0  0  0  0  0  0
   -2.5312    6.3425    1.5229 H   0  0  0  0  0  0  0  0  0  0  0  0
   -4.2066    2.8320    0.8159 H   0  0  0  0  0  0  0  0  0  0  0  0
   -6.5530    0.1385    4.0530 H   0  0  0  0  0  0  0  0  0  0  0  0
   -7.0668   -0.7153    6.2490 H   0  0  0  0  0  0  0  0  0  0  0  0
   -8.7102   -1.1483    6.8454 H   0  0  0  0  0  0  0  0  0  0  0  0
   -8.5343    0.1634    5.6220 H   0  0  0  0  0  0  0  0  0  0  0  0
   -8.2627   -5.3527    1.9176 H   0  0  0  0  0  0  0  0  0  0  0  0
   -9.8267   -5.5157    2.7928 H   0  0  0  0  0  0  0  0  0  0  0  0
   -9.7362   -4.4556    1.3391 H   0  0  0  0  0  0  0  0  0  0  0  0
   -7.6774   -3.3267    0.6474 H   0  0  0  0  0  0  0  0  0  0  0  0
   -6.8954   -2.7288   -1.5669 H   0  0  0  0  0  0  0  0  0  0  0  0
   -3.9525   -1.9121   -1.7797 H   0  0  0  0  0  0  0  0  0  0  0  0
   -6.5044   -4.8680   -1.6291 H   0  0  0  0  0  0  0  0  0  0  0  0
   -8.9543   -7.4630   -0.5359 H   0  0  0  0  0  0  0  0  0  0  0  0
   -7.3529   -6.6915   -0.2341 H   0  0  0  0  0  0  0  0  0  0  0  0
   -8.7007   -5.7412   -1.0013 H   0  0  0  0  0  0  0  0  0  0  0  0
   -7.5452   -9.8094   -5.9256 H   0  0  0  0  0  0  0  0  0  0  0  0
   -7.2259   -8.2245   -6.7260 H   0  0  0  0  0  0  0  0  0  0  0  0
   -5.8578   -9.1860   -6.0045 H   0  0  0  0  0  0  0  0  0  0  0  0
   -5.2714   -6.8325   -6.0196 H   0  0  0  0  0  0  0  0  0  0  0  0
   -2.3430   -4.4770   -6.7329 H   0  0  0  0  0  0  0  0  0  0  0  0
   -5.0871   -5.3516   -7.7489 H   0  0  0  0  0  0  0  0  0  0  0  0
   -3.4556   -5.3700   -8.6429 H   0  0  0  0  0  0  0  0  0  0  0  0
  1  2  1  0
  1  3  2  0
  3  4  1  0
  4  5  2  0
  5  6  1  0
  6  7  1  0
  5  8  1  0
  8  9  1  0
  9 10  1  0
  8 11  2  0
 11 12  1  0
 12 13  2  0
 13 14  1  0
 14 15  2  3
 15 16  1  0
 16 17  1  0
 16 18  2  0
 18 19  1  0
 19 20  2  0
 20 21  1  0
 21 22  1  0
 20 23  1  0
 23 24  1  0
 24 25  1  0
 23 26  2  0
 26 27  1  0
 27 28  2  0
 28 29  1  0
 29 30  2  3
 30 31  1  0
 31 32  1  0
 31 33  2  0
 33 34  1  0
 34 35  2  0
 35 36  1  0
 36 37  1  0
 35 38  1  0
 38 39  1  0
 39 40  1  0
 38 41  2  0
 41 42  1  0
 42 43  2  0
 43 44  1  0
 44 45  2  3
 45 46  1  0
 46 47  2  0
 47 48  1  0
 48 49  2  0
 49 50  1  0
 50 51  2  0
 51 52  1  0
 52 53  2  0
 53 54  1  0
 54 55  1  0
 55 56  1  0
 53 57  1  0
 57 58  1  0
 57 59  2  0
 49 60  1  0
 60 61  2  0
 61 62  1  0
 62 63  1  0
 63 64  2  0
 64 65  1  0
 65 66  2  0
 66 67  1  0
 67 68  1  0
 68 69  1  0
 66 70  1  0
 70 71  2  0
 70 72  1  0
 62 73  2  0
 73 74  1  0
 61 75  1  0
 75 76  2  0
 76 77  1  0
 76 78  1  0
 78 79  1  0
 78 80  2  0
 80 81  1  0
 81 82  2  0
 82 83  1  0
 83 84  1  0
 82 85  1  0
 85 86  1  0
 86 87  1  0
 85 88  2  0
 88 89  1  0
 89 90  2  0
 90 91  1  0
 91 92  2  3
 92 93  1  0
 93 94  1  0
 93 95  2  0
 95 96  1  0
 96 97  2  0
 97 98  1  0
 98 99  1  0
 97100  1  0
100101  1  0
101102  1  0
100103  2  0
103104  1  0
104105  2  0
105106  1  0
106107  2  3
 13  2  1  0
 28 17  1  0
 43 32  1  0
 74 46  1  0
 90 79  1  0
105 94  1  0
 12  3  1  0
 27 18  1  0
 42 33  1  0
 73 48  1  0
 89 80  1  0
104 95  1  0
 59 50  1  0
 77 60  1  0
 71 63  1  0
  1108  1  0
  4109  1  0
  7110  1  0
  7111  1  0
  7112  1  0
 10113  1  0
 10114  1  0
 10115  1  0
 11116  1  0
 14117  1  0
 15118  1  0
 19119  1  0
 22120  1  0
 22121  1  0
 22122  1  0
 25123  1  0
 25124  1  0
 25125  1  0
 26126  1  0
 29127  1  0
 30128  1  0
 34129  1  0
 37130  1  0
 37131  1  0
 37132  1  0
 40133  1  0
 40134  1  0
 40135  1  0
 41136  1  0
 44137  1  0
 45138  1  0
 47139  1  0
 51140  1  0
 52141  1  0
 55142  1  0
 55143  1  0
 56144  1  0
 56145  1  0
 56146  1  0
 59147  1  0
 64148  1  0
 65149  1  0
 68150  1  0
 68151  1  0
 69152  1  0
 69153  1  0
 69154  1  0
 71155  1  0
 75156  1  0
 81157  1  0
 84158  1  0
 84159  1  0
 84160  1  0
 87161  1  0
 87162  1  0
 87163  1  0
 88164  1  0
 91165  1  0
 92166  1  0
 96167  1  0
 99168  1  0
 99169  1  0
 99170  1  0
102171  1  0
102172  1  0
102173  1  0
103174  1  0
106175  1  0
107176  1  0
107177  1  0
M  END

