
     RDKit          3D

124131  0  0  0  0  0  0  0  0999 V2000
   10.2833   -2.3584   -2.4153 C   0  0  0  0  0  0  0  0  0  0  0  0
    8.9353   -2.3152   -2.0095 C   0  0  0  0  0  0  0  0  0  0  0  0
    8.3822   -3.3030   -1.1754 O   0  0  0  0  0  0  0  0  0  0  0  0
    9.0776   -4.4528   -0.7107 C   0  0  0  0  0  0  0  0  0  0  0  0
    8.1161   -1.2653   -2.4647 C   0  0  0  0  0  0  0  0  0  0  0  0
    8.6511   -0.2727   -3.3014 C   0  0  0  0  0  0  0  0  0  0  0  0
    9.9897   -0.3158   -3.7012 C   0  0  0  0  0  0  0  0  0  0  0  0
   10.8048   -1.3691   -3.2539 C   0  0  0  0  0  0  0  0  0  0  0  0
   10.4665    0.7030   -4.5394 O   0  0  0  0  0  0  0  0  0  0  0  0
   11.8032    0.7851   -5.0258 C   0  0  0  0  0  0  0  0  0  0  0  0
    6.6981   -1.1869   -2.0622 C   0  0  0  0  0  0  0  0  0  0  0  0
    6.1458   -1.2059   -0.4718 S   0  0  0  0  0  0  0  0  0  0  0  0
    5.5874   -1.0435   -2.8971 C   0  0  0  0  0  0  0  0  0  0  0  0
    5.6098   -1.0459   -4.2957 C   0  0  0  0  0  0  0  0  0  0  0  0
    4.4021   -0.9103   -5.0129 C   0  0  0  0  0  0  0  0  0  0  0  0
    4.3688   -0.9132   -6.4176 O   0  0  0  0  0  0  0  0  0  0  0  0
    5.5140   -1.0531   -7.2528 C   0  0  0  0  0  0  0  0  0  0  0  0
    3.1834   -0.7724   -4.3197 C   0  0  0  0  0  0  0  0  0  0  0  0
    2.0055   -0.6228   -5.0707 O   0  0  0  0  0  0  0  0  0  0  0  0
    0.7147   -0.3940   -4.5162 C   0  0  0  0  0  0  0  0  0  0  0  0
    3.1680   -0.7969   -2.9097 C   0  0  0  0  0  0  0  0  0  0  0  0
    4.3681   -0.9410   -2.2039 C   0  0  0  0  0  0  0  0  0  0  0  0
    4.5028   -1.0212   -0.8138 C   0  0  0  0  0  0  0  0  0  0  0  0
    3.4079   -0.9922    0.1776 C   0  0  0  0  0  0  0  0  0  0  0  0
    3.6058   -1.1509    1.4940 C   0  0  0  0  0  0  0  0  0  0  0  0
    2.4719   -1.1730    2.4459 C   0  0  0  0  0  0  0  0  0  0  0  0
    0.8465   -1.1445    2.0099 S   0  0  0  0  0  0  0  0  0  0  0  0
    2.5224   -1.2348    3.8436 C   0  0  0  0  0  0  0  0  0  0  0  0
    3.6835   -1.2751    4.6222 C   0  0  0  0  0  0  0  0  0  0  0  0
    3.5802   -1.3428    6.0285 C   0  0  0  0  0  0  0  0  0  0  0  0
    4.7147   -1.4035    6.8551 O   0  0  0  0  0  0  0  0  0  0  0  0
    6.0570   -1.4424    6.3805 C   0  0  0  0  0  0  0  0  0  0  0  0
    2.3122   -1.3609    6.6421 C   0  0  0  0  0  0  0  0  0  0  0  0
    2.2594   -1.4378    8.0434 O   0  0  0  0  0  0  0  0  0  0  0  0
    1.0584   -1.5039    8.8049 C   0  0  0  0  0  0  0  0  0  0  0  0
    1.1425   -1.3104    5.8524 C   0  0  0  0  0  0  0  0  0  0  0  0
    1.2526   -1.2464    4.4598 C   0  0  0  0  0  0  0  0  0  0  0  0
    0.1866   -1.2100    3.5563 C   0  0  0  0  0  0  0  0  0  0  0  0
   -1.2580   -1.1135    3.8567 C   0  0  0  0  0  0  0  0  0  0  0  0
   -2.1719   -1.3870    2.9113 C   0  0  0  0  0  0  0  0  0  0  0  0
   -3.6301   -1.1040    3.0135 C   0  0  0  0  0  0  0  0  0  0  0  0
   -4.4029   -1.1118    1.8318 C   0  0  0  0  0  0  0  0  0  0  0  0
   -3.8112   -1.4492    0.6094 O   0  0  0  0  0  0  0  0  0  0  0  0
   -3.3205   -0.4558   -0.2828 C   0  0  0  0  0  0  0  0  0  0  0  0
   -5.7674   -0.7796    1.8734 C   0  0  0  0  0  0  0  0  0  0  0  0
   -6.3645   -0.4398    3.0906 C   0  0  0  0  0  0  0  0  0  0  0  0
   -5.6218   -0.4460    4.2742 C   0  0  0  0  0  0  0  0  0  0  0  0
   -4.2563   -0.7848    4.2350 C   0  0  0  0  0  0  0  0  0  0  0  0
   -6.2799   -0.1083    5.4665 O   0  0  0  0  0  0  0  0  0  0  0  0
   -5.6642   -0.0761    6.7508 C   0  0  0  0  0  0  0  0  0  0  0  0
   -6.5728   -0.7794    0.6376 C   0  0  0  0  0  0  0  0  0  0  0  0
   -6.8955    0.4314   -0.0020 C   0  0  0  0  0  0  0  0  0  0  0  0
   -6.4805    1.6303    0.5957 O   0  0  0  0  0  0  0  0  0  0  0  0
   -7.3753    2.6833    0.9417 C   0  0  0  0  0  0  0  0  0  0  0  0
   -7.5990    0.4051   -1.2307 C   0  0  0  0  0  0  0  0  0  0  0  0
   -8.0401   -0.8260   -1.7463 C   0  0  0  0  0  0  0  0  0  0  0  0
   -7.7506   -2.0302   -1.0816 C   0  0  0  0  0  0  0  0  0  0  0  0
   -7.0015   -1.9970    0.0964 C   0  0  0  0  0  0  0  0  0  0  0  0
   -8.1819   -3.2760   -1.5613 O   0  0  0  0  0  0  0  0  0  0  0  0
   -9.0141   -3.4553   -2.7023 C   0  0  0  0  0  0  0  0  0  0  0  0
   -7.8241    1.6307   -2.0345 C   0  0  0  0  0  0  0  0  0  0  0  0
   -6.7449    2.4443   -2.4415 C   0  0  0  0  0  0  0  0  0  0  0  0
   -5.4378    2.0760   -2.0823 O   0  0  0  0  0  0  0  0  0  0  0  0
   -4.2720    2.8333   -2.3845 C   0  0  0  0  0  0  0  0  0  0  0  0
   -7.0056    3.6017   -3.1995 C   0  0  0  0  0  0  0  0  0  0  0  0
   -8.3116    3.9319   -3.5666 C   0  0  0  0  0  0  0  0  0  0  0  0
   -9.3858    3.1091   -3.1852 C   0  0  0  0  0  0  0  0  0  0  0  0
   -9.1319    1.9651   -2.4232 C   0  0  0  0  0  0  0  0  0  0  0  0
  -10.7132    3.3900   -3.5419 O   0  0  0  0  0  0  0  0  0  0  0  0
  -11.1150    4.5116   -4.3229 C   0  0  0  0  0  0  0  0  0  0  0  0
   10.9375   -3.1540   -2.0873 H   0  0  0  0  0  0  0  0  0  0  0  0
    9.9369   -4.1510   -0.0771 H   0  0  0  0  0  0  0  0  0  0  0  0
    8.3868   -5.0726   -0.1009 H   0  0  0  0  0  0  0  0  0  0  0  0
    9.4290   -5.0587   -1.5722 H   0  0  0  0  0  0  0  0  0  0  0  0
    8.0270    0.5448   -3.6405 H   0  0  0  0  0  0  0  0  0  0  0  0
   11.8437   -1.4349   -3.5476 H   0  0  0  0  0  0  0  0  0  0  0  0
   12.0386   -0.1092   -5.6409 H   0  0  0  0  0  0  0  0  0  0  0  0
   12.5148    0.8659   -4.1746 H   0  0  0  0  0  0  0  0  0  0  0  0
   11.9043    1.6906   -5.6603 H   0  0  0  0  0  0  0  0  0  0  0  0
    6.5460   -1.1674   -4.8210 H   0  0  0  0  0  0  0  0  0  0  0  0
    5.1923   -1.0423   -8.3140 H   0  0  0  0  0  0  0  0  0  0  0  0
    6.0215   -2.0185   -7.0459 H   0  0  0  0  0  0  0  0  0  0  0  0
    6.2158   -0.2100   -7.0831 H   0  0  0  0  0  0  0  0  0  0  0  0
    0.4091   -1.2581   -3.8898 H   0  0  0  0  0  0  0  0  0  0  0  0
   -0.0162   -0.2778   -5.3411 H   0  0  0  0  0  0  0  0  0  0  0  0
    0.7187    0.5376   -3.9122 H   0  0  0  0  0  0  0  0  0  0  0  0
    2.2329   -0.7078   -2.3819 H   0  0  0  0  0  0  0  0  0  0  0  0
    2.4027   -0.8519   -0.1891 H   0  0  0  0  0  0  0  0  0  0  0  0
    4.6087   -1.2829    1.8727 H   0  0  0  0  0  0  0  0  0  0  0  0
    4.6523   -1.2540    4.1485 H   0  0  0  0  0  0  0  0  0  0  0  0
    6.2879   -0.5174    5.8086 H   0  0  0  0  0  0  0  0  0  0  0  0
    6.2090   -2.3378    5.7393 H   0  0  0  0  0  0  0  0  0  0  0  0
    6.7480   -1.5056    7.2466 H   0  0  0  0  0  0  0  0  0  0  0  0
    1.3162   -1.5689    9.8830 H   0  0  0  0  0  0  0  0  0  0  0  0
    0.4482   -0.5901    8.6395 H   0  0  0  0  0  0  0  0  0  0  0  0
    0.4782   -2.4083    8.5232 H   0  0  0  0  0  0  0  0  0  0  0  0
    0.1664   -1.3310    6.3147 H   0  0  0  0  0  0  0  0  0  0  0  0
   -1.5499   -0.7435    4.8279 H   0  0  0  0  0  0  0  0  0  0  0  0
   -1.8157   -1.7789    1.9669 H   0  0  0  0  0  0  0  0  0  0  0  0
   -2.5622    0.1738    0.2284 H   0  0  0  0  0  0  0  0  0  0  0  0
   -2.8520   -0.9459   -1.1602 H   0  0  0  0  0  0  0  0  0  0  0  0
   -4.1515    0.1827   -0.6363 H   0  0  0  0  0  0  0  0  0  0  0  0
   -7.4153   -0.1743    3.1219 H   0  0  0  0  0  0  0  0  0  0  0  0
   -3.6950   -0.8071    5.1549 H   0  0  0  0  0  0  0  0  0  0  0  0
   -6.4151    0.2439    7.5045 H   0  0  0  0  0  0  0  0  0  0  0  0
   -5.2977   -1.0882    7.0220 H   0  0  0  0  0  0  0  0  0  0  0  0
   -4.8249    0.6511    6.7554 H   0  0  0  0  0  0  0  0  0  0  0  0
   -7.7080    3.2389    0.0457 H   0  0  0  0  0  0  0  0  0  0  0  0
   -8.2572    2.2754    1.4793 H   0  0  0  0  0  0  0  0  0  0  0  0
   -6.8503    3.3944    1.6118 H   0  0  0  0  0  0  0  0  0  0  0  0
   -8.5818   -0.8408   -2.6831 H   0  0  0  0  0  0  0  0  0  0  0  0
   -6.7594   -2.9259    0.5977 H   0  0  0  0  0  0  0  0  0  0  0  0
   -9.2321   -4.5357   -2.8254 H   0  0  0  0  0  0  0  0  0  0  0  0
   -9.9720   -2.9124   -2.5632 H   0  0  0  0  0  0  0  0  0  0  0  0
   -8.4957   -3.0907   -3.6139 H   0  0  0  0  0  0  0  0  0  0  0  0
   -3.3851    2.3175   -1.9633 H   0  0  0  0  0  0  0  0  0  0  0  0
   -4.1460    2.9162   -3.4848 H   0  0  0  0  0  0  0  0  0  0  0  0
   -4.3456    3.8434   -1.9285 H   0  0  0  0  0  0  0  0  0  0  0  0
   -6.2028    4.2526   -3.5157 H   0  0  0  0  0  0  0  0  0  0  0  0
   -8.4753    4.8276   -4.1510 H   0  0  0  0  0  0  0  0  0  0  0  0
   -9.9637    1.3392   -2.1215 H   0  0  0  0  0  0  0  0  0  0  0  0
  -12.2153    4.4798   -4.4633 H   0  0  0  0  0  0  0  0  0  0  0  0
  -10.6275    4.4787   -5.3218 H   0  0  0  0  0  0  0  0  0  0  0  0
  -10.8501    5.4554   -3.7991 H   0  0  0  0  0  0  0  0  0  0  0  0
  1  2  2  0
  2  3  1  0
  3  4  1  0
  2  5  1  0
  5  6  2  0
  6  7  1  0
  7  8  2  0
  7  9  1  0
  9 10  1  0
  5 11  1  0
 11 12  1  0
 11 13  2  0
 13 14  1  0
 14 15  2  0
 15 16  1  0
 16 17  1  0
 15 18  1  0
 18 19  1  0
 19 20  1  0
 18 21  2  0
 21 22  1  0
 22 23  2  0
 23 24  1  0
 24 25  2  3
 25 26  1  0
 26 27  1  0
 26 28  2  0
 28 29  1  0
 29 30  2  0
 30 31  1  0
 31 32  1  0
 30 33  1  0
 33 34  1  0
 34 35  1  0
 33 36  2  0
 36 37  1  0
 37 38  2  0
 38 39  1  0
 39 40  2  3
 40 41  1  0
 41 42  2  0
 42 43  1  0
 43 44  1  0
 42 45  1  0
 45 46  2  0
 46 47  1  0
 47 48  2  0
 47 49  1  0
 49 50  1  0
 45 51  1  0
 51 52  2  0
 52 53  1  0
 53 54  1  0
 52 55  1  0
 55 56  2  0
 56 57  1  0
 57 58  2  0
 57 59  1  0
 59 60  1  0
 55 61  1  0
 61 62  2  0
 62 63  1  0
 63 64  1  0
 62 65  1  0
 65 66  2  0
 66 67  1  0
 67 68  2  0
 67 69  1  0
 69 70  1  0
  8  1  1  0
 23 12  1  0
 38 27  1  0
 48 41  1  0
 58 51  1  0
 68 61  1  0
 22 13  1  0
 37 28  1  0
  1 71  1  0
  4 72  1  0
  4 73  1  0
  4 74  1  0
  6 75  1  0
  8 76  1  0
 10 77  1  0
 10 78  1  0
 10 79  1  0
 14 80  1  0
 17 81  1  0
 17 82  1  0
 17 83  1  0
 20 84  1  0
 20 85  1  0
 20 86  1  0
 21 87  1  0
 24 88  1  0
 25 89  1  0
 29 90  1  0
 32 91  1  0
 32 92  1  0
 32 93  1  0
 35 94  1  0
 35 95  1  0
 35 96  1  0
 36 97  1  0
 39 98  1  0
 40 99  1  0
 44100  1  0
 44101  1  0
 44102  1  0
 46103  1  0
 48104  1  0
 50105  1  0
 50106  1  0
 50107  1  0
 54108  1  0
 54109  1  0
 54110  1  0
 56111  1  0
 58112  1  0
 60113  1  0
 60114  1  0
 60115  1  0
 64116  1  0
 64117  1  0
 64118  1  0
 65119  1  0
 66120  1  0
 68121  1  0
 70122  1  0
 70123  1  0
 70124  1  0
M  END

