
     RDKit          3D

252275  0  0  0  0  0  0  0  0999 V2000
    3.0726   -1.7800    1.2537 C   0  0  0  0  0  0  0  0  0  0  0  0
    1.6025   -1.9826    2.0439 S   0  0  0  0  0  0  0  0  0  0  0  0
    3.1461   -2.7547    0.2644 C   0  0  0  0  0  0  0  0  0  0  0  0
    4.2231   -2.9327   -0.6059 C   0  0  0  0  0  0  0  0  0  0  0  0
    4.1922   -3.9925   -1.5426 C   0  0  0  0  0  0  0  0  0  0  0  0
    5.2674   -4.2481   -2.4101 O   0  0  0  0  0  0  0  0  0  0  0  0
    6.4601   -3.4749   -2.4521 C   0  0  0  0  0  0  0  0  0  0  0  0
    3.0704   -4.8412   -1.6053 C   0  0  0  0  0  0  0  0  0  0  0  0
    3.0868   -5.8930   -2.5353 O   0  0  0  0  0  0  0  0  0  0  0  0
    2.1324   -6.9437   -2.5736 C   0  0  0  0  0  0  0  0  0  0  0  0
    1.9785   -4.6350   -0.7389 C   0  0  0  0  0  0  0  0  0  0  0  0
    2.0219   -3.6024    0.2013 C   0  0  0  0  0  0  0  0  0  0  0  0
    1.0390   -3.2998    1.1462 C   0  0  0  0  0  0  0  0  0  0  0  0
   -0.2664   -3.9791    1.3001 C   0  0  0  0  0  0  0  0  0  0  0  0
   -1.1847   -3.5727    2.1775 C   0  0  0  0  0  0  0  0  0  0  0  0
   -2.5042   -4.2159    2.2838 C   0  0  0  0  0  0  0  0  0  0  0  0
   -3.3181   -4.4267    3.7423 S   0  0  0  0  0  0  0  0  0  0  0  0
   -3.3404   -4.6770    1.2575 C   0  0  0  0  0  0  0  0  0  0  0  0
   -3.1353   -4.5205   -0.1209 C   0  0  0  0  0  0  0  0  0  0  0  0
   -4.0781   -5.0284   -1.0421 C   0  0  0  0  0  0  0  0  0  0  0  0
   -3.9149   -4.8351   -2.4246 O   0  0  0  0  0  0  0  0  0  0  0  0
   -2.9542   -3.9702   -3.0205 C   0  0  0  0  0  0  0  0  0  0  0  0
   -5.2187   -5.7276   -0.5519 C   0  0  0  0  0  0  0  0  0  0  0  0
   -6.1696   -6.3508   -1.3753 O   0  0  0  0  0  0  0  0  0  0  0  0
   -6.0395   -6.6006   -2.7692 C   0  0  0  0  0  0  0  0  0  0  0  0
   -5.4528   -5.7935    0.8287 C   0  0  0  0  0  0  0  0  0  0  0  0
   -4.5322   -5.2428    1.7234 C   0  0  0  0  0  0  0  0  0  0  0  0
   -4.6954   -5.1547    3.1077 C   0  0  0  0  0  0  0  0  0  0  0  0
   -5.9626   -5.2858    3.8524 C   0  0  0  0  0  0  0  0  0  0  0  0
   -7.0555   -4.5544    3.5641 C   0  0  0  0  0  0  0  0  0  0  0  0
   -7.0541   -3.5047    2.5282 C   0  0  0  0  0  0  0  0  0  0  0  0
   -6.0778   -2.5215    2.3815 C   0  0  0  0  0  0  0  0  0  0  0  0
   -6.0953   -1.9116    1.1211 C   0  0  0  0  0  0  0  0  0  0  0  0
   -5.1247   -1.0188    0.6230 C   0  0  0  0  0  0  0  0  0  0  0  0
   -4.0527   -0.4638    1.4834 C   0  0  0  0  0  0  0  0  0  0  0  0
   -2.6987   -0.6221    1.1331 C   0  0  0  0  0  0  0  0  0  0  0  0
   -1.6925   -0.0685    1.9403 C   0  0  0  0  0  0  0  0  0  0  0  0
   -2.0197    0.5827    3.1320 C   0  0  0  0  0  0  0  0  0  0  0  0
   -0.7189    1.2844    4.1601 S   0  0  0  0  0  0  0  0  0  0  0  0
   -0.2964   -0.2755    5.0101 C   0  0  0  0  0  0  0  0  0  0  0  0
   -1.3296   -0.6389    6.0721 C   0  0  0  0  0  0  0  0  0  0  0  0
   -3.3715    0.7578    3.4809 C   0  0  0  0  0  0  0  0  0  0  0  0
   -3.7045    1.4014    4.6255 F   0  0  0  0  0  0  0  0  0  0  0  0
   -4.3776    0.2215    2.6703 C   0  0  0  0  0  0  0  0  0  0  0  0
   -5.2287   -0.6790   -0.7358 C   0  0  0  0  0  0  0  0  0  0  0  0
   -6.2487   -1.1529   -1.5704 C   0  0  0  0  0  0  0  0  0  0  0  0
   -7.2435   -2.0077   -1.0543 C   0  0  0  0  0  0  0  0  0  0  0  0
   -8.3477   -2.5256   -1.8810 C   0  0  0  0  0  0  0  0  0  0  0  0
   -9.6754   -2.2601   -1.5140 C   0  0  0  0  0  0  0  0  0  0  0  0
  -10.7303   -2.7457   -2.2866 C   0  0  0  0  0  0  0  0  0  0  0  0
  -10.4693   -3.5230   -3.4215 C   0  0  0  0  0  0  0  0  0  0  0  0
  -11.8328   -4.1720   -4.3922 S   0  0  0  0  0  0  0  0  0  0  0  0
  -11.8831   -5.7942   -3.5508 C   0  0  0  0  0  0  0  0  0  0  0  0
  -12.6346   -5.7096   -2.2273 C   0  0  0  0  0  0  0  0  0  0  0  0
   -9.1415   -3.7814   -3.8030 C   0  0  0  0  0  0  0  0  0  0  0  0
   -8.0875   -3.2833   -3.0297 C   0  0  0  0  0  0  0  0  0  0  0  0
   -8.8743   -4.5094   -4.9125 F   0  0  0  0  0  0  0  0  0  0  0  0
   -7.1216   -2.3815    0.2955 C   0  0  0  0  0  0  0  0  0  0  0  0
   -7.9933   -3.5593    1.1311 S   0  0  0  0  0  0  0  0  0  0  0  0
   -6.1328   -0.6994   -2.9020 C   0  0  0  0  0  0  0  0  0  0  0  0
   -5.0281    0.1208   -3.0890 C   0  0  0  0  0  0  0  0  0  0  0  0
   -4.2047    0.2991   -1.6314 S   0  0  0  0  0  0  0  0  0  0  0  0
   -4.5031    0.6387   -4.3515 C   0  0  0  0  0  0  0  0  0  0  0  0
   -3.3628    0.0591   -4.9103 C   0  0  0  0  0  0  0  0  0  0  0  0
   -2.4593    0.9946   -5.4494 C   0  0  0  0  0  0  0  0  0  0  0  0
   -1.1252    0.7138   -5.8048 C   0  0  0  0  0  0  0  0  0  0  0  0
   -0.6297   -0.6758   -5.9683 C   0  0  0  0  0  0  0  0  0  0  0  0
   -1.1775   -1.4940   -6.9718 C   0  0  0  0  0  0  0  0  0  0  0  0
   -0.6349   -2.7547   -7.2279 C   0  0  0  0  0  0  0  0  0  0  0  0
    0.4624   -3.2168   -6.4911 C   0  0  0  0  0  0  0  0  0  0  0  0
    1.2365   -4.7804   -6.9287 S   0  0  0  0  0  0  0  0  0  0  0  0
    0.3872   -5.7593   -5.6324 C   0  0  0  0  0  0  0  0  0  0  0  0
   -1.0593   -6.0556   -6.0204 C   0  0  0  0  0  0  0  0  0  0  0  0
    0.9818   -2.4294   -5.4576 C   0  0  0  0  0  0  0  0  0  0  0  0
    2.0458   -2.8642   -4.7297 F   0  0  0  0  0  0  0  0  0  0  0  0
    0.4304   -1.1741   -5.1834 C   0  0  0  0  0  0  0  0  0  0  0  0
   -0.2543    1.8145   -5.8754 C   0  0  0  0  0  0  0  0  0  0  0  0
   -0.6892    3.1302   -5.6957 C   0  0  0  0  0  0  0  0  0  0  0  0
   -2.0620    3.4217   -5.5342 C   0  0  0  0  0  0  0  0  0  0  0  0
   -2.5174    4.8343   -5.4473 C   0  0  0  0  0  0  0  0  0  0  0  0
   -3.2125    5.3235   -4.3293 C   0  0  0  0  0  0  0  0  0  0  0  0
   -3.5363    6.6810   -4.2484 C   0  0  0  0  0  0  0  0  0  0  0  0
   -3.1608    7.5647   -5.2610 C   0  0  0  0  0  0  0  0  0  0  0  0
   -3.4529    9.3289   -5.0635 S   0  0  0  0  0  0  0  0  0  0  0  0
   -4.9551    9.3957   -6.0963 C   0  0  0  0  0  0  0  0  0  0  0  0
   -6.1776    8.9213   -5.3206 C   0  0  0  0  0  0  0  0  0  0  0  0
   -2.4738    7.0836   -6.3779 C   0  0  0  0  0  0  0  0  0  0  0  0
   -2.1856    5.7196   -6.4876 C   0  0  0  0  0  0  0  0  0  0  0  0
   -2.1013    7.9301   -7.3704 F   0  0  0  0  0  0  0  0  0  0  0  0
   -2.9163    2.3153   -5.3496 C   0  0  0  0  0  0  0  0  0  0  0  0
   -4.4246    2.3011   -4.6128 S   0  0  0  0  0  0  0  0  0  0  0  0
    0.3566    4.0307   -5.4267 C   0  0  0  0  0  0  0  0  0  0  0  0
    1.6058    3.4222   -5.3392 C   0  0  0  0  0  0  0  0  0  0  0  0
    1.4226    1.7975   -5.7475 S   0  0  0  0  0  0  0  0  0  0  0  0
    2.5928    3.8107   -4.3222 C   0  0  0  0  0  0  0  0  0  0  0  0
    2.2098    4.3043   -3.0748 C   0  0  0  0  0  0  0  0  0  0  0  0
    3.1356    4.0260   -2.0541 C   0  0  0  0  0  0  0  0  0  0  0  0
    2.8943    4.1860   -0.6807 C   0  0  0  0  0  0  0  0  0  0  0  0
    1.6254    4.7462   -0.1547 C   0  0  0  0  0  0  0  0  0  0  0  0
    1.3112    6.0990   -0.3406 C   0  0  0  0  0  0  0  0  0  0  0  0
    0.1629    6.6399    0.2561 C   0  0  0  0  0  0  0  0  0  0  0  0
   -0.6807    5.8228    1.0245 C   0  0  0  0  0  0  0  0  0  0  0  0
   -2.0654    6.5468    1.9168 S   0  0  0  0  0  0  0  0  0  0  0  0
   -3.3171    6.1369    0.6492 C   0  0  0  0  0  0  0  0  0  0  0  0
   -3.3237    7.1855   -0.4544 C   0  0  0  0  0  0  0  0  0  0  0  0
   -0.3825    4.4700    1.1815 C   0  0  0  0  0  0  0  0  0  0  0  0
   -1.2027    3.6639    1.9065 F   0  0  0  0  0  0  0  0  0  0  0  0
    0.7480    3.9220    0.5712 C   0  0  0  0  0  0  0  0  0  0  0  0
    3.8381    3.6338    0.1953 C   0  0  0  0  0  0  0  0  0  0  0  0
    4.9665    2.9165   -0.2337 C   0  0  0  0  0  0  0  0  0  0  0  0
    5.2372    2.7980   -1.6250 C   0  0  0  0  0  0  0  0  0  0  0  0
    6.4143    2.0890   -2.1943 C   0  0  0  0  0  0  0  0  0  0  0  0
    6.7379    0.7730   -1.8309 C   0  0  0  0  0  0  0  0  0  0  0  0
    7.7539    0.0865   -2.5097 C   0  0  0  0  0  0  0  0  0  0  0  0
    8.4062    0.6802   -3.5915 C   0  0  0  0  0  0  0  0  0  0  0  0
    9.5577   -0.2923   -4.5793 S   0  0  0  0  0  0  0  0  0  0  0  0
   11.0903    0.5012   -3.9717 C   0  0  0  0  0  0  0  0  0  0  0  0
   11.9289    0.9525   -5.1618 C   0  0  0  0  0  0  0  0  0  0  0  0
    8.1029    1.9982   -3.9488 C   0  0  0  0  0  0  0  0  0  0  0  0
    7.1487    2.7109   -3.2226 C   0  0  0  0  0  0  0  0  0  0  0  0
    8.7212    2.5882   -5.0059 F   0  0  0  0  0  0  0  0  0  0  0  0
    4.2728    3.3512   -2.4983 C   0  0  0  0  0  0  0  0  0  0  0  0
    4.1018    3.0723   -4.1526 S   0  0  0  0  0  0  0  0  0  0  0  0
    5.6639    2.3240    0.8414 C   0  0  0  0  0  0  0  0  0  0  0  0
    5.0687    2.5803    2.0883 C   0  0  0  0  0  0  0  0  0  0  0  0
    3.7229    3.5549    1.8592 S   0  0  0  0  0  0  0  0  0  0  0  0
    5.3231    1.9067    3.3721 C   0  0  0  0  0  0  0  0  0  0  0  0
    5.9019    0.6500    3.5461 C   0  0  0  0  0  0  0  0  0  0  0  0
    5.7116    0.1317    4.8422 C   0  0  0  0  0  0  0  0  0  0  0  0
    6.1226   -1.1355    5.3069 C   0  0  0  0  0  0  0  0  0  0  0  0
    6.7751   -2.1106    4.4113 C   0  0  0  0  0  0  0  0  0  0  0  0
    8.1457   -2.3817    4.5259 C   0  0  0  0  0  0  0  0  0  0  0  0
    8.7502   -3.3051    3.6681 C   0  0  0  0  0  0  0  0  0  0  0  0
    7.9860   -3.9661    2.6934 C   0  0  0  0  0  0  0  0  0  0  0  0
    8.7631   -5.1587    1.5988 S   0  0  0  0  0  0  0  0  0  0  0  0
    8.6637   -6.5578    2.7733 C   0  0  0  0  0  0  0  0  0  0  0  0
    7.2443   -7.1070    2.8800 C   0  0  0  0  0  0  0  0  0  0  0  0
    6.6192   -3.6940    2.5801 C   0  0  0  0  0  0  0  0  0  0  0  0
    5.8704   -4.3325    1.6433 F   0  0  0  0  0  0  0  0  0  0  0  0
    6.0157   -2.7664    3.4333 C   0  0  0  0  0  0  0  0  0  0  0  0
    5.7976   -1.4714    6.6330 C   0  0  0  0  0  0  0  0  0  0  0  0
    5.0587   -0.6244    7.4629 C   0  0  0  0  0  0  0  0  0  0  0  0
    4.6095    0.6295    6.9976 C   0  0  0  0  0  0  0  0  0  0  0  0
    3.7218    1.4993    7.8073 C   0  0  0  0  0  0  0  0  0  0  0  0
    4.1122    1.9425    9.0834 C   0  0  0  0  0  0  0  0  0  0  0  0
    3.2594    2.7558    9.8390 C   0  0  0  0  0  0  0  0  0  0  0  0
    2.0071    3.1239    9.3327 C   0  0  0  0  0  0  0  0  0  0  0  0
    0.9328    4.2083   10.2883 S   0  0  0  0  0  0  0  0  0  0  0  0
   -0.0433    2.8702   11.0623 C   0  0  0  0  0  0  0  0  0  0  0  0
    0.6892    2.2831   12.2600 C   0  0  0  0  0  0  0  0  0  0  0  0
    1.6154    2.6945    8.0623 C   0  0  0  0  0  0  0  0  0  0  0  0
    2.4651    1.8784    7.3071 C   0  0  0  0  0  0  0  0  0  0  0  0
    0.4162    3.0637    7.5465 F   0  0  0  0  0  0  0  0  0  0  0  0
    4.9822    0.9785    5.6828 C   0  0  0  0  0  0  0  0  0  0  0  0
    4.5788    2.3629    4.8229 S   0  0  0  0  0  0  0  0  0  0  0  0
    4.7731   -1.2049    8.7159 C   0  0  0  0  0  0  0  0  0  0  0  0
    5.3078   -2.4824    8.8676 C   0  0  0  0  0  0  0  0  0  0  0  0
    6.1048   -2.9113    7.4462 S   0  0  0  0  0  0  0  0  0  0  0  0
    3.8206   -1.0283    1.4866 H   0  0  0  0  0  0  0  0  0  0  0  0
    5.0717   -2.2670   -0.5407 H   0  0  0  0  0  0  0  0  0  0  0  0
    6.2168   -2.4322   -2.7397 H   0  0  0  0  0  0  0  0  0  0  0  0
    7.1420   -3.9098   -3.2126 H   0  0  0  0  0  0  0  0  0  0  0  0
    6.9645   -3.4994   -1.4627 H   0  0  0  0  0  0  0  0  0  0  0  0
    2.3994   -7.6444   -3.3944 H   0  0  0  0  0  0  0  0  0  0  0  0
    1.1175   -6.5377   -2.7689 H   0  0  0  0  0  0  0  0  0  0  0  0
    2.1453   -7.4962   -1.6101 H   0  0  0  0  0  0  0  0  0  0  0  0
    1.1116   -5.2746   -0.8003 H   0  0  0  0  0  0  0  0  0  0  0  0
   -0.4786   -4.8358    0.6782 H   0  0  0  0  0  0  0  0  0  0  0  0
   -0.9503   -2.7956    2.8912 H   0  0  0  0  0  0  0  0  0  0  0  0
   -2.2723   -3.9807   -0.4795 H   0  0  0  0  0  0  0  0  0  0  0  0
   -3.0913   -2.9346   -2.6452 H   0  0  0  0  0  0  0  0  0  0  0  0
   -1.9248   -4.3351   -2.8050 H   0  0  0  0  0  0  0  0  0  0  0  0
   -3.1021   -3.9697   -4.1234 H   0  0  0  0  0  0  0  0  0  0  0  0
   -6.0872   -5.6537   -3.3411 H   0  0  0  0  0  0  0  0  0  0  0  0
   -6.8876   -7.2382   -3.0915 H   0  0  0  0  0  0  0  0  0  0  0  0
   -5.0951   -7.1489   -2.9696 H   0  0  0  0  0  0  0  0  0  0  0  0
   -6.3453   -6.2870    1.1960 H   0  0  0  0  0  0  0  0  0  0  0  0
   -6.0095   -5.9970    4.6633 H   0  0  0  0  0  0  0  0  0  0  0  0
   -7.9805   -4.7612    4.0856 H   0  0  0  0  0  0  0  0  0  0  0  0
   -5.3154   -2.3346    3.1242 H   0  0  0  0  0  0  0  0  0  0  0  0
   -2.4233   -1.1564    0.2344 H   0  0  0  0  0  0  0  0  0  0  0  0
   -0.6601   -0.1795    1.6475 H   0  0  0  0  0  0  0  0  0  0  0  0
    0.6904   -0.1548    5.4989 H   0  0  0  0  0  0  0  0  0  0  0  0
   -0.2036   -1.1000    4.2799 H   0  0  0  0  0  0  0  0  0  0  0  0
   -1.0130   -1.5695    6.5940 H   0  0  0  0  0  0  0  0  0  0  0  0
   -2.3194   -0.8256    5.6017 H   0  0  0  0  0  0  0  0  0  0  0  0
   -1.4172    0.1821    6.8192 H   0  0  0  0  0  0  0  0  0  0  0  0
   -5.4166    0.3745    2.9463 H   0  0  0  0  0  0  0  0  0  0  0  0
   -9.8925   -1.6730   -0.6299 H   0  0  0  0  0  0  0  0  0  0  0  0
  -11.7510   -2.5250   -2.0020 H   0  0  0  0  0  0  0  0  0  0  0  0
  -10.8566   -6.1850   -3.3785 H   0  0  0  0  0  0  0  0  0  0  0  0
  -12.4132   -6.5073   -4.2173 H   0  0  0  0  0  0  0  0  0  0  0  0
  -13.6475   -5.2830   -2.3883 H   0  0  0  0  0  0  0  0  0  0  0  0
  -12.0787   -5.0803   -1.5014 H   0  0  0  0  0  0  0  0  0  0  0  0
  -12.7332   -6.7279   -1.7936 H   0  0  0  0  0  0  0  0  0  0  0  0
   -7.0671   -3.4916   -3.3240 H   0  0  0  0  0  0  0  0  0  0  0  0
   -6.8130   -0.9613   -3.6999 H   0  0  0  0  0  0  0  0  0  0  0  0
   -3.1041   -0.9789   -4.7419 H   0  0  0  0  0  0  0  0  0  0  0  0
   -1.9976   -1.1378   -7.5812 H   0  0  0  0  0  0  0  0  0  0  0  0
   -1.0445   -3.3620   -8.0255 H   0  0  0  0  0  0  0  0  0  0  0  0
    0.9315   -6.7240   -5.5247 H   0  0  0  0  0  0  0  0  0  0  0  0
    0.4170   -5.2255   -4.6553 H   0  0  0  0  0  0  0  0  0  0  0  0
   -1.5041   -6.7605   -5.2828 H   0  0  0  0  0  0  0  0  0  0  0  0
   -1.1064   -6.5159   -7.0346 H   0  0  0  0  0  0  0  0  0  0  0  0
   -1.6660   -5.1249   -6.0154 H   0  0  0  0  0  0  0  0  0  0  0  0
    0.8390   -0.5795   -4.3770 H   0  0  0  0  0  0  0  0  0  0  0  0
   -3.4538    4.6770   -3.4939 H   0  0  0  0  0  0  0  0  0  0  0  0
   -4.0663    7.0529   -3.3815 H   0  0  0  0  0  0  0  0  0  0  0  0
   -5.1118   10.4515   -6.4004 H   0  0  0  0  0  0  0  0  0  0  0  0
   -4.8295    8.7873   -7.0160 H   0  0  0  0  0  0  0  0  0  0  0  0
   -7.0836    9.0335   -5.9533 H   0  0  0  0  0  0  0  0  0  0  0  0
   -6.3016    9.5333   -4.4011 H   0  0  0  0  0  0  0  0  0  0  0  0
   -6.0689    7.8528   -5.0391 H   0  0  0  0  0  0  0  0  0  0  0  0
   -1.6424    5.3625   -7.3545 H   0  0  0  0  0  0  0  0  0  0  0  0
    0.1879    5.0443   -5.0812 H   0  0  0  0  0  0  0  0  0  0  0  0
    1.2182    4.6836   -2.8713 H   0  0  0  0  0  0  0  0  0  0  0  0
    1.9728    6.7471   -0.9010 H   0  0  0  0  0  0  0  0  0  0  0  0
   -0.0599    7.6906    0.1400 H   0  0  0  0  0  0  0  0  0  0  0  0
   -3.1417    5.1275    0.2128 H   0  0  0  0  0  0  0  0  0  0  0  0
   -4.3113    6.1277    1.1434 H   0  0  0  0  0  0  0  0  0  0  0  0
   -4.2327    7.0520   -1.0797 H   0  0  0  0  0  0  0  0  0  0  0  0
   -2.4179    7.0767   -1.0923 H   0  0  0  0  0  0  0  0  0  0  0  0
   -3.3492    8.2065   -0.0149 H   0  0  0  0  0  0  0  0  0  0  0  0
    0.9757    2.8756    0.7176 H   0  0  0  0  0  0  0  0  0  0  0  0
    6.1723    0.2527   -1.0664 H   0  0  0  0  0  0  0  0  0  0  0  0
    7.9973   -0.9296   -2.2316 H   0  0  0  0  0  0  0  0  0  0  0  0
   10.8777    1.3825   -3.3274 H   0  0  0  0  0  0  0  0  0  0  0  0
   11.6588   -0.2462   -3.3762 H   0  0  0  0  0  0  0  0  0  0  0  0
   11.3885    1.7390   -5.7354 H   0  0  0  0  0  0  0  0  0  0  0  0
   12.8979    1.3601   -4.7983 H   0  0  0  0  0  0  0  0  0  0  0  0
   12.1343    0.0911   -5.8367 H   0  0  0  0  0  0  0  0  0  0  0  0
    6.9187    3.7316   -3.5185 H   0  0  0  0  0  0  0  0  0  0  0  0
    6.5383    1.6970    0.7213 H   0  0  0  0  0  0  0  0  0  0  0  0
    6.3789    0.1052    2.7417 H   0  0  0  0  0  0  0  0  0  0  0  0
    8.7402   -1.8855    5.2812 H   0  0  0  0  0  0  0  0  0  0  0  0
    9.8115   -3.5097    3.7583 H   0  0  0  0  0  0  0  0  0  0  0  0
    9.3327   -7.3638    2.4016 H   0  0  0  0  0  0  0  0  0  0  0  0
    9.0268   -6.2442    3.7747 H   0  0  0  0  0  0  0  0  0  0  0  0
    7.2542   -8.0254    3.5052 H   0  0  0  0  0  0  0  0  0  0  0  0
    6.8538   -7.3674    1.8720 H   0  0  0  0  0  0  0  0  0  0  0  0
    6.5726   -6.3677    3.3632 H   0  0  0  0  0  0  0  0  0  0  0  0
    4.9558   -2.5752    3.3437 H   0  0  0  0  0  0  0  0  0  0  0  0
    5.0816    1.6684    9.4864 H   0  0  0  0  0  0  0  0  0  0  0  0
    3.5735    3.0994   10.8132 H   0  0  0  0  0  0  0  0  0  0  0  0
   -1.0040    3.3080   11.4136 H   0  0  0  0  0  0  0  0  0  0  0  0
   -0.2743    2.0714   10.3281 H   0  0  0  0  0  0  0  0  0  0  0  0
    1.5874    1.7267   11.9295 H   0  0  0  0  0  0  0  0  0  0  0  0
    0.0185    1.5822   12.7955 H   0  0  0  0  0  0  0  0  0  0  0  0
    0.9956    3.0871   12.9616 H   0  0  0  0  0  0  0  0  0  0  0  0
    2.1490    1.5480    6.3250 H   0  0  0  0  0  0  0  0  0  0  0  0
    4.1898   -0.7330    9.4922 H   0  0  0  0  0  0  0  0  0  0  0  0
    5.2021   -3.1020    9.7482 H   0  0  0  0  0  0  0  0  0  0  0  0
  1  2  1  0
  1  3  2  0
  3  4  1  0
  4  5  2  0
  5  6  1  0
  6  7  1  0
  5  8  1  0
  8  9  1  0
  9 10  1  0
  8 11  2  0
 11 12  1  0
 12 13  2  0
 13 14  1  0
 14 15  2  3
 15 16  1  0
 16 17  1  0
 16 18  2  0
 18 19  1  0
 19 20  2  0
 20 21  1  0
 21 22  1  0
 20 23  1  0
 23 24  1  0
 24 25  1  0
 23 26  2  0
 26 27  1  0
 27 28  2  0
 28 29  1  0
 29 30  2  3
 30 31  1  0
 31 32  2  0
 32 33  1  0
 33 34  2  0
 34 35  1  0
 35 36  2  0
 36 37  1  0
 37 38  2  0
 38 39  1  0
 39 40  1  0
 40 41  1  0
 38 42  1  0
 42 43  1  0
 42 44  2  0
 34 45  1  0
 45 46  2  0
 46 47  1  0
 47 48  1  0
 48 49  2  0
 49 50  1  0
 50 51  2  0
 51 52  1  0
 52 53  1  0
 53 54  1  0
 51 55  1  0
 55 56  2  0
 55 57  1  0
 47 58  2  0
 58 59  1  0
 46 60  1  0
 60 61  2  0
 61 62  1  0
 61 63  1  0
 63 64  2  0
 64 65  1  0
 65 66  2  0
 66 67  1  0
 67 68  2  0
 68 69  1  0
 69 70  2  0
 70 71  1  0
 71 72  1  0
 72 73  1  0
 70 74  1  0
 74 75  1  0
 74 76  2  0
 66 77  1  0
 77 78  2  0
 78 79  1  0
 79 80  1  0
 80 81  2  0
 81 82  1  0
 82 83  2  0
 83 84  1  0
 84 85  1  0
 85 86  1  0
 83 87  1  0
 87 88  2  0
 87 89  1  0
 79 90  2  0
 90 91  1  0
 78 92  1  0
 92 93  2  0
 93 94  1  0
 93 95  1  0
 95 96  2  0
 96 97  1  0
 97 98  2  0
 98 99  1  0
 99100  2  0
100101  1  0
101102  2  0
102103  1  0
103104  1  0
104105  1  0
102106  1  0
106107  1  0
106108  2  0
 98109  1  0
109110  2  0
110111  1  0
111112  1  0
112113  2  0
113114  1  0
114115  2  0
115116  1  0
116117  1  0
117118  1  0
115119  1  0
119120  2  0
119121  1  0
111122  2  0
122123  1  0
110124  1  0
124125  2  0
125126  1  0
125127  1  0
127128  2  0
128129  1  0
129130  2  0
130131  1  0
131132  2  0
132133  1  0
133134  2  0
134135  1  0
135136  1  0
136137  1  0
134138  1  0
138139  1  0
138140  2  0
130141  1  0
141142  2  0
142143  1  0
143144  1  0
144145  2  0
145146  1  0
146147  2  0
147148  1  0
148149  1  0
149150  1  0
147151  1  0
151152  2  0
151153  1  0
143154  2  0
154155  1  0
142156  1  0
156157  2  0
157158  1  0
 13  2  1  0
 28 17  1  0
 59 31  1  0
 91 63  1  0
123 95  1  0
155127  1  0
 12  3  1  0
 27 18  1  0
 58 33  1  0
 90 65  1  0
122 97  1  0
154129  1  0
 44 35  1  0
 62 45  1  0
 76 67  1  0
 94 77  1  0
108 99  1  0
126109  1  0
140131  1  0
158141  1  0
 56 48  1  0
 88 80  1  0
120112  1  0
152144  1  0
  1159  1  0
  4160  1  0
  7161  1  0
  7162  1  0
  7163  1  0
 10164  1  0
 10165  1  0
 10166  1  0
 11167  1  0
 14168  1  0
 15169  1  0
 19170  1  0
 22171  1  0
 22172  1  0
 22173  1  0
 25174  1  0
 25175  1  0
 25176  1  0
 26177  1  0
 29178  1  0
 30179  1  0
 32180  1  0
 36181  1  0
 37182  1  0
 40183  1  0
 40184  1  0
 41185  1  0
 41186  1  0
 41187  1  0
 44188  1  0
 49189  1  0
 50190  1  0
 53191  1  0
 53192  1  0
 54193  1  0
 54194  1  0
 54195  1  0
 56196  1  0
 60197  1  0
 64198  1  0
 68199  1  0
 69200  1  0
 72201  1  0
 72202  1  0
 73203  1  0
 73204  1  0
 73205  1  0
 76206  1  0
 81207  1  0
 82208  1  0
 85209  1  0
 85210  1  0
 86211  1  0
 86212  1  0
 86213  1  0
 88214  1  0
 92215  1  0
 96216  1  0
100217  1  0
101218  1  0
104219  1  0
104220  1  0
105221  1  0
105222  1  0
105223  1  0
108224  1  0
113225  1  0
114226  1  0
117227  1  0
117228  1  0
118229  1  0
118230  1  0
118231  1  0
120232  1  0
124233  1  0
128234  1  0
132235  1  0
133236  1  0
136237  1  0
136238  1  0
137239  1  0
137240  1  0
137241  1  0
140242  1  0
145243  1  0
146244  1  0
149245  1  0
149246  1  0
150247  1  0
150248  1  0
150249  1  0
152250  1  0
156251  1  0
157252  1  0
M  END

