
     RDKit          3D

227247  0  0  0  0  0  0  0  0999 V2000
    5.9877   -4.0965    6.8432 C   0  0  0  0  0  0  0  0  0  0  0  0
    6.0412   -2.7066    6.7816 C   0  0  0  0  0  0  0  0  0  0  0  0
    4.7734   -2.1063    6.6903 C   0  0  0  0  0  0  0  0  0  0  0  0
    4.4974   -0.7230    6.6428 C   0  0  0  0  0  0  0  0  0  0  0  0
    5.5678    0.2951    6.6035 C   0  0  0  0  0  0  0  0  0  0  0  0
    6.4969    0.3036    5.5514 C   0  0  0  0  0  0  0  0  0  0  0  0
    7.4777    1.2961    5.4875 C   0  0  0  0  0  0  0  0  0  0  0  0
    7.5327    2.2942    6.4675 C   0  0  0  0  0  0  0  0  0  0  0  0
    8.7788    3.5848    6.3598 S   0  0  0  0  0  0  0  0  0  0  0  0
    7.8034    4.6590    5.2455 C   0  0  0  0  0  0  0  0  0  0  0  0
    6.7568    5.4571    6.0152 C   0  0  0  0  0  0  0  0  0  0  0  0
    6.6220    2.2756    7.5328 C   0  0  0  0  0  0  0  0  0  0  0  0
    6.6804    3.2219    8.5046 F   0  0  0  0  0  0  0  0  0  0  0  0
    5.6396    1.2833    7.5950 C   0  0  0  0  0  0  0  0  0  0  0  0
    3.1419   -0.3469    6.5902 C   0  0  0  0  0  0  0  0  0  0  0  0
    2.1024   -1.2797    6.5705 C   0  0  0  0  0  0  0  0  0  0  0  0
    2.3781   -2.6622    6.6124 C   0  0  0  0  0  0  0  0  0  0  0  0
    1.3069   -3.6732    6.5395 C   0  0  0  0  0  0  0  0  0  0  0  0
    0.4017   -3.8281    7.5997 C   0  0  0  0  0  0  0  0  0  0  0  0
   -0.6140   -4.7864    7.5207 C   0  0  0  0  0  0  0  0  0  0  0  0
   -0.7455   -5.5802    6.3738 C   0  0  0  0  0  0  0  0  0  0  0  0
   -2.0513   -6.8131    6.2839 S   0  0  0  0  0  0  0  0  0  0  0  0
   -3.2679   -5.7024    5.4857 C   0  0  0  0  0  0  0  0  0  0  0  0
   -4.0011   -4.8586    6.5234 C   0  0  0  0  0  0  0  0  0  0  0  0
    0.1626   -5.4334    5.3164 C   0  0  0  0  0  0  0  0  0  0  0  0
    1.1857   -4.4833    5.4005 C   0  0  0  0  0  0  0  0  0  0  0  0
    0.0546   -6.2035    4.2055 F   0  0  0  0  0  0  0  0  0  0  0  0
    3.7292   -3.0382    6.6784 C   0  0  0  0  0  0  0  0  0  0  0  0
    4.3757   -4.5883    6.7872 S   0  0  0  0  0  0  0  0  0  0  0  0
    0.8345   -0.6926    6.4200 C   0  0  0  0  0  0  0  0  0  0  0  0
    0.8791    0.7003    6.3293 C   0  0  0  0  0  0  0  0  0  0  0  0
    2.4906    1.1971    6.4084 S   0  0  0  0  0  0  0  0  0  0  0  0
   -0.2671    1.5401    5.9259 C   0  0  0  0  0  0  0  0  0  0  0  0
   -1.5365    0.9521    4.9901 S   0  0  0  0  0  0  0  0  0  0  0  0
   -0.4349    2.9292    6.0312 C   0  0  0  0  0  0  0  0  0  0  0  0
    0.3705    3.8148    6.7567 C   0  0  0  0  0  0  0  0  0  0  0  0
    0.0643    5.1930    6.7664 C   0  0  0  0  0  0  0  0  0  0  0  0
    0.8487    6.1214    7.4684 O   0  0  0  0  0  0  0  0  0  0  0  0
    2.0402    5.8017    8.1780 C   0  0  0  0  0  0  0  0  0  0  0  0
   -1.0595    5.6722    6.0657 C   0  0  0  0  0  0  0  0  0  0  0  0
   -1.3381    7.0488    6.1164 O   0  0  0  0  0  0  0  0  0  0  0  0
   -2.4344    7.6752    5.4540 C   0  0  0  0  0  0  0  0  0  0  0  0
   -1.8760    4.7766    5.3447 C   0  0  0  0  0  0  0  0  0  0  0  0
   -1.5583    3.4158    5.3286 C   0  0  0  0  0  0  0  0  0  0  0  0
   -2.2851    2.4183    4.6752 C   0  0  0  0  0  0  0  0  0  0  0  0
   -3.3219    2.5500    3.6432 C   0  0  0  0  0  0  0  0  0  0  0  0
   -3.1765    3.3997    2.6155 C   0  0  0  0  0  0  0  0  0  0  0  0
   -3.8188    3.1706    1.3086 C   0  0  0  0  0  0  0  0  0  0  0  0
   -4.7250    2.1537    0.9901 C   0  0  0  0  0  0  0  0  0  0  0  0
   -4.8316    1.9194   -0.3907 C   0  0  0  0  0  0  0  0  0  0  0  0
   -5.5347    0.8614   -1.0117 C   0  0  0  0  0  0  0  0  0  0  0  0
   -6.3258   -0.1161   -0.2228 C   0  0  0  0  0  0  0  0  0  0  0  0
   -5.7277   -0.8502    0.8136 C   0  0  0  0  0  0  0  0  0  0  0  0
   -6.5162   -1.5958    1.6957 C   0  0  0  0  0  0  0  0  0  0  0  0
   -7.9080   -1.6348    1.5313 C   0  0  0  0  0  0  0  0  0  0  0  0
   -8.9429   -2.4161    2.7805 S   0  0  0  0  0  0  0  0  0  0  0  0
   -8.6637   -4.1345    2.2317 C   0  0  0  0  0  0  0  0  0  0  0  0
   -9.2341   -4.3945    0.8413 C   0  0  0  0  0  0  0  0  0  0  0  0
   -8.4963   -0.9869    0.4392 C   0  0  0  0  0  0  0  0  0  0  0  0
   -9.8423   -1.0255    0.2625 F   0  0  0  0  0  0  0  0  0  0  0  0
   -7.7095   -0.2254   -0.4308 C   0  0  0  0  0  0  0  0  0  0  0  0
   -5.4135    0.7608   -2.4108 C   0  0  0  0  0  0  0  0  0  0  0  0
   -4.6330    1.6437   -3.1625 C   0  0  0  0  0  0  0  0  0  0  0  0
   -3.9526    2.7065   -2.5443 C   0  0  0  0  0  0  0  0  0  0  0  0
   -3.0879    3.6232   -3.3069 C   0  0  0  0  0  0  0  0  0  0  0  0
   -3.6000    4.8386   -3.7805 C   0  0  0  0  0  0  0  0  0  0  0  0
   -2.7711    5.7253   -4.4733 C   0  0  0  0  0  0  0  0  0  0  0  0
   -1.4279    5.4025   -4.7036 C   0  0  0  0  0  0  0  0  0  0  0  0
   -0.3554    6.5782   -5.5414 S   0  0  0  0  0  0  0  0  0  0  0  0
   -0.5599    5.8468   -7.2045 C   0  0  0  0  0  0  0  0  0  0  0  0
   -1.8433    6.3363   -7.8633 C   0  0  0  0  0  0  0  0  0  0  0  0
   -0.9150    4.1860   -4.2335 C   0  0  0  0  0  0  0  0  0  0  0  0
   -1.7444    3.2974   -3.5405 C   0  0  0  0  0  0  0  0  0  0  0  0
    0.3863    3.8633   -4.4424 F   0  0  0  0  0  0  0  0  0  0  0  0
   -4.0658    2.8080   -1.1516 C   0  0  0  0  0  0  0  0  0  0  0  0
   -3.2158    3.8302   -0.1233 S   0  0  0  0  0  0  0  0  0  0  0  0
   -4.5255    1.2821   -4.5108 C   0  0  0  0  0  0  0  0  0  0  0  0
   -5.2004    0.1018   -4.8222 C   0  0  0  0  0  0  0  0  0  0  0  0
   -5.9535   -0.4728   -3.4200 S   0  0  0  0  0  0  0  0  0  0  0  0
   -4.9742   -0.6582   -6.0687 C   0  0  0  0  0  0  0  0  0  0  0  0
   -3.6336   -0.4073   -7.0574 S   0  0  0  0  0  0  0  0  0  0  0  0
   -5.6486   -1.7859   -6.5570 C   0  0  0  0  0  0  0  0  0  0  0  0
   -6.8404   -2.3224   -6.0596 C   0  0  0  0  0  0  0  0  0  0  0  0
   -7.3836   -3.4856   -6.6441 C   0  0  0  0  0  0  0  0  0  0  0  0
   -8.5560   -4.0813   -6.1562 O   0  0  0  0  0  0  0  0  0  0  0  0
   -9.2828   -3.6216   -5.0182 C   0  0  0  0  0  0  0  0  0  0  0  0
   -6.7458   -4.0853   -7.7480 C   0  0  0  0  0  0  0  0  0  0  0  0
   -7.3189   -5.2436   -8.2969 O   0  0  0  0  0  0  0  0  0  0  0  0
   -6.7793   -5.9762   -9.3905 C   0  0  0  0  0  0  0  0  0  0  0  0
   -5.5632   -3.5190   -8.2711 C   0  0  0  0  0  0  0  0  0  0  0  0
   -5.0239   -2.3749   -7.6750 C   0  0  0  0  0  0  0  0  0  0  0  0
   -3.8497   -1.7319   -8.0700 C   0  0  0  0  0  0  0  0  0  0  0  0
   -2.9817   -2.0922   -9.2092 C   0  0  0  0  0  0  0  0  0  0  0  0
   -1.6384   -2.0455   -9.2000 C   0  0  0  0  0  0  0  0  0  0  0  0
   -0.7905   -1.8707   -8.0013 C   0  0  0  0  0  0  0  0  0  0  0  0
   -1.0700   -2.3122   -6.7075 C   0  0  0  0  0  0  0  0  0  0  0  0
   -0.0100   -2.1010   -5.8118 C   0  0  0  0  0  0  0  0  0  0  0  0
   -0.0066   -2.4427   -4.4523 C   0  0  0  0  0  0  0  0  0  0  0  0
   -1.1853   -3.0262   -3.7956 C   0  0  0  0  0  0  0  0  0  0  0  0
   -2.1848   -2.1964   -3.2761 C   0  0  0  0  0  0  0  0  0  0  0  0
   -3.2794   -2.7538   -2.6112 C   0  0  0  0  0  0  0  0  0  0  0  0
   -3.3963   -4.1450   -2.4921 C   0  0  0  0  0  0  0  0  0  0  0  0
   -4.8023   -4.8499   -1.6291 S   0  0  0  0  0  0  0  0  0  0  0  0
   -4.0273   -4.6787    0.0128 C   0  0  0  0  0  0  0  0  0  0  0  0
   -4.8181   -5.4700    1.0415 C   0  0  0  0  0  0  0  0  0  0  0  0
   -2.4009   -4.9770   -3.0211 C   0  0  0  0  0  0  0  0  0  0  0  0
   -2.4985   -6.3257   -2.9037 F   0  0  0  0  0  0  0  0  0  0  0  0
   -1.2963   -4.4183   -3.6698 C   0  0  0  0  0  0  0  0  0  0  0  0
    1.1806   -2.2277   -3.7439 C   0  0  0  0  0  0  0  0  0  0  0  0
    2.3364   -1.6976   -4.3274 C   0  0  0  0  0  0  0  0  0  0  0  0
    2.3211   -1.3034   -5.6914 C   0  0  0  0  0  0  0  0  0  0  0  0
    3.4758   -0.6490   -6.3562 C   0  0  0  0  0  0  0  0  0  0  0  0
    4.7314   -1.2744   -6.4150 C   0  0  0  0  0  0  0  0  0  0  0  0
    5.7802   -0.6854   -7.1300 C   0  0  0  0  0  0  0  0  0  0  0  0
    5.5861    0.5265   -7.8017 C   0  0  0  0  0  0  0  0  0  0  0  0
    6.9184    1.2227   -8.7930 S   0  0  0  0  0  0  0  0  0  0  0  0
    7.3831    2.5252   -7.5982 C   0  0  0  0  0  0  0  0  0  0  0  0
    8.0923    1.9446   -6.3834 C   0  0  0  0  0  0  0  0  0  0  0  0
    4.3367    1.1568   -7.7469 C   0  0  0  0  0  0  0  0  0  0  0  0
    3.2966    0.5823   -7.0109 C   0  0  0  0  0  0  0  0  0  0  0  0
    4.1273    2.3245   -8.4062 F   0  0  0  0  0  0  0  0  0  0  0  0
    1.1210   -1.5331   -6.4030 C   0  0  0  0  0  0  0  0  0  0  0  0
    0.7941   -1.2849   -8.0390 S   0  0  0  0  0  0  0  0  0  0  0  0
    3.4218   -1.6371   -3.4239 C   0  0  0  0  0  0  0  0  0  0  0  0
    3.0988   -2.1024   -2.1357 C   0  0  0  0  0  0  0  0  0  0  0  0
    1.4848   -2.5964   -2.1408 S   0  0  0  0  0  0  0  0  0  0  0  0
    3.9799   -2.3235   -0.9617 C   0  0  0  0  0  0  0  0  0  0  0  0
    3.5565   -3.3800    0.2844 S   0  0  0  0  0  0  0  0  0  0  0  0
    5.2490   -1.8072   -0.6388 C   0  0  0  0  0  0  0  0  0  0  0  0
    5.9741   -0.8471   -1.3565 C   0  0  0  0  0  0  0  0  0  0  0  0
    7.2649   -0.4710   -0.9263 C   0  0  0  0  0  0  0  0  0  0  0  0
    8.0525    0.4374   -1.6504 O   0  0  0  0  0  0  0  0  0  0  0  0
    7.7187    0.9390   -2.9411 C   0  0  0  0  0  0  0  0  0  0  0  0
    7.8017   -1.0135    0.2542 C   0  0  0  0  0  0  0  0  0  0  0  0
    9.0917   -0.6159    0.6408 O   0  0  0  0  0  0  0  0  0  0  0  0
    9.7784   -1.1124    1.7857 C   0  0  0  0  0  0  0  0  0  0  0  0
    7.0498   -1.9315    1.0116 C   0  0  0  0  0  0  0  0  0  0  0  0
    5.7818   -2.3249    0.5664 C   0  0  0  0  0  0  0  0  0  0  0  0
    4.9407   -3.2267    1.2247 C   0  0  0  0  0  0  0  0  0  0  0  0
    5.1965   -3.9303    2.5011 C   0  0  0  0  0  0  0  0  0  0  0  0
    4.3502   -4.8286    3.0023 C   0  0  0  0  0  0  0  0  0  0  0  0
    6.8427   -4.7556    6.9287 H   0  0  0  0  0  0  0  0  0  0  0  0
    6.9721   -2.1579    6.8218 H   0  0  0  0  0  0  0  0  0  0  0  0
    6.4466   -0.4466    4.7701 H   0  0  0  0  0  0  0  0  0  0  0  0
    8.1867    1.2961    4.6695 H   0  0  0  0  0  0  0  0  0  0  0  0
    8.5042    5.3692    4.7554 H   0  0  0  0  0  0  0  0  0  0  0  0
    7.3132    4.0595    4.4483 H   0  0  0  0  0  0  0  0  0  0  0  0
    6.2722    6.1861    5.3316 H   0  0  0  0  0  0  0  0  0  0  0  0
    5.9716    4.7859    6.4210 H   0  0  0  0  0  0  0  0  0  0  0  0
    7.2349    6.0164    6.8488 H   0  0  0  0  0  0  0  0  0  0  0  0
    4.9311    1.2893    8.4140 H   0  0  0  0  0  0  0  0  0  0  0  0
    0.4848   -3.2112    8.4838 H   0  0  0  0  0  0  0  0  0  0  0  0
   -1.2997   -4.9093    8.3487 H   0  0  0  0  0  0  0  0  0  0  0  0
   -2.7730   -5.0429    4.7387 H   0  0  0  0  0  0  0  0  0  0  0  0
   -4.0089   -6.3323    4.9485 H   0  0  0  0  0  0  0  0  0  0  0  0
   -4.4780   -5.5145    7.2836 H   0  0  0  0  0  0  0  0  0  0  0  0
   -3.3026   -4.1590    7.0252 H   0  0  0  0  0  0  0  0  0  0  0  0
   -4.7879   -4.2549    6.0211 H   0  0  0  0  0  0  0  0  0  0  0  0
    1.8754   -4.3690    4.5756 H   0  0  0  0  0  0  0  0  0  0  0  0
   -0.0813   -1.2601    6.3260 H   0  0  0  0  0  0  0  0  0  0  0  0
    1.2056    3.4396    7.3286 H   0  0  0  0  0  0  0  0  0  0  0  0
    2.4621    6.7316    8.6128 H   0  0  0  0  0  0  0  0  0  0  0  0
    2.7890    5.3614    7.4867 H   0  0  0  0  0  0  0  0  0  0  0  0
    1.8174    5.0932    9.0029 H   0  0  0  0  0  0  0  0  0  0  0  0
   -3.3949    7.2705    5.8372 H   0  0  0  0  0  0  0  0  0  0  0  0
   -2.3596    7.5119    4.3571 H   0  0  0  0  0  0  0  0  0  0  0  0
   -2.4035    8.7665    5.6546 H   0  0  0  0  0  0  0  0  0  0  0  0
   -2.7554    5.1271    4.8269 H   0  0  0  0  0  0  0  0  0  0  0  0
   -4.0303    1.7371    3.5804 H   0  0  0  0  0  0  0  0  0  0  0  0
   -2.3806    4.1316    2.6426 H   0  0  0  0  0  0  0  0  0  0  0  0
   -5.2344    1.5618    1.7325 H   0  0  0  0  0  0  0  0  0  0  0  0
   -4.6574   -0.7989    0.9772 H   0  0  0  0  0  0  0  0  0  0  0  0
   -6.0521   -2.0971    2.5355 H   0  0  0  0  0  0  0  0  0  0  0  0
   -9.1688   -4.8048    2.9604 H   0  0  0  0  0  0  0  0  0  0  0  0
   -7.5804   -4.3610    2.2555 H   0  0  0  0  0  0  0  0  0  0  0  0
   -8.6167   -3.8916    0.0678 H   0  0  0  0  0  0  0  0  0  0  0  0
   -9.2262   -5.4864    0.6401 H   0  0  0  0  0  0  0  0  0  0  0  0
  -10.2793   -4.0235    0.7782 H   0  0  0  0  0  0  0  0  0  0  0  0
   -8.1892    0.3347   -1.2253 H   0  0  0  0  0  0  0  0  0  0  0  0
   -4.6370    5.0985   -3.6066 H   0  0  0  0  0  0  0  0  0  0  0  0
   -3.1729    6.6677   -4.8247 H   0  0  0  0  0  0  0  0  0  0  0  0
    0.3030    6.1634   -7.8272 H   0  0  0  0  0  0  0  0  0  0  0  0
   -0.5569    4.7370   -7.1535 H   0  0  0  0  0  0  0  0  0  0  0  0
   -2.7289    5.9524   -7.3176 H   0  0  0  0  0  0  0  0  0  0  0  0
   -1.8834    5.9663   -8.9105 H   0  0  0  0  0  0  0  0  0  0  0  0
   -1.8685    7.4481   -7.8755 H   0  0  0  0  0  0  0  0  0  0  0  0
   -1.3383    2.3608   -3.1747 H   0  0  0  0  0  0  0  0  0  0  0  0
   -3.9063    1.8152   -5.2227 H   0  0  0  0  0  0  0  0  0  0  0  0
   -7.3535   -1.8409   -5.2464 H   0  0  0  0  0  0  0  0  0  0  0  0
   -9.6817   -2.6033   -5.2052 H   0  0  0  0  0  0  0  0  0  0  0  0
  -10.1374   -4.3039   -4.8334 H   0  0  0  0  0  0  0  0  0  0  0  0
   -8.6279   -3.6186   -4.1197 H   0  0  0  0  0  0  0  0  0  0  0  0
   -6.7459   -5.3362  -10.2972 H   0  0  0  0  0  0  0  0  0  0  0  0
   -5.7605   -6.3408   -9.1395 H   0  0  0  0  0  0  0  0  0  0  0  0
   -7.4299   -6.8510   -9.5958 H   0  0  0  0  0  0  0  0  0  0  0  0
   -5.0661   -3.9689   -9.1202 H   0  0  0  0  0  0  0  0  0  0  0  0
   -3.4716   -2.3702  -10.1326 H   0  0  0  0  0  0  0  0  0  0  0  0
   -1.1246   -2.1998  -10.1414 H   0  0  0  0  0  0  0  0  0  0  0  0
   -1.9898   -2.8104   -6.4283 H   0  0  0  0  0  0  0  0  0  0  0  0
   -2.1024   -1.1190   -3.3586 H   0  0  0  0  0  0  0  0  0  0  0  0
   -4.0265   -2.1094   -2.1726 H   0  0  0  0  0  0  0  0  0  0  0  0
   -4.0166   -3.6046    0.2974 H   0  0  0  0  0  0  0  0  0  0  0  0
   -2.9818   -5.0571   -0.0052 H   0  0  0  0  0  0  0  0  0  0  0  0
   -4.4323   -5.2545    2.0616 H   0  0  0  0  0  0  0  0  0  0  0  0
   -4.7192   -6.5581    0.8395 H   0  0  0  0  0  0  0  0  0  0  0  0
   -5.8887   -5.1894    0.9932 H   0  0  0  0  0  0  0  0  0  0  0  0
   -0.5213   -5.0658   -4.0597 H   0  0  0  0  0  0  0  0  0  0  0  0
    4.8888   -2.2362   -5.9415 H   0  0  0  0  0  0  0  0  0  0  0  0
    6.7416   -1.1842   -7.1790 H   0  0  0  0  0  0  0  0  0  0  0  0
    8.0760    3.2288   -8.1089 H   0  0  0  0  0  0  0  0  0  0  0  0
    6.4832    3.0962   -7.2809 H   0  0  0  0  0  0  0  0  0  0  0  0
    7.3998    1.2986   -5.8075 H   0  0  0  0  0  0  0  0  0  0  0  0
    8.4355    2.7697   -5.7258 H   0  0  0  0  0  0  0  0  0  0  0  0
    8.9758    1.3507   -6.7012 H   0  0  0  0  0  0  0  0  0  0  0  0
    2.3362    1.0828   -6.9754 H   0  0  0  0  0  0  0  0  0  0  0  0
    4.4090   -1.3370   -3.7281 H   0  0  0  0  0  0  0  0  0  0  0  0
    5.5434   -0.3702   -2.2171 H   0  0  0  0  0  0  0  0  0  0  0  0
    8.5555    1.5652   -3.3136 H   0  0  0  0  0  0  0  0  0  0  0  0
    7.5645    0.0946   -3.6453 H   0  0  0  0  0  0  0  0  0  0  0  0
    6.8037    1.5647   -2.8840 H   0  0  0  0  0  0  0  0  0  0  0  0
   10.7866   -0.6524    1.8348 H   0  0  0  0  0  0  0  0  0  0  0  0
    9.8959   -2.2151    1.7114 H   0  0  0  0  0  0  0  0  0  0  0  0
    9.2226   -0.8467    2.7089 H   0  0  0  0  0  0  0  0  0  0  0  0
    7.4539   -2.3420    1.9247 H   0  0  0  0  0  0  0  0  0  0  0  0
    6.1029   -3.7267    3.0543 H   0  0  0  0  0  0  0  0  0  0  0  0
    3.4269   -5.0813    2.5011 H   0  0  0  0  0  0  0  0  0  0  0  0
    4.5878   -5.3342    3.9260 H   0  0  0  0  0  0  0  0  0  0  0  0
  1  2  2  0
  2  3  1  0
  3  4  2  0
  4  5  1  0
  5  6  2  0
  6  7  1  0
  7  8  2  0
  8  9  1  0
  9 10  1  0
 10 11  1  0
  8 12  1  0
 12 13  1  0
 12 14  2  0
  4 15  1  0
 15 16  2  0
 16 17  1  0
 17 18  1  0
 18 19  2  0
 19 20  1  0
 20 21  2  0
 21 22  1  0
 22 23  1  0
 23 24  1  0
 21 25  1  0
 25 26  2  0
 25 27  1  0
 17 28  2  0
 28 29  1  0
 16 30  1  0
 30 31  2  0
 31 32  1  0
 31 33  1  0
 33 34  1  0
 33 35  2  0
 35 36  1  0
 36 37  2  0
 37 38  1  0
 38 39  1  0
 37 40  1  0
 40 41  1  0
 41 42  1  0
 40 43  2  0
 43 44  1  0
 44 45  2  0
 45 46  1  0
 46 47  2  3
 47 48  1  0
 48 49  2  0
 49 50  1  0
 50 51  2  0
 51 52  1  0
 52 53  2  0
 53 54  1  0
 54 55  2  0
 55 56  1  0
 56 57  1  0
 57 58  1  0
 55 59  1  0
 59 60  1  0
 59 61  2  0
 51 62  1  0
 62 63  2  0
 63 64  1  0
 64 65  1  0
 65 66  2  0
 66 67  1  0
 67 68  2  0
 68 69  1  0
 69 70  1  0
 70 71  1  0
 68 72  1  0
 72 73  2  0
 72 74  1  0
 64 75  2  0
 75 76  1  0
 63 77  1  0
 77 78  2  0
 78 79  1  0
 78 80  1  0
 80 81  1  0
 80 82  2  0
 82 83  1  0
 83 84  2  0
 84 85  1  0
 85 86  1  0
 84 87  1  0
 87 88  1  0
 88 89  1  0
 87 90  2  0
 90 91  1  0
 91 92  2  0
 92 93  1  0
 93 94  2  3
 94 95  1  0
 95 96  2  0
 96 97  1  0
 97 98  2  0
 98 99  1  0
 99100  2  0
100101  1  0
101102  2  0
102103  1  0
103104  1  0
104105  1  0
102106  1  0
106107  1  0
106108  2  0
 98109  1  0
109110  2  0
110111  1  0
111112  1  0
112113  2  0
113114  1  0
114115  2  0
115116  1  0
116117  1  0
117118  1  0
115119  1  0
119120  2  0
119121  1  0
111122  2  0
122123  1  0
110124  1  0
124125  2  0
125126  1  0
125127  1  0
127128  1  0
127129  2  0
129130  1  0
130131  2  0
131132  1  0
132133  1  0
131134  1  0
134135  1  0
135136  1  0
134137  2  0
137138  1  0
138139  2  0
139140  1  0
140141  2  3
 29  1  1  0
 45 34  1  0
 76 48  1  0
 92 81  1  0
123 95  1  0
139128  1  0
 28  3  1  0
 44 35  1  0
 75 50  1  0
 91 82  1  0
122 97  1  0
138129  1  0
 14  5  1  0
 32 15  1  0
 61 52  1  0
 79 62  1  0
108 99  1  0
126109  1  0
 26 18  1  0
 73 65  1  0
120112  1  0
  1142  1  0
  2143  1  0
  6144  1  0
  7145  1  0
 10146  1  0
 10147  1  0
 11148  1  0
 11149  1  0
 11150  1  0
 14151  1  0
 19152  1  0
 20153  1  0
 23154  1  0
 23155  1  0
 24156  1  0
 24157  1  0
 24158  1  0
 26159  1  0
 30160  1  0
 36161  1  0
 39162  1  0
 39163  1  0
 39164  1  0
 42165  1  0
 42166  1  0
 42167  1  0
 43168  1  0
 46169  1  0
 47170  1  0
 49171  1  0
 53172  1  0
 54173  1  0
 57174  1  0
 57175  1  0
 58176  1  0
 58177  1  0
 58178  1  0
 61179  1  0
 66180  1  0
 67181  1  0
 70182  1  0
 70183  1  0
 71184  1  0
 71185  1  0
 71186  1  0
 73187  1  0
 77188  1  0
 83189  1  0
 86190  1  0
 86191  1  0
 86192  1  0
 89193  1  0
 89194  1  0
 89195  1  0
 90196  1  0
 93197  1  0
 94198  1  0
 96199  1  0
100200  1  0
101201  1  0
104202  1  0
104203  1  0
105204  1  0
105205  1  0
105206  1  0
108207  1  0
113208  1  0
114209  1  0
117210  1  0
117211  1  0
118212  1  0
118213  1  0
118214  1  0
120215  1  0
124216  1  0
130217  1  0
133218  1  0
133219  1  0
133220  1  0
136221  1  0
136222  1  0
136223  1  0
137224  1  0
140225  1  0
141226  1  0
141227  1  0
M  END

