
     RDKit          3D

202219  0  0  0  0  0  0  0  0999 V2000
   -6.8978   10.2841    1.1627 C   0  0  0  0  0  0  0  0  0  0  0  0
   -5.2929   10.0893    1.6184 S   0  0  0  0  0  0  0  0  0  0  0  0
   -7.3274    9.0719    0.6350 C   0  0  0  0  0  0  0  0  0  0  0  0
   -8.6222    8.8258    0.1900 C   0  0  0  0  0  0  0  0  0  0  0  0
   -8.9546    7.5452   -0.2962 C   0  0  0  0  0  0  0  0  0  0  0  0
  -10.2423    7.2463   -0.7783 O   0  0  0  0  0  0  0  0  0  0  0  0
  -11.3309    8.1667   -0.8004 C   0  0  0  0  0  0  0  0  0  0  0  0
   -7.9848    6.5194   -0.3164 C   0  0  0  0  0  0  0  0  0  0  0  0
   -8.3668    5.2643   -0.8207 O   0  0  0  0  0  0  0  0  0  0  0  0
   -7.4677    4.2079   -1.1457 C   0  0  0  0  0  0  0  0  0  0  0  0
   -6.6783    6.7736    0.1721 C   0  0  0  0  0  0  0  0  0  0  0  0
   -6.3450    8.0618    0.6162 C   0  0  0  0  0  0  0  0  0  0  0  0
   -5.1096    8.4880    1.1261 C   0  0  0  0  0  0  0  0  0  0  0  0
   -3.8635    7.7301    1.3355 C   0  0  0  0  0  0  0  0  0  0  0  0
   -3.4058    6.7961    0.4928 C   0  0  0  0  0  0  0  0  0  0  0  0
   -2.1497    6.0606    0.7563 C   0  0  0  0  0  0  0  0  0  0  0  0
   -1.0298    5.6486   -0.4372 S   0  0  0  0  0  0  0  0  0  0  0  0
   -1.6723    5.5724    1.9825 C   0  0  0  0  0  0  0  0  0  0  0  0
   -2.3578    5.5841    3.2059 C   0  0  0  0  0  0  0  0  0  0  0  0
   -1.7620    5.0073    4.3484 C   0  0  0  0  0  0  0  0  0  0  0  0
   -2.3934    5.0199    5.6047 O   0  0  0  0  0  0  0  0  0  0  0  0
   -3.6580    5.6225    5.8736 C   0  0  0  0  0  0  0  0  0  0  0  0
   -0.5076    4.3796    4.2472 C   0  0  0  0  0  0  0  0  0  0  0  0
    0.0207    3.7659    5.3963 O   0  0  0  0  0  0  0  0  0  0  0  0
    1.2315    3.0081    5.4332 C   0  0  0  0  0  0  0  0  0  0  0  0
    0.1739    4.3635    3.0111 C   0  0  0  0  0  0  0  0  0  0  0  0
   -0.4111    4.9573    1.8824 C   0  0  0  0  0  0  0  0  0  0  0  0
    0.1054    4.9380    0.5829 C   0  0  0  0  0  0  0  0  0  0  0  0
    1.3280    4.2502    0.1392 C   0  0  0  0  0  0  0  0  0  0  0  0
    2.5103    4.5457    0.6840 C   0  0  0  0  0  0  0  0  0  0  0  0
    3.6173    3.5787    0.7439 C   0  0  0  0  0  0  0  0  0  0  0  0
    5.2386    4.0449    0.7115 S   0  0  0  0  0  0  0  0  0  0  0  0
    3.5606    2.3602    1.4331 C   0  0  0  0  0  0  0  0  0  0  0  0
    2.3898    1.6818    1.7869 C   0  0  0  0  0  0  0  0  0  0  0  0
    2.4474    0.6055    2.6863 C   0  0  0  0  0  0  0  0  0  0  0  0
    1.2896   -0.0950    3.0706 O   0  0  0  0  0  0  0  0  0  0  0  0
   -0.0323    0.2321    2.6392 C   0  0  0  0  0  0  0  0  0  0  0  0
    3.6819    0.2377    3.2623 C   0  0  0  0  0  0  0  0  0  0  0  0
    3.6807   -0.7503    4.2593 O   0  0  0  0  0  0  0  0  0  0  0  0
    4.7705   -0.9964    5.1434 C   0  0  0  0  0  0  0  0  0  0  0  0
    4.8654    0.8885    2.8564 C   0  0  0  0  0  0  0  0  0  0  0  0
    4.8076    1.9103    1.9005 C   0  0  0  0  0  0  0  0  0  0  0  0
    5.8846    2.6991    1.4851 C   0  0  0  0  0  0  0  0  0  0  0  0
    7.3123    2.5592    1.8534 C   0  0  0  0  0  0  0  0  0  0  0  0
    8.0133    1.4165    1.7891 C   0  0  0  0  0  0  0  0  0  0  0  0
    7.5036    0.1736    1.1953 C   0  0  0  0  0  0  0  0  0  0  0  0
    7.3389   -1.0319    1.8775 C   0  0  0  0  0  0  0  0  0  0  0  0
    6.6798   -2.0075    1.1143 C   0  0  0  0  0  0  0  0  0  0  0  0
    6.2157   -3.2579    1.5796 C   0  0  0  0  0  0  0  0  0  0  0  0
    6.4772   -3.7235    2.9586 C   0  0  0  0  0  0  0  0  0  0  0  0
    5.4179   -3.9993    3.8410 C   0  0  0  0  0  0  0  0  0  0  0  0
    5.6814   -4.4221    5.1445 C   0  0  0  0  0  0  0  0  0  0  0  0
    7.0011   -4.5761    5.5809 C   0  0  0  0  0  0  0  0  0  0  0  0
    7.3300   -5.1055    7.2669 S   0  0  0  0  0  0  0  0  0  0  0  0
    7.5331   -6.8747    6.8479 C   0  0  0  0  0  0  0  0  0  0  0  0
    6.1894   -7.5463    6.5972 C   0  0  0  0  0  0  0  0  0  0  0  0
    8.0620   -4.2884    4.7118 C   0  0  0  0  0  0  0  0  0  0  0  0
    9.3489   -4.4164    5.1266 F   0  0  0  0  0  0  0  0  0  0  0  0
    7.8001   -3.8735    3.4034 C   0  0  0  0  0  0  0  0  0  0  0  0
    5.4298   -4.0091    0.6831 C   0  0  0  0  0  0  0  0  0  0  0  0
    5.1814   -3.5937   -0.6284 C   0  0  0  0  0  0  0  0  0  0  0  0
    5.7008   -2.3748   -1.1122 C   0  0  0  0  0  0  0  0  0  0  0  0
    5.5310   -1.9697   -2.5230 C   0  0  0  0  0  0  0  0  0  0  0  0
    4.9395   -0.7399   -2.8687 C   0  0  0  0  0  0  0  0  0  0  0  0
    4.8587   -0.3529   -4.2114 C   0  0  0  0  0  0  0  0  0  0  0  0
    5.3572   -1.1894   -5.2195 C   0  0  0  0  0  0  0  0  0  0  0  0
    5.2864   -0.6605   -6.9336 S   0  0  0  0  0  0  0  0  0  0  0  0
    6.8571    0.2741   -6.8866 C   0  0  0  0  0  0  0  0  0  0  0  0
    8.0617   -0.6536   -7.0196 C   0  0  0  0  0  0  0  0  0  0  0  0
    5.9021   -2.4337   -4.8821 C   0  0  0  0  0  0  0  0  0  0  0  0
    5.9991   -2.8146   -3.5404 C   0  0  0  0  0  0  0  0  0  0  0  0
    6.3620   -3.2676   -5.8460 F   0  0  0  0  0  0  0  0  0  0  0  0
    6.4024   -1.5826   -0.1924 C   0  0  0  0  0  0  0  0  0  0  0  0
    6.9335    0.0032   -0.3819 S   0  0  0  0  0  0  0  0  0  0  0  0
    4.2323   -4.3925   -1.2856 C   0  0  0  0  0  0  0  0  0  0  0  0
    3.6822   -5.3911   -0.4805 C   0  0  0  0  0  0  0  0  0  0  0  0
    4.4557   -5.3380    1.0197 S   0  0  0  0  0  0  0  0  0  0  0  0
    2.2761   -5.7979   -0.6421 C   0  0  0  0  0  0  0  0  0  0  0  0
    1.3266   -5.3936    0.2917 C   0  0  0  0  0  0  0  0  0  0  0  0
    0.1112   -4.9865   -0.2841 C   0  0  0  0  0  0  0  0  0  0  0  0
   -0.8816   -4.1932    0.3416 C   0  0  0  0  0  0  0  0  0  0  0  0
   -0.8596   -3.8668    1.7933 C   0  0  0  0  0  0  0  0  0  0  0  0
   -1.9801   -4.1636    2.5866 C   0  0  0  0  0  0  0  0  0  0  0  0
   -1.9662   -3.9028    3.9585 C   0  0  0  0  0  0  0  0  0  0  0  0
   -0.8241   -3.3662    4.5616 C   0  0  0  0  0  0  0  0  0  0  0  0
   -0.8039   -3.0719    6.3341 S   0  0  0  0  0  0  0  0  0  0  0  0
   -1.4313   -1.3560    6.2292 C   0  0  0  0  0  0  0  0  0  0  0  0
   -0.2891   -0.3599    6.3488 C   0  0  0  0  0  0  0  0  0  0  0  0
    0.3040   -3.0777    3.7811 C   0  0  0  0  0  0  0  0  0  0  0  0
    1.4382   -2.6150    4.3609 F   0  0  0  0  0  0  0  0  0  0  0  0
    0.2702   -3.2830    2.3975 C   0  0  0  0  0  0  0  0  0  0  0  0
   -1.8664   -3.6507   -0.5069 C   0  0  0  0  0  0  0  0  0  0  0  0
   -1.9379   -3.9313   -1.8775 C   0  0  0  0  0  0  0  0  0  0  0  0
   -1.0037   -4.8100   -2.4689 C   0  0  0  0  0  0  0  0  0  0  0  0
   -1.0833   -5.2585   -3.8813 C   0  0  0  0  0  0  0  0  0  0  0  0
   -1.1508   -6.6382   -4.1488 C   0  0  0  0  0  0  0  0  0  0  0  0
   -1.1725   -7.0980   -5.4653 C   0  0  0  0  0  0  0  0  0  0  0  0
   -1.1961   -6.1910   -6.5311 C   0  0  0  0  0  0  0  0  0  0  0  0
   -1.2118   -6.8093   -8.2165 S   0  0  0  0  0  0  0  0  0  0  0  0
   -2.9573   -7.3473   -8.1972 C   0  0  0  0  0  0  0  0  0  0  0  0
   -3.9004   -6.1769   -8.4275 C   0  0  0  0  0  0  0  0  0  0  0  0
   -1.1377   -4.8125   -6.2705 C   0  0  0  0  0  0  0  0  0  0  0  0
   -1.0624   -4.3500   -4.9502 C   0  0  0  0  0  0  0  0  0  0  0  0
   -1.1396   -3.9232   -7.2928 F   0  0  0  0  0  0  0  0  0  0  0  0
    0.0429   -5.2619   -1.6516 C   0  0  0  0  0  0  0  0  0  0  0  0
    1.5277   -5.8615   -2.1546 S   0  0  0  0  0  0  0  0  0  0  0  0
   -2.8960   -3.1502   -2.5503 C   0  0  0  0  0  0  0  0  0  0  0  0
   -3.5182   -2.2104   -1.7216 C   0  0  0  0  0  0  0  0  0  0  0  0
   -2.9289   -2.3985   -0.1531 S   0  0  0  0  0  0  0  0  0  0  0  0
   -4.1654   -0.9721   -2.1934 C   0  0  0  0  0  0  0  0  0  0  0  0
   -3.7896    0.5447   -1.5666 S   0  0  0  0  0  0  0  0  0  0  0  0
   -4.9146   -0.7714   -3.3587 C   0  0  0  0  0  0  0  0  0  0  0  0
   -5.4546   -1.7768   -4.1713 C   0  0  0  0  0  0  0  0  0  0  0  0
   -6.2042   -1.4217   -5.3123 C   0  0  0  0  0  0  0  0  0  0  0  0
   -6.7405   -2.3865   -6.1770 O   0  0  0  0  0  0  0  0  0  0  0  0
   -6.5530   -3.7887   -6.0401 C   0  0  0  0  0  0  0  0  0  0  0  0
   -6.4289   -0.0661   -5.6132 C   0  0  0  0  0  0  0  0  0  0  0  0
   -7.1943    0.2337   -6.7482 O   0  0  0  0  0  0  0  0  0  0  0  0
   -7.3418    1.5329   -7.3093 C   0  0  0  0  0  0  0  0  0  0  0  0
   -5.8969    0.9482   -4.7828 C   0  0  0  0  0  0  0  0  0  0  0  0
   -5.1317    0.5893   -3.6658 C   0  0  0  0  0  0  0  0  0  0  0  0
   -4.5461    1.4689   -2.7485 C   0  0  0  0  0  0  0  0  0  0  0  0
   -4.4796    2.9374   -2.7763 C   0  0  0  0  0  0  0  0  0  0  0  0
   -4.2436    3.6254   -3.8884 C   0  0  0  0  0  0  0  0  0  0  0  0
   -7.4955   11.1783    1.2758 H   0  0  0  0  0  0  0  0  0  0  0  0
   -9.3494    9.6218    0.2156 H   0  0  0  0  0  0  0  0  0  0  0  0
  -12.2174    7.6629   -1.2307 H   0  0  0  0  0  0  0  0  0  0  0  0
  -11.5723    8.4984    0.2311 H   0  0  0  0  0  0  0  0  0  0  0  0
  -11.0784    9.0415   -1.4345 H   0  0  0  0  0  0  0  0  0  0  0  0
   -6.8811    3.9093   -0.2504 H   0  0  0  0  0  0  0  0  0  0  0  0
   -6.7967    4.5248   -1.9695 H   0  0  0  0  0  0  0  0  0  0  0  0
   -8.0543    3.3305   -1.4800 H   0  0  0  0  0  0  0  0  0  0  0  0
   -5.9620    5.9724    0.2347 H   0  0  0  0  0  0  0  0  0  0  0  0
   -3.2477    8.0261    2.1799 H   0  0  0  0  0  0  0  0  0  0  0  0
   -3.8975    6.6328   -0.4557 H   0  0  0  0  0  0  0  0  0  0  0  0
   -3.3501    5.9985    3.2726 H   0  0  0  0  0  0  0  0  0  0  0  0
   -4.4587    5.1041    5.3053 H   0  0  0  0  0  0  0  0  0  0  0  0
   -3.6335    6.7020    5.6091 H   0  0  0  0  0  0  0  0  0  0  0  0
   -3.8724    5.5303    6.9575 H   0  0  0  0  0  0  0  0  0  0  0  0
    2.0944    3.6578    5.1829 H   0  0  0  0  0  0  0  0  0  0  0  0
    1.1695    2.1572    4.7286 H   0  0  0  0  0  0  0  0  0  0  0  0
    1.3717    2.5983    6.4531 H   0  0  0  0  0  0  0  0  0  0  0  0
    1.1362    3.8891    2.9349 H   0  0  0  0  0  0  0  0  0  0  0  0
    1.2295    3.3864   -0.5051 H   0  0  0  0  0  0  0  0  0  0  0  0
    2.6156    5.4488    1.2827 H   0  0  0  0  0  0  0  0  0  0  0  0
    1.4365    1.9957    1.3990 H   0  0  0  0  0  0  0  0  0  0  0  0
   -0.3003    1.2620    2.9613 H   0  0  0  0  0  0  0  0  0  0  0  0
   -0.7476   -0.4706    3.1031 H   0  0  0  0  0  0  0  0  0  0  0  0
   -0.1113    0.1424    1.5349 H   0  0  0  0  0  0  0  0  0  0  0  0
    5.6613   -1.3326    4.5730 H   0  0  0  0  0  0  0  0  0  0  0  0
    5.0108   -0.0757    5.7166 H   0  0  0  0  0  0  0  0  0  0  0  0
    4.4817   -1.7898    5.8595 H   0  0  0  0  0  0  0  0  0  0  0  0
    5.8062    0.6553    3.3285 H   0  0  0  0  0  0  0  0  0  0  0  0
    7.8214    3.4465    2.2060 H   0  0  0  0  0  0  0  0  0  0  0  0
    9.0235    1.4026    2.1791 H   0  0  0  0  0  0  0  0  0  0  0  0
    7.6121   -1.1532    2.9202 H   0  0  0  0  0  0  0  0  0  0  0  0
    4.3901   -3.8556    3.5311 H   0  0  0  0  0  0  0  0  0  0  0  0
    4.8600   -4.6224    5.8188 H   0  0  0  0  0  0  0  0  0  0  0  0
    8.1889   -6.9953    5.9576 H   0  0  0  0  0  0  0  0  0  0  0  0
    8.0249   -7.3746    7.7063 H   0  0  0  0  0  0  0  0  0  0  0  0
    6.3429   -8.6415    6.4749 H   0  0  0  0  0  0  0  0  0  0  0  0
    5.7243   -7.1539    5.6709 H   0  0  0  0  0  0  0  0  0  0  0  0
    5.5092   -7.3768    7.4593 H   0  0  0  0  0  0  0  0  0  0  0  0
    8.6285   -3.6688    2.7346 H   0  0  0  0  0  0  0  0  0  0  0  0
    4.5467   -0.0831   -2.1001 H   0  0  0  0  0  0  0  0  0  0  0  0
    4.4159    0.6044   -4.4648 H   0  0  0  0  0  0  0  0  0  0  0  0
    6.9316    0.8684   -5.9486 H   0  0  0  0  0  0  0  0  0  0  0  0
    6.8617    0.9853   -7.7385 H   0  0  0  0  0  0  0  0  0  0  0  0
    8.1668   -1.2905   -6.1188 H   0  0  0  0  0  0  0  0  0  0  0  0
    7.9546   -1.2947   -7.9208 H   0  0  0  0  0  0  0  0  0  0  0  0
    8.9873   -0.0454   -7.1257 H   0  0  0  0  0  0  0  0  0  0  0  0
    6.4570   -3.7625   -3.2912 H   0  0  0  0  0  0  0  0  0  0  0  0
    3.8104   -4.1163   -2.2478 H   0  0  0  0  0  0  0  0  0  0  0  0
    1.5852   -5.2155    1.3263 H   0  0  0  0  0  0  0  0  0  0  0  0
   -2.8623   -4.6115    2.1416 H   0  0  0  0  0  0  0  0  0  0  0  0
   -2.8362   -4.1445    4.5553 H   0  0  0  0  0  0  0  0  0  0  0  0
   -2.1424   -1.1919    7.0667 H   0  0  0  0  0  0  0  0  0  0  0  0
   -1.9792   -1.1780    5.2767 H   0  0  0  0  0  0  0  0  0  0  0  0
   -0.6871    0.6768    6.2739 H   0  0  0  0  0  0  0  0  0  0  0  0
    0.4439   -0.5122    5.5316 H   0  0  0  0  0  0  0  0  0  0  0  0
    0.2238   -0.4739    7.3300 H   0  0  0  0  0  0  0  0  0  0  0  0
    1.1309   -3.0076    1.8043 H   0  0  0  0  0  0  0  0  0  0  0  0
   -1.1539   -7.3515   -3.3403 H   0  0  0  0  0  0  0  0  0  0  0  0
   -1.1951   -8.1631   -5.6530 H   0  0  0  0  0  0  0  0  0  0  0  0
   -3.2034   -7.8483   -7.2337 H   0  0  0  0  0  0  0  0  0  0  0  0
   -3.1061   -8.0829   -9.0137 H   0  0  0  0  0  0  0  0  0  0  0  0
   -4.9516   -6.5385   -8.3891 H   0  0  0  0  0  0  0  0  0  0  0  0
   -3.7108   -5.7158   -9.4189 H   0  0  0  0  0  0  0  0  0  0  0  0
   -3.7692   -5.4177   -7.6295 H   0  0  0  0  0  0  0  0  0  0  0  0
   -0.9677   -3.2874   -4.7671 H   0  0  0  0  0  0  0  0  0  0  0  0
   -3.0278   -3.1599   -3.6219 H   0  0  0  0  0  0  0  0  0  0  0  0
   -5.3261   -2.8136   -3.9051 H   0  0  0  0  0  0  0  0  0  0  0  0
   -5.4719   -4.0423   -6.0667 H   0  0  0  0  0  0  0  0  0  0  0  0
   -7.0071   -4.1433   -5.0917 H   0  0  0  0  0  0  0  0  0  0  0  0
   -7.0602   -4.3004   -6.8853 H   0  0  0  0  0  0  0  0  0  0  0  0
   -7.8121    2.2332   -6.5785 H   0  0  0  0  0  0  0  0  0  0  0  0
   -6.3464    1.9139   -7.6403 H   0  0  0  0  0  0  0  0  0  0  0  0
   -8.0073    1.4495   -8.1951 H   0  0  0  0  0  0  0  0  0  0  0  0
   -6.0929    1.9873   -4.9994 H   0  0  0  0  0  0  0  0  0  0  0  0
   -4.4976    3.4681   -1.8319 H   0  0  0  0  0  0  0  0  0  0  0  0
   -4.1530    4.7081   -3.8417 H   0  0  0  0  0  0  0  0  0  0  0  0
   -4.1082    3.1391   -4.8445 H   0  0  0  0  0  0  0  0  0  0  0  0
  1  2  1  0
  1  3  2  0
  3  4  1  0
  4  5  2  0
  5  6  1  0
  6  7  1  0
  5  8  1  0
  8  9  1  0
  9 10  1  0
  8 11  2  0
 11 12  1  0
 12 13  2  0
 13 14  1  0
 14 15  2  3
 15 16  1  0
 16 17  1  0
 16 18  2  0
 18 19  1  0
 19 20  2  0
 20 21  1  0
 21 22  1  0
 20 23  1  0
 23 24  1  0
 24 25  1  0
 23 26  2  0
 26 27  1  0
 27 28  2  0
 28 29  1  0
 29 30  2  3
 30 31  1  0
 31 32  1  0
 31 33  2  0
 33 34  1  0
 34 35  2  0
 35 36  1  0
 36 37  1  0
 35 38  1  0
 38 39  1  0
 39 40  1  0
 38 41  2  0
 41 42  1  0
 42 43  2  0
 43 44  1  0
 44 45  2  3
 45 46  1  0
 46 47  2  0
 47 48  1  0
 48 49  2  0
 49 50  1  0
 50 51  2  0
 51 52  1  0
 52 53  2  0
 53 54  1  0
 54 55  1  0
 55 56  1  0
 53 57  1  0
 57 58  1  0
 57 59  2  0
 49 60  1  0
 60 61  2  0
 61 62  1  0
 62 63  1  0
 63 64  2  0
 64 65  1  0
 65 66  2  0
 66 67  1  0
 67 68  1  0
 68 69  1  0
 66 70  1  0
 70 71  2  0
 70 72  1  0
 62 73  2  0
 73 74  1  0
 61 75  1  0
 75 76  2  0
 76 77  1  0
 76 78  1  0
 78 79  2  0
 79 80  1  0
 80 81  2  0
 81 82  1  0
 82 83  2  0
 83 84  1  0
 84 85  2  0
 85 86  1  0
 86 87  1  0
 87 88  1  0
 85 89  1  0
 89 90  1  0
 89 91  2  0
 81 92  1  0
 92 93  2  0
 93 94  1  0
 94 95  1  0
 95 96  2  0
 96 97  1  0
 97 98  2  0
 98 99  1  0
 99100  1  0
100101  1  0
 98102  1  0
102103  2  0
102104  1  0
 94105  2  0
105106  1  0
 93107  1  0
107108  2  0
108109  1  0
108110  1  0
110111  1  0
110112  2  0
112113  1  0
113114  2  0
114115  1  0
115116  1  0
114117  1  0
117118  1  0
118119  1  0
117120  2  0
120121  1  0
121122  2  0
122123  1  0
123124  2  3
 13  2  1  0
 28 17  1  0
 43 32  1  0
 74 46  1  0
106 78  1  0
122111  1  0
 12  3  1  0
 27 18  1  0
 42 33  1  0
 73 48  1  0
105 80  1  0
121112  1  0
 59 50  1  0
 77 60  1  0
 91 82  1  0
109 92  1  0
 71 63  1  0
103 95  1  0
  1125  1  0
  4126  1  0
  7127  1  0
  7128  1  0
  7129  1  0
 10130  1  0
 10131  1  0
 10132  1  0
 11133  1  0
 14134  1  0
 15135  1  0
 19136  1  0
 22137  1  0
 22138  1  0
 22139  1  0
 25140  1  0
 25141  1  0
 25142  1  0
 26143  1  0
 29144  1  0
 30145  1  0
 34146  1  0
 37147  1  0
 37148  1  0
 37149  1  0
 40150  1  0
 40151  1  0
 40152  1  0
 41153  1  0
 44154  1  0
 45155  1  0
 47156  1  0
 51157  1  0
 52158  1  0
 55159  1  0
 55160  1  0
 56161  1  0
 56162  1  0
 56163  1  0
 59164  1  0
 64165  1  0
 65166  1  0
 68167  1  0
 68168  1  0
 69169  1  0
 69170  1  0
 69171  1  0
 71172  1  0
 75173  1  0
 79174  1  0
 83175  1  0
 84176  1  0
 87177  1  0
 87178  1  0
 88179  1  0
 88180  1  0
 88181  1  0
 91182  1  0
 96183  1  0
 97184  1  0
100185  1  0
100186  1  0
101187  1  0
101188  1  0
101189  1  0
103190  1  0
107191  1  0
113192  1  0
116193  1  0
116194  1  0
116195  1  0
119196  1  0
119197  1  0
119198  1  0
120199  1  0
123200  1  0
124201  1  0
124202  1  0
M  END

