
     RDKit          3D

128139  0  0  0  0  0  0  0  0999 V2000
    6.9723   -1.3693    1.5550 C   0  0  0  0  0  0  0  0  0  0  0  0
    6.2875   -2.5498    2.5396 S   0  0  0  0  0  0  0  0  0  0  0  0
    6.5717   -0.1314    2.0468 C   0  0  0  0  0  0  0  0  0  0  0  0
    6.9085    1.0976    1.4813 C   0  0  0  0  0  0  0  0  0  0  0  0
    6.4111    2.2857    2.0599 C   0  0  0  0  0  0  0  0  0  0  0  0
    6.7027    3.5500    1.5232 O   0  0  0  0  0  0  0  0  0  0  0  0
    7.5095    3.7690    0.3705 C   0  0  0  0  0  0  0  0  0  0  0  0
    5.5904    2.2210    3.2076 C   0  0  0  0  0  0  0  0  0  0  0  0
    5.1135    3.4260    3.7468 O   0  0  0  0  0  0  0  0  0  0  0  0
    4.2548    3.5220    4.8774 C   0  0  0  0  0  0  0  0  0  0  0  0
    5.2663    0.9689    3.7777 C   0  0  0  0  0  0  0  0  0  0  0  0
    5.7559   -0.1987    3.1853 C   0  0  0  0  0  0  0  0  0  0  0  0
    5.4890   -1.5039    3.5918 C   0  0  0  0  0  0  0  0  0  0  0  0
    4.6594   -1.9405    4.7250 C   0  0  0  0  0  0  0  0  0  0  0  0
    3.3711   -2.2840    4.5974 C   0  0  0  0  0  0  0  0  0  0  0  0
    2.5805   -2.0640    3.3706 C   0  0  0  0  0  0  0  0  0  0  0  0
    2.5184   -0.6231    2.5029 S   0  0  0  0  0  0  0  0  0  0  0  0
    1.6371   -2.9304    2.8155 C   0  0  0  0  0  0  0  0  0  0  0  0
    1.3376   -4.2156    3.2768 C   0  0  0  0  0  0  0  0  0  0  0  0
    0.3477   -4.9767    2.6206 C   0  0  0  0  0  0  0  0  0  0  0  0
    0.0036   -6.2688    3.0466 O   0  0  0  0  0  0  0  0  0  0  0  0
    0.5809   -6.9269    4.1708 C   0  0  0  0  0  0  0  0  0  0  0  0
   -0.3292   -4.4431    1.5039 C   0  0  0  0  0  0  0  0  0  0  0  0
   -1.3046   -5.2378    0.8777 O   0  0  0  0  0  0  0  0  0  0  0  0
   -2.0542   -4.8462   -0.2668 C   0  0  0  0  0  0  0  0  0  0  0  0
   -0.0219   -3.1428    1.0461 C   0  0  0  0  0  0  0  0  0  0  0  0
    0.9635   -2.3974    1.7016 C   0  0  0  0  0  0  0  0  0  0  0  0
    1.3439   -1.0910    1.3927 C   0  0  0  0  0  0  0  0  0  0  0  0
    0.7821   -0.2297    0.3409 C   0  0  0  0  0  0  0  0  0  0  0  0
    0.6770    1.0879    0.5140 C   0  0  0  0  0  0  0  0  0  0  0  0
    0.0422    1.9699   -0.4759 C   0  0  0  0  0  0  0  0  0  0  0  0
    0.5605    2.0920   -2.0747 S   0  0  0  0  0  0  0  0  0  0  0  0
   -0.1878    3.5551   -2.4333 C   0  0  0  0  0  0  0  0  0  0  0  0
   -0.8203    3.9915   -1.2766 C   0  0  0  0  0  0  0  0  0  0  0  0
   -0.7415    3.0984   -0.1918 C   0  0  0  0  0  0  0  0  0  0  0  0
   -1.4045    3.4004    1.0216 C   0  0  0  0  0  0  0  0  0  0  0  0
   -1.8805    4.7213    1.2116 C   0  0  0  0  0  0  0  0  0  0  0  0
   -1.9152    5.6158    0.1245 C   0  0  0  0  0  0  0  0  0  0  0  0
   -1.4266    5.2389   -1.1309 C   0  0  0  0  0  0  0  0  0  0  0  0
   -2.3107    5.1736    2.5028 N   0  0  0  0  0  0  0  0  0  0  0  0
   -1.6140    2.3502    2.0462 C   0  0  0  0  0  0  0  0  0  0  0  0
   -2.7293    1.6076    2.1688 C   0  0  0  0  0  0  0  0  0  0  0  0
   -4.0773    1.9275    1.6333 C   0  0  0  0  0  0  0  0  0  0  0  0
   -4.7566    3.4712    1.6871 S   0  0  0  0  0  0  0  0  0  0  0  0
   -6.3749    3.0473    1.7353 C   0  0  0  0  0  0  0  0  0  0  0  0
   -6.4203    1.6637    1.7455 C   0  0  0  0  0  0  0  0  0  0  0  0
   -5.1640    1.0308    1.6354 C   0  0  0  0  0  0  0  0  0  0  0  0
   -5.1032   -0.3772    1.5223 C   0  0  0  0  0  0  0  0  0  0  0  0
   -6.2854   -1.1326    1.7283 C   0  0  0  0  0  0  0  0  0  0  0  0
   -7.5132   -0.4744    1.9210 C   0  0  0  0  0  0  0  0  0  0  0  0
   -7.5901    0.9206    1.8922 C   0  0  0  0  0  0  0  0  0  0  0  0
   -6.2712   -2.5653    1.6509 N   0  0  0  0  0  0  0  0  0  0  0  0
   -3.9335   -1.0308    0.9039 C   0  0  0  0  0  0  0  0  0  0  0  0
   -3.7146   -1.0608   -0.4239 C   0  0  0  0  0  0  0  0  0  0  0  0
   -4.5485   -0.3855   -1.4646 C   0  0  0  0  0  0  0  0  0  0  0  0
   -6.2228   -0.1761   -1.3712 S   0  0  0  0  0  0  0  0  0  0  0  0
   -6.4696    0.5719   -2.8435 C   0  0  0  0  0  0  0  0  0  0  0  0
   -5.2359    0.6532   -3.4665 C   0  0  0  0  0  0  0  0  0  0  0  0
   -4.1531    0.1156   -2.7303 C   0  0  0  0  0  0  0  0  0  0  0  0
   -2.8570    0.1252   -3.3062 C   0  0  0  0  0  0  0  0  0  0  0  0
   -2.6735    0.7142   -4.5878 C   0  0  0  0  0  0  0  0  0  0  0  0
   -3.7753    1.2375   -5.2847 C   0  0  0  0  0  0  0  0  0  0  0  0
   -5.0534    1.2065   -4.7308 C   0  0  0  0  0  0  0  0  0  0  0  0
   -1.3742    0.8114   -5.1899 N   0  0  0  0  0  0  0  0  0  0  0  0
   -1.7142   -0.4617   -2.5921 C   0  0  0  0  0  0  0  0  0  0  0  0
   -1.0448   -1.5488   -2.9996 C   0  0  0  0  0  0  0  0  0  0  0  0
   -1.3613   -2.3097   -4.2221 C   0  0  0  0  0  0  0  0  0  0  0  0
   -2.9199   -2.7972   -4.6527 S   0  0  0  0  0  0  0  0  0  0  0  0
   -2.4977   -3.7161   -5.9891 C   0  0  0  0  0  0  0  0  0  0  0  0
   -1.1146   -3.6682   -6.1083 C   0  0  0  0  0  0  0  0  0  0  0  0
   -0.4579   -2.8881   -5.1323 C   0  0  0  0  0  0  0  0  0  0  0  0
    0.9557   -2.7602   -5.1617 C   0  0  0  0  0  0  0  0  0  0  0  0
    1.6769   -3.4311   -6.1876 C   0  0  0  0  0  0  0  0  0  0  0  0
    0.9910   -4.2177   -7.1319 C   0  0  0  0  0  0  0  0  0  0  0  0
   -0.3992   -4.3339   -7.0987 C   0  0  0  0  0  0  0  0  0  0  0  0
    3.0985   -3.2895   -6.3234 N   0  0  0  0  0  0  0  0  0  0  0  0
    1.6651   -1.9125   -4.1818 C   0  0  0  0  0  0  0  0  0  0  0  0
    2.5225   -2.4309   -3.3050 C   0  0  0  0  0  0  0  0  0  0  0  0
    7.5931   -1.5422    0.6864 H   0  0  0  0  0  0  0  0  0  0  0  0
    7.5405    1.1231    0.6031 H   0  0  0  0  0  0  0  0  0  0  0  0
    7.0599    3.2664   -0.5116 H   0  0  0  0  0  0  0  0  0  0  0  0
    7.5639    4.8590    0.1682 H   0  0  0  0  0  0  0  0  0  0  0  0
    8.5385    3.3878    0.5471 H   0  0  0  0  0  0  0  0  0  0  0  0
    3.2993    2.9920    4.6786 H   0  0  0  0  0  0  0  0  0  0  0  0
    4.0338    4.5915    5.0716 H   0  0  0  0  0  0  0  0  0  0  0  0
    4.7530    3.0942    5.7740 H   0  0  0  0  0  0  0  0  0  0  0  0
    4.6322    0.8998    4.6509 H   0  0  0  0  0  0  0  0  0  0  0  0
    5.1603   -2.1378    5.6652 H   0  0  0  0  0  0  0  0  0  0  0  0
    2.8842   -2.7638    5.4382 H   0  0  0  0  0  0  0  0  0  0  0  0
    1.8657   -4.6107    4.1334 H   0  0  0  0  0  0  0  0  0  0  0  0
    1.6740   -7.0525    4.0200 H   0  0  0  0  0  0  0  0  0  0  0  0
    0.1193   -7.9303    4.2777 H   0  0  0  0  0  0  0  0  0  0  0  0
    0.3854   -6.3451    5.0943 H   0  0  0  0  0  0  0  0  0  0  0  0
   -2.7262   -5.6785   -0.5618 H   0  0  0  0  0  0  0  0  0  0  0  0
   -2.6759   -3.9609   -0.0272 H   0  0  0  0  0  0  0  0  0  0  0  0
   -1.3710   -4.6220   -1.1139 H   0  0  0  0  0  0  0  0  0  0  0  0
   -0.5498   -2.7172    0.2046 H   0  0  0  0  0  0  0  0  0  0  0  0
    0.3918   -0.6915   -0.5477 H   0  0  0  0  0  0  0  0  0  0  0  0
    1.0408    1.5393    1.4264 H   0  0  0  0  0  0  0  0  0  0  0  0
   -0.1272    4.0889   -3.3713 H   0  0  0  0  0  0  0  0  0  0  0  0
   -2.3150    6.6131    0.2538 H   0  0  0  0  0  0  0  0  0  0  0  0
   -1.4650    5.9369   -1.9582 H   0  0  0  0  0  0  0  0  0  0  0  0
   -2.6592    6.1489    2.6366 H   0  0  0  0  0  0  0  0  0  0  0  0
   -2.2576    4.5585    3.3442 H   0  0  0  0  0  0  0  0  0  0  0  0
   -0.7570    2.0554    2.6356 H   0  0  0  0  0  0  0  0  0  0  0  0
   -2.6695    0.7454    2.8221 H   0  0  0  0  0  0  0  0  0  0  0  0
   -7.2173    3.7231    1.8096 H   0  0  0  0  0  0  0  0  0  0  0  0
   -8.4224   -1.0467    2.0512 H   0  0  0  0  0  0  0  0  0  0  0  0
   -8.5484    1.4136    2.0054 H   0  0  0  0  0  0  0  0  0  0  0  0
   -5.3791   -3.1056    1.6358 H   0  0  0  0  0  0  0  0  0  0  0  0
   -7.1657   -3.1009    1.6294 H   0  0  0  0  0  0  0  0  0  0  0  0
   -3.2721   -1.5927    1.5510 H   0  0  0  0  0  0  0  0  0  0  0  0
   -2.8755   -1.6538   -0.7440 H   0  0  0  0  0  0  0  0  0  0  0  0
   -7.4175    0.9170   -3.2365 H   0  0  0  0  0  0  0  0  0  0  0  0
   -3.6366    1.6826   -6.2620 H   0  0  0  0  0  0  0  0  0  0  0  0
   -5.8895    1.6161   -5.2837 H   0  0  0  0  0  0  0  0  0  0  0  0
   -0.5012    0.5831   -4.6689 H   0  0  0  0  0  0  0  0  0  0  0  0
   -1.2684    1.1666   -6.1664 H   0  0  0  0  0  0  0  0  0  0  0  0
   -1.4550   -0.0158   -1.6457 H   0  0  0  0  0  0  0  0  0  0  0  0
   -0.2323   -1.9061   -2.3852 H   0  0  0  0  0  0  0  0  0  0  0  0
   -3.1796   -4.2593   -6.6296 H   0  0  0  0  0  0  0  0  0  0  0  0
    1.5392   -4.7254   -7.9165 H   0  0  0  0  0  0  0  0  0  0  0  0
   -0.9098   -4.9346   -7.8428 H   0  0  0  0  0  0  0  0  0  0  0  0
    3.6529   -2.6249   -5.7408 H   0  0  0  0  0  0  0  0  0  0  0  0
    3.6149   -3.8203   -7.0611 H   0  0  0  0  0  0  0  0  0  0  0  0
    1.4272   -0.8586   -4.1237 H   0  0  0  0  0  0  0  0  0  0  0  0
    3.0009   -1.7926   -2.5729 H   0  0  0  0  0  0  0  0  0  0  0  0
    2.7474   -3.4907   -3.3052 H   0  0  0  0  0  0  0  0  0  0  0  0
  1  2  1  0
  1  3  2  0
  3  4  1  0
  4  5  2  0
  5  6  1  0
  6  7  1  0
  5  8  1  0
  8  9  1  0
  9 10  1  0
  8 11  2  0
 11 12  1  0
 12 13  2  0
 13 14  1  0
 14 15  2  3
 15 16  1  0
 16 17  1  0
 16 18  2  0
 18 19  1  0
 19 20  2  0
 20 21  1  0
 21 22  1  0
 20 23  1  0
 23 24  1  0
 24 25  1  0
 23 26  2  0
 26 27  1  0
 27 28  2  0
 28 29  1  0
 29 30  2  3
 30 31  1  0
 31 32  1  0
 32 33  1  0
 33 34  2  0
 34 35  1  0
 35 36  1  0
 36 37  2  0
 37 38  1  0
 38 39  2  0
 37 40  1  0
 36 41  1  0
 41 42  2  3
 42 43  1  0
 43 44  1  0
 44 45  1  0
 45 46  2  0
 46 47  1  0
 47 48  1  0
 48 49  2  0
 49 50  1  0
 50 51  2  0
 49 52  1  0
 48 53  1  0
 53 54  2  3
 54 55  1  0
 55 56  1  0
 56 57  1  0
 57 58  2  0
 58 59  1  0
 59 60  1  0
 60 61  2  0
 61 62  1  0
 62 63  2  0
 61 64  1  0
 60 65  1  0
 65 66  2  3
 66 67  1  0
 67 68  1  0
 68 69  1  0
 69 70  2  0
 70 71  1  0
 71 72  1  0
 72 73  2  0
 73 74  1  0
 74 75  2  0
 73 76  1  0
 72 77  1  0
 77 78  2  3
 13  2  1  0
 28 17  1  0
 35 31  2  0
 47 43  2  0
 59 55  2  0
 71 67  2  0
 12  3  1  0
 27 18  1  0
 39 34  1  0
 51 46  1  0
 63 58  1  0
 75 70  1  0
  1 79  1  0
  4 80  1  0
  7 81  1  0
  7 82  1  0
  7 83  1  0
 10 84  1  0
 10 85  1  0
 10 86  1  0
 11 87  1  0
 14 88  1  0
 15 89  1  0
 19 90  1  0
 22 91  1  0
 22 92  1  0
 22 93  1  0
 25 94  1  0
 25 95  1  0
 25 96  1  0
 26 97  1  0
 29 98  1  0
 30 99  1  0
 33100  1  0
 38101  1  0
 39102  1  0
 40103  1  0
 40104  1  0
 41105  1  0
 42106  1  0
 45107  1  0
 50108  1  0
 51109  1  0
 52110  1  0
 52111  1  0
 53112  1  0
 54113  1  0
 57114  1  0
 62115  1  0
 63116  1  0
 64117  1  0
 64118  1  0
 65119  1  0
 66120  1  0
 69121  1  0
 74122  1  0
 75123  1  0
 76124  1  0
 76125  1  0
 77126  1  0
 78127  1  0
 78128  1  0
M  END

