
     RDKit          3D

112119  0  0  0  0  0  0  0  0999 V2000
    5.9588    3.2633    2.4689 C   0  0  0  0  0  0  0  0  0  0  0  0
    5.0757    2.2922    2.4739 O   0  0  0  0  0  0  0  0  0  0  0  0
    5.1177    1.6806    3.6416 C   0  0  0  0  0  0  0  0  0  0  0  0
    6.0772    2.2712    4.4518 C   0  0  0  0  0  0  0  0  0  0  0  0
    6.6145    3.2928    3.6826 C   0  0  0  0  0  0  0  0  0  0  0  0
    7.6311    4.2387    4.0584 C   0  0  0  0  0  0  0  0  0  0  0  0
    8.4501    4.9978    4.3593 N   0  0  0  0  0  0  0  0  0  0  0  0
    6.4263    1.8755    5.8626 C   0  0  0  0  0  0  0  0  0  0  0  0
    5.3185    2.0458    6.6747 F   0  0  0  0  0  0  0  0  0  0  0  0
    6.8106    0.5476    5.8853 F   0  0  0  0  0  0  0  0  0  0  0  0
    7.4609    2.6434    6.3631 F   0  0  0  0  0  0  0  0  0  0  0  0
    4.2353    0.5630    4.0191 C   0  0  0  0  0  0  0  0  0  0  0  0
    3.3821    0.0242    3.1469 C   0  0  0  0  0  0  0  0  0  0  0  0
    2.4236   -1.0147    3.5505 C   0  0  0  0  0  0  0  0  0  0  0  0
    2.1394   -2.4325    2.6860 S   0  0  0  0  0  0  0  0  0  0  0  0
    1.5022   -0.9510    4.5990 C   0  0  0  0  0  0  0  0  0  0  0  0
    1.3275    0.1223    5.4788 C   0  0  0  0  0  0  0  0  0  0  0  0
    0.3060    0.0663    6.4514 C   0  0  0  0  0  0  0  0  0  0  0  0
    0.0885    1.1192    7.3551 O   0  0  0  0  0  0  0  0  0  0  0  0
    0.7861    2.3599    7.3337 C   0  0  0  0  0  0  0  0  0  0  0  0
   -0.5320   -1.0639    6.5289 C   0  0  0  0  0  0  0  0  0  0  0  0
   -1.5375   -1.0781    7.5104 O   0  0  0  0  0  0  0  0  0  0  0  0
   -2.3919   -2.1847    7.7730 C   0  0  0  0  0  0  0  0  0  0  0  0
   -0.3628   -2.1320    5.6210 C   0  0  0  0  0  0  0  0  0  0  0  0
    0.6449   -2.0593    4.6570 C   0  0  0  0  0  0  0  0  0  0  0  0
    0.8721   -2.9917    3.6464 C   0  0  0  0  0  0  0  0  0  0  0  0
    0.0444   -4.1658    3.3390 C   0  0  0  0  0  0  0  0  0  0  0  0
   -1.1417   -4.1210    2.7038 C   0  0  0  0  0  0  0  0  0  0  0  0
   -1.7725   -2.9093    2.1155 C   0  0  0  0  0  0  0  0  0  0  0  0
   -1.0179   -1.4312    1.8150 S   0  0  0  0  0  0  0  0  0  0  0  0
   -3.0595   -2.8190    1.5640 C   0  0  0  0  0  0  0  0  0  0  0  0
   -4.0254   -3.8334    1.5552 C   0  0  0  0  0  0  0  0  0  0  0  0
   -5.2699   -3.6084    0.9256 C   0  0  0  0  0  0  0  0  0  0  0  0
   -6.2646   -4.5978    0.8804 O   0  0  0  0  0  0  0  0  0  0  0  0
   -6.1491   -5.8900    1.4618 C   0  0  0  0  0  0  0  0  0  0  0  0
   -5.5412   -2.3664    0.3169 C   0  0  0  0  0  0  0  0  0  0  0  0
   -6.7900   -2.1908   -0.3005 O   0  0  0  0  0  0  0  0  0  0  0  0
   -7.1952   -1.0063   -0.9797 C   0  0  0  0  0  0  0  0  0  0  0  0
   -4.5678   -1.3450    0.3352 C   0  0  0  0  0  0  0  0  0  0  0  0
   -3.3395   -1.5751    0.9594 C   0  0  0  0  0  0  0  0  0  0  0  0
   -2.2751   -0.6772    1.0008 C   0  0  0  0  0  0  0  0  0  0  0  0
   -2.2057    0.6669    0.3966 C   0  0  0  0  0  0  0  0  0  0  0  0
   -1.1435    1.0963   -0.3034 C   0  0  0  0  0  0  0  0  0  0  0  0
   -0.0541    0.1996   -0.7322 C   0  0  0  0  0  0  0  0  0  0  0  0
    1.2099    0.3734   -0.4194 O   0  0  0  0  0  0  0  0  0  0  0  0
    1.9088   -0.6215   -0.9240 C   0  0  0  0  0  0  0  0  0  0  0  0
    1.0677   -1.5041   -1.5970 C   0  0  0  0  0  0  0  0  0  0  0  0
   -0.1943   -0.9513   -1.4875 C   0  0  0  0  0  0  0  0  0  0  0  0
   -1.4137   -1.4633   -2.0639 C   0  0  0  0  0  0  0  0  0  0  0  0
   -2.3891   -1.8764   -2.5259 N   0  0  0  0  0  0  0  0  0  0  0  0
    1.4297   -2.7546   -2.3558 C   0  0  0  0  0  0  0  0  0  0  0  0
    1.5095   -2.4673   -3.7055 F   0  0  0  0  0  0  0  0  0  0  0  0
    2.6398   -3.2631   -1.9246 F   0  0  0  0  0  0  0  0  0  0  0  0
    0.4624   -3.7219   -2.1592 F   0  0  0  0  0  0  0  0  0  0  0  0
    3.3656   -0.7561   -0.7630 C   0  0  0  0  0  0  0  0  0  0  0  0
    4.2207   -0.7169   -1.7900 C   0  0  0  0  0  0  0  0  0  0  0  0
    3.8212   -0.3234   -3.1517 C   0  0  0  0  0  0  0  0  0  0  0  0
    2.8832    0.5562   -3.4145 O   0  0  0  0  0  0  0  0  0  0  0  0
    2.7656    0.6844   -4.7163 C   0  0  0  0  0  0  0  0  0  0  0  0
    3.6881   -0.1451   -5.3566 C   0  0  0  0  0  0  0  0  0  0  0  0
    4.3598   -0.7967   -4.3315 C   0  0  0  0  0  0  0  0  0  0  0  0
    5.3778   -1.8076   -4.4559 C   0  0  0  0  0  0  0  0  0  0  0  0
    6.1969   -2.6205   -4.5529 N   0  0  0  0  0  0  0  0  0  0  0  0
    3.9069   -0.3288   -6.8361 C   0  0  0  0  0  0  0  0  0  0  0  0
    5.2027   -0.7399   -7.0907 F   0  0  0  0  0  0  0  0  0  0  0  0
    3.7006    0.8627   -7.5084 F   0  0  0  0  0  0  0  0  0  0  0  0
    3.0327   -1.2867   -7.3136 F   0  0  0  0  0  0  0  0  0  0  0  0
    1.8009    1.6233   -5.3112 C   0  0  0  0  0  0  0  0  0  0  0  0
    1.0325    1.3095   -6.3582 C   0  0  0  0  0  0  0  0  0  0  0  0
    0.0756    2.2510   -6.9743 C   0  0  0  0  0  0  0  0  0  0  0  0
   -0.3096    2.1275   -8.2228 O   0  0  0  0  0  0  0  0  0  0  0  0
   -1.1576    3.0898   -8.5124 C   0  0  0  0  0  0  0  0  0  0  0  0
   -1.3432    3.9069   -7.4046 C   0  0  0  0  0  0  0  0  0  0  0  0
   -0.5653    3.3472   -6.4020 C   0  0  0  0  0  0  0  0  0  0  0  0
   -0.5737    3.7233   -5.0091 C   0  0  0  0  0  0  0  0  0  0  0  0
   -0.5855    4.0238   -3.8914 N   0  0  0  0  0  0  0  0  0  0  0  0
   -2.2914    5.0732   -7.2951 C   0  0  0  0  0  0  0  0  0  0  0  0
   -3.5907    4.6033   -7.2722 F   0  0  0  0  0  0  0  0  0  0  0  0
   -2.1288    5.9154   -8.3784 F   0  0  0  0  0  0  0  0  0  0  0  0
   -2.0556    5.8024   -6.1433 F   0  0  0  0  0  0  0  0  0  0  0  0
   -1.8177    3.2265   -9.8236 C   0  0  0  0  0  0  0  0  0  0  0  0
   -1.6124    2.3470  -10.8034 C   0  0  0  0  0  0  0  0  0  0  0  0
    6.1260    3.9323    1.6352 H   0  0  0  0  0  0  0  0  0  0  0  0
    4.2649    0.1883    5.0332 H   0  0  0  0  0  0  0  0  0  0  0  0
    3.3890    0.3419    2.1130 H   0  0  0  0  0  0  0  0  0  0  0  0
    1.9556    0.9961    5.3970 H   0  0  0  0  0  0  0  0  0  0  0  0
    1.8703    2.1948    7.5112 H   0  0  0  0  0  0  0  0  0  0  0  0
    0.3938    3.0143    8.1404 H   0  0  0  0  0  0  0  0  0  0  0  0
    0.6295    2.8694    6.3584 H   0  0  0  0  0  0  0  0  0  0  0  0
   -3.0500   -1.9409    8.6348 H   0  0  0  0  0  0  0  0  0  0  0  0
   -3.0372   -2.3962    6.8948 H   0  0  0  0  0  0  0  0  0  0  0  0
   -1.7902   -3.0818    8.0290 H   0  0  0  0  0  0  0  0  0  0  0  0
   -1.0191   -2.9924    5.6431 H   0  0  0  0  0  0  0  0  0  0  0  0
    0.4126   -5.1276    3.6700 H   0  0  0  0  0  0  0  0  0  0  0  0
   -1.6549   -5.0656    2.5784 H   0  0  0  0  0  0  0  0  0  0  0  0
   -3.8178   -4.7835    2.0240 H   0  0  0  0  0  0  0  0  0  0  0  0
   -5.9910   -5.8069    2.5588 H   0  0  0  0  0  0  0  0  0  0  0  0
   -5.3077   -6.4456    0.9963 H   0  0  0  0  0  0  0  0  0  0  0  0
   -7.0857   -6.4555    1.2818 H   0  0  0  0  0  0  0  0  0  0  0  0
   -7.1911   -0.1428   -0.2807 H   0  0  0  0  0  0  0  0  0  0  0  0
   -8.2265   -1.1468   -1.3645 H   0  0  0  0  0  0  0  0  0  0  0  0
   -6.5185   -0.8133   -1.8369 H   0  0  0  0  0  0  0  0  0  0  0  0
   -4.7549   -0.3917   -0.1404 H   0  0  0  0  0  0  0  0  0  0  0  0
   -3.0351    1.3448    0.5551 H   0  0  0  0  0  0  0  0  0  0  0  0
   -1.1008    2.1340   -0.6049 H   0  0  0  0  0  0  0  0  0  0  0  0
    3.7482   -0.9847    0.2228 H   0  0  0  0  0  0  0  0  0  0  0  0
    5.2579   -0.9750   -1.6131 H   0  0  0  0  0  0  0  0  0  0  0  0
    1.7138    2.5848   -4.8304 H   0  0  0  0  0  0  0  0  0  0  0  0
    1.1329    0.3382   -6.8217 H   0  0  0  0  0  0  0  0  0  0  0  0
   -2.5067    4.0436   -9.9969 H   0  0  0  0  0  0  0  0  0  0  0  0
   -0.9385    1.5082  -10.6806 H   0  0  0  0  0  0  0  0  0  0  0  0
   -2.1216    2.4674  -11.7506 H   0  0  0  0  0  0  0  0  0  0  0  0
  1  2  1  0
  2  3  1  0
  3  4  2  0
  4  5  1  0
  5  6  1  0
  6  7  3  0
  4  8  1  0
  8  9  1  0
  8 10  1  0
  8 11  1  0
  3 12  1  0
 12 13  2  3
 13 14  1  0
 14 15  1  0
 14 16  2  0
 16 17  1  0
 17 18  2  0
 18 19  1  0
 19 20  1  0
 18 21  1  0
 21 22  1  0
 22 23  1  0
 21 24  2  0
 24 25  1  0
 25 26  2  0
 26 27  1  0
 27 28  2  3
 28 29  1  0
 29 30  1  0
 29 31  2  0
 31 32  1  0
 32 33  2  0
 33 34  1  0
 34 35  1  0
 33 36  1  0
 36 37  1  0
 37 38  1  0
 36 39  2  0
 39 40  1  0
 40 41  2  0
 41 42  1  0
 42 43  2  3
 43 44  1  0
 44 45  1  0
 45 46  1  0
 46 47  2  0
 47 48  1  0
 48 49  1  0
 49 50  3  0
 47 51  1  0
 51 52  1  0
 51 53  1  0
 51 54  1  0
 46 55  1  0
 55 56  2  3
 56 57  1  0
 57 58  1  0
 58 59  1  0
 59 60  2  0
 60 61  1  0
 61 62  1  0
 62 63  3  0
 60 64  1  0
 64 65  1  0
 64 66  1  0
 64 67  1  0
 59 68  1  0
 68 69  2  3
 69 70  1  0
 70 71  1  0
 71 72  1  0
 72 73  2  0
 73 74  1  0
 74 75  1  0
 75 76  3  0
 73 77  1  0
 77 78  1  0
 77 79  1  0
 77 80  1  0
 72 81  1  0
 81 82  2  3
  5  1  2  0
 26 15  1  0
 41 30  1  0
 48 44  2  0
 61 57  2  0
 74 70  2  0
 25 16  1  0
 40 31  1  0
  1 83  1  0
 12 84  1  0
 13 85  1  0
 17 86  1  0
 20 87  1  0
 20 88  1  0
 20 89  1  0
 23 90  1  0
 23 91  1  0
 23 92  1  0
 24 93  1  0
 27 94  1  0
 28 95  1  0
 32 96  1  0
 35 97  1  0
 35 98  1  0
 35 99  1  0
 38100  1  0
 38101  1  0
 38102  1  0
 39103  1  0
 42104  1  0
 43105  1  0
 55106  1  0
 56107  1  0
 68108  1  0
 69109  1  0
 81110  1  0
 82111  1  0
 82112  1  0
M  END

