
     RDKit          3D

127138  0  0  0  0  0  0  0  0999 V2000
    5.6673    2.0305   -2.3275 C   0  0  0  0  0  0  0  0  0  0  0  0
    4.0523    2.0063   -2.7880 S   0  0  0  0  0  0  0  0  0  0  0  0
    3.8167    3.6770   -2.8149 C   0  0  0  0  0  0  0  0  0  0  0  0
    5.0366    4.2682   -2.5279 C   0  0  0  0  0  0  0  0  0  0  0  0
    6.0564    3.3588   -2.2352 C   0  0  0  0  0  0  0  0  0  0  0  0
    7.7576    3.8830   -2.0198 S   0  0  0  0  0  0  0  0  0  0  0  0
    8.1295    4.3438   -3.7678 C   0  0  0  0  0  0  0  0  0  0  0  0
    6.9391    4.6225   -4.7109 C   0  0  0  0  0  0  0  0  0  0  0  0
    6.1288    5.8983   -4.3974 C   0  0  0  0  0  0  0  0  0  0  0  0
    5.3860    6.0166   -2.7148 S   0  0  0  0  0  0  0  0  0  0  0  0
    2.6900    4.3622   -3.4662 C   0  0  0  0  0  0  0  0  0  0  0  0
    1.4899    4.5863   -2.9179 C   0  0  0  0  0  0  0  0  0  0  0  0
    1.0244    4.0969   -1.6037 C   0  0  0  0  0  0  0  0  0  0  0  0
    1.4676    2.6616   -0.8537 S   0  0  0  0  0  0  0  0  0  0  0  0
    0.3540    2.7170    0.4028 C   0  0  0  0  0  0  0  0  0  0  0  0
   -0.3980    3.8773    0.2467 C   0  0  0  0  0  0  0  0  0  0  0  0
   -0.0272    4.6436   -0.8680 C   0  0  0  0  0  0  0  0  0  0  0  0
   -0.8903    6.1507   -1.3334 S   0  0  0  0  0  0  0  0  0  0  0  0
   -2.3420    5.2737   -2.0161 C   0  0  0  0  0  0  0  0  0  0  0  0
   -3.3957    4.9944   -0.9331 C   0  0  0  0  0  0  0  0  0  0  0  0
   -3.0359    3.8209   -0.0120 C   0  0  0  0  0  0  0  0  0  0  0  0
   -1.8173    4.2949    1.2689 S   0  0  0  0  0  0  0  0  0  0  0  0
    0.1727    1.6862    1.4441 C   0  0  0  0  0  0  0  0  0  0  0  0
    0.8699    0.5442    1.4326 C   0  0  0  0  0  0  0  0  0  0  0  0
    0.6795   -0.5259    2.4331 C   0  0  0  0  0  0  0  0  0  0  0  0
   -0.3855   -0.4826    3.7321 S   0  0  0  0  0  0  0  0  0  0  0  0
   -0.0534   -2.0202    4.3185 C   0  0  0  0  0  0  0  0  0  0  0  0
    0.9838   -2.5640    3.5533 C   0  0  0  0  0  0  0  0  0  0  0  0
    1.4088   -1.7202    2.4904 C   0  0  0  0  0  0  0  0  0  0  0  0
    3.0052   -1.8135    1.6080 S   0  0  0  0  0  0  0  0  0  0  0  0
    3.1009   -3.6028    1.3040 C   0  0  0  0  0  0  0  0  0  0  0  0
    3.8661   -4.2864    2.4486 C   0  0  0  0  0  0  0  0  0  0  0  0
    3.2838   -3.9882    3.8374 C   0  0  0  0  0  0  0  0  0  0  0  0
    1.4876   -4.2833    3.8204 S   0  0  0  0  0  0  0  0  0  0  0  0
   -0.5421   -2.5981    5.5857 C   0  0  0  0  0  0  0  0  0  0  0  0
   -1.7990   -2.6215    6.0649 C   0  0  0  0  0  0  0  0  0  0  0  0
   -3.0508   -2.1698    5.4100 C   0  0  0  0  0  0  0  0  0  0  0  0
   -3.3000   -1.6717    3.8223 S   0  0  0  0  0  0  0  0  0  0  0  0
   -4.9350   -1.2791    3.9368 C   0  0  0  0  0  0  0  0  0  0  0  0
   -5.3222   -1.5794    5.2403 C   0  0  0  0  0  0  0  0  0  0  0  0
   -4.2874   -2.0674    6.0498 C   0  0  0  0  0  0  0  0  0  0  0  0
   -4.5611   -2.3660    7.8009 S   0  0  0  0  0  0  0  0  0  0  0  0
   -4.5507   -0.6056    8.3360 C   0  0  0  0  0  0  0  0  0  0  0  0
   -5.0595    0.4462    7.3265 C   0  0  0  0  0  0  0  0  0  0  0  0
   -6.5213    0.2818    6.8726 C   0  0  0  0  0  0  0  0  0  0  0  0
   -6.9481   -1.2428    5.9300 S   0  0  0  0  0  0  0  0  0  0  0  0
   -5.7654   -0.5434    2.9475 C   0  0  0  0  0  0  0  0  0  0  0  0
   -5.4154   -0.2291    1.6920 C   0  0  0  0  0  0  0  0  0  0  0  0
   -4.2241   -0.7276    0.9901 C   0  0  0  0  0  0  0  0  0  0  0  0
   -3.0794    0.2587    0.2576 S   0  0  0  0  0  0  0  0  0  0  0  0
   -3.9177   -2.0529    0.6709 C   0  0  0  0  0  0  0  0  0  0  0  0
   -4.6701   -3.1733    1.0287 C   0  0  0  0  0  0  0  0  0  0  0  0
   -4.2200   -4.4599    0.6652 C   0  0  0  0  0  0  0  0  0  0  0  0
   -4.9440   -5.6155    0.9978 O   0  0  0  0  0  0  0  0  0  0  0  0
   -6.2261   -5.6147    1.6166 C   0  0  0  0  0  0  0  0  0  0  0  0
   -3.0168   -4.6088   -0.0523 C   0  0  0  0  0  0  0  0  0  0  0  0
   -2.5973   -5.9067   -0.3874 O   0  0  0  0  0  0  0  0  0  0  0  0
   -1.4397   -6.2015   -1.1597 C   0  0  0  0  0  0  0  0  0  0  0  0
   -2.2797   -3.4670   -0.4326 C   0  0  0  0  0  0  0  0  0  0  0  0
   -2.7560   -2.1917   -0.1015 C   0  0  0  0  0  0  0  0  0  0  0  0
   -2.1659   -0.9691   -0.4455 C   0  0  0  0  0  0  0  0  0  0  0  0
   -1.0788   -0.7227   -1.4145 C   0  0  0  0  0  0  0  0  0  0  0  0
   -1.0161   -1.4082   -2.5589 C   0  0  0  0  0  0  0  0  0  0  0  0
    0.0248   -1.1984   -3.5768 C   0  0  0  0  0  0  0  0  0  0  0  0
    0.9392    0.1973   -3.7855 S   0  0  0  0  0  0  0  0  0  0  0  0
    1.8397   -0.3819   -5.0919 C   0  0  0  0  0  0  0  0  0  0  0  0
    1.4316   -1.6829   -5.3976 C   0  0  0  0  0  0  0  0  0  0  0  0
    0.3991   -2.1458   -4.5348 C   0  0  0  0  0  0  0  0  0  0  0  0
   -0.1726   -3.8589   -4.3654 S   0  0  0  0  0  0  0  0  0  0  0  0
   -0.5348   -4.1550   -6.1212 C   0  0  0  0  0  0  0  0  0  0  0  0
    0.6623   -4.8570   -6.7781 C   0  0  0  0  0  0  0  0  0  0  0  0
    2.0044   -4.1514   -6.5154 C   0  0  0  0  0  0  0  0  0  0  0  0
    1.8899   -2.4005   -7.0006 S   0  0  0  0  0  0  0  0  0  0  0  0
    2.8455    0.3940   -5.8461 C   0  0  0  0  0  0  0  0  0  0  0  0
    2.8182    1.7185   -5.9140 C   0  0  0  0  0  0  0  0  0  0  0  0
    6.3030    1.1670   -2.1986 H   0  0  0  0  0  0  0  0  0  0  0  0
    8.7878    5.2388   -3.7551 H   0  0  0  0  0  0  0  0  0  0  0  0
    8.7232    3.5049   -4.1958 H   0  0  0  0  0  0  0  0  0  0  0  0
    7.3607    4.7439   -5.7341 H   0  0  0  0  0  0  0  0  0  0  0  0
    6.2746    3.7359   -4.7867 H   0  0  0  0  0  0  0  0  0  0  0  0
    6.7788    6.7863   -4.5392 H   0  0  0  0  0  0  0  0  0  0  0  0
    5.3075    5.9793   -5.1410 H   0  0  0  0  0  0  0  0  0  0  0  0
    2.9003    4.8267   -4.4268 H   0  0  0  0  0  0  0  0  0  0  0  0
    0.8081    5.2154   -3.4746 H   0  0  0  0  0  0  0  0  0  0  0  0
   -2.0437    4.3396   -2.5344 H   0  0  0  0  0  0  0  0  0  0  0  0
   -2.7997    5.9399   -2.7801 H   0  0  0  0  0  0  0  0  0  0  0  0
   -3.5846    5.9128   -0.3347 H   0  0  0  0  0  0  0  0  0  0  0  0
   -4.3462    4.7406   -1.4489 H   0  0  0  0  0  0  0  0  0  0  0  0
   -2.6787    2.9551   -0.6104 H   0  0  0  0  0  0  0  0  0  0  0  0
   -3.9564    3.4925    0.5118 H   0  0  0  0  0  0  0  0  0  0  0  0
   -0.5568    1.8637    2.2238 H   0  0  0  0  0  0  0  0  0  0  0  0
    1.5828    0.3647    0.6373 H   0  0  0  0  0  0  0  0  0  0  0  0
    3.6742   -3.7614    0.3593 H   0  0  0  0  0  0  0  0  0  0  0  0
    2.0930   -4.0448    1.1453 H   0  0  0  0  0  0  0  0  0  0  0  0
    4.9264   -3.9494    2.4303 H   0  0  0  0  0  0  0  0  0  0  0  0
    3.8572   -5.3818    2.2766 H   0  0  0  0  0  0  0  0  0  0  0  0
    3.5284   -2.9552    4.1674 H   0  0  0  0  0  0  0  0  0  0  0  0
    3.7461   -4.6760    4.5763 H   0  0  0  0  0  0  0  0  0  0  0  0
    0.2164   -3.0634    6.2021 H   0  0  0  0  0  0  0  0  0  0  0  0
   -1.9149   -3.0616    7.0468 H   0  0  0  0  0  0  0  0  0  0  0  0
   -5.1555   -0.5353    9.2672 H   0  0  0  0  0  0  0  0  0  0  0  0
   -3.5061   -0.3472    8.5977 H   0  0  0  0  0  0  0  0  0  0  0  0
   -4.3809    0.5222    6.4486 H   0  0  0  0  0  0  0  0  0  0  0  0
   -4.9865    1.4372    7.8303 H   0  0  0  0  0  0  0  0  0  0  0  0
   -7.1804    0.3353    7.7610 H   0  0  0  0  0  0  0  0  0  0  0  0
   -6.7759    1.1486    6.2195 H   0  0  0  0  0  0  0  0  0  0  0  0
   -6.7108   -0.1545    3.2981 H   0  0  0  0  0  0  0  0  0  0  0  0
   -6.0663    0.4373    1.1406 H   0  0  0  0  0  0  0  0  0  0  0  0
   -5.5888   -3.0441    1.5840 H   0  0  0  0  0  0  0  0  0  0  0  0
   -6.9575   -5.0804    0.9695 H   0  0  0  0  0  0  0  0  0  0  0  0
   -6.1736   -5.1339    2.6100 H   0  0  0  0  0  0  0  0  0  0  0  0
   -6.5700   -6.6629    1.7475 H   0  0  0  0  0  0  0  0  0  0  0  0
   -1.3555   -7.2992   -1.2791 H   0  0  0  0  0  0  0  0  0  0  0  0
   -0.5241   -5.8335   -0.6426 H   0  0  0  0  0  0  0  0  0  0  0  0
   -1.5237   -5.7375   -2.1633 H   0  0  0  0  0  0  0  0  0  0  0  0
   -1.3448   -3.5716   -0.9623 H   0  0  0  0  0  0  0  0  0  0  0  0
   -0.3948    0.0971   -1.2313 H   0  0  0  0  0  0  0  0  0  0  0  0
   -1.7669   -2.1523   -2.7679 H   0  0  0  0  0  0  0  0  0  0  0  0
   -0.7889   -3.2104   -6.6533 H   0  0  0  0  0  0  0  0  0  0  0  0
   -1.4224   -4.8163   -6.1863 H   0  0  0  0  0  0  0  0  0  0  0  0
    0.7247   -5.8954   -6.3966 H   0  0  0  0  0  0  0  0  0  0  0  0
    0.4853   -4.9025   -7.8750 H   0  0  0  0  0  0  0  0  0  0  0  0
    2.3257   -4.2556   -5.4547 H   0  0  0  0  0  0  0  0  0  0  0  0
    2.7791   -4.6317   -7.1443 H   0  0  0  0  0  0  0  0  0  0  0  0
    3.6150   -0.1468   -6.3878 H   0  0  0  0  0  0  0  0  0  0  0  0
    3.5721    2.2454   -6.4819 H   0  0  0  0  0  0  0  0  0  0  0  0
    2.0414    2.2905   -5.4398 H   0  0  0  0  0  0  0  0  0  0  0  0
  1  2  1  0
  2  3  1  0
  3  4  2  0
  4  5  1  0
  5  6  1  0
  6  7  1  0
  7  8  1  0
  8  9  1  0
  9 10  1  0
  3 11  1  0
 11 12  2  3
 12 13  1  0
 13 14  1  0
 14 15  1  0
 15 16  2  0
 16 17  1  0
 17 18  1  0
 18 19  1  0
 19 20  1  0
 20 21  1  0
 21 22  1  0
 15 23  1  0
 23 24  2  3
 24 25  1  0
 25 26  1  0
 26 27  1  0
 27 28  2  0
 28 29  1  0
 29 30  1  0
 30 31  1  0
 31 32  1  0
 32 33  1  0
 33 34  1  0
 27 35  1  0
 35 36  2  3
 36 37  1  0
 37 38  1  0
 38 39  1  0
 39 40  2  0
 40 41  1  0
 41 42  1  0
 42 43  1  0
 43 44  1  0
 44 45  1  0
 45 46  1  0
 39 47  1  0
 47 48  2  3
 48 49  1  0
 49 50  1  0
 49 51  2  0
 51 52  1  0
 52 53  2  0
 53 54  1  0
 54 55  1  0
 53 56  1  0
 56 57  1  0
 57 58  1  0
 56 59  2  0
 59 60  1  0
 60 61  2  0
 61 62  1  0
 62 63  2  3
 63 64  1  0
 64 65  1  0
 65 66  1  0
 66 67  2  0
 67 68  1  0
 68 69  1  0
 69 70  1  0
 70 71  1  0
 71 72  1  0
 72 73  1  0
 66 74  1  0
 74 75  2  3
  5  1  2  0
 17 13  2  0
 29 25  2  0
 41 37  2  0
 61 50  1  0
 68 64  2  0
 10  4  1  0
 22 16  1  0
 34 28  1  0
 46 40  1  0
 60 51  1  0
 73 67  1  0
  1 76  1  0
  7 77  1  0
  7 78  1  0
  8 79  1  0
  8 80  1  0
  9 81  1  0
  9 82  1  0
 11 83  1  0
 12 84  1  0
 19 85  1  0
 19 86  1  0
 20 87  1  0
 20 88  1  0
 21 89  1  0
 21 90  1  0
 23 91  1  0
 24 92  1  0
 31 93  1  0
 31 94  1  0
 32 95  1  0
 32 96  1  0
 33 97  1  0
 33 98  1  0
 35 99  1  0
 36100  1  0
 43101  1  0
 43102  1  0
 44103  1  0
 44104  1  0
 45105  1  0
 45106  1  0
 47107  1  0
 48108  1  0
 52109  1  0
 55110  1  0
 55111  1  0
 55112  1  0
 58113  1  0
 58114  1  0
 58115  1  0
 59116  1  0
 62117  1  0
 63118  1  0
 70119  1  0
 70120  1  0
 71121  1  0
 71122  1  0
 72123  1  0
 72124  1  0
 74125  1  0
 75126  1  0
 75127  1  0
M  END

