
     RDKit          3D

173181  0  0  0  0  0  0  0  0999 V2000
   -1.7718    3.3351    4.2426 C   0  0  0  0  0  0  0  0  0  0  0  0
   -0.5187    3.9195    4.0009 C   0  0  0  0  0  0  0  0  0  0  0  0
    0.1295    3.6058    2.6626 C   0  0  0  0  0  0  0  0  0  0  0  0
    0.5394    2.1331    2.5956 C   0  0  0  0  0  0  0  0  0  0  0  0
    0.1029    4.6982    5.0249 C   0  0  0  0  0  0  0  0  0  0  0  0
    1.4185    5.4201    4.7680 C   0  0  0  0  0  0  0  0  0  0  0  0
    2.6099    4.4976    5.0058 C   0  0  0  0  0  0  0  0  0  0  0  0
   -0.5220    4.7695    6.3043 C   0  0  0  0  0  0  0  0  0  0  0  0
    0.0548    5.5508    7.4681 C   0  0  0  0  0  0  0  0  0  0  0  0
   -0.4953    6.9767    7.4844 C   0  0  0  0  0  0  0  0  0  0  0  0
   -1.7527    4.1296    6.5141 C   0  0  0  0  0  0  0  0  0  0  0  0
   -2.3706    3.3994    5.5018 C   0  0  0  0  0  0  0  0  0  0  0  0
   -3.6866    2.7790    5.7687 C   0  0  0  0  0  0  0  0  0  0  0  0
   -4.0826    1.5763    5.3314 C   0  0  0  0  0  0  0  0  0  0  0  0
   -3.2152    0.5828    4.6648 C   0  0  0  0  0  0  0  0  0  0  0  0
   -1.6315    0.1876    5.1099 S   0  0  0  0  0  0  0  0  0  0  0  0
   -3.6180   -0.3272    3.6846 C   0  0  0  0  0  0  0  0  0  0  0  0
   -4.8785   -0.3681    3.0808 C   0  0  0  0  0  0  0  0  0  0  0  0
   -5.1734   -1.3924    2.1568 C   0  0  0  0  0  0  0  0  0  0  0  0
   -6.4195   -1.4729    1.5167 O   0  0  0  0  0  0  0  0  0  0  0  0
   -7.4710   -0.5292    1.6869 C   0  0  0  0  0  0  0  0  0  0  0  0
   -4.2093   -2.3795    1.8685 C   0  0  0  0  0  0  0  0  0  0  0  0
   -4.5757   -3.4272    1.0102 O   0  0  0  0  0  0  0  0  0  0  0  0
   -3.8305   -4.6295    0.8480 C   0  0  0  0  0  0  0  0  0  0  0  0
   -2.9246   -2.3004    2.4451 C   0  0  0  0  0  0  0  0  0  0  0  0
   -2.6302   -1.2628    3.3369 C   0  0  0  0  0  0  0  0  0  0  0  0
   -1.4286   -1.0859    4.0271 C   0  0  0  0  0  0  0  0  0  0  0  0
   -0.2000   -1.8802    3.9089 C   0  0  0  0  0  0  0  0  0  0  0  0
    0.4058   -2.0560    2.7311 C   0  0  0  0  0  0  0  0  0  0  0  0
    1.6150   -2.9105    2.5997 C   0  0  0  0  0  0  0  0  0  0  0  0
    2.8098   -2.6407    3.3263 C   0  0  0  0  0  0  0  0  0  0  0  0
    3.0108   -1.2604    3.9468 C   0  0  0  0  0  0  0  0  0  0  0  0
    3.5845   -0.2942    2.9133 C   0  0  0  0  0  0  0  0  0  0  0  0
    3.8839   -3.5855    3.2850 C   0  0  0  0  0  0  0  0  0  0  0  0
    5.0701   -3.4368    4.2316 C   0  0  0  0  0  0  0  0  0  0  0  0
    4.6844   -3.8416    5.6577 C   0  0  0  0  0  0  0  0  0  0  0  0
    3.7897   -4.7155    2.4184 C   0  0  0  0  0  0  0  0  0  0  0  0
    4.9282   -5.6974    2.1909 C   0  0  0  0  0  0  0  0  0  0  0  0
    4.9739   -6.7842    3.2625 C   0  0  0  0  0  0  0  0  0  0  0  0
    2.6256   -4.9104    1.6665 C   0  0  0  0  0  0  0  0  0  0  0  0
    1.5561   -4.0231    1.7382 C   0  0  0  0  0  0  0  0  0  0  0  0
    0.4219   -4.2404    0.8206 C   0  0  0  0  0  0  0  0  0  0  0  0
    0.3261   -3.5094   -0.2921 C   0  0  0  0  0  0  0  0  0  0  0  0
   -0.7677   -3.6415   -1.2647 C   0  0  0  0  0  0  0  0  0  0  0  0
   -1.4418   -2.3230   -2.0434 S   0  0  0  0  0  0  0  0  0  0  0  0
   -1.3548   -4.7922   -1.8039 C   0  0  0  0  0  0  0  0  0  0  0  0
   -1.0230   -6.1164   -1.4914 C   0  0  0  0  0  0  0  0  0  0  0  0
   -1.7119   -7.1773   -2.1188 C   0  0  0  0  0  0  0  0  0  0  0  0
   -1.4248   -8.5214   -1.8296 O   0  0  0  0  0  0  0  0  0  0  0  0
   -0.4284   -8.9550   -0.9090 C   0  0  0  0  0  0  0  0  0  0  0  0
   -2.7139   -6.9046   -3.0682 C   0  0  0  0  0  0  0  0  0  0  0  0
   -3.3855   -7.9925   -3.6510 O   0  0  0  0  0  0  0  0  0  0  0  0
   -4.4449   -7.8771   -4.5947 C   0  0  0  0  0  0  0  0  0  0  0  0
   -3.0127   -5.5702   -3.4138 C   0  0  0  0  0  0  0  0  0  0  0  0
   -2.3293   -4.5189   -2.7891 C   0  0  0  0  0  0  0  0  0  0  0  0
   -2.4880   -3.1534   -3.0736 C   0  0  0  0  0  0  0  0  0  0  0  0
   -3.3361   -2.5682   -4.1508 C   0  0  0  0  0  0  0  0  0  0  0  0
   -3.3005   -1.2990   -4.5893 C   0  0  0  0  0  0  0  0  0  0  0  0
   -2.4552   -0.2270   -4.0158 C   0  0  0  0  0  0  0  0  0  0  0  0
   -3.0082    0.6927   -3.0824 C   0  0  0  0  0  0  0  0  0  0  0  0
   -4.5164    0.6818   -2.8411 C   0  0  0  0  0  0  0  0  0  0  0  0
   -5.2234    1.5793   -3.8496 C   0  0  0  0  0  0  0  0  0  0  0  0
   -2.1678    1.6776   -2.4766 C   0  0  0  0  0  0  0  0  0  0  0  0
   -2.6939    2.5331   -1.3262 C   0  0  0  0  0  0  0  0  0  0  0  0
   -2.7184    1.7480   -0.0124 C   0  0  0  0  0  0  0  0  0  0  0  0
   -0.8071    1.7760   -2.8906 C   0  0  0  0  0  0  0  0  0  0  0  0
    0.1369    2.8775   -2.4374 C   0  0  0  0  0  0  0  0  0  0  0  0
    0.7982    2.5421   -1.1065 C   0  0  0  0  0  0  0  0  0  0  0  0
   -0.2915    0.8375   -3.7931 C   0  0  0  0  0  0  0  0  0  0  0  0
   -1.1018   -0.1244   -4.4023 C   0  0  0  0  0  0  0  0  0  0  0  0
   -0.5046   -1.0802   -5.3756 C   0  0  0  0  0  0  0  0  0  0  0  0
    0.4034   -0.7788   -6.3150 C   0  0  0  0  0  0  0  0  0  0  0  0
    0.8516    0.5844   -6.6568 C   0  0  0  0  0  0  0  0  0  0  0  0
   -0.1432    1.9296   -6.8779 S   0  0  0  0  0  0  0  0  0  0  0  0
    2.1654    0.9839   -6.8950 C   0  0  0  0  0  0  0  0  0  0  0  0
    3.2942    0.1648   -6.7961 C   0  0  0  0  0  0  0  0  0  0  0  0
    4.5738    0.7113   -7.0267 C   0  0  0  0  0  0  0  0  0  0  0  0
    5.7399   -0.0609   -6.9051 O   0  0  0  0  0  0  0  0  0  0  0  0
    5.7798   -1.3782   -6.3662 C   0  0  0  0  0  0  0  0  0  0  0  0
    4.7073    2.0718   -7.3702 C   0  0  0  0  0  0  0  0  0  0  0  0
    5.9975    2.5729   -7.6088 O   0  0  0  0  0  0  0  0  0  0  0  0
    6.3254    3.9534   -7.7082 C   0  0  0  0  0  0  0  0  0  0  0  0
    3.5633    2.8941   -7.4546 C   0  0  0  0  0  0  0  0  0  0  0  0
    2.2966    2.3468   -7.2181 C   0  0  0  0  0  0  0  0  0  0  0  0
    1.0788    3.0357   -7.2508 C   0  0  0  0  0  0  0  0  0  0  0  0
    0.8792    4.4694   -7.5518 C   0  0  0  0  0  0  0  0  0  0  0  0
   -0.3021    5.0727   -7.4265 C   0  0  0  0  0  0  0  0  0  0  0  0
   -2.2720    2.8042    3.4428 H   0  0  0  0  0  0  0  0  0  0  0  0
   -0.5940    3.8221    1.8476 H   0  0  0  0  0  0  0  0  0  0  0  0
    1.0203    4.2220    2.4480 H   0  0  0  0  0  0  0  0  0  0  0  0
    1.0934    1.8332    3.5092 H   0  0  0  0  0  0  0  0  0  0  0  0
    1.2020    1.9647    1.7222 H   0  0  0  0  0  0  0  0  0  0  0  0
   -0.3597    1.4883    2.4849 H   0  0  0  0  0  0  0  0  0  0  0  0
    1.4552    5.8439    3.7466 H   0  0  0  0  0  0  0  0  0  0  0  0
    1.5223    6.3200    5.4066 H   0  0  0  0  0  0  0  0  0  0  0  0
    2.5763    3.6271    4.3186 H   0  0  0  0  0  0  0  0  0  0  0  0
    2.6164    4.1322    6.0527 H   0  0  0  0  0  0  0  0  0  0  0  0
    3.5526    5.0525    4.8170 H   0  0  0  0  0  0  0  0  0  0  0  0
   -0.2100    5.0564    8.4265 H   0  0  0  0  0  0  0  0  0  0  0  0
    1.1627    5.5703    7.4465 H   0  0  0  0  0  0  0  0  0  0  0  0
   -0.2267    7.5119    6.5501 H   0  0  0  0  0  0  0  0  0  0  0  0
   -1.6003    6.9612    7.5893 H   0  0  0  0  0  0  0  0  0  0  0  0
   -0.0637    7.5281    8.3458 H   0  0  0  0  0  0  0  0  0  0  0  0
   -2.2358    4.2013    7.4820 H   0  0  0  0  0  0  0  0  0  0  0  0
   -4.3911    3.3497    6.3611 H   0  0  0  0  0  0  0  0  0  0  0  0
   -5.1104    1.2879    5.5187 H   0  0  0  0  0  0  0  0  0  0  0  0
   -5.6169    0.3795    3.3322 H   0  0  0  0  0  0  0  0  0  0  0  0
   -8.3228   -0.8100    1.0363 H   0  0  0  0  0  0  0  0  0  0  0  0
   -7.8165   -0.5229    2.7434 H   0  0  0  0  0  0  0  0  0  0  0  0
   -7.1239    0.4840    1.3973 H   0  0  0  0  0  0  0  0  0  0  0  0
   -3.7604   -5.1673    1.8151 H   0  0  0  0  0  0  0  0  0  0  0  0
   -4.3482   -5.2788    0.1134 H   0  0  0  0  0  0  0  0  0  0  0  0
   -2.8186   -4.4077    0.4671 H   0  0  0  0  0  0  0  0  0  0  0  0
   -2.1763   -3.0489    2.2281 H   0  0  0  0  0  0  0  0  0  0  0  0
    0.2468   -2.2713    4.8164 H   0  0  0  0  0  0  0  0  0  0  0  0
   -0.0459   -1.6526    1.8315 H   0  0  0  0  0  0  0  0  0  0  0  0
    3.6798   -1.2789    4.8246 H   0  0  0  0  0  0  0  0  0  0  0  0
    2.0746   -0.8283    4.3376 H   0  0  0  0  0  0  0  0  0  0  0  0
    2.8972   -0.2051    2.0444 H   0  0  0  0  0  0  0  0  0  0  0  0
    3.7072    0.7095    3.3661 H   0  0  0  0  0  0  0  0  0  0  0  0
    4.5750   -0.6474    2.5578 H   0  0  0  0  0  0  0  0  0  0  0  0
    5.4617   -2.3978    4.2202 H   0  0  0  0  0  0  0  0  0  0  0  0
    5.9367   -4.0507    3.9366 H   0  0  0  0  0  0  0  0  0  0  0  0
    5.5963   -3.8920    6.2907 H   0  0  0  0  0  0  0  0  0  0  0  0
    3.9875   -3.1078    6.1092 H   0  0  0  0  0  0  0  0  0  0  0  0
    4.1869   -4.8336    5.6637 H   0  0  0  0  0  0  0  0  0  0  0  0
    5.9036   -5.1782    2.1171 H   0  0  0  0  0  0  0  0  0  0  0  0
    4.8090   -6.2029    1.2070 H   0  0  0  0  0  0  0  0  0  0  0  0
    5.2370   -6.3590    4.2471 H   0  0  0  0  0  0  0  0  0  0  0  0
    5.7511   -7.5277    2.9966 H   0  0  0  0  0  0  0  0  0  0  0  0
    3.9941   -7.2984    3.3372 H   0  0  0  0  0  0  0  0  0  0  0  0
    2.5586   -5.7542    0.9884 H   0  0  0  0  0  0  0  0  0  0  0  0
   -0.3072   -5.0046    1.0597 H   0  0  0  0  0  0  0  0  0  0  0  0
    1.0402   -2.7117   -0.4589 H   0  0  0  0  0  0  0  0  0  0  0  0
   -0.2359   -6.3243   -0.7855 H   0  0  0  0  0  0  0  0  0  0  0  0
   -0.4090  -10.0642   -0.8912 H   0  0  0  0  0  0  0  0  0  0  0  0
   -0.6621   -8.5895    0.1134 H   0  0  0  0  0  0  0  0  0  0  0  0
    0.5713   -8.5910   -1.2263 H   0  0  0  0  0  0  0  0  0  0  0  0
   -4.0874   -7.3588   -5.5082 H   0  0  0  0  0  0  0  0  0  0  0  0
   -4.7941   -8.8903   -4.8753 H   0  0  0  0  0  0  0  0  0  0  0  0
   -5.2961   -7.3187   -4.1513 H   0  0  0  0  0  0  0  0  0  0  0  0
   -3.7667   -5.3639   -4.1588 H   0  0  0  0  0  0  0  0  0  0  0  0
   -4.0222   -3.2279   -4.6626 H   0  0  0  0  0  0  0  0  0  0  0  0
   -3.9729   -1.0191   -5.3889 H   0  0  0  0  0  0  0  0  0  0  0  0
   -4.9292   -0.3465   -2.9113 H   0  0  0  0  0  0  0  0  0  0  0  0
   -4.7877    1.0066   -1.8206 H   0  0  0  0  0  0  0  0  0  0  0  0
   -4.8616    2.6234   -3.7547 H   0  0  0  0  0  0  0  0  0  0  0  0
   -5.0374    1.2253   -4.8865 H   0  0  0  0  0  0  0  0  0  0  0  0
   -6.3162    1.5610   -3.6611 H   0  0  0  0  0  0  0  0  0  0  0  0
   -3.7069    2.9215   -1.5542 H   0  0  0  0  0  0  0  0  0  0  0  0
   -2.0934    3.4460   -1.1702 H   0  0  0  0  0  0  0  0  0  0  0  0
   -1.7308    1.2872    0.1908 H   0  0  0  0  0  0  0  0  0  0  0  0
   -2.9699    2.4324    0.8250 H   0  0  0  0  0  0  0  0  0  0  0  0
   -3.4687    0.9320   -0.0355 H   0  0  0  0  0  0  0  0  0  0  0  0
   -0.3739    3.8594   -2.3885 H   0  0  0  0  0  0  0  0  0  0  0  0
    0.9407    3.0167   -3.1954 H   0  0  0  0  0  0  0  0  0  0  0  0
    0.0599    2.6027   -0.2891 H   0  0  0  0  0  0  0  0  0  0  0  0
    1.2433    1.5263   -1.1375 H   0  0  0  0  0  0  0  0  0  0  0  0
    1.6053    3.2772   -0.8978 H   0  0  0  0  0  0  0  0  0  0  0  0
    0.7638    0.8679   -4.0291 H   0  0  0  0  0  0  0  0  0  0  0  0
   -0.7990   -2.1196   -5.3035 H   0  0  0  0  0  0  0  0  0  0  0  0
    0.8353   -1.5954   -6.8796 H   0  0  0  0  0  0  0  0  0  0  0  0
    3.1801   -0.8779   -6.5308 H   0  0  0  0  0  0  0  0  0  0  0  0
    5.3474   -1.3806   -5.3470 H   0  0  0  0  0  0  0  0  0  0  0  0
    6.8336   -1.7174   -6.3051 H   0  0  0  0  0  0  0  0  0  0  0  0
    5.2184   -2.0786   -7.0164 H   0  0  0  0  0  0  0  0  0  0  0  0
    5.7620    4.4311   -8.5345 H   0  0  0  0  0  0  0  0  0  0  0  0
    7.4085    4.0536   -7.9182 H   0  0  0  0  0  0  0  0  0  0  0  0
    6.1059    4.4534   -6.7442 H   0  0  0  0  0  0  0  0  0  0  0  0
    3.6603    3.9403   -7.6979 H   0  0  0  0  0  0  0  0  0  0  0  0
    1.7182    5.0672   -7.8767 H   0  0  0  0  0  0  0  0  0  0  0  0
   -0.3964    6.1242   -7.6639 H   0  0  0  0  0  0  0  0  0  0  0  0
   -1.1804    4.5387   -7.0903 H   0  0  0  0  0  0  0  0  0  0  0  0
  1  2  2  0
  2  3  1  0
  3  4  1  0
  2  5  1  0
  5  6  1  0
  6  7  1  0
  5  8  2  0
  8  9  1  0
  9 10  1  0
  8 11  1  0
 11 12  2  0
 12 13  1  0
 13 14  2  3
 14 15  1  0
 15 16  1  0
 15 17  2  0
 17 18  1  0
 18 19  2  0
 19 20  1  0
 20 21  1  0
 19 22  1  0
 22 23  1  0
 23 24  1  0
 22 25  2  0
 25 26  1  0
 26 27  2  0
 27 28  1  0
 28 29  2  3
 29 30  1  0
 30 31  2  0
 31 32  1  0
 32 33  1  0
 31 34  1  0
 34 35  1  0
 35 36  1  0
 34 37  2  0
 37 38  1  0
 38 39  1  0
 37 40  1  0
 40 41  2  0
 41 42  1  0
 42 43  2  3
 43 44  1  0
 44 45  1  0
 44 46  2  0
 46 47  1  0
 47 48  2  0
 48 49  1  0
 49 50  1  0
 48 51  1  0
 51 52  1  0
 52 53  1  0
 51 54  2  0
 54 55  1  0
 55 56  2  0
 56 57  1  0
 57 58  2  3
 58 59  1  0
 59 60  2  0
 60 61  1  0
 61 62  1  0
 60 63  1  0
 63 64  1  0
 64 65  1  0
 63 66  2  0
 66 67  1  0
 67 68  1  0
 66 69  1  0
 69 70  2  0
 70 71  1  0
 71 72  2  3
 72 73  1  0
 73 74  1  0
 73 75  2  0
 75 76  1  0
 76 77  2  0
 77 78  1  0
 78 79  1  0
 77 80  1  0
 80 81  1  0
 81 82  1  0
 80 83  2  0
 83 84  1  0
 84 85  2  0
 85 86  1  0
 86 87  2  3
 12  1  1  0
 27 16  1  0
 41 30  1  0
 56 45  1  0
 70 59  1  0
 85 74  1  0
 26 17  1  0
 55 46  1  0
 84 75  1  0
  1 88  1  0
  3 89  1  0
  3 90  1  0
  4 91  1  0
  4 92  1  0
  4 93  1  0
  6 94  1  0
  6 95  1  0
  7 96  1  0
  7 97  1  0
  7 98  1  0
  9 99  1  0
  9100  1  0
 10101  1  0
 10102  1  0
 10103  1  0
 11104  1  0
 13105  1  0
 14106  1  0
 18107  1  0
 21108  1  0
 21109  1  0
 21110  1  0
 24111  1  0
 24112  1  0
 24113  1  0
 25114  1  0
 28115  1  0
 29116  1  0
 32117  1  0
 32118  1  0
 33119  1  0
 33120  1  0
 33121  1  0
 35122  1  0
 35123  1  0
 36124  1  0
 36125  1  0
 36126  1  0
 38127  1  0
 38128  1  0
 39129  1  0
 39130  1  0
 39131  1  0
 40132  1  0
 42133  1  0
 43134  1  0
 47135  1  0
 50136  1  0
 50137  1  0
 50138  1  0
 53139  1  0
 53140  1  0
 53141  1  0
 54142  1  0
 57143  1  0
 58144  1  0
 61145  1  0
 61146  1  0
 62147  1  0
 62148  1  0
 62149  1  0
 64150  1  0
 64151  1  0
 65152  1  0
 65153  1  0
 65154  1  0
 67155  1  0
 67156  1  0
 68157  1  0
 68158  1  0
 68159  1  0
 69160  1  0
 71161  1  0
 72162  1  0
 76163  1  0
 79164  1  0
 79165  1  0
 79166  1  0
 82167  1  0
 82168  1  0
 82169  1  0
 83170  1  0
 86171  1  0
 87172  1  0
 87173  1  0
M  END

