
     RDKit          3D

104111  0  0  0  0  0  0  0  0999 V2000
    4.4691    3.9496   -0.8186 C   0  0  0  0  0  0  0  0  0  0  0  0
    3.2969    3.2092   -1.7714 S   0  0  0  0  0  0  0  0  0  0  0  0
    5.3552    2.9640   -0.4105 C   0  0  0  0  0  0  0  0  0  0  0  0
    6.4676    3.1857    0.3949 C   0  0  0  0  0  0  0  0  0  0  0  0
    7.3161    2.1088    0.7178 C   0  0  0  0  0  0  0  0  0  0  0  0
    8.4223    2.2714    1.5685 O   0  0  0  0  0  0  0  0  0  0  0  0
    8.7060    3.4639    2.2911 C   0  0  0  0  0  0  0  0  0  0  0  0
    7.0565    0.8265    0.1960 C   0  0  0  0  0  0  0  0  0  0  0  0
    7.9566   -0.2048    0.5063 O   0  0  0  0  0  0  0  0  0  0  0  0
    7.8082   -1.5586    0.0863 C   0  0  0  0  0  0  0  0  0  0  0  0
    5.9267    0.6120   -0.6219 C   0  0  0  0  0  0  0  0  0  0  0  0
    5.0572    1.6772   -0.8945 C   0  0  0  0  0  0  0  0  0  0  0  0
    3.8896    1.6367   -1.6645 C   0  0  0  0  0  0  0  0  0  0  0  0
    3.1807    0.4827   -2.2453 C   0  0  0  0  0  0  0  0  0  0  0  0
    3.1007   -0.7091   -1.6358 C   0  0  0  0  0  0  0  0  0  0  0  0
    2.2061   -1.7785   -2.1028 C   0  0  0  0  0  0  0  0  0  0  0  0
    2.2677   -3.3599   -1.5464 S   0  0  0  0  0  0  0  0  0  0  0  0
    0.8563   -3.9022   -2.3001 C   0  0  0  0  0  0  0  0  0  0  0  0
    0.3666   -2.8452   -3.0841 C   0  0  0  0  0  0  0  0  0  0  0  0
    1.1089   -1.6612   -2.9532 C   0  0  0  0  0  0  0  0  0  0  0  0
   -0.7731   -2.9318   -3.9583 N   0  0  0  0  0  4  0  0  0  0  0  0
   -0.9741   -1.9575   -4.9101 O   0  0  0  0  0  1  0  0  0  0  0  0
   -1.5166   -3.9339   -3.9592 O   0  0  0  0  0  0  0  0  0  0  0  0
    0.4223   -5.3098   -2.3824 C   0  0  0  0  0  0  0  0  0  0  0  0
    0.1844   -6.1596   -1.3739 C   0  0  0  0  0  0  0  0  0  0  0  0
    0.2694   -5.9277    0.0888 C   0  0  0  0  0  0  0  0  0  0  0  0
    0.7098   -4.5337    0.9240 S   0  0  0  0  0  0  0  0  0  0  0  0
    0.5307   -5.1521    2.4816 C   0  0  0  0  0  0  0  0  0  0  0  0
    0.1059   -6.4818    2.3606 C   0  0  0  0  0  0  0  0  0  0  0  0
   -0.0546   -6.8960    1.0278 C   0  0  0  0  0  0  0  0  0  0  0  0
   -0.1829   -7.3548    3.4711 N   0  0  0  0  0  4  0  0  0  0  0  0
   -0.8973   -8.5110    3.2547 O   0  0  0  0  0  1  0  0  0  0  0  0
   -0.0184   -6.9689    4.6469 O   0  0  0  0  0  0  0  0  0  0  0  0
    0.9153   -4.4505    3.7213 C   0  0  0  0  0  0  0  0  0  0  0  0
    0.4724   -3.2369    4.0810 C   0  0  0  0  0  0  0  0  0  0  0  0
   -0.6097   -2.4894    3.4008 C   0  0  0  0  0  0  0  0  0  0  0  0
   -1.8726   -3.1662    2.5136 S   0  0  0  0  0  0  0  0  0  0  0  0
   -0.8031   -1.1025    3.4119 C   0  0  0  0  0  0  0  0  0  0  0  0
    0.0265   -0.1644    4.0332 C   0  0  0  0  0  0  0  0  0  0  0  0
   -0.2514    1.2125    3.8947 C   0  0  0  0  0  0  0  0  0  0  0  0
    0.5553    2.1987    4.4874 O   0  0  0  0  0  0  0  0  0  0  0  0
    1.7751    1.9415    5.1716 C   0  0  0  0  0  0  0  0  0  0  0  0
   -1.3736    1.6331    3.1486 C   0  0  0  0  0  0  0  0  0  0  0  0
   -1.6079    3.0117    3.0219 O   0  0  0  0  0  0  0  0  0  0  0  0
   -2.6052    3.5756    2.1759 C   0  0  0  0  0  0  0  0  0  0  0  0
   -2.2241    0.6796    2.5484 C   0  0  0  0  0  0  0  0  0  0  0  0
   -1.9328   -0.6803    2.6863 C   0  0  0  0  0  0  0  0  0  0  0  0
   -2.6402   -1.7268    2.0981 C   0  0  0  0  0  0  0  0  0  0  0  0
   -3.7471   -1.6128    1.1395 C   0  0  0  0  0  0  0  0  0  0  0  0
   -3.7456   -2.3548    0.0344 C   0  0  0  0  0  0  0  0  0  0  0  0
   -4.7621   -2.2144   -1.0200 C   0  0  0  0  0  0  0  0  0  0  0  0
   -6.1508   -1.2667   -0.9583 S   0  0  0  0  0  0  0  0  0  0  0  0
   -6.6653   -1.6230   -2.5221 C   0  0  0  0  0  0  0  0  0  0  0  0
   -5.7712   -2.5240   -3.0991 C   0  0  0  0  0  0  0  0  0  0  0  0
   -4.6979   -2.8413   -2.2567 C   0  0  0  0  0  0  0  0  0  0  0  0
   -5.9204   -3.0891   -4.4153 N   0  0  0  0  0  4  0  0  0  0  0  0
   -7.0219   -2.8085   -5.1814 O   0  0  0  0  0  1  0  0  0  0  0  0
   -5.1590   -4.0085   -4.7797 O   0  0  0  0  0  0  0  0  0  0  0  0
   -7.8596   -1.0397   -3.1494 C   0  0  0  0  0  0  0  0  0  0  0  0
   -7.9790    0.2380   -3.5215 C   0  0  0  0  0  0  0  0  0  0  0  0
   -6.9358    1.2902   -3.4322 C   0  0  0  0  0  0  0  0  0  0  0  0
   -5.2906    1.1179   -3.1069 S   0  0  0  0  0  0  0  0  0  0  0  0
   -4.8823    2.7436   -3.2157 C   0  0  0  0  0  0  0  0  0  0  0  0
   -6.0517    3.4509   -3.5284 C   0  0  0  0  0  0  0  0  0  0  0  0
   -7.1842    2.6383   -3.6558 C   0  0  0  0  0  0  0  0  0  0  0  0
   -6.1259    4.8792   -3.6487 N   0  0  0  0  0  4  0  0  0  0  0  0
   -6.9799    5.4284   -4.5825 O   0  0  0  0  0  1  0  0  0  0  0  0
   -5.6089    5.6221   -2.7823 O   0  0  0  0  0  0  0  0  0  0  0  0
   -3.5086    3.2452   -3.0505 C   0  0  0  0  0  0  0  0  0  0  0  0
   -3.0319    4.3142   -3.6932 C   0  0  0  0  0  0  0  0  0  0  0  0
    4.5223    4.9984   -0.5673 H   0  0  0  0  0  0  0  0  0  0  0  0
    6.6672    4.1810    0.7637 H   0  0  0  0  0  0  0  0  0  0  0  0
    8.9396    4.2917    1.5855 H   0  0  0  0  0  0  0  0  0  0  0  0
    9.5897    3.2937    2.9366 H   0  0  0  0  0  0  0  0  0  0  0  0
    7.8436    3.7354    2.9362 H   0  0  0  0  0  0  0  0  0  0  0  0
    6.8710   -1.9851    0.5042 H   0  0  0  0  0  0  0  0  0  0  0  0
    8.6706   -2.1424    0.4618 H   0  0  0  0  0  0  0  0  0  0  0  0
    7.8018   -1.6157   -1.0226 H   0  0  0  0  0  0  0  0  0  0  0  0
    5.7569   -0.3527   -1.0671 H   0  0  0  0  0  0  0  0  0  0  0  0
    2.5837    0.6769   -3.1313 H   0  0  0  0  0  0  0  0  0  0  0  0
    3.6387   -0.8945   -0.7204 H   0  0  0  0  0  0  0  0  0  0  0  0
    0.8215   -0.7394   -3.4530 H   0  0  0  0  0  0  0  0  0  0  0  0
    0.2295   -5.6909   -3.3775 H   0  0  0  0  0  0  0  0  0  0  0  0
   -0.1424   -7.1490   -1.6628 H   0  0  0  0  0  0  0  0  0  0  0  0
   -0.3627   -7.8965    0.7550 H   0  0  0  0  0  0  0  0  0  0  0  0
    1.6228   -4.9444    4.3711 H   0  0  0  0  0  0  0  0  0  0  0  0
    0.9214   -2.7931    4.9577 H   0  0  0  0  0  0  0  0  0  0  0  0
    0.9015   -0.4931    4.5750 H   0  0  0  0  0  0  0  0  0  0  0  0
    2.1670    2.8921    5.5909 H   0  0  0  0  0  0  0  0  0  0  0  0
    1.5917    1.2511    6.0150 H   0  0  0  0  0  0  0  0  0  0  0  0
    2.5233    1.5076    4.4780 H   0  0  0  0  0  0  0  0  0  0  0  0
   -2.4439    3.2431    1.1284 H   0  0  0  0  0  0  0  0  0  0  0  0
   -3.6140    3.2662    2.5249 H   0  0  0  0  0  0  0  0  0  0  0  0
   -2.5400    4.6819    2.2087 H   0  0  0  0  0  0  0  0  0  0  0  0
   -3.0802    0.9866    1.9694 H   0  0  0  0  0  0  0  0  0  0  0  0
   -4.5013   -0.8501    1.2901 H   0  0  0  0  0  0  0  0  0  0  0  0
   -2.9403   -3.0599   -0.1362 H   0  0  0  0  0  0  0  0  0  0  0  0
   -3.9020   -3.5281   -2.5349 H   0  0  0  0  0  0  0  0  0  0  0  0
   -8.6923   -1.7012   -3.3457 H   0  0  0  0  0  0  0  0  0  0  0  0
   -8.9241    0.5367   -3.9629 H   0  0  0  0  0  0  0  0  0  0  0  0
   -8.1666    3.0305   -3.8819 H   0  0  0  0  0  0  0  0  0  0  0  0
   -2.8330    2.6647   -2.4322 H   0  0  0  0  0  0  0  0  0  0  0  0
   -2.0051    4.6142   -3.5403 H   0  0  0  0  0  0  0  0  0  0  0  0
   -3.6386    4.8848   -4.3792 H   0  0  0  0  0  0  0  0  0  0  0  0
  1  2  1  0
  1  3  2  0
  3  4  1  0
  4  5  2  0
  5  6  1  0
  6  7  1  0
  5  8  1  0
  8  9  1  0
  9 10  1  0
  8 11  2  0
 11 12  1  0
 12 13  2  0
 13 14  1  0
 14 15  2  3
 15 16  1  0
 16 17  1  0
 17 18  1  0
 18 19  2  0
 19 20  1  0
 19 21  1  0
 21 22  1  0
 21 23  2  0
 18 24  1  0
 24 25  2  3
 25 26  1  0
 26 27  1  0
 27 28  1  0
 28 29  2  0
 29 30  1  0
 29 31  1  0
 31 32  1  0
 31 33  2  0
 28 34  1  0
 34 35  2  3
 35 36  1  0
 36 37  1  0
 36 38  2  0
 38 39  1  0
 39 40  2  0
 40 41  1  0
 41 42  1  0
 40 43  1  0
 43 44  1  0
 44 45  1  0
 43 46  2  0
 46 47  1  0
 47 48  2  0
 48 49  1  0
 49 50  2  3
 50 51  1  0
 51 52  1  0
 52 53  1  0
 53 54  2  0
 54 55  1  0
 54 56  1  0
 56 57  1  0
 56 58  2  0
 53 59  1  0
 59 60  2  3
 60 61  1  0
 61 62  1  0
 62 63  1  0
 63 64  2  0
 64 65  1  0
 64 66  1  0
 66 67  1  0
 66 68  2  0
 63 69  1  0
 69 70  2  3
 13  2  1  0
 20 16  2  0
 30 26  2  0
 48 37  1  0
 55 51  2  0
 65 61  2  0
 12  3  1  0
 47 38  1  0
  1 71  1  0
  4 72  1  0
  7 73  1  0
  7 74  1  0
  7 75  1  0
 10 76  1  0
 10 77  1  0
 10 78  1  0
 11 79  1  0
 14 80  1  0
 15 81  1  0
 20 82  1  0
 24 83  1  0
 25 84  1  0
 30 85  1  0
 34 86  1  0
 35 87  1  0
 39 88  1  0
 42 89  1  0
 42 90  1  0
 42 91  1  0
 45 92  1  0
 45 93  1  0
 45 94  1  0
 46 95  1  0
 49 96  1  0
 50 97  1  0
 55 98  1  0
 59 99  1  0
 60100  1  0
 65101  1  0
 69102  1  0
 70103  1  0
 70104  1  0
M  CHG  8  21   1  22  -1  31   1  32  -1  56   1  57  -1  66   1  67  -1
M  END

