
     RDKit          3D

152163  0  0  0  0  0  0  0  0999 V2000
    2.2272    1.0554    9.0014 C   0  0  0  0  0  0  0  0  0  0  0  0
    0.8825    2.0325    9.2770 S   0  0  0  0  0  0  0  0  0  0  0  0
    2.8379    1.4971    7.8338 C   0  0  0  0  0  0  0  0  0  0  0  0
    3.9863    0.9397    7.2732 C   0  0  0  0  0  0  0  0  0  0  0  0
    4.5297    1.5111    6.1015 C   0  0  0  0  0  0  0  0  0  0  0  0
    5.6764    0.9900    5.4805 O   0  0  0  0  0  0  0  0  0  0  0  0
    6.3366   -0.2100    5.8833 C   0  0  0  0  0  0  0  0  0  0  0  0
    3.9266    2.6485    5.5245 C   0  0  0  0  0  0  0  0  0  0  0  0
    4.5449    3.2117    4.3989 O   0  0  0  0  0  0  0  0  0  0  0  0
    4.1245    4.4116    3.7586 C   0  0  0  0  0  0  0  0  0  0  0  0
    2.7459    3.1857    6.0868 C   0  0  0  0  0  0  0  0  0  0  0  0
    2.2039    2.5949    7.2314 C   0  0  0  0  0  0  0  0  0  0  0  0
    1.0519    2.9987    7.9035 C   0  0  0  0  0  0  0  0  0  0  0  0
    0.1494    4.0981    7.5384 C   0  0  0  0  0  0  0  0  0  0  0  0
   -0.9798    3.9670    6.8178 C   0  0  0  0  0  0  0  0  0  0  0  0
   -1.5175    2.7043    6.2354 C   0  0  0  0  0  0  0  0  0  0  0  0
   -1.0348    1.1375    6.6150 S   0  0  0  0  0  0  0  0  0  0  0  0
   -2.5006    2.5901    5.2406 C   0  0  0  0  0  0  0  0  0  0  0  0
   -3.1767    3.6532    4.6307 C   0  0  0  0  0  0  0  0  0  0  0  0
   -4.0912    3.3933    3.5865 C   0  0  0  0  0  0  0  0  0  0  0  0
   -4.7661    4.4293    2.9221 O   0  0  0  0  0  0  0  0  0  0  0  0
   -4.5765    5.8186    3.1895 C   0  0  0  0  0  0  0  0  0  0  0  0
   -4.3454    2.0658    3.1843 C   0  0  0  0  0  0  0  0  0  0  0  0
   -5.2443    1.8560    2.1252 O   0  0  0  0  0  0  0  0  0  0  0  0
   -5.5135    0.5854    1.5354 C   0  0  0  0  0  0  0  0  0  0  0  0
   -3.6978    0.9941    3.8346 C   0  0  0  0  0  0  0  0  0  0  0  0
   -2.7600    1.2610    4.8340 C   0  0  0  0  0  0  0  0  0  0  0  0
   -1.9948    0.3159    5.5166 C   0  0  0  0  0  0  0  0  0  0  0  0
   -2.0378   -1.1489    5.4820 C   0  0  0  0  0  0  0  0  0  0  0  0
   -1.9610   -1.9873    4.4367 C   0  0  0  0  0  0  0  0  0  0  0  0
   -1.8095   -1.7593    2.9761 C   0  0  0  0  0  0  0  0  0  0  0  0
   -2.2177   -3.0065    1.9284 S   0  0  0  0  0  0  0  0  0  0  0  0
   -1.1463   -0.7836    2.1985 C   0  0  0  0  0  0  0  0  0  0  0  0
   -0.4889    0.3695    2.6491 C   0  0  0  0  0  0  0  0  0  0  0  0
    0.0733    1.2692    1.7213 C   0  0  0  0  0  0  0  0  0  0  0  0
    0.6598    2.4775    2.1194 O   0  0  0  0  0  0  0  0  0  0  0  0
    0.3444    3.1514    3.3333 C   0  0  0  0  0  0  0  0  0  0  0  0
    0.0645    0.9701    0.3523 C   0  0  0  0  0  0  0  0  0  0  0  0
    0.6252    1.9112   -0.5268 O   0  0  0  0  0  0  0  0  0  0  0  0
    0.7206    1.7475   -1.9339 C   0  0  0  0  0  0  0  0  0  0  0  0
   -0.4871   -0.2420   -0.1006 C   0  0  0  0  0  0  0  0  0  0  0  0
   -1.0905   -1.1111    0.8176 C   0  0  0  0  0  0  0  0  0  0  0  0
   -1.6265   -2.3607    0.4993 C   0  0  0  0  0  0  0  0  0  0  0  0
   -1.3483   -3.1530   -0.7225 C   0  0  0  0  0  0  0  0  0  0  0  0
   -1.8192   -4.3970   -0.8797 C   0  0  0  0  0  0  0  0  0  0  0  0
   -1.1808   -5.3141   -1.8251 C   0  0  0  0  0  0  0  0  0  0  0  0
    0.2960   -6.0708   -1.5390 S   0  0  0  0  0  0  0  0  0  0  0  0
   -1.6031   -5.6554   -3.1048 C   0  0  0  0  0  0  0  0  0  0  0  0
   -2.7507   -5.1764   -3.7417 C   0  0  0  0  0  0  0  0  0  0  0  0
   -3.0020   -5.5471   -5.0809 C   0  0  0  0  0  0  0  0  0  0  0  0
   -4.1419   -5.1068   -5.7728 O   0  0  0  0  0  0  0  0  0  0  0  0
   -5.1359   -4.2453   -5.2239 C   0  0  0  0  0  0  0  0  0  0  0  0
   -2.0897   -6.3787   -5.7688 C   0  0  0  0  0  0  0  0  0  0  0  0
   -2.3492   -6.6768   -7.1156 O   0  0  0  0  0  0  0  0  0  0  0  0
   -1.4498   -7.3714   -7.9718 C   0  0  0  0  0  0  0  0  0  0  0  0
   -0.9463   -6.8730   -5.1063 C   0  0  0  0  0  0  0  0  0  0  0  0
   -0.7124   -6.5126   -3.7764 C   0  0  0  0  0  0  0  0  0  0  0  0
    0.4116   -6.8574   -3.0227 C   0  0  0  0  0  0  0  0  0  0  0  0
    1.6338   -7.5185   -3.5162 C   0  0  0  0  0  0  0  0  0  0  0  0
    2.7465   -6.8312   -3.8102 C   0  0  0  0  0  0  0  0  0  0  0  0
    2.7710   -5.3609   -3.7812 C   0  0  0  0  0  0  0  0  0  0  0  0
    1.7564   -4.4153   -4.7347 S   0  0  0  0  0  0  0  0  0  0  0  0
    3.1953   -4.5740   -2.7098 C   0  0  0  0  0  0  0  0  0  0  0  0
    3.9702   -5.0159   -1.6362 C   0  0  0  0  0  0  0  0  0  0  0  0
    4.2323   -4.1384   -0.5631 C   0  0  0  0  0  0  0  0  0  0  0  0
    5.0061   -4.5319    0.5417 O   0  0  0  0  0  0  0  0  0  0  0  0
    5.5889   -5.8219    0.7064 C   0  0  0  0  0  0  0  0  0  0  0  0
    3.6987   -2.8346   -0.5683 C   0  0  0  0  0  0  0  0  0  0  0  0
    3.9594   -2.0067    0.5384 O   0  0  0  0  0  0  0  0  0  0  0  0
    3.3798   -0.7197    0.7397 C   0  0  0  0  0  0  0  0  0  0  0  0
    2.9149   -2.3972   -1.6551 C   0  0  0  0  0  0  0  0  0  0  0  0
    2.6724   -3.2681   -2.7229 C   0  0  0  0  0  0  0  0  0  0  0  0
    1.8269   -3.0146   -3.8066 C   0  0  0  0  0  0  0  0  0  0  0  0
    0.9296   -1.8599   -3.9623 C   0  0  0  0  0  0  0  0  0  0  0  0
   -0.3135   -2.0233   -4.4217 C   0  0  0  0  0  0  0  0  0  0  0  0
   -1.3111   -0.9462   -4.4078 C   0  0  0  0  0  0  0  0  0  0  0  0
   -2.8930   -1.1827   -3.8939 S   0  0  0  0  0  0  0  0  0  0  0  0
   -1.1768    0.3916   -4.7931 C   0  0  0  0  0  0  0  0  0  0  0  0
   -0.0266    0.9904   -5.3167 C   0  0  0  0  0  0  0  0  0  0  0  0
   -0.0362    2.3662   -5.6295 C   0  0  0  0  0  0  0  0  0  0  0  0
    1.1153    3.0332   -6.0844 O   0  0  0  0  0  0  0  0  0  0  0  0
    2.4029    2.4352   -6.1679 C   0  0  0  0  0  0  0  0  0  0  0  0
   -1.2180    3.1158   -5.4741 C   0  0  0  0  0  0  0  0  0  0  0  0
   -1.1875    4.4773   -5.8177 O   0  0  0  0  0  0  0  0  0  0  0  0
   -2.2597    5.3897   -5.6128 C   0  0  0  0  0  0  0  0  0  0  0  0
   -2.3875    2.4975   -4.9775 C   0  0  0  0  0  0  0  0  0  0  0  0
   -2.3612    1.1405   -4.6358 C   0  0  0  0  0  0  0  0  0  0  0  0
   -3.4345    0.4001   -4.1261 C   0  0  0  0  0  0  0  0  0  0  0  0
   -4.7946    0.8926   -3.8228 C   0  0  0  0  0  0  0  0  0  0  0  0
   -5.7548    0.0967   -3.3524 C   0  0  0  0  0  0  0  0  0  0  0  0
    2.5541    0.2298    9.6225 H   0  0  0  0  0  0  0  0  0  0  0  0
    4.4494    0.0864    7.7466 H   0  0  0  0  0  0  0  0  0  0  0  0
    6.7378   -0.0998    6.9145 H   0  0  0  0  0  0  0  0  0  0  0  0
    7.1815   -0.4070    5.1920 H   0  0  0  0  0  0  0  0  0  0  0  0
    5.6324   -1.0700    5.8348 H   0  0  0  0  0  0  0  0  0  0  0  0
    3.1232    4.2710    3.3072 H   0  0  0  0  0  0  0  0  0  0  0  0
    4.1045    5.2513    4.4858 H   0  0  0  0  0  0  0  0  0  0  0  0
    4.8387    4.6570    2.9455 H   0  0  0  0  0  0  0  0  0  0  0  0
    2.2613    4.0491    5.6483 H   0  0  0  0  0  0  0  0  0  0  0  0
    0.4420    5.0937    7.8579 H   0  0  0  0  0  0  0  0  0  0  0  0
   -1.5194    4.8828    6.6130 H   0  0  0  0  0  0  0  0  0  0  0  0
   -2.9751    4.6688    4.9361 H   0  0  0  0  0  0  0  0  0  0  0  0
   -4.8636    6.0471    4.2361 H   0  0  0  0  0  0  0  0  0  0  0  0
   -3.5169    6.1012    3.0128 H   0  0  0  0  0  0  0  0  0  0  0  0
   -5.2164    6.4106    2.5063 H   0  0  0  0  0  0  0  0  0  0  0  0
   -6.2272    0.7169    0.6984 H   0  0  0  0  0  0  0  0  0  0  0  0
   -5.9657   -0.0971    2.2879 H   0  0  0  0  0  0  0  0  0  0  0  0
   -4.5730    0.1422    1.1341 H   0  0  0  0  0  0  0  0  0  0  0  0
   -3.8991   -0.0279    3.5504 H   0  0  0  0  0  0  0  0  0  0  0  0
   -2.0793   -1.6155    6.4622 H   0  0  0  0  0  0  0  0  0  0  0  0
   -2.0601   -3.0362    4.7017 H   0  0  0  0  0  0  0  0  0  0  0  0
   -0.3583    0.5473    3.6957 H   0  0  0  0  0  0  0  0  0  0  0  0
    0.6644    2.5456    4.2088 H   0  0  0  0  0  0  0  0  0  0  0  0
    0.8624    4.1298    3.3599 H   0  0  0  0  0  0  0  0  0  0  0  0
   -0.7446    3.3506    3.3651 H   0  0  0  0  0  0  0  0  0  0  0  0
    1.4066    0.9114   -2.1721 H   0  0  0  0  0  0  0  0  0  0  0  0
    1.1248    2.6805   -2.3803 H   0  0  0  0  0  0  0  0  0  0  0  0
   -0.2906    1.5625   -2.3616 H   0  0  0  0  0  0  0  0  0  0  0  0
   -0.4721   -0.4931   -1.1528 H   0  0  0  0  0  0  0  0  0  0  0  0
   -0.6167   -2.7820   -1.4309 H   0  0  0  0  0  0  0  0  0  0  0  0
   -2.5376   -4.8161   -0.1802 H   0  0  0  0  0  0  0  0  0  0  0  0
   -3.4184   -4.5127   -3.2122 H   0  0  0  0  0  0  0  0  0  0  0  0
   -5.9253   -4.0753   -5.9873 H   0  0  0  0  0  0  0  0  0  0  0  0
   -5.6016   -4.7111   -4.3299 H   0  0  0  0  0  0  0  0  0  0  0  0
   -4.6886   -3.2663   -4.9564 H   0  0  0  0  0  0  0  0  0  0  0  0
   -0.4710   -6.8441   -8.0088 H   0  0  0  0  0  0  0  0  0  0  0  0
   -1.3050   -8.4148   -7.6166 H   0  0  0  0  0  0  0  0  0  0  0  0
   -1.8713   -7.4008   -8.9970 H   0  0  0  0  0  0  0  0  0  0  0  0
   -0.2380   -7.5120   -5.6152 H   0  0  0  0  0  0  0  0  0  0  0  0
    1.6364   -8.5965   -3.6113 H   0  0  0  0  0  0  0  0  0  0  0  0
    3.6464   -7.3631   -4.0878 H   0  0  0  0  0  0  0  0  0  0  0  0
    4.3514   -6.0266   -1.6360 H   0  0  0  0  0  0  0  0  0  0  0  0
    4.7976   -6.6029    0.7040 H   0  0  0  0  0  0  0  0  0  0  0  0
    6.3185   -6.0124   -0.1105 H   0  0  0  0  0  0  0  0  0  0  0  0
    6.1246   -5.8590    1.6785 H   0  0  0  0  0  0  0  0  0  0  0  0
    3.6969   -0.0243   -0.0669 H   0  0  0  0  0  0  0  0  0  0  0  0
    2.2722   -0.8033    0.7614 H   0  0  0  0  0  0  0  0  0  0  0  0
    3.7216   -0.3152    1.7147 H   0  0  0  0  0  0  0  0  0  0  0  0
    2.4863   -1.4055   -1.6586 H   0  0  0  0  0  0  0  0  0  0  0  0
    1.2393   -0.9029   -3.5758 H   0  0  0  0  0  0  0  0  0  0  0  0
   -0.6711   -3.0155   -4.6735 H   0  0  0  0  0  0  0  0  0  0  0  0
    0.8645    0.4020   -5.4755 H   0  0  0  0  0  0  0  0  0  0  0  0
    3.1392    3.2041   -6.4776 H   0  0  0  0  0  0  0  0  0  0  0  0
    2.7052    2.0326   -5.1790 H   0  0  0  0  0  0  0  0  0  0  0  0
    2.4013    1.6256   -6.9290 H   0  0  0  0  0  0  0  0  0  0  0  0
   -3.1564    5.0722   -6.1893 H   0  0  0  0  0  0  0  0  0  0  0  0
   -2.5017    5.4610   -4.5304 H   0  0  0  0  0  0  0  0  0  0  0  0
   -1.9481    6.3955   -5.9683 H   0  0  0  0  0  0  0  0  0  0  0  0
   -3.2994    3.0663   -4.8670 H   0  0  0  0  0  0  0  0  0  0  0  0
   -5.0366    1.9367   -3.9810 H   0  0  0  0  0  0  0  0  0  0  0  0
   -5.5870   -0.9576   -3.1732 H   0  0  0  0  0  0  0  0  0  0  0  0
   -6.7324    0.5060   -3.1288 H   0  0  0  0  0  0  0  0  0  0  0  0
  1  2  1  0
  1  3  2  0
  3  4  1  0
  4  5  2  0
  5  6  1  0
  6  7  1  0
  5  8  1  0
  8  9  1  0
  9 10  1  0
  8 11  2  0
 11 12  1  0
 12 13  2  0
 13 14  1  0
 14 15  2  3
 15 16  1  0
 16 17  1  0
 16 18  2  0
 18 19  1  0
 19 20  2  0
 20 21  1  0
 21 22  1  0
 20 23  1  0
 23 24  1  0
 24 25  1  0
 23 26  2  0
 26 27  1  0
 27 28  2  0
 28 29  1  0
 29 30  2  3
 30 31  1  0
 31 32  1  0
 31 33  2  0
 33 34  1  0
 34 35  2  0
 35 36  1  0
 36 37  1  0
 35 38  1  0
 38 39  1  0
 39 40  1  0
 38 41  2  0
 41 42  1  0
 42 43  2  0
 43 44  1  0
 44 45  2  3
 45 46  1  0
 46 47  1  0
 46 48  2  0
 48 49  1  0
 49 50  2  0
 50 51  1  0
 51 52  1  0
 50 53  1  0
 53 54  1  0
 54 55  1  0
 53 56  2  0
 56 57  1  0
 57 58  2  0
 58 59  1  0
 59 60  2  3
 60 61  1  0
 61 62  1  0
 61 63  2  0
 63 64  1  0
 64 65  2  0
 65 66  1  0
 66 67  1  0
 65 68  1  0
 68 69  1  0
 69 70  1  0
 68 71  2  0
 71 72  1  0
 72 73  2  0
 73 74  1  0
 74 75  2  3
 75 76  1  0
 76 77  1  0
 76 78  2  0
 78 79  1  0
 79 80  2  0
 80 81  1  0
 81 82  1  0
 80 83  1  0
 83 84  1  0
 84 85  1  0
 83 86  2  0
 86 87  1  0
 87 88  2  0
 88 89  1  0
 89 90  2  3
 13  2  1  0
 28 17  1  0
 43 32  1  0
 58 47  1  0
 73 62  1  0
 88 77  1  0
 12  3  1  0
 27 18  1  0
 42 33  1  0
 57 48  1  0
 72 63  1  0
 87 78  1  0
  1 91  1  0
  4 92  1  0
  7 93  1  0
  7 94  1  0
  7 95  1  0
 10 96  1  0
 10 97  1  0
 10 98  1  0
 11 99  1  0
 14100  1  0
 15101  1  0
 19102  1  0
 22103  1  0
 22104  1  0
 22105  1  0
 25106  1  0
 25107  1  0
 25108  1  0
 26109  1  0
 29110  1  0
 30111  1  0
 34112  1  0
 37113  1  0
 37114  1  0
 37115  1  0
 40116  1  0
 40117  1  0
 40118  1  0
 41119  1  0
 44120  1  0
 45121  1  0
 49122  1  0
 52123  1  0
 52124  1  0
 52125  1  0
 55126  1  0
 55127  1  0
 55128  1  0
 56129  1  0
 59130  1  0
 60131  1  0
 64132  1  0
 67133  1  0
 67134  1  0
 67135  1  0
 70136  1  0
 70137  1  0
 70138  1  0
 71139  1  0
 74140  1  0
 75141  1  0
 79142  1  0
 82143  1  0
 82144  1  0
 82145  1  0
 85146  1  0
 85147  1  0
 85148  1  0
 86149  1  0
 89150  1  0
 90151  1  0
 90152  1  0
M  END

