
     RDKit          3D

127138  0  0  0  0  0  0  0  0999 V2000
    3.6094   -6.5789    9.0160 C   0  0  0  0  0  0  0  0  0  0  0  0
    2.4346   -6.4968    7.8153 S   0  0  0  0  0  0  0  0  0  0  0  0
    2.9046   -5.0169    7.1740 C   0  0  0  0  0  0  0  0  0  0  0  0
    4.0099   -4.5548    7.8935 C   0  0  0  0  0  0  0  0  0  0  0  0
    4.4005   -5.4308    8.9297 C   0  0  0  0  0  0  0  0  0  0  0  0
    5.4931   -5.1212    9.7662 C   0  0  0  0  0  0  0  0  0  0  0  0
    5.9168   -6.0503   10.8843 C   0  0  0  0  0  0  0  0  0  0  0  0
    4.8672   -6.2253   11.7681 F   0  0  0  0  0  0  0  0  0  0  0  0
    6.9967   -5.5485   11.5898 F   0  0  0  0  0  0  0  0  0  0  0  0
    6.2761   -7.2775   10.3558 F   0  0  0  0  0  0  0  0  0  0  0  0
    6.1826   -3.9151    9.5321 C   0  0  0  0  0  0  0  0  0  0  0  0
    5.7962   -3.0464    8.5028 C   0  0  0  0  0  0  0  0  0  0  0  0
    4.7037   -3.3529    7.6679 C   0  0  0  0  0  0  0  0  0  0  0  0
    4.2991   -2.4988    6.6295 O   0  0  0  0  0  0  0  0  0  0  0  0
    4.9109   -1.2498    6.3207 C   0  0  0  0  0  0  0  0  0  0  0  0
    2.2624   -4.3767    6.0225 C   0  0  0  0  0  0  0  0  0  0  0  0
    0.9397   -3.3397    6.1093 S   0  0  0  0  0  0  0  0  0  0  0  0
    2.6804   -4.4439    4.6969 C   0  0  0  0  0  0  0  0  0  0  0  0
    3.7590   -5.1915    4.2169 C   0  0  0  0  0  0  0  0  0  0  0  0
    4.0632   -5.1653    2.8388 C   0  0  0  0  0  0  0  0  0  0  0  0
    5.1325   -5.8985    2.3003 O   0  0  0  0  0  0  0  0  0  0  0  0
    6.0072   -6.7268    3.0591 C   0  0  0  0  0  0  0  0  0  0  0  0
    3.2806   -4.3898    1.9585 C   0  0  0  0  0  0  0  0  0  0  0  0
    3.6096   -4.3978    0.5927 O   0  0  0  0  0  0  0  0  0  0  0  0
    2.8989   -3.6845   -0.4140 C   0  0  0  0  0  0  0  0  0  0  0  0
    2.1991   -3.6342    2.4568 C   0  0  0  0  0  0  0  0  0  0  0  0
    1.9070   -3.6615    3.8254 C   0  0  0  0  0  0  0  0  0  0  0  0
    0.8739   -2.9667    4.4631 C   0  0  0  0  0  0  0  0  0  0  0  0
   -0.0398   -1.9968    3.8303 C   0  0  0  0  0  0  0  0  0  0  0  0
   -1.1358   -1.5260    4.4303 C   0  0  0  0  0  0  0  0  0  0  0  0
   -1.9784   -0.5534    3.7207 C   0  0  0  0  0  0  0  0  0  0  0  0
   -2.8936   -1.0261    2.3948 S   0  0  0  0  0  0  0  0  0  0  0  0
   -3.0776    0.4814    1.6905 C   0  0  0  0  0  0  0  0  0  0  0  0
   -2.3380    1.3981    2.4550 C   0  0  0  0  0  0  0  0  0  0  0  0
   -1.7512    0.8323    3.6181 C   0  0  0  0  0  0  0  0  0  0  0  0
   -0.9838    1.6444    4.4971 C   0  0  0  0  0  0  0  0  0  0  0  0
   -0.4451    1.1486    5.8261 C   0  0  0  0  0  0  0  0  0  0  0  0
   -1.4099    0.4131    6.4907 F   0  0  0  0  0  0  0  0  0  0  0  0
    0.6786    0.3701    5.6176 F   0  0  0  0  0  0  0  0  0  0  0  0
   -0.0924    2.2030    6.6531 F   0  0  0  0  0  0  0  0  0  0  0  0
   -0.7321    2.9753    4.1139 C   0  0  0  0  0  0  0  0  0  0  0  0
   -1.2749    3.5130    2.9442 C   0  0  0  0  0  0  0  0  0  0  0  0
   -2.0948    2.7412    2.1076 C   0  0  0  0  0  0  0  0  0  0  0  0
   -2.6653    3.2746    0.9417 O   0  0  0  0  0  0  0  0  0  0  0  0
   -2.5535    4.6307    0.5245 C   0  0  0  0  0  0  0  0  0  0  0  0
   -3.5031    0.6429    0.2924 C   0  0  0  0  0  0  0  0  0  0  0  0
   -2.5153    0.1399   -0.9671 S   0  0  0  0  0  0  0  0  0  0  0  0
   -3.3753    0.8549   -2.2111 C   0  0  0  0  0  0  0  0  0  0  0  0
   -4.4259    1.5881   -1.6472 C   0  0  0  0  0  0  0  0  0  0  0  0
   -4.5451    1.4267   -0.2432 C   0  0  0  0  0  0  0  0  0  0  0  0
   -5.6197    2.0419    0.4534 C   0  0  0  0  0  0  0  0  0  0  0  0
   -5.9322    1.7643    1.9120 C   0  0  0  0  0  0  0  0  0  0  0  0
   -5.8521    0.4086    2.1675 F   0  0  0  0  0  0  0  0  0  0  0  0
   -7.2160    2.1677    2.2381 F   0  0  0  0  0  0  0  0  0  0  0  0
   -5.0496    2.4473    2.7234 F   0  0  0  0  0  0  0  0  0  0  0  0
   -6.4535    2.9208   -0.2670 C   0  0  0  0  0  0  0  0  0  0  0  0
   -6.2894    3.1214   -1.6411 C   0  0  0  0  0  0  0  0  0  0  0  0
   -5.2897    2.4410   -2.3543 C   0  0  0  0  0  0  0  0  0  0  0  0
   -5.1349    2.5907   -3.7416 O   0  0  0  0  0  0  0  0  0  0  0  0
   -5.9825    3.3763   -4.5739 C   0  0  0  0  0  0  0  0  0  0  0  0
   -2.8750    0.9204   -3.5891 C   0  0  0  0  0  0  0  0  0  0  0  0
   -1.6440    1.9784   -4.0140 S   0  0  0  0  0  0  0  0  0  0  0  0
   -1.5094    1.5098   -5.6141 C   0  0  0  0  0  0  0  0  0  0  0  0
   -2.4000    0.4499   -5.8390 C   0  0  0  0  0  0  0  0  0  0  0  0
   -3.1887    0.1132   -4.7048 C   0  0  0  0  0  0  0  0  0  0  0  0
   -4.1299   -0.9542   -4.7868 C   0  0  0  0  0  0  0  0  0  0  0  0
   -5.0013   -1.3959   -3.6258 C   0  0  0  0  0  0  0  0  0  0  0  0
   -5.8176   -2.4618   -3.9676 F   0  0  0  0  0  0  0  0  0  0  0  0
   -4.2098   -1.8074   -2.5707 F   0  0  0  0  0  0  0  0  0  0  0  0
   -5.8207   -0.3605   -3.2290 F   0  0  0  0  0  0  0  0  0  0  0  0
   -4.2457   -1.6377   -6.0155 C   0  0  0  0  0  0  0  0  0  0  0  0
   -3.4592   -1.3018   -7.1179 C   0  0  0  0  0  0  0  0  0  0  0  0
   -2.5196   -0.2647   -7.0450 C   0  0  0  0  0  0  0  0  0  0  0  0
   -1.7115    0.0739   -8.1418 O   0  0  0  0  0  0  0  0  0  0  0  0
   -1.7862   -0.5324   -9.4285 C   0  0  0  0  0  0  0  0  0  0  0  0
   -0.4153    1.9524   -6.4892 C   0  0  0  0  0  0  0  0  0  0  0  0
    1.1334    1.3165   -6.3360 S   0  0  0  0  0  0  0  0  0  0  0  0
    1.7584    1.9195   -7.7675 C   0  0  0  0  0  0  0  0  0  0  0  0
    0.7448    2.6215   -8.4089 C   0  0  0  0  0  0  0  0  0  0  0  0
   -0.4766    2.6814   -7.6936 C   0  0  0  0  0  0  0  0  0  0  0  0
   -1.5714    3.4165   -8.2273 C   0  0  0  0  0  0  0  0  0  0  0  0
   -2.8612    3.6622   -7.4662 C   0  0  0  0  0  0  0  0  0  0  0  0
   -2.5880    4.0485   -6.1686 F   0  0  0  0  0  0  0  0  0  0  0  0
   -3.6319    2.5172   -7.4640 F   0  0  0  0  0  0  0  0  0  0  0  0
   -3.6050    4.6758   -8.0466 F   0  0  0  0  0  0  0  0  0  0  0  0
   -1.4274    3.9637   -9.5203 C   0  0  0  0  0  0  0  0  0  0  0  0
   -0.2271    3.8548  -10.2320 C   0  0  0  0  0  0  0  0  0  0  0  0
    0.8818    3.1961   -9.6761 C   0  0  0  0  0  0  0  0  0  0  0  0
    2.1073    3.0815  -10.3543 O   0  0  0  0  0  0  0  0  0  0  0  0
    2.3578    3.5985  -11.6563 C   0  0  0  0  0  0  0  0  0  0  0  0
    3.7201   -7.3918    9.7211 H   0  0  0  0  0  0  0  0  0  0  0  0
    7.0294   -3.6336   10.1453 H   0  0  0  0  0  0  0  0  0  0  0  0
    6.3570   -2.1318    8.3675 H   0  0  0  0  0  0  0  0  0  0  0  0
    4.8194   -0.5585    7.1857 H   0  0  0  0  0  0  0  0  0  0  0  0
    4.3938   -0.8009    5.4494 H   0  0  0  0  0  0  0  0  0  0  0  0
    5.9798   -1.4002    6.0617 H   0  0  0  0  0  0  0  0  0  0  0  0
    4.3478   -5.7826    4.9038 H   0  0  0  0  0  0  0  0  0  0  0  0
    6.7589   -7.1783    2.3780 H   0  0  0  0  0  0  0  0  0  0  0  0
    5.4327   -7.5428    3.5442 H   0  0  0  0  0  0  0  0  0  0  0  0
    6.5385   -6.1214    3.8232 H   0  0  0  0  0  0  0  0  0  0  0  0
    3.3751   -3.8744   -1.3982 H   0  0  0  0  0  0  0  0  0  0  0  0
    2.9340   -2.5941   -0.2061 H   0  0  0  0  0  0  0  0  0  0  0  0
    1.8444   -4.0320   -0.4560 H   0  0  0  0  0  0  0  0  0  0  0  0
    1.5918   -3.0468    1.7859 H   0  0  0  0  0  0  0  0  0  0  0  0
    0.2005   -1.6358    2.8386 H   0  0  0  0  0  0  0  0  0  0  0  0
   -1.4420   -1.8864    5.4010 H   0  0  0  0  0  0  0  0  0  0  0  0
   -0.1175    3.6210    4.7273 H   0  0  0  0  0  0  0  0  0  0  0  0
   -1.0511    4.5422    2.7023 H   0  0  0  0  0  0  0  0  0  0  0  0
   -1.4908    4.8833    0.3273 H   0  0  0  0  0  0  0  0  0  0  0  0
   -3.1318    4.7679   -0.4136 H   0  0  0  0  0  0  0  0  0  0  0  0
   -2.9728    5.3030    1.3028 H   0  0  0  0  0  0  0  0  0  0  0  0
   -7.2583    3.4498    0.2266 H   0  0  0  0  0  0  0  0  0  0  0  0
   -6.9631    3.8006   -2.1455 H   0  0  0  0  0  0  0  0  0  0  0  0
   -5.9264    4.4438   -4.2734 H   0  0  0  0  0  0  0  0  0  0  0  0
   -7.0286    3.0106   -4.5046 H   0  0  0  0  0  0  0  0  0  0  0  0
   -5.6412    3.2848   -5.6254 H   0  0  0  0  0  0  0  0  0  0  0  0
   -4.9481   -2.4512   -6.1381 H   0  0  0  0  0  0  0  0  0  0  0  0
   -3.5892   -1.8666   -8.0299 H   0  0  0  0  0  0  0  0  0  0  0  0
   -2.7980   -0.3811   -9.8614 H   0  0  0  0  0  0  0  0  0  0  0  0
   -1.5552   -1.6171   -9.3559 H   0  0  0  0  0  0  0  0  0  0  0  0
   -1.0403   -0.0537  -10.0960 H   0  0  0  0  0  0  0  0  0  0  0  0
    2.7612    1.7508   -8.1387 H   0  0  0  0  0  0  0  0  0  0  0  0
   -2.2443    4.4973   -9.9900 H   0  0  0  0  0  0  0  0  0  0  0  0
   -0.1708    4.2993  -11.2154 H   0  0  0  0  0  0  0  0  0  0  0  0
    1.6713    3.1306  -12.3914 H   0  0  0  0  0  0  0  0  0  0  0  0
    2.2315    4.7021  -11.6601 H   0  0  0  0  0  0  0  0  0  0  0  0
    3.4020    3.3588  -11.9450 H   0  0  0  0  0  0  0  0  0  0  0  0
  1  2  1  0
  2  3  1  0
  3  4  2  0
  4  5  1  0
  5  6  1  0
  6  7  1  0
  7  8  1  0
  7  9  1  0
  7 10  1  0
  6 11  2  0
 11 12  1  0
 12 13  2  0
 13 14  1  0
 14 15  1  0
  3 16  1  0
 16 17  1  0
 16 18  2  0
 18 19  1  0
 19 20  2  0
 20 21  1  0
 21 22  1  0
 20 23  1  0
 23 24  1  0
 24 25  1  0
 23 26  2  0
 26 27  1  0
 27 28  2  0
 28 29  1  0
 29 30  2  3
 30 31  1  0
 31 32  1  0
 32 33  1  0
 33 34  2  0
 34 35  1  0
 35 36  1  0
 36 37  1  0
 37 38  1  0
 37 39  1  0
 37 40  1  0
 36 41  2  0
 41 42  1  0
 42 43  2  0
 43 44  1  0
 44 45  1  0
 33 46  1  0
 46 47  1  0
 47 48  1  0
 48 49  2  0
 49 50  1  0
 50 51  1  0
 51 52  1  0
 52 53  1  0
 52 54  1  0
 52 55  1  0
 51 56  2  0
 56 57  1  0
 57 58  2  0
 58 59  1  0
 59 60  1  0
 48 61  1  0
 61 62  1  0
 62 63  1  0
 63 64  2  0
 64 65  1  0
 65 66  1  0
 66 67  1  0
 67 68  1  0
 67 69  1  0
 67 70  1  0
 66 71  2  0
 71 72  1  0
 72 73  2  0
 73 74  1  0
 74 75  1  0
 63 76  1  0
 76 77  1  0
 77 78  1  0
 78 79  2  0
 79 80  1  0
 80 81  1  0
 81 82  1  0
 82 83  1  0
 82 84  1  0
 82 85  1  0
 81 86  2  0
 86 87  1  0
 87 88  2  0
 88 89  1  0
 89 90  1  0
  5  1  2  0
 28 17  1  0
 35 31  2  0
 50 46  2  0
 65 61  2  0
 80 76  2  0
 13  4  1  0
 27 18  1  0
 43 34  1  0
 58 49  1  0
 73 64  1  0
 88 79  1  0
  1 91  1  0
 11 92  1  0
 12 93  1  0
 15 94  1  0
 15 95  1  0
 15 96  1  0
 19 97  1  0
 22 98  1  0
 22 99  1  0
 22100  1  0
 25101  1  0
 25102  1  0
 25103  1  0
 26104  1  0
 29105  1  0
 30106  1  0
 41107  1  0
 42108  1  0
 45109  1  0
 45110  1  0
 45111  1  0
 56112  1  0
 57113  1  0
 60114  1  0
 60115  1  0
 60116  1  0
 71117  1  0
 72118  1  0
 75119  1  0
 75120  1  0
 75121  1  0
 78122  1  0
 86123  1  0
 87124  1  0
 90125  1  0
 90126  1  0
 90127  1  0
M  END

