
     RDKit          3D

252275  0  0  0  0  0  0  0  0999 V2000
   -0.9223    1.9031    6.8187 C   0  0  0  0  0  0  0  0  0  0  0  0
   -0.1477    1.8751    5.6656 C   0  0  0  0  0  0  0  0  0  0  0  0
   -0.6811    1.0536    4.6492 C   0  0  0  0  0  0  0  0  0  0  0  0
   -0.0926    0.7809    3.3957 C   0  0  0  0  0  0  0  0  0  0  0  0
    1.1797    1.4459    3.0323 C   0  0  0  0  0  0  0  0  0  0  0  0
    2.3686    0.7129    3.0684 C   0  0  0  0  0  0  0  0  0  0  0  0
    3.6049    1.3641    3.1448 C   0  0  0  0  0  0  0  0  0  0  0  0
    3.6550    2.7599    3.2061 C   0  0  0  0  0  0  0  0  0  0  0  0
    5.1881    3.5780    3.6468 S   0  0  0  0  0  0  0  0  0  0  0  0
    5.6610    3.9501    1.9326 C   0  0  0  0  0  0  0  0  0  0  0  0
    6.9691    4.7337    1.9240 C   0  0  0  0  0  0  0  0  0  0  0  0
    2.4747    3.5004    3.0886 C   0  0  0  0  0  0  0  0  0  0  0  0
    2.5040    4.8562    3.1788 F   0  0  0  0  0  0  0  0  0  0  0  0
    1.2434    2.8450    2.9877 C   0  0  0  0  0  0  0  0  0  0  0  0
   -0.7149   -0.2079    2.6020 C   0  0  0  0  0  0  0  0  0  0  0  0
   -1.9013   -0.8448    2.9960 C   0  0  0  0  0  0  0  0  0  0  0  0
   -2.5411   -0.4913    4.2088 C   0  0  0  0  0  0  0  0  0  0  0  0
   -3.8440   -1.0460    4.6522 C   0  0  0  0  0  0  0  0  0  0  0  0
   -3.9944   -2.4136    4.9365 C   0  0  0  0  0  0  0  0  0  0  0  0
   -5.1192   -2.8755    5.6340 C   0  0  0  0  0  0  0  0  0  0  0  0
   -6.0873   -1.9680    6.0816 C   0  0  0  0  0  0  0  0  0  0  0  0
   -7.3635   -2.5033    7.2342 S   0  0  0  0  0  0  0  0  0  0  0  0
   -8.7369   -2.4847    6.0312 C   0  0  0  0  0  0  0  0  0  0  0  0
   -8.6997   -3.7312    5.1744 C   0  0  0  0  0  0  0  0  0  0  0  0
   -5.9787   -0.6151    5.7466 C   0  0  0  0  0  0  0  0  0  0  0  0
   -4.8811   -0.1649    5.0131 C   0  0  0  0  0  0  0  0  0  0  0  0
   -6.9215    0.2735    6.1539 F   0  0  0  0  0  0  0  0  0  0  0  0
   -1.8732    0.4399    5.0219 C   0  0  0  0  0  0  0  0  0  0  0  0
   -2.2616    0.9062    6.5924 S   0  0  0  0  0  0  0  0  0  0  0  0
   -2.3337   -1.8135    2.0846 C   0  0  0  0  0  0  0  0  0  0  0  0
   -1.5243   -1.9532    0.9564 C   0  0  0  0  0  0  0  0  0  0  0  0
   -0.2458   -0.8503    1.1087 S   0  0  0  0  0  0  0  0  0  0  0  0
   -1.7894   -2.9384   -0.1450 C   0  0  0  0  0  0  0  0  0  0  0  0
   -2.8840   -4.2282    0.0131 S   0  0  0  0  0  0  0  0  0  0  0  0
   -1.3300   -2.9703   -1.4788 C   0  0  0  0  0  0  0  0  0  0  0  0
   -0.3784   -2.1244   -2.0758 C   0  0  0  0  0  0  0  0  0  0  0  0
   -0.0460   -2.2998   -3.4476 C   0  0  0  0  0  0  0  0  0  0  0  0
    0.9062   -1.5098   -4.1086 O   0  0  0  0  0  0  0  0  0  0  0  0
    1.8166   -0.6297   -3.4518 C   0  0  0  0  0  0  0  0  0  0  0  0
   -0.6823   -3.2974   -4.2080 C   0  0  0  0  0  0  0  0  0  0  0  0
   -0.3703   -3.3880   -5.5726 O   0  0  0  0  0  0  0  0  0  0  0  0
   -0.9425   -4.3234   -6.4734 C   0  0  0  0  0  0  0  0  0  0  0  0
   -1.6080   -4.1599   -3.6027 C   0  0  0  0  0  0  0  0  0  0  0  0
   -1.9281   -3.9900   -2.2576 C   0  0  0  0  0  0  0  0  0  0  0  0
   -2.8339   -4.7906   -1.5678 C   0  0  0  0  0  0  0  0  0  0  0  0
   -3.5758   -5.9499   -2.1153 C   0  0  0  0  0  0  0  0  0  0  0  0
   -4.6289   -5.8201   -2.9358 C   0  0  0  0  0  0  0  0  0  0  0  0
   -5.3286   -4.5395   -3.1141 C   0  0  0  0  0  0  0  0  0  0  0  0
   -5.8089   -3.7824   -2.0633 C   0  0  0  0  0  0  0  0  0  0  0  0
   -6.1297   -2.4735   -2.4240 C   0  0  0  0  0  0  0  0  0  0  0  0
   -6.4335   -1.4293   -1.5260 C   0  0  0  0  0  0  0  0  0  0  0  0
   -6.7749   -1.7524   -0.1285 C   0  0  0  0  0  0  0  0  0  0  0  0
   -8.1043   -2.1318    0.1308 C   0  0  0  0  0  0  0  0  0  0  0  0
   -8.3759   -3.1500    1.0455 C   0  0  0  0  0  0  0  0  0  0  0  0
   -7.3225   -3.7911    1.7012 C   0  0  0  0  0  0  0  0  0  0  0  0
   -7.5842   -5.4001    2.4645 S   0  0  0  0  0  0  0  0  0  0  0  0
   -7.1296   -6.3699    0.9806 C   0  0  0  0  0  0  0  0  0  0  0  0
   -8.2725   -6.3961   -0.0254 C   0  0  0  0  0  0  0  0  0  0  0  0
   -6.0304   -3.2646    1.6198 C   0  0  0  0  0  0  0  0  0  0  0  0
   -5.0227   -3.8776    2.2864 F   0  0  0  0  0  0  0  0  0  0  0  0
   -5.7579   -2.2279    0.7131 C   0  0  0  0  0  0  0  0  0  0  0  0
   -6.3856   -0.1274   -2.0474 C   0  0  0  0  0  0  0  0  0  0  0  0
   -6.2238    0.1255   -3.4129 C   0  0  0  0  0  0  0  0  0  0  0  0
   -6.1034   -0.9462   -4.3346 C   0  0  0  0  0  0  0  0  0  0  0  0
   -6.1345   -0.7466   -5.7969 C   0  0  0  0  0  0  0  0  0  0  0  0
   -7.2137   -1.2603   -6.5283 C   0  0  0  0  0  0  0  0  0  0  0  0
   -7.3711   -0.9336   -7.8772 C   0  0  0  0  0  0  0  0  0  0  0  0
   -6.4581   -0.0763   -8.5016 C   0  0  0  0  0  0  0  0  0  0  0  0
   -6.7612    0.4817  -10.1829 S   0  0  0  0  0  0  0  0  0  0  0  0
   -7.6484    2.0072   -9.6947 C   0  0  0  0  0  0  0  0  0  0  0  0
   -9.1147    1.7210   -9.3939 C   0  0  0  0  0  0  0  0  0  0  0  0
   -5.3321    0.3766   -7.7952 C   0  0  0  0  0  0  0  0  0  0  0  0
   -5.1619    0.0238   -6.4526 C   0  0  0  0  0  0  0  0  0  0  0  0
   -4.4367    1.1962   -8.3964 F   0  0  0  0  0  0  0  0  0  0  0  0
   -5.9807   -2.2299   -3.7877 C   0  0  0  0  0  0  0  0  0  0  0  0
   -5.3989   -3.6305   -4.5356 S   0  0  0  0  0  0  0  0  0  0  0  0
   -5.9778    1.4781   -3.6944 C   0  0  0  0  0  0  0  0  0  0  0  0
   -5.7485    2.2510   -2.5590 C   0  0  0  0  0  0  0  0  0  0  0  0
   -6.1058    1.2923   -1.2054 S   0  0  0  0  0  0  0  0  0  0  0  0
   -4.6560    3.2526   -2.5225 C   0  0  0  0  0  0  0  0  0  0  0  0
   -3.6445    3.2835   -3.4953 C   0  0  0  0  0  0  0  0  0  0  0  0
   -2.3736    3.6014   -2.9900 C   0  0  0  0  0  0  0  0  0  0  0  0
   -1.1563    3.4183   -3.6827 C   0  0  0  0  0  0  0  0  0  0  0  0
   -1.1340    3.1247   -5.1269 C   0  0  0  0  0  0  0  0  0  0  0  0
   -1.4290    1.8359   -5.6072 C   0  0  0  0  0  0  0  0  0  0  0  0
   -1.5826    1.6188   -6.9813 C   0  0  0  0  0  0  0  0  0  0  0  0
   -1.4265    2.6807   -7.8858 C   0  0  0  0  0  0  0  0  0  0  0  0
   -1.7941    2.4351   -9.6279 S   0  0  0  0  0  0  0  0  0  0  0  0
   -0.0795    2.0692  -10.1352 C   0  0  0  0  0  0  0  0  0  0  0  0
    0.2107    0.5840  -10.0012 C   0  0  0  0  0  0  0  0  0  0  0  0
   -1.0973    3.9551   -7.4096 C   0  0  0  0  0  0  0  0  0  0  0  0
   -0.9654    5.0036   -8.2659 F   0  0  0  0  0  0  0  0  0  0  0  0
   -0.9533    4.1752   -6.0336 C   0  0  0  0  0  0  0  0  0  0  0  0
    0.0174    3.4412   -2.9152 C   0  0  0  0  0  0  0  0  0  0  0  0
    0.0019    3.7111   -1.5425 C   0  0  0  0  0  0  0  0  0  0  0  0
   -1.1986    4.0622   -0.8780 C   0  0  0  0  0  0  0  0  0  0  0  0
   -1.1796    4.6162    0.5055 C   0  0  0  0  0  0  0  0  0  0  0  0
   -0.2739    5.6504    0.8098 C   0  0  0  0  0  0  0  0  0  0  0  0
   -0.2607    6.2384    2.0753 C   0  0  0  0  0  0  0  0  0  0  0  0
   -1.1736    5.8309    3.0505 C   0  0  0  0  0  0  0  0  0  0  0  0
   -1.1412    6.6083    4.6666 S   0  0  0  0  0  0  0  0  0  0  0  0
   -2.2774    7.9739    4.2296 C   0  0  0  0  0  0  0  0  0  0  0  0
   -1.5409    9.0962    3.5069 C   0  0  0  0  0  0  0  0  0  0  0  0
   -2.0716    4.7917    2.7710 C   0  0  0  0  0  0  0  0  0  0  0  0
   -2.0620    4.1732    1.5093 C   0  0  0  0  0  0  0  0  0  0  0  0
   -2.9413    4.3683    3.7213 F   0  0  0  0  0  0  0  0  0  0  0  0
   -2.3821    3.9337   -1.6324 C   0  0  0  0  0  0  0  0  0  0  0  0
   -3.9640    3.7927   -1.0784 S   0  0  0  0  0  0  0  0  0  0  0  0
    1.2064    3.3657   -0.9073 C   0  0  0  0  0  0  0  0  0  0  0  0
    2.1683    2.8207   -1.7592 C   0  0  0  0  0  0  0  0  0  0  0  0
    1.5306    2.8173   -3.3293 S   0  0  0  0  0  0  0  0  0  0  0  0
    3.1124    1.8023   -1.2725 C   0  0  0  0  0  0  0  0  0  0  0  0
    4.5037    1.8228   -1.3359 C   0  0  0  0  0  0  0  0  0  0  0  0
    5.0958    0.7816   -0.5797 C   0  0  0  0  0  0  0  0  0  0  0  0
    6.4766    0.5862   -0.2919 C   0  0  0  0  0  0  0  0  0  0  0  0
    7.5839    1.3258   -0.9649 C   0  0  0  0  0  0  0  0  0  0  0  0
    8.6760    0.6050   -1.4821 C   0  0  0  0  0  0  0  0  0  0  0  0
    9.7623    1.2679   -2.0563 C   0  0  0  0  0  0  0  0  0  0  0  0
    9.7553    2.6639   -2.1682 C   0  0  0  0  0  0  0  0  0  0  0  0
   11.1589    3.4908   -2.9271 S   0  0  0  0  0  0  0  0  0  0  0  0
   10.4235    3.6166   -4.5951 C   0  0  0  0  0  0  0  0  0  0  0  0
   10.3645    2.2642   -5.2930 C   0  0  0  0  0  0  0  0  0  0  0  0
    8.6713    3.3921   -1.6699 C   0  0  0  0  0  0  0  0  0  0  0  0
    8.6471    4.7458   -1.7765 F   0  0  0  0  0  0  0  0  0  0  0  0
    7.5947    2.7304   -1.0687 C   0  0  0  0  0  0  0  0  0  0  0  0
    6.7764   -0.4094    0.6656 C   0  0  0  0  0  0  0  0  0  0  0  0
    5.8152   -1.2873    1.1842 C   0  0  0  0  0  0  0  0  0  0  0  0
    4.4720   -1.2001    0.7656 C   0  0  0  0  0  0  0  0  0  0  0  0
    3.4644   -2.2660    1.0355 C   0  0  0  0  0  0  0  0  0  0  0  0
    2.8298   -2.8948   -0.0518 C   0  0  0  0  0  0  0  0  0  0  0  0
    1.8735   -3.8903    0.1607 C   0  0  0  0  0  0  0  0  0  0  0  0
    1.5478   -4.2891    1.4612 C   0  0  0  0  0  0  0  0  0  0  0  0
    0.3203   -5.5728    1.7174 S   0  0  0  0  0  0  0  0  0  0  0  0
    1.4563   -6.9641    1.3717 C   0  0  0  0  0  0  0  0  0  0  0  0
    2.3966   -7.2102    2.5459 C   0  0  0  0  0  0  0  0  0  0  0  0
    2.1756   -3.6685    2.5534 C   0  0  0  0  0  0  0  0  0  0  0  0
    3.1361   -2.6725    2.3404 C   0  0  0  0  0  0  0  0  0  0  0  0
    1.8605   -4.0267    3.8194 F   0  0  0  0  0  0  0  0  0  0  0  0
    4.1444   -0.0908   -0.0290 C   0  0  0  0  0  0  0  0  0  0  0  0
    2.6102    0.4784   -0.3674 S   0  0  0  0  0  0  0  0  0  0  0  0
    6.3213   -2.1356    2.1837 C   0  0  0  0  0  0  0  0  0  0  0  0
    7.6568   -1.8988    2.4944 C   0  0  0  0  0  0  0  0  0  0  0  0
    8.2254   -0.6616    1.4931 S   0  0  0  0  0  0  0  0  0  0  0  0
    8.3185   -2.3362    3.7450 C   0  0  0  0  0  0  0  0  0  0  0  0
    9.2637   -1.2971    4.6715 S   0  0  0  0  0  0  0  0  0  0  0  0
    8.0007   -3.4412    4.5516 C   0  0  0  0  0  0  0  0  0  0  0  0
    7.2441   -4.5473    4.1663 C   0  0  0  0  0  0  0  0  0  0  0  0
    6.9038   -5.5395    5.0998 C   0  0  0  0  0  0  0  0  0  0  0  0
    6.0622   -6.5676    4.6398 O   0  0  0  0  0  0  0  0  0  0  0  0
    5.5567   -7.6581    5.4014 C   0  0  0  0  0  0  0  0  0  0  0  0
    7.4006   -5.4464    6.4340 C   0  0  0  0  0  0  0  0  0  0  0  0
    7.0612   -6.4325    7.3730 O   0  0  0  0  0  0  0  0  0  0  0  0
    7.3896   -6.3797    8.7618 C   0  0  0  0  0  0  0  0  0  0  0  0
    8.2445   -4.3683    6.7816 C   0  0  0  0  0  0  0  0  0  0  0  0
    8.5104   -3.3562    5.8567 C   0  0  0  0  0  0  0  0  0  0  0  0
    9.2508   -2.1912    6.0959 C   0  0  0  0  0  0  0  0  0  0  0  0
    9.6763   -1.6201    7.3909 C   0  0  0  0  0  0  0  0  0  0  0  0
    8.9235   -1.7026    8.4785 C   0  0  0  0  0  0  0  0  0  0  0  0
   -0.6828    2.4422    7.7261 H   0  0  0  0  0  0  0  0  0  0  0  0
    0.7887    2.4131    5.5962 H   0  0  0  0  0  0  0  0  0  0  0  0
    2.3214   -0.3555    3.1514 H   0  0  0  0  0  0  0  0  0  0  0  0
    4.5120    0.7808    3.2428 H   0  0  0  0  0  0  0  0  0  0  0  0
    4.8641    4.5503    1.4468 H   0  0  0  0  0  0  0  0  0  0  0  0
    5.7816    2.9973    1.3785 H   0  0  0  0  0  0  0  0  0  0  0  0
    6.8798    5.6338    2.5675 H   0  0  0  0  0  0  0  0  0  0  0  0
    7.7938    4.0900    2.2998 H   0  0  0  0  0  0  0  0  0  0  0  0
    7.2084    5.0591    0.8905 H   0  0  0  0  0  0  0  0  0  0  0  0
    0.3350    3.4264    2.9946 H   0  0  0  0  0  0  0  0  0  0  0  0
   -3.2087   -3.1168    4.6773 H   0  0  0  0  0  0  0  0  0  0  0  0
   -5.2019   -3.9248    5.8835 H   0  0  0  0  0  0  0  0  0  0  0  0
   -8.6853   -1.5866    5.3818 H   0  0  0  0  0  0  0  0  0  0  0  0
   -9.6985   -2.4539    6.5862 H   0  0  0  0  0  0  0  0  0  0  0  0
   -7.7269   -3.7812    4.6497 H   0  0  0  0  0  0  0  0  0  0  0  0
   -9.5172   -3.6958    4.4243 H   0  0  0  0  0  0  0  0  0  0  0  0
   -8.8237   -4.6364    5.8069 H   0  0  0  0  0  0  0  0  0  0  0  0
   -4.7890    0.8946    4.8074 H   0  0  0  0  0  0  0  0  0  0  0  0
   -3.2123   -2.4071    2.2497 H   0  0  0  0  0  0  0  0  0  0  0  0
    0.1149   -1.3580   -1.4995 H   0  0  0  0  0  0  0  0  0  0  0  0
    1.2415    0.1017   -2.8480 H   0  0  0  0  0  0  0  0  0  0  0  0
    2.5033   -1.2203   -2.8056 H   0  0  0  0  0  0  0  0  0  0  0  0
    2.4222   -0.0828   -4.2066 H   0  0  0  0  0  0  0  0  0  0  0  0
   -2.0500   -4.2750   -6.4416 H   0  0  0  0  0  0  0  0  0  0  0  0
   -0.6155   -4.0698   -7.5037 H   0  0  0  0  0  0  0  0  0  0  0  0
   -0.6015   -5.3595   -6.2378 H   0  0  0  0  0  0  0  0  0  0  0  0
   -2.0820   -4.9469   -4.1772 H   0  0  0  0  0  0  0  0  0  0  0  0
   -3.1508   -6.9345   -1.9512 H   0  0  0  0  0  0  0  0  0  0  0  0
   -5.0214   -6.6925   -3.4484 H   0  0  0  0  0  0  0  0  0  0  0  0
   -5.8342   -4.1574   -1.0520 H   0  0  0  0  0  0  0  0  0  0  0  0
   -8.9041   -1.7792   -0.5116 H   0  0  0  0  0  0  0  0  0  0  0  0
   -9.3852   -3.5269    1.1433 H   0  0  0  0  0  0  0  0  0  0  0  0
   -6.2116   -5.9630    0.5052 H   0  0  0  0  0  0  0  0  0  0  0  0
   -6.9154   -7.4106    1.3045 H   0  0  0  0  0  0  0  0  0  0  0  0
   -9.2128   -6.7106    0.4689 H   0  0  0  0  0  0  0  0  0  0  0  0
   -8.0393   -7.1057   -0.8409 H   0  0  0  0  0  0  0  0  0  0  0  0
   -8.4101   -5.3934   -0.4796 H   0  0  0  0  0  0  0  0  0  0  0  0
   -4.7321   -1.9516    0.5068 H   0  0  0  0  0  0  0  0  0  0  0  0
   -7.9620   -1.8777   -6.0410 H   0  0  0  0  0  0  0  0  0  0  0  0
   -8.2250   -1.3128   -8.4246 H   0  0  0  0  0  0  0  0  0  0  0  0
   -7.1670    2.4764   -8.8118 H   0  0  0  0  0  0  0  0  0  0  0  0
   -7.5913    2.7324  -10.5323 H   0  0  0  0  0  0  0  0  0  0  0  0
   -9.6393    2.6702   -9.1558 H   0  0  0  0  0  0  0  0  0  0  0  0
   -9.2078    1.0454   -8.5183 H   0  0  0  0  0  0  0  0  0  0  0  0
   -9.6052    1.2537  -10.2736 H   0  0  0  0  0  0  0  0  0  0  0  0
   -4.2985    0.3912   -5.9134 H   0  0  0  0  0  0  0  0  0  0  0  0
   -5.7734    1.8435   -4.6890 H   0  0  0  0  0  0  0  0  0  0  0  0
   -3.7854    2.8952   -4.4909 H   0  0  0  0  0  0  0  0  0  0  0  0
   -1.5967    1.0182   -4.9185 H   0  0  0  0  0  0  0  0  0  0  0  0
   -1.8592    0.6331   -7.3401 H   0  0  0  0  0  0  0  0  0  0  0  0
    0.0371    2.3682  -11.1995 H   0  0  0  0  0  0  0  0  0  0  0  0
    0.6488    2.6537   -9.5342 H   0  0  0  0  0  0  0  0  0  0  0  0
    0.1148    0.2584   -8.9424 H   0  0  0  0  0  0  0  0  0  0  0  0
    1.2449    0.3787  -10.3458 H   0  0  0  0  0  0  0  0  0  0  0  0
   -0.4932   -0.0017  -10.6287 H   0  0  0  0  0  0  0  0  0  0  0  0
   -0.7387    5.1739   -5.6736 H   0  0  0  0  0  0  0  0  0  0  0  0
    0.4149    6.0098    0.0567 H   0  0  0  0  0  0  0  0  0  0  0  0
    0.4576    7.0174    2.2915 H   0  0  0  0  0  0  0  0  0  0  0  0
   -2.7041    8.3785    5.1709 H   0  0  0  0  0  0  0  0  0  0  0  0
   -3.1218    7.6024    3.6080 H   0  0  0  0  0  0  0  0  0  0  0  0
   -0.6314    9.3862    4.0725 H   0  0  0  0  0  0  0  0  0  0  0  0
   -2.2058    9.9820    3.4205 H   0  0  0  0  0  0  0  0  0  0  0  0
   -1.2517    8.7796    2.4836 H   0  0  0  0  0  0  0  0  0  0  0  0
   -2.7324    3.3412    1.3388 H   0  0  0  0  0  0  0  0  0  0  0  0
    1.3127    3.3441    0.1705 H   0  0  0  0  0  0  0  0  0  0  0  0
    5.0481    2.5867   -1.8648 H   0  0  0  0  0  0  0  0  0  0  0  0
    8.6916   -0.4743   -1.4373 H   0  0  0  0  0  0  0  0  0  0  0  0
   10.6004    0.6952   -2.4272 H   0  0  0  0  0  0  0  0  0  0  0  0
    9.4089    4.0614   -4.5311 H   0  0  0  0  0  0  0  0  0  0  0  0
   11.0610    4.2993   -5.1964 H   0  0  0  0  0  0  0  0  0  0  0  0
    9.5969    1.6222   -4.8146 H   0  0  0  0  0  0  0  0  0  0  0  0
   10.0685    2.4035   -6.3542 H   0  0  0  0  0  0  0  0  0  0  0  0
   11.3504    1.7515   -5.2468 H   0  0  0  0  0  0  0  0  0  0  0  0
    6.7792    3.3187   -0.6826 H   0  0  0  0  0  0  0  0  0  0  0  0
    3.0801   -2.6164   -1.0651 H   0  0  0  0  0  0  0  0  0  0  0  0
    1.3968   -4.3675   -0.6913 H   0  0  0  0  0  0  0  0  0  0  0  0
    0.8466   -7.8738    1.2019 H   0  0  0  0  0  0  0  0  0  0  0  0
    2.0457   -6.7653    0.4495 H   0  0  0  0  0  0  0  0  0  0  0  0
    3.0127   -8.1114    2.3448 H   0  0  0  0  0  0  0  0  0  0  0  0
    3.0795   -6.3465    2.6940 H   0  0  0  0  0  0  0  0  0  0  0  0
    1.8125   -7.3802    3.4743 H   0  0  0  0  0  0  0  0  0  0  0  0
    3.5981   -2.2007    3.2004 H   0  0  0  0  0  0  0  0  0  0  0  0
    5.7123   -2.8174    2.7434 H   0  0  0  0  0  0  0  0  0  0  0  0
    6.9231   -4.6599    3.1376 H   0  0  0  0  0  0  0  0  0  0  0  0
    4.9355   -8.2974    4.7308 H   0  0  0  0  0  0  0  0  0  0  0  0
    4.9155   -7.2870    6.2315 H   0  0  0  0  0  0  0  0  0  0  0  0
    6.3960   -8.2819    5.7813 H   0  0  0  0  0  0  0  0  0  0  0  0
    7.0103   -5.4376    9.2070 H   0  0  0  0  0  0  0  0  0  0  0  0
    6.9011   -7.2253    9.2799 H   0  0  0  0  0  0  0  0  0  0  0  0
    8.4859   -6.4624    8.9031 H   0  0  0  0  0  0  0  0  0  0  0  0
    8.7164   -4.3289    7.7494 H   0  0  0  0  0  0  0  0  0  0  0  0
   10.5110   -0.9173    7.4049 H   0  0  0  0  0  0  0  0  0  0  0  0
    9.2114   -1.1620    9.3730 H   0  0  0  0  0  0  0  0  0  0  0  0
    8.0130   -2.2965    8.5058 H   0  0  0  0  0  0  0  0  0  0  0  0
  1  2  2  0
  2  3  1  0
  3  4  2  0
  4  5  1  0
  5  6  2  0
  6  7  1  0
  7  8  2  0
  8  9  1  0
  9 10  1  0
 10 11  1  0
  8 12  1  0
 12 13  1  0
 12 14  2  0
  4 15  1  0
 15 16  2  0
 16 17  1  0
 17 18  1  0
 18 19  2  0
 19 20  1  0
 20 21  2  0
 21 22  1  0
 22 23  1  0
 23 24  1  0
 21 25  1  0
 25 26  2  0
 25 27  1  0
 17 28  2  0
 28 29  1  0
 16 30  1  0
 30 31  2  0
 31 32  1  0
 31 33  1  0
 33 34  1  0
 33 35  2  0
 35 36  1  0
 36 37  2  0
 37 38  1  0
 38 39  1  0
 37 40  1  0
 40 41  1  0
 41 42  1  0
 40 43  2  0
 43 44  1  0
 44 45  2  0
 45 46  1  0
 46 47  2  3
 47 48  1  0
 48 49  2  0
 49 50  1  0
 50 51  2  0
 51 52  1  0
 52 53  2  0
 53 54  1  0
 54 55  2  0
 55 56  1  0
 56 57  1  0
 57 58  1  0
 55 59  1  0
 59 60  1  0
 59 61  2  0
 51 62  1  0
 62 63  2  0
 63 64  1  0
 64 65  1  0
 65 66  2  0
 66 67  1  0
 67 68  2  0
 68 69  1  0
 69 70  1  0
 70 71  1  0
 68 72  1  0
 72 73  2  0
 72 74  1  0
 64 75  2  0
 75 76  1  0
 63 77  1  0
 77 78  2  0
 78 79  1  0
 78 80  1  0
 80 81  2  0
 81 82  1  0
 82 83  2  0
 83 84  1  0
 84 85  2  0
 85 86  1  0
 86 87  2  0
 87 88  1  0
 88 89  1  0
 89 90  1  0
 87 91  1  0
 91 92  1  0
 91 93  2  0
 83 94  1  0
 94 95  2  0
 95 96  1  0
 96 97  1  0
 97 98  2  0
 98 99  1  0
 99100  2  0
100101  1  0
101102  1  0
102103  1  0
100104  1  0
104105  2  0
104106  1  0
 96107  2  0
107108  1  0
 95109  1  0
109110  2  0
110111  1  0
110112  1  0
112113  2  0
113114  1  0
114115  2  0
115116  1  0
116117  2  0
117118  1  0
118119  2  0
119120  1  0
120121  1  0
121122  1  0
119123  1  0
123124  1  0
123125  2  0
115126  1  0
126127  2  0
127128  1  0
128129  1  0
129130  2  0
130131  1  0
131132  2  0
132133  1  0
133134  1  0
134135  1  0
132136  1  0
136137  2  0
136138  1  0
128139  2  0
139140  1  0
127141  1  0
141142  2  0
142143  1  0
142144  1  0
144145  1  0
144146  2  0
146147  1  0
147148  2  0
148149  1  0
149150  1  0
148151  1  0
151152  1  0
152153  1  0
151154  2  0
154155  1  0
155156  2  0
156157  1  0
157158  2  3
 29  1  1  0
 45 34  1  0
 76 48  1  0
108 80  1  0
140112  1  0
156145  1  0
 28  3  1  0
 44 35  1  0
 75 50  1  0
107 82  1  0
139114  1  0
155146  1  0
 14  5  1  0
 32 15  1  0
 61 52  1  0
 79 62  1  0
 93 84  1  0
111 94  1  0
125116  1  0
143126  1  0
 26 18  1  0
 73 65  1  0
105 97  1  0
137129  1  0
  1159  1  0
  2160  1  0
  6161  1  0
  7162  1  0
 10163  1  0
 10164  1  0
 11165  1  0
 11166  1  0
 11167  1  0
 14168  1  0
 19169  1  0
 20170  1  0
 23171  1  0
 23172  1  0
 24173  1  0
 24174  1  0
 24175  1  0
 26176  1  0
 30177  1  0
 36178  1  0
 39179  1  0
 39180  1  0
 39181  1  0
 42182  1  0
 42183  1  0
 42184  1  0
 43185  1  0
 46186  1  0
 47187  1  0
 49188  1  0
 53189  1  0
 54190  1  0
 57191  1  0
 57192  1  0
 58193  1  0
 58194  1  0
 58195  1  0
 61196  1  0
 66197  1  0
 67198  1  0
 70199  1  0
 70200  1  0
 71201  1  0
 71202  1  0
 71203  1  0
 73204  1  0
 77205  1  0
 81206  1  0
 85207  1  0
 86208  1  0
 89209  1  0
 89210  1  0
 90211  1  0
 90212  1  0
 90213  1  0
 93214  1  0
 98215  1  0
 99216  1  0
102217  1  0
102218  1  0
103219  1  0
103220  1  0
103221  1  0
105222  1  0
109223  1  0
113224  1  0
117225  1  0
118226  1  0
121227  1  0
121228  1  0
122229  1  0
122230  1  0
122231  1  0
125232  1  0
130233  1  0
131234  1  0
134235  1  0
134236  1  0
135237  1  0
135238  1  0
135239  1  0
137240  1  0
141241  1  0
147242  1  0
150243  1  0
150244  1  0
150245  1  0
153246  1  0
153247  1  0
153248  1  0
154249  1  0
157250  1  0
158251  1  0
158252  1  0
M  END

