
     RDKit          3D

157173  0  0  0  0  0  0  0  0999 V2000
   -5.1874    4.5646   -0.5335 N   0  0  0  0  0  0  0  0  0  0  0  0
   -3.8274    4.0469   -0.7074 C   0  0  1  0  0  0  0  0  0  0  0  0
   -3.9411    2.5634   -1.0870 C   0  0  2  0  0  0  0  0  0  0  0  0
   -4.1457    2.3894   -2.5379 N   0  0  0  0  0  0  0  0  0  0  0  0
   -3.1407    3.1282   -3.3551 C   0  0  2  0  0  0  0  0  0  0  0  0
   -2.2423    4.0382   -2.5385 C   0  0  1  0  0  0  0  0  0  0  0  0
   -1.4776    4.8959   -3.5222 C   0  0  0  0  0  0  0  0  0  0  0  0
   -2.5590    5.2448   -4.9517 S   0  0  0  0  0  0  0  0  0  0  0  0
   -3.8073    4.0439   -4.3899 C   0  0  0  0  0  0  0  0  0  0  0  0
   -3.0740    4.8724   -1.6739 N   0  0  0  0  0  0  0  0  0  0  0  0
   -5.0889    2.0709   -0.3649 N   0  0  0  0  0  0  0  0  0  0  0  0
   -6.1205    3.3332    0.3369 S   0  0  0  0  0  0  0  0  0  0  0  0
   -5.4760    0.6946   -0.4516 C   0  0  0  0  0  0  0  0  0  0  0  0
   -6.3717    0.1610    0.3835 C   0  0  0  0  0  0  0  0  0  0  0  0
   -6.7494   -1.2224    0.2915 N   0  0  0  0  0  0  0  0  0  0  0  0
   -7.1319   -1.9925    1.4651 C   0  0  1  0  0  0  0  0  0  0  0  0
   -7.4379   -3.4242    0.9673 C   0  0  2  0  0  0  0  0  0  0  0  0
   -7.1070   -4.4554    1.9854 N   0  0  0  0  0  0  0  0  0  0  0  0
   -7.4173   -3.9206    3.3114 C   0  0  2  0  0  0  0  0  0  0  0  0
   -6.3846   -2.8259    3.6242 C   0  0  1  0  0  0  0  0  0  0  0  0
   -5.1554   -3.5164    4.1594 C   0  0  0  0  0  0  0  0  0  0  0  0
   -5.6792   -4.9436    5.1678 S   0  0  0  0  0  0  0  0  0  0  0  0
   -7.3155   -4.9987    4.3818 C   0  0  0  0  0  0  0  0  0  0  0  0
   -6.0036   -2.0644    2.4092 N   0  0  0  0  0  0  0  0  0  0  0  0
   -6.6143   -3.5948   -0.2349 N   0  0  0  0  0  0  0  0  0  0  0  0
   -6.6660   -2.1289   -1.2230 S   0  0  0  0  0  0  0  0  0  0  0  0
   -6.3431   -4.9098   -0.7770 C   0  0  0  0  0  0  0  0  0  0  0  0
   -5.3239   -5.2613   -1.6121 C   0  0  0  0  0  0  0  0  0  0  0  0
   -4.2184   -4.4077   -1.9828 N   0  0  0  0  0  0  0  0  0  0  0  0
   -4.2517   -3.5058   -3.1295 C   0  0  1  0  0  0  0  0  0  0  0  0
   -2.9188   -2.7044   -3.1460 C   0  0  2  0  0  0  0  0  0  0  0  0
   -2.2593   -2.6643   -4.4495 N   0  0  0  0  0  0  0  0  0  0  0  0
   -3.1938   -2.4680   -5.5900 C   0  0  2  0  0  0  0  0  0  0  0  0
   -4.4853   -3.3155   -5.4803 C   0  0  1  0  0  0  0  0  0  0  0  0
   -4.7641   -4.0193   -6.7986 C   0  0  0  0  0  0  0  0  0  0  0  0
   -3.8495   -3.1437   -8.0961 S   0  0  0  0  0  0  0  0  0  0  0  0
   -2.5219   -2.8764   -6.8965 C   0  0  0  0  0  0  0  0  0  0  0  0
   -4.3970   -4.2859   -4.3753 N   0  0  0  0  0  0  0  0  0  0  0  0
   -2.0369   -3.4325   -2.2357 N   0  0  0  0  0  0  0  0  0  0  0  0
   -2.6000   -5.0395   -1.7553 S   0  0  0  0  0  0  0  0  0  0  0  0
   -1.0036   -2.8554   -1.4058 C   0  0  0  0  0  0  0  0  0  0  0  0
   -1.0596   -1.6232   -0.8762 C   0  0  0  0  0  0  0  0  0  0  0  0
   -0.4873   -1.3865    0.4199 N   0  0  0  0  0  0  0  0  0  0  0  0
   -1.3784   -1.2525    1.5504 C   0  0  1  0  0  0  0  0  0  0  0  0
   -0.4878   -1.4352    2.8001 C   0  0  2  0  0  0  0  0  0  0  0  0
   -0.8743   -0.5395    3.9237 N   0  0  0  0  0  0  0  0  0  0  0  0
   -2.3297   -0.4184    3.9447 C   0  0  2  0  0  0  0  0  0  0  0  0
   -2.7247    0.4447    2.7532 C   0  0  1  0  0  0  0  0  0  0  0  0
   -2.3584    1.8822    3.1413 C   0  0  0  0  0  0  0  0  0  0  0  0
   -2.5327    2.0965    4.9501 S   0  0  0  0  0  0  0  0  0  0  0  0
   -2.7996    0.3100    5.1811 C   0  0  0  0  0  0  0  0  0  0  0  0
   -1.9955    0.0878    1.5175 N   0  0  0  0  0  0  0  0  0  0  0  0
    0.9268   -1.1904    2.4296 N   0  0  0  0  0  0  0  0  0  0  0  0
    1.1462   -0.7008    0.7152 S   0  0  0  0  0  0  0  0  0  0  0  0
    1.9324   -1.7320    3.3449 C   0  0  0  0  0  0  0  0  0  0  0  0
    3.2708   -1.5396    3.3248 C   0  0  0  0  0  0  0  0  0  0  0  0
    4.0701   -0.7183    2.3953 C   0  0  0  0  0  0  0  0  0  0  0  0
    5.0639    0.5303    2.9347 S   0  0  0  0  0  0  0  0  0  0  0  0
    4.6398   -1.2429    1.2341 C   0  0  0  0  0  0  0  0  0  0  0  0
    4.1348   -2.3370    0.5350 C   0  0  0  0  0  0  0  0  0  0  0  0
    4.8282   -2.7915   -0.5839 C   0  0  0  0  0  0  0  0  0  0  0  0
    4.2655   -3.7986   -1.3877 O   0  0  0  0  0  0  0  0  0  0  0  0
    2.9997   -3.5910   -1.9670 C   0  0  0  0  0  0  0  0  0  0  0  0
    6.0558   -2.1935   -0.9758 C   0  0  0  0  0  0  0  0  0  0  0  0
    6.6120   -2.6356   -2.2385 O   0  0  0  0  0  0  0  0  0  0  0  0
    5.8805   -2.4961   -3.4465 C   0  0  0  0  0  0  0  0  0  0  0  0
    6.5731   -1.1100   -0.2601 C   0  0  0  0  0  0  0  0  0  0  0  0
    5.8276   -0.6106    0.8372 C   0  0  0  0  0  0  0  0  0  0  0  0
    6.1985    0.4353    1.6625 C   0  0  0  0  0  0  0  0  0  0  0  0
    7.5045    1.1005    1.6665 C   0  0  0  0  0  0  0  0  0  0  0  0
    8.3070    0.9797    2.7294 C   0  0  0  0  0  0  0  0  0  0  0  0
    9.6555    1.4591    2.6984 N   0  0  0  0  0  0  0  0  0  0  0  0
   10.0715    2.6610    3.4144 C   0  0  1  0  0  0  0  0  0  0  0  0
   11.3432    3.1187    2.6806 C   0  0  2  0  0  0  0  0  0  0  0  0
   10.9834    4.0082    1.5750 N   0  0  0  0  0  0  0  0  0  0  0  0
   10.4676    5.2403    2.1853 C   0  0  2  0  0  0  0  0  0  0  0  0
    9.1330    5.0000    2.9129 C   0  0  1  0  0  0  0  0  0  0  0  0
    7.9901    5.2632    1.9405 C   0  0  0  0  0  0  0  0  0  0  0  0
    8.5136    6.4914    0.7154 S   0  0  0  0  0  0  0  0  0  0  0  0
   10.2766    6.3227    1.1162 C   0  0  0  0  0  0  0  0  0  0  0  0
    8.9480    3.6330    3.4596 N   0  0  0  0  0  0  0  0  0  0  0  0
   11.9848    1.9268    2.1330 N   0  0  0  0  0  0  0  0  0  0  0  0
   11.0263    0.4366    2.2784 S   0  0  0  0  0  0  0  0  0  0  0  0
   13.2413    1.9058    1.4555 C   0  0  0  0  0  0  0  0  0  0  0  0
   14.2557    2.7002    1.8030 C   0  0  0  0  0  0  0  0  0  0  0  0
   -5.1429    5.4163    0.0626 H   0  0  0  0  0  0  0  0  0  0  0  0
   -3.3177    4.1098    0.2916 H   0  0  0  0  0  0  0  0  0  0  0  0
   -3.0040    2.0293   -0.7743 H   0  0  0  0  0  0  0  0  0  0  0  0
   -5.1457    2.6516   -2.8131 H   0  0  0  0  0  0  0  0  0  0  0  0
   -2.5214    2.3737   -3.8988 H   0  0  0  0  0  0  0  0  0  0  0  0
   -1.5223    3.4162   -1.9233 H   0  0  0  0  0  0  0  0  0  0  0  0
   -1.1414    5.8393   -3.0376 H   0  0  0  0  0  0  0  0  0  0  0  0
   -0.5862    4.3314   -3.8500 H   0  0  0  0  0  0  0  0  0  0  0  0
   -4.6506    4.5974   -3.9133 H   0  0  0  0  0  0  0  0  0  0  0  0
   -4.2003    3.4480   -5.2452 H   0  0  0  0  0  0  0  0  0  0  0  0
   -2.5073    5.5893   -1.1563 H   0  0  0  0  0  0  0  0  0  0  0  0
   -4.9939    0.0414   -1.1878 H   0  0  0  0  0  0  0  0  0  0  0  0
   -6.7937    0.7835    1.1759 H   0  0  0  0  0  0  0  0  0  0  0  0
   -8.0307   -1.5560    1.9520 H   0  0  0  0  0  0  0  0  0  0  0  0
   -8.5120   -3.4898    0.6631 H   0  0  0  0  0  0  0  0  0  0  0  0
   -7.6939   -5.3101    1.7802 H   0  0  0  0  0  0  0  0  0  0  0  0
   -8.4522   -3.4815    3.3241 H   0  0  0  0  0  0  0  0  0  0  0  0
   -6.8058   -2.1340    4.3891 H   0  0  0  0  0  0  0  0  0  0  0  0
   -4.5567   -2.8109    4.7658 H   0  0  0  0  0  0  0  0  0  0  0  0
   -4.5327   -3.8874    3.3028 H   0  0  0  0  0  0  0  0  0  0  0  0
   -7.5230   -6.0046    3.9507 H   0  0  0  0  0  0  0  0  0  0  0  0
   -8.0924   -4.7862    5.1509 H   0  0  0  0  0  0  0  0  0  0  0  0
   -5.7049   -1.1042    2.7032 H   0  0  0  0  0  0  0  0  0  0  0  0
   -6.9833   -5.7328   -0.4622 H   0  0  0  0  0  0  0  0  0  0  0  0
   -5.2526   -6.3095   -1.8547 H   0  0  0  0  0  0  0  0  0  0  0  0
   -5.0907   -2.8081   -3.0045 H   0  0  0  0  0  0  0  0  0  0  0  0
   -3.1690   -1.6839   -2.7540 H   0  0  0  0  0  0  0  0  0  0  0  0
   -1.6203   -1.8200   -4.4473 H   0  0  0  0  0  0  0  0  0  0  0  0
   -3.4841   -1.4056   -5.6748 H   0  0  0  0  0  0  0  0  0  0  0  0
   -5.3541   -2.6200   -5.3870 H   0  0  0  0  0  0  0  0  0  0  0  0
   -4.4296   -5.0621   -6.7623 H   0  0  0  0  0  0  0  0  0  0  0  0
   -5.8560   -3.9589   -6.9560 H   0  0  0  0  0  0  0  0  0  0  0  0
   -1.9331   -3.8234   -6.7780 H   0  0  0  0  0  0  0  0  0  0  0  0
   -1.8170   -2.0562   -7.2401 H   0  0  0  0  0  0  0  0  0  0  0  0
   -3.5237   -4.8686   -4.5242 H   0  0  0  0  0  0  0  0  0  0  0  0
   -0.0913   -3.4500   -1.2016 H   0  0  0  0  0  0  0  0  0  0  0  0
   -1.8462   -0.9658   -1.2106 H   0  0  0  0  0  0  0  0  0  0  0  0
   -2.1333   -2.0490    1.5207 H   0  0  0  0  0  0  0  0  0  0  0  0
   -0.5817   -2.4845    3.1380 H   0  0  0  0  0  0  0  0  0  0  0  0
   -0.4759   -0.9258    4.8198 H   0  0  0  0  0  0  0  0  0  0  0  0
   -2.8130   -1.4047    3.8499 H   0  0  0  0  0  0  0  0  0  0  0  0
   -3.8145    0.3908    2.6164 H   0  0  0  0  0  0  0  0  0  0  0  0
   -2.9993    2.6250    2.5833 H   0  0  0  0  0  0  0  0  0  0  0  0
   -1.2987    2.1008    2.8421 H   0  0  0  0  0  0  0  0  0  0  0  0
   -3.8926    0.1097    5.3047 H   0  0  0  0  0  0  0  0  0  0  0  0
   -2.2577   -0.0915    6.0712 H   0  0  0  0  0  0  0  0  0  0  0  0
   -2.6914    0.1434    0.7262 H   0  0  0  0  0  0  0  0  0  0  0  0
    1.6647   -2.6170    3.9080 H   0  0  0  0  0  0  0  0  0  0  0  0
    3.8499   -2.3379    3.7917 H   0  0  0  0  0  0  0  0  0  0  0  0
    3.2775   -2.8811    0.8717 H   0  0  0  0  0  0  0  0  0  0  0  0
    2.8463   -4.2591   -2.8547 H   0  0  0  0  0  0  0  0  0  0  0  0
    2.9506   -2.5527   -2.3519 H   0  0  0  0  0  0  0  0  0  0  0  0
    2.1955   -3.6376   -1.2196 H   0  0  0  0  0  0  0  0  0  0  0  0
    6.4130   -1.8186   -4.1649 H   0  0  0  0  0  0  0  0  0  0  0  0
    4.9191   -1.9419   -3.2138 H   0  0  0  0  0  0  0  0  0  0  0  0
    5.6045   -3.4635   -3.9344 H   0  0  0  0  0  0  0  0  0  0  0  0
    7.4302   -0.5725   -0.6349 H   0  0  0  0  0  0  0  0  0  0  0  0
    7.9908    1.3229    0.7006 H   0  0  0  0  0  0  0  0  0  0  0  0
    7.9105    0.5310    3.6403 H   0  0  0  0  0  0  0  0  0  0  0  0
   10.3358    2.3672    4.4382 H   0  0  0  0  0  0  0  0  0  0  0  0
   12.0335    3.6204    3.3927 H   0  0  0  0  0  0  0  0  0  0  0  0
   10.2107    3.5427    1.0074 H   0  0  0  0  0  0  0  0  0  0  0  0
   11.2045    5.6410    2.9112 H   0  0  0  0  0  0  0  0  0  0  0  0
    9.0599    5.7307    3.7362 H   0  0  0  0  0  0  0  0  0  0  0  0
    7.6796    4.3030    1.4379 H   0  0  0  0  0  0  0  0  0  0  0  0
    7.1208    5.6434    2.5140 H   0  0  0  0  0  0  0  0  0  0  0  0
   10.6644    7.2948    1.5222 H   0  0  0  0  0  0  0  0  0  0  0  0
   10.8530    6.0945    0.2058 H   0  0  0  0  0  0  0  0  0  0  0  0
    8.5211    3.6622    4.4096 H   0  0  0  0  0  0  0  0  0  0  0  0
   13.3687    1.2340    0.6123 H   0  0  0  0  0  0  0  0  0  0  0  0
   15.2044    2.6411    1.2663 H   0  0  0  0  0  0  0  0  0  0  0  0
   14.1602    3.4312    2.5902 H   0  0  0  0  0  0  0  0  0  0  0  0
  1  2  1  0
  2  3  1  0
  3  4  1  0
  4  5  1  0
  5  6  1  0
  6  7  1  0
  7  8  1  0
  8  9  1  0
  6 10  1  0
  3 11  1  0
 11 12  1  0
 11 13  1  0
 13 14  2  3
 14 15  1  0
 15 16  1  0
 16 17  1  0
 17 18  1  0
 18 19  1  0
 19 20  1  0
 20 21  1  0
 21 22  1  0
 22 23  1  0
 20 24  1  0
 17 25  1  0
 25 26  1  0
 25 27  1  0
 27 28  2  3
 28 29  1  0
 29 30  1  0
 30 31  1  0
 31 32  1  0
 32 33  1  0
 33 34  1  0
 34 35  1  0
 35 36  1  0
 36 37  1  0
 34 38  1  0
 31 39  1  0
 39 40  1  0
 39 41  1  0
 41 42  2  3
 42 43  1  0
 43 44  1  0
 44 45  1  0
 45 46  1  0
 46 47  1  0
 47 48  1  0
 48 49  1  0
 49 50  1  0
 50 51  1  0
 48 52  1  0
 45 53  1  0
 53 54  1  0
 53 55  1  0
 55 56  2  3
 56 57  1  0
 57 58  1  0
 57 59  2  0
 59 60  1  0
 60 61  2  0
 61 62  1  0
 62 63  1  0
 61 64  1  0
 64 65  1  0
 65 66  1  0
 64 67  2  0
 67 68  1  0
 68 69  2  0
 69 70  1  0
 70 71  2  3
 71 72  1  0
 72 73  1  0
 73 74  1  0
 74 75  1  0
 75 76  1  0
 76 77  1  0
 77 78  1  0
 78 79  1  0
 79 80  1  0
 77 81  1  0
 74 82  1  0
 82 83  1  0
 82 84  1  0
 84 85  2  3
 12  1  1  0
 26 15  1  0
 40 29  1  0
 54 43  1  0
 69 58  1  0
 83 72  1  0
 10  2  1  0
 24 16  1  0
 38 30  1  0
 52 44  1  0
 68 59  1  0
 81 73  1  0
  9  5  1  0
 23 19  1  0
 37 33  1  0
 51 47  1  0
 80 76  1  0
  1 86  1  0
  2 87  1  1
  3 88  1  1
  4 89  1  0
  5 90  1  6
  6 91  1  1
  7 92  1  0
  7 93  1  0
  9 94  1  0
  9 95  1  0
 10 96  1  0
 13 97  1  0
 14 98  1  0
 16 99  1  1
 17100  1  6
 18101  1  0
 19102  1  6
 20103  1  1
 21104  1  0
 21105  1  0
 23106  1  0
 23107  1  0
 24108  1  0
 27109  1  0
 28110  1  0
 30111  1  1
 31112  1  1
 32113  1  0
 33114  1  6
 34115  1  1
 35116  1  0
 35117  1  0
 37118  1  0
 37119  1  0
 38120  1  0
 41121  1  0
 42122  1  0
 44123  1  6
 45124  1  1
 46125  1  0
 47126  1  6
 48127  1  6
 49128  1  0
 49129  1  0
 51130  1  0
 51131  1  0
 52132  1  0
 55133  1  0
 56134  1  0
 60135  1  0
 63136  1  0
 63137  1  0
 63138  1  0
 66139  1  0
 66140  1  0
 66141  1  0
 67142  1  0
 70143  1  0
 71144  1  0
 73145  1  1
 74146  1  1
 75147  1  0
 76148  1  1
 77149  1  1
 78150  1  0
 78151  1  0
 80152  1  0
 80153  1  0
 81154  1  0
 84155  1  0
 85156  1  0
 85157  1  0
M  END

