
     RDKit          3D

136147  0  0  0  0  0  0  0  0999 V2000
    4.9332    6.2366    1.2656 C   0  0  0  0  0  0  0  0  0  0  0  0
    4.0930    5.3750    2.4434 S   0  0  0  0  0  0  0  0  0  0  0  0
    4.1736    3.8643    1.7019 C   0  0  0  0  0  0  0  0  0  0  0  0
    4.9037    4.0116    0.5205 C   0  0  0  0  0  0  0  0  0  0  0  0
    5.3102    5.3332    0.2792 C   0  0  0  0  0  0  0  0  0  0  0  0
    6.0531    5.6572   -0.8557 C   0  0  0  0  0  0  0  0  0  0  0  0
    6.4064    4.6378   -1.7668 C   0  0  0  0  0  0  0  0  0  0  0  0
    7.1440    4.9068   -2.9309 O   0  0  0  0  0  0  0  0  0  0  0  0
    7.5785    6.2022   -3.3314 C   0  0  0  0  0  0  0  0  0  0  0  0
    6.0201    3.3042   -1.5166 C   0  0  0  0  0  0  0  0  0  0  0  0
    6.3905    2.3202   -2.4475 O   0  0  0  0  0  0  0  0  0  0  0  0
    6.0210    0.9481   -2.3552 C   0  0  0  0  0  0  0  0  0  0  0  0
    5.2798    2.9889   -0.3564 C   0  0  0  0  0  0  0  0  0  0  0  0
    3.6127    2.6272    2.2696 C   0  0  0  0  0  0  0  0  0  0  0  0
    3.9111    2.0901    3.8314 S   0  0  0  0  0  0  0  0  0  0  0  0
    2.7873    1.6889    1.6464 C   0  0  0  0  0  0  0  0  0  0  0  0
    2.2913    1.7792    0.3452 C   0  0  0  0  0  0  0  0  0  0  0  0
    1.5621    0.7034   -0.1988 C   0  0  0  0  0  0  0  0  0  0  0  0
    1.1125    0.7199   -1.5282 O   0  0  0  0  0  0  0  0  0  0  0  0
    1.4101    1.7573   -2.4583 C   0  0  0  0  0  0  0  0  0  0  0  0
    1.2980   -0.4369    0.5880 C   0  0  0  0  0  0  0  0  0  0  0  0
    0.6029   -1.5024   -0.0049 O   0  0  0  0  0  0  0  0  0  0  0  0
    0.4021   -2.7722    0.6065 C   0  0  0  0  0  0  0  0  0  0  0  0
    1.7456   -0.4910    1.9277 C   0  0  0  0  0  0  0  0  0  0  0  0
    2.4709    0.5824    2.4559 C   0  0  0  0  0  0  0  0  0  0  0  0
    3.0031    0.6746    3.7467 C   0  0  0  0  0  0  0  0  0  0  0  0
    2.9483   -0.2835    4.8611 C   0  0  0  0  0  0  0  0  0  0  0  0
    1.8676   -0.8909    5.3734 C   0  0  0  0  0  0  0  0  0  0  0  0
    0.4476   -0.7721    4.9716 C   0  0  0  0  0  0  0  0  0  0  0  0
   -0.6182   -2.0545    5.2114 S   0  0  0  0  0  0  0  0  0  0  0  0
   -0.3366    0.3531    4.6566 C   0  0  0  0  0  0  0  0  0  0  0  0
    0.0875    1.6865    4.5855 C   0  0  0  0  0  0  0  0  0  0  0  0
   -0.8411    2.7051    4.2722 C   0  0  0  0  0  0  0  0  0  0  0  0
   -0.4572    4.0497    4.1458 O   0  0  0  0  0  0  0  0  0  0  0  0
    0.8807    4.5216    4.2466 C   0  0  0  0  0  0  0  0  0  0  0  0
   -2.2004    2.3893    4.0877 C   0  0  0  0  0  0  0  0  0  0  0  0
   -3.0838    3.4257    3.7467 O   0  0  0  0  0  0  0  0  0  0  0  0
   -4.4779    3.2525    3.5110 C   0  0  0  0  0  0  0  0  0  0  0  0
   -2.6416    1.0636    4.2593 C   0  0  0  0  0  0  0  0  0  0  0  0
   -1.7137    0.0596    4.5480 C   0  0  0  0  0  0  0  0  0  0  0  0
   -2.0460   -1.2640    4.8304 C   0  0  0  0  0  0  0  0  0  0  0  0
   -3.3555   -1.7093    5.3276 C   0  0  0  0  0  0  0  0  0  0  0  0
   -4.2729   -2.3885    4.6277 C   0  0  0  0  0  0  0  0  0  0  0  0
   -4.1782   -2.7843    3.2024 C   0  0  0  0  0  0  0  0  0  0  0  0
   -3.0447   -2.2418    2.0774 S   0  0  0  0  0  0  0  0  0  0  0  0
   -3.6649   -3.0388    0.7333 C   0  0  0  0  0  0  0  0  0  0  0  0
   -4.7928   -3.7497    1.1456 C   0  0  0  0  0  0  0  0  0  0  0  0
   -5.0790   -3.6108    2.5161 C   0  0  0  0  0  0  0  0  0  0  0  0
   -6.1863   -4.2663    3.0723 C   0  0  0  0  0  0  0  0  0  0  0  0
   -7.0253   -5.0461    2.2477 C   0  0  0  0  0  0  0  0  0  0  0  0
   -8.1466   -5.7215    2.7572 O   0  0  0  0  0  0  0  0  0  0  0  0
   -8.5489   -5.7083    4.1231 C   0  0  0  0  0  0  0  0  0  0  0  0
   -6.7521   -5.1605    0.8711 C   0  0  0  0  0  0  0  0  0  0  0  0
   -7.6199   -5.9354    0.0851 O   0  0  0  0  0  0  0  0  0  0  0  0
   -7.4731   -6.1403   -1.3170 C   0  0  0  0  0  0  0  0  0  0  0  0
   -5.6327   -4.5047    0.3190 C   0  0  0  0  0  0  0  0  0  0  0  0
   -3.0720   -3.0099   -0.6139 C   0  0  0  0  0  0  0  0  0  0  0  0
   -2.7882   -4.3733   -1.5651 S   0  0  0  0  0  0  0  0  0  0  0  0
   -2.1253   -3.5656   -2.8822 C   0  0  0  0  0  0  0  0  0  0  0  0
   -2.1388   -2.1980   -2.6033 C   0  0  0  0  0  0  0  0  0  0  0  0
   -2.6415   -1.8890   -1.3286 C   0  0  0  0  0  0  0  0  0  0  0  0
   -2.7165   -0.5585   -0.9028 C   0  0  0  0  0  0  0  0  0  0  0  0
   -2.3046    0.4753   -1.7697 C   0  0  0  0  0  0  0  0  0  0  0  0
   -2.3211    1.8224   -1.3722 O   0  0  0  0  0  0  0  0  0  0  0  0
   -2.6395    2.2707   -0.0573 C   0  0  0  0  0  0  0  0  0  0  0  0
   -1.8692    0.1675   -3.0755 C   0  0  0  0  0  0  0  0  0  0  0  0
   -1.5492    1.2284   -3.9376 O   0  0  0  0  0  0  0  0  0  0  0  0
   -1.1645    1.0710   -5.3005 C   0  0  0  0  0  0  0  0  0  0  0  0
   -1.7745   -1.1786   -3.4872 C   0  0  0  0  0  0  0  0  0  0  0  0
   -1.6215   -4.2257   -4.0948 C   0  0  0  0  0  0  0  0  0  0  0  0
   -2.4924   -5.3334   -5.0195 S   0  0  0  0  0  0  0  0  0  0  0  0
   -1.2982   -5.6229   -6.1732 C   0  0  0  0  0  0  0  0  0  0  0  0
   -0.1883   -4.8602   -5.8272 C   0  0  0  0  0  0  0  0  0  0  0  0
   -0.3575   -4.0910   -4.6665 C   0  0  0  0  0  0  0  0  0  0  0  0
    0.7009   -3.3308   -4.1611 C   0  0  0  0  0  0  0  0  0  0  0  0
    1.9315   -3.3093   -4.8520 C   0  0  0  0  0  0  0  0  0  0  0  0
    3.0254   -2.5609   -4.3897 O   0  0  0  0  0  0  0  0  0  0  0  0
    2.9947   -1.7193   -3.2420 C   0  0  0  0  0  0  0  0  0  0  0  0
    2.0871   -4.0538   -6.0407 C   0  0  0  0  0  0  0  0  0  0  0  0
    3.3199   -3.9840   -6.7096 O   0  0  0  0  0  0  0  0  0  0  0  0
    3.5951   -4.6043   -7.9600 C   0  0  0  0  0  0  0  0  0  0  0  0
    1.0199   -4.8425   -6.5246 C   0  0  0  0  0  0  0  0  0  0  0  0
    5.1517    7.2960    1.2844 H   0  0  0  0  0  0  0  0  0  0  0  0
    6.3525    6.6845   -1.0188 H   0  0  0  0  0  0  0  0  0  0  0  0
    8.1397    6.1181   -4.2842 H   0  0  0  0  0  0  0  0  0  0  0  0
    8.2501    6.6347   -2.5607 H   0  0  0  0  0  0  0  0  0  0  0  0
    6.7017    6.8648   -3.4915 H   0  0  0  0  0  0  0  0  0  0  0  0
    6.4697    0.4915   -1.4473 H   0  0  0  0  0  0  0  0  0  0  0  0
    6.3981    0.4094   -3.2484 H   0  0  0  0  0  0  0  0  0  0  0  0
    4.9149    0.8561   -2.3226 H   0  0  0  0  0  0  0  0  0  0  0  0
    5.0102    1.9663   -0.1348 H   0  0  0  0  0  0  0  0  0  0  0  0
    2.4904    2.6646   -0.2409 H   0  0  0  0  0  0  0  0  0  0  0  0
    1.0366    1.4669   -3.4579 H   0  0  0  0  0  0  0  0  0  0  0  0
    0.9148    2.7015   -2.1475 H   0  0  0  0  0  0  0  0  0  0  0  0
    2.5081    1.9043   -2.5337 H   0  0  0  0  0  0  0  0  0  0  0  0
   -0.1493   -3.4296   -0.0953 H   0  0  0  0  0  0  0  0  0  0  0  0
   -0.1926   -2.6598    1.5357 H   0  0  0  0  0  0  0  0  0  0  0  0
    1.3813   -3.2421    0.8377 H   0  0  0  0  0  0  0  0  0  0  0  0
    1.5589   -1.3626    2.5368 H   0  0  0  0  0  0  0  0  0  0  0  0
    3.8913   -0.4668    5.3616 H   0  0  0  0  0  0  0  0  0  0  0  0
    2.0597   -1.6032    6.1672 H   0  0  0  0  0  0  0  0  0  0  0  0
    1.1043    1.9446    4.8178 H   0  0  0  0  0  0  0  0  0  0  0  0
    0.8924    5.6188    4.0810 H   0  0  0  0  0  0  0  0  0  0  0  0
    1.2882    4.3092    5.2565 H   0  0  0  0  0  0  0  0  0  0  0  0
    1.5056    4.0407    3.4685 H   0  0  0  0  0  0  0  0  0  0  0  0
   -4.9235    4.2297    3.2340 H   0  0  0  0  0  0  0  0  0  0  0  0
   -4.9773    2.8826    4.4317 H   0  0  0  0  0  0  0  0  0  0  0  0
   -4.6384    2.5384    2.6756 H   0  0  0  0  0  0  0  0  0  0  0  0
   -3.6887    0.8094    4.1642 H   0  0  0  0  0  0  0  0  0  0  0  0
   -3.5775   -1.4835    6.3639 H   0  0  0  0  0  0  0  0  0  0  0  0
   -5.1703   -2.6586    5.1658 H   0  0  0  0  0  0  0  0  0  0  0  0
   -6.3972   -4.1796    4.1271 H   0  0  0  0  0  0  0  0  0  0  0  0
   -9.4637   -6.3247    4.2371 H   0  0  0  0  0  0  0  0  0  0  0  0
   -7.7480   -6.1392    4.7597 H   0  0  0  0  0  0  0  0  0  0  0  0
   -8.7781   -4.6701    4.4432 H   0  0  0  0  0  0  0  0  0  0  0  0
   -7.5325   -5.1696   -1.8537 H   0  0  0  0  0  0  0  0  0  0  0  0
   -6.5035   -6.6380   -1.5317 H   0  0  0  0  0  0  0  0  0  0  0  0
   -8.2947   -6.7941   -1.6752 H   0  0  0  0  0  0  0  0  0  0  0  0
   -5.4339   -4.5661   -0.7401 H   0  0  0  0  0  0  0  0  0  0  0  0
   -3.1074   -0.3255    0.0755 H   0  0  0  0  0  0  0  0  0  0  0  0
   -3.6904    2.0116    0.1912 H   0  0  0  0  0  0  0  0  0  0  0  0
   -1.9476    1.8128    0.6815 H   0  0  0  0  0  0  0  0  0  0  0  0
   -2.5276    3.3731   -0.0123 H   0  0  0  0  0  0  0  0  0  0  0  0
   -1.9807    0.5820   -5.8728 H   0  0  0  0  0  0  0  0  0  0  0  0
   -0.2345    0.4679   -5.3708 H   0  0  0  0  0  0  0  0  0  0  0  0
   -0.9718    2.0721   -5.7395 H   0  0  0  0  0  0  0  0  0  0  0  0
   -1.4455   -1.4292   -4.4852 H   0  0  0  0  0  0  0  0  0  0  0  0
   -1.3765   -6.2943   -7.0187 H   0  0  0  0  0  0  0  0  0  0  0  0
    0.5741   -2.7793   -3.2401 H   0  0  0  0  0  0  0  0  0  0  0  0
    2.7844   -2.3178   -2.3309 H   0  0  0  0  0  0  0  0  0  0  0  0
    2.2220   -0.9340   -3.3710 H   0  0  0  0  0  0  0  0  0  0  0  0
    3.9833   -1.2319   -3.1277 H   0  0  0  0  0  0  0  0  0  0  0  0
    2.8937   -4.2287   -8.7337 H   0  0  0  0  0  0  0  0  0  0  0  0
    4.6301   -4.3514   -8.2680 H   0  0  0  0  0  0  0  0  0  0  0  0
    3.5107   -5.7064   -7.8672 H   0  0  0  0  0  0  0  0  0  0  0  0
    1.1236   -5.4381   -7.4222 H   0  0  0  0  0  0  0  0  0  0  0  0
  1  2  1  0
  2  3  1  0
  3  4  2  0
  4  5  1  0
  5  6  1  0
  6  7  2  0
  7  8  1  0
  8  9  1  0
  7 10  1  0
 10 11  1  0
 11 12  1  0
 10 13  2  0
  3 14  1  0
 14 15  1  0
 14 16  2  0
 16 17  1  0
 17 18  2  0
 18 19  1  0
 19 20  1  0
 18 21  1  0
 21 22  1  0
 22 23  1  0
 21 24  2  0
 24 25  1  0
 25 26  2  0
 26 27  1  0
 27 28  2  3
 28 29  1  0
 29 30  1  0
 29 31  2  0
 31 32  1  0
 32 33  2  0
 33 34  1  0
 34 35  1  0
 33 36  1  0
 36 37  1  0
 37 38  1  0
 36 39  2  0
 39 40  1  0
 40 41  2  0
 41 42  1  0
 42 43  2  3
 43 44  1  0
 44 45  1  0
 45 46  1  0
 46 47  2  0
 47 48  1  0
 48 49  1  0
 49 50  2  0
 50 51  1  0
 51 52  1  0
 50 53  1  0
 53 54  1  0
 54 55  1  0
 53 56  2  0
 46 57  1  0
 57 58  1  0
 58 59  1  0
 59 60  2  0
 60 61  1  0
 61 62  1  0
 62 63  2  0
 63 64  1  0
 64 65  1  0
 63 66  1  0
 66 67  1  0
 67 68  1  0
 66 69  2  0
 59 70  1  0
 70 71  1  0
 71 72  1  0
 72 73  2  0
 73 74  1  0
 74 75  1  0
 75 76  2  0
 76 77  1  0
 77 78  1  0
 76 79  1  0
 79 80  1  0
 80 81  1  0
 79 82  2  0
  5  1  2  0
 26 15  1  0
 41 30  1  0
 48 44  2  0
 61 57  2  0
 74 70  2  0
 13  4  1  0
 25 16  1  0
 40 31  1  0
 56 47  1  0
 69 60  1  0
 82 73  1  0
  1 83  1  0
  6 84  1  0
  9 85  1  0
  9 86  1  0
  9 87  1  0
 12 88  1  0
 12 89  1  0
 12 90  1  0
 13 91  1  0
 17 92  1  0
 20 93  1  0
 20 94  1  0
 20 95  1  0
 23 96  1  0
 23 97  1  0
 23 98  1  0
 24 99  1  0
 27100  1  0
 28101  1  0
 32102  1  0
 35103  1  0
 35104  1  0
 35105  1  0
 38106  1  0
 38107  1  0
 38108  1  0
 39109  1  0
 42110  1  0
 43111  1  0
 49112  1  0
 52113  1  0
 52114  1  0
 52115  1  0
 55116  1  0
 55117  1  0
 55118  1  0
 56119  1  0
 62120  1  0
 65121  1  0
 65122  1  0
 65123  1  0
 68124  1  0
 68125  1  0
 68126  1  0
 69127  1  0
 72128  1  0
 75129  1  0
 78130  1  0
 78131  1  0
 78132  1  0
 81133  1  0
 81134  1  0
 81135  1  0
 82136  1  0
M  END

