
     RDKit          3D

252275  0  0  0  0  0  0  0  0999 V2000
    5.9992   11.8935   -4.2475 C   0  0  0  0  0  0  0  0  0  0  0  0
    6.6277   11.0639   -2.9278 S   0  0  0  0  0  0  0  0  0  0  0  0
    4.6659   11.5202   -4.3720 C   0  0  0  0  0  0  0  0  0  0  0  0
    3.8229   11.9488   -5.4008 C   0  0  0  0  0  0  0  0  0  0  0  0
    2.5049   11.4594   -5.4640 C   0  0  0  0  0  0  0  0  0  0  0  0
    1.6254   11.8425   -6.4894 O   0  0  0  0  0  0  0  0  0  0  0  0
    2.0065   12.5943   -7.6356 C   0  0  0  0  0  0  0  0  0  0  0  0
    2.0406   10.5595   -4.4828 C   0  0  0  0  0  0  0  0  0  0  0  0
    0.7023   10.1427   -4.5547 O   0  0  0  0  0  0  0  0  0  0  0  0
    0.0345    9.3941   -3.5456 C   0  0  0  0  0  0  0  0  0  0  0  0
    2.9137   10.1022   -3.4706 C   0  0  0  0  0  0  0  0  0  0  0  0
    4.2235   10.6027   -3.4025 C   0  0  0  0  0  0  0  0  0  0  0  0
    5.2220   10.2512   -2.4796 C   0  0  0  0  0  0  0  0  0  0  0  0
    5.1754    9.2985   -1.3572 C   0  0  0  0  0  0  0  0  0  0  0  0
    4.1199    9.1762   -0.5482 C   0  0  0  0  0  0  0  0  0  0  0  0
    4.0693    8.2135    0.5686 C   0  0  0  0  0  0  0  0  0  0  0  0
    5.1396    7.5309    1.1624 C   0  0  0  0  0  0  0  0  0  0  0  0
    4.7315    6.6405    2.1755 C   0  0  0  0  0  0  0  0  0  0  0  0
    5.5597    5.7590    2.9194 C   0  0  0  0  0  0  0  0  0  0  0  0
    7.0265    5.6780    2.7153 C   0  0  0  0  0  0  0  0  0  0  0  0
    7.5583    5.3769    1.4525 C   0  0  0  0  0  0  0  0  0  0  0  0
    8.9422    5.3069    1.2689 C   0  0  0  0  0  0  0  0  0  0  0  0
    9.8076    5.5011    2.3541 C   0  0  0  0  0  0  0  0  0  0  0  0
   11.5857    5.4220    2.1111 S   0  0  0  0  0  0  0  0  0  0  0  0
   11.7034    3.6013    2.2697 C   0  0  0  0  0  0  0  0  0  0  0  0
   11.9284    2.9707    0.9019 C   0  0  0  0  0  0  0  0  0  0  0  0
    9.2797    5.7784    3.6260 C   0  0  0  0  0  0  0  0  0  0  0  0
   10.1019    5.9684    4.6869 F   0  0  0  0  0  0  0  0  0  0  0  0
    7.8960    5.8739    3.8016 C   0  0  0  0  0  0  0  0  0  0  0  0
    4.9162    4.9273    3.8563 C   0  0  0  0  0  0  0  0  0  0  0  0
    3.5358    4.9648    4.0741 C   0  0  0  0  0  0  0  0  0  0  0  0
    2.7107    5.8145    3.3100 C   0  0  0  0  0  0  0  0  0  0  0  0
    1.2370    5.7255    3.3623 C   0  0  0  0  0  0  0  0  0  0  0  0
    0.5868    4.5522    2.9442 C   0  0  0  0  0  0  0  0  0  0  0  0
   -0.8050    4.4636    2.9880 C   0  0  0  0  0  0  0  0  0  0  0  0
   -1.5635    5.5496    3.4416 C   0  0  0  0  0  0  0  0  0  0  0  0
   -3.3555    5.4378    3.4591 S   0  0  0  0  0  0  0  0  0  0  0  0
   -3.5663    6.0403    1.7425 C   0  0  0  0  0  0  0  0  0  0  0  0
   -3.9159    4.8844    0.8127 C   0  0  0  0  0  0  0  0  0  0  0  0
   -0.9211    6.7206    3.8701 C   0  0  0  0  0  0  0  0  0  0  0  0
    0.4760    6.8085    3.8267 C   0  0  0  0  0  0  0  0  0  0  0  0
   -1.6460    7.7719    4.3347 F   0  0  0  0  0  0  0  0  0  0  0  0
    3.3461    6.6538    2.3821 C   0  0  0  0  0  0  0  0  0  0  0  0
    2.6373    7.7372    1.3117 S   0  0  0  0  0  0  0  0  0  0  0  0
    3.0908    4.0046    4.9880 C   0  0  0  0  0  0  0  0  0  0  0  0
    4.0999    3.1550    5.4388 C   0  0  0  0  0  0  0  0  0  0  0  0
    5.5526    3.6177    4.7135 S   0  0  0  0  0  0  0  0  0  0  0  0
    3.7776    1.7876    5.8521 C   0  0  0  0  0  0  0  0  0  0  0  0
    2.9645    1.5011    6.9529 C   0  0  0  0  0  0  0  0  0  0  0  0
    2.1286    0.3848    6.7598 C   0  0  0  0  0  0  0  0  0  0  0  0
    1.1019   -0.0455    7.6316 C   0  0  0  0  0  0  0  0  0  0  0  0
    1.0347    0.4247    9.0372 C   0  0  0  0  0  0  0  0  0  0  0  0
    2.1562    0.2835    9.8729 C   0  0  0  0  0  0  0  0  0  0  0  0
    2.0968    0.6689   11.2129 C   0  0  0  0  0  0  0  0  0  0  0  0
    0.9026    1.1693   11.7484 C   0  0  0  0  0  0  0  0  0  0  0  0
    0.8113    1.6000   13.4908 S   0  0  0  0  0  0  0  0  0  0  0  0
    0.2159   -0.0429   14.0391 C   0  0  0  0  0  0  0  0  0  0  0  0
    1.3695   -1.0320   14.1625 C   0  0  0  0  0  0  0  0  0  0  0  0
   -0.2080    1.3506   10.9131 C   0  0  0  0  0  0  0  0  0  0  0  0
   -1.3673    1.8539   11.4099 F   0  0  0  0  0  0  0  0  0  0  0  0
   -0.1393    0.9850    9.5638 C   0  0  0  0  0  0  0  0  0  0  0  0
    0.1763   -0.9776    7.1140 C   0  0  0  0  0  0  0  0  0  0  0  0
    0.2894   -1.4930    5.8139 C   0  0  0  0  0  0  0  0  0  0  0  0
    1.3504   -1.1107    4.9688 C   0  0  0  0  0  0  0  0  0  0  0  0
    1.3430   -1.4496    3.5236 C   0  0  0  0  0  0  0  0  0  0  0  0
    1.3696   -2.7845    3.0923 C   0  0  0  0  0  0  0  0  0  0  0  0
    1.2956   -3.0869    1.7280 C   0  0  0  0  0  0  0  0  0  0  0  0
    1.2368   -2.0590    0.7818 C   0  0  0  0  0  0  0  0  0  0  0  0
    1.2275   -2.4510   -0.9735 S   0  0  0  0  0  0  0  0  0  0  0  0
   -0.5904   -2.3547   -1.1397 C   0  0  0  0  0  0  0  0  0  0  0  0
   -0.9646   -2.1765   -2.6048 C   0  0  0  0  0  0  0  0  0  0  0  0
    1.2194   -0.7228    1.2034 C   0  0  0  0  0  0  0  0  0  0  0  0
    1.2428   -0.4218    2.5643 C   0  0  0  0  0  0  0  0  0  0  0  0
    1.1671    0.2913    0.3002 F   0  0  0  0  0  0  0  0  0  0  0  0
    2.2658   -0.1799    5.4909 C   0  0  0  0  0  0  0  0  0  0  0  0
    3.4714    0.6385    4.6617 S   0  0  0  0  0  0  0  0  0  0  0  0
   -0.8028   -2.2758    5.4369 C   0  0  0  0  0  0  0  0  0  0  0  0
   -1.7774   -2.3796    6.4242 C   0  0  0  0  0  0  0  0  0  0  0  0
   -1.2949   -1.4967    7.7786 S   0  0  0  0  0  0  0  0  0  0  0  0
   -3.1165   -2.8882    6.1188 C   0  0  0  0  0  0  0  0  0  0  0  0
   -3.2748   -4.2374    5.7992 C   0  0  0  0  0  0  0  0  0  0  0  0
   -4.0816   -4.4615    4.6698 C   0  0  0  0  0  0  0  0  0  0  0  0
   -4.1543   -5.6770    3.9649 C   0  0  0  0  0  0  0  0  0  0  0  0
   -3.5314   -6.9046    4.4975 C   0  0  0  0  0  0  0  0  0  0  0  0
   -4.1328   -7.5906    5.5615 C   0  0  0  0  0  0  0  0  0  0  0  0
   -3.5451   -8.7501    6.0698 C   0  0  0  0  0  0  0  0  0  0  0  0
   -2.3542   -9.2356    5.5181 C   0  0  0  0  0  0  0  0  0  0  0  0
   -1.6290  -10.7513    6.1484 S   0  0  0  0  0  0  0  0  0  0  0  0
   -2.4024  -11.8307    4.8900 C   0  0  0  0  0  0  0  0  0  0  0  0
   -3.8406  -12.1692    5.2631 C   0  0  0  0  0  0  0  0  0  0  0  0
   -1.7291   -8.5320    4.4779 C   0  0  0  0  0  0  0  0  0  0  0  0
   -0.5615   -8.9747    3.9493 F   0  0  0  0  0  0  0  0  0  0  0  0
   -2.3197   -7.3729    3.9676 C   0  0  0  0  0  0  0  0  0  0  0  0
   -4.6478   -5.6201    2.6544 C   0  0  0  0  0  0  0  0  0  0  0  0
   -5.0930   -4.4314    2.0650 C   0  0  0  0  0  0  0  0  0  0  0  0
   -5.1566   -3.2394    2.8203 C   0  0  0  0  0  0  0  0  0  0  0  0
   -5.6476   -1.9724    2.2328 C   0  0  0  0  0  0  0  0  0  0  0  0
   -6.9934   -1.8580    1.8549 C   0  0  0  0  0  0  0  0  0  0  0  0
   -7.4931   -0.6369    1.3915 C   0  0  0  0  0  0  0  0  0  0  0  0
   -6.6537    0.4794    1.3031 C   0  0  0  0  0  0  0  0  0  0  0  0
   -7.3254    2.0623    0.7803 S   0  0  0  0  0  0  0  0  0  0  0  0
   -7.9804    2.5150    2.4281 C   0  0  0  0  0  0  0  0  0  0  0  0
   -6.8825    3.0704    3.3294 C   0  0  0  0  0  0  0  0  0  0  0  0
   -5.2901    0.3515    1.6154 C   0  0  0  0  0  0  0  0  0  0  0  0
   -4.7892   -0.8715    2.0748 C   0  0  0  0  0  0  0  0  0  0  0  0
   -4.4551    1.4151    1.4948 F   0  0  0  0  0  0  0  0  0  0  0  0
   -4.6088   -3.2896    4.1202 C   0  0  0  0  0  0  0  0  0  0  0  0
   -4.0839   -1.9996    5.0573 S   0  0  0  0  0  0  0  0  0  0  0  0
   -5.1855   -4.5134    0.6636 C   0  0  0  0  0  0  0  0  0  0  0  0
   -4.7645   -5.7477    0.1577 C   0  0  0  0  0  0  0  0  0  0  0  0
   -4.3922   -6.7579    1.4562 S   0  0  0  0  0  0  0  0  0  0  0  0
   -4.0557   -5.8832   -1.1203 C   0  0  0  0  0  0  0  0  0  0  0  0
   -4.3694   -5.2579   -2.3284 C   0  0  0  0  0  0  0  0  0  0  0  0
   -3.3109   -5.3163   -3.2579 C   0  0  0  0  0  0  0  0  0  0  0  0
   -3.2880   -4.7276   -4.5394 C   0  0  0  0  0  0  0  0  0  0  0  0
   -4.4648   -4.0598   -5.1161 C   0  0  0  0  0  0  0  0  0  0  0  0
   -5.4672   -4.8208   -5.7331 C   0  0  0  0  0  0  0  0  0  0  0  0
   -6.5584   -4.1887   -6.3304 C   0  0  0  0  0  0  0  0  0  0  0  0
   -6.6549   -2.7894   -6.3173 C   0  0  0  0  0  0  0  0  0  0  0  0
   -8.0544   -1.9873   -7.1032 S   0  0  0  0  0  0  0  0  0  0  0  0
   -7.1753   -1.6101   -8.6621 C   0  0  0  0  0  0  0  0  0  0  0  0
   -7.0403   -2.8488   -9.5405 C   0  0  0  0  0  0  0  0  0  0  0  0
   -5.6675   -2.0271   -5.6708 C   0  0  0  0  0  0  0  0  0  0  0  0
   -5.7599   -0.6749   -5.6315 F   0  0  0  0  0  0  0  0  0  0  0  0
   -4.5676   -2.6625   -5.0855 C   0  0  0  0  0  0  0  0  0  0  0  0
   -2.0781   -4.7927   -5.2496 C   0  0  0  0  0  0  0  0  0  0  0  0
   -0.9274   -5.4001   -4.7340 C   0  0  0  0  0  0  0  0  0  0  0  0
   -0.9485   -6.0039   -3.4602 C   0  0  0  0  0  0  0  0  0  0  0  0
    0.2688   -6.5442   -2.8097 C   0  0  0  0  0  0  0  0  0  0  0  0
    1.3879   -5.7189   -2.6192 C   0  0  0  0  0  0  0  0  0  0  0  0
    2.4986   -6.1865   -1.9131 C   0  0  0  0  0  0  0  0  0  0  0  0
    2.4955   -7.4780   -1.3674 C   0  0  0  0  0  0  0  0  0  0  0  0
    3.9139   -8.0576   -0.4239 S   0  0  0  0  0  0  0  0  0  0  0  0
    3.2131   -7.6300    1.2113 C   0  0  0  0  0  0  0  0  0  0  0  0
    3.4992   -6.1748    1.5634 C   0  0  0  0  0  0  0  0  0  0  0  0
    1.3939   -8.3177   -1.5808 C   0  0  0  0  0  0  0  0  0  0  0  0
    0.2851   -7.8512   -2.2961 C   0  0  0  0  0  0  0  0  0  0  0  0
    1.3802   -9.5757   -1.0712 F   0  0  0  0  0  0  0  0  0  0  0  0
   -2.1696   -5.9600   -2.7657 C   0  0  0  0  0  0  0  0  0  0  0  0
   -2.4746   -6.4673   -1.1992 S   0  0  0  0  0  0  0  0  0  0  0  0
    0.1758   -5.3228   -5.6015 C   0  0  0  0  0  0  0  0  0  0  0  0
   -0.1013   -4.6380   -6.7879 C   0  0  0  0  0  0  0  0  0  0  0  0
   -1.7280   -4.1722   -6.7720 S   0  0  0  0  0  0  0  0  0  0  0  0
    0.8643   -4.4446   -7.8925 C   0  0  0  0  0  0  0  0  0  0  0  0
    2.1967   -5.4483   -8.1438 S   0  0  0  0  0  0  0  0  0  0  0  0
    0.8623   -3.4916   -8.9228 C   0  0  0  0  0  0  0  0  0  0  0  0
   -0.0436   -2.4342   -9.0831 C   0  0  0  0  0  0  0  0  0  0  0  0
    0.0507   -1.5872  -10.2071 C   0  0  0  0  0  0  0  0  0  0  0  0
   -0.8331   -0.5126  -10.4031 O   0  0  0  0  0  0  0  0  0  0  0  0
   -1.8812   -0.1517   -9.5089 C   0  0  0  0  0  0  0  0  0  0  0  0
    1.0560   -1.8071  -11.1718 C   0  0  0  0  0  0  0  0  0  0  0  0
    1.0939   -0.9672  -12.2966 O   0  0  0  0  0  0  0  0  0  0  0  0
    2.0125   -1.1018  -13.3766 C   0  0  0  0  0  0  0  0  0  0  0  0
    1.9922   -2.8458  -10.9898 C   0  0  0  0  0  0  0  0  0  0  0  0
    1.9143   -3.6591   -9.8487 C   0  0  0  0  0  0  0  0  0  0  0  0
    2.7820   -4.7109   -9.5294 C   0  0  0  0  0  0  0  0  0  0  0  0
    4.0054   -5.1554  -10.2245 C   0  0  0  0  0  0  0  0  0  0  0  0
    4.9032   -4.3049  -10.7183 C   0  0  0  0  0  0  0  0  0  0  0  0
    6.5441   12.5665   -4.8951 H   0  0  0  0  0  0  0  0  0  0  0  0
    4.1984   12.6410   -6.1440 H   0  0  0  0  0  0  0  0  0  0  0  0
    2.8009   12.0554   -8.1982 H   0  0  0  0  0  0  0  0  0  0  0  0
    1.1230   12.7162   -8.2944 H   0  0  0  0  0  0  0  0  0  0  0  0
    2.3743   13.6004   -7.3376 H   0  0  0  0  0  0  0  0  0  0  0  0
    0.4975    8.3894   -3.4446 H   0  0  0  0  0  0  0  0  0  0  0  0
   -1.0294    9.2739   -3.8297 H   0  0  0  0  0  0  0  0  0  0  0  0
    0.0832    9.9388   -2.5820 H   0  0  0  0  0  0  0  0  0  0  0  0
    2.5827    9.3430   -2.7796 H   0  0  0  0  0  0  0  0  0  0  0  0
    6.0771    8.7346   -1.1592 H   0  0  0  0  0  0  0  0  0  0  0  0
    3.2463    9.7878   -0.7076 H   0  0  0  0  0  0  0  0  0  0  0  0
    6.1714    7.6679    0.8725 H   0  0  0  0  0  0  0  0  0  0  0  0
    6.9008    5.1936    0.6105 H   0  0  0  0  0  0  0  0  0  0  0  0
    9.3409    5.0992    0.2849 H   0  0  0  0  0  0  0  0  0  0  0  0
   12.5704    3.3668    2.9243 H   0  0  0  0  0  0  0  0  0  0  0  0
   10.7921    3.1618    2.7357 H   0  0  0  0  0  0  0  0  0  0  0  0
   11.0625    3.1720    0.2374 H   0  0  0  0  0  0  0  0  0  0  0  0
   12.0453    1.8710    1.0160 H   0  0  0  0  0  0  0  0  0  0  0  0
   12.8521    3.3791    0.4375 H   0  0  0  0  0  0  0  0  0  0  0  0
    7.4992    6.1060    4.7853 H   0  0  0  0  0  0  0  0  0  0  0  0
    1.1627    3.7085    2.5805 H   0  0  0  0  0  0  0  0  0  0  0  0
   -1.2944    3.5535    2.6589 H   0  0  0  0  0  0  0  0  0  0  0  0
   -2.6530    6.5547    1.3716 H   0  0  0  0  0  0  0  0  0  0  0  0
   -4.3952    6.7794    1.7353 H   0  0  0  0  0  0  0  0  0  0  0  0
   -4.8889    4.4406    1.1064 H   0  0  0  0  0  0  0  0  0  0  0  0
   -4.0002    5.2507   -0.2338 H   0  0  0  0  0  0  0  0  0  0  0  0
   -3.1287    4.1037    0.8542 H   0  0  0  0  0  0  0  0  0  0  0  0
    0.9653    7.7160    4.1673 H   0  0  0  0  0  0  0  0  0  0  0  0
    2.0450    3.8336    5.2099 H   0  0  0  0  0  0  0  0  0  0  0  0
    2.8561    2.1809    7.7854 H   0  0  0  0  0  0  0  0  0  0  0  0
    3.0725   -0.1518    9.4900 H   0  0  0  0  0  0  0  0  0  0  0  0
    2.9706    0.5511   11.8425 H   0  0  0  0  0  0  0  0  0  0  0  0
   -0.5545   -0.4365   13.3397 H   0  0  0  0  0  0  0  0  0  0  0  0
   -0.2564    0.0727   15.0364 H   0  0  0  0  0  0  0  0  0  0  0  0
    2.1936   -0.5891   14.7629 H   0  0  0  0  0  0  0  0  0  0  0  0
    1.0154   -1.9576   14.6685 H   0  0  0  0  0  0  0  0  0  0  0  0
    1.7511   -1.3046   13.1574 H   0  0  0  0  0  0  0  0  0  0  0  0
   -1.0035    1.1338    8.9301 H   0  0  0  0  0  0  0  0  0  0  0  0
    1.4432   -3.5930    3.8153 H   0  0  0  0  0  0  0  0  0  0  0  0
    1.2922   -4.1211    1.4106 H   0  0  0  0  0  0  0  0  0  0  0  0
   -1.0465   -3.2895   -0.7477 H   0  0  0  0  0  0  0  0  0  0  0  0
   -0.9817   -1.4839   -0.5706 H   0  0  0  0  0  0  0  0  0  0  0  0
   -0.5479   -1.2191   -2.9815 H   0  0  0  0  0  0  0  0  0  0  0  0
   -0.5652   -3.0150   -3.2096 H   0  0  0  0  0  0  0  0  0  0  0  0
   -2.0711   -2.1500   -2.7118 H   0  0  0  0  0  0  0  0  0  0  0  0
    1.1923    0.6131    2.8778 H   0  0  0  0  0  0  0  0  0  0  0  0
   -0.9427   -2.6859    4.4455 H   0  0  0  0  0  0  0  0  0  0  0  0
   -2.6384   -5.0057    6.2189 H   0  0  0  0  0  0  0  0  0  0  0  0
   -5.0605   -7.2265    5.9919 H   0  0  0  0  0  0  0  0  0  0  0  0
   -4.0223   -9.2748    6.8870 H   0  0  0  0  0  0  0  0  0  0  0  0
   -2.3732  -11.3483    3.8899 H   0  0  0  0  0  0  0  0  0  0  0  0
   -1.8197  -12.7744    4.8301 H   0  0  0  0  0  0  0  0  0  0  0  0
   -3.8755  -12.6268    6.2746 H   0  0  0  0  0  0  0  0  0  0  0  0
   -4.2522  -12.8947    4.5288 H   0  0  0  0  0  0  0  0  0  0  0  0
   -4.4717  -11.2573    5.2460 H   0  0  0  0  0  0  0  0  0  0  0  0
   -1.8358   -6.8349    3.1585 H   0  0  0  0  0  0  0  0  0  0  0  0
   -7.6594   -2.7063    1.9473 H   0  0  0  0  0  0  0  0  0  0  0  0
   -8.5408   -0.5534    1.1328 H   0  0  0  0  0  0  0  0  0  0  0  0
   -8.4629    1.6387    2.9132 H   0  0  0  0  0  0  0  0  0  0  0  0
   -8.7573    3.2961    2.2908 H   0  0  0  0  0  0  0  0  0  0  0  0
   -7.3218    3.3651    4.3050 H   0  0  0  0  0  0  0  0  0  0  0  0
   -6.4224    3.9664    2.8639 H   0  0  0  0  0  0  0  0  0  0  0  0
   -6.1035    2.3023    3.5133 H   0  0  0  0  0  0  0  0  0  0  0  0
   -3.7377   -0.9531    2.3199 H   0  0  0  0  0  0  0  0  0  0  0  0
   -5.3430   -3.6483    0.0320 H   0  0  0  0  0  0  0  0  0  0  0  0
   -5.2990   -4.7324   -2.5004 H   0  0  0  0  0  0  0  0  0  0  0  0
   -5.3899   -5.8999   -5.7633 H   0  0  0  0  0  0  0  0  0  0  0  0
   -7.3205   -4.7841   -6.8195 H   0  0  0  0  0  0  0  0  0  0  0  0
   -6.1701   -1.1880   -8.4486 H   0  0  0  0  0  0  0  0  0  0  0  0
   -7.7588   -0.8432   -9.2128 H   0  0  0  0  0  0  0  0  0  0  0  0
   -8.0354   -3.3108   -9.7094 H   0  0  0  0  0  0  0  0  0  0  0  0
   -6.3644   -3.5880   -9.0650 H   0  0  0  0  0  0  0  0  0  0  0  0
   -6.6068   -2.5610  -10.5219 H   0  0  0  0  0  0  0  0  0  0  0  0
   -3.7955   -2.0678   -4.6139 H   0  0  0  0  0  0  0  0  0  0  0  0
    1.3903   -4.7037   -2.9979 H   0  0  0  0  0  0  0  0  0  0  0  0
    3.3523   -5.5359   -1.7764 H   0  0  0  0  0  0  0  0  0  0  0  0
    2.1160   -7.8208    1.2367 H   0  0  0  0  0  0  0  0  0  0  0  0
    3.6884   -8.2781    1.9766 H   0  0  0  0  0  0  0  0  0  0  0  0
    4.5956   -6.0098    1.6469 H   0  0  0  0  0  0  0  0  0  0  0  0
    3.0908   -5.5016    0.7848 H   0  0  0  0  0  0  0  0  0  0  0  0
    3.0240   -5.9273    2.5373 H   0  0  0  0  0  0  0  0  0  0  0  0
   -0.5733   -8.4998   -2.4303 H   0  0  0  0  0  0  0  0  0  0  0  0
    1.1449   -5.7490   -5.3764 H   0  0  0  0  0  0  0  0  0  0  0  0
   -0.8008   -2.2507   -8.3409 H   0  0  0  0  0  0  0  0  0  0  0  0
   -2.4200    0.7278   -9.9185 H   0  0  0  0  0  0  0  0  0  0  0  0
   -2.6010   -0.9898   -9.4059 H   0  0  0  0  0  0  0  0  0  0  0  0
   -1.4609    0.1211   -8.5170 H   0  0  0  0  0  0  0  0  0  0  0  0
    1.7927   -0.3288  -14.1431 H   0  0  0  0  0  0  0  0  0  0  0  0
    1.9055   -2.1032  -13.8479 H   0  0  0  0  0  0  0  0  0  0  0  0
    3.0529   -0.9591  -13.0120 H   0  0  0  0  0  0  0  0  0  0  0  0
    2.7538   -3.0309  -11.7299 H   0  0  0  0  0  0  0  0  0  0  0  0
    4.2380   -6.2137  -10.2334 H   0  0  0  0  0  0  0  0  0  0  0  0
    4.7757   -3.2350  -10.6340 H   0  0  0  0  0  0  0  0  0  0  0  0
    5.8106   -4.6823  -11.1716 H   0  0  0  0  0  0  0  0  0  0  0  0
  1  2  1  0
  1  3  2  0
  3  4  1  0
  4  5  2  0
  5  6  1  0
  6  7  1  0
  5  8  1  0
  8  9  1  0
  9 10  1  0
  8 11  2  0
 11 12  1  0
 12 13  2  0
 13 14  1  0
 14 15  2  3
 15 16  1  0
 16 17  2  0
 17 18  1  0
 18 19  2  0
 19 20  1  0
 20 21  2  0
 21 22  1  0
 22 23  2  0
 23 24  1  0
 24 25  1  0
 25 26  1  0
 23 27  1  0
 27 28  1  0
 27 29  2  0
 19 30  1  0
 30 31  2  0
 31 32  1  0
 32 33  1  0
 33 34  2  0
 34 35  1  0
 35 36  2  0
 36 37  1  0
 37 38  1  0
 38 39  1  0
 36 40  1  0
 40 41  2  0
 40 42  1  0
 32 43  2  0
 43 44  1  0
 31 45  1  0
 45 46  2  0
 46 47  1  0
 46 48  1  0
 48 49  2  0
 49 50  1  0
 50 51  2  0
 51 52  1  0
 52 53  2  0
 53 54  1  0
 54 55  2  0
 55 56  1  0
 56 57  1  0
 57 58  1  0
 55 59  1  0
 59 60  1  0
 59 61  2  0
 51 62  1  0
 62 63  2  0
 63 64  1  0
 64 65  1  0
 65 66  2  0
 66 67  1  0
 67 68  2  0
 68 69  1  0
 69 70  1  0
 70 71  1  0
 68 72  1  0
 72 73  2  0
 72 74  1  0
 64 75  2  0
 75 76  1  0
 63 77  1  0
 77 78  2  0
 78 79  1  0
 78 80  1  0
 80 81  2  0
 81 82  1  0
 82 83  2  0
 83 84  1  0
 84 85  2  0
 85 86  1  0
 86 87  2  0
 87 88  1  0
 88 89  1  0
 89 90  1  0
 87 91  1  0
 91 92  1  0
 91 93  2  0
 83 94  1  0
 94 95  2  0
 95 96  1  0
 96 97  1  0
 97 98  2  0
 98 99  1  0
 99100  2  0
100101  1  0
101102  1  0
102103  1  0
100104  1  0
104105  2  0
104106  1  0
 96107  2  0
107108  1  0
 95109  1  0
109110  2  0
110111  1  0
110112  1  0
112113  2  0
113114  1  0
114115  2  0
115116  1  0
116117  2  0
117118  1  0
118119  2  0
119120  1  0
120121  1  0
121122  1  0
119123  1  0
123124  1  0
123125  2  0
115126  1  0
126127  2  0
127128  1  0
128129  1  0
129130  2  0
130131  1  0
131132  2  0
132133  1  0
133134  1  0
134135  1  0
132136  1  0
136137  2  0
136138  1  0
128139  2  0
139140  1  0
127141  1  0
141142  2  0
142143  1  0
142144  1  0
144145  1  0
144146  2  0
146147  1  0
147148  2  0
148149  1  0
149150  1  0
148151  1  0
151152  1  0
152153  1  0
151154  2  0
154155  1  0
155156  2  0
156157  1  0
157158  2  3
 13  2  1  0
 44 16  1  0
 76 48  1  0
108 80  1  0
140112  1  0
156145  1  0
 12  3  1  0
 43 18  1  0
 75 50  1  0
107 82  1  0
139114  1  0
155146  1  0
 29 20  1  0
 47 30  1  0
 61 52  1  0
 79 62  1  0
 93 84  1  0
111 94  1  0
125116  1  0
143126  1  0
 41 33  1  0
 73 65  1  0
105 97  1  0
137129  1  0
  1159  1  0
  4160  1  0
  7161  1  0
  7162  1  0
  7163  1  0
 10164  1  0
 10165  1  0
 10166  1  0
 11167  1  0
 14168  1  0
 15169  1  0
 17170  1  0
 21171  1  0
 22172  1  0
 25173  1  0
 25174  1  0
 26175  1  0
 26176  1  0
 26177  1  0
 29178  1  0
 34179  1  0
 35180  1  0
 38181  1  0
 38182  1  0
 39183  1  0
 39184  1  0
 39185  1  0
 41186  1  0
 45187  1  0
 49188  1  0
 53189  1  0
 54190  1  0
 57191  1  0
 57192  1  0
 58193  1  0
 58194  1  0
 58195  1  0
 61196  1  0
 66197  1  0
 67198  1  0
 70199  1  0
 70200  1  0
 71201  1  0
 71202  1  0
 71203  1  0
 73204  1  0
 77205  1  0
 81206  1  0
 85207  1  0
 86208  1  0
 89209  1  0
 89210  1  0
 90211  1  0
 90212  1  0
 90213  1  0
 93214  1  0
 98215  1  0
 99216  1  0
102217  1  0
102218  1  0
103219  1  0
103220  1  0
103221  1  0
105222  1  0
109223  1  0
113224  1  0
117225  1  0
118226  1  0
121227  1  0
121228  1  0
122229  1  0
122230  1  0
122231  1  0
125232  1  0
130233  1  0
131234  1  0
134235  1  0
134236  1  0
135237  1  0
135238  1  0
135239  1  0
137240  1  0
141241  1  0
147242  1  0
150243  1  0
150244  1  0
150245  1  0
153246  1  0
153247  1  0
153248  1  0
154249  1  0
157250  1  0
158251  1  0
158252  1  0
M  END

