
     RDKit          3D

104111  0  0  0  0  0  0  0  0999 V2000
    2.9156   -2.0823    0.6673 C   0  0  0  0  0  0  0  0  0  0  0  0
    2.9384   -2.4612    2.3059 S   0  0  0  0  0  0  0  0  0  0  0  0
    4.6114   -2.5046    2.4493 C   0  0  0  0  0  0  0  0  0  0  0  0
    5.3244   -2.8036    3.6540 N   0  0  0  0  0  4  0  0  0  0  0  0
    4.6382   -3.0779    4.8132 O   0  0  0  0  0  1  0  0  0  0  0  0
    6.5713   -2.8387    3.6590 O   0  0  0  0  0  0  0  0  0  0  0  0
    5.1855   -2.2249    1.2157 C   0  0  0  0  0  0  0  0  0  0  0  0
    4.2295   -1.9679    0.2170 C   0  0  0  0  0  0  0  0  0  0  0  0
    4.5407   -1.6552   -1.1924 C   0  0  0  0  0  0  0  0  0  0  0  0
    5.5873   -0.9334   -1.6192 C   0  0  0  0  0  0  0  0  0  0  0  0
    6.5547   -0.2252   -0.7586 C   0  0  0  0  0  0  0  0  0  0  0  0
    8.2168   -0.3053   -1.0114 S   0  0  0  0  0  0  0  0  0  0  0  0
    8.6230    0.7808    0.2032 C   0  0  0  0  0  0  0  0  0  0  0  0
    9.9526    1.1936    0.5287 N   0  0  0  0  0  4  0  0  0  0  0  0
   10.1729    2.0883    1.5496 O   0  0  0  0  0  1  0  0  0  0  0  0
   10.9243    0.7517   -0.1167 O   0  0  0  0  0  0  0  0  0  0  0  0
    7.4683    1.2468    0.8147 C   0  0  0  0  0  0  0  0  0  0  0  0
    6.2904    0.6951    0.2720 C   0  0  0  0  0  0  0  0  0  0  0  0
    4.9203    1.0858    0.6856 C   0  0  0  0  0  0  0  0  0  0  0  0
    4.6477    1.7766    1.8004 C   0  0  0  0  0  0  0  0  0  0  0  0
    3.2678    2.0289    2.2580 C   0  0  0  0  0  0  0  0  0  0  0  0
    2.8248    1.9752    3.8816 S   0  0  0  0  0  0  0  0  0  0  0  0
    2.1092    2.2672    1.5046 C   0  0  0  0  0  0  0  0  0  0  0  0
    2.0448    2.4933    0.1234 C   0  0  0  0  0  0  0  0  0  0  0  0
    0.7938    2.6878   -0.4962 C   0  0  0  0  0  0  0  0  0  0  0  0
    0.6749    2.8641   -1.8843 O   0  0  0  0  0  0  0  0  0  0  0  0
    1.7683    2.8551   -2.7989 C   0  0  0  0  0  0  0  0  0  0  0  0
   -0.3808    2.7059    0.2799 C   0  0  0  0  0  0  0  0  0  0  0  0
   -1.6083    2.8679   -0.3812 O   0  0  0  0  0  0  0  0  0  0  0  0
   -2.8809    2.7025    0.2342 C   0  0  0  0  0  0  0  0  0  0  0  0
   -0.3018    2.5676    1.6815 C   0  0  0  0  0  0  0  0  0  0  0  0
    0.9396    2.3346    2.2853 C   0  0  0  0  0  0  0  0  0  0  0  0
    1.1717    2.1785    3.6573 C   0  0  0  0  0  0  0  0  0  0  0  0
    0.1920    2.2002    4.7612 C   0  0  0  0  0  0  0  0  0  0  0  0
   -0.9104    1.4397    4.8138 C   0  0  0  0  0  0  0  0  0  0  0  0
   -1.2267    0.3800    3.8379 C   0  0  0  0  0  0  0  0  0  0  0  0
   -0.1336   -0.7399    3.2107 S   0  0  0  0  0  0  0  0  0  0  0  0
   -2.4696    0.1404    3.2538 C   0  0  0  0  0  0  0  0  0  0  0  0
   -3.6408    0.8615    3.5030 C   0  0  0  0  0  0  0  0  0  0  0  0
   -4.8245    0.5288    2.8109 C   0  0  0  0  0  0  0  0  0  0  0  0
   -6.0237    1.2300    3.0164 O   0  0  0  0  0  0  0  0  0  0  0  0
   -6.1753    2.3289    3.9069 C   0  0  0  0  0  0  0  0  0  0  0  0
   -4.8245   -0.5371    1.8862 C   0  0  0  0  0  0  0  0  0  0  0  0
   -6.0219   -0.8389    1.2163 O   0  0  0  0  0  0  0  0  0  0  0  0
   -6.1601   -1.8591    0.2318 C   0  0  0  0  0  0  0  0  0  0  0  0
   -3.6405   -1.2688    1.6567 C   0  0  0  0  0  0  0  0  0  0  0  0
   -2.4608   -0.9054    2.3171 C   0  0  0  0  0  0  0  0  0  0  0  0
   -1.2028   -1.5012    2.1611 C   0  0  0  0  0  0  0  0  0  0  0  0
   -0.7926   -2.5450    1.2089 C   0  0  0  0  0  0  0  0  0  0  0  0
   -1.1755   -2.5128   -0.0700 C   0  0  0  0  0  0  0  0  0  0  0  0
   -0.7665   -3.5378   -1.0534 C   0  0  0  0  0  0  0  0  0  0  0  0
    0.2802   -4.8304   -0.7511 S   0  0  0  0  0  0  0  0  0  0  0  0
    0.1596   -5.5113   -2.2810 C   0  0  0  0  0  0  0  0  0  0  0  0
    0.8375   -6.6962   -2.7053 N   0  0  0  0  0  4  0  0  0  0  0  0
    1.6555   -7.3714   -1.8298 O   0  0  0  0  0  1  0  0  0  0  0  0
    0.6904   -7.1277   -3.8673 O   0  0  0  0  0  0  0  0  0  0  0  0
   -0.7044   -4.7507   -3.0578 C   0  0  0  0  0  0  0  0  0  0  0  0
   -1.2295   -3.6367   -2.3736 C   0  0  0  0  0  0  0  0  0  0  0  0
   -2.1615   -2.6611   -2.9848 C   0  0  0  0  0  0  0  0  0  0  0  0
   -3.0182   -2.9906   -3.9608 C   0  0  0  0  0  0  0  0  0  0  0  0
   -3.9800   -2.0151   -4.5231 C   0  0  0  0  0  0  0  0  0  0  0  0
   -4.2570   -0.4617   -3.9168 S   0  0  0  0  0  0  0  0  0  0  0  0
   -5.4644   -0.0572   -5.0049 C   0  0  0  0  0  0  0  0  0  0  0  0
   -6.1544    1.1962   -5.0353 N   0  0  0  0  0  4  0  0  0  0  0  0
   -5.8409    2.1795   -4.1268 O   0  0  0  0  0  1  0  0  0  0  0  0
   -7.0460    1.4067   -5.8820 O   0  0  0  0  0  0  0  0  0  0  0  0
   -5.6872   -1.1271   -5.8619 C   0  0  0  0  0  0  0  0  0  0  0  0
   -4.8549   -2.2359   -5.5982 C   0  0  0  0  0  0  0  0  0  0  0  0
   -4.8705   -3.4873   -6.3947 C   0  0  0  0  0  0  0  0  0  0  0  0
   -5.8918   -3.8452   -7.1734 C   0  0  0  0  0  0  0  0  0  0  0  0
    2.0260   -1.9431    0.0688 H   0  0  0  0  0  0  0  0  0  0  0  0
    6.2542   -2.2230    1.0476 H   0  0  0  0  0  0  0  0  0  0  0  0
    3.8547   -2.0362   -1.9407 H   0  0  0  0  0  0  0  0  0  0  0  0
    5.7519   -0.8710   -2.6868 H   0  0  0  0  0  0  0  0  0  0  0  0
    7.4883    1.9959    1.5942 H   0  0  0  0  0  0  0  0  0  0  0  0
    4.1009    0.7291    0.0808 H   0  0  0  0  0  0  0  0  0  0  0  0
    5.4427    2.0369    2.4874 H   0  0  0  0  0  0  0  0  0  0  0  0
    2.9480    2.5508   -0.4638 H   0  0  0  0  0  0  0  0  0  0  0  0
    2.2970    1.8783   -2.7509 H   0  0  0  0  0  0  0  0  0  0  0  0
    2.4712    3.6847   -2.5634 H   0  0  0  0  0  0  0  0  0  0  0  0
    1.3806    3.0033   -3.8298 H   0  0  0  0  0  0  0  0  0  0  0  0
   -2.9644    1.6800    0.6597 H   0  0  0  0  0  0  0  0  0  0  0  0
   -3.0272    3.4651    1.0299 H   0  0  0  0  0  0  0  0  0  0  0  0
   -3.6726    2.8303   -0.5331 H   0  0  0  0  0  0  0  0  0  0  0  0
   -1.1893    2.6481    2.2914 H   0  0  0  0  0  0  0  0  0  0  0  0
    0.3911    2.8697    5.5873 H   0  0  0  0  0  0  0  0  0  0  0  0
   -1.6122    1.6061    5.6227 H   0  0  0  0  0  0  0  0  0  0  0  0
   -3.6261    1.6803    4.2068 H   0  0  0  0  0  0  0  0  0  0  0  0
   -7.2226    2.6910    3.8630 H   0  0  0  0  0  0  0  0  0  0  0  0
   -5.9519    2.0111    4.9452 H   0  0  0  0  0  0  0  0  0  0  0  0
   -5.5003    3.1564    3.6090 H   0  0  0  0  0  0  0  0  0  0  0  0
   -5.9367   -2.8520    0.6815 H   0  0  0  0  0  0  0  0  0  0  0  0
   -5.4738   -1.6596   -0.6214 H   0  0  0  0  0  0  0  0  0  0  0  0
   -7.2072   -1.8602   -0.1401 H   0  0  0  0  0  0  0  0  0  0  0  0
   -3.6418   -2.1080    0.9788 H   0  0  0  0  0  0  0  0  0  0  0  0
   -0.0859   -3.2909    1.5517 H   0  0  0  0  0  0  0  0  0  0  0  0
   -1.8068   -1.6992   -0.4016 H   0  0  0  0  0  0  0  0  0  0  0  0
   -0.9247   -4.9868   -4.0912 H   0  0  0  0  0  0  0  0  0  0  0  0
   -2.1686   -1.6540   -2.5938 H   0  0  0  0  0  0  0  0  0  0  0  0
   -3.0363   -4.0074   -4.3274 H   0  0  0  0  0  0  0  0  0  0  0  0
   -6.4061   -1.0857   -6.6671 H   0  0  0  0  0  0  0  0  0  0  0  0
   -4.0174   -4.1533   -6.3468 H   0  0  0  0  0  0  0  0  0  0  0  0
   -6.7940   -3.2507   -7.2504 H   0  0  0  0  0  0  0  0  0  0  0  0
   -5.8399   -4.7720   -7.7312 H   0  0  0  0  0  0  0  0  0  0  0  0
  1  2  1  0
  2  3  1  0
  3  4  1  0
  4  5  1  0
  4  6  2  0
  3  7  2  0
  7  8  1  0
  8  9  1  0
  9 10  2  3
 10 11  1  0
 11 12  1  0
 12 13  1  0
 13 14  1  0
 14 15  1  0
 14 16  2  0
 13 17  2  0
 17 18  1  0
 18 19  1  0
 19 20  2  3
 20 21  1  0
 21 22  1  0
 21 23  2  0
 23 24  1  0
 24 25  2  0
 25 26  1  0
 26 27  1  0
 25 28  1  0
 28 29  1  0
 29 30  1  0
 28 31  2  0
 31 32  1  0
 32 33  2  0
 33 34  1  0
 34 35  2  3
 35 36  1  0
 36 37  1  0
 36 38  2  0
 38 39  1  0
 39 40  2  0
 40 41  1  0
 41 42  1  0
 40 43  1  0
 43 44  1  0
 44 45  1  0
 43 46  2  0
 46 47  1  0
 47 48  2  0
 48 49  1  0
 49 50  2  3
 50 51  1  0
 51 52  1  0
 52 53  1  0
 53 54  1  0
 54 55  1  0
 54 56  2  0
 53 57  2  0
 57 58  1  0
 58 59  1  0
 59 60  2  3
 60 61  1  0
 61 62  1  0
 62 63  1  0
 63 64  1  0
 64 65  1  0
 64 66  2  0
 63 67  2  0
 67 68  1  0
 68 69  1  0
 69 70  2  3
  8  1  2  0
 18 11  2  0
 33 22  1  0
 48 37  1  0
 58 51  2  0
 68 61  2  0
 32 23  1  0
 47 38  1  0
  1 71  1  0
  7 72  1  0
  9 73  1  0
 10 74  1  0
 17 75  1  0
 19 76  1  0
 20 77  1  0
 24 78  1  0
 27 79  1  0
 27 80  1  0
 27 81  1  0
 30 82  1  0
 30 83  1  0
 30 84  1  0
 31 85  1  0
 34 86  1  0
 35 87  1  0
 39 88  1  0
 42 89  1  0
 42 90  1  0
 42 91  1  0
 45 92  1  0
 45 93  1  0
 45 94  1  0
 46 95  1  0
 49 96  1  0
 50 97  1  0
 57 98  1  0
 59 99  1  0
 60100  1  0
 67101  1  0
 69102  1  0
 70103  1  0
 70104  1  0
M  CHG  8   4   1   5  -1  14   1  15  -1  54   1  55  -1  64   1  65  -1
M  END

