
     RDKit          3D

 92103  0  0  0  0  0  0  0  0999 V2000
    6.8188    2.7800   -2.0572 C   0  0  0  0  0  0  0  0  0  0  0  0
    6.0497    2.9300   -3.5505 S   0  0  0  0  0  0  0  0  0  0  0  0
    7.3283    1.4891   -1.9751 C   0  0  0  0  0  0  0  0  0  0  0  0
    8.1081    1.0055   -0.9240 C   0  0  0  0  0  0  0  0  0  0  0  0
    8.6276   -0.3061   -0.9933 C   0  0  0  0  0  0  0  0  0  0  0  0
    9.4476   -0.8340    0.0195 O   0  0  0  0  0  0  0  0  0  0  0  0
    9.9329   -0.0955    1.1379 C   0  0  0  0  0  0  0  0  0  0  0  0
    8.3328   -1.1209   -2.1079 C   0  0  0  0  0  0  0  0  0  0  0  0
    8.8428   -2.4301   -2.1268 O   0  0  0  0  0  0  0  0  0  0  0  0
    8.5960   -3.3756   -3.1637 C   0  0  0  0  0  0  0  0  0  0  0  0
    7.5510   -0.6128   -3.1686 C   0  0  0  0  0  0  0  0  0  0  0  0
    7.0466    0.6876   -3.0904 C   0  0  0  0  0  0  0  0  0  0  0  0
    6.3127    1.3476   -4.0766 C   0  0  0  0  0  0  0  0  0  0  0  0
    5.9834    0.8462   -5.4216 C   0  0  0  0  0  0  0  0  0  0  0  0
    5.2875   -0.2776   -5.6429 C   0  0  0  0  0  0  0  0  0  0  0  0
    4.5349   -0.9974   -4.5964 C   0  0  0  0  0  0  0  0  0  0  0  0
    3.5263   -0.2674   -3.4629 S   0  0  0  0  0  0  0  0  0  0  0  0
    4.3417   -2.3761   -4.5119 C   0  0  0  0  0  0  0  0  0  0  0  0
    4.9867   -3.3374   -5.2946 C   0  0  0  0  0  0  0  0  0  0  0  0
    4.6624   -4.7014   -5.1292 C   0  0  0  0  0  0  0  0  0  0  0  0
    5.2681   -5.7018   -5.9026 O   0  0  0  0  0  0  0  0  0  0  0  0
    6.2288   -5.4625   -6.9289 C   0  0  0  0  0  0  0  0  0  0  0  0
    3.7027   -5.0886   -4.1731 C   0  0  0  0  0  0  0  0  0  0  0  0
    3.3898   -6.4533   -4.0639 O   0  0  0  0  0  0  0  0  0  0  0  0
    2.4669   -6.9904   -3.1241 C   0  0  0  0  0  0  0  0  0  0  0  0
    3.0854   -4.1120   -3.3626 C   0  0  0  0  0  0  0  0  0  0  0  0
    3.4116   -2.7612   -3.5313 C   0  0  0  0  0  0  0  0  0  0  0  0
    2.8475   -1.6859   -2.8390 C   0  0  0  0  0  0  0  0  0  0  0  0
    1.8273   -1.7639   -1.7737 C   0  0  0  0  0  0  0  0  0  0  0  0
    1.0204   -0.7330   -1.4904 C   0  0  0  0  0  0  0  0  0  0  0  0
   -0.0135   -0.8352   -0.4534 C   0  0  0  0  0  0  0  0  0  0  0  0
   -0.9764    0.0448   -0.2357 C   0  0  0  0  0  0  0  0  0  0  0  0
   -1.8260   -0.3807    0.7966 C   0  0  0  0  0  0  0  0  0  0  0  0
   -1.2829   -1.6443    1.2353 C   0  0  0  0  0  0  0  0  0  0  0  0
   -1.7542   -2.4134    2.1117 O   0  0  0  0  0  0  0  0  0  0  0  0
   -0.1542   -1.9069    0.4508 O   0  0  0  0  0  0  0  0  0  0  0  0
   -2.8588    0.4415    0.9265 C   0  0  0  0  0  0  0  0  0  0  0  0
   -2.7369    1.4856   -0.0109 O   0  0  0  0  0  0  0  0  0  0  0  0
   -1.5649    1.2563   -0.7464 C   0  0  0  0  0  0  0  0  0  0  0  0
   -1.1517    1.9590   -1.7094 O   0  0  0  0  0  0  0  0  0  0  0  0
   -3.9669    0.2947    1.8791 C   0  0  0  0  0  0  0  0  0  0  0  0
   -5.0858    1.0107    1.8892 C   0  0  0  0  0  0  0  0  0  0  0  0
   -5.9267    0.6182    2.9392 C   0  0  0  0  0  0  0  0  0  0  0  0
   -5.2184   -0.4462    3.6078 C   0  0  0  0  0  0  0  0  0  0  0  0
   -5.5940   -1.0875    4.6208 O   0  0  0  0  0  0  0  0  0  0  0  0
   -4.0018   -0.6332    2.9395 O   0  0  0  0  0  0  0  0  0  0  0  0
   -7.0518    1.3160    2.9349 C   0  0  0  0  0  0  0  0  0  0  0  0
   -7.0190    2.2331    1.8678 O   0  0  0  0  0  0  0  0  0  0  0  0
   -5.7985    2.0622    1.2068 C   0  0  0  0  0  0  0  0  0  0  0  0
   -5.4268    2.7039    0.1897 O   0  0  0  0  0  0  0  0  0  0  0  0
   -8.1593    1.1737    3.8780 C   0  0  0  0  0  0  0  0  0  0  0  0
   -9.2686    1.9054    3.8936 C   0  0  0  0  0  0  0  0  0  0  0  0
  -10.0681    1.5821    5.0038 C   0  0  0  0  0  0  0  0  0  0  0  0
   -9.3602    0.5125    5.6788 C   0  0  0  0  0  0  0  0  0  0  0  0
   -9.6921   -0.0750    6.7406 O   0  0  0  0  0  0  0  0  0  0  0  0
   -8.1827    0.2714    4.9584 O   0  0  0  0  0  0  0  0  0  0  0  0
  -11.0746    2.4388    5.1345 C   0  0  0  0  0  0  0  0  0  0  0  0
  -11.0345    3.3597    4.0702 O   0  0  0  0  0  0  0  0  0  0  0  0
   -9.9090    3.0515    3.2939 C   0  0  0  0  0  0  0  0  0  0  0  0
   -9.5297    3.6898    2.2790 O   0  0  0  0  0  0  0  0  0  0  0  0
  -12.0397    2.4738    6.2435 C   0  0  0  0  0  0  0  0  0  0  0  0
  -13.0065    3.3674    6.4089 C   0  0  0  0  0  0  0  0  0  0  0  0
  -13.6971    3.1412    7.6141 C   0  0  0  0  0  0  0  0  0  0  0  0
  -13.0765    1.9771    8.1982 C   0  0  0  0  0  0  0  0  0  0  0  0
  -13.3737    1.4226    9.2891 O   0  0  0  0  0  0  0  0  0  0  0  0
  -12.0525    1.5736    7.3307 O   0  0  0  0  0  0  0  0  0  0  0  0
  -14.6288    4.0594    7.8238 C   0  0  0  0  0  0  0  0  0  0  0  0
  -14.6156    4.9623    6.7407 O   0  0  0  0  0  0  0  0  0  0  0  0
  -13.6152    4.5499    5.8484 C   0  0  0  0  0  0  0  0  0  0  0  0
  -13.3254    5.1245    4.7649 O   0  0  0  0  0  0  0  0  0  0  0  0
    6.9289    3.5596   -1.3133 H   0  0  0  0  0  0  0  0  0  0  0  0
    8.3254    1.6537   -0.0879 H   0  0  0  0  0  0  0  0  0  0  0  0
   10.5639    0.7469    0.7834 H   0  0  0  0  0  0  0  0  0  0  0  0
   10.5519   -0.7612    1.7765 H   0  0  0  0  0  0  0  0  0  0  0  0
    9.0838    0.2980    1.7400 H   0  0  0  0  0  0  0  0  0  0  0  0
    9.0823   -4.3341   -2.9045 H   0  0  0  0  0  0  0  0  0  0  0  0
    7.5045   -3.5550   -3.2730 H   0  0  0  0  0  0  0  0  0  0  0  0
    9.0120   -3.0082   -4.1244 H   0  0  0  0  0  0  0  0  0  0  0  0
    7.3565   -1.2184   -4.0440 H   0  0  0  0  0  0  0  0  0  0  0  0
    6.3865    1.3886   -6.2686 H   0  0  0  0  0  0  0  0  0  0  0  0
    5.2331   -0.6543   -6.6567 H   0  0  0  0  0  0  0  0  0  0  0  0
    5.7266   -3.0274   -6.0144 H   0  0  0  0  0  0  0  0  0  0  0  0
    5.7848   -4.8424   -7.7340 H   0  0  0  0  0  0  0  0  0  0  0  0
    7.1247   -4.9546   -6.5086 H   0  0  0  0  0  0  0  0  0  0  0  0
    6.5380   -6.4345   -7.3588 H   0  0  0  0  0  0  0  0  0  0  0  0
    2.4112   -8.0874   -3.2661 H   0  0  0  0  0  0  0  0  0  0  0  0
    1.4569   -6.5587   -3.2870 H   0  0  0  0  0  0  0  0  0  0  0  0
    2.8075   -6.7766   -2.0880 H   0  0  0  0  0  0  0  0  0  0  0  0
    2.3409   -4.3936   -2.6442 H   0  0  0  0  0  0  0  0  0  0  0  0
    1.7107   -2.6933   -1.2337 H   0  0  0  0  0  0  0  0  0  0  0  0
    1.0918    0.1883   -2.0543 H   0  0  0  0  0  0  0  0  0  0  0  0
  -15.2891    4.1188    8.6776 H   0  0  0  0  0  0  0  0  0  0  0  0
  1  2  1  0
  1  3  2  0
  3  4  1  0
  4  5  2  0
  5  6  1  0
  6  7  1  0
  5  8  1  0
  8  9  1  0
  9 10  1  0
  8 11  2  0
 11 12  1  0
 12 13  2  0
 13 14  1  0
 14 15  2  3
 15 16  1  0
 16 17  1  0
 16 18  2  0
 18 19  1  0
 19 20  2  0
 20 21  1  0
 21 22  1  0
 20 23  1  0
 23 24  1  0
 24 25  1  0
 23 26  2  0
 26 27  1  0
 27 28  2  0
 28 29  1  0
 29 30  2  3
 30 31  1  0
 31 32  2  0
 32 33  1  0
 33 34  1  0
 34 35  2  0
 34 36  1  0
 33 37  2  0
 37 38  1  0
 38 39  1  0
 39 40  2  0
 37 41  1  0
 41 42  2  0
 42 43  1  0
 43 44  1  0
 44 45  2  0
 44 46  1  0
 43 47  2  0
 47 48  1  0
 48 49  1  0
 49 50  2  0
 47 51  1  0
 51 52  2  0
 52 53  1  0
 53 54  1  0
 54 55  2  0
 54 56  1  0
 53 57  2  0
 57 58  1  0
 58 59  1  0
 59 60  2  0
 57 61  1  0
 61 62  2  0
 62 63  1  0
 63 64  1  0
 64 65  2  0
 64 66  1  0
 63 67  2  0
 67 68  1  0
 68 69  1  0
 69 70  2  0
 13  2  1  0
 28 17  1  0
 36 31  1  0
 46 41  1  0
 56 51  1  0
 66 61  1  0
 12  3  1  0
 27 18  1  0
 39 32  1  0
 49 42  1  0
 59 52  1  0
 69 62  1  0
  1 71  1  0
  4 72  1  0
  7 73  1  0
  7 74  1  0
  7 75  1  0
 10 76  1  0
 10 77  1  0
 10 78  1  0
 11 79  1  0
 14 80  1  0
 15 81  1  0
 19 82  1  0
 22 83  1  0
 22 84  1  0
 22 85  1  0
 25 86  1  0
 25 87  1  0
 25 88  1  0
 26 89  1  0
 29 90  1  0
 30 91  1  0
 67 92  1  0
M  END

