
     RDKit          3D

100107  0  0  0  0  0  0  0  0999 V2000
    4.3940    5.3693   -4.4154 C   0  0  0  0  0  0  0  0  0  0  0  0
    4.5518    3.6883   -4.4944 S   0  0  0  0  0  0  0  0  0  0  0  0
    3.5034    5.6581   -3.3882 C   0  0  0  0  0  0  0  0  0  0  0  0
    3.0711    6.9373   -3.0349 C   0  0  0  0  0  0  0  0  0  0  0  0
    2.1330    7.0817   -1.9778 C   0  0  0  0  0  0  0  0  0  0  0  0
    1.6704    8.3415   -1.5568 O   0  0  0  0  0  0  0  0  0  0  0  0
    2.1896    9.5884   -2.0121 C   0  0  0  0  0  0  0  0  0  0  0  0
    1.6391    5.9340   -1.3084 C   0  0  0  0  0  0  0  0  0  0  0  0
    0.7101    6.1144   -0.2716 O   0  0  0  0  0  0  0  0  0  0  0  0
    0.0857    5.0649    0.4698 C   0  0  0  0  0  0  0  0  0  0  0  0
    2.0828    4.6534   -1.6901 C   0  0  0  0  0  0  0  0  0  0  0  0
    3.0199    4.5238   -2.7162 C   0  0  0  0  0  0  0  0  0  0  0  0
    3.5081    3.3252   -3.2214 C   0  0  0  0  0  0  0  0  0  0  0  0
    3.1477    1.9903   -2.7326 C   0  0  0  0  0  0  0  0  0  0  0  0
    2.4404    1.1482   -3.4825 C   0  0  0  0  0  0  0  0  0  0  0  0
    1.7943   -0.0388   -2.8956 C   0  0  0  0  0  0  0  0  0  0  0  0
    2.2340   -0.7878   -1.4521 S   0  0  0  0  0  0  0  0  0  0  0  0
    0.6298   -0.6602   -3.3654 C   0  0  0  0  0  0  0  0  0  0  0  0
   -0.0865   -0.2988   -4.5089 C   0  0  0  0  0  0  0  0  0  0  0  0
   -1.3010   -0.9520   -4.8137 C   0  0  0  0  0  0  0  0  0  0  0  0
   -2.0263   -0.6136   -5.9665 O   0  0  0  0  0  0  0  0  0  0  0  0
   -1.6068    0.3244   -6.9550 C   0  0  0  0  0  0  0  0  0  0  0  0
   -1.7858   -1.9795   -3.9508 C   0  0  0  0  0  0  0  0  0  0  0  0
   -3.0078   -2.6484   -4.1500 O   0  0  0  0  0  0  0  0  0  0  0  0
   -4.0748   -2.1907   -4.9791 C   0  0  0  0  0  0  0  0  0  0  0  0
   -1.0378   -2.3532   -2.8212 C   0  0  0  0  0  0  0  0  0  0  0  0
    0.1673   -1.6976   -2.5370 C   0  0  0  0  0  0  0  0  0  0  0  0
    0.9753   -1.9161   -1.4191 C   0  0  0  0  0  0  0  0  0  0  0  0
    0.7639   -2.9255   -0.3682 C   0  0  0  0  0  0  0  0  0  0  0  0
    1.3068   -2.8019    0.8496 C   0  0  0  0  0  0  0  0  0  0  0  0
    1.0328   -3.7599    1.9380 C   0  0  0  0  0  0  0  0  0  0  0  0
    0.9214   -3.3870    3.1876 O   0  0  0  0  0  0  0  0  0  0  0  0
    0.5596   -4.4187    3.9218 C   0  0  0  0  0  0  0  0  0  0  0  0
    0.4532   -5.5412    3.1265 C   0  0  0  0  0  0  0  0  0  0  0  0
    0.7624   -5.1229    1.8532 C   0  0  0  0  0  0  0  0  0  0  0  0
    0.7963   -5.9603    0.6835 C   0  0  0  0  0  0  0  0  0  0  0  0
    0.8213   -6.6235   -0.2621 N   0  0  0  0  0  0  0  0  0  0  0  0
    0.1779   -4.3738    5.3540 C   0  0  0  0  0  0  0  0  0  0  0  0
    0.2775   -3.3180    6.1567 C   0  0  0  0  0  0  0  0  0  0  0  0
    0.9598   -2.0632    5.8246 C   0  0  0  0  0  0  0  0  0  0  0  0
    0.6981   -1.2963    4.7885 O   0  0  0  0  0  0  0  0  0  0  0  0
    1.5246   -0.2710    4.8153 C   0  0  0  0  0  0  0  0  0  0  0  0
    2.3501   -0.3533    5.9281 C   0  0  0  0  0  0  0  0  0  0  0  0
    1.9645   -1.4981    6.5822 C   0  0  0  0  0  0  0  0  0  0  0  0
    2.5066   -1.9875    7.8239 C   0  0  0  0  0  0  0  0  0  0  0  0
    2.9386   -2.3840    8.8213 N   0  0  0  0  0  0  0  0  0  0  0  0
    1.5755    0.8413    3.8357 C   0  0  0  0  0  0  0  0  0  0  0  0
    0.6247    1.1587    2.9472 C   0  0  0  0  0  0  0  0  0  0  0  0
   -0.6075    0.4037    2.6805 C   0  0  0  0  0  0  0  0  0  0  0  0
   -0.6653   -0.8924    2.4629 O   0  0  0  0  0  0  0  0  0  0  0  0
   -1.9003   -1.2041    2.1362 C   0  0  0  0  0  0  0  0  0  0  0  0
   -2.6939   -0.0674    2.1449 C   0  0  0  0  0  0  0  0  0  0  0  0
   -1.8537    0.9658    2.4915 C   0  0  0  0  0  0  0  0  0  0  0  0
   -2.2173    2.3606    2.5931 C   0  0  0  0  0  0  0  0  0  0  0  0
   -2.5161    3.4743    2.6802 N   0  0  0  0  0  0  0  0  0  0  0  0
   -2.3279   -2.5687    1.7874 C   0  0  0  0  0  0  0  0  0  0  0  0
   -3.4951   -2.8312    1.2035 C   0  0  0  0  0  0  0  0  0  0  0  0
   -3.8007   -4.1861    0.7101 C   0  0  0  0  0  0  0  0  0  0  0  0
   -3.0556   -5.2490    0.9306 O   0  0  0  0  0  0  0  0  0  0  0  0
   -3.5939   -6.2732    0.2997 C   0  0  0  0  0  0  0  0  0  0  0  0
   -4.7407   -5.8813   -0.3590 C   0  0  0  0  0  0  0  0  0  0  0  0
   -4.8799   -4.5426   -0.0800 C   0  0  0  0  0  0  0  0  0  0  0  0
   -5.9206   -3.6810   -0.5888 C   0  0  0  0  0  0  0  0  0  0  0  0
   -6.7587   -2.9854   -0.9979 N   0  0  0  0  0  0  0  0  0  0  0  0
   -3.0451   -7.6412    0.2869 C   0  0  0  0  0  0  0  0  0  0  0  0
   -2.0897   -8.0187    1.1200 C   0  0  0  0  0  0  0  0  0  0  0  0
    4.8820    6.0876   -5.0671 H   0  0  0  0  0  0  0  0  0  0  0  0
    3.4609    7.7962   -3.5698 H   0  0  0  0  0  0  0  0  0  0  0  0
    3.2709    9.6619   -1.7791 H   0  0  0  0  0  0  0  0  0  0  0  0
    1.6572   10.4124   -1.4834 H   0  0  0  0  0  0  0  0  0  0  0  0
    2.0329    9.6994   -3.1099 H   0  0  0  0  0  0  0  0  0  0  0  0
    0.8487    4.4617    0.9929 H   0  0  0  0  0  0  0  0  0  0  0  0
   -0.5294    4.4258   -0.1977 H   0  0  0  0  0  0  0  0  0  0  0  0
   -0.5790    5.5231    1.2359 H   0  0  0  0  0  0  0  0  0  0  0  0
    1.6970    3.7727   -1.1984 H   0  0  0  0  0  0  0  0  0  0  0  0
    3.2600    1.8093   -1.6686 H   0  0  0  0  0  0  0  0  0  0  0  0
    2.2429    1.3992   -4.5187 H   0  0  0  0  0  0  0  0  0  0  0  0
    0.2868    0.4817   -5.1566 H   0  0  0  0  0  0  0  0  0  0  0  0
   -0.6479   -0.0044   -7.4020 H   0  0  0  0  0  0  0  0  0  0  0  0
   -2.3755    0.3750   -7.7516 H   0  0  0  0  0  0  0  0  0  0  0  0
   -1.4882    1.3302   -6.5096 H   0  0  0  0  0  0  0  0  0  0  0  0
   -4.3155   -1.1187   -4.7566 H   0  0  0  0  0  0  0  0  0  0  0  0
   -4.9823   -2.7858   -4.7682 H   0  0  0  0  0  0  0  0  0  0  0  0
   -3.8170   -2.3256   -6.0473 H   0  0  0  0  0  0  0  0  0  0  0  0
   -1.4237   -3.1252   -2.1639 H   0  0  0  0  0  0  0  0  0  0  0  0
    0.1007   -3.7504   -0.5730 H   0  0  0  0  0  0  0  0  0  0  0  0
    1.8619   -1.9076    1.1012 H   0  0  0  0  0  0  0  0  0  0  0  0
    0.1353   -6.5267    3.4228 H   0  0  0  0  0  0  0  0  0  0  0  0
   -0.2677   -5.2701    5.7764 H   0  0  0  0  0  0  0  0  0  0  0  0
   -0.0169   -3.4487    7.1850 H   0  0  0  0  0  0  0  0  0  0  0  0
    3.1071    0.3547    6.2480 H   0  0  0  0  0  0  0  0  0  0  0  0
    2.4163    1.5257    3.9117 H   0  0  0  0  0  0  0  0  0  0  0  0
    0.7515    2.0844    2.3984 H   0  0  0  0  0  0  0  0  0  0  0  0
   -3.7525    0.0064    1.9119 H   0  0  0  0  0  0  0  0  0  0  0  0
   -1.6247   -3.3654    1.9488 H   0  0  0  0  0  0  0  0  0  0  0  0
   -4.2177   -2.0424    1.0233 H   0  0  0  0  0  0  0  0  0  0  0  0
   -5.3911   -6.4934   -0.9742 H   0  0  0  0  0  0  0  0  0  0  0  0
   -3.4324   -8.3515   -0.4262 H   0  0  0  0  0  0  0  0  0  0  0  0
   -1.6897   -7.3376    1.8560 H   0  0  0  0  0  0  0  0  0  0  0  0
   -1.6965   -9.0292    1.0775 H   0  0  0  0  0  0  0  0  0  0  0  0
  1  2  1  0
  1  3  2  0
  3  4  1  0
  4  5  2  0
  5  6  1  0
  6  7  1  0
  5  8  1  0
  8  9  1  0
  9 10  1  0
  8 11  2  0
 11 12  1  0
 12 13  2  0
 13 14  1  0
 14 15  2  3
 15 16  1  0
 16 17  1  0
 16 18  2  0
 18 19  1  0
 19 20  2  0
 20 21  1  0
 21 22  1  0
 20 23  1  0
 23 24  1  0
 24 25  1  0
 23 26  2  0
 26 27  1  0
 27 28  2  0
 28 29  1  0
 29 30  2  3
 30 31  1  0
 31 32  1  0
 32 33  1  0
 33 34  2  0
 34 35  1  0
 35 36  1  0
 36 37  3  0
 33 38  1  0
 38 39  2  3
 39 40  1  0
 40 41  1  0
 41 42  1  0
 42 43  2  0
 43 44  1  0
 44 45  1  0
 45 46  3  0
 42 47  1  0
 47 48  2  3
 48 49  1  0
 49 50  1  0
 50 51  1  0
 51 52  2  0
 52 53  1  0
 53 54  1  0
 54 55  3  0
 51 56  1  0
 56 57  2  3
 57 58  1  0
 58 59  1  0
 59 60  1  0
 60 61  2  0
 61 62  1  0
 62 63  1  0
 63 64  3  0
 60 65  1  0
 65 66  2  3
 13  2  1  0
 28 17  1  0
 35 31  2  0
 44 40  2  0
 53 49  2  0
 62 58  2  0
 12  3  1  0
 27 18  1  0
  1 67  1  0
  4 68  1  0
  7 69  1  0
  7 70  1  0
  7 71  1  0
 10 72  1  0
 10 73  1  0
 10 74  1  0
 11 75  1  0
 14 76  1  0
 15 77  1  0
 19 78  1  0
 22 79  1  0
 22 80  1  0
 22 81  1  0
 25 82  1  0
 25 83  1  0
 25 84  1  0
 26 85  1  0
 29 86  1  0
 30 87  1  0
 34 88  1  0
 38 89  1  0
 39 90  1  0
 43 91  1  0
 47 92  1  0
 48 93  1  0
 52 94  1  0
 56 95  1  0
 57 96  1  0
 61 97  1  0
 65 98  1  0
 66 99  1  0
 66100  1  0
M  END

