
     RDKit          3D

227253  0  0  0  0  0  0  0  0999 V2000
    2.8794   -8.2841   10.7782 C   0  0  0  0  0  0  0  0  0  0  0  0
    3.2613   -8.7031    9.5075 C   0  0  0  0  0  0  0  0  0  0  0  0
    2.3527   -8.3297    8.5057 C   0  0  0  0  0  0  0  0  0  0  0  0
    2.4848   -8.5742    7.1236 C   0  0  0  0  0  0  0  0  0  0  0  0
    3.6422   -9.2930    6.5648 C   0  0  0  0  0  0  0  0  0  0  0  0
    4.7775   -8.6124    5.5265 S   0  0  0  0  0  0  0  0  0  0  0  0
    5.7194   -9.9976    5.3579 C   0  0  0  0  0  0  0  0  0  0  0  0
    6.9135  -10.1059    4.4626 C   0  0  0  0  0  0  0  0  0  0  0  0
    6.5104  -10.6336    3.0894 C   0  0  0  0  0  0  0  0  0  0  0  0
    5.1381  -11.0255    6.1004 C   0  0  0  0  0  0  0  0  0  0  0  0
    5.7716  -12.6662    6.1504 Cl  0  0  0  0  0  0  0  0  0  0  0  0
    3.9759  -10.6270    6.7819 C   0  0  0  0  0  0  0  0  0  0  0  0
    3.0057  -11.7212    7.7597 Cl  0  0  0  0  0  0  0  0  0  0  0  0
    1.4757   -8.0650    6.2884 C   0  0  0  0  0  0  0  0  0  0  0  0
    0.3806   -7.3474    6.7816 C   0  0  0  0  0  0  0  0  0  0  0  0
    0.2513   -7.0941    8.1634 C   0  0  0  0  0  0  0  0  0  0  0  0
   -0.8681   -6.3033    8.7115 C   0  0  0  0  0  0  0  0  0  0  0  0
   -1.9983   -6.8761    9.8200 S   0  0  0  0  0  0  0  0  0  0  0  0
   -2.9050   -5.4617    9.9056 C   0  0  0  0  0  0  0  0  0  0  0  0
   -4.0795   -5.2572   10.8123 C   0  0  0  0  0  0  0  0  0  0  0  0
   -3.6348   -4.6682   12.1462 C   0  0  0  0  0  0  0  0  0  0  0  0
   -2.3168   -4.5063    9.0772 C   0  0  0  0  0  0  0  0  0  0  0  0
   -1.1780   -4.9783    8.4054 C   0  0  0  0  0  0  0  0  0  0  0  0
   -0.2068   -3.9719    7.3375 Cl  0  0  0  0  0  0  0  0  0  0  0  0
   -2.9279   -2.8665    8.8998 Cl  0  0  0  0  0  0  0  0  0  0  0  0
    1.2572   -7.6123    8.9985 C   0  0  0  0  0  0  0  0  0  0  0  0
    1.4236   -7.4426   10.6644 S   0  0  0  0  0  0  0  0  0  0  0  0
   -0.5116   -6.9478    5.7758 C   0  0  0  0  0  0  0  0  0  0  0  0
   -0.1064   -7.3344    4.4984 C   0  0  0  0  0  0  0  0  0  0  0  0
    1.3434   -8.1928    4.6127 S   0  0  0  0  0  0  0  0  0  0  0  0
   -0.7840   -6.9707    3.2447 C   0  0  0  0  0  0  0  0  0  0  0  0
   -1.8039   -6.0290    3.1335 C   0  0  0  0  0  0  0  0  0  0  0  0
   -2.1890   -5.7902    1.8071 C   0  0  0  0  0  0  0  0  0  0  0  0
   -3.1663   -4.8681    1.3828 C   0  0  0  0  0  0  0  0  0  0  0  0
   -3.8464   -3.9500    2.3227 C   0  0  0  0  0  0  0  0  0  0  0  0
   -5.5147   -3.7472    2.4258 S   0  0  0  0  0  0  0  0  0  0  0  0
   -5.4847   -2.4961    3.5463 C   0  0  0  0  0  0  0  0  0  0  0  0
   -6.6911   -1.7160    3.9694 C   0  0  0  0  0  0  0  0  0  0  0  0
   -6.8866   -0.5080    3.0595 C   0  0  0  0  0  0  0  0  0  0  0  0
   -4.1558   -2.1986    3.8422 C   0  0  0  0  0  0  0  0  0  0  0  0
   -3.6728   -0.9064    4.9311 Cl  0  0  0  0  0  0  0  0  0  0  0  0
   -3.2375   -3.0084    3.1552 C   0  0  0  0  0  0  0  0  0  0  0  0
   -1.4987   -2.7687    3.2617 Cl  0  0  0  0  0  0  0  0  0  0  0  0
   -3.4196   -4.8102    0.0028 C   0  0  0  0  0  0  0  0  0  0  0  0
   -2.7231   -5.5844   -0.9317 C   0  0  0  0  0  0  0  0  0  0  0  0
   -1.7515   -6.5152   -0.5029 C   0  0  0  0  0  0  0  0  0  0  0  0
   -1.0688   -7.4162   -1.4487 C   0  0  0  0  0  0  0  0  0  0  0  0
    0.5934   -7.4742   -1.7023 S   0  0  0  0  0  0  0  0  0  0  0  0
    0.5593   -8.7151   -2.8390 C   0  0  0  0  0  0  0  0  0  0  0  0
    1.7593   -9.2404   -3.5688 C   0  0  0  0  0  0  0  0  0  0  0  0
    1.9518   -8.4959   -4.8865 C   0  0  0  0  0  0  0  0  0  0  0  0
   -0.7656   -9.0908   -3.0505 C   0  0  0  0  0  0  0  0  0  0  0  0
   -1.6776   -8.3684   -2.2663 C   0  0  0  0  0  0  0  0  0  0  0  0
   -3.4107   -8.6737   -2.2804 Cl  0  0  0  0  0  0  0  0  0  0  0  0
   -1.2528  -10.3450   -4.1838 Cl  0  0  0  0  0  0  0  0  0  0  0  0
   -1.4983   -6.5788    0.8797 C   0  0  0  0  0  0  0  0  0  0  0  0
   -0.3838   -7.5383    1.7026 S   0  0  0  0  0  0  0  0  0  0  0  0
   -3.0501   -5.2659   -2.2653 C   0  0  0  0  0  0  0  0  0  0  0  0
   -4.0241   -4.2716   -2.3604 C   0  0  0  0  0  0  0  0  0  0  0  0
   -4.4482   -3.7659   -0.8110 S   0  0  0  0  0  0  0  0  0  0  0  0
   -4.4313   -3.5556   -3.5747 C   0  0  0  0  0  0  0  0  0  0  0  0
   -5.5230   -2.6939   -3.6328 C   0  0  0  0  0  0  0  0  0  0  0  0
   -5.4624   -1.7920   -4.7037 C   0  0  0  0  0  0  0  0  0  0  0  0
   -6.2966   -0.6707   -4.8690 C   0  0  0  0  0  0  0  0  0  0  0  0
   -7.4342   -0.4124   -3.9658 C   0  0  0  0  0  0  0  0  0  0  0  0
   -7.4802    0.8072   -2.8104 S   0  0  0  0  0  0  0  0  0  0  0  0
   -8.9891    0.4074   -2.1860 C   0  0  0  0  0  0  0  0  0  0  0  0
   -9.6102    1.0623   -0.9890 C   0  0  0  0  0  0  0  0  0  0  0  0
   -9.1198    0.3907    0.2874 C   0  0  0  0  0  0  0  0  0  0  0  0
   -9.4640   -0.7174   -2.8577 C   0  0  0  0  0  0  0  0  0  0  0  0
  -10.9798   -1.5174   -2.4623 Cl  0  0  0  0  0  0  0  0  0  0  0  0
   -8.5930   -1.1739   -3.8609 C   0  0  0  0  0  0  0  0  0  0  0  0
   -8.9269   -2.5782   -4.8673 Cl  0  0  0  0  0  0  0  0  0  0  0  0
   -5.8850    0.2888   -5.8057 C   0  0  0  0  0  0  0  0  0  0  0  0
   -4.7344    0.1429   -6.5868 C   0  0  0  0  0  0  0  0  0  0  0  0
   -3.9440   -1.0263   -6.4853 C   0  0  0  0  0  0  0  0  0  0  0  0
   -2.6867   -1.2049   -7.2486 C   0  0  0  0  0  0  0  0  0  0  0  0
   -1.3629   -0.1609   -7.2131 S   0  0  0  0  0  0  0  0  0  0  0  0
   -0.3978   -1.0441   -8.2676 C   0  0  0  0  0  0  0  0  0  0  0  0
    0.9803   -0.6405   -8.7047 C   0  0  0  0  0  0  0  0  0  0  0  0
    2.0004   -0.9417   -7.6118 C   0  0  0  0  0  0  0  0  0  0  0  0
   -1.0856   -2.1997   -8.6349 C   0  0  0  0  0  0  0  0  0  0  0  0
   -2.3691   -2.2863   -8.0698 C   0  0  0  0  0  0  0  0  0  0  0  0
   -3.4818   -3.6045   -8.4189 Cl  0  0  0  0  0  0  0  0  0  0  0  0
   -0.4180   -3.4353   -9.6954 Cl  0  0  0  0  0  0  0  0  0  0  0  0
   -4.3332   -1.9678   -5.5106 C   0  0  0  0  0  0  0  0  0  0  0  0
   -3.4104   -3.2299   -4.8764 S   0  0  0  0  0  0  0  0  0  0  0  0
   -4.4077    1.3138   -7.2961 C   0  0  0  0  0  0  0  0  0  0  0  0
   -5.2655    2.3858   -7.0306 C   0  0  0  0  0  0  0  0  0  0  0  0
   -6.4687    1.8529   -5.9748 S   0  0  0  0  0  0  0  0  0  0  0  0
   -4.8152    3.7885   -7.0565 C   0  0  0  0  0  0  0  0  0  0  0  0
   -4.7293    4.6840   -5.6430 S   0  0  0  0  0  0  0  0  0  0  0  0
   -3.5434    5.7918   -6.0908 C   0  0  0  0  0  0  0  0  0  0  0  0
   -3.2261    5.4989   -7.4307 C   0  0  0  0  0  0  0  0  0  0  0  0
   -3.9132    4.3731   -7.9471 C   0  0  0  0  0  0  0  0  0  0  0  0
   -3.6259    3.8892   -9.2271 C   0  0  0  0  0  0  0  0  0  0  0  0
   -2.6567    4.5326  -10.0062 C   0  0  0  0  0  0  0  0  0  0  0  0
   -2.2730    3.8873  -11.6369 S   0  0  0  0  0  0  0  0  0  0  0  0
   -1.9978    5.6759   -9.5196 C   0  0  0  0  0  0  0  0  0  0  0  0
   -1.0526    6.3224  -10.3155 O   0  0  0  0  0  0  0  0  0  0  0  0
   -2.2876    6.1632   -8.2342 C   0  0  0  0  0  0  0  0  0  0  0  0
   -2.6925    6.4558   -5.0672 C   0  0  0  0  0  0  0  0  0  0  0  0
   -2.7667    6.1395   -3.7061 C   0  0  0  0  0  0  0  0  0  0  0  0
   -1.6082    6.4615   -2.9822 C   0  0  0  0  0  0  0  0  0  0  0  0
   -1.3263    6.0383   -1.6685 C   0  0  0  0  0  0  0  0  0  0  0  0
   -2.3109    5.2790   -0.8684 C   0  0  0  0  0  0  0  0  0  0  0  0
   -2.1285    3.6800   -0.3725 S   0  0  0  0  0  0  0  0  0  0  0  0
   -3.5886    3.5758    0.4567 C   0  0  0  0  0  0  0  0  0  0  0  0
   -4.0235    2.3877    1.2620 C   0  0  0  0  0  0  0  0  0  0  0  0
   -3.4553    2.4559    2.6746 C   0  0  0  0  0  0  0  0  0  0  0  0
   -4.2388    4.8067    0.3674 C   0  0  0  0  0  0  0  0  0  0  0  0
   -5.7822    5.1469    1.1368 Cl  0  0  0  0  0  0  0  0  0  0  0  0
   -3.5271    5.7580   -0.3838 C   0  0  0  0  0  0  0  0  0  0  0  0
   -4.0894    7.4062   -0.6338 Cl  0  0  0  0  0  0  0  0  0  0  0  0
   -0.0131    6.2303   -1.2124 C   0  0  0  0  0  0  0  0  0  0  0  0
    0.9725    6.8669   -1.9791 C   0  0  0  0  0  0  0  0  0  0  0  0
    0.6711    7.3514   -3.2704 C   0  0  0  0  0  0  0  0  0  0  0  0
    1.6922    8.0181   -4.1025 C   0  0  0  0  0  0  0  0  0  0  0  0
    2.1923    7.5066   -5.6282 S   0  0  0  0  0  0  0  0  0  0  0  0
    3.2919    8.7532   -5.8885 C   0  0  0  0  0  0  0  0  0  0  0  0
    4.1473    8.8983   -7.1099 C   0  0  0  0  0  0  0  0  0  0  0  0
    5.5232    8.2807   -6.8854 C   0  0  0  0  0  0  0  0  0  0  0  0
    3.2968    9.5835   -4.7674 C   0  0  0  0  0  0  0  0  0  0  0  0
    2.3980    9.1755   -3.7705 C   0  0  0  0  0  0  0  0  0  0  0  0
    2.1499   10.0784   -2.2800 Cl  0  0  0  0  0  0  0  0  0  0  0  0
    4.3224   11.0045   -4.6198 Cl  0  0  0  0  0  0  0  0  0  0  0  0
   -0.6265    7.0906   -3.7548 C   0  0  0  0  0  0  0  0  0  0  0  0
   -1.1982    7.2084   -5.3305 S   0  0  0  0  0  0  0  0  0  0  0  0
    2.2546    6.7859   -1.4001 C   0  0  0  0  0  0  0  0  0  0  0  0
    2.2610    6.0748   -0.2011 C   0  0  0  0  0  0  0  0  0  0  0  0
    0.6950    5.5722    0.1590 S   0  0  0  0  0  0  0  0  0  0  0  0
    3.4458    5.5103    0.4465 C   0  0  0  0  0  0  0  0  0  0  0  0
    3.5456    4.1806    0.8325 C   0  0  0  0  0  0  0  0  0  0  0  0
    4.7981    3.8576    1.3638 C   0  0  0  0  0  0  0  0  0  0  0  0
    5.2180    2.5766    1.7741 C   0  0  0  0  0  0  0  0  0  0  0  0
    4.3303    1.4032    1.6785 C   0  0  0  0  0  0  0  0  0  0  0  0
    2.8396    1.2626    2.4480 S   0  0  0  0  0  0  0  0  0  0  0  0
    2.3888   -0.1796    1.7115 C   0  0  0  0  0  0  0  0  0  0  0  0
    1.0462   -0.8227    1.8686 C   0  0  0  0  0  0  0  0  0  0  0  0
    0.0840   -0.3453    0.7837 C   0  0  0  0  0  0  0  0  0  0  0  0
    3.3967   -0.5638    0.8298 C   0  0  0  0  0  0  0  0  0  0  0  0
    3.2933   -1.9841   -0.2028 Cl  0  0  0  0  0  0  0  0  0  0  0  0
    4.4881    0.3199    0.8147 C   0  0  0  0  0  0  0  0  0  0  0  0
    5.8562    0.1364   -0.2775 Cl  0  0  0  0  0  0  0  0  0  0  0  0
    6.5355    2.4625    2.2454 C   0  0  0  0  0  0  0  0  0  0  0  0
    7.4075    3.5523    2.3116 C   0  0  0  0  0  0  0  0  0  0  0  0
    6.9899    4.8317    1.8911 C   0  0  0  0  0  0  0  0  0  0  0  0
    7.8805    6.0000    1.9626 C   0  0  0  0  0  0  0  0  0  0  0  0
    9.2934    6.1894    1.0681 S   0  0  0  0  0  0  0  0  0  0  0  0
    9.7066    7.6896    1.7064 C   0  0  0  0  0  0  0  0  0  0  0  0
   10.8926    8.5012    1.2806 C   0  0  0  0  0  0  0  0  0  0  0  0
   10.5213    9.4380    0.1349 C   0  0  0  0  0  0  0  0  0  0  0  0
    8.7269    8.0704    2.6213 C   0  0  0  0  0  0  0  0  0  0  0  0
    7.7047    7.1210    2.7701 C   0  0  0  0  0  0  0  0  0  0  0  0
    6.3681    7.3123    3.8988 Cl  0  0  0  0  0  0  0  0  0  0  0  0
    8.7655    9.5869    3.5089 Cl  0  0  0  0  0  0  0  0  0  0  0  0
    5.6738    4.9469    1.4072 C   0  0  0  0  0  0  0  0  0  0  0  0
    4.9077    6.3007    0.7465 S   0  0  0  0  0  0  0  0  0  0  0  0
    8.6597    3.2188    2.8513 C   0  0  0  0  0  0  0  0  0  0  0  0
    8.7691    1.8768    3.1993 C   0  0  0  0  0  0  0  0  0  0  0  0
    7.3143    1.0975    2.8486 S   0  0  0  0  0  0  0  0  0  0  0  0
    3.4385   -8.4554   11.6892 H   0  0  0  0  0  0  0  0  0  0  0  0
    4.1782   -9.2472    9.3220 H   0  0  0  0  0  0  0  0  0  0  0  0
    7.3818   -9.1038    4.3486 H   0  0  0  0  0  0  0  0  0  0  0  0
    7.6663  -10.7867    4.9172 H   0  0  0  0  0  0  0  0  0  0  0  0
    6.0556  -11.6435    3.1818 H   0  0  0  0  0  0  0  0  0  0  0  0
    5.7818   -9.9435    2.6125 H   0  0  0  0  0  0  0  0  0  0  0  0
    7.4090  -10.7094    2.4443 H   0  0  0  0  0  0  0  0  0  0  0  0
   -4.5814   -6.2319   10.9913 H   0  0  0  0  0  0  0  0  0  0  0  0
   -4.8156   -4.5783   10.3307 H   0  0  0  0  0  0  0  0  0  0  0  0
   -2.9384   -5.3652   12.6587 H   0  0  0  0  0  0  0  0  0  0  0  0
   -3.1288   -3.6912   11.9908 H   0  0  0  0  0  0  0  0  0  0  0  0
   -4.5195   -4.5097   12.7952 H   0  0  0  0  0  0  0  0  0  0  0  0
   -1.4194   -6.3953    5.9695 H   0  0  0  0  0  0  0  0  0  0  0  0
   -2.2360   -5.5199    3.9829 H   0  0  0  0  0  0  0  0  0  0  0  0
   -7.5886   -2.3677    3.9057 H   0  0  0  0  0  0  0  0  0  0  0  0
   -6.5790   -1.3791    5.0223 H   0  0  0  0  0  0  0  0  0  0  0  0
   -6.0668    0.2243    3.2071 H   0  0  0  0  0  0  0  0  0  0  0  0
   -6.9005   -0.8280    1.9985 H   0  0  0  0  0  0  0  0  0  0  0  0
   -7.8510   -0.0137    3.2945 H   0  0  0  0  0  0  0  0  0  0  0  0
    2.6655   -9.1099   -2.9378 H   0  0  0  0  0  0  0  0  0  0  0  0
    1.6300  -10.3272   -3.7684 H   0  0  0  0  0  0  0  0  0  0  0  0
    2.8374   -8.9040   -5.4168 H   0  0  0  0  0  0  0  0  0  0  0  0
    2.1190   -7.4144   -4.6938 H   0  0  0  0  0  0  0  0  0  0  0  0
    1.0620   -8.6196   -5.5381 H   0  0  0  0  0  0  0  0  0  0  0  0
   -2.5674   -5.7042   -3.1273 H   0  0  0  0  0  0  0  0  0  0  0  0
   -6.2690   -2.6395   -2.8486 H   0  0  0  0  0  0  0  0  0  0  0  0
  -10.7167    1.0007   -1.0468 H   0  0  0  0  0  0  0  0  0  0  0  0
   -9.3248    2.1373   -0.9690 H   0  0  0  0  0  0  0  0  0  0  0  0
   -9.5524    0.9008    1.1719 H   0  0  0  0  0  0  0  0  0  0  0  0
   -9.4198   -0.6783    0.3059 H   0  0  0  0  0  0  0  0  0  0  0  0
   -8.0129    0.4619    0.3452 H   0  0  0  0  0  0  0  0  0  0  0  0
    0.9891    0.4513   -8.9186 H   0  0  0  0  0  0  0  0  0  0  0  0
    1.2657   -1.1781   -9.6353 H   0  0  0  0  0  0  0  0  0  0  0  0
    2.0495   -2.0347   -7.4232 H   0  0  0  0  0  0  0  0  0  0  0  0
    3.0041   -0.5925   -7.9329 H   0  0  0  0  0  0  0  0  0  0  0  0
    1.7338   -0.4127   -6.6707 H   0  0  0  0  0  0  0  0  0  0  0  0
   -3.4977    1.4312   -7.8634 H   0  0  0  0  0  0  0  0  0  0  0  0
   -4.1457    3.0250   -9.6220 H   0  0  0  0  0  0  0  0  0  0  0  0
   -1.2382    3.0746  -11.1323 H   0  0  0  0  0  0  0  0  0  0  0  0
   -0.5518    7.1408   -9.9859 H   0  0  0  0  0  0  0  0  0  0  0  0
   -1.8003    7.0637   -7.8993 H   0  0  0  0  0  0  0  0  0  0  0  0
   -3.5790    5.5703   -3.2745 H   0  0  0  0  0  0  0  0  0  0  0  0
   -3.6631    1.4588    0.7717 H   0  0  0  0  0  0  0  0  0  0  0  0
   -5.1330    2.3383    1.3087 H   0  0  0  0  0  0  0  0  0  0  0  0
   -2.3459    2.4556    2.6425 H   0  0  0  0  0  0  0  0  0  0  0  0
   -3.7940    1.5705    3.2511 H   0  0  0  0  0  0  0  0  0  0  0  0
   -3.8098    3.3750    3.1890 H   0  0  0  0  0  0  0  0  0  0  0  0
    3.6519    8.3951   -7.9693 H   0  0  0  0  0  0  0  0  0  0  0  0
    4.2585    9.9731   -7.3681 H   0  0  0  0  0  0  0  0  0  0  0  0
    6.1367    8.4003   -7.8038 H   0  0  0  0  0  0  0  0  0  0  0  0
    5.4211    7.1967   -6.6604 H   0  0  0  0  0  0  0  0  0  0  0  0
    6.0433    8.7846   -6.0427 H   0  0  0  0  0  0  0  0  0  0  0  0
    3.1635    7.1191   -1.8879 H   0  0  0  0  0  0  0  0  0  0  0  0
    2.7511    3.4653    0.6772 H   0  0  0  0  0  0  0  0  0  0  0  0
    1.1504   -1.9292    1.8192 H   0  0  0  0  0  0  0  0  0  0  0  0
    0.6290   -0.5617    2.8625 H   0  0  0  0  0  0  0  0  0  0  0  0
    0.4522   -0.6531   -0.2182 H   0  0  0  0  0  0  0  0  0  0  0  0
   -0.9156   -0.7943    0.9482 H   0  0  0  0  0  0  0  0  0  0  0  0
   -0.0154    0.7599    0.8161 H   0  0  0  0  0  0  0  0  0  0  0  0
   11.2756    9.0990    2.1368 H   0  0  0  0  0  0  0  0  0  0  0  0
   11.7049    7.8214    0.9480 H   0  0  0  0  0  0  0  0  0  0  0  0
   11.4137   10.0167   -0.1772 H   0  0  0  0  0  0  0  0  0  0  0  0
    9.7251   10.1429    0.4567 H   0  0  0  0  0  0  0  0  0  0  0  0
   10.1558    8.8529   -0.7352 H   0  0  0  0  0  0  0  0  0  0  0  0
    9.4635    3.9267    3.0050 H   0  0  0  0  0  0  0  0  0  0  0  0
    9.6438    1.4124    3.6333 H   0  0  0  0  0  0  0  0  0  0  0  0
  1  2  2  0
  2  3  1  0
  3  4  2  0
  4  5  1  0
  5  6  1  0
  6  7  1  0
  7  8  1  0
  8  9  1  0
  7 10  2  0
 10 11  1  0
 10 12  1  0
 12 13  1  0
  4 14  1  0
 14 15  2  0
 15 16  1  0
 16 17  1  0
 17 18  1  0
 18 19  1  0
 19 20  1  0
 20 21  1  0
 19 22  2  0
 22 23  1  0
 23 24  1  0
 22 25  1  0
 16 26  2  0
 26 27  1  0
 15 28  1  0
 28 29  2  0
 29 30  1  0
 29 31  1  0
 31 32  2  0
 32 33  1  0
 33 34  2  0
 34 35  1  0
 35 36  1  0
 36 37  1  0
 37 38  1  0
 38 39  1  0
 37 40  2  0
 40 41  1  0
 40 42  1  0
 42 43  1  0
 34 44  1  0
 44 45  2  0
 45 46  1  0
 46 47  1  0
 47 48  1  0
 48 49  1  0
 49 50  1  0
 50 51  1  0
 49 52  2  0
 52 53  1  0
 53 54  1  0
 52 55  1  0
 46 56  2  0
 56 57  1  0
 45 58  1  0
 58 59  2  0
 59 60  1  0
 59 61  1  0
 61 62  2  0
 62 63  1  0
 63 64  2  0
 64 65  1  0
 65 66  1  0
 66 67  1  0
 67 68  1  0
 68 69  1  0
 67 70  2  0
 70 71  1  0
 70 72  1  0
 72 73  1  0
 64 74  1  0
 74 75  2  0
 75 76  1  0
 76 77  1  0
 77 78  1  0
 78 79  1  0
 79 80  1  0
 80 81  1  0
 79 82  2  0
 82 83  1  0
 83 84  1  0
 82 85  1  0
 76 86  2  0
 86 87  1  0
 75 88  1  0
 88 89  2  0
 89 90  1  0
 89 91  1  0
 91 92  1  0
 92 93  1  0
 93 94  2  0
 94 95  1  0
 95 96  1  0
 96 97  2  0
 97 98  1  0
 97 99  1  0
 99100  1  0
 99101  2  0
 93102  1  0
102103  2  0
103104  1  0
104105  2  0
105106  1  0
106107  1  0
107108  1  0
108109  1  0
109110  1  0
108111  2  0
111112  1  0
111113  1  0
113114  1  0
105115  1  0
115116  2  0
116117  1  0
117118  1  0
118119  1  0
119120  1  0
120121  1  0
121122  1  0
120123  2  0
123124  1  0
124125  1  0
123126  1  0
117127  2  0
127128  1  0
116129  1  0
129130  2  0
130131  1  0
130132  1  0
132133  2  0
133134  1  0
134135  2  0
135136  1  0
136137  1  0
137138  1  0
138139  1  0
139140  1  0
138141  2  0
141142  1  0
141143  1  0
143144  1  0
135145  1  0
145146  2  0
146147  1  0
147148  1  0
148149  1  0
149150  1  0
150151  1  0
151152  1  0
150153  2  0
153154  1  0
154155  1  0
153156  1  0
147157  2  0
157158  1  0
146159  1  0
159160  2  0
160161  1  0
 27  1  1  0
 57 31  1  0
 87 61  1  0
 95 91  2  0
128102  1  0
158132  1  0
 26  3  1  0
 56 33  1  0
 86 63  1  0
101 94  1  0
127104  1  0
157134  1  0
 12  5  2  0
 30 14  1  0
 42 35  2  0
 60 44  1  0
 72 65  2  0
 90 74  1  0
113106  2  0
131115  1  0
143136  2  0
161145  1  0
 23 17  2  0
 53 47  2  0
 83 77  2  0
124118  2  0
154148  2  0
  1162  1  0
  2163  1  0
  8164  1  0
  8165  1  0
  9166  1  0
  9167  1  0
  9168  1  0
 20169  1  0
 20170  1  0
 21171  1  0
 21172  1  0
 21173  1  0
 28174  1  0
 32175  1  0
 38176  1  0
 38177  1  0
 39178  1  0
 39179  1  0
 39180  1  0
 50181  1  0
 50182  1  0
 51183  1  0
 51184  1  0
 51185  1  0
 58186  1  0
 62187  1  0
 68188  1  0
 68189  1  0
 69190  1  0
 69191  1  0
 69192  1  0
 80193  1  0
 80194  1  0
 81195  1  0
 81196  1  0
 81197  1  0
 88198  1  0
 96199  1  0
 98200  1  0
100201  1  0
101202  1  0
103203  1  0
109204  1  0
109205  1  0
110206  1  0
110207  1  0
110208  1  0
121209  1  0
121210  1  0
122211  1  0
122212  1  0
122213  1  0
129214  1  0
133215  1  0
139216  1  0
139217  1  0
140218  1  0
140219  1  0
140220  1  0
151221  1  0
151222  1  0
152223  1  0
152224  1  0
152225  1  0
159226  1  0
160227  1  0
M  END

