
     RDKit          3D

238264  0  0  0  0  0  0  0  0999 V2000
    9.0521    2.7239   11.2605 C   0  0  0  0  0  0  0  0  0  0  0  0
    9.7758    2.6381   10.0730 C   0  0  0  0  0  0  0  0  0  0  0  0
    8.9801    2.3150    8.9609 C   0  0  0  0  0  0  0  0  0  0  0  0
    9.4267    2.1475    7.6353 C   0  0  0  0  0  0  0  0  0  0  0  0
   10.8265    2.3957    7.2476 C   0  0  0  0  0  0  0  0  0  0  0  0
   11.8850    1.2335    6.6522 S   0  0  0  0  0  0  0  0  0  0  0  0
   13.2041    2.2640    6.4650 C   0  0  0  0  0  0  0  0  0  0  0  0
   14.5311    1.8595    5.8954 C   0  0  0  0  0  0  0  0  0  0  0  0
   14.5752    2.1211    4.3928 C   0  0  0  0  0  0  0  0  0  0  0  0
   12.8187    3.5474    6.8413 C   0  0  0  0  0  0  0  0  0  0  0  0
   13.8790    4.9464    6.7477 Cl  0  0  0  0  0  0  0  0  0  0  0  0
   11.4911    3.6212    7.2880 C   0  0  0  0  0  0  0  0  0  0  0  0
   10.7213    5.1196    7.7931 Cl  0  0  0  0  0  0  0  0  0  0  0  0
    8.4612    1.7698    6.6830 C   0  0  0  0  0  0  0  0  0  0  0  0
    7.1124    1.5974    7.0125 C   0  0  0  0  0  0  0  0  0  0  0  0
    6.6669    1.7776    8.3355 C   0  0  0  0  0  0  0  0  0  0  0  0
    5.2419    1.6597    8.6927 C   0  0  0  0  0  0  0  0  0  0  0  0
    4.2708    2.9542    9.1464 S   0  0  0  0  0  0  0  0  0  0  0  0
    2.8290    2.0928    9.2123 C   0  0  0  0  0  0  0  0  0  0  0  0
    1.4845    2.7029    9.4588 C   0  0  0  0  0  0  0  0  0  0  0  0
    0.8738    3.2033    8.1542 C   0  0  0  0  0  0  0  0  0  0  0  0
    3.0886    0.7692    8.8538 C   0  0  0  0  0  0  0  0  0  0  0  0
    4.4440    0.5268    8.5727 C   0  0  0  0  0  0  0  0  0  0  0  0
    5.0628   -1.0496    8.0927 Cl  0  0  0  0  0  0  0  0  0  0  0  0
    1.8436   -0.4645    8.7223 Cl  0  0  0  0  0  0  0  0  0  0  0  0
    7.6334    2.1406    9.2846 C   0  0  0  0  0  0  0  0  0  0  0  0
    7.4296    2.3980   10.9340 S   0  0  0  0  0  0  0  0  0  0  0  0
    6.3087    1.3078    5.9010 C   0  0  0  0  0  0  0  0  0  0  0  0
    7.0277    1.2460    4.7081 C   0  0  0  0  0  0  0  0  0  0  0  0
    8.6554    1.5691    5.0203 S   0  0  0  0  0  0  0  0  0  0  0  0
    6.4298    1.0770    3.3747 C   0  0  0  0  0  0  0  0  0  0  0  0
    7.0827    1.2683    2.1587 C   0  0  0  0  0  0  0  0  0  0  0  0
    6.2110    1.2244    1.0576 C   0  0  0  0  0  0  0  0  0  0  0  0
    6.5588    1.4691   -0.2834 C   0  0  0  0  0  0  0  0  0  0  0  0
    7.9646    1.6030   -0.7019 C   0  0  0  0  0  0  0  0  0  0  0  0
    9.0869    0.3509   -0.6746 S   0  0  0  0  0  0  0  0  0  0  0  0
   10.3642    1.2366   -1.3168 C   0  0  0  0  0  0  0  0  0  0  0  0
   11.7442    0.6951   -1.5411 C   0  0  0  0  0  0  0  0  0  0  0  0
   12.6231    0.9467   -0.3220 C   0  0  0  0  0  0  0  0  0  0  0  0
    9.9283    2.5420   -1.5460 C   0  0  0  0  0  0  0  0  0  0  0  0
   10.9646    3.8101   -2.1918 Cl  0  0  0  0  0  0  0  0  0  0  0  0
    8.5811    2.7490   -1.2067 C   0  0  0  0  0  0  0  0  0  0  0  0
    7.7760    4.3042   -1.3500 Cl  0  0  0  0  0  0  0  0  0  0  0  0
    5.5087    1.5260   -1.2135 C   0  0  0  0  0  0  0  0  0  0  0  0
    4.1732    1.3015   -0.8532 C   0  0  0  0  0  0  0  0  0  0  0  0
    3.8269    0.9865    0.4776 C   0  0  0  0  0  0  0  0  0  0  0  0
    2.4275    0.7403    0.9003 C   0  0  0  0  0  0  0  0  0  0  0  0
    1.6293    1.5935    2.1101 S   0  0  0  0  0  0  0  0  0  0  0  0
    0.1715    0.7612    2.0062 C   0  0  0  0  0  0  0  0  0  0  0  0
   -1.0357    1.0628    2.8480 C   0  0  0  0  0  0  0  0  0  0  0  0
   -0.8115    0.6441    4.2963 C   0  0  0  0  0  0  0  0  0  0  0  0
    0.2847   -0.2022    1.0052 C   0  0  0  0  0  0  0  0  0  0  0  0
    1.5514   -0.2223    0.3940 C   0  0  0  0  0  0  0  0  0  0  0  0
    2.0014   -1.3958   -0.8391 Cl  0  0  0  0  0  0  0  0  0  0  0  0
   -1.0343   -1.2506    0.4978 Cl  0  0  0  0  0  0  0  0  0  0  0  0
    4.8785    0.9870    1.4130 C   0  0  0  0  0  0  0  0  0  0  0  0
    4.7867    0.8218    3.0854 S   0  0  0  0  0  0  0  0  0  0  0  0
    3.2838    1.4880   -1.9196 C   0  0  0  0  0  0  0  0  0  0  0  0
    3.9260    1.8275   -3.1063 C   0  0  0  0  0  0  0  0  0  0  0  0
    5.5899    1.9128   -2.8581 S   0  0  0  0  0  0  0  0  0  0  0  0
    3.2205    2.1701   -4.3404 C   0  0  0  0  0  0  0  0  0  0  0  0
    2.5577    3.3846   -4.5079 C   0  0  0  0  0  0  0  0  0  0  0  0
    1.4537    3.2976   -5.3739 C   0  0  0  0  0  0  0  0  0  0  0  0
    0.4796    4.2958   -5.5977 C   0  0  0  0  0  0  0  0  0  0  0  0
    0.6265    5.6886   -5.1137 C   0  0  0  0  0  0  0  0  0  0  0  0
    0.8572    6.1631   -3.5176 S   0  0  0  0  0  0  0  0  0  0  0  0
    0.9201    7.8161   -3.8158 C   0  0  0  0  0  0  0  0  0  0  0  0
    1.2239    8.8617   -2.7835 C   0  0  0  0  0  0  0  0  0  0  0  0
    2.7259    9.1016   -2.6916 C   0  0  0  0  0  0  0  0  0  0  0  0
    0.7626    8.0257   -5.1840 C   0  0  0  0  0  0  0  0  0  0  0  0
    0.8100    9.6094   -5.9410 Cl  0  0  0  0  0  0  0  0  0  0  0  0
    0.5877    6.8363   -5.9085 C   0  0  0  0  0  0  0  0  0  0  0  0
    0.4341    6.7891   -7.6619 Cl  0  0  0  0  0  0  0  0  0  0  0  0
   -0.6904    3.8981   -6.2698 C   0  0  0  0  0  0  0  0  0  0  0  0
   -0.8562    2.6170   -6.7999 C   0  0  0  0  0  0  0  0  0  0  0  0
    0.1604    1.6506   -6.6660 C   0  0  0  0  0  0  0  0  0  0  0  0
   -0.0303    0.2690   -7.1458 C   0  0  0  0  0  0  0  0  0  0  0  0
   -0.2030   -0.1463   -8.7654 S   0  0  0  0  0  0  0  0  0  0  0  0
   -0.5634   -1.7684   -8.4983 C   0  0  0  0  0  0  0  0  0  0  0  0
   -0.9776   -2.7248   -9.5743 C   0  0  0  0  0  0  0  0  0  0  0  0
   -2.4912   -2.7081   -9.7491 C   0  0  0  0  0  0  0  0  0  0  0  0
   -0.5900   -1.9995   -7.1251 C   0  0  0  0  0  0  0  0  0  0  0  0
   -0.2920   -0.8580   -6.3635 C   0  0  0  0  0  0  0  0  0  0  0  0
   -0.3831   -0.8282   -4.6098 Cl  0  0  0  0  0  0  0  0  0  0  0  0
   -1.0234   -3.5441   -6.4055 Cl  0  0  0  0  0  0  0  0  0  0  0  0
    1.2854    2.0158   -5.9094 C   0  0  0  0  0  0  0  0  0  0  0  0
    2.4722    0.9985   -5.2884 S   0  0  0  0  0  0  0  0  0  0  0  0
   -2.1745    2.3377   -7.1793 C   0  0  0  0  0  0  0  0  0  0  0  0
   -3.0885    3.3257   -6.8080 C   0  0  0  0  0  0  0  0  0  0  0  0
   -2.2059    4.6232   -6.1787 S   0  0  0  0  0  0  0  0  0  0  0  0
   -4.3286    2.8742   -6.1695 C   0  0  0  0  0  0  0  0  0  0  0  0
   -4.2391    2.4567   -4.8381 C   0  0  0  0  0  0  0  0  0  0  0  0
   -4.9168    1.2631   -4.5703 C   0  0  0  0  0  0  0  0  0  0  0  0
   -4.7203    0.4438   -3.4376 C   0  0  0  0  0  0  0  0  0  0  0  0
   -3.8731    0.8722   -2.3104 C   0  0  0  0  0  0  0  0  0  0  0  0
   -2.2274    1.2116   -2.4240 S   0  0  0  0  0  0  0  0  0  0  0  0
   -2.0912    2.0172   -0.9574 C   0  0  0  0  0  0  0  0  0  0  0  0
   -0.8832    2.7983   -0.5372 C   0  0  0  0  0  0  0  0  0  0  0  0
   -0.8547    4.1481   -1.2389 C   0  0  0  0  0  0  0  0  0  0  0  0
   -3.3504    2.0503   -0.3599 C   0  0  0  0  0  0  0  0  0  0  0  0
   -3.6907    2.9030    1.1414 Cl  0  0  0  0  0  0  0  0  0  0  0  0
   -4.3464    1.4039   -1.1159 C   0  0  0  0  0  0  0  0  0  0  0  0
   -6.0434    1.3907   -0.6600 Cl  0  0  0  0  0  0  0  0  0  0  0  0
   -5.3196   -0.8260   -3.4695 C   0  0  0  0  0  0  0  0  0  0  0  0
   -6.1508   -1.2388   -4.5183 C   0  0  0  0  0  0  0  0  0  0  0  0
   -6.3858   -0.3956   -5.6211 C   0  0  0  0  0  0  0  0  0  0  0  0
   -7.3647   -0.7388   -6.6664 C   0  0  0  0  0  0  0  0  0  0  0  0
   -9.0258   -0.6609   -6.4425 S   0  0  0  0  0  0  0  0  0  0  0  0
   -9.4551   -1.0074   -8.0375 C   0  0  0  0  0  0  0  0  0  0  0  0
  -10.8597   -1.1430   -8.5647 C   0  0  0  0  0  0  0  0  0  0  0  0
  -11.8333   -0.2075   -7.8508 C   0  0  0  0  0  0  0  0  0  0  0  0
   -8.2816   -1.2263   -8.7600 C   0  0  0  0  0  0  0  0  0  0  0  0
   -7.1104   -1.0515   -7.9988 C   0  0  0  0  0  0  0  0  0  0  0  0
   -5.4978   -1.3154   -8.6390 Cl  0  0  0  0  0  0  0  0  0  0  0  0
   -8.2564   -1.6457  -10.4694 Cl  0  0  0  0  0  0  0  0  0  0  0  0
   -5.6969    0.8263   -5.6408 C   0  0  0  0  0  0  0  0  0  0  0  0
   -5.4244    1.8491   -6.9519 S   0  0  0  0  0  0  0  0  0  0  0  0
   -6.5687   -2.5699   -4.4065 C   0  0  0  0  0  0  0  0  0  0  0  0
   -6.0152   -3.2231   -3.3079 C   0  0  0  0  0  0  0  0  0  0  0  0
   -5.0486   -2.1365   -2.4428 S   0  0  0  0  0  0  0  0  0  0  0  0
   -6.1353   -4.6678   -3.0559 C   0  0  0  0  0  0  0  0  0  0  0  0
   -7.2314   -5.3794   -3.2898 C   0  0  0  0  0  0  0  0  0  0  0  0
   -6.9723   -6.8319   -3.0550 C   0  0  0  0  0  0  0  0  0  0  0  0
   -7.2096   -7.5965   -4.2775 N   0  0  0  0  0  4  0  0  0  0  0  0
   -8.1996   -8.5497   -4.3036 O   0  0  0  0  0  1  0  0  0  0  0  0
   -6.6050   -7.3146   -5.3349 O   0  0  0  0  0  0  0  0  0  0  0  0
   -5.5115   -6.8238   -2.6687 C   0  0  0  0  0  0  0  0  0  0  0  0
   -4.6475   -8.0508   -2.4682 C   0  0  0  0  0  0  0  0  0  0  0  0
   -4.0408   -8.4964   -3.7606 C   0  0  0  0  0  0  0  0  0  0  0  0
   -4.4137   -9.7345   -4.0501 C   0  0  0  0  0  0  0  0  0  0  0  0
   -5.2891  -10.2278   -3.0043 C   0  0  0  0  0  0  0  0  0  0  0  0
   -5.4336   -9.2734   -2.0942 C   0  0  0  0  0  0  0  0  0  0  0  0
   -6.1907   -9.4187   -0.8856 N   0  0  0  0  0  4  0  0  0  0  0  0
   -6.8703  -10.5872   -0.6296 O   0  0  0  0  0  1  0  0  0  0  0  0
   -6.3423   -8.4464   -0.1196 O   0  0  0  0  0  0  0  0  0  0  0  0
   -5.0554   -5.5740   -2.6721 C   0  0  0  0  0  0  0  0  0  0  0  0
   -3.6317   -5.2058   -2.5395 C   0  0  0  0  0  0  0  0  0  0  0  0
   -3.0124   -4.9566   -1.3786 C   0  0  0  0  0  0  0  0  0  0  0  0
   -3.6552   -4.8650   -0.0499 C   0  0  0  0  0  0  0  0  0  0  0  0
   -2.9546   -4.7205    1.1503 C   0  0  0  0  0  0  0  0  0  0  0  0
   -3.7965   -4.5497    2.2665 C   0  0  0  0  0  0  0  0  0  0  0  0
   -3.3957   -4.3781    3.6120 C   0  0  0  0  0  0  0  0  0  0  0  0
   -1.9720   -4.3226    4.0052 C   0  0  0  0  0  0  0  0  0  0  0  0
   -0.8787   -3.1755    3.4498 S   0  0  0  0  0  0  0  0  0  0  0  0
    0.4455   -3.7275    4.3228 C   0  0  0  0  0  0  0  0  0  0  0  0
    1.8133   -3.1104    4.2904 C   0  0  0  0  0  0  0  0  0  0  0  0
    2.0390   -2.2057    5.4986 C   0  0  0  0  0  0  0  0  0  0  0  0
    0.0429   -4.8242    5.0837 C   0  0  0  0  0  0  0  0  0  0  0  0
    1.1146   -5.7053    6.1635 Cl  0  0  0  0  0  0  0  0  0  0  0  0
   -1.3107   -5.1582    4.9075 C   0  0  0  0  0  0  0  0  0  0  0  0
   -2.0672   -6.5397    5.6905 Cl  0  0  0  0  0  0  0  0  0  0  0  0
   -4.4247   -4.2151    4.5598 C   0  0  0  0  0  0  0  0  0  0  0  0
   -5.7810   -4.2194    4.2135 C   0  0  0  0  0  0  0  0  0  0  0  0
   -6.1726   -4.3863    2.8721 C   0  0  0  0  0  0  0  0  0  0  0  0
   -7.5831   -4.3821    2.4489 C   0  0  0  0  0  0  0  0  0  0  0  0
   -8.6483   -5.6590    2.6919 S   0  0  0  0  0  0  0  0  0  0  0  0
   -9.8901   -5.0442    1.7315 C   0  0  0  0  0  0  0  0  0  0  0  0
  -11.1402   -5.7920    1.3820 C   0  0  0  0  0  0  0  0  0  0  0  0
  -10.8738   -6.7823    0.2514 C   0  0  0  0  0  0  0  0  0  0  0  0
   -9.4681   -3.8344    1.1825 C   0  0  0  0  0  0  0  0  0  0  0  0
   -8.1774   -3.4615    1.5859 C   0  0  0  0  0  0  0  0  0  0  0  0
   -7.3788   -1.9906    1.0437 Cl  0  0  0  0  0  0  0  0  0  0  0  0
  -10.4233   -2.8896    0.0489 Cl  0  0  0  0  0  0  0  0  0  0  0  0
   -5.1528   -4.5581    1.9297 C   0  0  0  0  0  0  0  0  0  0  0  0
   -5.3088   -4.7891    0.2784 S   0  0  0  0  0  0  0  0  0  0  0  0
   -6.6360   -3.9925    5.3042 C   0  0  0  0  0  0  0  0  0  0  0  0
   -5.9533   -3.7949    6.5006 C   0  0  0  0  0  0  0  0  0  0  0  0
   -4.2956   -3.9042    6.2103 S   0  0  0  0  0  0  0  0  0  0  0  0
    9.4668    2.9512   12.2309 H   0  0  0  0  0  0  0  0  0  0  0  0
   10.8484    2.7947   10.0288 H   0  0  0  0  0  0  0  0  0  0  0  0
   15.3430    2.4302    6.3933 H   0  0  0  0  0  0  0  0  0  0  0  0
   14.7031    0.7767    6.0828 H   0  0  0  0  0  0  0  0  0  0  0  0
   14.4239    3.2016    4.1789 H   0  0  0  0  0  0  0  0  0  0  0  0
   15.5665    1.8162    3.9929 H   0  0  0  0  0  0  0  0  0  0  0  0
   13.7874    1.5313    3.8764 H   0  0  0  0  0  0  0  0  0  0  0  0
    0.8059    1.9592    9.9260 H   0  0  0  0  0  0  0  0  0  0  0  0
    1.5950    3.5574   10.1637 H   0  0  0  0  0  0  0  0  0  0  0  0
    1.5155    3.9912    7.7077 H   0  0  0  0  0  0  0  0  0  0  0  0
   -0.1293    3.6367    8.3593 H   0  0  0  0  0  0  0  0  0  0  0  0
    0.7643    2.3680    7.4303 H   0  0  0  0  0  0  0  0  0  0  0  0
    5.2333    1.1928    5.9494 H   0  0  0  0  0  0  0  0  0  0  0  0
    8.1393    1.4937    2.0845 H   0  0  0  0  0  0  0  0  0  0  0  0
   12.1961    1.1789   -2.4337 H   0  0  0  0  0  0  0  0  0  0  0  0
   11.6877   -0.4007   -1.7243 H   0  0  0  0  0  0  0  0  0  0  0  0
   12.2328    0.3888    0.5552 H   0  0  0  0  0  0  0  0  0  0  0  0
   13.6585    0.6006   -0.5288 H   0  0  0  0  0  0  0  0  0  0  0  0
   12.6563    2.0308   -0.0750 H   0  0  0  0  0  0  0  0  0  0  0  0
   -1.9344    0.5461    2.4513 H   0  0  0  0  0  0  0  0  0  0  0  0
   -1.2310    2.1563    2.8226 H   0  0  0  0  0  0  0  0  0  0  0  0
   -0.6936   -0.4547    4.3627 H   0  0  0  0  0  0  0  0  0  0  0  0
    0.0924    1.1363    4.7142 H   0  0  0  0  0  0  0  0  0  0  0  0
   -1.6883    0.9388    4.9080 H   0  0  0  0  0  0  0  0  0  0  0  0
    2.2077    1.4204   -1.8335 H   0  0  0  0  0  0  0  0  0  0  0  0
    2.7952    4.2513   -3.9107 H   0  0  0  0  0  0  0  0  0  0  0  0
    0.8478    8.5200   -1.7935 H   0  0  0  0  0  0  0  0  0  0  0  0
    0.7069    9.8109   -3.0446 H   0  0  0  0  0  0  0  0  0  0  0  0
    2.9317    9.8782   -1.9252 H   0  0  0  0  0  0  0  0  0  0  0  0
    3.2453    8.1667   -2.3978 H   0  0  0  0  0  0  0  0  0  0  0  0
    3.1245    9.4500   -3.6667 H   0  0  0  0  0  0  0  0  0  0  0  0
   -0.6454   -3.7528   -9.3166 H   0  0  0  0  0  0  0  0  0  0  0  0
   -0.5015   -2.4348  -10.5353 H   0  0  0  0  0  0  0  0  0  0  0  0
   -2.7798   -3.3934  -10.5727 H   0  0  0  0  0  0  0  0  0  0  0  0
   -2.9912   -3.0409   -8.8126 H   0  0  0  0  0  0  0  0  0  0  0  0
   -2.8314   -1.6827  -10.0107 H   0  0  0  0  0  0  0  0  0  0  0  0
   -2.4969    1.3365   -7.4412 H   0  0  0  0  0  0  0  0  0  0  0  0
   -3.5160    2.8879   -4.1596 H   0  0  0  0  0  0  0  0  0  0  0  0
    0.0312    2.2303   -0.8064 H   0  0  0  0  0  0  0  0  0  0  0  0
   -0.8860    2.9590    0.5587 H   0  0  0  0  0  0  0  0  0  0  0  0
   -1.7812    4.7180   -1.0180 H   0  0  0  0  0  0  0  0  0  0  0  0
    0.0154    4.7374   -0.8818 H   0  0  0  0  0  0  0  0  0  0  0  0
   -0.7618    4.0036   -2.3391 H   0  0  0  0  0  0  0  0  0  0  0  0
  -10.8707   -0.8960   -9.6482 H   0  0  0  0  0  0  0  0  0  0  0  0
  -11.1967   -2.1956   -8.4352 H   0  0  0  0  0  0  0  0  0  0  0  0
  -12.8349   -0.2756   -8.3236 H   0  0  0  0  0  0  0  0  0  0  0  0
  -11.9312   -0.4921   -6.7822 H   0  0  0  0  0  0  0  0  0  0  0  0
  -11.4764    0.8392   -7.9106 H   0  0  0  0  0  0  0  0  0  0  0  0
   -7.1743   -3.0752   -5.1503 H   0  0  0  0  0  0  0  0  0  0  0  0
   -8.1729   -4.9590   -3.6082 H   0  0  0  0  0  0  0  0  0  0  0  0
   -7.6024   -7.2096   -2.2195 H   0  0  0  0  0  0  0  0  0  0  0  0
   -3.8521   -7.8684   -1.7098 H   0  0  0  0  0  0  0  0  0  0  0  0
   -3.3791   -7.9068   -4.3793 H   0  0  0  0  0  0  0  0  0  0  0  0
   -4.1099  -10.2850   -4.9300 H   0  0  0  0  0  0  0  0  0  0  0  0
   -5.7388  -11.2130   -2.9677 H   0  0  0  0  0  0  0  0  0  0  0  0
   -3.0344   -5.2395   -3.4415 H   0  0  0  0  0  0  0  0  0  0  0  0
   -1.9419   -4.7944   -1.4115 H   0  0  0  0  0  0  0  0  0  0  0  0
   -1.8743   -4.7302    1.1997 H   0  0  0  0  0  0  0  0  0  0  0  0
    1.9220   -2.5115    3.3628 H   0  0  0  0  0  0  0  0  0  0  0  0
    2.5843   -3.9077    4.2746 H   0  0  0  0  0  0  0  0  0  0  0  0
    1.2672   -1.4067    5.5373 H   0  0  0  0  0  0  0  0  0  0  0  0
    1.9991   -2.7938    6.4422 H   0  0  0  0  0  0  0  0  0  0  0  0
    3.0380   -1.7265    5.4233 H   0  0  0  0  0  0  0  0  0  0  0  0
  -11.9401   -5.0810    1.0789 H   0  0  0  0  0  0  0  0  0  0  0  0
  -11.4981   -6.3420    2.2813 H   0  0  0  0  0  0  0  0  0  0  0  0
  -10.1419   -7.5474    0.5835 H   0  0  0  0  0  0  0  0  0  0  0  0
  -10.4740   -6.2527   -0.6375 H   0  0  0  0  0  0  0  0  0  0  0  0
  -11.8196   -7.2922   -0.0278 H   0  0  0  0  0  0  0  0  0  0  0  0
   -7.7155   -3.9565    5.2297 H   0  0  0  0  0  0  0  0  0  0  0  0
   -6.4125   -3.6000    7.4572 H   0  0  0  0  0  0  0  0  0  0  0  0
  1  2  2  0
  2  3  1  0
  3  4  2  0
  4  5  1  0
  5  6  1  0
  6  7  1  0
  7  8  1  0
  8  9  1  0
  7 10  2  0
 10 11  1  0
 10 12  1  0
 12 13  1  0
  4 14  1  0
 14 15  2  0
 15 16  1  0
 16 17  1  0
 17 18  1  0
 18 19  1  0
 19 20  1  0
 20 21  1  0
 19 22  2  0
 22 23  1  0
 23 24  1  0
 22 25  1  0
 16 26  2  0
 26 27  1  0
 15 28  1  0
 28 29  2  0
 29 30  1  0
 29 31  1  0
 31 32  2  0
 32 33  1  0
 33 34  2  0
 34 35  1  0
 35 36  1  0
 36 37  1  0
 37 38  1  0
 38 39  1  0
 37 40  2  0
 40 41  1  0
 40 42  1  0
 42 43  1  0
 34 44  1  0
 44 45  2  0
 45 46  1  0
 46 47  1  0
 47 48  1  0
 48 49  1  0
 49 50  1  0
 50 51  1  0
 49 52  2  0
 52 53  1  0
 53 54  1  0
 52 55  1  0
 46 56  2  0
 56 57  1  0
 45 58  1  0
 58 59  2  0
 59 60  1  0
 59 61  1  0
 61 62  2  0
 62 63  1  0
 63 64  2  0
 64 65  1  0
 65 66  1  0
 66 67  1  0
 67 68  1  0
 68 69  1  0
 67 70  2  0
 70 71  1  0
 70 72  1  0
 72 73  1  0
 64 74  1  0
 74 75  2  0
 75 76  1  0
 76 77  1  0
 77 78  1  0
 78 79  1  0
 79 80  1  0
 80 81  1  0
 79 82  2  0
 82 83  1  0
 83 84  1  0
 82 85  1  0
 76 86  2  0
 86 87  1  0
 75 88  1  0
 88 89  2  0
 89 90  1  0
 89 91  1  0
 91 92  2  0
 92 93  1  0
 93 94  2  0
 94 95  1  0
 95 96  1  0
 96 97  1  0
 97 98  1  0
 98 99  1  0
 97100  2  0
100101  1  0
100102  1  0
102103  1  0
 94104  1  0
104105  2  0
105106  1  0
106107  1  0
107108  1  0
108109  1  0
109110  1  0
110111  1  0
109112  2  0
112113  1  0
113114  1  0
112115  1  0
106116  2  0
116117  1  0
105118  1  0
118119  2  0
119120  1  0
119121  1  0
121122  2  0
122123  1  0
123124  1  0
124125  1  0
124126  2  0
123127  1  0
127128  1  0
128129  1  0
129130  2  0
130131  1  0
131132  2  0
132133  1  0
133134  1  0
133135  2  0
127136  2  0
136137  1  0
137138  2  3
138139  1  0
139140  2  0
140141  1  0
141142  2  0
142143  1  0
143144  1  0
144145  1  0
145146  1  0
146147  1  0
145148  2  0
148149  1  0
148150  1  0
150151  1  0
142152  1  0
152153  2  0
153154  1  0
154155  1  0
155156  1  0
156157  1  0
157158  1  0
158159  1  0
157160  2  0
160161  1  0
161162  1  0
160163  1  0
154164  2  0
164165  1  0
153166  1  0
166167  2  0
167168  1  0
 27  1  1  0
 57 31  1  0
 87 61  1  0
117 91  1  0
136121  1  0
165139  1  0
 26  3  1  0
 56 33  1  0
 86 63  1  0
116 93  1  0
132128  1  0
164141  1  0
 12  5  2  0
 30 14  1  0
 42 35  2  0
 60 44  1  0
 72 65  2  0
 90 74  1  0
102 95  2  0
120104  1  0
150143  2  0
168152  1  0
 23 17  2  0
 53 47  2  0
 83 77  2  0
113107  2  0
161155  2  0
  1169  1  0
  2170  1  0
  8171  1  0
  8172  1  0
  9173  1  0
  9174  1  0
  9175  1  0
 20176  1  0
 20177  1  0
 21178  1  0
 21179  1  0
 21180  1  0
 28181  1  0
 32182  1  0
 38183  1  0
 38184  1  0
 39185  1  0
 39186  1  0
 39187  1  0
 50188  1  0
 50189  1  0
 51190  1  0
 51191  1  0
 51192  1  0
 58193  1  0
 62194  1  0
 68195  1  0
 68196  1  0
 69197  1  0
 69198  1  0
 69199  1  0
 80200  1  0
 80201  1  0
 81202  1  0
 81203  1  0
 81204  1  0
 88205  1  0
 92206  1  0
 98207  1  0
 98208  1  0
 99209  1  0
 99210  1  0
 99211  1  0
110212  1  0
110213  1  0
111214  1  0
111215  1  0
111216  1  0
118217  1  0
122218  1  0
123219  1  0
128220  1  0
129221  1  0
130222  1  0
131223  1  0
137224  1  0
138225  1  0
140226  1  0
146227  1  0
146228  1  0
147229  1  0
147230  1  0
147231  1  0
158232  1  0
158233  1  0
159234  1  0
159235  1  0
159236  1  0
166237  1  0
167238  1  0
M  CHG  4 124   1 125  -1 133   1 134  -1
M  END

